REMARK  Name = 
REMARK  5 active torsions:
REMARK  status: ('A' for Active; 'I' for Inactive)
REMARK    1  A    between atoms: C_1  and  C_8
REMARK    2  A    between atoms: C_3  and  N_12
REMARK    3  A    between atoms: C_10  and  C_13
REMARK    4  A    between atoms: C_17  and  C_19
REMARK    5  A    between atoms: C_19  and  C_33
REMARK                            x       y       z     vdW  Elec       q    Type
REMARK                         _______ _______ _______ _____ _____    ______ ____
ROOT
ATOM      1  C   UNL     1      39.137  31.494  43.292  0.00  0.00    +0.000 A 
ATOM      2  C   UNL     1      40.145  30.583  43.436  0.00  0.00    +0.000 A 
ATOM      3  C   UNL     1      40.860  30.234  42.301  0.00  0.00    +0.000 A 
ATOM      4  C   UNL     1      40.520  30.814  41.109  0.00  0.00    +0.000 A 
ATOM      5  C   UNL     1      39.488  31.747  40.961  0.00  0.00    +0.000 A 
ATOM      6  N   UNL     1      38.831  32.046  42.097  0.00  0.00    +0.000 NA
ATOM      7  H   UNL     1      40.421  30.118  44.376  0.00  0.00    +0.000 HD
ATOM      8  H   UNL     1      41.676  29.524  42.302  0.00  0.00    +0.000 HD
ATOM      9  H   UNL     1      41.045  30.581  40.176  0.00  0.00    +0.000 HD
ENDROOT
BRANCH   1  10
ATOM     10  C   UNL     1      38.357  31.891  44.484  0.00  0.00    +0.000 C 
ATOM     11  O   UNL     1      37.237  32.422  44.382  0.00  0.00    +0.000 OA
ATOM     12  N   UNL     1      38.952  31.636  45.790  0.00  0.00    +0.000 N 
ATOM     13  H   UNL     1      39.935  31.389  45.929  0.00  0.00    +0.000 HD
BRANCH  12  16
ATOM     14  C   UNL     1      38.449  31.123  48.170  0.00  0.00    +0.000 C 
ATOM     15  C   UNL     1      38.684  32.589  48.088  0.00  0.00    +0.000 C 
ATOM     16  C   UNL     1      38.087  31.744  46.938  0.00  0.00    +0.000 C 
ATOM     17  H   UNL     1      39.365  30.504  48.259  0.00  0.00    +0.000 HD
ATOM     18  H   UNL     1      38.025  33.290  48.619  0.00  0.00    +0.000 HD
ATOM     19  H   UNL     1      39.709  32.938  47.975  0.00  0.00    +0.000 HD
ATOM     20  H   UNL     1      37.005  32.004  46.754  0.00  0.00    +0.000 HD
BRANCH  14  25
ATOM     21  C   UNL     1      35.081  30.265  49.498  0.00  0.00    +0.000 A 
ATOM     22  C   UNL     1      35.413  29.558  50.697  0.00  0.00    +0.000 A 
ATOM     23  C   UNL     1      36.814  29.401  51.027  0.00  0.00    +0.000 A 
ATOM     24  N   UNL     1      37.773  29.926  50.193  0.00  0.00    +0.000 NA
ATOM     25  C   UNL     1      37.363  30.583  49.075  0.00  0.00    +0.000 A 
ATOM     26  N   UNL     1      36.039  30.773  48.694  0.00  0.00    +0.000 NA
ATOM     27  H   UNL     1      34.047  30.381  49.256  0.00  0.00    +0.000 HD
ATOM     28  H   UNL     1      34.665  29.159  51.330  0.00  0.00    +0.000 HD
ATOM     29  H   UNL     1      37.063  28.869  51.930  0.00  0.00    +0.000 HD
ENDBRANCH  14  25
ENDBRANCH  12  16
ENDBRANCH   1  10
BRANCH   5  30
ATOM     30  C   UNL     1      39.155  32.344  39.668  0.00  0.00    +0.000 C 
ATOM     31  O   UNL     1      38.865  33.563  39.635  0.00  0.00    +0.000 OA
BRANCH  30  33
ATOM     32  C   UNL     1      38.803  31.850  37.219  0.00  0.00    +0.000 A 
ATOM     33  C   UNL     1      39.179  31.479  38.474  0.00  0.00    +0.000 A 
ATOM     34  C   UNL     1      39.616  30.173  38.614  0.00  0.00    +0.000 A 
ATOM     35  H   UNL     1      39.927  29.835  39.608  0.00  0.00    +0.000 HD
ATOM     36  C   UNL     1      39.688  29.259  37.581  0.00  0.00    +0.000 A 
ATOM     37  N   UNL     1      40.093  27.959  37.572  0.00  0.00    +0.000 N 
ATOM     38  C   UNL     1      39.950  27.566  36.291  0.00  0.00    +0.000 A 
ATOM     39  H   UNL     1      40.219  26.538  36.035  0.00  0.00    +0.000 HD
ATOM     40  N   UNL     1      39.481  28.572  35.541  0.00  0.00    +0.000 NA
ATOM     41  C   UNL     1      39.301  29.666  36.325  0.00  0.00    +0.000 A 
ATOM     42  C   UNL     1      38.860  30.967  36.157  0.00  0.00    +0.000 A 
ATOM     43  H   UNL     1      40.435  27.416  38.407  0.00  0.00    +0.000 HD
ENDBRANCH  30  33
ENDBRANCH   5  30
TORSDOF 5
