
     RDKit          3D

 45 49  0  0  0  0  0  0  0  0999 V2000
   38.4487   31.1228   48.1700 C   0  0  2  0  0  0  0  0  0  0  0  0
   38.6843   32.5888   48.0878 C   0  0  0  0  0  0  0  0  0  0  0  0
   38.0874   31.7436   46.9378 C   0  0  1  0  0  0  0  0  0  0  0  0
   35.0813   30.2652   49.4984 C   0  0  0  0  0  0  0  0  0  0  0  0
   35.4133   29.5582   50.6975 C   0  0  0  0  0  0  0  0  0  0  0  0
   36.8142   29.4010   51.0272 C   0  0  0  0  0  0  0  0  0  0  0  0
   37.7727   29.9264   50.1932 N   0  0  0  0  0  0  0  0  0  0  0  0
   37.3634   30.5826   49.0751 C   0  0  0  0  0  0  0  0  0  0  0  0
   36.0395   30.7729   48.6941 N   0  0  0  0  0  0  0  0  0  0  0  0
   38.3566   31.8910   44.4838 C   0  0  0  0  0  0  0  0  0  0  0  0
   37.2374   32.4215   44.3816 O   0  0  0  0  0  0  0  0  0  0  0  0
   38.9515   31.6362   45.7898 N   0  0  0  0  0  0  0  0  0  0  0  0
   39.1371   31.4939   43.2919 C   0  0  0  0  0  0  0  0  0  0  0  0
   40.1454   30.5829   43.4363 C   0  0  0  0  0  0  0  0  0  0  0  0
   40.8599   30.2337   42.3013 C   0  0  0  0  0  0  0  0  0  0  0  0
   40.5205   30.8139   41.1094 C   0  0  0  0  0  0  0  0  0  0  0  0
   39.4882   31.7467   40.9605 C   0  0  0  0  0  0  0  0  0  0  0  0
   38.8306   32.0462   42.0968 N   0  0  0  0  0  0  0  0  0  0  0  0
   39.1550   32.3443   39.6677 C   0  0  0  0  0  0  0  0  0  0  0  0
   38.8649   33.5631   39.6351 O   0  0  0  0  0  0  0  0  0  0  0  0
   39.3646   30.5036   48.2591 H   0  0  0  0  0  0  0  0  0  0  0  0
   38.0254   33.2897   48.6186 H   0  0  0  0  0  0  0  0  0  0  0  0
   39.7087   32.9383   47.9749 H   0  0  0  0  0  0  0  0  0  0  0  0
   37.0053   32.0041   46.7537 H   0  0  0  0  0  0  0  0  0  0  0  0
   34.0470   30.3806   49.2561 H   0  0  0  0  0  0  0  0  0  0  0  0
   34.6650   29.1589   51.3297 H   0  0  0  0  0  0  0  0  0  0  0  0
   37.0633   28.8685   51.9304 H   0  0  0  0  0  0  0  0  0  0  0  0
   39.9352   31.3892   45.9287 H   0  0  0  0  0  0  0  0  0  0  0  0
   40.4214   30.1179   44.3763 H   0  0  0  0  0  0  0  0  0  0  0  0
   41.6760   29.5245   42.3022 H   0  0  0  0  0  0  0  0  0  0  0  0
   41.0454   30.5811   40.1759 H   0  0  0  0  0  0  0  0  0  0  0  0
   39.5803   30.1780   38.4478 C   0  0  0  0  0  0  0  0  0  0  0  0
   39.1790   31.4787   38.4744 C   0  0  0  0  0  0  0  0  0  0  0  0
   38.7635   32.0082   37.2648 C   0  0  0  0  0  0  0  0  0  0  0  0
   38.4332   33.0526   37.2447 H   0  0  0  0  0  0  0  0  0  0  0  0
   38.7360   31.3097   36.0742 C   0  0  0  0  0  0  0  0  0  0  0  0
   38.3569   31.6968   34.8255 N   0  0  0  0  0  0  0  0  0  0  0  0
   38.5403   30.6041   34.0587 C   0  0  0  0  0  0  0  0  0  0  0  0
   38.2983   30.6756   32.9951 H   0  0  0  0  0  0  0  0  0  0  0  0
   39.0098   29.5887   34.7944 N   0  0  0  0  0  0  0  0  0  0  0  0
   39.1483   29.9964   36.0821 C   0  0  0  0  0  0  0  0  0  0  0  0
   39.5689   29.4413   37.2774 C   0  0  0  0  0  0  0  0  0  0  0  0
   39.9111   29.7387   39.3835 H   0  0  0  0  0  0  0  0  0  0  0  0
   38.0026   32.6528   34.5596 H   0  0  0  0  0  0  0  0  0  0  0  0
   39.8848   28.4166   37.2553 H   0  0  0  0  0  0  0  0  0  0  0  0
  1  8  1  0
  2  1  1  0
  3  2  1  0
  3  1  1  0
  4  5  2  0
  5  6  1  0
  7  6  2  0
  8  7  1  0
  9  8  2  0
  9  4  1  0
 10 12  1  0
 11 10  2  0
 12  3  1  0
 13 14  2  0
 13 10  1  0
 15 14  1  0
 16 15  2  0
 17 16  1  0
 17 18  2  0
 18 13  1  0
 19 17  1  0
 20 19  2  0
  1 21  1  6
  2 22  1  0
  2 23  1  0
  3 24  1  6
  4 25  1  0
  5 26  1  0
  6 27  1  0
 12 28  1  0
 14 29  1  0
 15 30  1  0
 16 31  1  0
 32 33  2  0
 33 34  1  0
 34 35  1  0
 34 36  2  0
 36 37  1  0
 37 38  1  0
 38 39  1  0
 38 40  2  0
 40 41  1  0
 41 42  2  0
 42 32  1  0
 41 36  1  0
 32 43  1  0
 37 44  1  0
 42 45  1  0
 19 33  1  0
M  ISO  8  21  13  22  13  23  13  24  13  25  14  26  14  27  14  29  14
M  ISO  4  30  14  31  14  35  15  39  14
M  END
>  <DihAtoms>  (1) 
16,18,32,31

>  <DihDeg>  (1) 
-155.03772346274724

$$$$
