
 OpenBabel03272508563D

 43 47  0  0  1  0  0  0  0  0999 V2000
   39.1480   31.4890   43.3250 C   0  0  0  0  0  0  0  0  0  0  0  0
   40.1480   30.5700   43.4690 C   0  0  0  0  0  0  0  0  0  0  0  0
   40.8640   30.2200   42.3350 C   0  0  0  0  0  0  0  0  0  0  0  0
   40.5330   30.8070   41.1440 C   0  0  0  0  0  0  0  0  0  0  0  0
   39.5090   31.7490   40.9960 C   0  0  0  0  0  0  0  0  0  0  0  0
   38.8500   32.0480   42.1310 N   0  0  0  0  0  0  0  0  0  0  0  0
   40.4170   30.0990   44.4080 H   0  0  0  0  0  0  0  0  0  0  0  0
   41.6750   29.5030   42.3360 H   0  0  0  0  0  0  0  0  0  0  0  0
   41.0590   30.5730   40.2120 H   0  0  0  0  0  0  0  0  0  0  0  0
   38.3670   31.8880   44.5160 C   0  0  0  0  0  0  0  0  0  0  0  0
   37.2560   32.4380   44.4120 O   0  0  0  0  0  0  0  0  0  0  0  0
   38.9500   31.6120   45.8230 N   0  0  0  0  0  0  0  0  0  0  0  0
   39.9280   31.3480   45.9660 H   0  0  0  0  0  0  0  0  0  0  0  0
   38.4360   31.1060   48.2030 C   0  0  2  0  0  0  0  0  0  0  0  0
   38.6710   32.5720   48.1170 C   0  0  0  0  0  0  0  0  0  0  0  0
   38.0800   31.7230   46.9670 C   0  0  1  0  0  0  0  0  0  0  0  0
   39.3520   30.4880   48.2980 H   0  0  0  0  0  0  0  0  0  0  0  0
   38.0100   33.2750   48.6430 H   0  0  0  0  0  0  0  0  0  0  0  0
   39.6970   32.9210   48.0070 H   0  0  0  0  0  0  0  0  0  0  0  0
   36.9980   31.9820   46.7770 H   0  0  0  0  0  0  0  0  0  0  0  0
   35.0630   30.2370   49.5110 C   0  0  0  0  0  0  0  0  0  0  0  0
   35.3900   29.5480   50.7220 C   0  0  0  0  0  0  0  0  0  0  0  0
   36.7890   29.4070   51.0670 C   0  0  0  0  0  0  0  0  0  0  0  0
   37.7520   29.9300   50.2350 N   0  0  0  0  0  0  0  0  0  0  0  0
   37.3470   30.5690   49.1050 C   0  0  0  0  0  0  0  0  0  0  0  0
   36.0250   30.7430   48.7090 N   0  0  0  0  0  0  0  0  0  0  0  0
   34.0310   30.3410   49.2580 H   0  0  0  0  0  0  0  0  0  0  0  0
   34.6400   29.1510   51.3530 H   0  0  0  0  0  0  0  0  0  0  0  0
   37.0340   28.8890   51.9790 H   0  0  0  0  0  0  0  0  0  0  0  0
   39.1850   32.3530   39.7050 C   0  0  0  0  0  0  0  0  0  0  0  0
   38.8200   33.5520   39.6860 O   0  0  0  0  0  0  0  0  0  0  0  0
   40.2990   31.6080   37.5680 C   0  0  0  0  0  3  0  0  0  0  0  0
   39.3060   31.5190   38.4950 C   0  0  0  0  0  0  0  0  0  0  0  0
   38.3410   30.5550   38.2580 C   0  0  0  0  0  0  0  0  0  0  0  0
   37.5250   30.4520   38.9810 H   0  0  0  0  0  0  0  0  0  0  0  0
   38.3340   29.7090   37.1670 C   0  0  0  0  0  0  0  0  0  0  0  0
   37.4620   28.7260   36.8100 N   0  0  0  0  0  0  0  0  0  0  0  0
   37.9540   28.2350   35.6560 C   0  0  0  0  0  0  0  0  0  0  0  0
   37.4100   27.4210   35.1700 H   0  0  0  0  0  0  0  0  0  0  0  0
   39.0760   28.8800   35.3130 N   0  0  0  0  0  0  0  0  0  0  0  0
   39.3530   29.8240   36.2490 C   0  0  0  0  0  0  0  0  0  0  0  0
   40.3310   30.7790   36.4610 C   0  0  0  0  0  3  0  0  0  0  0  0
   36.6010   28.4440   37.3480 H   0  0  0  0  0  0  0  0  0  0  0  0
  1  2  1  0  0  0  0
  1 10  1  0  0  0  0
  2  7  1  0  0  0  0
  3  8  1  0  0  0  0
  3  2  2  0  0  0  0
  4  3  1  0  0  0  0
  5  4  2  0  0  0  0
  5  6  1  0  0  0  0
  6  1  2  0  0  0  0
  9  4  1  0  0  0  0
 10 12  1  0  0  0  0
 11 10  2  0  0  0  0
 12 13  1  0  0  0  0
 12 16  1  0  0  0  0
 14 17  1  6  0  0  0
 14 25  1  0  0  0  0
 15 14  1  0  0  0  0
 15 18  1  0  0  0  0
 16 20  1  6  0  0  0
 16 15  1  0  0  0  0
 16 14  1  0  0  0  0
 19 15  1  0  0  0  0
 21 22  1  0  0  0  0
 22 23  2  0  0  0  0
 22 28  1  0  0  0  0
 23 29  1  0  0  0  0
 24 23  1  0  0  0  0
 25 24  2  0  0  0  0
 26 25  1  0  0  0  0
 26 21  2  0  0  0  0
 27 21  1  0  0  0  0
 30  5  1  0  0  0  0
 31 30  2  0  0  0  0
 32 33  1  0  0  0  0
 33 30  1  0  0  0  0
 34 33  2  0  0  0  0
 34 35  1  0  0  0  0
 36 34  1  0  0  0  0
 37 36  1  0  0  0  0
 37 43  1  0  0  0  0
 38 37  1  0  0  0  0
 39 38  1  0  0  0  0
 40 38  2  0  0  0  0
 40 41  1  0  0  0  0
 41 42  1  0  0  0  0
 41 36  2  0  0  0  0
 42 32  2  0  0  0  0
M  END
>  <minimizedAffinity>
-4.90493965

>  <minimizedRMSD>
0.171737671

$$$$
