
 OpenBabel03272508573D

 43 47  0  0  1  0  0  0  0  0999 V2000
   38.4790   31.7340   43.7940 C   0  0  0  0  0  0  0  0  0  0  0  0
   39.6140   30.9950   43.6140 C   0  0  0  0  0  0  0  0  0  0  0  0
   40.2180   31.0420   42.3670 C   0  0  0  0  0  0  0  0  0  0  0  0
   39.6480   31.8170   41.3930 C   0  0  0  0  0  0  0  0  0  0  0  0
   38.4860   32.5740   41.5770 C   0  0  0  0  0  0  0  0  0  0  0  0
   37.9470   32.4880   42.8080 N   0  0  0  0  0  0  0  0  0  0  0  0
   40.0720   30.3780   44.3790 H   0  0  0  0  0  0  0  0  0  0  0  0
   41.1180   30.4970   42.1170 H   0  0  0  0  0  0  0  0  0  0  0  0
   40.0750   31.8970   40.3870 H   0  0  0  0  0  0  0  0  0  0  0  0
   37.8120   31.7080   45.1140 C   0  0  0  0  0  0  0  0  0  0  0  0
   36.8480   30.9570   45.3420 O   0  0  0  0  0  0  0  0  0  0  0  0
   38.3290   32.6020   46.1440 N   0  0  0  0  0  0  0  0  0  0  0  0
   38.9790   33.3690   45.9570 H   0  0  0  0  0  0  0  0  0  0  0  0
   38.5540   31.4160   48.3170 C   0  0  2  0  0  0  0  0  0  0  0  0
   38.8960   32.8410   48.5690 C   0  0  0  0  0  0  0  0  0  0  0  0
   37.8860   32.3720   47.4960 C   0  0  1  0  0  0  0  0  0  0  0  0
   39.3850   30.7950   47.9250 H   0  0  0  0  0  0  0  0  0  0  0  0
   38.5110   33.3580   49.4590 H   0  0  0  0  0  0  0  0  0  0  0  0
   39.8620   33.2050   48.2240 H   0  0  0  0  0  0  0  0  0  0  0  0
   36.8320   32.6780   47.7590 H   0  0  0  0  0  0  0  0  0  0  0  0
   36.1130   29.0400   49.8150 C   0  0  0  0  0  0  0  0  0  0  0  0
   36.3690   29.2050   51.2130 C   0  0  0  0  0  0  0  0  0  0  0  0
   37.3870   30.1540   51.6110 C   0  0  0  0  0  0  0  0  0  0  0  0
   38.0710   30.8610   50.6500 N   0  0  0  0  0  0  0  0  0  0  0  0
   37.7600   30.6390   49.3450 C   0  0  0  0  0  0  0  0  0  0  0  0
   36.7970   29.7450   48.8890 N   0  0  0  0  0  0  0  0  0  0  0  0
   35.3610   28.3400   49.5230 H   0  0  0  0  0  0  0  0  0  0  0  0
   35.8350   28.6550   51.9430 H   0  0  0  0  0  0  0  0  0  0  0  0
   37.5780   30.2780   52.6640 H   0  0  0  0  0  0  0  0  0  0  0  0
   37.9090   33.3890   40.5100 C   0  0  0  0  0  0  0  0  0  0  0  0
   38.6800   33.8650   39.6440 O   0  0  0  0  0  0  0  0  0  0  0  0
   35.8130   34.7030   41.0080 C   0  0  0  0  0  0  0  0  0  0  0  0
   36.4500   33.6080   40.5110 C   0  0  0  0  0  0  0  0  0  0  0  0
   35.6360   32.6290   39.9660 C   0  0  0  0  0  0  0  0  0  0  0  0
   36.1110   31.7310   39.5560 H   0  0  0  0  0  0  0  0  0  0  0  0
   34.2580   32.7060   39.9040 C   0  0  0  0  0  0  0  0  0  0  0  0
   33.3420   31.8320   39.4030 N   0  0  0  0  0  0  0  0  0  0  0  0
   32.1520   32.4280   39.6120 C   0  0  0  0  0  0  0  0  0  0  0  0
   31.2500   31.9040   39.2860 H   0  0  0  0  0  0  0  0  0  0  0  0
   32.3200   33.6130   40.2120 N   0  0  0  0  0  0  0  0  0  0  0  0
   33.6460   33.8270   40.4150 C   0  0  0  0  0  0  0  0  0  0  0  0
   34.4360   34.8200   40.9650 C   0  0  0  0  0  0  0  0  0  0  0  0
   33.5590   30.9020   38.9570 H   0  0  0  0  0  0  0  0  0  0  0  0
  1 10  1  0  0  0  0
  2  1  1  0  0  0  0
  2  7  1  0  0  0  0
  3  2  2  0  0  0  0
  4  5  2  0  0  0  0
  4  3  1  0  0  0  0
  5  6  1  0  0  0  0
  6  1  2  0  0  0  0
  8  3  1  0  0  0  0
  9  4  1  0  0  0  0
 10 11  2  0  0  0  0
 10 12  1  0  0  0  0
 12 16  1  0  0  0  0
 13 12  1  0  0  0  0
 14 17  1  6  0  0  0
 14 15  1  0  0  0  0
 14 25  1  0  0  0  0
 15 18  1  0  0  0  0
 16 20  1  1  0  0  0
 16 14  1  0  0  0  0
 16 15  1  0  0  0  0
 19 15  1  0  0  0  0
 21 22  1  0  0  0  0
 22 23  2  0  0  0  0
 22 28  1  0  0  0  0
 23 29  1  0  0  0  0
 24 23  1  0  0  0  0
 25 24  2  0  0  0  0
 26 25  1  0  0  0  0
 26 21  2  0  0  0  0
 27 21  1  0  0  0  0
 30 33  1  0  0  0  0
 30  5  1  0  0  0  0
 31 30  2  0  0  0  0
 33 32  2  0  0  0  0
 34 33  1  0  0  0  0
 35 34  1  0  0  0  0
 36 34  2  0  0  0  0
 36 41  1  0  0  0  0
 37 38  1  0  0  0  0
 37 36  1  0  0  0  0
 38 40  2  0  0  0  0
 39 38  1  0  0  0  0
 40 41  1  0  0  0  0
 41 42  2  0  0  0  0
 42 32  1  0  0  0  0
 43 37  1  0  0  0  0
M  END
>  <minimizedAffinity>
-5.70410967

>  <minimizedRMSD>
4.32717371

$$$$
