
 OpenBabel03272508563D

 43 47  0  0  1  0  0  0  0  0999 V2000
   39.1460   31.4900   43.3240 C   0  0  0  0  0  0  0  0  0  0  0  0
   40.1460   30.5700   43.4680 C   0  0  0  0  0  0  0  0  0  0  0  0
   40.8630   30.2210   42.3340 C   0  0  0  0  0  0  0  0  0  0  0  0
   40.5320   30.8080   41.1440 C   0  0  0  0  0  0  0  0  0  0  0  0
   39.5070   31.7500   40.9960 C   0  0  0  0  0  0  0  0  0  0  0  0
   38.8490   32.0490   42.1300 N   0  0  0  0  0  0  0  0  0  0  0  0
   40.4150   30.0990   44.4070 H   0  0  0  0  0  0  0  0  0  0  0  0
   41.6730   29.5040   42.3350 H   0  0  0  0  0  0  0  0  0  0  0  0
   41.0580   30.5750   40.2120 H   0  0  0  0  0  0  0  0  0  0  0  0
   38.3640   31.8880   44.5150 C   0  0  0  0  0  0  0  0  0  0  0  0
   37.2500   32.4310   44.4110 O   0  0  0  0  0  0  0  0  0  0  0  0
   38.9510   31.6200   45.8220 N   0  0  0  0  0  0  0  0  0  0  0  0
   39.9310   31.3630   45.9640 H   0  0  0  0  0  0  0  0  0  0  0  0
   38.4380   31.1090   48.2000 C   0  0  2  0  0  0  0  0  0  0  0  0
   38.6760   32.5750   48.1180 C   0  0  0  0  0  0  0  0  0  0  0  0
   38.0820   31.7300   46.9670 C   0  0  1  0  0  0  0  0  0  0  0  0
   39.3530   30.4890   48.2930 H   0  0  0  0  0  0  0  0  0  0  0  0
   38.0170   33.2770   48.6470 H   0  0  0  0  0  0  0  0  0  0  0  0
   39.7020   32.9220   48.0090 H   0  0  0  0  0  0  0  0  0  0  0  0
   37.0010   31.9920   46.7790 H   0  0  0  0  0  0  0  0  0  0  0  0
   35.0650   30.2310   49.5020 C   0  0  0  0  0  0  0  0  0  0  0  0
   35.3910   29.5510   50.7180 C   0  0  0  0  0  0  0  0  0  0  0  0
   36.7890   29.4200   51.0690 C   0  0  0  0  0  0  0  0  0  0  0  0
   37.7520   29.9420   50.2370 N   0  0  0  0  0  0  0  0  0  0  0  0
   37.3480   30.5720   49.1020 C   0  0  0  0  0  0  0  0  0  0  0  0
   36.0270   30.7370   48.7000 N   0  0  0  0  0  0  0  0  0  0  0  0
   34.0330   30.3290   49.2440 H   0  0  0  0  0  0  0  0  0  0  0  0
   34.6400   29.1540   51.3490 H   0  0  0  0  0  0  0  0  0  0  0  0
   37.0340   28.9080   51.9850 H   0  0  0  0  0  0  0  0  0  0  0  0
   39.1840   32.3550   39.7040 C   0  0  0  0  0  0  0  0  0  0  0  0
   38.8170   33.5530   39.6860 O   0  0  0  0  0  0  0  0  0  0  0  0
   40.3030   31.6110   37.5690 C   0  0  0  0  0  3  0  0  0  0  0  0
   39.3080   31.5210   38.4930 C   0  0  0  0  0  0  0  0  0  0  0  0
   38.3440   30.5570   38.2540 C   0  0  0  0  0  0  0  0  0  0  0  0
   37.5260   30.4530   38.9750 H   0  0  0  0  0  0  0  0  0  0  0  0
   38.3400   29.7120   37.1620 C   0  0  0  0  0  0  0  0  0  0  0  0
   37.4680   28.7300   36.8030 N   0  0  0  0  0  0  0  0  0  0  0  0
   37.9630   28.2390   35.6490 C   0  0  0  0  0  0  0  0  0  0  0  0
   37.4210   27.4250   35.1610 H   0  0  0  0  0  0  0  0  0  0  0  0
   39.0870   28.8840   35.3090 N   0  0  0  0  0  0  0  0  0  0  0  0
   39.3600   29.8290   36.2450 C   0  0  0  0  0  0  0  0  0  0  0  0
   40.3380   30.7840   36.4610 C   0  0  0  0  0  3  0  0  0  0  0  0
   36.6060   28.4470   37.3380 H   0  0  0  0  0  0  0  0  0  0  0  0
  1  2  1  0  0  0  0
  1 10  1  0  0  0  0
  2  7  1  0  0  0  0
  3  8  1  0  0  0  0
  3  2  2  0  0  0  0
  4  3  1  0  0  0  0
  5  4  2  0  0  0  0
  5  6  1  0  0  0  0
  6  1  2  0  0  0  0
  9  4  1  0  0  0  0
 10 12  1  0  0  0  0
 11 10  2  0  0  0  0
 12 13  1  0  0  0  0
 12 16  1  0  0  0  0
 14 17  1  6  0  0  0
 14 25  1  0  0  0  0
 15 14  1  0  0  0  0
 15 18  1  0  0  0  0
 16 20  1  6  0  0  0
 16 15  1  0  0  0  0
 16 14  1  0  0  0  0
 19 15  1  0  0  0  0
 21 22  1  0  0  0  0
 22 23  2  0  0  0  0
 22 28  1  0  0  0  0
 23 29  1  0  0  0  0
 24 23  1  0  0  0  0
 25 24  2  0  0  0  0
 26 25  1  0  0  0  0
 26 21  2  0  0  0  0
 27 21  1  0  0  0  0
 30  5  1  0  0  0  0
 31 30  2  0  0  0  0
 32 33  1  0  0  0  0
 33 30  1  0  0  0  0
 34 33  2  0  0  0  0
 34 35  1  0  0  0  0
 36 34  1  0  0  0  0
 37 36  1  0  0  0  0
 37 43  1  0  0  0  0
 38 37  1  0  0  0  0
 39 38  1  0  0  0  0
 40 38  2  0  0  0  0
 40 41  1  0  0  0  0
 41 42  1  0  0  0  0
 41 36  2  0  0  0  0
 42 32  2  0  0  0  0
M  END
>  <minimizedAffinity>
-4.90605831

>  <minimizedRMSD>
0.250352442

$$$$
