
 OpenBabel03272508563D

 43 47  0  0  1  0  0  0  0  0999 V2000
   39.1730   31.4470   43.4110 C   0  0  0  0  0  0  0  0  0  0  0  0
   40.1600   30.5060   43.4960 C   0  0  0  0  0  0  0  0  0  0  0  0
   40.8480   30.1930   42.3340 C   0  0  0  0  0  0  0  0  0  0  0  0
   40.5040   30.8370   41.1760 C   0  0  0  0  0  0  0  0  0  0  0  0
   39.4940   31.8010   41.0890 C   0  0  0  0  0  0  0  0  0  0  0  0
   38.8630   32.0620   42.2480 N   0  0  0  0  0  0  0  0  0  0  0  0
   40.4380   29.9910   44.4080 H   0  0  0  0  0  0  0  0  0  0  0  0
   41.6460   29.4640   42.2880 H   0  0  0  0  0  0  0  0  0  0  0  0
   41.0090   30.6350   40.2250 H   0  0  0  0  0  0  0  0  0  0  0  0
   38.4220   31.8070   44.6330 C   0  0  0  0  0  0  0  0  0  0  0  0
   37.3230   32.3860   44.5750 O   0  0  0  0  0  0  0  0  0  0  0  0
   39.0200   31.4570   45.9150 N   0  0  0  0  0  0  0  0  0  0  0  0
   39.9940   31.1650   46.0280 H   0  0  0  0  0  0  0  0  0  0  0  0
   38.6540   31.0950   48.3470 C   0  0  2  0  0  0  0  0  0  0  0  0
   38.6500   32.5660   48.1270 C   0  0  0  0  0  0  0  0  0  0  0  0
   38.1720   31.5340   47.0780 C   0  0  1  0  0  0  0  0  0  0  0  0
   39.6580   30.6390   48.4590 H   0  0  0  0  0  0  0  0  0  0  0  0
   37.8980   33.2010   48.6160 H   0  0  0  0  0  0  0  0  0  0  0  0
   39.6030   33.0600   47.9480 H   0  0  0  0  0  0  0  0  0  0  0  0
   37.0590   31.6020   46.9100 H   0  0  0  0  0  0  0  0  0  0  0  0
   35.7510   29.2160   49.7210 C   0  0  0  0  0  0  0  0  0  0  0  0
   35.9740   29.3260   51.1300 C   0  0  0  0  0  0  0  0  0  0  0  0
   37.1350   30.0670   51.5780 C   0  0  0  0  0  0  0  0  0  0  0  0
   37.9790   30.6350   50.6530 N   0  0  0  0  0  0  0  0  0  0  0  0
   37.6860   30.4780   49.3340 C   0  0  0  0  0  0  0  0  0  0  0  0
   36.5930   29.7820   48.8300 N   0  0  0  0  0  0  0  0  0  0  0  0
   34.8940   28.6700   49.3910 H   0  0  0  0  0  0  0  0  0  0  0  0
   35.3170   28.8840   51.8310 H   0  0  0  0  0  0  0  0  0  0  0  0
   37.3020   30.1500   52.6390 H   0  0  0  0  0  0  0  0  0  0  0  0
   39.1570   32.4660   39.8310 C   0  0  0  0  0  0  0  0  0  0  0  0
   38.6180   33.5960   39.8840 O   0  0  0  0  0  0  0  0  0  0  0  0
   40.5500   32.0130   37.7780 C   0  0  0  0  0  3  0  0  0  0  0  0
   39.4690   31.7700   38.5690 C   0  0  0  0  0  0  0  0  0  0  0  0
   38.6070   30.7810   38.1280 C   0  0  0  0  0  0  0  0  0  0  0  0
   37.7240   30.5560   38.7370 H   0  0  0  0  0  0  0  0  0  0  0  0
   38.7810   30.0530   36.9680 C   0  0  0  0  0  0  0  0  0  0  0  0
   38.0240   29.0640   36.4170 N   0  0  0  0  0  0  0  0  0  0  0  0
   38.6750   28.7250   35.2880 C   0  0  0  0  0  0  0  0  0  0  0  0
   38.2470   27.9350   34.6650 H   0  0  0  0  0  0  0  0  0  0  0  0
   39.7810   29.4670   35.1430 N   0  0  0  0  0  0  0  0  0  0  0  0
   39.8840   30.3240   36.1900 C   0  0  0  0  0  0  0  0  0  0  0  0
   40.7630   31.3070   36.6080 C   0  0  0  0  0  3  0  0  0  0  0  0
   37.1310   28.6770   36.8210 H   0  0  0  0  0  0  0  0  0  0  0  0
  1  2  1  0  0  0  0
  1 10  1  0  0  0  0
  2  7  1  0  0  0  0
  3  2  2  0  0  0  0
  4  3  1  0  0  0  0
  5  4  2  0  0  0  0
  5  6  1  0  0  0  0
  6  1  2  0  0  0  0
  8  3  1  0  0  0  0
  9  4  1  0  0  0  0
 10 12  1  0  0  0  0
 11 10  2  0  0  0  0
 12 13  1  0  0  0  0
 12 16  1  0  0  0  0
 14 17  1  6  0  0  0
 14 25  1  0  0  0  0
 15 14  1  0  0  0  0
 15 18  1  0  0  0  0
 16 20  1  6  0  0  0
 16 15  1  0  0  0  0
 16 14  1  0  0  0  0
 19 15  1  0  0  0  0
 21 22  1  0  0  0  0
 22 23  2  0  0  0  0
 22 28  1  0  0  0  0
 23 29  1  0  0  0  0
 24 23  1  0  0  0  0
 25 24  2  0  0  0  0
 26 25  1  0  0  0  0
 26 21  2  0  0  0  0
 27 21  1  0  0  0  0
 30 31  2  0  0  0  0
 30  5  1  0  0  0  0
 32 33  1  0  0  0  0
 33 30  1  0  0  0  0
 34 33  2  0  0  0  0
 34 35  1  0  0  0  0
 36 34  1  0  0  0  0
 37 43  1  0  0  0  0
 37 36  1  0  0  0  0
 38 37  1  0  0  0  0
 39 38  1  0  0  0  0
 40 38  2  0  0  0  0
 40 41  1  0  0  0  0
 41 42  1  0  0  0  0
 41 36  2  0  0  0  0
 42 32  2  0  0  0  0
M  END
>  <minimizedAffinity>
-5.06236219

>  <minimizedRMSD>
0.882807791

$$$$
