
 OpenBabel03272508563D

 43 47  0  0  1  0  0  0  0  0999 V2000
   39.0950   31.5080   43.3680 C   0  0  0  0  0  0  0  0  0  0  0  0
   40.0840   30.5750   43.5060 C   0  0  0  0  0  0  0  0  0  0  0  0
   40.8120   30.2410   42.3750 C   0  0  0  0  0  0  0  0  0  0  0  0
   40.5030   30.8570   41.1920 C   0  0  0  0  0  0  0  0  0  0  0  0
   39.4910   31.8130   41.0500 C   0  0  0  0  0  0  0  0  0  0  0  0
   38.8200   32.0950   42.1820 N   0  0  0  0  0  0  0  0  0  0  0  0
   40.3350   30.0810   44.4380 H   0  0  0  0  0  0  0  0  0  0  0  0
   41.6140   29.5160   42.3710 H   0  0  0  0  0  0  0  0  0  0  0  0
   41.0400   30.6380   40.2620 H   0  0  0  0  0  0  0  0  0  0  0  0
   38.3020   31.8890   44.5560 C   0  0  0  0  0  0  0  0  0  0  0  0
   37.1380   32.3150   44.4530 O   0  0  0  0  0  0  0  0  0  0  0  0
   38.9380   31.7480   45.8600 N   0  0  0  0  0  0  0  0  0  0  0  0
   39.9410   31.5940   45.9910 H   0  0  0  0  0  0  0  0  0  0  0  0
   38.4490   31.1680   48.2280 C   0  0  2  0  0  0  0  0  0  0  0  0
   38.7050   32.6320   48.1890 C   0  0  0  0  0  0  0  0  0  0  0  0
   38.0850   31.8320   47.0190 C   0  0  1  0  0  0  0  0  0  0  0  0
   39.3570   30.5340   48.2890 H   0  0  0  0  0  0  0  0  0  0  0  0
   38.0610   33.3260   48.7480 H   0  0  0  0  0  0  0  0  0  0  0  0
   39.7330   32.9700   48.0780 H   0  0  0  0  0  0  0  0  0  0  0  0
   37.0050   32.1130   46.8540 H   0  0  0  0  0  0  0  0  0  0  0  0
   35.0840   30.2430   49.5190 C   0  0  0  0  0  0  0  0  0  0  0  0
   35.4160   29.5690   50.7370 C   0  0  0  0  0  0  0  0  0  0  0  0
   36.8150   29.4570   51.0920 C   0  0  0  0  0  0  0  0  0  0  0  0
   37.7730   29.9920   50.2630 N   0  0  0  0  0  0  0  0  0  0  0  0
   37.3630   30.6160   49.1260 C   0  0  0  0  0  0  0  0  0  0  0  0
   36.0410   30.7610   48.7200 N   0  0  0  0  0  0  0  0  0  0  0  0
   34.0520   30.3250   49.2580 H   0  0  0  0  0  0  0  0  0  0  0  0
   34.6690   29.1610   51.3650 H   0  0  0  0  0  0  0  0  0  0  0  0
   37.0630   28.9500   52.0090 H   0  0  0  0  0  0  0  0  0  0  0  0
   39.1920   32.4480   39.7680 C   0  0  0  0  0  0  0  0  0  0  0  0
   38.7020   33.6020   39.7780 O   0  0  0  0  0  0  0  0  0  0  0  0
   38.7450   30.6610   38.0450 C   0  0  0  0  0  3  0  0  0  0  0  0
   39.4830   31.6960   38.5330 C   0  0  0  0  0  0  0  0  0  0  0  0
   40.5940   32.0520   37.7880 C   0  0  0  0  0  0  0  0  0  0  0  0
   41.2130   32.8800   38.1480 H   0  0  0  0  0  0  0  0  0  0  0  0
   40.9790   31.4330   36.6160 C   0  0  0  0  0  0  0  0  0  0  0  0
   42.0330   31.6730   35.7890 N   0  0  0  0  0  0  0  0  0  0  0  0
   41.9090   30.7640   34.8030 C   0  0  0  0  0  0  0  0  0  0  0  0
   42.6570   30.7630   34.0060 H   0  0  0  0  0  0  0  0  0  0  0  0
   40.8310   29.9960   35.0070 N   0  0  0  0  0  0  0  0  0  0  0  0
   40.2120   30.3890   36.1500 C   0  0  0  0  0  0  0  0  0  0  0  0
   39.0950   30.0120   36.8750 C   0  0  0  0  0  3  0  0  0  0  0  0
   42.7650   32.4180   35.9270 H   0  0  0  0  0  0  0  0  0  0  0  0
  1  2  1  0  0  0  0
  1 10  1  0  0  0  0
  2  7  1  0  0  0  0
  3  2  2  0  0  0  0
  4  3  1  0  0  0  0
  5  4  2  0  0  0  0
  5  6  1  0  0  0  0
  6  1  2  0  0  0  0
  8  3  1  0  0  0  0
  9  4  1  0  0  0  0
 10 12  1  0  0  0  0
 11 10  2  0  0  0  0
 12 13  1  0  0  0  0
 12 16  1  0  0  0  0
 14 17  1  6  0  0  0
 14 25  1  0  0  0  0
 15 14  1  0  0  0  0
 15 18  1  0  0  0  0
 16 20  1  6  0  0  0
 16 15  1  0  0  0  0
 16 14  1  0  0  0  0
 19 15  1  0  0  0  0
 21 22  1  0  0  0  0
 22 23  2  0  0  0  0
 22 28  1  0  0  0  0
 23 29  1  0  0  0  0
 24 23  1  0  0  0  0
 25 24  2  0  0  0  0
 26 25  1  0  0  0  0
 26 21  2  0  0  0  0
 27 21  1  0  0  0  0
 30 31  2  0  0  0  0
 30  5  1  0  0  0  0
 32 33  1  0  0  0  0
 33 30  1  0  0  0  0
 34 35  1  0  0  0  0
 34 33  2  0  0  0  0
 36 34  1  0  0  0  0
 37 43  1  0  0  0  0
 37 36  1  0  0  0  0
 38 40  2  0  0  0  0
 38 37  1  0  0  0  0
 39 38  1  0  0  0  0
 40 41  1  0  0  0  0
 41 36  2  0  0  0  0
 41 42  1  0  0  0  0
 42 32  2  0  0  0  0
M  END
>  <minimizedAffinity>
-4.98438406

>  <minimizedRMSD>
0.714119732

$$$$
