
 OpenBabel03272508563D

 43 47  0  0  1  0  0  0  0  0999 V2000
   39.2280   31.3500   43.4510 C   0  0  0  0  0  0  0  0  0  0  0  0
   40.2260   30.4380   43.6500 C   0  0  0  0  0  0  0  0  0  0  0  0
   40.9720   30.0540   42.5470 C   0  0  0  0  0  0  0  0  0  0  0  0
   40.6720   30.6030   41.3300 C   0  0  0  0  0  0  0  0  0  0  0  0
   39.6500   31.5370   41.1250 C   0  0  0  0  0  0  0  0  0  0  0  0
   38.9620   31.8710   42.2320 N   0  0  0  0  0  0  0  0  0  0  0  0
   40.4710   29.9980   44.6100 H   0  0  0  0  0  0  0  0  0  0  0  0
   41.7830   29.3400   42.5920 H   0  0  0  0  0  0  0  0  0  0  0  0
   41.2230   30.3410   40.4200 H   0  0  0  0  0  0  0  0  0  0  0  0
   38.4160   31.7840   44.6070 C   0  0  0  0  0  0  0  0  0  0  0  0
   37.3620   32.4270   44.4580 O   0  0  0  0  0  0  0  0  0  0  0  0
   38.8970   31.4290   45.9360 N   0  0  0  0  0  0  0  0  0  0  0  0
   39.8400   31.0800   46.1250 H   0  0  0  0  0  0  0  0  0  0  0  0
   38.2290   30.9440   48.2810 C   0  0  2  0  0  0  0  0  0  0  0  0
   38.5510   32.3950   48.2180 C   0  0  0  0  0  0  0  0  0  0  0  0
   37.9750   31.5850   47.0330 C   0  0  1  0  0  0  0  0  0  0  0  0
   39.1020   30.2740   48.4210 H   0  0  0  0  0  0  0  0  0  0  0  0
   37.9030   33.1320   48.7130 H   0  0  0  0  0  0  0  0  0  0  0  0
   39.5990   32.6850   48.1660 H   0  0  0  0  0  0  0  0  0  0  0  0
   36.9220   31.9060   46.7870 H   0  0  0  0  0  0  0  0  0  0  0  0
   34.7560   30.1260   49.3360 C   0  0  0  0  0  0  0  0  0  0  0  0
   34.9730   29.5530   50.6290 C   0  0  0  0  0  0  0  0  0  0  0  0
   36.3340   29.4700   51.1160 C   0  0  0  0  0  0  0  0  0  0  0  0
   37.3660   29.9370   50.3360 N   0  0  0  0  0  0  0  0  0  0  0  0
   37.0640   30.4660   49.1200 C   0  0  0  0  0  0  0  0  0  0  0  0
   35.7840   30.5790   48.5870 N   0  0  0  0  0  0  0  0  0  0  0  0
   33.7520   30.1870   48.9780 H   0  0  0  0  0  0  0  0  0  0  0  0
   34.1700   29.1980   51.2190 H   0  0  0  0  0  0  0  0  0  0  0  0
   36.4960   29.0390   52.0900 H   0  0  0  0  0  0  0  0  0  0  0  0
   39.3600   32.1000   39.8070 C   0  0  0  0  0  0  0  0  0  0  0  0
   38.7550   33.1960   39.7510 O   0  0  0  0  0  0  0  0  0  0  0  0
   40.9040   31.6110   37.8730 C   0  0  0  0  0  3  0  0  0  0  0  0
   39.7950   31.3470   38.6160 C   0  0  0  0  0  0  0  0  0  0  0  0
   39.0280   30.2740   38.1960 C   0  0  0  0  0  0  0  0  0  0  0  0
   38.1250   30.0290   38.7680 H   0  0  0  0  0  0  0  0  0  0  0  0
   39.3190   29.4860   37.1000 C   0  0  0  0  0  0  0  0  0  0  0  0
   38.6630   28.4140   36.5770 N   0  0  0  0  0  0  0  0  0  0  0  0
   39.4030   28.0480   35.5120 C   0  0  0  0  0  0  0  0  0  0  0  0
   39.0660   27.1920   34.9230 H   0  0  0  0  0  0  0  0  0  0  0  0
   40.4650   28.8520   35.3800 N   0  0  0  0  0  0  0  0  0  0  0  0
   40.4480   29.7810   36.3700 C   0  0  0  0  0  0  0  0  0  0  0  0
   41.2340   30.8470   36.7680 C   0  0  0  0  0  3  0  0  0  0  0  0
   37.7740   27.9940   36.9540 H   0  0  0  0  0  0  0  0  0  0  0  0
  1  2  1  0  0  0  0
  1 10  1  0  0  0  0
  2  7  1  0  0  0  0
  3  8  1  0  0  0  0
  3  2  2  0  0  0  0
  4  3  1  0  0  0  0
  5  4  2  0  0  0  0
  5  6  1  0  0  0  0
  6  1  2  0  0  0  0
  9  4  1  0  0  0  0
 10 12  1  0  0  0  0
 11 10  2  0  0  0  0
 12 13  1  0  0  0  0
 12 16  1  0  0  0  0
 14 17  1  1  0  0  0
 14 25  1  0  0  0  0
 15 14  1  0  0  0  0
 15 18  1  0  0  0  0
 16 20  1  6  0  0  0
 16 15  1  0  0  0  0
 16 14  1  0  0  0  0
 19 15  1  0  0  0  0
 21 22  1  0  0  0  0
 22 23  2  0  0  0  0
 22 28  1  0  0  0  0
 23 29  1  0  0  0  0
 24 23  1  0  0  0  0
 25 24  2  0  0  0  0
 26 25  1  0  0  0  0
 26 21  2  0  0  0  0
 27 21  1  0  0  0  0
 30  5  1  0  0  0  0
 31 30  2  0  0  0  0
 32 33  1  0  0  0  0
 33 30  1  0  0  0  0
 34 33  2  0  0  0  0
 34 35  1  0  0  0  0
 36 34  1  0  0  0  0
 37 43  1  0  0  0  0
 37 36  1  0  0  0  0
 38 37  1  0  0  0  0
 39 38  1  0  0  0  0
 40 38  2  0  0  0  0
 40 41  1  0  0  0  0
 41 42  1  0  0  0  0
 41 36  2  0  0  0  0
 42 32  2  0  0  0  0
M  END
>  <minimizedAffinity>
-5.00722837

>  <minimizedRMSD>
0.790178835

$$$$
