
 OpenBabel03272508563D

 43 47  0  0  1  0  0  0  0  0999 V2000
   39.1400   31.4950   43.3110 C   0  0  0  0  0  0  0  0  0  0  0  0
   40.1510   30.5870   43.4540 C   0  0  0  0  0  0  0  0  0  0  0  0
   40.8630   30.2360   42.3170 C   0  0  0  0  0  0  0  0  0  0  0  0
   40.5160   30.8120   41.1240 C   0  0  0  0  0  0  0  0  0  0  0  0
   39.4810   31.7420   40.9780 C   0  0  0  0  0  0  0  0  0  0  0  0
   38.8280   32.0420   42.1160 N   0  0  0  0  0  0  0  0  0  0  0  0
   40.4320   30.1250   44.3940 H   0  0  0  0  0  0  0  0  0  0  0  0
   41.6800   29.5290   42.3170 H   0  0  0  0  0  0  0  0  0  0  0  0
   41.0380   30.5770   40.1900 H   0  0  0  0  0  0  0  0  0  0  0  0
   38.3640   31.8930   44.5050 C   0  0  0  0  0  0  0  0  0  0  0  0
   37.2550   32.4470   44.4050 O   0  0  0  0  0  0  0  0  0  0  0  0
   38.9500   31.6120   45.8100 N   0  0  0  0  0  0  0  0  0  0  0  0
   39.9270   31.3450   45.9490 H   0  0  0  0  0  0  0  0  0  0  0  0
   38.4400   31.1020   48.1890 C   0  0  2  0  0  0  0  0  0  0  0  0
   38.6810   32.5670   48.1070 C   0  0  0  0  0  0  0  0  0  0  0  0
   38.0830   31.7240   46.9560 C   0  0  1  0  0  0  0  0  0  0  0  0
   39.3540   30.4790   48.2800 H   0  0  0  0  0  0  0  0  0  0  0  0
   38.0240   33.2710   48.6370 H   0  0  0  0  0  0  0  0  0  0  0  0
   39.7080   32.9120   47.9960 H   0  0  0  0  0  0  0  0  0  0  0  0
   37.0020   31.9880   46.7700 H   0  0  0  0  0  0  0  0  0  0  0  0
   35.0670   30.2340   49.4980 C   0  0  0  0  0  0  0  0  0  0  0  0
   35.3940   29.5500   50.7120 C   0  0  0  0  0  0  0  0  0  0  0  0
   36.7930   29.4110   51.0580 C   0  0  0  0  0  0  0  0  0  0  0  0
   37.7550   29.9320   50.2250 N   0  0  0  0  0  0  0  0  0  0  0  0
   37.3500   30.5660   49.0920 C   0  0  0  0  0  0  0  0  0  0  0  0
   36.0290   30.7380   48.6950 N   0  0  0  0  0  0  0  0  0  0  0  0
   34.0350   30.3360   49.2440 H   0  0  0  0  0  0  0  0  0  0  0  0
   34.6440   29.1540   51.3440 H   0  0  0  0  0  0  0  0  0  0  0  0
   37.0380   28.8970   51.9720 H   0  0  0  0  0  0  0  0  0  0  0  0
   39.1420   32.3340   39.6840 C   0  0  0  0  0  0  0  0  0  0  0  0
   38.9100   33.5650   39.6390 O   0  0  0  0  0  0  0  0  0  0  0  0
   40.0150   31.4090   37.5070 C   0  0  0  0  0  3  0  0  0  0  0  0
   39.0910   31.4500   38.5050 C   0  0  0  0  0  0  0  0  0  0  0  0
   38.0230   30.5770   38.3790 C   0  0  0  0  0  0  0  0  0  0  0  0
   37.2580   30.5810   39.1620 H   0  0  0  0  0  0  0  0  0  0  0  0
   37.8540   29.6990   37.3280 C   0  0  0  0  0  0  0  0  0  0  0  0
   36.8680   28.7950   37.0750 N   0  0  0  0  0  0  0  0  0  0  0  0
   37.2230   28.2180   35.9100 C   0  0  0  0  0  0  0  0  0  0  0  0
   36.5690   27.4450   35.4990 H   0  0  0  0  0  0  0  0  0  0  0  0
   38.3720   28.7370   35.4620 N   0  0  0  0  0  0  0  0  0  0  0  0
   38.8070   29.6820   36.3340 C   0  0  0  0  0  0  0  0  0  0  0  0
   39.8840   30.5440   36.4360 C   0  0  0  0  0  3  0  0  0  0  0  0
   36.0270   28.6170   37.6850 H   0  0  0  0  0  0  0  0  0  0  0  0
  1  2  1  0  0  0  0
  1 10  1  0  0  0  0
  2  7  1  0  0  0  0
  3  2  2  0  0  0  0
  4  3  1  0  0  0  0
  5  4  2  0  0  0  0
  5  6  1  0  0  0  0
  6  1  2  0  0  0  0
  8  3  1  0  0  0  0
  9  4  1  0  0  0  0
 10 12  1  0  0  0  0
 11 10  2  0  0  0  0
 12 13  1  0  0  0  0
 12 16  1  0  0  0  0
 14 17  1  6  0  0  0
 14 25  1  0  0  0  0
 15 14  1  0  0  0  0
 15 18  1  0  0  0  0
 16 20  1  6  0  0  0
 16 15  1  0  0  0  0
 16 14  1  0  0  0  0
 19 15  1  0  0  0  0
 21 22  1  0  0  0  0
 22 23  2  0  0  0  0
 22 28  1  0  0  0  0
 23 29  1  0  0  0  0
 24 23  1  0  0  0  0
 25 24  2  0  0  0  0
 26 25  1  0  0  0  0
 26 21  2  0  0  0  0
 27 21  1  0  0  0  0
 30  5  1  0  0  0  0
 31 30  2  0  0  0  0
 32 33  1  0  0  0  0
 33 30  1  0  0  0  0
 34 33  2  0  0  0  0
 34 35  1  0  0  0  0
 36 34  1  0  0  0  0
 37 36  1  0  0  0  0
 37 43  1  0  0  0  0
 38 37  1  0  0  0  0
 39 38  1  0  0  0  0
 40 38  2  0  0  0  0
 40 41  1  0  0  0  0
 41 42  1  0  0  0  0
 41 36  2  0  0  0  0
 42 32  2  0  0  0  0
M  END
>  <minimizedAffinity>
-4.88451672

>  <minimizedRMSD>
0.543254077

$$$$
