
     RDKit          3D

 43 46  0  0  0  0  0  0  0  0999 V2000
   38.1370   30.5658   47.3262 C   0  0  1  0  0  0  0  0  0  0  0  0
   37.5086   30.7361   46.0241 C   0  0  0  0  0  0  0  0  0  0  0  0
   38.5478   30.5723   44.9580 C   0  0  0  0  0  0  0  0  0  0  0  0
   39.8129   31.2533   45.3357 C   0  0  0  0  0  0  0  0  0  0  0  0
   39.7095   32.2735   46.3899 C   0  0  0  0  0  0  0  0  0  0  0  0
   38.9346   31.8269   47.6282 C   0  0  1  0  0  0  0  0  0  0  0  0
   36.9391   29.6300   50.7138 C   0  0  0  0  0  0  0  0  0  0  0  0
   37.8138   29.8397   49.6194 C   0  0  0  0  0  0  0  0  0  0  0  0
   37.2343   30.3669   48.4721 C   0  0  0  0  0  0  0  0  0  0  0  0
   35.8789   30.6582   48.4359 N   0  0  0  0  0  0  0  0  0  0  0  0
   35.0891   30.4428   49.4964 C   0  0  0  0  0  0  0  0  0  0  0  0
   35.6115   29.9245   50.6514 N   0  0  0  0  0  0  0  0  0  0  0  0
   38.2687   33.8049   49.2580 C   0  0  0  0  0  0  0  0  0  0  0  0
   39.3454   33.6271   49.8493 O   0  0  0  0  0  0  0  0  0  0  0  0
   38.1519   32.9161   48.1458 N   0  0  0  0  0  0  0  0  0  0  0  0
   38.9142   29.7526   47.3352 H   0  0  0  0  0  0  0  0  0  0  0  0
   36.7690   29.8952   45.8762 H   0  0  0  0  0  0  0  0  0  0  0  0
   36.9380   31.6603   45.9281 H   0  0  0  0  0  0  0  0  0  0  0  0
   38.1179   31.0223   44.0295 H   0  0  0  0  0  0  0  0  0  0  0  0
   38.6954   29.4807   44.7111 H   0  0  0  0  0  0  0  0  0  0  0  0
   40.2169   31.7400   44.4280 H   0  0  0  0  0  0  0  0  0  0  0  0
   40.5669   30.4799   45.6099 H   0  0  0  0  0  0  0  0  0  0  0  0
   39.2330   33.2204   46.0228 H   0  0  0  0  0  0  0  0  0  0  0  0
   40.7222   32.5648   46.7336 H   0  0  0  0  0  0  0  0  0  0  0  0
   39.6582   31.5616   48.4311 H   0  0  0  0  0  0  0  0  0  0  0  0
   37.4094   29.2169   51.6039 H   0  0  0  0  0  0  0  0  0  0  0  0
   38.8616   29.5988   49.6919 H   0  0  0  0  0  0  0  0  0  0  0  0
   34.0313   30.6657   49.4799 H   0  0  0  0  0  0  0  0  0  0  0  0
   37.3372   32.9639   47.4561 H   0  0  0  0  0  0  0  0  0  0  0  0
   36.3542   35.3307   48.6730 C   0  0  0  0  0  0  0  0  0  0  0  0
   37.2269   34.7339   49.5594 C   0  0  0  0  0  0  0  0  0  0  0  0
   37.1125   35.0472   50.9179 C   0  0  0  0  0  0  0  0  0  0  0  0
   37.7517   34.6284   51.6809 H   0  0  0  0  0  0  0  0  0  0  0  0
   36.1541   35.9289   51.3641 C   0  0  0  0  0  0  0  0  0  0  0  0
   35.8225   36.4054   52.5936 N   0  0  0  0  0  0  0  0  0  0  0  0
   34.7840   37.2621   52.4582 C   0  0  0  0  0  0  0  0  0  0  0  0
   34.3389   37.7730   53.3022 H   0  0  0  0  0  0  0  0  0  0  0  0
   34.4706   37.3167   51.1387 N   0  0  0  0  0  0  0  0  0  0  0  0
   35.2984   36.5068   50.4499 C   0  0  0  0  0  0  0  0  0  0  0  0
   35.3817   36.2185   49.0837 C   0  0  0  0  0  0  0  0  0  0  0  0
   36.4730   35.0644   47.6337 H   0  0  0  0  0  0  0  0  0  0  0  0
   36.3096   36.1321   53.4633 H   0  0  0  0  0  0  0  0  0  0  0  0
   34.7226   36.6597   48.3545 H   0  0  0  0  0  0  0  0  0  0  0  0
  1  6  1  0
  1  9  1  0
  2  1  1  0
  3  4  1  0
  3  2  1  0
  4  5  1  0
  5  6  1  0
  6 15  1  0
  8  7  2  0
  9  8  1  0
 10  9  2  0
 10 11  1  0
 11 12  2  0
 12  7  1  0
 13 14  2  0
 15 13  1  0
  1 16  1  6
  2 17  1  0
  2 18  1  0
  3 19  1  0
  3 20  1  0
  4 21  1  0
  4 22  1  0
  5 23  1  0
  5 24  1  0
  6 25  1  1
  7 26  1  0
  8 27  1  0
 11 28  1  0
 15 29  1  0
 30 31  2  0
 31 32  1  0
 32 33  1  0
 32 34  2  0
 34 35  1  0
 35 36  1  0
 36 37  1  0
 36 38  2  0
 38 39  1  0
 39 40  2  0
 40 30  1  0
 39 34  1  0
 30 41  1  0
 35 42  1  0
 40 43  1  0
 13 31  1  0
M  ISO  8  16  13  17  13  18  13  19  13  20  13  21  13  22  13  23  13
M  ISO  7  24  13  25  13  26  14  27  14  28  14  33  15  37  14
M  END
>  <DihAtoms>  (1) 
13,12,30,29

>  <DihDeg>  (1) 
-179.98363120908078

$$$$
