REMARK  Name = 
REMARK  3 active torsions:
REMARK  status: ('A' for Active; 'I' for Inactive)
REMARK    1  A    between atoms: C_1  and  C_9
REMARK    2  A    between atoms: C_6  and  N_15
REMARK    3  A    between atoms: C_13  and  C_31
REMARK                            x       y       z     vdW  Elec       q    Type
REMARK                         _______ _______ _______ _____ _____    ______ ____
ROOT
ATOM      1  C   UNL     1      38.137  30.566  47.326  0.00  0.00    +0.000 C 
ATOM      2  C   UNL     1      37.509  30.736  46.024  0.00  0.00    +0.000 C 
ATOM      3  C   UNL     1      38.548  30.572  44.958  0.00  0.00    +0.000 C 
ATOM      4  C   UNL     1      39.813  31.253  45.336  0.00  0.00    +0.000 C 
ATOM      5  C   UNL     1      39.709  32.273  46.390  0.00  0.00    +0.000 C 
ATOM      6  C   UNL     1      38.935  31.827  47.628  0.00  0.00    +0.000 C 
ATOM      7  H   UNL     1      38.914  29.753  47.335  0.00  0.00    +0.000 HD
ATOM      8  H   UNL     1      36.769  29.895  45.876  0.00  0.00    +0.000 HD
ATOM      9  H   UNL     1      36.938  31.660  45.928  0.00  0.00    +0.000 HD
ATOM     10  H   UNL     1      38.118  31.022  44.029  0.00  0.00    +0.000 HD
ATOM     11  H   UNL     1      38.695  29.481  44.711  0.00  0.00    +0.000 HD
ATOM     12  H   UNL     1      40.217  31.740  44.428  0.00  0.00    +0.000 HD
ATOM     13  H   UNL     1      40.567  30.480  45.610  0.00  0.00    +0.000 HD
ATOM     14  H   UNL     1      39.233  33.220  46.023  0.00  0.00    +0.000 HD
ATOM     15  H   UNL     1      40.722  32.565  46.734  0.00  0.00    +0.000 HD
ATOM     16  H   UNL     1      39.658  31.562  48.431  0.00  0.00    +0.000 HD
ENDROOT
BRANCH   1  19
ATOM     17  C   UNL     1      36.939  29.630  50.714  0.00  0.00    +0.000 A 
ATOM     18  C   UNL     1      37.814  29.840  49.619  0.00  0.00    +0.000 A 
ATOM     19  C   UNL     1      37.234  30.367  48.472  0.00  0.00    +0.000 A 
ATOM     20  N   UNL     1      35.879  30.658  48.436  0.00  0.00    +0.000 NA
ATOM     21  C   UNL     1      35.089  30.443  49.496  0.00  0.00    +0.000 A 
ATOM     22  N   UNL     1      35.611  29.924  50.651  0.00  0.00    +0.000 NA
ATOM     23  H   UNL     1      37.409  29.217  51.604  0.00  0.00    +0.000 HD
ATOM     24  H   UNL     1      38.862  29.599  49.692  0.00  0.00    +0.000 HD
ATOM     25  H   UNL     1      34.031  30.666  49.480  0.00  0.00    +0.000 HD
ENDBRANCH   1  19
BRANCH   6  28
ATOM     26  C   UNL     1      38.269  33.805  49.258  0.00  0.00    +0.000 C 
ATOM     27  O   UNL     1      39.345  33.627  49.849  0.00  0.00    +0.000 OA
ATOM     28  N   UNL     1      38.152  32.916  48.146  0.00  0.00    +0.000 N 
ATOM     29  H   UNL     1      37.337  32.964  47.456  0.00  0.00    +0.000 HD
BRANCH  26  31
ATOM     30  C   UNL     1      36.740  35.739  48.749  0.00  0.00    +0.000 A 
ATOM     31  C   UNL     1      37.227  34.734  49.559  0.00  0.00    +0.000 A 
ATOM     32  C   UNL     1      36.663  34.572  50.829  0.00  0.00    +0.000 A 
ATOM     33  H   UNL     1      36.981  33.813  51.529  0.00  0.00    +0.000 HD
ATOM     34  C   UNL     1      35.647  35.393  51.264  0.00  0.00    +0.000 A 
ATOM     35  N   UNL     1      34.931  35.463  52.418  0.00  0.00    +0.000 N 
ATOM     36  C   UNL     1      34.040  36.476  52.312  0.00  0.00    +0.000 A 
ATOM     37  H   UNL     1      33.353  36.730  53.108  0.00  0.00    +0.000 HD
ATOM     38  N   UNL     1      34.205  37.036  51.087  0.00  0.00    +0.000 NA
ATOM     39  C   UNL     1      35.186  36.388  50.428  0.00  0.00    +0.000 A 
ATOM     40  C   UNL     1      35.724  36.581  49.151  0.00  0.00    +0.000 A 
ATOM     41  H   UNL     1      35.075  34.827  53.220  0.00  0.00    +0.000 HD
ENDBRANCH  26  31
ENDBRANCH   6  28
TORSDOF 3
