
 OpenBabel03272507413D

 44 48  0  0  0  0  0  0  0  0999 V2000
   36.6390   31.1710   50.0860 C   0  0  0  0  0  0  0  0  0  0  0  0
   35.5720   30.2970   49.8910 C   0  0  0  0  0  0  0  0  0  0  0  0
   35.3750   29.1940   50.6880 C   0  0  0  0  0  0  0  0  0  0  0  0
   36.2720   28.9840   51.6880 N   0  0  0  0  0  0  0  0  0  0  0  0
   37.3180   29.8400   51.8800 C   0  0  0  0  0  0  0  0  0  0  0  0
   37.4810   30.8980   51.0910 N   0  0  0  0  0  0  0  0  0  0  0  0
   34.5930   28.4870   50.6040 H   0  0  0  0  0  0  0  0  0  0  0  0
   38.0470   29.6860   52.6780 H   0  0  0  0  0  0  0  0  0  0  0  0
   34.2390   29.3160   48.0640 C   0  0  0  0  0  0  0  0  0  0  0  0
   34.7530   28.1410   47.9420 O   0  0  0  0  0  0  0  0  0  0  0  0
   34.5960   30.4110   48.8820 N   0  0  0  0  0  0  0  0  0  0  0  0
   34.2400   31.3670   48.8740 H   0  0  0  0  0  0  0  0  0  0  0  0
   32.9480   30.5740   46.3210 C   0  0  0  0  0  3  0  0  0  0  0  0
   33.0880   29.5070   47.1820 C   0  0  0  0  0  0  0  0  0  0  0  0
   32.0180   28.6370   47.1180 C   0  0  0  0  0  0  0  0  0  0  0  0
   32.0210   27.7510   47.7580 H   0  0  0  0  0  0  0  0  0  0  0  0
   30.9130   28.7690   46.3080 C   0  0  0  0  0  0  0  0  0  0  0  0
   29.8070   28.0250   46.1290 N   0  0  0  0  0  0  0  0  0  0  0  0
   29.0440   28.6300   45.1990 C   0  0  0  0  0  0  0  0  0  0  0  0
   28.0740   28.3130   44.8020 H   0  0  0  0  0  0  0  0  0  0  0  0
   29.6810   29.7510   44.8030 N   0  0  0  0  0  0  0  0  0  0  0  0
   30.8510   29.8660   45.4770 C   0  0  0  0  0  0  0  0  0  0  0  0
   31.8800   30.7840   45.4800 C   0  0  0  0  0  3  0  0  0  0  0  0
   29.5470   27.1330   46.6050 H   0  0  0  0  0  0  0  0  0  0  0  0
   36.6620   32.1930   49.2030 O   0  0  0  0  0  0  0  0  0  0  0  0
   38.1650   32.1690   47.2480 C   0  0  0  0  0  0  0  0  0  0  0  0
   37.7760   32.6070   48.5060 C   0  0  0  0  0  0  0  0  0  0  0  0
   38.5340   33.5450   49.1830 C   0  0  0  0  0  0  0  0  0  0  0  0
   39.6860   34.0510   48.6020 C   0  0  0  0  0  0  0  0  0  0  0  0
   40.0700   33.6130   47.3470 C   0  0  0  0  0  0  0  0  0  0  0  0
   39.2940   32.6750   46.6960 C   0  0  0  0  0  0  0  0  0  0  0  0
   38.2970   33.9280   50.1540 H   0  0  0  0  0  0  0  0  0  0  0  0
   40.3080   34.7870   49.0980 H   0  0  0  0  0  0  0  0  0  0  0  0
   40.9650   33.9780   46.8470 H   0  0  0  0  0  0  0  0  0  0  0  0
   39.7170   32.2180   45.3600 C   0  0  0  0  0  0  0  0  0  0  0  0
   40.5670   31.2000   45.0080 C   0  0  0  0  0  0  0  0  0  0  0  0
   40.6380   31.1740   43.6170 C   0  0  0  0  0  0  0  0  0  0  0  0
   39.8060   32.2020   43.2030 C   0  0  0  0  0  0  0  0  0  0  0  0
   39.2670   32.8120   44.2520 O   0  0  0  0  0  0  0  0  0  0  0  0
   41.0780   30.5500   45.7000 H   0  0  0  0  0  0  0  0  0  0  0  0
   41.2160   30.4970   43.0000 H   0  0  0  0  0  0  0  0  0  0  0  0
   39.6150   32.4770   42.1650 H   0  0  0  0  0  0  0  0  0  0  0  0
   36.6680   30.4220   46.0910 N   0  0  0  0  0  0  0  0  0  0  0  0
   37.3300   31.2000   46.6160 C   0  0  0  0  0  0  0  0  0  0  0  0
  1  6  1  0  0  0  0
  2  1  2  0  0  0  0
  2  3  1  0  0  0  0
  3  4  2  0  0  0  0
  4  5  1  0  0  0  0
  5  8  1  0  0  0  0
  6  5  2  0  0  0  0
  7  3  1  0  0  0  0
  9 11  1  0  0  0  0
 10  9  2  0  0  0  0
 11  2  1  0  0  0  0
 12 11  1  0  0  0  0
 13 14  1  0  0  0  0
 14  9  1  0  0  0  0
 15 14  2  0  0  0  0
 15 16  1  0  0  0  0
 17 15  1  0  0  0  0
 18 17  1  0  0  0  0
 18 24  1  0  0  0  0
 19 18  1  0  0  0  0
 20 19  1  0  0  0  0
 21 19  2  0  0  0  0
 21 22  1  0  0  0  0
 22 23  1  0  0  0  0
 22 17  2  0  0  0  0
 23 13  2  0  0  0  0
 25  1  1  0  0  0  0
 26 27  1  0  0  0  0
 27 28  2  0  0  0  0
 27 25  1  0  0  0  0
 28 32  1  0  0  0  0
 29 33  1  0  0  0  0
 29 28  1  0  0  0  0
 30 29  2  0  0  0  0
 31 26  2  0  0  0  0
 31 30  1  0  0  0  0
 34 30  1  0  0  0  0
 35 31  1  0  0  0  0
 36 35  2  0  0  0  0
 36 40  1  0  0  0  0
 37 36  1  0  0  0  0
 38 37  2  0  0  0  0
 38 39  1  0  0  0  0
 39 35  1  0  0  0  0
 41 37  1  0  0  0  0
 42 38  1  0  0  0  0
 43 44  3  0  0  0  0
 44 26  1  0  0  0  0
M  END
>  <minimizedAffinity>
-6.27217865

>  <minimizedRMSD>
0.923425615

$$$$
