REMARK  Name = 
REMARK  6 active torsions:
REMARK  status: ('A' for Active; 'I' for Inactive)
REMARK    1  A    between atoms: C_1  and  C_13
REMARK    2  A    between atoms: C_2  and  O_14
REMARK    3  A    between atoms: C_6  and  C_7
REMARK    4  A    between atoms: O_14  and  C_15
REMARK    5  A    between atoms: C_16  and  N_23
REMARK    6  A    between atoms: C_21  and  C_34
REMARK                            x       y       z     vdW  Elec       q    Type
REMARK                         _______ _______ _______ _____ _____    ______ ____
ROOT
ATOM      1  C   UNL     1      36.786  31.208  50.162  0.00  0.00    +0.000 A 
ATOM      2  C   UNL     1      35.654  30.423  49.955  0.00  0.00    +0.000 A 
ATOM      3  C   UNL     1      35.437  29.255  50.646  0.00  0.00    +0.000 A 
ATOM      4  N   UNL     1      36.382  28.887  51.553  0.00  0.00    +0.000 NA
ATOM      5  C   UNL     1      37.491  29.656  51.757  0.00  0.00    +0.000 A 
ATOM      6  N   UNL     1      37.671  30.781  51.071  0.00  0.00    +0.000 NA
ATOM      7  H   UNL     1      34.607  28.607  50.546  0.00  0.00    +0.000 HD
ATOM      8  H   UNL     1      38.259  29.376  52.481  0.00  0.00    +0.000 HD
ENDROOT
BRANCH   2  11
ATOM      9  C   UNL     1      34.134  29.718  48.147  0.00  0.00    +0.000 C 
ATOM     10  O   UNL     1      34.550  28.528  47.879  0.00  0.00    +0.000 OA
ATOM     11  N   UNL     1      34.624  30.701  49.035  0.00  0.00    +0.000 N 
ATOM     12  H   UNL     1      34.340  31.675  49.142  0.00  0.00    +0.000 HD
BRANCH   9  14
ATOM     13  C   UNL     1      31.756  29.374  47.430  0.00  0.00    +0.000 A 
ATOM     14  C   UNL     1      32.944  30.071  47.373  0.00  0.00    +0.000 A 
ATOM     15  C   UNL     1      32.884  31.141  46.505  0.00  0.00    +0.000 A 
ATOM     16  H   UNL     1      33.770  31.768  46.378  0.00  0.00    +0.000 HD
ATOM     17  C   UNL     1      31.791  31.516  45.755  0.00  0.00    +0.000 A 
ATOM     18  N   UNL     1      31.572  32.513  44.878  0.00  0.00    +0.000 N 
ATOM     19  C   UNL     1      30.306  32.408  44.434  0.00  0.00    +0.000 A 
ATOM     20  H   UNL     1      29.780  33.044  43.715  0.00  0.00    +0.000 HD
ATOM     21  N   UNL     1      29.740  31.343  45.039  0.00  0.00    +0.000 NA
ATOM     22  C   UNL     1      30.642  30.765  45.870  0.00  0.00    +0.000 A 
ATOM     23  C   UNL     1      30.619  29.678  46.717  0.00  0.00    +0.000 A 
ATOM     24  H   UNL     1      32.238  33.256  44.569  0.00  0.00    +0.000 HD
ENDBRANCH   9  14
ENDBRANCH   2  11
BRANCH   1  25
ATOM     25  O   UNL     1      36.818  32.316  49.389  0.00  0.00    +0.000 OA
BRANCH  25  27
ATOM     26  C   UNL     1      38.266  32.289  47.393  0.00  0.00    +0.000 A 
ATOM     27  C   UNL     1      37.908  32.734  48.658  0.00  0.00    +0.000 A 
ATOM     28  C   UNL     1      38.674  33.686  49.305  0.00  0.00    +0.000 A 
ATOM     29  C   UNL     1      39.804  34.198  48.687  0.00  0.00    +0.000 A 
ATOM     30  C   UNL     1      40.158  33.753  47.426  0.00  0.00    +0.000 A 
ATOM     31  C   UNL     1      39.374  32.801  46.805  0.00  0.00    +0.000 A 
ATOM     32  H   UNL     1      38.461  34.076  50.278  0.00  0.00    +0.000 HD
ATOM     33  H   UNL     1      40.432  34.945  49.159  0.00  0.00    +0.000 HD
ATOM     34  H   UNL     1      41.035  34.122  46.898  0.00  0.00    +0.000 HD
BRANCH  31  35
ATOM     35  C   UNL     1      39.764  32.336  45.462  0.00  0.00    +0.000 A 
ATOM     36  C   UNL     1      40.617  31.326  45.096  0.00  0.00    +0.000 A 
ATOM     37  C   UNL     1      40.648  31.286  43.703  0.00  0.00    +0.000 A 
ATOM     38  C   UNL     1      39.790  32.299  43.304  0.00  0.00    +0.000 A 
ATOM     39  O   UNL     1      39.274  32.912  44.362  0.00  0.00    +0.000 OA
ATOM     40  H   UNL     1      41.157  30.690  45.779  0.00  0.00    +0.000 HD
ATOM     41  H   UNL     1      41.217  30.611  43.077  0.00  0.00    +0.000 HD
ATOM     42  H   UNL     1      39.566  32.561  42.269  0.00  0.00    +0.000 HD
ENDBRANCH  31  35
BRANCH  26  44
ATOM     43  N   UNL     1      36.755  30.516  46.294  0.00  0.00    +0.000 NA
ATOM     44  C   UNL     1      37.424  31.306  46.794  0.00  0.00    +0.000 C 
ENDBRANCH  26  44
ENDBRANCH  25  27
ENDBRANCH   1  25
TORSDOF 6
