
     RDKit          3D

 41 43  0  0  0  0  0  0  0  0999 V2000
   35.3569   29.8311   46.7686 O   0  0  0  0  0  0  0  0  0  0  0  0
   34.0979   29.9949   47.6170 P   0  0  2  0  0  0  0  0  0  0  0  0
   33.1005   31.0308   46.7216 O   0  0  0  0  0  0  0  0  0  0  0  0
   34.3964   30.6499   49.1615 O   0  0  0  0  0  0  0  0  0  0  0  0
   35.6313   30.5084   49.7862 C   0  0  0  0  0  0  0  0  0  0  0  0
   35.9671   29.4867   50.7053 C   0  0  0  0  0  0  0  0  0  0  0  0
   37.2500   29.4875   51.2415 C   0  0  0  0  0  0  0  0  0  0  0  0
   38.1209   30.4696   50.8576 N   0  0  0  0  0  0  0  0  0  0  0  0
   37.7724   31.4396   49.9727 C   0  0  0  0  0  0  0  0  0  0  0  0
   36.5184   31.4589   49.4333 N   0  0  0  0  0  0  0  0  0  0  0  0
   33.3356   28.5119   47.8433 O   0  0  0  0  0  0  0  0  0  0  0  0
   33.0847   27.3425   45.8724 C   0  0  1  0  0  0  0  0  0  0  0  0
   33.9193   27.4764   47.1638 C   0  0  2  0  0  0  0  0  0  0  0  0
   33.8276   26.2448   47.7330 O   0  0  0  0  0  0  0  0  0  0  0  0
   34.0707   25.3721   46.6831 C   0  0  0  0  0  0  0  0  0  0  0  0
   33.4599   25.9527   45.4265 C   0  0  2  0  0  0  0  0  0  0  0  0
   31.7428   27.5242   46.1444 O   0  0  0  0  0  0  0  0  0  0  0  0
   34.3908   25.9970   44.4270 O   0  0  0  0  0  0  0  0  0  0  0  0
   32.4886   31.4536   47.3970 H   0  0  0  0  0  0  0  0  0  0  0  0
   35.1830   28.7879   50.9096 H   0  0  0  0  0  0  0  0  0  0  0  0
   37.4800   28.7109   51.9295 H   0  0  0  0  0  0  0  0  0  0  0  0
   38.4677   32.2124   49.6749 H   0  0  0  0  0  0  0  0  0  0  0  0
   33.4386   28.0969   45.1335 H   0  0  0  0  0  0  0  0  0  0  0  0
   34.9408   27.7371   46.7732 H   0  0  0  0  0  0  0  0  0  0  0  0
   35.1754   25.3139   46.5622 H   0  0  0  0  0  0  0  0  0  0  0  0
   33.7347   24.3472   46.9111 H   0  0  0  0  0  0  0  0  0  0  0  0
   32.4859   25.4589   45.1850 H   0  0  0  0  0  0  0  0  0  0  0  0
   31.2750   28.0034   45.4046 H   0  0  0  0  0  0  0  0  0  0  0  0
   35.7690   23.7079   43.3956 O   0  0  0  0  0  0  0  0  0  0  0  0
   35.0270   24.4951   42.5635 C   0  0  0  0  0  0  0  0  0  0  0  0
   34.4065   25.5649   43.1499 C   0  0  0  0  0  0  0  0  0  0  0  0
   33.6390   26.3875   42.3153 C   0  0  0  0  0  0  0  0  0  0  0  0
   33.0813   27.2815   42.6317 H   0  0  0  0  0  0  0  0  0  0  0  0
   33.5134   26.1263   40.9455 C   0  0  0  0  0  0  0  0  0  0  0  0
   34.1514   25.0394   40.3835 C   0  0  0  0  0  0  0  0  0  0  0  0
   34.8977   24.2478   41.2204 C   0  0  0  0  0  0  0  0  0  0  0  0
   35.5678   23.1353   40.7202 O   0  0  0  0  0  0  0  0  0  0  0  0
   36.7594   23.8956   43.4779 H   0  0  0  0  0  0  0  0  0  0  0  0
   32.9228   26.7569   40.2952 H   0  0  0  0  0  0  0  0  0  0  0  0
   34.1069   24.7666   39.3359 H   0  0  0  0  0  0  0  0  0  0  0  0
   36.5604   22.9939   40.8563 H   0  0  0  0  0  0  0  0  0  0  0  0
  2  1  2  0
  2 11  1  1
  2  4  1  0
  3  2  1  0
  4  5  1  0
  5  6  2  0
  6  7  1  0
  8  7  2  0
  9  8  1  0
 10  5  1  0
 10  9  2  0
 12 17  1  0
 12 13  1  0
 13 14  1  0
 13 11  1  0
 15 14  1  0
 16 18  1  0
 16 12  1  0
 16 15  1  0
  3 19  1  0
  6 20  1  0
  7 21  1  0
  9 22  1  0
 12 23  1  6
 13 24  1  6
 15 25  1  0
 15 26  1  0
 16 27  1  6
 17 28  1  0
 29 30  1  0
 30 31  2  0
 31 32  1  0
 32 33  1  0
 32 34  2  0
 34 35  1  0
 35 36  2  0
 36 37  1  0
 36 30  1  0
 29 38  1  0
 34 39  1  0
 35 40  1  0
 37 41  1  0
 18 31  1  0
M  ISO  8  19   3  20  14  21  14  22  14  23  13  24  13  25  13  26  13
M  ISO  3  27  13  28   3  33  16
M  END
>  <DihAtoms>  (1) 
15,17,30,29

>  <DihDeg>  (1) 
0.030253580911310574

$$$$
