
 OpenBabel03262522173D

 47 50  0  0  1  0  0  0  0  0999 V2000
   37.9510   25.4770   36.0370 C   0  0  0  0  0  0  0  0  0  0  0  0
   36.8940   25.2690   35.7250 H   0  0  0  0  0  0  0  0  0  0  0  0
   38.0740   25.2130   37.0930 H   0  0  0  0  0  0  0  0  0  0  0  0
   38.5160   22.3500   34.4550 C   0  0  1  0  0  0  0  0  0  0  0  0
   38.0640   23.7810   34.2080 C   0  0  0  0  0  0  0  0  0  0  0  0
   38.8490   24.5220   35.2670 C   0  0  2  0  0  0  0  0  0  0  0  0
   39.4450   23.6130   36.0810 O   0  0  0  0  0  0  0  0  0  0  0  0
   38.7750   22.3950   35.9500 C   0  0  0  0  0  0  0  0  0  0  0  0
   39.5060   22.1720   33.9720 H   0  0  0  0  0  0  0  0  0  0  0  0
   38.4030   24.0560   33.1900 H   0  0  0  0  0  0  0  0  0  0  0  0
   36.9660   23.8690   34.3260 H   0  0  0  0  0  0  0  0  0  0  0  0
   39.6360   25.1180   34.7650 H   0  0  0  0  0  0  0  0  0  0  0  0
   37.8430   22.3340   36.5390 H   0  0  0  0  0  0  0  0  0  0  0  0
   39.4990   21.6010   36.2100 H   0  0  0  0  0  0  0  0  0  0  0  0
   37.5200   21.4590   34.1220 O   0  0  0  0  0  0  0  0  0  0  0  0
   36.0470   20.1460   32.9730 C   0  0  0  0  0  0  0  0  0  0  0  0
   37.1850   20.9550   32.8900 C   0  0  0  0  0  0  0  0  0  0  0  0
   37.7970   21.1420   31.6670 C   0  0  0  0  0  0  0  0  0  0  0  0
   38.6710   21.7880   31.7190 H   0  0  0  0  0  0  0  0  0  0  0  0
   37.3020   20.5420   30.5260 C   0  0  0  0  0  3  0  0  0  0  0  0
   36.1710   19.7390   30.6150 C   0  0  0  0  0  3  0  0  0  0  0  0
   35.5270   19.5270   31.8340 C   0  0  0  0  0  0  0  0  0  0  0  0
   35.3280   19.8680   34.1370 O   0  0  0  0  0  0  0  0  0  0  0  0
   35.7670   19.3780   34.9000 H   0  0  0  0  0  0  0  0  0  0  0  0
   34.4000   18.7150   31.8680 O   0  0  0  0  0  0  0  0  0  0  0  0
   33.4650   19.1500   31.8310 H   0  0  0  0  0  0  0  0  0  0  0  0
   38.4620   27.1660   35.6210 S   0  0  0  0  0  0  0  0  0  0  0  0
   35.5260   28.9980   33.6730 C   0  0  0  0  0  0  0  0  0  0  0  0
   35.6620   28.5380   32.3510 C   0  0  0  0  0  0  0  0  0  0  0  0
   36.6610   27.6450   32.0050 C   0  0  0  0  0  0  0  0  0  0  0  0
   37.5010   27.2420   33.0180 C   0  0  0  0  0  0  0  0  0  0  0  0
   37.3550   27.6980   34.2920 C   0  0  0  0  0  0  0  0  0  0  0  0
   36.3710   28.5800   34.6430 N   0  0  0  0  0  0  0  0  0  0  0  0
   34.9830   28.8760   31.5770 H   0  0  0  0  0  0  0  0  0  0  0  0
   36.7700   27.2870   30.9900 H   0  0  0  0  0  0  0  0  0  0  0  0
   38.2820   26.5510   32.7720 H   0  0  0  0  0  0  0  0  0  0  0  0
   34.4640   29.9220   33.9460 C   0  0  0  0  0  0  0  0  0  0  0  0
   33.4420   29.9250   33.2580 O   0  0  0  0  0  0  0  0  0  0  0  0
   35.5900   31.8210   35.0480 C   0  0  0  0  0  0  0  0  0  0  0  0
   34.5370   30.9010   35.0450 C   0  0  0  0  0  0  0  0  0  0  0  0
   33.5880   30.9360   36.0750 C   0  0  0  0  0  0  0  0  0  0  0  0
   33.7330   31.8820   37.0590 N   0  0  0  0  0  0  0  0  0  0  0  0
   34.7560   32.7510   37.0350 C   0  0  0  0  0  0  0  0  0  0  0  0
   35.6710   32.7270   36.0520 N   0  0  0  0  0  0  0  0  0  0  0  0
   36.3010   31.7740   34.2510 H   0  0  0  0  0  0  0  0  0  0  0  0
   32.7750   30.2210   36.0670 H   0  0  0  0  0  0  0  0  0  0  0  0
   34.9070   33.5110   37.7890 H   0  0  0  0  0  0  0  0  0  0  0  0
  1  3  1  0  0  0  0
  2  1  1  0  0  0  0
  4  9  1  6  0  0  0
  4  8  1  0  0  0  0
  5 11  1  0  0  0  0
  5  4  1  0  0  0  0
  5  6  1  0  0  0  0
  6 12  1  6  0  0  0
  6  1  1  0  0  0  0
  6  7  1  0  0  0  0
  8  7  1  0  0  0  0
  8 14  1  0  0  0  0
  8 13  1  0  0  0  0
 10  5  1  0  0  0  0
 15  4  1  0  0  0  0
 16 23  1  0  0  0  0
 17 16  1  0  0  0  0
 17 15  1  0  0  0  0
 18 19  1  0  0  0  0
 18 17  2  0  0  0  0
 20 21  2  0  0  0  0
 20 18  1  0  0  0  0
 21 22  1  0  0  0  0
 22 25  1  0  0  0  0
 22 16  2  0  0  0  0
 23 24  1  0  0  0  0
 26 25  1  0  0  0  0
 27  1  1  0  0  0  0
 28 37  1  0  0  0  0
 28 33  1  0  0  0  0
 29 28  2  0  0  0  0
 30 29  1  0  0  0  0
 30 31  2  0  0  0  0
 31 32  1  0  0  0  0
 32 33  2  0  0  0  0
 32 27  1  0  0  0  0
 34 29  1  0  0  0  0
 35 30  1  0  0  0  0
 36 31  1  0  0  0  0
 37 40  1  0  0  0  0
 38 37  2  0  0  0  0
 39 44  1  0  0  0  0
 40 39  2  0  0  0  0
 40 41  1  0  0  0  0
 41 42  2  0  0  0  0
 43 42  1  0  0  0  0
 43 47  1  0  0  0  0
 44 43  2  0  0  0  0
 45 39  1  0  0  0  0
 46 41  1  0  0  0  0
M  END
>  <minimizedAffinity>
-6.3302989

$$$$

 OpenBabel03262522173D

 47 50  0  0  1  0  0  0  0  0999 V2000
   37.8960   21.8360   31.6540 C   0  0  0  0  0  0  0  0  0  0  0  0
   38.6460   21.3200   30.9990 H   0  0  0  0  0  0  0  0  0  0  0  0
   38.4230   22.4830   32.3640 H   0  0  0  0  0  0  0  0  0  0  0  0
   36.8300   25.0980   30.7490 C   0  0  1  0  0  0  0  0  0  0  0  0
   37.8660   24.0250   30.4520 C   0  0  0  0  0  0  0  0  0  0  0  0
   37.0840   22.7690   30.7710 C   0  0  2  0  0  0  0  0  0  0  0  0
   35.9080   23.1250   31.3500 O   0  0  0  0  0  0  0  0  0  0  0  0
   36.0370   24.4220   31.8520 C   0  0  0  0  0  0  0  0  0  0  0  0
   36.1320   25.2060   29.8840 H   0  0  0  0  0  0  0  0  0  0  0  0
   38.0990   24.0890   29.3720 H   0  0  0  0  0  0  0  0  0  0  0  0
   38.7630   24.1620   31.0870 H   0  0  0  0  0  0  0  0  0  0  0  0
   36.8670   22.2430   29.8210 H   0  0  0  0  0  0  0  0  0  0  0  0
   36.5510   24.4730   32.8280 H   0  0  0  0  0  0  0  0  0  0  0  0
   35.0210   24.8580   31.8790 H   0  0  0  0  0  0  0  0  0  0  0  0
   37.4380   26.2580   31.1750 O   0  0  0  0  0  0  0  0  0  0  0  0
   36.5410   28.3210   30.7830 C   0  0  0  0  0  0  0  0  0  0  0  0
   36.8740   27.3690   31.7520 C   0  0  0  0  0  0  0  0  0  0  0  0
   36.6160   27.6350   33.0820 C   0  0  0  0  0  0  0  0  0  0  0  0
   36.9150   26.8270   33.7470 H   0  0  0  0  0  0  0  0  0  0  0  0
   36.0350   28.8270   33.4670 C   0  0  0  0  0  3  0  0  0  0  0  0
   35.7070   29.7690   32.5000 C   0  0  0  0  0  3  0  0  0  0  0  0
   35.9530   29.5350   31.1470 C   0  0  0  0  0  0  0  0  0  0  0  0
   36.7430   28.1890   29.4080 O   0  0  0  0  0  0  0  0  0  0  0  0
   37.6750   28.0980   29.0380 H   0  0  0  0  0  0  0  0  0  0  0  0
   35.6050   30.5100   30.2210 O   0  0  0  0  0  0  0  0  0  0  0  0
   34.7030   30.4340   29.7260 H   0  0  0  0  0  0  0  0  0  0  0  0
   36.7450   20.6640   32.4200 S   0  0  0  0  0  0  0  0  0  0  0  0
   37.6640   22.2670   35.9360 C   0  0  0  0  0  0  0  0  0  0  0  0
   36.6120   21.8620   36.7750 C   0  0  0  0  0  0  0  0  0  0  0  0
   35.5760   21.0790   36.2950 C   0  0  0  0  0  0  0  0  0  0  0  0
   35.6400   20.7270   34.9660 C   0  0  0  0  0  0  0  0  0  0  0  0
   36.6660   21.1280   34.1680 C   0  0  0  0  0  0  0  0  0  0  0  0
   37.6930   21.9030   34.6330 N   0  0  0  0  0  0  0  0  0  0  0  0
   36.5930   22.1570   37.8170 H   0  0  0  0  0  0  0  0  0  0  0  0
   34.7640   20.7630   36.9360 H   0  0  0  0  0  0  0  0  0  0  0  0
   34.8480   20.1210   34.5730 H   0  0  0  0  0  0  0  0  0  0  0  0
   38.6970   23.0780   36.5130 C   0  0  0  0  0  0  0  0  0  0  0  0
   39.4020   22.6410   37.4240 O   0  0  0  0  0  0  0  0  0  0  0  0
   38.1350   25.4800   36.5140 C   0  0  0  0  0  0  0  0  0  0  0  0
   38.9650   24.4520   36.0560 C   0  0  0  0  0  0  0  0  0  0  0  0
   40.0200   24.7550   35.1860 C   0  0  0  0  0  0  0  0  0  0  0  0
   40.1980   26.0630   34.8110 N   0  0  0  0  0  0  0  0  0  0  0  0
   39.3830   27.0280   35.2670 C   0  0  0  0  0  0  0  0  0  0  0  0
   38.3690   26.7490   36.1020 N   0  0  0  0  0  0  0  0  0  0  0  0
   37.3370   25.2240   37.1770 H   0  0  0  0  0  0  0  0  0  0  0  0
   40.6600   23.9550   34.8350 H   0  0  0  0  0  0  0  0  0  0  0  0
   39.4880   28.0700   34.9970 H   0  0  0  0  0  0  0  0  0  0  0  0
  1  3  1  0  0  0  0
  1 27  1  0  0  0  0
  2  1  1  0  0  0  0
  4  9  1  6  0  0  0
  4 15  1  0  0  0  0
  4  8  1  0  0  0  0
  5  4  1  0  0  0  0
  5  6  1  0  0  0  0
  5 11  1  0  0  0  0
  6 12  1  6  0  0  0
  6  7  1  0  0  0  0
  6  1  1  0  0  0  0
  7  8  1  0  0  0  0
  8 14  1  0  0  0  0
  8 13  1  0  0  0  0
 10  5  1  0  0  0  0
 15 17  1  0  0  0  0
 16 22  2  0  0  0  0
 16 17  1  0  0  0  0
 17 18  2  0  0  0  0
 18 20  1  0  0  0  0
 18 19  1  0  0  0  0
 21 20  2  0  0  0  0
 22 21  1  0  0  0  0
 23 16  1  0  0  0  0
 24 23  1  0  0  0  0
 25 22  1  0  0  0  0
 26 25  1  0  0  0  0
 27 32  1  0  0  0  0
 28 37  1  0  0  0  0
 28 29  1  0  0  0  0
 29 34  1  0  0  0  0
 30 29  2  0  0  0  0
 30 35  1  0  0  0  0
 31 30  1  0  0  0  0
 32 33  1  0  0  0  0
 32 31  2  0  0  0  0
 33 28  2  0  0  0  0
 36 31  1  0  0  0  0
 37 38  2  0  0  0  0
 39 45  1  0  0  0  0
 40 37  1  0  0  0  0
 40 39  2  0  0  0  0
 41 40  1  0  0  0  0
 42 41  2  0  0  0  0
 42 43  1  0  0  0  0
 43 44  2  0  0  0  0
 44 39  1  0  0  0  0
 46 41  1  0  0  0  0
 47 43  1  0  0  0  0
M  END
>  <minimizedAffinity>
-6.3040719

$$$$

 OpenBabel03262522173D

 47 50  0  0  1  0  0  0  0  0999 V2000
   37.5850   27.4290   34.1680 C   0  0  0  0  0  0  0  0  0  0  0  0
   36.6970   26.7980   34.4350 H   0  0  0  0  0  0  0  0  0  0  0  0
   37.3360   28.4840   34.3240 H   0  0  0  0  0  0  0  0  0  0  0  0
   39.5070   25.0940   36.0240 C   0  0  1  0  0  0  0  0  0  0  0  0
   39.4730   25.8960   34.7330 C   0  0  0  0  0  0  0  0  0  0  0  0
   38.6860   27.1130   35.1670 C   0  0  2  0  0  0  0  0  0  0  0  0
   38.1970   26.8920   36.4140 O   0  0  0  0  0  0  0  0  0  0  0  0
   38.1900   25.5150   36.6480 C   0  0  0  0  0  0  0  0  0  0  0  0
   40.3100   25.4830   36.6960 H   0  0  0  0  0  0  0  0  0  0  0  0
   40.5200   26.1610   34.4880 H   0  0  0  0  0  0  0  0  0  0  0  0
   38.9840   25.3160   33.9260 H   0  0  0  0  0  0  0  0  0  0  0  0
   39.3760   27.9790   35.2050 H   0  0  0  0  0  0  0  0  0  0  0  0
   37.3280   24.9910   36.2000 H   0  0  0  0  0  0  0  0  0  0  0  0
   38.2540   25.3760   37.7440 H   0  0  0  0  0  0  0  0  0  0  0  0
   39.5540   23.7430   35.7590 O   0  0  0  0  0  0  0  0  0  0  0  0
   40.7320   22.1880   36.9450 C   0  0  0  0  0  0  0  0  0  0  0  0
   40.6370   22.9000   35.7440 C   0  0  0  0  0  0  0  0  0  0  0  0
   41.5760   22.6900   34.7540 C   0  0  0  0  0  0  0  0  0  0  0  0
   41.4050   23.2950   33.8660 H   0  0  0  0  0  0  0  0  0  0  0  0
   42.6050   21.7870   34.9320 C   0  0  0  0  0  3  0  0  0  0  0  0
   42.6940   21.0830   36.1260 C   0  0  0  0  0  3  0  0  0  0  0  0
   41.7650   21.2700   37.1500 C   0  0  0  0  0  0  0  0  0  0  0  0
   39.8600   22.2980   38.0280 O   0  0  0  0  0  0  0  0  0  0  0  0
   39.7700   23.1720   38.5220 H   0  0  0  0  0  0  0  0  0  0  0  0
   41.9000   20.5400   38.3240 O   0  0  0  0  0  0  0  0  0  0  0  0
   41.3550   19.6720   38.4430 H   0  0  0  0  0  0  0  0  0  0  0  0
   38.2180   27.0450   32.5140 S   0  0  0  0  0  0  0  0  0  0  0  0
   36.8380   23.5450   31.2410 C   0  0  0  0  0  0  0  0  0  0  0  0
   35.5130   23.8240   30.8650 C   0  0  0  0  0  0  0  0  0  0  0  0
   34.9890   25.0990   30.9850 C   0  0  0  0  0  0  0  0  0  0  0  0
   35.8320   26.0620   31.4900 C   0  0  0  0  0  0  0  0  0  0  0  0
   37.1130   25.7750   31.8500 C   0  0  0  0  0  0  0  0  0  0  0  0
   37.6390   24.5180   31.7340 N   0  0  0  0  0  0  0  0  0  0  0  0
   34.8760   23.0410   30.4710 H   0  0  0  0  0  0  0  0  0  0  0  0
   33.9700   25.3200   30.6970 H   0  0  0  0  0  0  0  0  0  0  0  0
   35.4470   27.0570   31.5930 H   0  0  0  0  0  0  0  0  0  0  0  0
   37.3020   22.1970   31.0840 C   0  0  0  0  0  0  0  0  0  0  0  0
   38.3270   21.9570   30.4430 O   0  0  0  0  0  0  0  0  0  0  0  0
   36.2850   21.0770   33.0320 C   0  0  0  0  0  0  0  0  0  0  0  0
   36.5900   21.0470   31.6680 C   0  0  0  0  0  0  0  0  0  0  0  0
   36.2140   19.9370   30.9020 C   0  0  0  0  0  0  0  0  0  0  0  0
   35.5530   18.9090   31.5280 N   0  0  0  0  0  0  0  0  0  0  0  0
   35.2750   18.9670   32.8410 C   0  0  0  0  0  0  0  0  0  0  0  0
   35.6310   20.0270   33.5850 N   0  0  0  0  0  0  0  0  0  0  0  0
   36.5840   21.9350   33.5960 H   0  0  0  0  0  0  0  0  0  0  0  0
   36.4530   19.9190   29.8450 H   0  0  0  0  0  0  0  0  0  0  0  0
   34.7580   18.1810   33.3730 H   0  0  0  0  0  0  0  0  0  0  0  0
  1  3  1  0  0  0  0
  1  2  1  0  0  0  0
  1  6  1  0  0  0  0
  4  8  1  0  0  0  0
  4  9  1  1  0  0  0
  5  6  1  0  0  0  0
  5  4  1  0  0  0  0
  6 12  1  1  0  0  0
  6  7  1  0  0  0  0
  7  8  1  0  0  0  0
  8 14  1  0  0  0  0
 10  5  1  0  0  0  0
 11  5  1  0  0  0  0
 13  8  1  0  0  0  0
 15  4  1  0  0  0  0
 16 22  1  0  0  0  0
 16 23  1  0  0  0  0
 17 15  1  0  0  0  0
 17 16  2  0  0  0  0
 18 20  2  0  0  0  0
 18 17  1  0  0  0  0
 19 18  1  0  0  0  0
 20 21  1  0  0  0  0
 21 22  2  0  0  0  0
 22 25  1  0  0  0  0
 23 24  1  0  0  0  0
 25 26  1  0  0  0  0
 27  1  1  0  0  0  0
 28 33  1  0  0  0  0
 29 30  1  0  0  0  0
 29 28  2  0  0  0  0
 30 31  2  0  0  0  0
 31 36  1  0  0  0  0
 31 32  1  0  0  0  0
 32 27  1  0  0  0  0
 33 32  2  0  0  0  0
 34 29  1  0  0  0  0
 35 30  1  0  0  0  0
 37 28  1  0  0  0  0
 37 40  1  0  0  0  0
 38 37  2  0  0  0  0
 39 44  1  0  0  0  0
 39 45  1  0  0  0  0
 40 39  2  0  0  0  0
 41 42  2  0  0  0  0
 41 40  1  0  0  0  0
 42 43  1  0  0  0  0
 43 47  1  0  0  0  0
 43 44  2  0  0  0  0
 46 41  1  0  0  0  0
M  END
>  <minimizedAffinity>
-6.27478504

$$$$

 OpenBabel03262522173D

 47 50  0  0  1  0  0  0  0  0999 V2000
   38.1610   22.5270   31.2870 C   0  0  0  0  0  0  0  0  0  0  0  0
   38.9260   22.1080   30.5810 H   0  0  0  0  0  0  0  0  0  0  0  0
   38.6730   23.0130   32.1240 H   0  0  0  0  0  0  0  0  0  0  0  0
   37.0340   25.8860   31.0780 C   0  0  1  0  0  0  0  0  0  0  0  0
   38.1640   24.9500   30.6800 C   0  0  0  0  0  0  0  0  0  0  0  0
   37.4230   23.6360   30.5550 C   0  0  2  0  0  0  0  0  0  0  0  0
   36.1600   23.8050   31.0220 O   0  0  0  0  0  0  0  0  0  0  0  0
   36.1390   24.9310   31.8470 C   0  0  0  0  0  0  0  0  0  0  0  0
   36.4570   26.1960   30.1740 H   0  0  0  0  0  0  0  0  0  0  0  0
   38.5400   25.2940   29.6970 H   0  0  0  0  0  0  0  0  0  0  0  0
   38.9550   24.9400   31.4560 H   0  0  0  0  0  0  0  0  0  0  0  0
   37.3720   23.3670   29.4820 H   0  0  0  0  0  0  0  0  0  0  0  0
   36.5090   24.7420   32.8700 H   0  0  0  0  0  0  0  0  0  0  0  0
   35.1050   25.3220   31.8300 H   0  0  0  0  0  0  0  0  0  0  0  0
   37.5060   26.9130   31.8670 O   0  0  0  0  0  0  0  0  0  0  0  0
   38.0750   27.0670   34.0730 C   0  0  0  0  0  0  0  0  0  0  0  0
   38.5440   26.9080   32.7650 C   0  0  0  0  0  0  0  0  0  0  0  0
   39.9000   26.7730   32.5420 C   0  0  0  0  0  0  0  0  0  0  0  0
   40.1520   26.6550   31.4900 H   0  0  0  0  0  0  0  0  0  0  0  0
   40.7970   26.7930   33.5910 C   0  0  0  0  0  3  0  0  0  0  0  0
   40.3250   26.9520   34.8880 C   0  0  0  0  0  3  0  0  0  0  0  0
   38.9620   27.0920   35.1510 C   0  0  0  0  0  0  0  0  0  0  0  0
   36.7380   27.2140   34.4460 O   0  0  0  0  0  0  0  0  0  0  0  0
   36.2070   28.0090   34.1290 H   0  0  0  0  0  0  0  0  0  0  0  0
   38.5430   27.2480   36.4660 O   0  0  0  0  0  0  0  0  0  0  0  0
   38.2180   26.4210   36.9920 H   0  0  0  0  0  0  0  0  0  0  0  0
   36.9360   21.2840   31.7760 S   0  0  0  0  0  0  0  0  0  0  0  0
   37.6430   22.3440   35.5390 C   0  0  0  0  0  0  0  0  0  0  0  0
   36.6630   21.6520   36.2720 C   0  0  0  0  0  0  0  0  0  0  0  0
   35.7460   20.8300   35.6410 C   0  0  0  0  0  0  0  0  0  0  0  0
   35.8500   20.7350   34.2710 C   0  0  0  0  0  0  0  0  0  0  0  0
   36.8040   21.4120   33.5770 C   0  0  0  0  0  0  0  0  0  0  0  0
   37.7150   22.2260   34.1930 N   0  0  0  0  0  0  0  0  0  0  0  0
   36.6100   21.7500   37.3500 H   0  0  0  0  0  0  0  0  0  0  0  0
   34.9910   20.2940   36.2000 H   0  0  0  0  0  0  0  0  0  0  0  0
   35.1490   20.1030   33.7620 H   0  0  0  0  0  0  0  0  0  0  0  0
   38.5540   23.1750   36.2710 C   0  0  0  0  0  0  0  0  0  0  0  0
   38.1490   24.1670   36.8790 O   0  0  0  0  0  0  0  0  0  0  0  0
   40.4520   21.9470   37.2590 C   0  0  0  0  0  0  0  0  0  0  0  0
   39.9980   22.8920   36.3340 C   0  0  0  0  0  0  0  0  0  0  0  0
   40.9200   23.5370   35.4990 C   0  0  0  0  0  0  0  0  0  0  0  0
   42.2480   23.2120   35.6250 N   0  0  0  0  0  0  0  0  0  0  0  0
   42.6530   22.3010   36.5250 C   0  0  0  0  0  0  0  0  0  0  0  0
   41.7780   21.6770   37.3290 N   0  0  0  0  0  0  0  0  0  0  0  0
   39.7290   21.4700   37.8850 H   0  0  0  0  0  0  0  0  0  0  0  0
   40.5630   24.2680   34.7830 H   0  0  0  0  0  0  0  0  0  0  0  0
   43.6880   22.0170   36.6570 H   0  0  0  0  0  0  0  0  0  0  0  0
  1 27  1  0  0  0  0
  1  3  1  0  0  0  0
  2  1  1  0  0  0  0
  4  9  1  6  0  0  0
  4  8  1  0  0  0  0
  4 15  1  0  0  0  0
  5  4  1  0  0  0  0
  5 11  1  0  0  0  0
  6 12  1  6  0  0  0
  6  5  1  0  0  0  0
  6  7  1  0  0  0  0
  6  1  1  0  0  0  0
  7  8  1  0  0  0  0
  8 13  1  0  0  0  0
 10  5  1  0  0  0  0
 14  8  1  0  0  0  0
 15 17  1  0  0  0  0
 16 23  1  0  0  0  0
 16 22  1  0  0  0  0
 17 16  2  0  0  0  0
 18 17  1  0  0  0  0
 18 20  2  0  0  0  0
 19 18  1  0  0  0  0
 20 21  1  0  0  0  0
 21 22  2  0  0  0  0
 22 25  1  0  0  0  0
 24 23  1  0  0  0  0
 25 26  1  0  0  0  0
 27 32  1  0  0  0  0
 28 37  1  0  0  0  0
 28 29  1  0  0  0  0
 29 34  1  0  0  0  0
 30 35  1  0  0  0  0
 30 29  2  0  0  0  0
 31 30  1  0  0  0  0
 32 33  1  0  0  0  0
 32 31  2  0  0  0  0
 33 28  2  0  0  0  0
 36 31  1  0  0  0  0
 37 40  1  0  0  0  0
 37 38  2  0  0  0  0
 39 44  1  0  0  0  0
 39 45  1  0  0  0  0
 40 39  2  0  0  0  0
 41 42  2  0  0  0  0
 41 40  1  0  0  0  0
 42 43  1  0  0  0  0
 43 47  1  0  0  0  0
 43 44  2  0  0  0  0
 46 41  1  0  0  0  0
M  END
>  <minimizedAffinity>
-6.15692282

$$$$

 OpenBabel03262522173D

 47 50  0  0  1  0  0  0  0  0999 V2000
   42.7500   26.2850   34.2520 C   0  0  0  0  0  0  0  0  0  0  0  0
   42.2430   26.4740   35.2340 H   0  0  0  0  0  0  0  0  0  0  0  0
   43.5890   26.9790   34.1400 H   0  0  0  0  0  0  0  0  0  0  0  0
   42.5620   22.8450   35.1070 C   0  0  1  0  0  0  0  0  0  0  0  0
   42.3470   23.8360   33.9740 C   0  0  0  0  0  0  0  0  0  0  0  0
   43.3690   24.8980   34.3170 C   0  0  2  0  0  0  0  0  0  0  0  0
   43.8820   24.6250   35.5440 O   0  0  0  0  0  0  0  0  0  0  0  0
   42.9950   23.7840   36.2180 C   0  0  0  0  0  0  0  0  0  0  0  0
   43.4430   22.1960   34.8860 H   0  0  0  0  0  0  0  0  0  0  0  0
   42.6110   23.3150   33.0330 H   0  0  0  0  0  0  0  0  0  0  0  0
   41.3040   24.2080   33.9730 H   0  0  0  0  0  0  0  0  0  0  0  0
   44.1860   24.8500   33.5720 H   0  0  0  0  0  0  0  0  0  0  0  0
   42.1400   24.3120   36.6760 H   0  0  0  0  0  0  0  0  0  0  0  0
   43.5910   23.2130   36.9540 H   0  0  0  0  0  0  0  0  0  0  0  0
   41.3920   22.1830   35.4050 O   0  0  0  0  0  0  0  0  0  0  0  0
   39.8780   22.4440   37.0940 C   0  0  0  0  0  0  0  0  0  0  0  0
   40.1680   22.7010   35.7500 C   0  0  0  0  0  0  0  0  0  0  0  0
   39.2570   23.3950   34.9790 C   0  0  0  0  0  0  0  0  0  0  0  0
   39.5850   23.5370   33.9510 H   0  0  0  0  0  0  0  0  0  0  0  0
   38.0660   23.8390   35.5170 C   0  0  0  0  0  3  0  0  0  0  0  0
   37.7830   23.5810   36.8530 C   0  0  0  0  0  3  0  0  0  0  0  0
   38.6790   22.8820   37.6610 C   0  0  0  0  0  0  0  0  0  0  0  0
   40.7000   21.7570   37.9880 O   0  0  0  0  0  0  0  0  0  0  0  0
   40.9320   20.7910   37.8250 H   0  0  0  0  0  0  0  0  0  0  0  0
   38.3470   22.6520   38.9900 O   0  0  0  0  0  0  0  0  0  0  0  0
   38.7080   23.2890   39.7170 H   0  0  0  0  0  0  0  0  0  0  0  0
   41.5770   26.2970   32.8700 S   0  0  0  0  0  0  0  0  0  0  0  0
   37.7070   27.1120   33.2340 C   0  0  0  0  0  0  0  0  0  0  0  0
   37.5520   27.4010   34.6000 C   0  0  0  0  0  0  0  0  0  0  0  0
   38.6300   27.3590   35.4670 C   0  0  0  0  0  0  0  0  0  0  0  0
   39.8450   27.0200   34.9150 C   0  0  0  0  0  0  0  0  0  0  0  0
   39.9770   26.7430   33.5900 C   0  0  0  0  0  0  0  0  0  0  0  0
   38.9170   26.7820   32.7270 N   0  0  0  0  0  0  0  0  0  0  0  0
   36.5800   27.6640   35.0010 H   0  0  0  0  0  0  0  0  0  0  0  0
   38.5180   27.5810   36.5190 H   0  0  0  0  0  0  0  0  0  0  0  0
   40.6950   26.9810   35.5680 H   0  0  0  0  0  0  0  0  0  0  0  0
   36.5380   27.1790   32.4060 C   0  0  0  0  0  0  0  0  0  0  0  0
   35.9700   26.1490   32.0350 O   0  0  0  0  0  0  0  0  0  0  0  0
   34.7840   28.9070   32.5690 C   0  0  0  0  0  0  0  0  0  0  0  0
   35.9610   28.4600   31.9620 C   0  0  0  0  0  0  0  0  0  0  0  0
   36.5550   29.2350   30.9580 C   0  0  0  0  0  0  0  0  0  0  0  0
   35.9500   30.4160   30.6050 N   0  0  0  0  0  0  0  0  0  0  0  0
   34.8190   30.8180   31.2080 C   0  0  0  0  0  0  0  0  0  0  0  0
   34.2410   30.0820   32.1710 N   0  0  0  0  0  0  0  0  0  0  0  0
   34.3500   28.2970   33.3330 H   0  0  0  0  0  0  0  0  0  0  0  0
   37.4670   28.8840   30.4900 H   0  0  0  0  0  0  0  0  0  0  0  0
   34.3110   31.7390   30.9600 H   0  0  0  0  0  0  0  0  0  0  0  0
  1  6  1  0  0  0  0
  1  2  1  0  0  0  0
  3  1  1  0  0  0  0
  4  9  1  6  0  0  0
  4 15  1  0  0  0  0
  4  8  1  0  0  0  0
  5  6  1  0  0  0  0
  5  4  1  0  0  0  0
  6 12  1  6  0  0  0
  6  7  1  0  0  0  0
  7  8  1  0  0  0  0
  8 13  1  0  0  0  0
  8 14  1  0  0  0  0
 10  5  1  0  0  0  0
 11  5  1  0  0  0  0
 15 17  1  0  0  0  0
 16 22  1  0  0  0  0
 16 23  1  0  0  0  0
 17 16  2  0  0  0  0
 18 20  2  0  0  0  0
 18 17  1  0  0  0  0
 19 18  1  0  0  0  0
 20 21  1  0  0  0  0
 21 22  2  0  0  0  0
 22 25  1  0  0  0  0
 24 23  1  0  0  0  0
 25 26  1  0  0  0  0
 27 32  1  0  0  0  0
 27  1  1  0  0  0  0
 28 29  1  0  0  0  0
 29 34  1  0  0  0  0
 29 30  2  0  0  0  0
 30 35  1  0  0  0  0
 31 30  1  0  0  0  0
 31 36  1  0  0  0  0
 32 31  2  0  0  0  0
 33 28  2  0  0  0  0
 33 32  1  0  0  0  0
 37 28  1  0  0  0  0
 38 37  2  0  0  0  0
 39 45  1  0  0  0  0
 40 37  1  0  0  0  0
 40 39  2  0  0  0  0
 41 40  1  0  0  0  0
 42 41  2  0  0  0  0
 42 43  1  0  0  0  0
 43 44  2  0  0  0  0
 44 39  1  0  0  0  0
 46 41  1  0  0  0  0
 47 43  1  0  0  0  0
M  END
>  <minimizedAffinity>
-6.15217209

$$$$

 OpenBabel03262522173D

 47 50  0  0  1  0  0  0  0  0999 V2000
   41.7440   25.5490   32.6520 C   0  0  0  0  0  0  0  0  0  0  0  0
   41.3130   24.5700   32.9880 H   0  0  0  0  0  0  0  0  0  0  0  0
   42.8330   25.4550   32.5730 H   0  0  0  0  0  0  0  0  0  0  0  0
   39.1010   25.8890   30.3080 C   0  0  1  0  0  0  0  0  0  0  0  0
   40.0070   26.6670   31.2490 C   0  0  0  0  0  0  0  0  0  0  0  0
   41.2500   25.8040   31.2370 C   0  0  2  0  0  0  0  0  0  0  0  0
   40.9700   24.6500   30.5780 O   0  0  0  0  0  0  0  0  0  0  0  0
   39.5850   24.4730   30.5640 C   0  0  0  0  0  0  0  0  0  0  0  0
   39.3600   26.1210   29.2470 H   0  0  0  0  0  0  0  0  0  0  0  0
   40.1970   27.6500   30.7760 H   0  0  0  0  0  0  0  0  0  0  0  0
   39.5420   26.7620   32.2500 H   0  0  0  0  0  0  0  0  0  0  0  0
   42.0440   26.3440   30.6860 H   0  0  0  0  0  0  0  0  0  0  0  0
   39.1790   24.0550   31.5010 H   0  0  0  0  0  0  0  0  0  0  0  0
   39.3500   23.8520   29.6790 H   0  0  0  0  0  0  0  0  0  0  0  0
   37.7780   26.0610   30.6510 O   0  0  0  0  0  0  0  0  0  0  0  0
   36.7310   28.0880   30.5670 C   0  0  0  0  0  0  0  0  0  0  0  0
   37.1980   27.0600   31.3930 C   0  0  0  0  0  0  0  0  0  0  0  0
   37.0350   27.1610   32.7600 C   0  0  0  0  0  0  0  0  0  0  0  0
   37.4350   26.3070   33.3030 H   0  0  0  0  0  0  0  0  0  0  0  0
   36.4180   28.2610   33.3210 C   0  0  0  0  0  3  0  0  0  0  0  0
   35.9560   29.2780   32.4960 C   0  0  0  0  0  3  0  0  0  0  0  0
   36.1040   29.2110   31.1100 C   0  0  0  0  0  0  0  0  0  0  0  0
   36.8270   28.1220   29.1750 O   0  0  0  0  0  0  0  0  0  0  0  0
   37.7290   28.1350   28.7280 H   0  0  0  0  0  0  0  0  0  0  0  0
   35.6240   30.2560   30.3310 O   0  0  0  0  0  0  0  0  0  0  0  0
   34.6900   30.1740   29.8990 H   0  0  0  0  0  0  0  0  0  0  0  0
   41.1850   26.9290   33.6850 S   0  0  0  0  0  0  0  0  0  0  0  0
   38.9980   24.3020   35.7080 C   0  0  0  0  0  0  0  0  0  0  0  0
   38.1540   25.1040   36.4960 C   0  0  0  0  0  0  0  0  0  0  0  0
   38.2210   26.4850   36.4380 C   0  0  0  0  0  0  0  0  0  0  0  0
   39.1520   27.0160   35.5740 C   0  0  0  0  0  0  0  0  0  0  0  0
   39.9610   26.2260   34.8190 C   0  0  0  0  0  0  0  0  0  0  0  0
   39.9020   24.8600   34.8700 N   0  0  0  0  0  0  0  0  0  0  0  0
   37.4330   24.6520   37.1660 H   0  0  0  0  0  0  0  0  0  0  0  0
   37.5740   27.1070   37.0410 H   0  0  0  0  0  0  0  0  0  0  0  0
   39.2220   28.0850   35.5130 H   0  0  0  0  0  0  0  0  0  0  0  0
   38.8630   22.8800   35.8300 C   0  0  0  0  0  0  0  0  0  0  0  0
   39.6770   22.2250   36.4860 O   0  0  0  0  0  0  0  0  0  0  0  0
   36.7720   21.5830   36.0030 C   0  0  0  0  0  0  0  0  0  0  0  0
   37.7650   22.1360   35.1890 C   0  0  0  0  0  0  0  0  0  0  0  0
   37.6870   21.9720   33.8000 C   0  0  0  0  0  0  0  0  0  0  0  0
   36.6290   21.2650   33.2870 N   0  0  0  0  0  0  0  0  0  0  0  0
   35.6910   20.7440   34.0960 C   0  0  0  0  0  0  0  0  0  0  0  0
   35.7550   20.8960   35.4280 N   0  0  0  0  0  0  0  0  0  0  0  0
   36.8530   21.7210   37.0600 H   0  0  0  0  0  0  0  0  0  0  0  0
   38.4590   22.4030   33.1740 H   0  0  0  0  0  0  0  0  0  0  0  0
   34.8420   20.1810   33.7340 H   0  0  0  0  0  0  0  0  0  0  0  0
  1  2  1  0  0  0  0
  1 27  1  0  0  0  0
  3  1  1  0  0  0  0
  4  9  1  6  0  0  0
  4  8  1  0  0  0  0
  4 15  1  0  0  0  0
  4  5  1  0  0  0  0
  5 11  1  0  0  0  0
  6 12  1  6  0  0  0
  6  5  1  0  0  0  0
  6  1  1  0  0  0  0
  7  6  1  0  0  0  0
  8  7  1  0  0  0  0
  8 13  1  0  0  0  0
 10  5  1  0  0  0  0
 14  8  1  0  0  0  0
 15 17  1  0  0  0  0
 16 22  2  0  0  0  0
 16 17  1  0  0  0  0
 17 18  2  0  0  0  0
 18 19  1  0  0  0  0
 18 20  1  0  0  0  0
 21 20  2  0  0  0  0
 22 21  1  0  0  0  0
 23 16  1  0  0  0  0
 24 23  1  0  0  0  0
 25 22  1  0  0  0  0
 26 25  1  0  0  0  0
 27 32  1  0  0  0  0
 28 37  1  0  0  0  0
 28 29  1  0  0  0  0
 29 34  1  0  0  0  0
 30 29  2  0  0  0  0
 30 35  1  0  0  0  0
 31 30  1  0  0  0  0
 32 33  1  0  0  0  0
 32 31  2  0  0  0  0
 33 28  2  0  0  0  0
 36 31  1  0  0  0  0
 37 38  2  0  0  0  0
 39 45  1  0  0  0  0
 40 37  1  0  0  0  0
 40 39  2  0  0  0  0
 41 40  1  0  0  0  0
 42 41  2  0  0  0  0
 42 43  1  0  0  0  0
 43 44  2  0  0  0  0
 44 39  1  0  0  0  0
 46 41  1  0  0  0  0
 47 43  1  0  0  0  0
M  END
>  <minimizedAffinity>
-6.11643791

$$$$

 OpenBabel03262522173D

 47 50  0  0  1  0  0  0  0  0999 V2000
   38.0930   26.5130   31.0360 C   0  0  0  0  0  0  0  0  0  0  0  0
   38.9680   26.9340   31.5990 H   0  0  0  0  0  0  0  0  0  0  0  0
   37.7900   27.2220   30.2590 H   0  0  0  0  0  0  0  0  0  0  0  0
   38.9020   23.0580   30.9770 C   0  0  1  0  0  0  0  0  0  0  0  0
   37.7860   24.0560   30.7140 C   0  0  0  0  0  0  0  0  0  0  0  0
   38.5780   25.2760   30.2980 C   0  0  2  0  0  0  0  0  0  0  0  0
   39.8960   25.0330   30.5180 O   0  0  0  0  0  0  0  0  0  0  0  0
   40.0060   23.9910   31.4410 C   0  0  0  0  0  0  0  0  0  0  0  0
   39.2530   22.6120   30.0160 H   0  0  0  0  0  0  0  0  0  0  0  0
   37.1890   23.6580   29.8700 H   0  0  0  0  0  0  0  0  0  0  0  0
   37.1780   24.2110   31.6260 H   0  0  0  0  0  0  0  0  0  0  0  0
   38.4240   25.4390   29.2130 H   0  0  0  0  0  0  0  0  0  0  0  0
   39.8730   24.3080   32.4900 H   0  0  0  0  0  0  0  0  0  0  0  0
   40.9830   23.5040   31.2600 H   0  0  0  0  0  0  0  0  0  0  0  0
   38.5320   22.1580   31.9530 O   0  0  0  0  0  0  0  0  0  0  0  0
   36.9530   21.2460   33.3260 C   0  0  0  0  0  0  0  0  0  0  0  0
   37.4220   21.3530   32.0130 C   0  0  0  0  0  0  0  0  0  0  0  0
   36.7620   20.6870   30.9990 C   0  0  0  0  0  0  0  0  0  0  0  0
   37.2120   20.8410   30.0210 H   0  0  0  0  0  0  0  0  0  0  0  0
   35.6470   19.9170   31.2650 C   0  0  0  0  0  3  0  0  0  0  0  0
   35.1860   19.8140   32.5720 C   0  0  0  0  0  3  0  0  0  0  0  0
   35.8270   20.4730   33.6210 C   0  0  0  0  0  0  0  0  0  0  0  0
   37.5160   21.8600   34.4450 O   0  0  0  0  0  0  0  0  0  0  0  0
   38.4540   21.6310   34.7320 H   0  0  0  0  0  0  0  0  0  0  0  0
   35.3250   20.3360   34.9080 O   0  0  0  0  0  0  0  0  0  0  0  0
   34.6940   21.0620   35.2820 H   0  0  0  0  0  0  0  0  0  0  0  0
   36.7560   25.9990   32.1460 S   0  0  0  0  0  0  0  0  0  0  0  0
   38.2260   25.1120   35.7280 C   0  0  0  0  0  0  0  0  0  0  0  0
   38.4130   26.3660   36.3340 C   0  0  0  0  0  0  0  0  0  0  0  0
   38.0940   27.5360   35.6680 C   0  0  0  0  0  0  0  0  0  0  0  0
   37.5920   27.3980   34.3940 C   0  0  0  0  0  0  0  0  0  0  0  0
   37.4170   26.1760   33.8220 C   0  0  0  0  0  0  0  0  0  0  0  0
   37.7290   25.0140   34.4730 N   0  0  0  0  0  0  0  0  0  0  0  0
   38.8120   26.4390   37.3390 H   0  0  0  0  0  0  0  0  0  0  0  0
   38.2360   28.5050   36.1290 H   0  0  0  0  0  0  0  0  0  0  0  0
   37.3380   28.2920   33.8590 H   0  0  0  0  0  0  0  0  0  0  0  0
   38.5810   23.9490   36.4880 C   0  0  0  0  0  0  0  0  0  0  0  0
   37.7480   23.3850   37.2000 O   0  0  0  0  0  0  0  0  0  0  0  0
   40.2670   22.3960   37.4020 C   0  0  0  0  0  0  0  0  0  0  0  0
   39.9380   23.3760   36.4610 C   0  0  0  0  0  0  0  0  0  0  0  0
   40.8990   23.7820   35.5250 C   0  0  0  0  0  0  0  0  0  0  0  0
   42.1390   23.1950   35.5720 N   0  0  0  0  0  0  0  0  0  0  0  0
   42.4240   22.2570   36.4890 C   0  0  0  0  0  0  0  0  0  0  0  0
   41.5110   21.8610   37.3900 N   0  0  0  0  0  0  0  0  0  0  0  0
   39.5170   22.1040   38.1060 H   0  0  0  0  0  0  0  0  0  0  0  0
   40.6390   24.5420   34.7980 H   0  0  0  0  0  0  0  0  0  0  0  0
   43.3870   21.7700   36.5610 H   0  0  0  0  0  0  0  0  0  0  0  0
  1  2  1  0  0  0  0
  1 27  1  0  0  0  0
  3  1  1  0  0  0  0
  4  9  1  6  0  0  0
  4  8  1  0  0  0  0
  4 15  1  0  0  0  0
  5  4  1  0  0  0  0
  5 11  1  0  0  0  0
  6 12  1  6  0  0  0
  6  7  1  0  0  0  0
  6  5  1  0  0  0  0
  6  1  1  0  0  0  0
  7  8  1  0  0  0  0
  8 13  1  0  0  0  0
 10  5  1  0  0  0  0
 14  8  1  0  0  0  0
 15 17  1  0  0  0  0
 16 22  1  0  0  0  0
 16 23  1  0  0  0  0
 17 16  2  0  0  0  0
 18 20  2  0  0  0  0
 18 17  1  0  0  0  0
 19 18  1  0  0  0  0
 20 21  1  0  0  0  0
 21 22  2  0  0  0  0
 22 25  1  0  0  0  0
 23 24  1  0  0  0  0
 25 26  1  0  0  0  0
 27 32  1  0  0  0  0
 28 29  1  0  0  0  0
 28 37  1  0  0  0  0
 29 34  1  0  0  0  0
 30 35  1  0  0  0  0
 30 29  2  0  0  0  0
 31 30  1  0  0  0  0
 32 31  2  0  0  0  0
 32 33  1  0  0  0  0
 33 28  2  0  0  0  0
 36 31  1  0  0  0  0
 37 38  2  0  0  0  0
 39 45  1  0  0  0  0
 40 37  1  0  0  0  0
 40 39  2  0  0  0  0
 41 42  2  0  0  0  0
 41 40  1  0  0  0  0
 42 43  1  0  0  0  0
 43 47  1  0  0  0  0
 43 44  2  0  0  0  0
 44 39  1  0  0  0  0
 46 41  1  0  0  0  0
M  END
>  <minimizedAffinity>
-6.10659552

$$$$

 OpenBabel03262522173D

 47 50  0  0  1  0  0  0  0  0999 V2000
   35.3540   30.0460   31.9290 C   0  0  0  0  0  0  0  0  0  0  0  0
   34.4290   30.4270   31.4230 H   0  0  0  0  0  0  0  0  0  0  0  0
   36.2340   30.4920   31.4540 H   0  0  0  0  0  0  0  0  0  0  0  0
   33.6050   31.0150   34.8610 C   0  0  1  0  0  0  0  0  0  0  0  0
   34.3100   29.8480   34.1890 C   0  0  0  0  0  0  0  0  0  0  0  0
   35.3430   30.5730   33.3550 C   0  0  2  0  0  0  0  0  0  0  0  0
   35.0840   31.9050   33.4050 O   0  0  0  0  0  0  0  0  0  0  0  0
   33.7540   32.0830   33.7930 C   0  0  0  0  0  0  0  0  0  0  0  0
   34.1970   31.3660   35.7400 H   0  0  0  0  0  0  0  0  0  0  0  0
   34.7880   29.2520   34.9910 H   0  0  0  0  0  0  0  0  0  0  0  0
   33.5940   29.2520   33.5890 H   0  0  0  0  0  0  0  0  0  0  0  0
   36.3410   30.3890   33.7980 H   0  0  0  0  0  0  0  0  0  0  0  0
   33.0290   31.9570   32.9710 H   0  0  0  0  0  0  0  0  0  0  0  0
   33.6910   33.0770   34.2730 H   0  0  0  0  0  0  0  0  0  0  0  0
   32.2860   30.7070   35.1140 O   0  0  0  0  0  0  0  0  0  0  0  0
   31.8220   29.4670   36.9740 C   0  0  0  0  0  0  0  0  0  0  0  0
   31.7440   29.5350   35.5790 C   0  0  0  0  0  0  0  0  0  0  0  0
   31.1720   28.4910   34.8800 C   0  0  0  0  0  0  0  0  0  0  0  0
   31.1640   28.6500   33.8030 H   0  0  0  0  0  0  0  0  0  0  0  0
   30.6760   27.3830   35.5380 C   0  0  0  0  0  3  0  0  0  0  0  0
   30.7570   27.3210   36.9240 C   0  0  0  0  0  3  0  0  0  0  0  0
   31.3290   28.3570   37.6640 C   0  0  0  0  0  0  0  0  0  0  0  0
   32.3710   30.4430   37.8080 O   0  0  0  0  0  0  0  0  0  0  0  0
   33.3470   30.6800   37.7370 H   0  0  0  0  0  0  0  0  0  0  0  0
   31.3840   28.2450   39.0470 O   0  0  0  0  0  0  0  0  0  0  0  0
   30.6500   28.6920   39.6180 H   0  0  0  0  0  0  0  0  0  0  0  0
   35.3850   28.2360   32.0140 S   0  0  0  0  0  0  0  0  0  0  0  0
   38.8770   26.9040   33.3600 C   0  0  0  0  0  0  0  0  0  0  0  0
   39.7450   27.0750   32.2680 C   0  0  0  0  0  0  0  0  0  0  0  0
   39.2940   27.6080   31.0730 C   0  0  0  0  0  0  0  0  0  0  0  0
   37.9620   27.9530   31.0210 C   0  0  0  0  0  0  0  0  0  0  0  0
   37.1360   27.7800   32.0880 C   0  0  0  0  0  0  0  0  0  0  0  0
   37.5730   27.2550   33.2730 N   0  0  0  0  0  0  0  0  0  0  0  0
   40.7880   26.7920   32.3430 H   0  0  0  0  0  0  0  0  0  0  0  0
   39.9570   27.7420   30.2290 H   0  0  0  0  0  0  0  0  0  0  0  0
   37.5900   28.3670   30.1040 H   0  0  0  0  0  0  0  0  0  0  0  0
   39.4260   26.3460   34.5610 C   0  0  0  0  0  0  0  0  0  0  0  0
   40.4360   26.8310   35.0750 O   0  0  0  0  0  0  0  0  0  0  0  0
   38.1840   25.3790   36.4610 C   0  0  0  0  0  0  0  0  0  0  0  0
   38.8240   25.1820   35.2340 C   0  0  0  0  0  0  0  0  0  0  0  0
   38.8730   23.8950   34.6830 C   0  0  0  0  0  0  0  0  0  0  0  0
   38.2860   22.8670   35.3780 N   0  0  0  0  0  0  0  0  0  0  0  0
   37.6790   23.0900   36.5560 C   0  0  0  0  0  0  0  0  0  0  0  0
   37.6260   24.3190   37.0930 N   0  0  0  0  0  0  0  0  0  0  0  0
   38.1600   26.3710   36.8610 H   0  0  0  0  0  0  0  0  0  0  0  0
   39.3700   23.7470   33.7320 H   0  0  0  0  0  0  0  0  0  0  0  0
   37.2050   22.3100   37.1350 H   0  0  0  0  0  0  0  0  0  0  0  0
  1 27  1  0  0  0  0
  1  6  1  0  0  0  0
  2  1  1  0  0  0  0
  3  1  1  0  0  0  0
  4 15  1  0  0  0  0
  4  9  1  1  0  0  0
  5  4  1  0  0  0  0
  5 10  1  0  0  0  0
  6  7  1  0  0  0  0
  6 12  1  1  0  0  0
  6  5  1  0  0  0  0
  7  8  1  0  0  0  0
  8 14  1  0  0  0  0
  8  4  1  0  0  0  0
 11  5  1  0  0  0  0
 13  8  1  0  0  0  0
 15 17  1  0  0  0  0
 16 22  1  0  0  0  0
 16 23  1  0  0  0  0
 17 16  2  0  0  0  0
 18 20  2  0  0  0  0
 18 17  1  0  0  0  0
 19 18  1  0  0  0  0
 20 21  1  0  0  0  0
 21 22  2  0  0  0  0
 22 25  1  0  0  0  0
 24 23  1  0  0  0  0
 25 26  1  0  0  0  0
 27 32  1  0  0  0  0
 28 37  1  0  0  0  0
 29 34  1  0  0  0  0
 29 28  2  0  0  0  0
 30 29  1  0  0  0  0
 31 30  2  0  0  0  0
 31 32  1  0  0  0  0
 32 33  2  0  0  0  0
 33 28  1  0  0  0  0
 35 30  1  0  0  0  0
 36 31  1  0  0  0  0
 37 38  2  0  0  0  0
 37 40  1  0  0  0  0
 39 45  1  0  0  0  0
 39 44  1  0  0  0  0
 40 39  2  0  0  0  0
 41 40  1  0  0  0  0
 41 42  2  0  0  0  0
 42 43  1  0  0  0  0
 43 44  2  0  0  0  0
 43 47  1  0  0  0  0
 46 41  1  0  0  0  0
M  END
>  <minimizedAffinity>
-6.09580517

$$$$

 OpenBabel03262522173D

 47 50  0  0  1  0  0  0  0  0999 V2000
   35.8690   26.8960   31.6680 C   0  0  0  0  0  0  0  0  0  0  0  0
   35.3530   26.4040   32.5330 H   0  0  0  0  0  0  0  0  0  0  0  0
   35.1400   27.0780   30.8710 H   0  0  0  0  0  0  0  0  0  0  0  0
   35.4160   29.8100   33.6430 C   0  0  1  0  0  0  0  0  0  0  0  0
   36.0870   28.4460   33.6130 C   0  0  0  0  0  0  0  0  0  0  0  0
   36.3260   28.2700   32.1300 C   0  0  2  0  0  0  0  0  0  0  0  0
   35.6900   29.2700   31.4670 O   0  0  0  0  0  0  0  0  0  0  0  0
   34.7040   29.7980   32.3030 C   0  0  0  0  0  0  0  0  0  0  0  0
   36.1850   30.6170   33.5810 H   0  0  0  0  0  0  0  0  0  0  0  0
   37.0430   28.5430   34.1650 H   0  0  0  0  0  0  0  0  0  0  0  0
   35.4230   27.6740   34.0500 H   0  0  0  0  0  0  0  0  0  0  0  0
   37.4140   28.3540   31.9390 H   0  0  0  0  0  0  0  0  0  0  0  0
   33.7740   29.2030   32.3280 H   0  0  0  0  0  0  0  0  0  0  0  0
   34.5350   30.8420   31.9800 H   0  0  0  0  0  0  0  0  0  0  0  0
   34.5400   29.9000   34.7020 O   0  0  0  0  0  0  0  0  0  0  0  0
   32.9760   31.1600   35.7890 C   0  0  0  0  0  0  0  0  0  0  0  0
   34.3410   30.9410   35.5750 C   0  0  0  0  0  0  0  0  0  0  0  0
   35.2660   31.7380   36.2200 C   0  0  0  0  0  0  0  0  0  0  0  0
   36.2960   31.4790   35.9810 H   0  0  0  0  0  0  0  0  0  0  0  0
   34.8620   32.7460   37.0710 C   0  0  0  0  0  3  0  0  0  0  0  0
   33.5050   32.9600   37.2790 C   0  0  0  0  0  3  0  0  0  0  0  0
   32.5420   32.1750   36.6450 C   0  0  0  0  0  0  0  0  0  0  0  0
   31.9340   30.4360   35.2070 O   0  0  0  0  0  0  0  0  0  0  0  0
   31.8070   30.4420   34.2080 H   0  0  0  0  0  0  0  0  0  0  0  0
   31.1980   32.4300   36.8880 O   0  0  0  0  0  0  0  0  0  0  0  0
   30.7010   31.8710   37.5990 H   0  0  0  0  0  0  0  0  0  0  0  0
   37.3400   25.9770   31.1420 S   0  0  0  0  0  0  0  0  0  0  0  0
   38.0590   22.7940   33.4060 C   0  0  0  0  0  0  0  0  0  0  0  0
   37.0240   21.9040   33.0720 C   0  0  0  0  0  0  0  0  0  0  0  0
   36.0630   22.2440   32.1360 C   0  0  0  0  0  0  0  0  0  0  0  0
   36.1810   23.4900   31.5620 C   0  0  0  0  0  0  0  0  0  0  0  0
   37.1890   24.3390   31.8980 C   0  0  0  0  0  0  0  0  0  0  0  0
   38.1430   24.0110   32.8220 N   0  0  0  0  0  0  0  0  0  0  0  0
   36.9600   20.9300   33.5430 H   0  0  0  0  0  0  0  0  0  0  0  0
   35.2640   21.5630   31.8730 H   0  0  0  0  0  0  0  0  0  0  0  0
   35.4470   23.7750   30.8340 H   0  0  0  0  0  0  0  0  0  0  0  0
   39.0130   22.3620   34.3860 C   0  0  0  0  0  0  0  0  0  0  0  0
   39.9800   21.6730   34.0590 O   0  0  0  0  0  0  0  0  0  0  0  0
   39.9860   22.4900   36.6490 C   0  0  0  0  0  0  0  0  0  0  0  0
   38.8900   22.7140   35.8120 C   0  0  0  0  0  0  0  0  0  0  0  0
   37.7160   23.2620   36.3450 C   0  0  0  0  0  0  0  0  0  0  0  0
   37.6890   23.5600   37.6850 N   0  0  0  0  0  0  0  0  0  0  0  0
   38.7590   23.3320   38.4640 C   0  0  0  0  0  0  0  0  0  0  0  0
   39.8890   22.8080   37.9630 N   0  0  0  0  0  0  0  0  0  0  0  0
   40.8710   22.0710   36.2180 H   0  0  0  0  0  0  0  0  0  0  0  0
   36.8690   23.4330   35.6910 H   0  0  0  0  0  0  0  0  0  0  0  0
   38.7800   23.5520   39.5220 H   0  0  0  0  0  0  0  0  0  0  0  0
  1  6  1  0  0  0  0
  1  2  1  0  0  0  0
  3  1  1  0  0  0  0
  4  9  1  1  0  0  0
  4 15  1  0  0  0  0
  5  4  1  0  0  0  0
  5 11  1  0  0  0  0
  5 10  1  0  0  0  0
  6 12  1  6  0  0  0
  6  5  1  0  0  0  0
  7  6  1  0  0  0  0
  7  8  1  0  0  0  0
  8 13  1  0  0  0  0
  8  4  1  0  0  0  0
 14  8  1  0  0  0  0
 15 17  1  0  0  0  0
 16 22  1  0  0  0  0
 17 16  2  0  0  0  0
 17 18  1  0  0  0  0
 18 20  2  0  0  0  0
 19 18  1  0  0  0  0
 20 21  1  0  0  0  0
 22 25  1  0  0  0  0
 22 21  2  0  0  0  0
 23 16  1  0  0  0  0
 24 23  1  0  0  0  0
 25 26  1  0  0  0  0
 27  1  1  0  0  0  0
 27 32  1  0  0  0  0
 28 37  1  0  0  0  0
 29 28  1  0  0  0  0
 29 34  1  0  0  0  0
 30 29  2  0  0  0  0
 31 32  2  0  0  0  0
 31 30  1  0  0  0  0
 32 33  1  0  0  0  0
 33 28  2  0  0  0  0
 35 30  1  0  0  0  0
 36 31  1  0  0  0  0
 37 40  1  0  0  0  0
 38 37  2  0  0  0  0
 39 44  1  0  0  0  0
 40 41  1  0  0  0  0
 40 39  2  0  0  0  0
 41 42  2  0  0  0  0
 42 43  1  0  0  0  0
 43 47  1  0  0  0  0
 44 43  2  0  0  0  0
 45 39  1  0  0  0  0
 46 41  1  0  0  0  0
M  END
>  <minimizedAffinity>
-6.0726285

$$$$
