
     RDKit          3D

 49 52  0  0  0  0  0  0  0  0999 V2000
   37.7644   31.7428   47.6562 C   0  0  0  0  0  0  0  0  0  0  0  0
   37.9251   32.5353   48.8056 C   0  0  0  0  0  0  0  0  0  0  0  0
   38.9302   33.4828   48.8865 C   0  0  0  0  0  0  0  0  0  0  0  0
   39.7507   33.5992   47.7870 C   0  0  0  0  0  0  0  0  0  0  0  0
   39.5810   32.8237   46.6820 C   0  0  0  0  0  0  0  0  0  0  0  0
   38.5902   31.8848   46.5938 N   0  0  0  0  0  0  0  0  0  0  0  0
   36.6971   30.7851   47.6561 C   0  0  0  0  0  0  0  0  0  0  0  0
   36.2036   30.3940   46.5962 O   0  0  0  0  0  0  0  0  0  0  0  0
   37.0197   29.6385   49.8168 C   0  0  0  0  0  0  0  0  0  0  0  0
   36.1423   30.2262   48.9013 C   0  0  0  0  0  0  0  0  0  0  0  0
   34.7720   30.2676   49.1898 C   0  0  0  0  0  0  0  0  0  0  0  0
   34.3407   29.7231   50.3736 N   0  0  0  0  0  0  0  0  0  0  0  0
   35.2097   29.1650   51.2333 C   0  0  0  0  0  0  0  0  0  0  0  0
   36.5251   29.1202   50.9664 N   0  0  0  0  0  0  0  0  0  0  0  0
   40.6625   32.9803   45.2387 S   0  0  0  0  0  0  0  0  0  0  0  0
   39.5657   32.9256   43.7974 C   0  0  0  0  0  0  0  0  0  0  0  0
   38.7715   29.7885   42.3420 C   0  0  1  0  0  0  0  0  0  0  0  0
   38.8107   31.2840   42.0737 C   0  0  0  0  0  0  0  0  0  0  0  0
   39.9527   31.7108   42.9697 C   0  0  2  0  0  0  0  0  0  0  0  0
   40.3121   30.6567   43.7469 O   0  0  0  0  0  0  0  0  0  0  0  0
   39.2500   29.7506   43.7817 C   0  0  0  0  0  0  0  0  0  0  0  0
   37.4910   29.3002   42.2022 O   0  0  0  0  0  0  0  0  0  0  0  0
   37.2606   32.4171   49.6535 H   0  0  0  0  0  0  0  0  0  0  0  0
   39.0592   34.0957   49.7681 H   0  0  0  0  0  0  0  0  0  0  0  0
   40.5366   34.3271   47.8272 H   0  0  0  0  0  0  0  0  0  0  0  0
   38.0611   29.6195   49.5732 H   0  0  0  0  0  0  0  0  0  0  0  0
   34.0965   30.7242   48.4769 H   0  0  0  0  0  0  0  0  0  0  0  0
   34.9135   28.7253   52.1751 H   0  0  0  0  0  0  0  0  0  0  0  0
   39.6857   33.8298   43.1439 H   0  0  0  0  0  0  0  0  0  0  0  0
   38.5064   32.7952   44.0392 H   0  0  0  0  0  0  0  0  0  0  0  0
   39.5564   29.2701   41.7389 H   0  0  0  0  0  0  0  0  0  0  0  0
   39.0694   31.4148   41.0046 H   0  0  0  0  0  0  0  0  0  0  0  0
   37.8424   31.7527   42.3362 H   0  0  0  0  0  0  0  0  0  0  0  0
   40.8129   31.9889   42.3296 H   0  0  0  0  0  0  0  0  0  0  0  0
   38.4526   30.0252   44.4949 H   0  0  0  0  0  0  0  0  0  0  0  0
   39.6849   28.7554   43.9874 H   0  0  0  0  0  0  0  0  0  0  0  0
   36.9150   27.0476   43.5899 O   0  0  0  0  0  0  0  0  0  0  0  0
   36.7630   27.1358   42.2056 C   0  0  0  0  0  0  0  0  0  0  0  0
   37.0398   28.2628   41.4239 C   0  0  0  0  0  0  0  0  0  0  0  0
   36.8420   28.2075   40.0588 C   0  0  0  0  0  0  0  0  0  0  0  0
   37.0889   29.1384   39.5521 H   0  0  0  0  0  0  0  0  0  0  0  0
   36.3757   27.0572   39.4554 C   0  0  0  0  0  0  0  0  0  0  0  0
   36.1026   25.9409   40.2367 C   0  0  0  0  0  0  0  0  0  0  0  0
   36.2902   25.9594   41.6192 C   0  0  0  0  0  0  0  0  0  0  0  0
   36.0018   24.8163   42.3534 O   0  0  0  0  0  0  0  0  0  0  0  0
   37.8259   27.1473   44.0084 H   0  0  0  0  0  0  0  0  0  0  0  0
   36.2430   27.0818   38.3813 H   0  0  0  0  0  0  0  0  0  0  0  0
   35.7348   25.0589   39.6966 H   0  0  0  0  0  0  0  0  0  0  0  0
   35.0836   24.7346   42.8164 H   0  0  0  0  0  0  0  0  0  0  0  0
  1  2  2  0
  2  3  1  0
  4  3  2  0
  5  4  1  0
  6  5  2  0
  6  1  1  0
  7  1  1  0
  7 10  1  0
  8  7  2  0
  9 14  2  0
 10 11  2  0
 10  9  1  0
 11 12  1  0
 12 13  2  0
 14 13  1  0
 15  5  1  0
 16 15  1  0
 17 22  1  0
 17 21  1  0
 18 17  1  0
 18 19  1  0
 19 20  1  0
 19 16  1  0
 20 21  1  0
  2 23  1  0
  3 24  1  0
  4 25  1  0
  9 26  1  0
 11 27  1  0
 13 28  1  0
 16 29  1  0
 16 30  1  0
 17 31  1  6
 18 32  1  0
 18 33  1  0
 19 34  1  6
 21 35  1  0
 21 36  1  0
 37 38  1  0
 38 39  2  0
 39 40  1  0
 40 41  1  0
 40 42  2  0
 42 43  1  0
 43 44  2  0
 44 45  1  0
 44 38  1  0
 37 46  1  0
 42 47  1  0
 43 48  1  0
 45 49  1  0
 22 39  1  0
M  ISO  8  23  14  24  14  25  14  26  14  27  14  28  14  29   8  30   8
M  ISO  7  31  13  32  13  33  13  34  13  35  13  36  13  41  16
M  END
>  <DihAtoms>  (1) 
16,21,38,37

>  <DihDeg>  (1) 
179.99874830278526

$$$$
