
 OpenBabel03272503423D

 43 46  0  0  1  0  0  0  0  0999 V2000
   39.8090   30.8530   41.7850 C   0  0  2  0  0  0  0  0  0  0  0  0
   39.8270   32.0720   42.7340 C   0  0  1  0  0  0  0  0  0  0  0  0
   38.7500   32.8890   42.0970 C   0  0  0  0  0  0  0  0  0  0  0  0
   38.8410   32.6980   40.7400 O   0  0  0  0  0  0  0  0  0  0  0  0
   39.6700   31.6520   40.4740 C   0  0  0  0  0  0  0  0  0  0  0  0
   40.7490   30.3120   41.8210 H   0  0  0  0  0  0  0  0  0  0  0  0
   40.7870   32.6020   42.6920 H   0  0  0  0  0  0  0  0  0  0  0  0
   38.7220   33.9470   42.4010 H   0  0  0  0  0  0  0  0  0  0  0  0
   37.7500   32.4720   42.4140 H   0  0  0  0  0  0  0  0  0  0  0  0
   40.6900   32.0650   40.2920 H   0  0  0  0  0  0  0  0  0  0  0  0
   39.3440   31.0070   39.6420 H   0  0  0  0  0  0  0  0  0  0  0  0
   38.4910   31.1140   45.9250 C   0  0  0  0  0  0  0  0  0  0  0  0
   39.8210   31.0250   46.1980 C   0  0  0  0  0  0  0  0  0  0  0  0
   40.4560   31.3830   45.0010 C   0  0  0  0  0  0  0  0  0  0  0  0
   39.5270   31.6670   44.0780 N   0  0  0  0  0  0  0  0  0  0  0  0
   38.3110   31.5040   44.6380 N   0  0  0  0  0  0  0  0  0  0  0  0
   40.3300   30.7410   47.1300 H   0  0  0  0  0  0  0  0  0  0  0  0
   41.5510   31.4030   44.9150 H   0  0  0  0  0  0  0  0  0  0  0  0
   36.5200   30.6460   49.0840 C   0  0  0  0  0  0  0  0  0  0  0  0
   37.5760   30.9230   48.2280 C   0  0  0  0  0  0  0  0  0  0  0  0
   37.4190   30.8350   46.8650 C   0  0  0  0  0  0  0  0  0  0  0  0
   36.2050   30.4730   46.4030 N   0  0  0  0  0  0  0  0  0  0  0  0
   35.1730   30.2040   47.2540 C   0  0  0  0  0  0  0  0  0  0  0  0
   35.3130   30.2840   48.5650 N   0  0  0  0  0  0  0  0  0  0  0  0
   38.5640   31.2160   48.5680 H   0  0  0  0  0  0  0  0  0  0  0  0
   34.1890   29.9110   46.8920 H   0  0  0  0  0  0  0  0  0  0  0  0
   36.8410   30.7790   50.4250 O   0  0  0  0  0  0  0  0  0  0  0  0
   36.8800   29.6920   51.3330 C   0  0  0  0  0  0  0  0  0  0  0  0
   35.6090   29.2430   51.6310 F   0  0  0  0  0  0  0  0  0  0  0  0
   37.5430   30.0900   52.4650 F   0  0  0  0  0  0  0  0  0  0  0  0
   37.6080   28.6700   50.7540 F   0  0  0  0  0  0  0  0  0  0  0  0
   38.6390   30.1960   42.0370 O   0  0  0  0  0  0  0  0  0  0  0  0
   37.2290   28.1080   41.9690 C   0  0  0  0  0  0  0  0  0  0  0  0
   38.3590   28.8680   42.1890 C   0  0  0  0  0  0  0  0  0  0  0  0
   39.4920   28.1960   42.6690 C   0  0  0  0  0  0  0  0  0  0  0  0
   40.4740   28.6310   42.9020 H   0  0  0  0  0  0  0  0  0  0  0  0
   39.4770   26.8240   42.9130 C   0  0  0  0  0  3  0  0  0  0  0  0
   38.3330   26.0860   42.6860 C   0  0  0  0  0  3  0  0  0  0  0  0
   37.2350   26.7510   42.2180 C   0  0  0  0  0  0  0  0  0  0  0  0
   36.1720   28.8600   41.4990 O   0  0  0  0  0  0  0  0  0  0  0  0
   35.1940   28.6630   41.6840 H   0  0  0  0  0  0  0  0  0  0  0  0
   35.9840   26.1740   41.9260 O   0  0  0  0  0  0  0  0  0  0  0  0
   35.8950   25.1880   41.6630 H   0  0  0  0  0  0  0  0  0  0  0  0
  1  6  1  1  0  0  0
  1 32  1  0  0  0  0
  1  2  1  0  0  0  0
  2  7  1  6  0  0  0
  2 15  1  0  0  0  0
  3  8  1  0  0  0  0
  3  9  1  0  0  0  0
  3  2  1  0  0  0  0
  4  3  1  0  0  0  0
  5  4  1  0  0  0  0
  5  1  1  0  0  0  0
 10  5  1  0  0  0  0
 11  5  1  0  0  0  0
 12 13  1  0  0  0  0
 12 21  1  0  0  0  0
 13 17  1  0  0  0  0
 14 13  2  0  0  0  0
 15 16  1  0  0  0  0
 15 14  1  0  0  0  0
 16 12  2  0  0  0  0
 18 14  1  0  0  0  0
 19 27  1  0  0  0  0
 20 25  1  0  0  0  0
 20 19  2  0  0  0  0
 21 20  1  0  0  0  0
 22 21  2  0  0  0  0
 22 23  1  0  0  0  0
 23 24  2  0  0  0  0
 24 19  1  0  0  0  0
 26 23  1  0  0  0  0
 27 28  1  0  0  0  0
 28 29  1  0  0  0  0
 28 30  1  0  0  0  0
 31 28  1  0  0  0  0
 32 34  1  0  0  0  0
 33 34  2  0  0  0  0
 33 39  1  0  0  0  0
 34 35  1  0  0  0  0
 35 36  1  0  0  0  0
 35 37  2  0  0  0  0
 38 37  1  0  0  0  0
 39 38  2  0  0  0  0
 40 41  1  0  0  0  0
 40 33  1  0  0  0  0
 42 39  1  0  0  0  0
 43 42  1  0  0  0  0
M  END
>  <minimizedAffinity>
-6.30935764

>  <minimizedRMSD>
0.352754086

$$$$
