
 OpenBabel03272503413D

 43 46  0  0  1  0  0  0  0  0999 V2000
   39.9750   30.9540   41.7340 C   0  0  2  0  0  0  0  0  0  0  0  0
   39.8470   32.1600   42.6890 C   0  0  1  0  0  0  0  0  0  0  0  0
   38.7370   32.8920   42.0050 C   0  0  0  0  0  0  0  0  0  0  0  0
   38.9070   32.7210   40.6530 O   0  0  0  0  0  0  0  0  0  0  0  0
   39.8320   31.7500   40.4220 C   0  0  0  0  0  0  0  0  0  0  0  0
   40.9540   30.4920   41.8120 H   0  0  0  0  0  0  0  0  0  0  0  0
   40.7600   32.7690   42.6960 H   0  0  0  0  0  0  0  0  0  0  0  0
   38.6070   33.9400   42.3130 H   0  0  0  0  0  0  0  0  0  0  0  0
   37.7610   32.3900   42.2710 H   0  0  0  0  0  0  0  0  0  0  0  0
   40.8220   32.2470   40.2910 H   0  0  0  0  0  0  0  0  0  0  0  0
   39.6000   31.0870   39.5720 H   0  0  0  0  0  0  0  0  0  0  0  0
   38.4420   31.1110   45.8210 C   0  0  0  0  0  0  0  0  0  0  0  0
   39.7660   31.0300   46.1250 C   0  0  0  0  0  0  0  0  0  0  0  0
   40.4260   31.4240   44.9530 C   0  0  0  0  0  0  0  0  0  0  0  0
   39.5180   31.7200   44.0150 N   0  0  0  0  0  0  0  0  0  0  0  0
   38.2900   31.5310   44.5400 N   0  0  0  0  0  0  0  0  0  0  0  0
   40.2560   30.7290   47.0630 H   0  0  0  0  0  0  0  0  0  0  0  0
   41.5230   31.4580   44.8960 H   0  0  0  0  0  0  0  0  0  0  0  0
   36.3750   30.6180   48.9150 C   0  0  0  0  0  0  0  0  0  0  0  0
   37.4480   30.9310   48.0920 C   0  0  0  0  0  0  0  0  0  0  0  0
   37.3500   30.7980   46.7270 C   0  0  0  0  0  0  0  0  0  0  0  0
   36.1780   30.3570   46.2290 N   0  0  0  0  0  0  0  0  0  0  0  0
   35.1290   30.0540   47.0480 C   0  0  0  0  0  0  0  0  0  0  0  0
   35.2120   30.1760   48.3600 N   0  0  0  0  0  0  0  0  0  0  0  0
   38.4040   31.2880   48.4620 H   0  0  0  0  0  0  0  0  0  0  0  0
   34.1770   29.6960   46.6570 H   0  0  0  0  0  0  0  0  0  0  0  0
   36.6350   30.8050   50.2630 O   0  0  0  0  0  0  0  0  0  0  0  0
   36.7690   29.7420   51.1890 C   0  0  0  0  0  0  0  0  0  0  0  0
   35.5350   29.2600   51.5790 F   0  0  0  0  0  0  0  0  0  0  0  0
   37.4890   30.1880   52.2670 F   0  0  0  0  0  0  0  0  0  0  0  0
   37.4920   28.7300   50.5870 F   0  0  0  0  0  0  0  0  0  0  0  0
   38.8530   30.2000   41.9260 O   0  0  0  0  0  0  0  0  0  0  0  0
   37.7660   28.0630   42.7050 C   0  0  0  0  0  0  0  0  0  0  0  0
   38.6740   28.8490   42.0260 C   0  0  0  0  0  0  0  0  0  0  0  0
   39.6400   28.1840   41.2580 C   0  0  0  0  0  0  0  0  0  0  0  0
   40.4370   28.6380   40.6530 H   0  0  0  0  0  0  0  0  0  0  0  0
   39.6820   26.7920   41.1850 C   0  0  0  0  0  3  0  0  0  0  0  0
   38.7620   26.0290   41.8750 C   0  0  0  0  0  3  0  0  0  0  0  0
   37.8250   26.6880   42.6200 C   0  0  0  0  0  0  0  0  0  0  0  0
   36.8600   28.8100   43.4290 O   0  0  0  0  0  0  0  0  0  0  0  0
   36.4300   28.5150   44.2990 H   0  0  0  0  0  0  0  0  0  0  0  0
   36.8110   26.0850   43.3880 O   0  0  0  0  0  0  0  0  0  0  0  0
   36.4390   25.1580   43.1560 H   0  0  0  0  0  0  0  0  0  0  0  0
  1  6  1  1  0  0  0
  1 32  1  0  0  0  0
  1  2  1  0  0  0  0
  2  7  1  1  0  0  0
  2 15  1  0  0  0  0
  3  9  1  0  0  0  0
  3  8  1  0  0  0  0
  3  2  1  0  0  0  0
  4  3  1  0  0  0  0
  5  4  1  0  0  0  0
  5  1  1  0  0  0  0
 10  5  1  0  0  0  0
 11  5  1  0  0  0  0
 12 13  1  0  0  0  0
 12 21  1  0  0  0  0
 13 17  1  0  0  0  0
 14 13  2  0  0  0  0
 15 16  1  0  0  0  0
 15 14  1  0  0  0  0
 16 12  2  0  0  0  0
 18 14  1  0  0  0  0
 19 27  1  0  0  0  0
 20 25  1  0  0  0  0
 20 19  2  0  0  0  0
 21 20  1  0  0  0  0
 22 21  2  0  0  0  0
 22 23  1  0  0  0  0
 23 24  2  0  0  0  0
 24 19  1  0  0  0  0
 26 23  1  0  0  0  0
 27 28  1  0  0  0  0
 28 29  1  0  0  0  0
 28 30  1  0  0  0  0
 31 28  1  0  0  0  0
 32 34  1  0  0  0  0
 33 40  1  0  0  0  0
 34 33  2  0  0  0  0
 35 34  1  0  0  0  0
 36 35  1  0  0  0  0
 37 35  2  0  0  0  0
 37 38  1  0  0  0  0
 38 39  2  0  0  0  0
 39 33  1  0  0  0  0
 39 42  1  0  0  0  0
 40 41  1  0  0  0  0
 43 42  1  0  0  0  0
M  END
>  <minimizedAffinity>
-6.10404539

>  <minimizedRMSD>
0.603945434

$$$$
