REMARK  Name = 
REMARK  10 active torsions:
REMARK  status: ('A' for Active; 'I' for Inactive)
REMARK    1  A    between atoms: P_2  and  O_3
REMARK    2  A    between atoms: P_2  and  O_4
REMARK    3  A    between atoms: P_2  and  O_11
REMARK    4  A    between atoms: O_4  and  C_5
REMARK    5  A    between atoms: O_11  and  C_13
REMARK    6  A    between atoms: C_12  and  O_17
REMARK    7  A    between atoms: C_16  and  O_18
REMARK    8  A    between atoms: O_18  and  C_31
REMARK    9  A    between atoms: O_29  and  C_30
REMARK   10  A    between atoms: C_36  and  O_37
REMARK                            x       y       z     vdW  Elec       q    Type
REMARK                         _______ _______ _______ _____ _____    ______ ____
ROOT
ATOM      1  C   UNL     1      33.085  27.343  45.872  0.00  0.00    +0.000 C 
ATOM      2  C   UNL     1      33.919  27.476  47.164  0.00  0.00    +0.000 C 
ATOM      3  O   UNL     1      33.828  26.245  47.733  0.00  0.00    +0.000 OA
ATOM      4  C   UNL     1      34.071  25.372  46.683  0.00  0.00    +0.000 C 
ATOM      5  C   UNL     1      33.460  25.953  45.426  0.00  0.00    +0.000 C 
ATOM      6  H   UNL     1      33.439  28.097  45.133  0.00  0.00    +0.000 HD
ATOM      7  H   UNL     1      34.941  27.737  46.773  0.00  0.00    +0.000 HD
ATOM      8  H   UNL     1      35.175  25.314  46.562  0.00  0.00    +0.000 HD
ATOM      9  H   UNL     1      33.735  24.347  46.911  0.00  0.00    +0.000 HD
ATOM     10  H   UNL     1      32.486  25.459  45.185  0.00  0.00    +0.000 HD
ENDROOT
BRANCH   1  11
ATOM     11  O   UNL     1      31.743  27.524  46.144  0.00  0.00    +0.000 OA
ATOM     12  H   UNL     1      31.275  28.003  45.405  0.00  0.00    +0.000 HD
ENDBRANCH   1  11
BRANCH   2  13
ATOM     13  O   UNL     1      33.336  28.512  47.843  0.00  0.00    +0.000 OA
BRANCH  13  15
ATOM     14  O   UNL     1      35.357  29.831  46.769  0.00  0.00    +0.000 OA
ATOM     15  P   UNL     1      34.098  29.995  47.617  0.00  0.00    +0.000 P 
BRANCH  15  16
ATOM     16  O   UNL     1      33.100  31.031  46.722  0.00  0.00    +0.000 OA
ATOM     17  H   UNL     1      32.489  31.454  47.397  0.00  0.00    +0.000 HD
ENDBRANCH  15  16
BRANCH  15  18
ATOM     18  O   UNL     1      34.396  30.650  49.161  0.00  0.00    +0.000 OA
BRANCH  18  19
ATOM     19  C   UNL     1      35.631  30.508  49.786  0.00  0.00    +0.000 A 
ATOM     20  C   UNL     1      35.967  29.487  50.705  0.00  0.00    +0.000 A 
ATOM     21  C   UNL     1      37.250  29.488  51.242  0.00  0.00    +0.000 A 
ATOM     22  N   UNL     1      38.121  30.470  50.858  0.00  0.00    +0.000 NA
ATOM     23  C   UNL     1      37.772  31.440  49.973  0.00  0.00    +0.000 A 
ATOM     24  N   UNL     1      36.518  31.459  49.433  0.00  0.00    +0.000 NA
ATOM     25  H   UNL     1      35.183  28.788  50.910  0.00  0.00    +0.000 HD
ATOM     26  H   UNL     1      37.480  28.711  51.929  0.00  0.00    +0.000 HD
ATOM     27  H   UNL     1      38.468  32.212  49.675  0.00  0.00    +0.000 HD
ENDBRANCH  18  19
ENDBRANCH  15  18
ENDBRANCH  13  15
ENDBRANCH   2  13
BRANCH   5  28
ATOM     28  O   UNL     1      34.391  25.997  44.427  0.00  0.00    +0.000 OA
BRANCH  28  30
ATOM     29  C   UNL     1      35.220  24.672  42.506  0.00  0.00    +0.000 A 
ATOM     30  C   UNL     1      34.407  25.565  43.150  0.00  0.00    +0.000 A 
ATOM     31  C   UNL     1      33.395  26.163  42.388  0.00  0.00    +0.000 A 
ATOM     32  H   UNL     1      32.663  26.897  42.757  0.00  0.00    +0.000 HD
ATOM     33  C   UNL     1      33.224  25.861  41.032  0.00  0.00    +0.000 A 
ATOM     34  C   UNL     1      34.061  24.956  40.411  0.00  0.00    +0.000 A 
ATOM     35  C   UNL     1      35.045  24.383  41.177  0.00  0.00    +0.000 A 
BRANCH  29  36
ATOM     36  O   UNL     1      36.198  24.102  43.268  0.00  0.00    +0.000 OA
ATOM     37  H   UNL     1      37.116  24.528  43.268  0.00  0.00    +0.000 HD
ENDBRANCH  29  36
BRANCH  35  38
ATOM     38  O   UNL     1      35.923  23.462  40.614  0.00  0.00    +0.000 OA
ATOM     39  H   UNL     1      36.928  23.570  40.666  0.00  0.00    +0.000 HD
ENDBRANCH  35  38
ENDBRANCH  28  30
ENDBRANCH   5  28
TORSDOF 10
