
 OpenBabel03272509183D

 35 37  0  0  0  0  0  0  0  0999 V2000
   38.1220   31.1070   47.8050 C   0  0  0  0  0  0  0  0  0  0  0  0
   37.0690   31.2800   48.6880 C   0  0  0  0  0  0  0  0  0  0  0  0
   37.1250   32.4740   49.4140 C   0  0  0  0  0  0  0  0  0  0  0  0
   38.1600   33.3990   49.2450 C   0  0  0  0  0  0  0  0  0  0  0  0
   39.1800   33.1280   48.3230 C   0  0  0  0  0  0  0  0  0  0  0  0
   39.1380   31.9610   47.6060 C   0  0  0  0  0  0  0  0  0  0  0  0
   36.3540   32.7240   50.1400 H   0  0  0  0  0  0  0  0  0  0  0  0
   38.1830   34.3170   49.8180 H   0  0  0  0  0  0  0  0  0  0  0  0
   39.9710   33.8660   48.2150 H   0  0  0  0  0  0  0  0  0  0  0  0
   34.9090   30.3420   47.9870 C   0  0  0  0  0  0  0  0  0  0  0  0
   36.0060   30.3390   48.8660 C   0  0  0  0  0  0  0  0  0  0  0  0
   36.0060   29.3970   49.8920 C   0  0  0  0  0  0  0  0  0  0  0  0
   34.9520   28.5410   49.9850 N   0  0  0  0  0  0  0  0  0  0  0  0
   33.9120   28.5800   49.1110 C   0  0  0  0  0  0  0  0  0  0  0  0
   33.8960   29.4750   48.1220 N   0  0  0  0  0  0  0  0  0  0  0  0
   34.9340   31.0820   47.2010 H   0  0  0  0  0  0  0  0  0  0  0  0
   33.0770   27.8930   49.1950 H   0  0  0  0  0  0  0  0  0  0  0  0
   37.1350   29.3450   50.8500 C   0  0  0  0  0  0  0  0  0  0  0  0
   38.0480   29.5610   50.2690 H   0  0  0  0  0  0  0  0  0  0  0  0
   37.1380   28.3220   51.2770 H   0  0  0  0  0  0  0  0  0  0  0  0
   37.0070   30.0530   51.6860 H   0  0  0  0  0  0  0  0  0  0  0  0
   38.1490   29.9280   47.0290 O   0  0  0  0  0  0  0  0  0  0  0  0
   37.3390   29.7340   46.4400 H   0  0  0  0  0  0  0  0  0  0  0  0
   40.1720   31.7270   46.6960 O   0  0  0  0  0  0  0  0  0  0  0  0
   39.5850   31.1370   44.3280 C   0  0  0  0  0  0  0  0  0  0  0  0
   39.8850   32.0050   45.3560 C   0  0  0  0  0  0  0  0  0  0  0  0
   39.9330   33.3720   45.1250 C   0  0  0  0  0  0  0  0  0  0  0  0
   40.1590   34.1530   45.8540 H   0  0  0  0  0  0  0  0  0  0  0  0
   39.6840   33.8980   43.8660 C   0  0  0  0  0  3  0  0  0  0  0  0
   39.3820   33.0220   42.8390 C   0  0  0  0  0  3  0  0  0  0  0  0
   39.3390   31.6760   43.0800 C   0  0  0  0  0  0  0  0  0  0  0  0
   39.5740   29.8130   44.7050 O   0  0  0  0  0  0  0  0  0  0  0  0
   38.7420   29.2660   44.8420 H   0  0  0  0  0  0  0  0  0  0  0  0
   39.0430   30.7470   42.0920 O   0  0  0  0  0  0  0  0  0  0  0  0
   38.1160   30.4110   41.9120 H   0  0  0  0  0  0  0  0  0  0  0  0
  1  2  1  0  0  0  0
  2 11  1  0  0  0  0
  2  3  2  0  0  0  0
  3  7  1  0  0  0  0
  4  3  1  0  0  0  0
  4  8  1  0  0  0  0
  5  4  2  0  0  0  0
  6  1  2  0  0  0  0
  6  5  1  0  0  0  0
  9  5  1  0  0  0  0
 10 15  2  0  0  0  0
 10 11  1  0  0  0  0
 11 12  2  0  0  0  0
 12 13  1  0  0  0  0
 12 18  1  0  0  0  0
 14 17  1  0  0  0  0
 14 13  2  0  0  0  0
 15 14  1  0  0  0  0
 16 10  1  0  0  0  0
 18 20  1  0  0  0  0
 18 21  1  0  0  0  0
 19 18  1  0  0  0  0
 22  1  1  0  0  0  0
 23 22  1  0  0  0  0
 24  6  1  0  0  0  0
 25 32  1  0  0  0  0
 25 26  1  0  0  0  0
 26 24  1  0  0  0  0
 27 26  2  0  0  0  0
 27 28  1  0  0  0  0
 29 27  1  0  0  0  0
 30 31  1  0  0  0  0
 30 29  2  0  0  0  0
 31 25  2  0  0  0  0
 32 33  1  0  0  0  0
 34 31  1  0  0  0  0
 35 34  1  0  0  0  0
M  END
>  <minimizedAffinity>
-6.36742783

>  <minimizedRMSD>
0.645223022

$$$$
