
 OpenBabel03272509183D

 35 37  0  0  0  0  0  0  0  0999 V2000
   38.1650   31.2370   47.9340 C   0  0  0  0  0  0  0  0  0  0  0  0
   37.2510   31.5470   48.9270 C   0  0  0  0  0  0  0  0  0  0  0  0
   37.4340   32.8110   49.4960 C   0  0  0  0  0  0  0  0  0  0  0  0
   38.4570   33.6710   49.0820 C   0  0  0  0  0  0  0  0  0  0  0  0
   39.3310   33.2610   48.0660 C   0  0  0  0  0  0  0  0  0  0  0  0
   39.1610   32.0240   47.5010 C   0  0  0  0  0  0  0  0  0  0  0  0
   36.7790   33.1690   50.2870 H   0  0  0  0  0  0  0  0  0  0  0  0
   38.5800   34.6460   49.5370 H   0  0  0  0  0  0  0  0  0  0  0  0
   40.1150   33.9510   47.7660 H   0  0  0  0  0  0  0  0  0  0  0  0
   35.0630   30.4930   48.5520 C   0  0  0  0  0  0  0  0  0  0  0  0
   36.2030   30.6730   49.3560 C   0  0  0  0  0  0  0  0  0  0  0  0
   36.2570   29.9750   50.5590 C   0  0  0  0  0  0  0  0  0  0  0  0
   35.2130   29.1650   50.8880 N   0  0  0  0  0  0  0  0  0  0  0  0
   34.1310   29.0210   50.0780 C   0  0  0  0  0  0  0  0  0  0  0  0
   34.0620   29.6810   48.9210 N   0  0  0  0  0  0  0  0  0  0  0  0
   35.0460   31.0440   47.6250 H   0  0  0  0  0  0  0  0  0  0  0  0
   33.3050   28.3720   50.3490 H   0  0  0  0  0  0  0  0  0  0  0  0
   37.4320   30.1240   51.4500 C   0  0  0  0  0  0  0  0  0  0  0  0
   38.3140   30.2040   50.7920 H   0  0  0  0  0  0  0  0  0  0  0  0
   37.4620   29.2170   52.0870 H   0  0  0  0  0  0  0  0  0  0  0  0
   37.3430   30.9960   52.1190 H   0  0  0  0  0  0  0  0  0  0  0  0
   38.0560   29.9790   47.3020 O   0  0  0  0  0  0  0  0  0  0  0  0
   37.1670   29.7520   46.8560 H   0  0  0  0  0  0  0  0  0  0  0  0
   40.0520   31.6510   46.4900 O   0  0  0  0  0  0  0  0  0  0  0  0
   39.5030   32.8610   44.3610 C   0  0  0  0  0  0  0  0  0  0  0  0
   39.5730   31.7550   45.1800 C   0  0  0  0  0  0  0  0  0  0  0  0
   39.1280   30.5220   44.7300 C   0  0  0  0  0  0  0  0  0  0  0  0
   39.1310   29.5800   45.2830 H   0  0  0  0  0  0  0  0  0  0  0  0
   38.6040   30.3680   43.4540 C   0  0  0  0  0  3  0  0  0  0  0  0
   38.5370   31.4800   42.6370 C   0  0  0  0  0  3  0  0  0  0  0  0
   38.9800   32.6930   43.0940 C   0  0  0  0  0  0  0  0  0  0  0  0
   39.9820   34.0140   44.9410 O   0  0  0  0  0  0  0  0  0  0  0  0
   40.8670   34.4370   44.7240 H   0  0  0  0  0  0  0  0  0  0  0  0
   38.9390   33.8450   42.3210 O   0  0  0  0  0  0  0  0  0  0  0  0
   39.7020   34.1530   41.7500 H   0  0  0  0  0  0  0  0  0  0  0  0
  1  2  1  0  0  0  0
  2 11  1  0  0  0  0
  2  3  2  0  0  0  0
  3  7  1  0  0  0  0
  4  3  1  0  0  0  0
  4  8  1  0  0  0  0
  5  4  2  0  0  0  0
  6  1  2  0  0  0  0
  6  5  1  0  0  0  0
  9  5  1  0  0  0  0
 10 15  2  0  0  0  0
 10 11  1  0  0  0  0
 11 12  2  0  0  0  0
 12 13  1  0  0  0  0
 12 18  1  0  0  0  0
 14 17  1  0  0  0  0
 14 13  2  0  0  0  0
 15 14  1  0  0  0  0
 16 10  1  0  0  0  0
 18 20  1  0  0  0  0
 18 21  1  0  0  0  0
 19 18  1  0  0  0  0
 22  1  1  0  0  0  0
 23 22  1  0  0  0  0
 24  6  1  0  0  0  0
 25 32  1  0  0  0  0
 25 26  1  0  0  0  0
 26 24  1  0  0  0  0
 27 26  2  0  0  0  0
 27 28  1  0  0  0  0
 29 27  1  0  0  0  0
 30 31  1  0  0  0  0
 30 29  2  0  0  0  0
 31 25  2  0  0  0  0
 33 32  1  0  0  0  0
 34 31  1  0  0  0  0
 35 34  1  0  0  0  0
M  END
>  <minimizedAffinity>
-6.57383108

>  <minimizedRMSD>
0.914293647

$$$$
