
 OpenBabel03272503413D

 43 46  0  0  1  0  0  0  0  0999 V2000
   39.7670   30.9370   41.7760 C   0  0  2  0  0  0  0  0  0  0  0  0
   39.7970   32.1370   42.7480 C   0  0  1  0  0  0  0  0  0  0  0  0
   38.7160   32.9690   42.1350 C   0  0  0  0  0  0  0  0  0  0  0  0
   38.7950   32.8040   40.7740 O   0  0  0  0  0  0  0  0  0  0  0  0
   39.6190   31.7600   40.4810 C   0  0  0  0  0  0  0  0  0  0  0  0
   40.7050   30.3930   41.7940 H   0  0  0  0  0  0  0  0  0  0  0  0
   40.7570   32.6660   42.7070 H   0  0  0  0  0  0  0  0  0  0  0  0
   38.6940   34.0210   42.4590 H   0  0  0  0  0  0  0  0  0  0  0  0
   37.7170   32.5490   42.4520 H   0  0  0  0  0  0  0  0  0  0  0  0
   40.6380   32.1740   40.2980 H   0  0  0  0  0  0  0  0  0  0  0  0
   39.2840   31.1310   39.6400 H   0  0  0  0  0  0  0  0  0  0  0  0
   38.4850   31.1310   45.9340 C   0  0  0  0  0  0  0  0  0  0  0  0
   39.8160   31.0180   46.1880 C   0  0  0  0  0  0  0  0  0  0  0  0
   40.4420   31.3920   44.9910 C   0  0  0  0  0  0  0  0  0  0  0  0
   39.5070   31.7080   44.0860 N   0  0  0  0  0  0  0  0  0  0  0  0
   38.2950   31.5510   44.6570 N   0  0  0  0  0  0  0  0  0  0  0  0
   40.3330   30.7070   47.1080 H   0  0  0  0  0  0  0  0  0  0  0  0
   41.5360   31.3990   44.8930 H   0  0  0  0  0  0  0  0  0  0  0  0
   36.5370   30.6490   49.1060 C   0  0  0  0  0  0  0  0  0  0  0  0
   37.5870   30.9310   48.2430 C   0  0  0  0  0  0  0  0  0  0  0  0
   37.4200   30.8470   46.8810 C   0  0  0  0  0  0  0  0  0  0  0  0
   36.2030   30.4850   46.4260 N   0  0  0  0  0  0  0  0  0  0  0  0
   35.1780   30.2120   47.2840 C   0  0  0  0  0  0  0  0  0  0  0  0
   35.3280   30.2870   48.5940 N   0  0  0  0  0  0  0  0  0  0  0  0
   38.5770   31.2250   48.5770 H   0  0  0  0  0  0  0  0  0  0  0  0
   34.1920   29.9180   46.9280 H   0  0  0  0  0  0  0  0  0  0  0  0
   36.8680   30.7790   50.4450 O   0  0  0  0  0  0  0  0  0  0  0  0
   36.8960   29.6930   51.3530 C   0  0  0  0  0  0  0  0  0  0  0  0
   35.6210   29.2460   51.6380 F   0  0  0  0  0  0  0  0  0  0  0  0
   37.5470   30.0900   52.4920 F   0  0  0  0  0  0  0  0  0  0  0  0
   37.6280   28.6690   50.7830 F   0  0  0  0  0  0  0  0  0  0  0  0
   38.5980   30.2780   42.0260 O   0  0  0  0  0  0  0  0  0  0  0  0
   37.1690   28.2340   42.3950 C   0  0  0  0  0  0  0  0  0  0  0  0
   38.3350   28.9640   42.2900 C   0  0  0  0  0  0  0  0  0  0  0  0
   39.5370   28.2700   42.4840 C   0  0  0  0  0  0  0  0  0  0  0  0
   40.5560   28.6790   42.4400 H   0  0  0  0  0  0  0  0  0  0  0  0
   39.5530   26.9050   42.7700 C   0  0  0  0  0  3  0  0  0  0  0  0
   38.3720   26.1990   42.8690 C   0  0  0  0  0  3  0  0  0  0  0  0
   37.2060   26.8860   42.6780 C   0  0  0  0  0  0  0  0  0  0  0  0
   36.0430   29.0070   42.1880 O   0  0  0  0  0  0  0  0  0  0  0  0
   35.1430   28.8470   42.6250 H   0  0  0  0  0  0  0  0  0  0  0  0
   35.9090   26.3400   42.7400 O   0  0  0  0  0  0  0  0  0  0  0  0
   35.7310   25.3510   42.5410 H   0  0  0  0  0  0  0  0  0  0  0  0
  1  6  1  1  0  0  0
  1 32  1  0  0  0  0
  1  2  1  0  0  0  0
  2  7  1  6  0  0  0
  2 15  1  0  0  0  0
  3  9  1  0  0  0  0
  3  8  1  0  0  0  0
  3  2  1  0  0  0  0
  4  3  1  0  0  0  0
  5  4  1  0  0  0  0
  5  1  1  0  0  0  0
 10  5  1  0  0  0  0
 11  5  1  0  0  0  0
 12 13  1  0  0  0  0
 12 21  1  0  0  0  0
 13 17  1  0  0  0  0
 14 13  2  0  0  0  0
 15 16  1  0  0  0  0
 15 14  1  0  0  0  0
 16 12  2  0  0  0  0
 18 14  1  0  0  0  0
 19 27  1  0  0  0  0
 20 25  1  0  0  0  0
 20 19  2  0  0  0  0
 21 20  1  0  0  0  0
 22 21  2  0  0  0  0
 22 23  1  0  0  0  0
 23 24  2  0  0  0  0
 24 19  1  0  0  0  0
 26 23  1  0  0  0  0
 27 28  1  0  0  0  0
 28 29  1  0  0  0  0
 28 30  1  0  0  0  0
 31 28  1  0  0  0  0
 32 34  1  0  0  0  0
 33 39  1  0  0  0  0
 34 33  2  0  0  0  0
 34 35  1  0  0  0  0
 35 37  2  0  0  0  0
 36 35  1  0  0  0  0
 37 38  1  0  0  0  0
 39 42  1  0  0  0  0
 39 38  2  0  0  0  0
 40 33  1  0  0  0  0
 40 41  1  0  0  0  0
 43 42  1  0  0  0  0
M  END
>  <minimizedAffinity>
-6.35970354

>  <minimizedRMSD>
0.282431215

$$$$
