
 OpenBabel03272509183D

 35 37  0  0  0  0  0  0  0  0999 V2000
   38.3140   31.3300   47.9900 C   0  0  0  0  0  0  0  0  0  0  0  0
   37.3410   31.6110   48.9340 C   0  0  0  0  0  0  0  0  0  0  0  0
   37.4460   32.8860   49.5000 C   0  0  0  0  0  0  0  0  0  0  0  0
   38.4530   33.7820   49.1290 C   0  0  0  0  0  0  0  0  0  0  0  0
   39.3920   33.4000   48.1610 C   0  0  0  0  0  0  0  0  0  0  0  0
   39.3000   32.1530   47.6000 C   0  0  0  0  0  0  0  0  0  0  0  0
   36.7390   33.2230   50.2540 H   0  0  0  0  0  0  0  0  0  0  0  0
   38.5150   34.7650   49.5800 H   0  0  0  0  0  0  0  0  0  0  0  0
   40.1620   34.1190   47.8940 H   0  0  0  0  0  0  0  0  0  0  0  0
   35.2010   30.4930   48.4760 C   0  0  0  0  0  0  0  0  0  0  0  0
   36.3070   30.6990   49.3180 C   0  0  0  0  0  0  0  0  0  0  0  0
   36.3450   29.9890   50.5160 C   0  0  0  0  0  0  0  0  0  0  0  0
   35.3170   29.1420   50.8000 N   0  0  0  0  0  0  0  0  0  0  0  0
   34.2680   28.9740   49.9540 C   0  0  0  0  0  0  0  0  0  0  0  0
   34.2150   29.6460   48.8030 N   0  0  0  0  0  0  0  0  0  0  0  0
   35.1970   31.0550   47.5550 H   0  0  0  0  0  0  0  0  0  0  0  0
   33.4540   28.2970   50.1910 H   0  0  0  0  0  0  0  0  0  0  0  0
   37.4850   30.1640   51.4460 C   0  0  0  0  0  0  0  0  0  0  0  0
   38.3850   30.2800   50.8180 H   0  0  0  0  0  0  0  0  0  0  0  0
   37.5230   29.2510   52.0740 H   0  0  0  0  0  0  0  0  0  0  0  0
   37.3460   31.0250   52.1210 H   0  0  0  0  0  0  0  0  0  0  0  0
   38.2870   30.0640   47.3650 O   0  0  0  0  0  0  0  0  0  0  0  0
   37.4300   29.7990   46.8790 H   0  0  0  0  0  0  0  0  0  0  0  0
   40.2540   31.8080   46.6380 O   0  0  0  0  0  0  0  0  0  0  0  0
   39.4600   31.0670   44.3760 C   0  0  0  0  0  0  0  0  0  0  0  0
   39.8770   31.9960   45.3050 C   0  0  0  0  0  0  0  0  0  0  0  0
   39.9680   33.3350   44.9600 C   0  0  0  0  0  0  0  0  0  0  0  0
   40.2830   34.1600   45.6050 H   0  0  0  0  0  0  0  0  0  0  0  0
   39.6440   33.7760   43.6860 C   0  0  0  0  0  3  0  0  0  0  0  0
   39.2270   32.8390   42.7580 C   0  0  0  0  0  3  0  0  0  0  0  0
   39.1410   31.5190   43.1090 C   0  0  0  0  0  0  0  0  0  0  0  0
   39.4190   29.7790   44.8580 O   0  0  0  0  0  0  0  0  0  0  0  0
   38.5770   29.2860   45.0990 H   0  0  0  0  0  0  0  0  0  0  0  0
   38.7290   30.5320   42.2240 O   0  0  0  0  0  0  0  0  0  0  0  0
   37.7780   30.2310   42.1410 H   0  0  0  0  0  0  0  0  0  0  0  0
  1  2  1  0  0  0  0
  2 11  1  0  0  0  0
  2  3  2  0  0  0  0
  3  7  1  0  0  0  0
  4  3  1  0  0  0  0
  4  8  1  0  0  0  0
  5  4  2  0  0  0  0
  6  1  2  0  0  0  0
  6  5  1  0  0  0  0
  9  5  1  0  0  0  0
 10 15  2  0  0  0  0
 10 11  1  0  0  0  0
 11 12  2  0  0  0  0
 12 13  1  0  0  0  0
 12 18  1  0  0  0  0
 14 17  1  0  0  0  0
 14 13  2  0  0  0  0
 15 14  1  0  0  0  0
 16 10  1  0  0  0  0
 18 20  1  0  0  0  0
 18 21  1  0  0  0  0
 19 18  1  0  0  0  0
 22  1  1  0  0  0  0
 23 22  1  0  0  0  0
 24  6  1  0  0  0  0
 25 32  1  0  0  0  0
 25 26  1  0  0  0  0
 26 24  1  0  0  0  0
 27 26  2  0  0  0  0
 27 28  1  0  0  0  0
 29 27  1  0  0  0  0
 30 31  1  0  0  0  0
 30 29  2  0  0  0  0
 31 25  2  0  0  0  0
 32 33  1  0  0  0  0
 34 31  1  0  0  0  0
 35 34  1  0  0  0  0
M  END
>  <minimizedAffinity>
-6.53484154

>  <minimizedRMSD>
0.866515756

$$$$
