REMARK  Name = 
REMARK  8 active torsions:
REMARK  status: ('A' for Active; 'I' for Inactive)
REMARK    1  A    between atoms: C_1  and  C_8
REMARK    2  A    between atoms: N_4  and  C_18
REMARK    3  A    between atoms: C_6  and  O_12
REMARK    4  A    between atoms: O_12  and  C_13
REMARK    5  A    between atoms: C_17  and  O_22
REMARK    6  A    between atoms: O_22  and  C_35
REMARK    7  A    between atoms: O_33  and  C_34
REMARK    8  A    between atoms: C_40  and  O_41
REMARK                            x       y       z     vdW  Elec       q    Type
REMARK                         _______ _______ _______ _____ _____    ______ ____
ROOT
ATOM      1  C   UNL     1      39.914  30.702  41.899  0.00  0.00    +0.000 C 
ATOM      2  C   UNL     1      39.919  31.971  42.779  0.00  0.00    +0.000 C 
ATOM      3  C   UNL     1      38.866  32.760  42.070  0.00  0.00    +0.000 C 
ATOM      4  O   UNL     1      38.989  32.493  40.728  0.00  0.00    +0.000 OA
ATOM      5  C   UNL     1      39.815  31.427  40.542  0.00  0.00    +0.000 C 
ATOM      6  H   UNL     1      40.847  30.156  41.989  0.00  0.00    +0.000 HD
ATOM      7  H   UNL     1      40.884  32.491  42.732  0.00  0.00    +0.000 HD
ATOM      8  H   UNL     1      38.840  33.833  42.314  0.00  0.00    +0.000 HD
ATOM      9  H   UNL     1      37.854  32.369  42.383  0.00  0.00    +0.000 HD
ATOM     10  H   UNL     1      40.843  31.821  40.364  0.00  0.00    +0.000 HD
ATOM     11  H   UNL     1      39.504  30.739  39.739  0.00  0.00    +0.000 HD
ENDROOT
BRANCH   2  15
ATOM     12  C   UNL     1      38.496  31.140  45.968  0.00  0.00    +0.000 A 
ATOM     13  C   UNL     1      39.811  31.197  46.312  0.00  0.00    +0.000 A 
ATOM     14  C   UNL     1      40.478  31.520  45.122  0.00  0.00    +0.000 A 
ATOM     15  N   UNL     1      39.581  31.644  44.135  0.00  0.00    +0.000 N 
ATOM     16  N   UNL     1      38.355  31.412  44.646  0.00  0.00    +0.000 NA
ATOM     17  H   UNL     1      40.291  31.034  47.288  0.00  0.00    +0.000 HD
ATOM     18  H   UNL     1      41.570  31.636  45.089  0.00  0.00    +0.000 HD
BRANCH  12  21
ATOM     19  C   UNL     1      36.437  30.628  49.064  0.00  0.00    +0.000 A 
ATOM     20  C   UNL     1      37.513  30.931  48.241  0.00  0.00    +0.000 A 
ATOM     21  C   UNL     1      37.402  30.835  46.874  0.00  0.00    +0.000 A 
ATOM     22  N   UNL     1      36.214  30.439  46.374  0.00  0.00    +0.000 NA
ATOM     23  C   UNL     1      35.163  30.145  47.193  0.00  0.00    +0.000 A 
ATOM     24  N   UNL     1      35.258  30.232  48.507  0.00  0.00    +0.000 NA
ATOM     25  H   UNL     1      38.481  31.252  48.612  0.00  0.00    +0.000 HD
ATOM     26  H   UNL     1      34.199  29.824  46.800  0.00  0.00    +0.000 HD
BRANCH  19  27
ATOM     27  O   UNL     1      36.711  30.774  50.414  0.00  0.00    +0.000 OA
BRANCH  27  28
ATOM     28  C   UNL     1      36.795  29.687  51.318  0.00  0.00    +0.000 C 
ATOM     29  F   UNL     1      35.542  29.195  51.626  0.00  0.00    +0.000 F 
ATOM     30  F   UNL     1      37.454  30.104  52.445  0.00  0.00    +0.000 F 
ATOM     31  F   UNL     1      37.551  28.691  50.730  0.00  0.00    +0.000 F 
ENDBRANCH  27  28
ENDBRANCH  19  27
ENDBRANCH  12  21
ENDBRANCH   2  15
BRANCH   1  32
ATOM     32  O   UNL     1      38.732  30.069  42.157  0.00  0.00    +0.000 OA
BRANCH  32  34
ATOM     33  C   UNL     1      39.189  27.620  42.542  0.00  0.00    +0.000 A 
ATOM     34  C   UNL     1      38.453  28.786  42.535  0.00  0.00    +0.000 A 
ATOM     35  C   UNL     1      37.133  28.706  43.002  0.00  0.00    +0.000 A 
ATOM     36  H   UNL     1      36.401  29.524  43.071  0.00  0.00    +0.000 HD
ATOM     37  C   UNL     1      36.591  27.503  43.453  0.00  0.00    +0.000 A 
ATOM     38  C   UNL     1      37.349  26.351  43.449  0.00  0.00    +0.000 A 
ATOM     39  C   UNL     1      38.633  26.441  42.991  0.00  0.00    +0.000 A 
BRANCH  33  40
ATOM     40  O   UNL     1      40.470  27.804  42.064  0.00  0.00    +0.000 OA
ATOM     41  H   UNL     1      41.010  27.101  41.571  0.00  0.00    +0.000 HD
ENDBRANCH  33  40
BRANCH  39  42
ATOM     42  O   UNL     1      39.555  25.379  42.911  0.00  0.00    +0.000 OA
ATOM     43  H   UNL     1      39.495  24.566  43.532  0.00  0.00    +0.000 HD
ENDBRANCH  39  42
ENDBRANCH  32  34
ENDBRANCH   1  32
TORSDOF 8
