
 OpenBabel03272503513D

 39 41  0  0  1  0  0  0  0  0999 V2000
   38.4630   25.0540   31.9100 C   0  0  1  0  0  0  0  0  0  0  0  0
   37.4060   25.6210   32.8830 C   0  0  2  0  0  0  0  0  0  0  0  0
   36.3020   25.7720   32.1040 O   0  0  0  0  0  0  0  0  0  0  0  0
   36.2200   24.5770   31.4050 C   0  0  0  0  0  0  0  0  0  0  0  0
   37.6240   24.1090   31.0880 C   0  0  2  0  0  0  0  0  0  0  0  0
   39.2250   24.4890   32.4930 H   0  0  0  0  0  0  0  0  0  0  0  0
   37.3250   24.8110   33.6590 H   0  0  0  0  0  0  0  0  0  0  0  0
   35.7310   23.8420   32.0810 H   0  0  0  0  0  0  0  0  0  0  0  0
   35.5660   24.6600   30.5210 H   0  0  0  0  0  0  0  0  0  0  0  0
   37.8960   24.3370   30.0280 H   0  0  0  0  0  0  0  0  0  0  0  0
   39.0580   26.0750   31.1960 O   0  0  0  0  0  0  0  0  0  0  0  0
   40.0260   25.9000   31.0320 H   0  0  0  0  0  0  0  0  0  0  0  0
   37.9730   26.7650   33.3750 O   0  0  0  0  0  0  0  0  0  0  0  0
   39.9260   26.6970   35.1530 O   0  0  0  0  0  0  0  0  0  0  0  0
   38.4070   26.6720   34.9980 P   0  0  1  0  0  0  0  0  0  0  0  0
   37.8600   28.0460   35.8260 O   0  0  0  0  0  0  0  0  0  0  0  0
   36.9090   27.8410   36.0740 H   0  0  0  0  0  0  0  0  0  0  0  0
   37.6790   25.2700   35.6360 O   0  0  0  0  0  0  0  0  0  0  0  0
   38.3470   24.4510   36.5410 C   0  0  0  0  0  0  0  0  0  0  0  0
   38.0700   24.3710   37.9250 C   0  0  0  0  0  0  0  0  0  0  0  0
   38.8330   23.4990   38.6950 C   0  0  0  0  0  0  0  0  0  0  0  0
   39.8090   22.7640   38.0790 N   0  0  0  0  0  0  0  0  0  0  0  0
   40.0540   22.8600   36.7470 C   0  0  0  0  0  0  0  0  0  0  0  0
   39.3180   23.7100   35.9720 N   0  0  0  0  0  0  0  0  0  0  0  0
   37.2780   25.0060   38.2650 H   0  0  0  0  0  0  0  0  0  0  0  0
   38.6070   23.4550   39.7320 H   0  0  0  0  0  0  0  0  0  0  0  0
   40.8270   22.2740   36.2690 H   0  0  0  0  0  0  0  0  0  0  0  0
   37.7950   22.8190   31.5040 O   0  0  0  0  0  0  0  0  0  0  0  0
   36.6520   21.5980   33.3300 C   0  0  0  0  0  0  0  0  0  0  0  0
   36.9690   21.8940   32.0320 C   0  0  0  0  0  0  0  0  0  0  0  0
   36.3470   21.1270   31.0370 C   0  0  0  0  0  0  0  0  0  0  0  0
   36.4940   21.2400   29.9540 H   0  0  0  0  0  0  0  0  0  0  0  0
   35.4460   20.1050   31.3590 C   0  0  0  0  0  3  0  0  0  0  0  0
   35.1470   19.8310   32.6780 C   0  0  0  0  0  3  0  0  0  0  0  0
   35.7680   20.5950   33.6340 C   0  0  0  0  0  0  0  0  0  0  0  0
   37.2690   22.3580   34.2810 O   0  0  0  0  0  0  0  0  0  0  0  0
   38.1270   22.0120   34.6920 H   0  0  0  0  0  0  0  0  0  0  0  0
   35.5130   20.3710   34.9840 O   0  0  0  0  0  0  0  0  0  0  0  0
   36.2520   20.1990   35.6540 H   0  0  0  0  0  0  0  0  0  0  0  0
  1  6  1  1  0  0  0
  1  2  1  0  0  0  0
  2 13  1  0  0  0  0
  2  7  1  1  0  0  0
  3  2  1  0  0  0  0
  4  8  1  0  0  0  0
  4  3  1  0  0  0  0
  5 10  1  6  0  0  0
  5  4  1  0  0  0  0
  5 28  1  0  0  0  0
  5  1  1  0  0  0  0
  9  4  1  0  0  0  0
 11  1  1  0  0  0  0
 12 11  1  0  0  0  0
 13 15  1  0  0  0  0
 15 14  2  1  0  0  0
 15 18  1  0  0  0  0
 15 16  1  0  0  0  0
 16 17  1  0  0  0  0
 18 19  1  0  0  0  0
 19 20  1  0  0  0  0
 20 25  1  0  0  0  0
 20 21  2  0  0  0  0
 21 26  1  0  0  0  0
 22 21  1  0  0  0  0
 23 22  2  0  0  0  0
 24 19  2  0  0  0  0
 24 23  1  0  0  0  0
 27 23  1  0  0  0  0
 28 30  1  0  0  0  0
 29 35  1  0  0  0  0
 29 36  1  0  0  0  0
 30 29  2  0  0  0  0
 31 33  2  0  0  0  0
 31 30  1  0  0  0  0
 32 31  1  0  0  0  0
 33 34  1  0  0  0  0
 34 35  2  0  0  0  0
 35 38  1  0  0  0  0
 36 37  1  0  0  0  0
 38 39  1  0  0  0  0
M  END
>  <minimizedAffinity>
-6.16679478

$$$$

 OpenBabel03272503513D

 39 41  0  0  1  0  0  0  0  0999 V2000
   37.8220   27.1250   35.3550 C   0  0  1  0  0  0  0  0  0  0  0  0
   36.9350   27.4030   34.1220 C   0  0  2  0  0  0  0  0  0  0  0  0
   37.8310   27.6980   33.1430 O   0  0  0  0  0  0  0  0  0  0  0  0
   38.7920   26.7050   33.2580 C   0  0  0  0  0  0  0  0  0  0  0  0
   38.9690   26.3770   34.7250 C   0  0  2  0  0  0  0  0  0  0  0  0
   37.2670   26.4640   36.0580 H   0  0  0  0  0  0  0  0  0  0  0  0
   36.3920   26.4280   33.9820 H   0  0  0  0  0  0  0  0  0  0  0  0
   38.3960   25.8110   32.7270 H   0  0  0  0  0  0  0  0  0  0  0  0
   39.7290   26.9750   32.7440 H   0  0  0  0  0  0  0  0  0  0  0  0
   39.8870   26.8630   35.1390 H   0  0  0  0  0  0  0  0  0  0  0  0
   38.1700   28.3090   35.9750 O   0  0  0  0  0  0  0  0  0  0  0  0
   38.2060   28.2130   36.9670 H   0  0  0  0  0  0  0  0  0  0  0  0
   36.1040   28.4150   34.5200 O   0  0  0  0  0  0  0  0  0  0  0  0
   35.9950   30.3920   32.7710 O   0  0  0  0  0  0  0  0  0  0  0  0
   35.2610   29.1460   33.2600 P   0  0  1  0  0  0  0  0  0  0  0  0
   35.2120   28.1130   31.9170 O   0  0  0  0  0  0  0  0  0  0  0  0
   34.4300   27.5060   32.0820 H   0  0  0  0  0  0  0  0  0  0  0  0
   33.6840   29.4590   33.8210 O   0  0  0  0  0  0  0  0  0  0  0  0
   33.4570   30.0870   35.0420 C   0  0  0  0  0  0  0  0  0  0  0  0
   34.2050   31.1740   35.5510 C   0  0  0  0  0  0  0  0  0  0  0  0
   33.8480   31.6880   36.7930 C   0  0  0  0  0  0  0  0  0  0  0  0
   32.7970   31.1210   37.4600 N   0  0  0  0  0  0  0  0  0  0  0  0
   32.0950   30.0760   36.9480 C   0  0  0  0  0  0  0  0  0  0  0  0
   32.4280   29.5560   35.7300 N   0  0  0  0  0  0  0  0  0  0  0  0
   34.9990   31.5120   34.9180 H   0  0  0  0  0  0  0  0  0  0  0  0
   34.4230   32.5050   37.1540 H   0  0  0  0  0  0  0  0  0  0  0  0
   31.2650   29.6350   37.4820 H   0  0  0  0  0  0  0  0  0  0  0  0
   38.8410   25.0320   34.9250 O   0  0  0  0  0  0  0  0  0  0  0  0
   38.6940   23.7470   37.0370 C   0  0  0  0  0  0  0  0  0  0  0  0
   39.2780   24.1870   35.8810 C   0  0  0  0  0  0  0  0  0  0  0  0
   40.5610   23.7010   35.5940 C   0  0  0  0  0  0  0  0  0  0  0  0
   41.1610   23.9570   34.7090 H   0  0  0  0  0  0  0  0  0  0  0  0
   41.2130   22.8070   36.4520 C   0  0  0  0  0  3  0  0  0  0  0  0
   40.5970   22.3810   37.6110 C   0  0  0  0  0  3  0  0  0  0  0  0
   39.3410   22.8720   37.8710 C   0  0  0  0  0  0  0  0  0  0  0  0
   37.4460   24.2340   37.2960 O   0  0  0  0  0  0  0  0  0  0  0  0
   37.3620   25.0550   37.8810 H   0  0  0  0  0  0  0  0  0  0  0  0
   38.6630   22.4850   39.0230 O   0  0  0  0  0  0  0  0  0  0  0  0
   38.2900   23.1540   39.6840 H   0  0  0  0  0  0  0  0  0  0  0  0
  1 11  1  0  0  0  0
  1  6  1  1  0  0  0
  2  7  1  6  0  0  0
  2 13  1  0  0  0  0
  2  1  1  0  0  0  0
  3  4  1  0  0  0  0
  3  2  1  0  0  0  0
  4  5  1  0  0  0  0
  5 28  1  0  0  0  0
  5 10  1  1  0  0  0
  5  1  1  0  0  0  0
  8  4  1  0  0  0  0
  9  4  1  0  0  0  0
 11 12  1  0  0  0  0
 15 14  2  6  0  0  0
 15 18  1  0  0  0  0
 15 13  1  0  0  0  0
 16 17  1  0  0  0  0
 16 15  1  0  0  0  0
 18 19  1  0  0  0  0
 19 20  2  0  0  0  0
 19 24  1  0  0  0  0
 20 21  1  0  0  0  0
 21 26  1  0  0  0  0
 21 22  2  0  0  0  0
 23 22  1  0  0  0  0
 23 27  1  0  0  0  0
 24 23  2  0  0  0  0
 25 20  1  0  0  0  0
 28 30  1  0  0  0  0
 29 36  1  0  0  0  0
 29 35  1  0  0  0  0
 30 29  2  0  0  0  0
 31 30  1  0  0  0  0
 31 33  2  0  0  0  0
 32 31  1  0  0  0  0
 33 34  1  0  0  0  0
 34 35  2  0  0  0  0
 35 38  1  0  0  0  0
 36 37  1  0  0  0  0
 38 39  1  0  0  0  0
M  END
>  <minimizedAffinity>
-6.13197994

$$$$

 OpenBabel03272503513D

 39 41  0  0  1  0  0  0  0  0999 V2000
   38.7160   26.4490   33.6550 C   0  0  1  0  0  0  0  0  0  0  0  0
   37.6560   26.6580   32.5520 C   0  0  2  0  0  0  0  0  0  0  0  0
   38.0220   25.7760   31.5850 O   0  0  0  0  0  0  0  0  0  0  0  0
   38.2670   24.6000   32.2780 C   0  0  0  0  0  0  0  0  0  0  0  0
   38.8870   24.9520   33.6130 C   0  0  2  0  0  0  0  0  0  0  0  0
   38.2870   26.7640   34.6340 H   0  0  0  0  0  0  0  0  0  0  0  0
   36.6960   26.4030   33.0800 H   0  0  0  0  0  0  0  0  0  0  0  0
   37.2800   24.1160   32.4480 H   0  0  0  0  0  0  0  0  0  0  0  0
   38.8590   23.8850   31.6840 H   0  0  0  0  0  0  0  0  0  0  0  0
   39.9940   24.7930   33.5980 H   0  0  0  0  0  0  0  0  0  0  0  0
   39.8570   27.1730   33.3700 O   0  0  0  0  0  0  0  0  0  0  0  0
   40.2800   27.5400   34.1960 H   0  0  0  0  0  0  0  0  0  0  0  0
   37.7460   27.9870   32.2380 O   0  0  0  0  0  0  0  0  0  0  0  0
   36.7460   29.9900   30.8360 O   0  0  0  0  0  0  0  0  0  0  0  0
   36.4870   28.5510   31.2750 P   0  0  1  0  0  0  0  0  0  0  0  0
   36.4130   27.6610   29.8360 O   0  0  0  0  0  0  0  0  0  0  0  0
   35.8700   26.8470   30.0590 H   0  0  0  0  0  0  0  0  0  0  0  0
   35.0460   28.3580   32.1640 O   0  0  0  0  0  0  0  0  0  0  0  0
   34.6650   29.2750   33.1390 C   0  0  0  0  0  0  0  0  0  0  0  0
   35.5210   29.8240   34.1220 C   0  0  0  0  0  0  0  0  0  0  0  0
   34.9790   30.7300   35.0270 C   0  0  0  0  0  0  0  0  0  0  0  0
   33.6520   31.0460   34.9250 N   0  0  0  0  0  0  0  0  0  0  0  0
   32.8510   30.5020   33.9710 C   0  0  0  0  0  0  0  0  0  0  0  0
   33.3610   29.6110   33.0720 N   0  0  0  0  0  0  0  0  0  0  0  0
   36.5340   29.4830   34.0790 H   0  0  0  0  0  0  0  0  0  0  0  0
   35.6410   31.1300   35.7550 H   0  0  0  0  0  0  0  0  0  0  0  0
   31.8030   30.7590   33.8980 H   0  0  0  0  0  0  0  0  0  0  0  0
   38.1940   24.3540   34.6270 O   0  0  0  0  0  0  0  0  0  0  0  0
   39.4240   22.9910   36.2890 C   0  0  0  0  0  0  0  0  0  0  0  0
   38.5290   23.9360   35.8640 C   0  0  0  0  0  0  0  0  0  0  0  0
   37.8090   24.6170   36.8540 C   0  0  0  0  0  0  0  0  0  0  0  0
   37.0580   25.4000   36.6770 H   0  0  0  0  0  0  0  0  0  0  0  0
   37.9980   24.3430   38.2140 C   0  0  0  0  0  3  0  0  0  0  0  0
   38.9080   23.3850   38.6110 C   0  0  0  0  0  3  0  0  0  0  0  0
   39.6010   22.7300   37.6240 C   0  0  0  0  0  0  0  0  0  0  0  0
   40.1140   22.3410   35.3070 O   0  0  0  0  0  0  0  0  0  0  0  0
   39.7510   21.4590   34.9690 H   0  0  0  0  0  0  0  0  0  0  0  0
   40.5340   21.7520   37.9540 O   0  0  0  0  0  0  0  0  0  0  0  0
   40.4980   20.8160   37.5690 H   0  0  0  0  0  0  0  0  0  0  0  0
  1  6  1  1  0  0  0
  2  7  1  1  0  0  0
  2  1  1  0  0  0  0
  3  4  1  0  0  0  0
  3  2  1  0  0  0  0
  4  8  1  0  0  0  0
  4  5  1  0  0  0  0
  5 10  1  1  0  0  0
  5  1  1  0  0  0  0
  5 28  1  0  0  0  0
  9  4  1  0  0  0  0
 11  1  1  0  0  0  0
 11 12  1  0  0  0  0
 13  2  1  0  0  0  0
 15 14  2  6  0  0  0
 15 18  1  0  0  0  0
 15 13  1  0  0  0  0
 16 17  1  0  0  0  0
 16 15  1  0  0  0  0
 18 19  1  0  0  0  0
 19 20  1  0  0  0  0
 20 21  2  0  0  0  0
 21 26  1  0  0  0  0
 22 21  1  0  0  0  0
 23 22  2  0  0  0  0
 24 19  2  0  0  0  0
 24 23  1  0  0  0  0
 25 20  1  0  0  0  0
 27 23  1  0  0  0  0
 28 30  1  0  0  0  0
 29 35  1  0  0  0  0
 30 29  2  0  0  0  0
 30 31  1  0  0  0  0
 31 33  2  0  0  0  0
 32 31  1  0  0  0  0
 33 34  1  0  0  0  0
 35 38  1  0  0  0  0
 35 34  2  0  0  0  0
 36 29  1  0  0  0  0
 37 36  1  0  0  0  0
 39 38  1  0  0  0  0
M  END
>  <minimizedAffinity>
-6.0937295

$$$$

 OpenBabel03272503513D

 39 41  0  0  1  0  0  0  0  0999 V2000
   37.8850   26.9480   35.0340 C   0  0  1  0  0  0  0  0  0  0  0  0
   37.3620   27.2060   33.6050 C   0  0  2  0  0  0  0  0  0  0  0  0
   38.4670   27.6120   32.9270 O   0  0  0  0  0  0  0  0  0  0  0  0
   39.4410   26.6950   33.2940 C   0  0  0  0  0  0  0  0  0  0  0  0
   39.2240   26.3210   34.7450 C   0  0  2  0  0  0  0  0  0  0  0  0
   37.2140   26.2150   35.5390 H   0  0  0  0  0  0  0  0  0  0  0  0
   36.9690   26.1970   33.2990 H   0  0  0  0  0  0  0  0  0  0  0  0
   39.2920   25.7960   32.6570 H   0  0  0  0  0  0  0  0  0  0  0  0
   40.4580   27.0600   33.0740 H   0  0  0  0  0  0  0  0  0  0  0  0
   39.9410   26.8610   35.4120 H   0  0  0  0  0  0  0  0  0  0  0  0
   37.9370   28.1280   35.7490 O   0  0  0  0  0  0  0  0  0  0  0  0
   37.7000   27.9940   36.7080 H   0  0  0  0  0  0  0  0  0  0  0  0
   36.3650   28.1300   33.7670 O   0  0  0  0  0  0  0  0  0  0  0  0
   35.5770   27.4930   31.3270 O   0  0  0  0  0  0  0  0  0  0  0  0
   35.6670   28.6450   32.3250 P   0  0  1  0  0  0  0  0  0  0  0  0
   34.0630   29.1180   32.5920 O   0  0  0  0  0  0  0  0  0  0  0  0
   34.1180   30.0720   32.9000 H   0  0  0  0  0  0  0  0  0  0  0  0
   36.5860   29.9650   31.7630 O   0  0  0  0  0  0  0  0  0  0  0  0
   37.0000   30.0520   30.4370 C   0  0  0  0  0  0  0  0  0  0  0  0
   36.8410   31.1850   29.6060 C   0  0  0  0  0  0  0  0  0  0  0  0
   37.3110   31.1080   28.3000 C   0  0  0  0  0  0  0  0  0  0  0  0
   37.9010   29.9470   27.8820 N   0  0  0  0  0  0  0  0  0  0  0  0
   38.0400   28.8720   28.7020 C   0  0  0  0  0  0  0  0  0  0  0  0
   37.5860   28.9250   29.9880 N   0  0  0  0  0  0  0  0  0  0  0  0
   36.3610   32.0210   30.0700 H   0  0  0  0  0  0  0  0  0  0  0  0
   37.1820   31.9720   27.6950 H   0  0  0  0  0  0  0  0  0  0  0  0
   38.5090   27.9580   28.3630 H   0  0  0  0  0  0  0  0  0  0  0  0
   39.1650   24.9620   34.8770 O   0  0  0  0  0  0  0  0  0  0  0  0
   38.8820   23.7320   37.0070 C   0  0  0  0  0  0  0  0  0  0  0  0
   39.5200   24.1060   35.8560 C   0  0  0  0  0  0  0  0  0  0  0  0
   40.7680   23.5210   35.6040 C   0  0  0  0  0  0  0  0  0  0  0  0
   41.4040   23.7150   34.7290 H   0  0  0  0  0  0  0  0  0  0  0  0
   41.3350   22.5980   36.4920 C   0  0  0  0  0  3  0  0  0  0  0  0
   40.6660   22.2410   37.6450 C   0  0  0  0  0  3  0  0  0  0  0  0
   39.4450   22.8270   37.8700 C   0  0  0  0  0  0  0  0  0  0  0  0
   37.6680   24.3140   37.2310 O   0  0  0  0  0  0  0  0  0  0  0  0
   37.6330   25.1500   37.8000 H   0  0  0  0  0  0  0  0  0  0  0  0
   38.7170   22.5120   39.0130 O   0  0  0  0  0  0  0  0  0  0  0  0
   38.3820   23.2200   39.6550 H   0  0  0  0  0  0  0  0  0  0  0  0
  1  6  1  1  0  0  0
  1 11  1  0  0  0  0
  2  7  1  6  0  0  0
  2 13  1  0  0  0  0
  2  1  1  0  0  0  0
  3  4  1  0  0  0  0
  3  2  1  0  0  0  0
  4  5  1  0  0  0  0
  5 28  1  0  0  0  0
  5  1  1  0  0  0  0
  5 10  1  1  0  0  0
  8  4  1  0  0  0  0
  9  4  1  0  0  0  0
 11 12  1  0  0  0  0
 15 14  2  6  0  0  0
 15 16  1  0  0  0  0
 15 13  1  0  0  0  0
 16 17  1  0  0  0  0
 18 15  1  0  0  0  0
 19 18  1  0  0  0  0
 20 25  1  0  0  0  0
 20 19  2  0  0  0  0
 21 20  1  0  0  0  0
 22 21  2  0  0  0  0
 22 23  1  0  0  0  0
 23 24  2  0  0  0  0
 24 19  1  0  0  0  0
 26 21  1  0  0  0  0
 27 23  1  0  0  0  0
 28 30  1  0  0  0  0
 29 36  1  0  0  0  0
 29 35  1  0  0  0  0
 30 29  2  0  0  0  0
 31 30  1  0  0  0  0
 31 33  2  0  0  0  0
 32 31  1  0  0  0  0
 33 34  1  0  0  0  0
 34 35  2  0  0  0  0
 35 38  1  0  0  0  0
 36 37  1  0  0  0  0
 38 39  1  0  0  0  0
M  END
>  <minimizedAffinity>
-5.76031923

$$$$

 OpenBabel03272503513D

 39 41  0  0  1  0  0  0  0  0999 V2000
   37.4090   26.6490   34.2280 C   0  0  1  0  0  0  0  0  0  0  0  0
   37.7940   26.2230   32.7950 C   0  0  2  0  0  0  0  0  0  0  0  0
   38.7670   27.1070   32.4480 O   0  0  0  0  0  0  0  0  0  0  0  0
   39.6060   27.1320   33.5530 C   0  0  0  0  0  0  0  0  0  0  0  0
   38.7590   26.9980   34.8000 C   0  0  2  0  0  0  0  0  0  0  0  0
   36.9750   25.7730   34.7610 H   0  0  0  0  0  0  0  0  0  0  0  0
   38.1510   25.1660   32.9380 H   0  0  0  0  0  0  0  0  0  0  0  0
   40.2770   26.2490   33.4670 H   0  0  0  0  0  0  0  0  0  0  0  0
   40.2640   28.0170   33.5530 H   0  0  0  0  0  0  0  0  0  0  0  0
   38.6100   27.9890   35.2960 H   0  0  0  0  0  0  0  0  0  0  0  0
   36.5050   27.6920   34.1940 O   0  0  0  0  0  0  0  0  0  0  0  0
   35.8320   27.6250   34.9270 H   0  0  0  0  0  0  0  0  0  0  0  0
   36.6220   26.2910   32.0900 O   0  0  0  0  0  0  0  0  0  0  0  0
   34.8890   25.0150   30.5600 O   0  0  0  0  0  0  0  0  0  0  0  0
   36.2400   24.8800   31.2580 P   0  0  1  0  0  0  0  0  0  0  0  0
   37.3540   24.6210   30.0090 O   0  0  0  0  0  0  0  0  0  0  0  0
   38.1280   24.1500   30.4410 H   0  0  0  0  0  0  0  0  0  0  0  0
   36.3030   23.6000   32.3800 O   0  0  0  0  0  0  0  0  0  0  0  0
   36.1080   22.2790   31.9890 C   0  0  0  0  0  0  0  0  0  0  0  0
   35.0500   21.4470   32.4240 C   0  0  0  0  0  0  0  0  0  0  0  0
   35.0000   20.1460   31.9370 C   0  0  0  0  0  0  0  0  0  0  0  0
   35.9690   19.7340   31.0640 N   0  0  0  0  0  0  0  0  0  0  0  0
   36.9750   20.5530   30.6630 C   0  0  0  0  0  0  0  0  0  0  0  0
   37.0450   21.8350   31.1280 N   0  0  0  0  0  0  0  0  0  0  0  0
   34.3670   21.9070   33.1080 H   0  0  0  0  0  0  0  0  0  0  0  0
   34.1950   19.5400   32.2760 H   0  0  0  0  0  0  0  0  0  0  0  0
   37.7370   20.2190   29.9720 H   0  0  0  0  0  0  0  0  0  0  0  0
   39.2320   25.9830   35.5830 O   0  0  0  0  0  0  0  0  0  0  0  0
   38.3210   23.6860   35.7400 C   0  0  0  0  0  0  0  0  0  0  0  0
   38.6520   24.9330   36.1970 C   0  0  0  0  0  0  0  0  0  0  0  0
   38.3540   25.2160   37.5370 C   0  0  0  0  0  0  0  0  0  0  0  0
   38.5560   26.1650   38.0530 H   0  0  0  0  0  0  0  0  0  0  0  0
   37.7460   24.2660   38.3670 C   0  0  0  0  0  3  0  0  0  0  0  0
   37.4250   23.0170   37.8760 C   0  0  0  0  0  3  0  0  0  0  0  0
   37.7260   22.7630   36.5610 C   0  0  0  0  0  0  0  0  0  0  0  0
   38.6200   23.4330   34.4320 O   0  0  0  0  0  0  0  0  0  0  0  0
   37.9020   23.5860   33.7360 H   0  0  0  0  0  0  0  0  0  0  0  0
   37.4280   21.5240   36.0010 O   0  0  0  0  0  0  0  0  0  0  0  0
   36.8770   21.4280   35.1580 H   0  0  0  0  0  0  0  0  0  0  0  0
  1  6  1  1  0  0  0
  1  5  1  0  0  0  0
  2  7  1  6  0  0  0
  2  1  1  0  0  0  0
  3  2  1  0  0  0  0
  3  4  1  0  0  0  0
  4  5  1  0  0  0  0
  5 10  1  1  0  0  0
  5 28  1  0  0  0  0
  8  4  1  0  0  0  0
  9  4  1  0  0  0  0
 11  1  1  0  0  0  0
 11 12  1  0  0  0  0
 13  2  1  0  0  0  0
 15 14  2  6  0  0  0
 15 13  1  0  0  0  0
 15 18  1  0  0  0  0
 16 17  1  0  0  0  0
 16 15  1  0  0  0  0
 19 18  1  0  0  0  0
 19 20  1  0  0  0  0
 20 25  1  0  0  0  0
 21 26  1  0  0  0  0
 21 20  2  0  0  0  0
 22 21  1  0  0  0  0
 23 22  2  0  0  0  0
 23 24  1  0  0  0  0
 24 19  2  0  0  0  0
 27 23  1  0  0  0  0
 28 30  1  0  0  0  0
 29 30  2  0  0  0  0
 29 35  1  0  0  0  0
 30 31  1  0  0  0  0
 31 32  1  0  0  0  0
 31 33  2  0  0  0  0
 34 33  1  0  0  0  0
 35 34  2  0  0  0  0
 36 29  1  0  0  0  0
 37 36  1  0  0  0  0
 38 35  1  0  0  0  0
 39 38  1  0  0  0  0
M  END
>  <minimizedAffinity>
-5.55786657

$$$$

 OpenBabel03272503513D

 39 41  0  0  1  0  0  0  0  0999 V2000
   38.3200   26.2870   33.9290 C   0  0  1  0  0  0  0  0  0  0  0  0
   37.1360   26.5490   32.9740 C   0  0  2  0  0  0  0  0  0  0  0  0
   37.4260   25.7880   31.8860 O   0  0  0  0  0  0  0  0  0  0  0  0
   37.7950   24.5640   32.4230 C   0  0  0  0  0  0  0  0  0  0  0  0
   38.5460   24.8130   33.7130 C   0  0  2  0  0  0  0  0  0  0  0  0
   37.9910   26.4810   34.9750 H   0  0  0  0  0  0  0  0  0  0  0  0
   36.2520   26.1940   33.5720 H   0  0  0  0  0  0  0  0  0  0  0  0
   36.8540   24.0140   32.6460 H   0  0  0  0  0  0  0  0  0  0  0  0
   38.3460   23.9430   31.6970 H   0  0  0  0  0  0  0  0  0  0  0  0
   39.6500   24.7130   33.5630 H   0  0  0  0  0  0  0  0  0  0  0  0
   39.3910   27.0940   33.6010 O   0  0  0  0  0  0  0  0  0  0  0  0
   39.8890   27.3990   34.4100 H   0  0  0  0  0  0  0  0  0  0  0  0
   37.1360   27.9060   32.7930 O   0  0  0  0  0  0  0  0  0  0  0  0
   36.2480   27.7130   30.3120 O   0  0  0  0  0  0  0  0  0  0  0  0
   37.3030   28.3840   31.1880 P   0  0  1  0  0  0  0  0  0  0  0  0
   37.0010   30.0440   31.0410 O   0  0  0  0  0  0  0  0  0  0  0  0
   37.8740   30.4900   31.2590 H   0  0  0  0  0  0  0  0  0  0  0  0
   38.9030   28.0310   30.7200 O   0  0  0  0  0  0  0  0  0  0  0  0
   39.2760   27.9820   29.3810 C   0  0  0  0  0  0  0  0  0  0  0  0
   39.7390   26.8300   28.7050 C   0  0  0  0  0  0  0  0  0  0  0  0
   40.0720   26.9510   27.3600 C   0  0  0  0  0  0  0  0  0  0  0  0
   39.9370   28.1720   26.7580 N   0  0  0  0  0  0  0  0  0  0  0  0
   39.4890   29.2640   27.4310 C   0  0  0  0  0  0  0  0  0  0  0  0
   39.1560   29.1680   28.7520 N   0  0  0  0  0  0  0  0  0  0  0  0
   39.7930   25.9450   29.3050 H   0  0  0  0  0  0  0  0  0  0  0  0
   40.4170   26.0720   26.8730 H   0  0  0  0  0  0  0  0  0  0  0  0
   39.3850   30.2250   26.9470 H   0  0  0  0  0  0  0  0  0  0  0  0
   37.9950   24.0820   34.7270 O   0  0  0  0  0  0  0  0  0  0  0  0
   39.3640   22.8460   36.3800 C   0  0  0  0  0  0  0  0  0  0  0  0
   38.4150   23.7380   35.9620 C   0  0  0  0  0  0  0  0  0  0  0  0
   37.7290   24.4470   36.9570 C   0  0  0  0  0  0  0  0  0  0  0  0
   36.9430   25.1960   36.7860 H   0  0  0  0  0  0  0  0  0  0  0  0
   38.0040   24.2500   38.3160 C   0  0  0  0  0  3  0  0  0  0  0  0
   38.9680   23.3430   38.7060 C   0  0  0  0  0  3  0  0  0  0  0  0
   39.6260   22.6600   37.7130 C   0  0  0  0  0  0  0  0  0  0  0  0
   40.0180   22.1670   35.3930 O   0  0  0  0  0  0  0  0  0  0  0  0
   39.6680   21.2580   35.1200 H   0  0  0  0  0  0  0  0  0  0  0  0
   40.6090   21.7290   38.0360 O   0  0  0  0  0  0  0  0  0  0  0  0
   40.5830   20.7740   37.7000 H   0  0  0  0  0  0  0  0  0  0  0  0
  1  6  1  1  0  0  0
  2  7  1  1  0  0  0
  2  1  1  0  0  0  0
  3  4  1  0  0  0  0
  3  2  1  0  0  0  0
  4  8  1  0  0  0  0
  4  5  1  0  0  0  0
  5 10  1  6  0  0  0
  5  1  1  0  0  0  0
  5 28  1  0  0  0  0
  9  4  1  0  0  0  0
 11  1  1  0  0  0  0
 11 12  1  0  0  0  0
 13  2  1  0  0  0  0
 15 14  2  6  0  0  0
 15 13  1  0  0  0  0
 16 15  1  0  0  0  0
 16 17  1  0  0  0  0
 18 15  1  0  0  0  0
 19 18  1  0  0  0  0
 20 25  1  0  0  0  0
 20 19  2  0  0  0  0
 21 20  1  0  0  0  0
 22 21  2  0  0  0  0
 22 23  1  0  0  0  0
 23 24  2  0  0  0  0
 24 19  1  0  0  0  0
 26 21  1  0  0  0  0
 27 23  1  0  0  0  0
 28 30  1  0  0  0  0
 29 35  1  0  0  0  0
 30 29  2  0  0  0  0
 30 31  1  0  0  0  0
 31 33  2  0  0  0  0
 32 31  1  0  0  0  0
 33 34  1  0  0  0  0
 35 38  1  0  0  0  0
 35 34  2  0  0  0  0
 36 29  1  0  0  0  0
 37 36  1  0  0  0  0
 39 38  1  0  0  0  0
M  END
>  <minimizedAffinity>
-5.40095949

$$$$

 OpenBabel03272503513D

 39 41  0  0  1  0  0  0  0  0999 V2000
   36.9560   25.5330   31.6640 C   0  0  1  0  0  0  0  0  0  0  0  0
   38.0610   24.7410   32.3960 C   0  0  2  0  0  0  0  0  0  0  0  0
   39.1210   24.8100   31.5480 O   0  0  0  0  0  0  0  0  0  0  0  0
   39.1710   26.1470   31.1830 C   0  0  0  0  0  0  0  0  0  0  0  0
   37.7540   26.6680   31.0750 C   0  0  2  0  0  0  0  0  0  0  0  0
   36.2290   25.9170   32.4140 H   0  0  0  0  0  0  0  0  0  0  0  0
   38.1880   25.3190   33.3520 H   0  0  0  0  0  0  0  0  0  0  0  0
   39.6990   26.6840   32.0020 H   0  0  0  0  0  0  0  0  0  0  0  0
   39.7760   26.3060   30.2750 H   0  0  0  0  0  0  0  0  0  0  0  0
   37.4250   26.7240   30.0080 H   0  0  0  0  0  0  0  0  0  0  0  0
   36.3200   24.7290   30.7390 O   0  0  0  0  0  0  0  0  0  0  0  0
   35.3450   24.9320   30.6780 H   0  0  0  0  0  0  0  0  0  0  0  0
   37.5160   23.5020   32.5990 O   0  0  0  0  0  0  0  0  0  0  0  0
   38.8840   21.2580   32.3270 O   0  0  0  0  0  0  0  0  0  0  0  0
   38.5730   22.3940   33.2980 P   0  0  1  0  0  0  0  0  0  0  0  0
   40.0680   23.1310   33.6030 O   0  0  0  0  0  0  0  0  0  0  0  0
   39.9610   23.5820   34.4930 H   0  0  0  0  0  0  0  0  0  0  0  0
   37.8640   21.8710   34.7560 O   0  0  0  0  0  0  0  0  0  0  0  0
   38.2890   22.3590   35.9880 C   0  0  0  0  0  0  0  0  0  0  0  0
   37.4820   23.0760   36.9020 C   0  0  0  0  0  0  0  0  0  0  0  0
   38.0620   23.4960   38.0940 C   0  0  0  0  0  0  0  0  0  0  0  0
   39.3760   23.1960   38.3260 N   0  0  0  0  0  0  0  0  0  0  0  0
   40.1290   22.5060   37.4300 C   0  0  0  0  0  0  0  0  0  0  0  0
   39.5810   22.0840   36.2530 N   0  0  0  0  0  0  0  0  0  0  0  0
   36.4730   23.2360   36.5850 H   0  0  0  0  0  0  0  0  0  0  0  0
   37.4370   24.0320   38.7660 H   0  0  0  0  0  0  0  0  0  0  0  0
   41.1670   22.2730   37.6220 H   0  0  0  0  0  0  0  0  0  0  0  0
   37.6120   27.8020   31.8240 O   0  0  0  0  0  0  0  0  0  0  0  0
   35.8430   29.4400   31.2540 C   0  0  0  0  0  0  0  0  0  0  0  0
   36.5750   28.6270   32.0760 C   0  0  0  0  0  0  0  0  0  0  0  0
   36.2220   28.6130   33.4320 C   0  0  0  0  0  0  0  0  0  0  0  0
   36.7090   28.0160   34.2170 H   0  0  0  0  0  0  0  0  0  0  0  0
   35.1690   29.3960   33.9210 C   0  0  0  0  0  3  0  0  0  0  0  0
   34.4490   30.2050   33.0670 C   0  0  0  0  0  3  0  0  0  0  0  0
   34.8140   30.2030   31.7440 C   0  0  0  0  0  0  0  0  0  0  0  0
   36.2050   29.4370   29.9390 O   0  0  0  0  0  0  0  0  0  0  0  0
   36.8540   30.1440   29.6170 H   0  0  0  0  0  0  0  0  0  0  0  0
   34.1310   30.9970   30.8270 O   0  0  0  0  0  0  0  0  0  0  0  0
   34.6040   31.6590   30.2240 H   0  0  0  0  0  0  0  0  0  0  0  0
  1  2  1  0  0  0  0
  1  6  1  1  0  0  0
  2 13  1  0  0  0  0
  2  7  1  1  0  0  0
  3  2  1  0  0  0  0
  4  3  1  0  0  0  0
  4  8  1  0  0  0  0
  5 10  1  6  0  0  0
  5  4  1  0  0  0  0
  5  1  1  0  0  0  0
  5 28  1  0  0  0  0
  9  4  1  0  0  0  0
 11  1  1  0  0  0  0
 12 11  1  0  0  0  0
 13 15  1  0  0  0  0
 15 14  2  6  0  0  0
 15 16  1  0  0  0  0
 15 18  1  0  0  0  0
 16 17  1  0  0  0  0
 18 19  1  0  0  0  0
 19 24  2  0  0  0  0
 19 20  1  0  0  0  0
 20 21  2  0  0  0  0
 21 22  1  0  0  0  0
 21 26  1  0  0  0  0
 23 27  1  0  0  0  0
 23 22  2  0  0  0  0
 24 23  1  0  0  0  0
 25 20  1  0  0  0  0
 28 30  1  0  0  0  0
 29 35  2  0  0  0  0
 29 30  1  0  0  0  0
 30 31  2  0  0  0  0
 31 33  1  0  0  0  0
 31 32  1  0  0  0  0
 34 33  2  0  0  0  0
 35 34  1  0  0  0  0
 36 29  1  0  0  0  0
 37 36  1  0  0  0  0
 38 35  1  0  0  0  0
 39 38  1  0  0  0  0
M  END
>  <minimizedAffinity>
-5.39373207

$$$$

 OpenBabel03272503513D

 39 41  0  0  1  0  0  0  0  0999 V2000
   38.1790   26.8840   35.1020 C   0  0  1  0  0  0  0  0  0  0  0  0
   38.0100   26.9260   33.5680 C   0  0  2  0  0  0  0  0  0  0  0  0
   39.1300   27.5650   33.1390 O   0  0  0  0  0  0  0  0  0  0  0  0
   40.1570   26.9470   33.8370 C   0  0  0  0  0  0  0  0  0  0  0  0
   39.6560   26.6070   35.2240 C   0  0  2  0  0  0  0  0  0  0  0  0
   37.5890   26.0330   35.5090 H   0  0  0  0  0  0  0  0  0  0  0  0
   37.9600   25.8350   33.2960 H   0  0  0  0  0  0  0  0  0  0  0  0
   40.3970   26.0080   33.2920 H   0  0  0  0  0  0  0  0  0  0  0  0
   41.0820   27.5480   33.8310 H   0  0  0  0  0  0  0  0  0  0  0  0
   40.0230   27.3460   35.9790 H   0  0  0  0  0  0  0  0  0  0  0  0
   37.7640   28.0750   35.6650 O   0  0  0  0  0  0  0  0  0  0  0  0
   37.3180   27.9350   36.5460 H   0  0  0  0  0  0  0  0  0  0  0  0
   36.8200   27.5720   33.3720 O   0  0  0  0  0  0  0  0  0  0  0  0
   35.7470   29.1740   31.5660 O   0  0  0  0  0  0  0  0  0  0  0  0
   36.4350   27.8230   31.7540 P   0  0  1  0  0  0  0  0  0  0  0  0
   37.8500   27.9210   30.8280 O   0  0  0  0  0  0  0  0  0  0  0  0
   38.0910   26.9700   30.6170 H   0  0  0  0  0  0  0  0  0  0  0  0
   35.4880   26.5000   31.2480 O   0  0  0  0  0  0  0  0  0  0  0  0
   36.0210   25.2180   31.1560 C   0  0  0  0  0  0  0  0  0  0  0  0
   35.3430   24.0260   31.5050 C   0  0  0  0  0  0  0  0  0  0  0  0
   36.0200   22.8210   31.3530 C   0  0  0  0  0  0  0  0  0  0  0  0
   37.3020   22.8450   30.8770 N   0  0  0  0  0  0  0  0  0  0  0  0
   37.9300   24.0040   30.5490 C   0  0  0  0  0  0  0  0  0  0  0  0
   37.2850   25.1990   30.6900 N   0  0  0  0  0  0  0  0  0  0  0  0
   34.3440   24.1640   31.8640 H   0  0  0  0  0  0  0  0  0  0  0  0
   35.4910   21.9400   31.6200 H   0  0  0  0  0  0  0  0  0  0  0  0
   38.9440   24.0120   30.1720 H   0  0  0  0  0  0  0  0  0  0  0  0
   39.8820   25.2870   35.4950 O   0  0  0  0  0  0  0  0  0  0  0  0
   38.2640   23.7080   36.5060 C   0  0  0  0  0  0  0  0  0  0  0  0
   39.0910   24.1950   35.5310 C   0  0  0  0  0  0  0  0  0  0  0  0
   39.1630   23.4640   34.3380 C   0  0  0  0  0  0  0  0  0  0  0  0
   39.7780   23.7220   33.4640 H   0  0  0  0  0  0  0  0  0  0  0  0
   38.4230   22.2900   34.1540 C   0  0  0  0  0  3  0  0  0  0  0  0
   37.5970   21.8250   35.1560 C   0  0  0  0  0  3  0  0  0  0  0  0
   37.5430   22.5570   36.3160 C   0  0  0  0  0  0  0  0  0  0  0  0
   38.2090   24.4360   37.6590 O   0  0  0  0  0  0  0  0  0  0  0  0
   38.8210   24.1750   38.4220 H   0  0  0  0  0  0  0  0  0  0  0  0
   36.7300   22.1440   37.3680 O   0  0  0  0  0  0  0  0  0  0  0  0
   37.0850   22.0070   38.3060 H   0  0  0  0  0  0  0  0  0  0  0  0
  1  5  1  0  0  0  0
  1  6  1  1  0  0  0
  1 11  1  0  0  0  0
  2  7  1  6  0  0  0
  2  1  1  0  0  0  0
  3  2  1  0  0  0  0
  3  4  1  0  0  0  0
  4  5  1  0  0  0  0
  5 28  1  0  0  0  0
  5 10  1  1  0  0  0
  8  4  1  0  0  0  0
  9  4  1  0  0  0  0
 11 12  1  0  0  0  0
 13  2  1  0  0  0  0
 15 14  2  6  0  0  0
 15 13  1  0  0  0  0
 16 15  1  0  0  0  0
 17 16  1  0  0  0  0
 18 15  1  0  0  0  0
 19 18  1  0  0  0  0
 19 20  1  0  0  0  0
 20 25  1  0  0  0  0
 21 20  2  0  0  0  0
 21 26  1  0  0  0  0
 22 21  1  0  0  0  0
 23 24  1  0  0  0  0
 23 22  2  0  0  0  0
 24 19  2  0  0  0  0
 27 23  1  0  0  0  0
 28 30  1  0  0  0  0
 29 36  1  0  0  0  0
 30 29  2  0  0  0  0
 31 30  1  0  0  0  0
 32 31  1  0  0  0  0
 33 31  2  0  0  0  0
 33 34  1  0  0  0  0
 34 35  2  0  0  0  0
 35 29  1  0  0  0  0
 35 38  1  0  0  0  0
 36 37  1  0  0  0  0
 38 39  1  0  0  0  0
M  END
>  <minimizedAffinity>
-5.38737106

$$$$

 OpenBabel03272503513D

 39 41  0  0  1  0  0  0  0  0999 V2000
   39.2440   25.7930   34.3470 C   0  0  1  0  0  0  0  0  0  0  0  0
   38.5950   25.1270   35.5790 C   0  0  2  0  0  0  0  0  0  0  0  0
   38.3720   26.1670   36.4260 O   0  0  0  0  0  0  0  0  0  0  0  0
   37.7990   27.1390   35.6190 C   0  0  0  0  0  0  0  0  0  0  0  0
   38.4450   27.0680   34.2520 C   0  0  2  0  0  0  0  0  0  0  0  0
   39.0630   25.1550   33.4530 H   0  0  0  0  0  0  0  0  0  0  0  0
   37.6640   24.6650   35.1490 H   0  0  0  0  0  0  0  0  0  0  0  0
   36.7200   26.8860   35.5290 H   0  0  0  0  0  0  0  0  0  0  0  0
   37.8410   28.1380   36.0820 H   0  0  0  0  0  0  0  0  0  0  0  0
   39.2100   27.8740   34.1250 H   0  0  0  0  0  0  0  0  0  0  0  0
   40.5980   25.9700   34.5510 O   0  0  0  0  0  0  0  0  0  0  0  0
   41.1220   25.8340   33.7130 H   0  0  0  0  0  0  0  0  0  0  0  0
   39.5090   24.1910   35.9820 O   0  0  0  0  0  0  0  0  0  0  0  0
   39.9800   21.6240   36.3920 O   0  0  0  0  0  0  0  0  0  0  0  0
   39.0300   22.6020   35.7040 P   0  0  1  0  0  0  0  0  0  0  0  0
   37.5190   22.3170   36.4160 O   0  0  0  0  0  0  0  0  0  0  0  0
   36.8470   22.6320   35.7390 H   0  0  0  0  0  0  0  0  0  0  0  0
   38.9370   22.3900   34.0170 O   0  0  0  0  0  0  0  0  0  0  0  0
   37.7140   22.3060   33.3600 C   0  0  0  0  0  0  0  0  0  0  0  0
   37.2450   23.2210   32.3890 C   0  0  0  0  0  0  0  0  0  0  0  0
   35.9940   22.9920   31.8260 C   0  0  0  0  0  0  0  0  0  0  0  0
   35.2800   21.9000   32.2350 N   0  0  0  0  0  0  0  0  0  0  0  0
   35.7540   21.0360   33.1710 C   0  0  0  0  0  0  0  0  0  0  0  0
   36.9800   21.2410   33.7370 N   0  0  0  0  0  0  0  0  0  0  0  0
   37.9130   24.0280   32.1690 H   0  0  0  0  0  0  0  0  0  0  0  0
   35.6630   23.6920   31.0980 H   0  0  0  0  0  0  0  0  0  0  0  0
   35.1830   20.1740   33.4880 H   0  0  0  0  0  0  0  0  0  0  0  0
   37.4870   26.9720   33.2830 O   0  0  0  0  0  0  0  0  0  0  0  0
   37.3040   27.5500   30.8820 C   0  0  0  0  0  0  0  0  0  0  0  0
   37.1490   27.7400   32.2280 C   0  0  0  0  0  0  0  0  0  0  0  0
   36.5330   28.9320   32.6330 C   0  0  0  0  0  0  0  0  0  0  0  0
   36.3370   29.2330   33.6720 H   0  0  0  0  0  0  0  0  0  0  0  0
   36.0990   29.8830   31.7010 C   0  0  0  0  0  3  0  0  0  0  0  0
   36.2690   29.6620   30.3500 C   0  0  0  0  0  3  0  0  0  0  0  0
   36.8750   28.4870   29.9780 C   0  0  0  0  0  0  0  0  0  0  0  0
   37.9060   26.3820   30.5120 O   0  0  0  0  0  0  0  0  0  0  0  0
   38.9050   26.3850   30.3560 H   0  0  0  0  0  0  0  0  0  0  0  0
   37.0790   28.2000   28.6310 O   0  0  0  0  0  0  0  0  0  0  0  0
   37.9900   27.9640   28.2590 H   0  0  0  0  0  0  0  0  0  0  0  0
  1  6  1  6  0  0  0
  1 11  1  0  0  0  0
  1  2  1  0  0  0  0
  2  7  1  6  0  0  0
  2 13  1  0  0  0  0
  2  3  1  0  0  0  0
  4  9  1  0  0  0  0
  4  3  1  0  0  0  0
  5 10  1  6  0  0  0
  5  1  1  0  0  0  0
  5  4  1  0  0  0  0
  8  4  1  0  0  0  0
 12 11  1  0  0  0  0
 15 13  1  0  0  0  0
 15 14  2  1  0  0  0
 15 16  1  0  0  0  0
 17 16  1  0  0  0  0
 18 15  1  0  0  0  0
 19 24  1  0  0  0  0
 19 18  1  0  0  0  0
 20 19  2  0  0  0  0
 21 22  2  0  0  0  0
 21 20  1  0  0  0  0
 22 23  1  0  0  0  0
 23 27  1  0  0  0  0
 23 24  2  0  0  0  0
 25 20  1  0  0  0  0
 26 21  1  0  0  0  0
 28  5  1  0  0  0  0
 29 30  1  0  0  0  0
 30 31  2  0  0  0  0
 30 28  1  0  0  0  0
 31 32  1  0  0  0  0
 33 31  1  0  0  0  0
 34 33  2  0  0  0  0
 35 34  1  0  0  0  0
 35 29  2  0  0  0  0
 36 29  1  0  0  0  0
 37 36  1  0  0  0  0
 38 35  1  0  0  0  0
 39 38  1  0  0  0  0
M  END
>  <minimizedAffinity>
-5.38592243

$$$$
