
 OpenBabel03272509183D

 35 37  0  0  0  0  0  0  0  0999 V2000
   38.1660   31.2380   47.9350 C   0  0  0  0  0  0  0  0  0  0  0  0
   37.2520   31.5480   48.9280 C   0  0  0  0  0  0  0  0  0  0  0  0
   37.4350   32.8130   49.4970 C   0  0  0  0  0  0  0  0  0  0  0  0
   38.4570   33.6720   49.0820 C   0  0  0  0  0  0  0  0  0  0  0  0
   39.3310   33.2620   48.0650 C   0  0  0  0  0  0  0  0  0  0  0  0
   39.1620   32.0250   47.5010 C   0  0  0  0  0  0  0  0  0  0  0  0
   36.7810   33.1710   50.2870 H   0  0  0  0  0  0  0  0  0  0  0  0
   38.5800   34.6480   49.5360 H   0  0  0  0  0  0  0  0  0  0  0  0
   40.1150   33.9520   47.7660 H   0  0  0  0  0  0  0  0  0  0  0  0
   35.0640   30.4940   48.5550 C   0  0  0  0  0  0  0  0  0  0  0  0
   36.2040   30.6740   49.3580 C   0  0  0  0  0  0  0  0  0  0  0  0
   36.2590   29.9760   50.5610 C   0  0  0  0  0  0  0  0  0  0  0  0
   35.2150   29.1660   50.8900 N   0  0  0  0  0  0  0  0  0  0  0  0
   34.1330   29.0220   50.0820 C   0  0  0  0  0  0  0  0  0  0  0  0
   34.0630   29.6820   48.9250 N   0  0  0  0  0  0  0  0  0  0  0  0
   35.0460   31.0460   47.6280 H   0  0  0  0  0  0  0  0  0  0  0  0
   33.3070   28.3740   50.3530 H   0  0  0  0  0  0  0  0  0  0  0  0
   37.4350   30.1250   51.4510 C   0  0  0  0  0  0  0  0  0  0  0  0
   38.3170   30.2050   50.7920 H   0  0  0  0  0  0  0  0  0  0  0  0
   37.4650   29.2180   52.0880 H   0  0  0  0  0  0  0  0  0  0  0  0
   37.3460   30.9970   52.1200 H   0  0  0  0  0  0  0  0  0  0  0  0
   38.0570   29.9790   47.3040 O   0  0  0  0  0  0  0  0  0  0  0  0
   37.1680   29.7520   46.8590 H   0  0  0  0  0  0  0  0  0  0  0  0
   40.0530   31.6510   46.4910 O   0  0  0  0  0  0  0  0  0  0  0  0
   39.5040   32.8610   44.3610 C   0  0  0  0  0  0  0  0  0  0  0  0
   39.5730   31.7550   45.1810 C   0  0  0  0  0  0  0  0  0  0  0  0
   39.1280   30.5220   44.7310 C   0  0  0  0  0  0  0  0  0  0  0  0
   39.1320   29.5800   45.2840 H   0  0  0  0  0  0  0  0  0  0  0  0
   38.6050   30.3680   43.4550 C   0  0  0  0  0  3  0  0  0  0  0  0
   38.5370   31.4800   42.6380 C   0  0  0  0  0  3  0  0  0  0  0  0
   38.9800   32.6910   43.0940 C   0  0  0  0  0  0  0  0  0  0  0  0
   39.9820   34.0140   44.9410 O   0  0  0  0  0  0  0  0  0  0  0  0
   40.8670   34.4370   44.7240 H   0  0  0  0  0  0  0  0  0  0  0  0
   38.9390   33.8440   42.3210 O   0  0  0  0  0  0  0  0  0  0  0  0
   39.7020   34.1520   41.7500 H   0  0  0  0  0  0  0  0  0  0  0  0
  1  2  1  0  0  0  0
  2 11  1  0  0  0  0
  2  3  2  0  0  0  0
  3  7  1  0  0  0  0
  4  3  1  0  0  0  0
  4  8  1  0  0  0  0
  5  4  2  0  0  0  0
  6  1  2  0  0  0  0
  6  5  1  0  0  0  0
  9  5  1  0  0  0  0
 10 15  2  0  0  0  0
 10 11  1  0  0  0  0
 11 12  2  0  0  0  0
 12 13  1  0  0  0  0
 12 18  1  0  0  0  0
 14 17  1  0  0  0  0
 14 13  2  0  0  0  0
 15 14  1  0  0  0  0
 16 10  1  0  0  0  0
 18 20  1  0  0  0  0
 18 21  1  0  0  0  0
 19 18  1  0  0  0  0
 22  1  1  0  0  0  0
 23 22  1  0  0  0  0
 24  6  1  0  0  0  0
 25 32  1  0  0  0  0
 25 26  1  0  0  0  0
 26 24  1  0  0  0  0
 27 26  2  0  0  0  0
 27 28  1  0  0  0  0
 29 27  1  0  0  0  0
 30 31  1  0  0  0  0
 30 29  2  0  0  0  0
 31 25  2  0  0  0  0
 33 32  1  0  0  0  0
 34 31  1  0  0  0  0
 35 34  1  0  0  0  0
M  END
>  <minimizedAffinity>
-6.57522631

>  <minimizedRMSD>
0.821356535

$$$$
