
 OpenBabel03272509183D

 35 37  0  0  0  0  0  0  0  0999 V2000
   38.2210   31.2590   47.8320 C   0  0  0  0  0  0  0  0  0  0  0  0
   37.3490   31.5480   48.8680 C   0  0  0  0  0  0  0  0  0  0  0  0
   37.5750   32.7890   49.4730 C   0  0  0  0  0  0  0  0  0  0  0  0
   38.5960   33.6460   49.0500 C   0  0  0  0  0  0  0  0  0  0  0  0
   39.4250   33.2580   47.9890 C   0  0  0  0  0  0  0  0  0  0  0  0
   39.2140   32.0440   47.3890 C   0  0  0  0  0  0  0  0  0  0  0  0
   36.9560   33.1300   50.2990 H   0  0  0  0  0  0  0  0  0  0  0  0
   38.7520   34.6030   49.5330 H   0  0  0  0  0  0  0  0  0  0  0  0
   40.2090   33.9460   47.6840 H   0  0  0  0  0  0  0  0  0  0  0  0
   35.1670   30.4810   48.5020 C   0  0  0  0  0  0  0  0  0  0  0  0
   36.3030   30.6760   49.3060 C   0  0  0  0  0  0  0  0  0  0  0  0
   36.3560   29.9950   50.5190 C   0  0  0  0  0  0  0  0  0  0  0  0
   35.3140   29.1860   50.8560 N   0  0  0  0  0  0  0  0  0  0  0  0
   34.2360   29.0270   50.0450 C   0  0  0  0  0  0  0  0  0  0  0  0
   34.1670   29.6710   48.8790 N   0  0  0  0  0  0  0  0  0  0  0  0
   35.1500   31.0200   47.5670 H   0  0  0  0  0  0  0  0  0  0  0  0
   33.4110   28.3790   50.3230 H   0  0  0  0  0  0  0  0  0  0  0  0
   37.5280   30.1610   51.4120 C   0  0  0  0  0  0  0  0  0  0  0  0
   38.4120   30.2350   50.7550 H   0  0  0  0  0  0  0  0  0  0  0  0
   37.5590   29.2630   52.0610 H   0  0  0  0  0  0  0  0  0  0  0  0
   37.4330   31.0420   52.0680 H   0  0  0  0  0  0  0  0  0  0  0  0
   38.0680   30.0250   47.1620 O   0  0  0  0  0  0  0  0  0  0  0  0
   37.1590   29.8270   46.7430 H   0  0  0  0  0  0  0  0  0  0  0  0
   40.0610   31.6930   46.3340 O   0  0  0  0  0  0  0  0  0  0  0  0
   38.3440   32.4260   44.6570 C   0  0  0  0  0  0  0  0  0  0  0  0
   39.5510   31.8870   45.0470 C   0  0  0  0  0  0  0  0  0  0  0  0
   40.4580   31.4450   44.0950 C   0  0  0  0  0  0  0  0  0  0  0  0
   41.4390   31.0020   44.2800 H   0  0  0  0  0  0  0  0  0  0  0  0
   40.1790   31.5310   42.7390 C   0  0  0  0  0  3  0  0  0  0  0  0
   38.9660   32.0730   42.3560 C   0  0  0  0  0  3  0  0  0  0  0  0
   38.0800   32.5070   43.3040 C   0  0  0  0  0  0  0  0  0  0  0  0
   37.5470   32.8220   45.7080 O   0  0  0  0  0  0  0  0  0  0  0  0
   37.4000   33.7760   45.9860 H   0  0  0  0  0  0  0  0  0  0  0  0
   36.8470   33.0590   42.9810 O   0  0  0  0  0  0  0  0  0  0  0  0
   36.6990   34.0420   42.8670 H   0  0  0  0  0  0  0  0  0  0  0  0
  1  2  1  0  0  0  0
  2 11  1  0  0  0  0
  2  3  2  0  0  0  0
  3  7  1  0  0  0  0
  4  3  1  0  0  0  0
  4  8  1  0  0  0  0
  5  4  2  0  0  0  0
  6  1  2  0  0  0  0
  6  5  1  0  0  0  0
  9  5  1  0  0  0  0
 10 15  2  0  0  0  0
 10 11  1  0  0  0  0
 11 12  2  0  0  0  0
 12 13  1  0  0  0  0
 12 18  1  0  0  0  0
 14 17  1  0  0  0  0
 14 13  2  0  0  0  0
 15 14  1  0  0  0  0
 16 10  1  0  0  0  0
 18 20  1  0  0  0  0
 18 21  1  0  0  0  0
 19 18  1  0  0  0  0
 22  1  1  0  0  0  0
 23 22  1  0  0  0  0
 24  6  1  0  0  0  0
 25 26  1  0  0  0  0
 25 32  1  0  0  0  0
 26 24  1  0  0  0  0
 27 28  1  0  0  0  0
 27 26  2  0  0  0  0
 29 27  1  0  0  0  0
 30 29  2  0  0  0  0
 30 31  1  0  0  0  0
 31 25  2  0  0  0  0
 32 33  1  0  0  0  0
 34 31  1  0  0  0  0
 35 34  1  0  0  0  0
M  END
>  <minimizedAffinity>
-7.06245804

>  <minimizedRMSD>
0.879416406

$$$$
