
 OpenBabel03272503503D

 39 41  0  0  1  0  0  0  0  0999 V2000
   33.2580   27.2740   45.8240 C   0  0  1  0  0  0  0  0  0  0  0  0
   33.9080   27.4340   47.2150 C   0  0  2  0  0  0  0  0  0  0  0  0
   33.7170   26.2210   47.7990 O   0  0  0  0  0  0  0  0  0  0  0  0
   34.0860   25.3140   46.8170 C   0  0  0  0  0  0  0  0  0  0  0  0
   33.6650   25.8660   45.4720 C   0  0  2  0  0  0  0  0  0  0  0  0
   33.7240   28.0010   45.1210 H   0  0  0  0  0  0  0  0  0  0  0  0
   34.9790   27.6680   46.9620 H   0  0  0  0  0  0  0  0  0  0  0  0
   35.1950   25.2370   46.8520 H   0  0  0  0  0  0  0  0  0  0  0  0
   33.7030   24.3010   47.0250 H   0  0  0  0  0  0  0  0  0  0  0  0
   32.7240   25.3800   45.1130 H   0  0  0  0  0  0  0  0  0  0  0  0
   31.8950   27.4830   45.9030 O   0  0  0  0  0  0  0  0  0  0  0  0
   31.5420   27.9470   45.0940 H   0  0  0  0  0  0  0  0  0  0  0  0
   33.2570   28.4980   47.7780 O   0  0  0  0  0  0  0  0  0  0  0  0
   35.3370   29.7870   46.7840 O   0  0  0  0  0  0  0  0  0  0  0  0
   34.0660   29.9630   47.6120 P   0  0  1  0  0  0  0  0  0  0  0  0
   33.1170   31.0540   46.7290 O   0  0  0  0  0  0  0  0  0  0  0  0
   32.5050   31.4750   47.4040 H   0  0  0  0  0  0  0  0  0  0  0  0
   34.3510   30.5640   49.1800 O   0  0  0  0  0  0  0  0  0  0  0  0
   35.5990   30.4560   49.7850 C   0  0  0  0  0  0  0  0  0  0  0  0
   35.9820   29.4360   50.6870 C   0  0  0  0  0  0  0  0  0  0  0  0
   37.2730   29.4740   51.2050 C   0  0  0  0  0  0  0  0  0  0  0  0
   38.1050   30.4890   50.8200 N   0  0  0  0  0  0  0  0  0  0  0  0
   37.7110   31.4560   49.9520 C   0  0  0  0  0  0  0  0  0  0  0  0
   36.4490   31.4400   49.4310 N   0  0  0  0  0  0  0  0  0  0  0  0
   35.2250   28.7090   50.8950 H   0  0  0  0  0  0  0  0  0  0  0  0
   37.5390   28.6970   51.8800 H   0  0  0  0  0  0  0  0  0  0  0  0
   38.3760   32.2550   49.6530 H   0  0  0  0  0  0  0  0  0  0  0  0
   34.7250   25.8670   44.6110 O   0  0  0  0  0  0  0  0  0  0  0  0
   36.1700   24.0020   43.8590 C   0  0  0  0  0  0  0  0  0  0  0  0
   35.2090   24.9680   43.7300 C   0  0  0  0  0  0  0  0  0  0  0  0
   34.5880   25.0830   42.4790 C   0  0  0  0  0  0  0  0  0  0  0  0
   33.8020   25.8050   42.2170 H   0  0  0  0  0  0  0  0  0  0  0  0
   34.9370   24.2470   41.4110 C   0  0  0  0  0  0  0  0  0  0  0  0
   35.9090   23.2820   41.5720 C   0  0  0  0  0  0  0  0  0  0  0  0
   36.5040   23.1890   42.8060 C   0  0  0  0  0  0  0  0  0  0  0  0
   36.7610   23.9090   45.0850 O   0  0  0  0  0  0  0  0  0  0  0  0
   37.6250   24.4120   45.2420 H   0  0  0  0  0  0  0  0  0  0  0  0
   37.4930   22.2370   43.0370 O   0  0  0  0  0  0  0  0  0  0  0  0
   38.4060   22.4810   43.4000 H   0  0  0  0  0  0  0  0  0  0  0  0
  1  6  1  6  0  0  0
  1 11  1  0  0  0  0
  1  2  1  0  0  0  0
  2  7  1  6  0  0  0
  2 13  1  0  0  0  0
  2  3  1  0  0  0  0
  4  8  1  0  0  0  0
  4  9  1  0  0  0  0
  4  3  1  0  0  0  0
  5 10  1  6  0  0  0
  5  1  1  0  0  0  0
  5  4  1  0  0  0  0
 12 11  1  0  0  0  0
 15 14  2  6  0  0  0
 15 13  1  0  0  0  0
 15 18  1  0  0  0  0
 16 17  1  0  0  0  0
 16 15  1  0  0  0  0
 18 19  1  0  0  0  0
 19 20  1  0  0  0  0
 20 25  1  0  0  0  0
 20 21  2  0  0  0  0
 21 26  1  0  0  0  0
 22 21  1  0  0  0  0
 23 22  2  0  0  0  0
 24 19  2  0  0  0  0
 24 23  1  0  0  0  0
 27 23  1  0  0  0  0
 28  5  1  0  0  0  0
 29 36  1  0  0  0  0
 30 29  1  0  0  0  0
 30 28  1  0  0  0  0
 31 30  2  0  0  0  0
 32 31  1  0  0  0  0
 33 34  2  0  0  0  0
 33 31  1  0  0  0  0
 34 35  1  0  0  0  0
 35 38  1  0  0  0  0
 35 29  2  0  0  0  0
 36 37  1  0  0  0  0
 38 39  1  0  0  0  0
M  END
>  <minimizedAffinity>
-4.16815901

>  <minimizedRMSD>
1.27765453

$$$$
