
 OpenBabel03272509183D

 35 37  0  0  0  0  0  0  0  0999 V2000
   37.8370   31.1270   48.0970 C   0  0  0  0  0  0  0  0  0  0  0  0
   37.1520   31.5080   49.2380 C   0  0  0  0  0  0  0  0  0  0  0  0
   37.5090   32.7710   49.7230 C   0  0  0  0  0  0  0  0  0  0  0  0
   38.4750   33.5620   49.0930 C   0  0  0  0  0  0  0  0  0  0  0  0
   39.1110   33.0830   47.9400 C   0  0  0  0  0  0  0  0  0  0  0  0
   38.7710   31.8470   47.4560 C   0  0  0  0  0  0  0  0  0  0  0  0
   37.0410   33.1810   50.6140 H   0  0  0  0  0  0  0  0  0  0  0  0
   38.7350   34.5370   49.4850 H   0  0  0  0  0  0  0  0  0  0  0  0
   39.8570   33.7210   47.4730 H   0  0  0  0  0  0  0  0  0  0  0  0
   34.8520   30.6560   49.3840 C   0  0  0  0  0  0  0  0  0  0  0  0
   36.1630   30.7040   49.8890 C   0  0  0  0  0  0  0  0  0  0  0  0
   36.4430   29.9480   51.0250 C   0  0  0  0  0  0  0  0  0  0  0  0
   35.4400   29.2120   51.5780 N   0  0  0  0  0  0  0  0  0  0  0  0
   34.1860   29.1960   51.0540 C   0  0  0  0  0  0  0  0  0  0  0  0
   33.9000   29.9130   49.9660 N   0  0  0  0  0  0  0  0  0  0  0  0
   34.6620   31.2490   48.5030 H   0  0  0  0  0  0  0  0  0  0  0  0
   33.3940   28.6050   51.5020 H   0  0  0  0  0  0  0  0  0  0  0  0
   37.8070   29.9590   51.6040 C   0  0  0  0  0  0  0  0  0  0  0  0
   38.5070   29.9970   50.7530 H   0  0  0  0  0  0  0  0  0  0  0  0
   37.9060   29.0240   52.1920 H   0  0  0  0  0  0  0  0  0  0  0  0
   37.9610   30.8040   52.2970 H   0  0  0  0  0  0  0  0  0  0  0  0
   37.5420   29.8640   47.5370 O   0  0  0  0  0  0  0  0  0  0  0  0
   36.5720   29.6800   47.2790 H   0  0  0  0  0  0  0  0  0  0  0  0
   39.4270   31.4040   46.3040 O   0  0  0  0  0  0  0  0  0  0  0  0
   39.4710   32.7230   44.1690 C   0  0  0  0  0  0  0  0  0  0  0  0
   38.9090   31.8630   45.0880 C   0  0  0  0  0  0  0  0  0  0  0  0
   37.6530   31.3230   44.8630 C   0  0  0  0  0  0  0  0  0  0  0  0
   37.1080   30.6340   45.5130 H   0  0  0  0  0  0  0  0  0  0  0  0
   36.9320   31.6280   43.7190 C   0  0  0  0  0  3  0  0  0  0  0  0
   37.5000   32.4920   42.8000 C   0  0  0  0  0  3  0  0  0  0  0  0
   38.7410   33.0180   43.0340 C   0  0  0  0  0  0  0  0  0  0  0  0
   40.7200   33.1790   44.5250 O   0  0  0  0  0  0  0  0  0  0  0  0
   41.5820   32.8610   44.1170 H   0  0  0  0  0  0  0  0  0  0  0  0
   39.3650   33.8900   42.1500 O   0  0  0  0  0  0  0  0  0  0  0  0
   39.9910   33.5890   41.4300 H   0  0  0  0  0  0  0  0  0  0  0  0
  1  2  1  0  0  0  0
  2  3  2  0  0  0  0
  2 11  1  0  0  0  0
  3  7  1  0  0  0  0
  4  8  1  0  0  0  0
  4  3  1  0  0  0  0
  5  4  2  0  0  0  0
  6  5  1  0  0  0  0
  6  1  2  0  0  0  0
  9  5  1  0  0  0  0
 10 11  2  0  0  0  0
 10 15  1  0  0  0  0
 11 12  1  0  0  0  0
 12 13  2  0  0  0  0
 12 18  1  0  0  0  0
 14 17  1  0  0  0  0
 14 13  1  0  0  0  0
 15 14  2  0  0  0  0
 16 10  1  0  0  0  0
 18 20  1  0  0  0  0
 18 21  1  0  0  0  0
 19 18  1  0  0  0  0
 22  1  1  0  0  0  0
 23 22  1  0  0  0  0
 24  6  1  0  0  0  0
 25 32  1  0  0  0  0
 25 26  1  0  0  0  0
 26 24  1  0  0  0  0
 27 26  2  0  0  0  0
 27 28  1  0  0  0  0
 29 27  1  0  0  0  0
 30 31  1  0  0  0  0
 30 29  2  0  0  0  0
 31 25  2  0  0  0  0
 33 32  1  0  0  0  0
 34 31  1  0  0  0  0
 35 34  1  0  0  0  0
M  END
>  <minimizedAffinity>
-5.89736271

>  <minimizedRMSD>
1.11699474

$$$$
