
     RDKit          3D

 38 40  0  0  0  0  0  0  0  0999 V2000
   34.7605   29.4253   48.7973 C   0  0  0  0  0  0  0  0  0  0  0  0
   34.2159   30.0630   47.6680 C   0  0  0  0  0  0  0  0  0  0  0  0
   33.4753   29.2546   46.7805 C   0  0  0  0  0  0  0  0  0  0  0  0
   33.3291   27.9126   47.0631 N   0  0  0  0  0  0  0  0  0  0  0  0
   33.8815   27.3509   48.1757 C   0  0  0  0  0  0  0  0  0  0  0  0
   34.5763   28.1230   49.0031 N   0  0  0  0  0  0  0  0  0  0  0  0
   35.5203   30.2838   49.7253 C   0  0  2  0  0  0  0  0  0  0  0  0
   36.4955   31.1626   48.9579 C   0  0  0  0  0  0  0  0  0  0  0  0
   37.9312   30.7773   49.1675 C   0  0  0  0  0  0  0  0  0  0  0  0
   38.3030   30.8077   50.6193 C   0  0  0  0  0  0  0  0  0  0  0  0
   37.2993   30.1385   51.4985 C   0  0  0  0  0  0  0  0  0  0  0  0
   36.1972   29.4297   50.7348 C   0  0  1  0  0  0  0  0  0  0  0  0
   34.3013   31.1012   47.4047 H   0  0  0  0  0  0  0  0  0  0  0  0
   33.0011   29.6099   45.8745 H   0  0  0  0  0  0  0  0  0  0  0  0
   33.6842   26.2974   48.2639 H   0  0  0  0  0  0  0  0  0  0  0  0
   34.7740   31.0050   50.1391 H   0  0  0  0  0  0  0  0  0  0  0  0
   36.4060   32.2258   49.2397 H   0  0  0  0  0  0  0  0  0  0  0  0
   36.2929   31.0857   47.8697 H   0  0  0  0  0  0  0  0  0  0  0  0
   38.0971   29.7162   48.8331 H   0  0  0  0  0  0  0  0  0  0  0  0
   38.5505   31.4914   48.6286 H   0  0  0  0  0  0  0  0  0  0  0  0
   39.3302   30.4184   50.7399 H   0  0  0  0  0  0  0  0  0  0  0  0
   38.3419   31.8907   50.9233 H   0  0  0  0  0  0  0  0  0  0  0  0
   37.8373   29.3326   52.0676 H   0  0  0  0  0  0  0  0  0  0  0  0
   36.8661   30.8069   52.2676 H   0  0  0  0  0  0  0  0  0  0  0  0
   36.6732   28.5590   50.2209 H   0  0  0  0  0  0  0  0  0  0  0  0
   36.6765   27.2721   52.6963 O   0  0  0  0  0  0  0  0  0  0  0  0
   35.4501   27.9135   52.7013 C   0  0  0  0  0  0  0  0  0  0  0  0
   35.2754   28.9235   51.7841 C   0  0  0  0  0  0  0  0  0  0  0  0
   34.0643   29.6231   51.7303 C   0  0  0  0  0  0  0  0  0  0  0  0
   33.7935   30.4326   51.0661 H   0  0  0  0  0  0  0  0  0  0  0  0
   33.0216   29.3008   52.6071 C   0  0  0  0  0  0  0  0  0  0  0  0
   33.1978   28.2874   53.5251 C   0  0  0  0  0  0  0  0  0  0  0  0
   34.4139   27.6074   53.5575 C   0  0  0  0  0  0  0  0  0  0  0  0
   34.6173   26.5828   54.4724 O   0  0  0  0  0  0  0  0  0  0  0  0
   37.0936   26.9411   53.5756 H   0  0  0  0  0  0  0  0  0  0  0  0
   32.0663   29.8060   52.6112 H   0  0  0  0  0  0  0  0  0  0  0  0
   32.4486   27.9745   54.2357 H   0  0  0  0  0  0  0  0  0  0  0  0
   35.2637   26.7078   55.2620 H   0  0  0  0  0  0  0  0  0  0  0  0
  1  6  1  0
  1  7  1  0
  2  1  2  0
  3  4  2  0
  3  2  1  0
  4  5  1  0
  5  6  2  0
  7 12  1  0
  8  9  1  0
  8  7  1  0
  9 10  1  0
 10 11  1  0
 12 11  1  0
  2 13  1  0
  3 14  1  0
  5 15  1  0
  7 16  1  1
  8 17  1  0
  8 18  1  0
  9 19  1  0
  9 20  1  0
 10 21  1  0
 10 22  1  0
 11 23  1  0
 11 24  1  0
 12 25  1  6
 26 27  1  0
 27 28  2  0
 28 29  1  0
 29 30  1  0
 29 31  2  0
 31 32  1  0
 32 33  2  0
 33 34  1  0
 33 27  1  0
 26 35  1  0
 31 36  1  0
 32 37  1  0
 34 38  1  0
 12 28  1  0
M  ISO  8  13  14  14  14  15  14  16  13  17  13  18  13  19  13  20  13
M  ISO  6  21  13  22  13  23  13  24  13  25  13  30  16
M  END
>  <DihAtoms>  (1) 
6,11,27,26

>  <DihDeg>  (1) 
120.00034678176522

$$$$
