
 OpenBabel03272508063D

 37 40  0  0  0  0  0  0  0  0999 V2000
   38.9060   30.8950   45.7750 C   0  0  0  0  0  0  0  0  0  0  0  0
   40.0920   31.5660   46.0350 C   0  0  0  0  0  0  0  0  0  0  0  0
   40.9310   31.5060   44.9300 C   0  0  0  0  0  0  0  0  0  0  0  0
   40.2070   30.7920   44.0380 N   0  0  0  0  0  0  0  0  0  0  0  0
   39.0260   30.4320   44.5220 N   0  0  0  0  0  0  0  0  0  0  0  0
   40.3650   32.0770   46.9530 H   0  0  0  0  0  0  0  0  0  0  0  0
   41.9030   31.8950   44.7520 H   0  0  0  0  0  0  0  0  0  0  0  0
   37.7930   30.7470   46.6900 C   0  0  0  0  0  0  0  0  0  0  0  0
   38.0130   30.9660   48.0770 C   0  0  0  0  0  0  0  0  0  0  0  0
   36.9180   30.8160   48.9280 C   0  0  0  0  0  0  0  0  0  0  0  0
   35.7170   30.4730   48.3900 N   0  0  0  0  0  0  0  0  0  0  0  0
   35.5370   30.2700   47.0660 C   0  0  0  0  0  0  0  0  0  0  0  0
   36.5840   30.4110   46.2270 N   0  0  0  0  0  0  0  0  0  0  0  0
   38.9640   31.2360   48.4790 H   0  0  0  0  0  0  0  0  0  0  0  0
   34.5570   29.9990   46.6990 H   0  0  0  0  0  0  0  0  0  0  0  0
   37.1270   31.0420   50.3880 C   0  0  0  0  0  0  0  0  0  0  0  0
   36.6040   32.2890   50.6440 F   0  0  0  0  0  0  0  0  0  0  0  0
   36.4480   30.1150   51.1630 F   0  0  0  0  0  0  0  0  0  0  0  0
   38.4690   31.0550   50.7230 F   0  0  0  0  0  0  0  0  0  0  0  0
   40.5750   30.4030   42.6710 C   0  0  0  0  0  0  0  0  0  0  0  0
   40.2150   31.1850   41.5650 C   0  0  0  0  0  0  0  0  0  0  0  0
   40.5750   30.7960   40.3200 C   0  0  0  0  0  0  0  0  0  0  0  0
   41.3130   29.5960   40.1700 C   0  0  0  0  0  0  0  0  0  0  0  0
   41.4880   29.0150   41.9220 S   0  0  0  0  0  0  0  0  0  0  0  0
   39.6450   32.1150   41.6540 H   0  0  0  0  0  0  0  0  0  0  0  0
   40.3960   31.2530   39.3680 H   0  0  0  0  0  0  0  0  0  0  0  0
   41.1270   27.8340   38.5530 C   0  0  0  0  0  0  0  0  0  0  0  0
   41.8640   28.8620   39.0940 C   0  0  0  0  0  0  0  0  0  0  0  0
   43.1140   29.2500   38.6760 C   0  0  0  0  0  0  0  0  0  0  0  0
   43.6530   30.0570   39.1260 H   0  0  0  0  0  0  0  0  0  0  0  0
   43.7000   28.5510   37.6120 C   0  0  0  0  0  3  0  0  0  0  0  0
   42.9900   27.4960   37.0290 C   0  0  0  0  0  3  0  0  0  0  0  0
   41.7180   27.1390   37.4910 C   0  0  0  0  0  0  0  0  0  0  0  0
   39.8660   27.4440   38.9790 O   0  0  0  0  0  0  0  0  0  0  0  0
   39.0090   27.8880   38.7000 H   0  0  0  0  0  0  0  0  0  0  0  0
   41.0050   26.0930   36.9190 O   0  0  0  0  0  0  0  0  0  0  0  0
   40.6510   26.2280   35.9740 H   0  0  0  0  0  0  0  0  0  0  0  0
  1  2  1  0  0  0  0
  1  8  1  0  0  0  0
  2  6  1  0  0  0  0
  3  2  2  0  0  0  0
  4  5  1  0  0  0  0
  4  3  1  0  0  0  0
  5  1  2  0  0  0  0
  7  3  1  0  0  0  0
  8  9  1  0  0  0  0
  9 14  1  0  0  0  0
  9 10  2  0  0  0  0
 10 16  1  0  0  0  0
 11 10  1  0  0  0  0
 12 11  2  0  0  0  0
 13  8  2  0  0  0  0
 13 12  1  0  0  0  0
 15 12  1  0  0  0  0
 16 17  1  0  0  0  0
 16 19  1  0  0  0  0
 16 18  1  0  0  0  0
 20  4  1  0  0  0  0
 21 25  1  0  0  0  0
 21 20  2  0  0  0  0
 22 21  1  0  0  0  0
 23 22  2  0  0  0  0
 23 24  1  0  0  0  0
 24 20  1  0  0  0  0
 26 22  1  0  0  0  0
 27 34  1  0  0  0  0
 27 28  1  0  0  0  0
 28 23  1  0  0  0  0
 29 28  2  0  0  0  0
 29 30  1  0  0  0  0
 31 29  1  0  0  0  0
 32 33  1  0  0  0  0
 32 31  2  0  0  0  0
 33 27  2  0  0  0  0
 35 34  1  0  0  0  0
 36 33  1  0  0  0  0
 37 36  1  0  0  0  0
M  END
>  <minimizedAffinity>
-6.39199543

>  <minimizedRMSD>
0.118358031

$$$$
