
 OpenBabel03272500083D

 41 44  0  0  0  0  0  0  0  0999 V2000
   31.1550   27.5690   48.2710 C   0  0  0  0  0  0  0  0  0  0  0  0
   30.8140   27.6860   49.6100 C   0  0  0  0  0  0  0  0  0  0  0  0
   29.5480   28.0830   49.9800 C   0  0  0  0  0  0  0  0  0  0  0  0
   28.6080   28.3670   48.9930 C   0  0  0  0  0  0  0  0  0  0  0  0
   28.9620   28.2440   47.6520 C   0  0  0  0  0  0  0  0  0  0  0  0
   30.2190   27.8510   47.3030 C   0  0  0  0  0  0  0  0  0  0  0  0
   31.5090   27.4780   50.4130 H   0  0  0  0  0  0  0  0  0  0  0  0
   29.2920   28.1710   51.0300 H   0  0  0  0  0  0  0  0  0  0  0  0
   27.6120   28.6790   49.2660 H   0  0  0  0  0  0  0  0  0  0  0  0
   28.2290   28.4660   46.8860 H   0  0  0  0  0  0  0  0  0  0  0  0
   30.9640   28.9590   45.4010 C   0  0  0  0  0  0  0  0  0  0  0  0
   30.5920   27.7180   45.9180 C   0  0  0  0  0  0  0  0  0  0  0  0
   30.6440   26.6300   45.0710 C   0  0  0  0  0  0  0  0  0  0  0  0
   30.3340   25.7250   45.5840 H   0  0  0  0  0  0  0  0  0  0  0  0
   31.0490   26.7710   43.7610 C   0  0  0  0  0  0  0  0  0  0  0  0
   31.4170   27.9990   43.2500 C   0  0  0  0  0  0  0  0  0  0  0  0
   31.3760   29.1060   44.0720 C   0  0  0  0  0  0  0  0  0  0  0  0
   30.9840   30.1860   46.0880 O   0  0  0  0  0  0  0  0  0  0  0  0
   30.5700   31.0110   45.6660 H   0  0  0  0  0  0  0  0  0  0  0  0
   31.7560   30.2980   43.4970 O   0  0  0  0  0  0  0  0  0  0  0  0
   31.3300   30.6440   42.6520 H   0  0  0  0  0  0  0  0  0  0  0  0
   32.4660   27.1610   48.0520 O   0  0  0  0  0  0  0  0  0  0  0  0
   35.4340   28.8860   49.1220 C   0  0  0  0  0  0  0  0  0  0  0  0
   35.3830   30.0890   48.4140 C   0  0  0  0  0  0  0  0  0  0  0  0
   34.2880   30.2760   47.5570 C   0  0  0  0  0  0  0  0  0  0  0  0
   33.3540   29.2870   47.4710 N   0  0  0  0  0  0  0  0  0  0  0  0
   33.4360   28.1500   48.1640 C   0  0  0  0  0  0  0  0  0  0  0  0
   34.4890   27.9410   49.0040 N   0  0  0  0  0  0  0  0  0  0  0  0
   36.2530   28.6810   49.7990 H   0  0  0  0  0  0  0  0  0  0  0  0
   34.2520   31.2110   47.0110 H   0  0  0  0  0  0  0  0  0  0  0  0
   36.4180   31.0330   48.5960 N   0  0  0  0  0  0  0  0  0  0  0  0
   36.5810   31.7000   49.7330 C   0  0  0  0  0  0  0  0  0  0  0  0
   37.6290   32.6220   49.8360 C   0  0  0  0  0  0  0  0  0  0  0  0
   38.4060   32.7540   48.7380 C   0  0  0  0  0  0  0  0  0  0  0  0
   39.3550   33.5930   48.8410 O   0  0  0  0  0  0  0  0  0  0  0  0
   38.2790   32.1110   47.5940 N   0  0  0  0  0  0  0  0  0  0  0  0
   37.2510   31.2180   47.5150 C   0  0  0  0  0  0  0  0  0  0  0  0
   37.1090   30.5910   46.4290 O   0  0  0  0  0  0  0  0  0  0  0  0
   35.9090   31.5340   50.5710 H   0  0  0  0  0  0  0  0  0  0  0  0
   37.7900   33.1830   50.7480 H   0  0  0  0  0  0  0  0  0  0  0  0
   38.9200   32.2630   46.7800 H   0  0  0  0  0  0  0  0  0  0  0  0
  1  2  1  0  0  0  0
  2  3  2  0  0  0  0
  2  7  1  0  0  0  0
  3  8  1  0  0  0  0
  4  9  1  0  0  0  0
  4  3  1  0  0  0  0
  5  4  2  0  0  0  0
  6  5  1  0  0  0  0
  6  1  2  0  0  0  0
 10  5  1  0  0  0  0
 11 12  1  0  0  0  0
 11 18  1  0  0  0  0
 12  6  1  0  0  0  0
 13 14  1  0  0  0  0
 13 12  2  0  0  0  0
 15 13  1  0  0  0  0
 16 15  2  0  0  0  0
 16 17  1  0  0  0  0
 17 11  2  0  0  0  0
 19 18  1  0  0  0  0
 20 17  1  0  0  0  0
 21 20  1  0  0  0  0
 22 27  1  0  0  0  0
 22  1  1  0  0  0  0
 23 29  1  0  0  0  0
 24 31  1  0  0  0  0
 24 23  2  0  0  0  0
 25 24  1  0  0  0  0
 26 25  2  0  0  0  0
 26 27  1  0  0  0  0
 27 28  2  0  0  0  0
 28 23  1  0  0  0  0
 30 25  1  0  0  0  0
 31 32  1  0  0  0  0
 32 33  2  0  0  0  0
 32 39  1  0  0  0  0
 33 40  1  0  0  0  0
 34 35  2  0  0  0  0
 34 33  1  0  0  0  0
 36 34  1  0  0  0  0
 37 36  1  0  0  0  0
 37 31  1  0  0  0  0
 38 37  2  0  0  0  0
 41 36  1  0  0  0  0
M  END
>  <minimizedAffinity>
-6.09028196

>  <minimizedRMSD>
0.273612827

$$$$
