
 OpenBabel03272505313D

 42 45  0  0  0  0  0  0  0  0999 V2000
   37.4350   31.0620   47.2890 N   0  0  0  0  0  0  0  0  0  0  0  0
   36.8820   30.6940   46.1040 C   0  0  0  0  0  0  0  0  0  0  0  0
   37.3620   31.1660   44.8860 C   0  0  0  0  0  0  0  0  0  0  0  0
   38.4490   32.0470   44.9180 C   0  0  0  0  0  0  0  0  0  0  0  0
   38.9160   32.4990   43.8500 O   0  0  0  0  0  0  0  0  0  0  0  0
   39.0030   32.4160   46.1200 N   0  0  0  0  0  0  0  0  0  0  0  0
   38.4550   31.8960   47.2120 C   0  0  0  0  0  0  0  0  0  0  0  0
   38.9920   32.2600   48.2850 O   0  0  0  0  0  0  0  0  0  0  0  0
   36.0420   30.0110   46.0850 H   0  0  0  0  0  0  0  0  0  0  0  0
   37.2820   29.5340   50.6650 C   0  0  0  0  0  0  0  0  0  0  0  0
   37.7770   30.0140   49.4480 C   0  0  0  0  0  0  0  0  0  0  0  0
   36.9470   30.5840   48.5010 C   0  0  0  0  0  0  0  0  0  0  0  0
   35.6430   30.6490   48.8100 N   0  0  0  0  0  0  0  0  0  0  0  0
   35.1230   30.1940   49.9830 C   0  0  0  0  0  0  0  0  0  0  0  0
   35.9730   29.6320   50.9080 N   0  0  0  0  0  0  0  0  0  0  0  0
   37.9980   29.1060   51.3460 H   0  0  0  0  0  0  0  0  0  0  0  0
   38.8420   29.9420   49.2350 H   0  0  0  0  0  0  0  0  0  0  0  0
   34.0530   30.2670   50.1960 H   0  0  0  0  0  0  0  0  0  0  0  0
   36.8030   30.7990   43.5940 C   0  0  0  0  0  0  0  0  0  0  0  0
   37.1500   29.6680   42.9130 C   0  0  0  0  0  0  0  0  0  0  0  0
   36.6340   29.2980   41.6880 C   0  0  0  0  0  0  0  0  0  0  0  0
   35.6840   30.1460   41.1000 C   0  0  0  0  0  0  0  0  0  0  0  0
   35.3580   31.2790   41.8190 C   0  0  0  0  0  0  0  0  0  0  0  0
   35.9030   31.5620   42.9960 N   0  0  0  0  0  0  0  0  0  0  0  0
   37.8840   28.9810   43.3310 H   0  0  0  0  0  0  0  0  0  0  0  0
   36.9440   28.3980   41.1980 H   0  0  0  0  0  0  0  0  0  0  0  0
   35.2810   29.8730   40.1580 H   0  0  0  0  0  0  0  0  0  0  0  0
   34.1780   33.4590   41.8450 C   0  0  0  0  0  0  0  0  0  0  0  0
   34.3780   32.2130   41.2790 C   0  0  0  0  0  0  0  0  0  0  0  0
   33.5710   31.9800   40.1870 C   0  0  0  0  0  0  0  0  0  0  0  0
   33.6570   31.0310   39.6790 H   0  0  0  0  0  0  0  0  0  0  0  0
   32.6570   32.8950   39.7120 C   0  0  0  0  0  3  0  0  0  0  0  0
   32.5140   34.1200   40.3330 C   0  0  0  0  0  3  0  0  0  0  0  0
   33.2890   34.4250   41.4320 C   0  0  0  0  0  0  0  0  0  0  0  0
   34.9610   33.7860   42.9680 O   0  0  0  0  0  0  0  0  0  0  0  0
   35.8320   34.2840   42.7300 H   0  0  0  0  0  0  0  0  0  0  0  0
   33.1910   35.6400   42.0980 O   0  0  0  0  0  0  0  0  0  0  0  0
   33.1950   36.4810   41.5170 H   0  0  0  0  0  0  0  0  0  0  0  0
   40.1220   33.3240   46.1410 C   0  0  0  0  0  0  0  0  0  0  0  0
   39.9780   34.2890   45.2040 F   0  0  0  0  0  0  0  0  0  0  0  0
   41.3330   32.7050   45.8830 F   0  0  0  0  0  0  0  0  0  0  0  0
   40.1660   33.9410   47.3970 F   0  0  0  0  0  0  0  0  0  0  0  0
  1 12  1  0  0  0  0
  2  1  1  0  0  0  0
  3  4  1  0  0  0  0
  3  2  2  0  0  0  0
  4  6  1  0  0  0  0
  5  4  2  0  0  0  0
  6 39  1  0  0  0  0
  6  7  1  0  0  0  0
  7  1  1  0  0  0  0
  7  8  2  0  0  0  0
  9  2  1  0  0  0  0
 10 15  1  0  0  0  0
 10 16  1  0  0  0  0
 11 10  2  0  0  0  0
 12 13  2  0  0  0  0
 12 11  1  0  0  0  0
 13 14  1  0  0  0  0
 14 18  1  0  0  0  0
 14 15  2  0  0  0  0
 17 11  1  0  0  0  0
 19  3  1  0  0  0  0
 20 25  1  0  0  0  0
 20 19  2  0  0  0  0
 21 20  1  0  0  0  0
 22 21  2  0  0  0  0
 22 23  1  0  0  0  0
 23 24  2  0  0  0  0
 24 19  1  0  0  0  0
 26 21  1  0  0  0  0
 27 22  1  0  0  0  0
 28 35  1  0  0  0  0
 29 23  1  0  0  0  0
 29 28  2  0  0  0  0
 30 29  1  0  0  0  0
 31 30  1  0  0  0  0
 32 30  2  0  0  0  0
 32 33  1  0  0  0  0
 33 34  2  0  0  0  0
 34 28  1  0  0  0  0
 34 37  1  0  0  0  0
 36 35  1  0  0  0  0
 38 37  1  0  0  0  0
 39 42  1  0  0  0  0
 40 39  1  0  0  0  0
 41 39  1  0  0  0  0
M  END
>  <minimizedAffinity>
-6.87349749

>  <minimizedRMSD>
0.296994388

$$$$
