
 OpenBabel03272501053D

 32 34  0  0  1  0  0  0  0  0999 V2000
   36.2720   30.2140   46.8240 C   0  0  2  0  0  0  0  0  0  0  0  0
   37.0180   31.0540   47.8970 C   0  0  2  0  0  0  0  0  0  0  0  0
   38.3800   31.0170   47.3430 C   0  0  0  0  0  0  0  0  0  0  0  0
   38.2560   31.1260   45.9600 O   0  0  0  0  0  0  0  0  0  0  0  0
   36.9860   30.7710   45.5960 C   0  0  0  0  0  0  0  0  0  0  0  0
   36.5070   29.1560   46.9260 H   0  0  0  0  0  0  0  0  0  0  0  0
   36.5780   32.0830   47.7430 H   0  0  0  0  0  0  0  0  0  0  0  0
   38.8650   30.0370   47.5290 H   0  0  0  0  0  0  0  0  0  0  0  0
   39.0760   31.7740   47.7640 H   0  0  0  0  0  0  0  0  0  0  0  0
   36.9700   30.0110   44.7720 H   0  0  0  0  0  0  0  0  0  0  0  0
   36.4170   31.6710   45.2860 H   0  0  0  0  0  0  0  0  0  0  0  0
   37.5830   30.1430   51.5150 C   0  0  0  0  0  0  0  0  0  0  0  0
   37.8160   30.6920   50.2250 C   0  0  0  0  0  0  0  0  0  0  0  0
   36.8290   30.5290   49.2250 C   0  0  0  0  0  0  0  0  0  0  0  0
   35.6900   29.8400   49.5670 N   0  0  0  0  0  0  0  0  0  0  0  0
   35.5070   29.3370   50.7940 C   0  0  0  0  0  0  0  0  0  0  0  0
   36.4410   29.4830   51.7670 N   0  0  0  0  0  0  0  0  0  0  0  0
   38.3160   30.2500   52.3020 H   0  0  0  0  0  0  0  0  0  0  0  0
   38.7510   31.2310   50.0200 H   0  0  0  0  0  0  0  0  0  0  0  0
   34.5780   28.8050   50.9860 H   0  0  0  0  0  0  0  0  0  0  0  0
   34.9300   30.5700   46.8110 O   0  0  0  0  0  0  0  0  0  0  0  0
   32.6590   30.3000   46.2050 C   0  0  0  0  0  0  0  0  0  0  0  0
   33.8600   29.7260   46.6090 C   0  0  0  0  0  0  0  0  0  0  0  0
   33.8500   28.3490   46.7680 C   0  0  0  0  0  0  0  0  0  0  0  0
   34.7820   27.9060   47.0820 H   0  0  0  0  0  0  0  0  0  0  0  0
   32.7170   27.6030   46.5370 C   0  0  0  0  0  0  0  0  0  0  0  0
   31.5590   28.2220   46.1380 C   0  0  0  0  0  0  0  0  0  0  0  0
   31.5220   29.5950   45.9680 C   0  0  0  0  0  0  0  0  0  0  0  0
   32.5780   31.6720   46.0210 O   0  0  0  0  0  0  0  0  0  0  0  0
   33.1380   32.0760   45.2800 H   0  0  0  0  0  0  0  0  0  0  0  0
   30.3340   30.2000   45.5620 O   0  0  0  0  0  0  0  0  0  0  0  0
   30.0890   31.0900   45.9900 H   0  0  0  0  0  0  0  0  0  0  0  0
  1  6  1  1  0  0  0
  1  2  1  0  0  0  0
  2  7  1  6  0  0  0
  2 14  1  0  0  0  0
  3  8  1  0  0  0  0
  3  9  1  0  0  0  0
  3  2  1  0  0  0  0
  4  3  1  0  0  0  0
  5  4  1  0  0  0  0
  5  1  1  0  0  0  0
 10  5  1  0  0  0  0
 11  5  1  0  0  0  0
 12 17  1  0  0  0  0
 12 18  1  0  0  0  0
 13 12  2  0  0  0  0
 14 15  2  0  0  0  0
 14 13  1  0  0  0  0
 15 16  1  0  0  0  0
 16 20  1  0  0  0  0
 16 17  2  0  0  0  0
 19 13  1  0  0  0  0
 21  1  1  0  0  0  0
 22 23  1  0  0  0  0
 23 24  2  0  0  0  0
 23 21  1  0  0  0  0
 24 25  1  0  0  0  0
 26 24  1  0  0  0  0
 27 26  2  0  0  0  0
 28 27  1  0  0  0  0
 28 22  2  0  0  0  0
 29 22  1  0  0  0  0
 30 29  1  0  0  0  0
 31 28  1  0  0  0  0
 31 32  1  0  0  0  0
M  END
>  <minimizedAffinity>
-4.923944

>  <minimizedRMSD>
1.81751072

$$$$
