
 OpenBabel03272509153D

 49 52  0  0  1  0  0  0  0  0999 V2000
   34.7950   30.0740   46.7860 C   0  0  0  0  0  0  0  0  0  0  0  0
   36.1250   30.5530   46.8690 C   0  0  0  0  0  0  0  0  0  0  0  0
   36.8310   30.7180   45.6810 C   0  0  0  0  0  0  0  0  0  0  0  0
   36.2160   30.4140   44.5060 N   0  0  0  0  0  0  0  0  0  0  0  0
   34.9500   29.9600   44.4630 C   0  0  0  0  0  0  0  0  0  0  0  0
   34.2470   29.7920   45.5830 N   0  0  0  0  0  0  0  0  0  0  0  0
   34.1770   29.9300   47.6430 H   0  0  0  0  0  0  0  0  0  0  0  0
   34.4270   29.7070   43.5400 H   0  0  0  0  0  0  0  0  0  0  0  0
   36.6110   30.8020   48.2070 N   0  0  0  0  0  0  0  0  0  0  0  0
   37.0550   31.8900   49.0280 C   0  0  0  0  0  0  0  0  0  0  0  0
   38.3620   31.4020   49.5680 C   0  0  0  0  0  0  0  0  0  0  0  0
   38.1350   29.8950   49.7320 C   0  0  0  0  0  0  0  0  0  0  0  0
   36.7750   29.6710   49.1640 C   0  0  1  0  0  0  0  0  0  0  0  0
   36.9750   32.8980   48.6830 H   0  0  0  0  0  0  0  0  0  0  0  0
   36.3590   31.8640   49.9250 H   0  0  0  0  0  0  0  0  0  0  0  0
   38.6290   31.8790   50.5370 H   0  0  0  0  0  0  0  0  0  0  0  0
   39.2030   31.5080   48.8840 H   0  0  0  0  0  0  0  0  0  0  0  0
   38.9390   29.2900   49.3010 H   0  0  0  0  0  0  0  0  0  0  0  0
   38.1070   29.6590   50.8290 H   0  0  0  0  0  0  0  0  0  0  0  0
   36.6060   28.7180   48.6720 H   0  0  0  0  0  0  0  0  0  0  0  0
   34.7100   28.9580   50.3470 C   0  0  0  0  0  0  0  0  0  0  0  0
   34.4020   28.0250   49.5340 O   0  0  0  0  0  0  0  0  0  0  0  0
   35.7960   29.8800   50.2300 N   0  0  0  0  0  0  0  0  0  0  0  0
   33.9310   28.8050   51.0720 H   0  0  0  0  0  0  0  0  0  0  0  0
   35.5890   30.5190   51.0210 H   0  0  0  0  0  0  0  0  0  0  0  0
   38.1860   31.1990   45.6490 C   0  0  0  0  0  0  0  0  0  0  0  0
   38.4540   32.3940   46.2520 C   0  0  0  0  0  0  0  0  0  0  0  0
   39.7230   32.9390   46.3020 C   0  0  0  0  0  0  0  0  0  0  0  0
   40.7580   32.2230   45.7040 C   0  0  0  0  0  0  0  0  0  0  0  0
   40.5480   31.0120   45.0770 C   0  0  0  0  0  0  0  0  0  0  0  0
   39.2310   30.5360   45.0760 C   0  0  0  0  0  0  0  0  0  0  0  0
   37.7860   33.0990   46.7130 H   0  0  0  0  0  0  0  0  0  0  0  0
   40.0680   33.8420   46.7380 H   0  0  0  0  0  0  0  0  0  0  0  0
   41.7970   32.5470   45.6810 H   0  0  0  0  0  0  0  0  0  0  0  0
   41.3500   30.4500   44.6070 H   0  0  0  0  0  0  0  0  0  0  0  0
   38.9850   29.2440   44.3990 C   0  0  0  0  0  0  0  0  0  0  0  0
   37.8740   29.0050   44.4330 H   0  0  0  0  0  0  0  0  0  0  0  0
   39.4730   28.4260   44.9790 H   0  0  0  0  0  0  0  0  0  0  0  0
   39.8540   28.1220   42.2660 C   0  0  0  0  0  0  0  0  0  0  0  0
   39.3340   29.1920   42.9660 C   0  0  0  0  0  0  0  0  0  0  0  0
   39.0960   30.3550   42.2210 C   0  0  0  0  0  0  0  0  0  0  0  0
   38.6900   31.2200   42.7150 H   0  0  0  0  0  0  0  0  0  0  0  0
   39.3590   30.4510   40.8590 C   0  0  0  0  0  3  0  0  0  0  0  0
   39.8740   29.3960   40.1570 C   0  0  0  0  0  3  0  0  0  0  0  0
   40.1060   28.2540   40.8970 C   0  0  0  0  0  0  0  0  0  0  0  0
   40.0880   26.9810   42.9930 O   0  0  0  0  0  0  0  0  0  0  0  0
   39.6940   26.0820   42.8160 H   0  0  0  0  0  0  0  0  0  0  0  0
   40.6310   27.1600   40.2090 O   0  0  0  0  0  0  0  0  0  0  0  0
   40.3890   26.9590   39.2430 H   0  0  0  0  0  0  0  0  0  0  0  0
  1  2  1  0  0  0  0
  1  7  1  0  0  0  0
  2  9  1  0  0  0  0
  3  2  2  0  0  0  0
  4  3  1  0  0  0  0
  5  4  2  0  0  0  0
  5  6  1  0  0  0  0
  6  1  2  0  0  0  0
  8  5  1  0  0  0  0
  9 10  1  0  0  0  0
  9 13  1  0  0  0  0
 10 11  1  0  0  0  0
 10 15  1  0  0  0  0
 11 12  1  0  0  0  0
 11 16  1  0  0  0  0
 12 19  1  0  0  0  0
 13 20  1  6  0  0  0
 13 12  1  0  0  0  0
 13 23  1  0  0  0  0
 14 10  1  0  0  0  0
 17 11  1  0  0  0  0
 18 12  1  0  0  0  0
 21 24  1  0  0  0  0
 22 21  2  0  0  0  0
 23 21  1  0  0  0  0
 23 25  1  0  0  0  0
 26  3  1  0  0  0  0
 26 27  1  0  0  0  0
 27 28  2  0  0  0  0
 27 32  1  0  0  0  0
 28 33  1  0  0  0  0
 29 28  1  0  0  0  0
 30 29  2  0  0  0  0
 31 30  1  0  0  0  0
 31 26  2  0  0  0  0
 34 29  1  0  0  0  0
 35 30  1  0  0  0  0
 36 37  1  0  0  0  0
 36 38  1  0  0  0  0
 36 31  1  0  0  0  0
 39 40  1  0  0  0  0
 39 46  1  0  0  0  0
 40 36  1  0  0  0  0
 41 42  1  0  0  0  0
 41 40  2  0  0  0  0
 43 41  1  0  0  0  0
 44 43  2  0  0  0  0
 44 45  1  0  0  0  0
 45 39  2  0  0  0  0
 47 46  1  0  0  0  0
 48 45  1  0  0  0  0
 49 48  1  0  0  0  0
M  END
>  <minimizedAffinity>
-6.31890535

>  <minimizedRMSD>
0.952874243

$$$$
