
 OpenBabel03272508073D

 37 40  0  0  0  0  0  0  0  0999 V2000
   36.1940   28.4610   33.9480 C   0  0  0  0  0  0  0  0  0  0  0  0
   36.6490   28.2020   32.6630 C   0  0  0  0  0  0  0  0  0  0  0  0
   37.5520   27.1460   32.6750 C   0  0  0  0  0  0  0  0  0  0  0  0
   37.6040   26.8080   33.9850 N   0  0  0  0  0  0  0  0  0  0  0  0
   36.8170   27.5680   34.7330 N   0  0  0  0  0  0  0  0  0  0  0  0
   36.3670   28.7230   31.7540 H   0  0  0  0  0  0  0  0  0  0  0  0
   38.1010   26.6690   31.9010 H   0  0  0  0  0  0  0  0  0  0  0  0
   35.2450   29.4870   34.3240 C   0  0  0  0  0  0  0  0  0  0  0  0
   35.7130   30.6290   35.0300 C   0  0  0  0  0  0  0  0  0  0  0  0
   34.7700   31.5960   35.3740 C   0  0  0  0  0  0  0  0  0  0  0  0
   33.4720   31.3970   35.0200 N   0  0  0  0  0  0  0  0  0  0  0  0
   33.0540   30.3000   34.3490 C   0  0  0  0  0  0  0  0  0  0  0  0
   33.9520   29.3530   34.0070 N   0  0  0  0  0  0  0  0  0  0  0  0
   36.7360   30.7660   35.2970 H   0  0  0  0  0  0  0  0  0  0  0  0
   32.0080   30.2000   34.0960 H   0  0  0  0  0  0  0  0  0  0  0  0
   35.2410   32.8030   36.1150 C   0  0  0  0  0  0  0  0  0  0  0  0
   36.6040   32.8390   35.9270 F   0  0  0  0  0  0  0  0  0  0  0  0
   34.6970   33.9730   35.6090 F   0  0  0  0  0  0  0  0  0  0  0  0
   34.9910   32.7080   37.4720 F   0  0  0  0  0  0  0  0  0  0  0  0
   38.3950   25.7460   34.6180 C   0  0  0  0  0  0  0  0  0  0  0  0
   37.9760   25.1280   35.8040 C   0  0  0  0  0  0  0  0  0  0  0  0
   38.7310   24.1500   36.3560 C   0  0  0  0  0  0  0  0  0  0  0  0
   39.9370   23.7770   35.7120 C   0  0  0  0  0  0  0  0  0  0  0  0
   39.9660   24.9010   34.2390 S   0  0  0  0  0  0  0  0  0  0  0  0
   37.0500   25.3980   36.3200 H   0  0  0  0  0  0  0  0  0  0  0  0
   38.5790   23.5690   37.2430 H   0  0  0  0  0  0  0  0  0  0  0  0
   40.9460   22.1050   37.1040 C   0  0  0  0  0  0  0  0  0  0  0  0
   40.9730   22.8440   35.9450 C   0  0  0  0  0  0  0  0  0  0  0  0
   41.9370   22.7560   34.9680 C   0  0  0  0  0  0  0  0  0  0  0  0
   41.9190   23.3510   34.0800 H   0  0  0  0  0  0  0  0  0  0  0  0
   42.9840   21.8440   35.1550 C   0  0  0  0  0  3  0  0  0  0  0  0
   43.0020   21.0700   36.3200 C   0  0  0  0  0  3  0  0  0  0  0  0
   41.9960   21.1950   37.2850 C   0  0  0  0  0  0  0  0  0  0  0  0
   39.9720   22.1960   38.0880 O   0  0  0  0  0  0  0  0  0  0  0  0
   39.0820   21.7320   38.0530 H   0  0  0  0  0  0  0  0  0  0  0  0
   42.0030   20.4310   38.4450 O   0  0  0  0  0  0  0  0  0  0  0  0
   41.8250   19.4340   38.3520 H   0  0  0  0  0  0  0  0  0  0  0  0
  1  8  1  0  0  0  0
  1  5  2  0  0  0  0
  2  3  2  0  0  0  0
  2  1  1  0  0  0  0
  3  4  1  0  0  0  0
  4 20  1  0  0  0  0
  4  5  1  0  0  0  0
  6  2  1  0  0  0  0
  7  3  1  0  0  0  0
  8  9  1  0  0  0  0
  9 14  1  0  0  0  0
  9 10  2  0  0  0  0
 10 16  1  0  0  0  0
 11 10  1  0  0  0  0
 12 11  2  0  0  0  0
 13  8  2  0  0  0  0
 13 12  1  0  0  0  0
 15 12  1  0  0  0  0
 16 19  1  0  0  0  0
 17 16  1  0  0  0  0
 18 16  1  0  0  0  0
 20 21  2  0  0  0  0
 21 25  1  0  0  0  0
 21 22  1  0  0  0  0
 22 26  1  0  0  0  0
 23 28  1  0  0  0  0
 23 22  2  0  0  0  0
 24 20  1  0  0  0  0
 24 23  1  0  0  0  0
 27 33  1  0  0  0  0
 27 34  1  0  0  0  0
 28 27  2  0  0  0  0
 29 31  2  0  0  0  0
 29 28  1  0  0  0  0
 30 29  1  0  0  0  0
 31 32  1  0  0  0  0
 32 33  2  0  0  0  0
 33 36  1  0  0  0  0
 35 34  1  0  0  0  0
 37 36  1  0  0  0  0
M  END
>  <minimizedAffinity>
-7.11010551

$$$$

 OpenBabel03272508073D

 37 40  0  0  0  0  0  0  0  0999 V2000
   37.3970   26.4320   34.2840 C   0  0  0  0  0  0  0  0  0  0  0  0
   37.4440   26.7590   32.9370 C   0  0  0  0  0  0  0  0  0  0  0  0
   36.7620   27.9470   32.7070 C   0  0  0  0  0  0  0  0  0  0  0  0
   36.3270   28.2910   33.9410 N   0  0  0  0  0  0  0  0  0  0  0  0
   36.6930   27.4140   34.8660 N   0  0  0  0  0  0  0  0  0  0  0  0
   37.9300   26.1980   32.1460 H   0  0  0  0  0  0  0  0  0  0  0  0
   36.5830   28.5060   31.8210 H   0  0  0  0  0  0  0  0  0  0  0  0
   37.9980   25.2660   34.8980 C   0  0  0  0  0  0  0  0  0  0  0  0
   37.8770   25.0920   36.3040 C   0  0  0  0  0  0  0  0  0  0  0  0
   38.4660   23.9570   36.8590 C   0  0  0  0  0  0  0  0  0  0  0  0
   39.1160   23.0900   36.0350 N   0  0  0  0  0  0  0  0  0  0  0  0
   39.2170   23.2820   34.7010 C   0  0  0  0  0  0  0  0  0  0  0  0
   38.6520   24.3740   34.1460 N   0  0  0  0  0  0  0  0  0  0  0  0
   37.3620   25.7840   36.9320 H   0  0  0  0  0  0  0  0  0  0  0  0
   39.7460   22.5570   34.1000 H   0  0  0  0  0  0  0  0  0  0  0  0
   38.3510   23.7550   38.3330 C   0  0  0  0  0  0  0  0  0  0  0  0
   38.0560   24.9970   38.8490 F   0  0  0  0  0  0  0  0  0  0  0  0
   37.3220   22.8870   38.6630 F   0  0  0  0  0  0  0  0  0  0  0  0
   39.5400   23.3220   38.8910 F   0  0  0  0  0  0  0  0  0  0  0  0
   35.5430   29.4680   34.3330 C   0  0  0  0  0  0  0  0  0  0  0  0
   34.1510   29.5100   34.1680 C   0  0  0  0  0  0  0  0  0  0  0  0
   33.4620   30.6120   34.5440 C   0  0  0  0  0  0  0  0  0  0  0  0
   34.1750   31.7040   35.0980 C   0  0  0  0  0  0  0  0  0  0  0  0
   35.9240   31.0920   35.0690 S   0  0  0  0  0  0  0  0  0  0  0  0
   33.5780   28.6800   33.7420 H   0  0  0  0  0  0  0  0  0  0  0  0
   32.4130   30.8270   34.4980 H   0  0  0  0  0  0  0  0  0  0  0  0
   34.1420   33.2720   36.9110 C   0  0  0  0  0  0  0  0  0  0  0  0
   33.8530   32.9860   35.5980 C   0  0  0  0  0  0  0  0  0  0  0  0
   33.2670   33.8520   34.7060 C   0  0  0  0  0  0  0  0  0  0  0  0
   33.0600   33.5880   33.6910 H   0  0  0  0  0  0  0  0  0  0  0  0
   32.9300   35.1360   35.1560 C   0  0  0  0  0  3  0  0  0  0  0  0
   33.2030   35.4740   36.4860 C   0  0  0  0  0  3  0  0  0  0  0  0
   33.8030   34.5570   37.3560 C   0  0  0  0  0  0  0  0  0  0  0  0
   34.7340   32.3960   37.8090 O   0  0  0  0  0  0  0  0  0  0  0  0
   35.7220   32.2300   37.8770 H   0  0  0  0  0  0  0  0  0  0  0  0
   34.0790   34.8830   38.6780 O   0  0  0  0  0  0  0  0  0  0  0  0
   34.8140   35.5650   38.8500 H   0  0  0  0  0  0  0  0  0  0  0  0
  1  5  2  0  0  0  0
  1  8  1  0  0  0  0
  2  1  1  0  0  0  0
  3  2  2  0  0  0  0
  3  4  1  0  0  0  0
  4 20  1  0  0  0  0
  4  5  1  0  0  0  0
  6  2  1  0  0  0  0
  7  3  1  0  0  0  0
  8  9  1  0  0  0  0
  9 10  2  0  0  0  0
  9 14  1  0  0  0  0
 10 16  1  0  0  0  0
 11 10  1  0  0  0  0
 12 11  2  0  0  0  0
 13 12  1  0  0  0  0
 13  8  2  0  0  0  0
 15 12  1  0  0  0  0
 16 18  1  0  0  0  0
 16 17  1  0  0  0  0
 16 19  1  0  0  0  0
 20 24  1  0  0  0  0
 21 20  2  0  0  0  0
 21 22  1  0  0  0  0
 22 23  2  0  0  0  0
 23 28  1  0  0  0  0
 24 23  1  0  0  0  0
 25 21  1  0  0  0  0
 26 22  1  0  0  0  0
 27 33  1  0  0  0  0
 27 34  1  0  0  0  0
 28 27  2  0  0  0  0
 29 31  2  0  0  0  0
 29 28  1  0  0  0  0
 30 29  1  0  0  0  0
 31 32  1  0  0  0  0
 32 33  2  0  0  0  0
 33 36  1  0  0  0  0
 34 35  1  0  0  0  0
 36 37  1  0  0  0  0
M  END
>  <minimizedAffinity>
-6.73989296

$$$$

 OpenBabel03272508073D

 37 40  0  0  0  0  0  0  0  0999 V2000
   35.2490   30.1850   33.4310 C   0  0  0  0  0  0  0  0  0  0  0  0
   35.6310   29.9640   32.1150 C   0  0  0  0  0  0  0  0  0  0  0  0
   36.4110   28.8180   32.0260 C   0  0  0  0  0  0  0  0  0  0  0  0
   36.4680   28.3900   33.3090 N   0  0  0  0  0  0  0  0  0  0  0  0
   35.7940   29.1800   34.1340 N   0  0  0  0  0  0  0  0  0  0  0  0
   35.3790   30.5720   31.2530 H   0  0  0  0  0  0  0  0  0  0  0  0
   36.8780   28.3370   31.2030 H   0  0  0  0  0  0  0  0  0  0  0  0
   34.4320   31.2810   33.9070 C   0  0  0  0  0  0  0  0  0  0  0  0
   34.1460   31.3690   35.2970 C   0  0  0  0  0  0  0  0  0  0  0  0
   33.3560   32.4380   35.7190 C   0  0  0  0  0  0  0  0  0  0  0  0
   32.9100   33.3260   34.7890 N   0  0  0  0  0  0  0  0  0  0  0  0
   33.1970   33.2170   33.4730 C   0  0  0  0  0  0  0  0  0  0  0  0
   33.9600   32.1890   33.0460 N   0  0  0  0  0  0  0  0  0  0  0  0
   34.5060   30.6620   36.0100 H   0  0  0  0  0  0  0  0  0  0  0  0
   32.8130   33.9550   32.7830 H   0  0  0  0  0  0  0  0  0  0  0  0
   33.0440   32.5500   37.1740 C   0  0  0  0  0  0  0  0  0  0  0  0
   34.1190   33.2070   37.7290 F   0  0  0  0  0  0  0  0  0  0  0  0
   31.9030   33.3010   37.4080 F   0  0  0  0  0  0  0  0  0  0  0  0
   32.9330   31.3100   37.7760 F   0  0  0  0  0  0  0  0  0  0  0  0
   37.1560   27.2090   33.8430 C   0  0  0  0  0  0  0  0  0  0  0  0
   37.2100   26.0060   33.1260 C   0  0  0  0  0  0  0  0  0  0  0  0
   37.8570   24.9390   33.6500 C   0  0  0  0  0  0  0  0  0  0  0  0
   38.4670   25.0720   34.9220 C   0  0  0  0  0  0  0  0  0  0  0  0
   38.0780   26.8280   35.3690 S   0  0  0  0  0  0  0  0  0  0  0  0
   36.7480   25.8780   32.1420 H   0  0  0  0  0  0  0  0  0  0  0  0
   38.0040   23.9520   33.2590 H   0  0  0  0  0  0  0  0  0  0  0  0
   38.6110   23.7930   36.9460 C   0  0  0  0  0  0  0  0  0  0  0  0
   39.2090   24.2390   35.7920 C   0  0  0  0  0  0  0  0  0  0  0  0
   40.4920   23.9440   35.3940 C   0  0  0  0  0  0  0  0  0  0  0  0
   40.9180   24.3140   34.4860 H   0  0  0  0  0  0  0  0  0  0  0  0
   41.2660   23.1220   36.2230 C   0  0  0  0  0  3  0  0  0  0  0  0
   40.7020   22.6430   37.4110 C   0  0  0  0  0  3  0  0  0  0  0  0
   39.3900   22.9710   37.7710 C   0  0  0  0  0  0  0  0  0  0  0  0
   37.3160   24.0920   37.3430 O   0  0  0  0  0  0  0  0  0  0  0  0
   36.4950   23.6160   37.0160 H   0  0  0  0  0  0  0  0  0  0  0  0
   38.8200   22.5000   38.9470 O   0  0  0  0  0  0  0  0  0  0  0  0
   38.6140   21.5060   39.0040 H   0  0  0  0  0  0  0  0  0  0  0  0
  1  8  1  0  0  0  0
  1  5  2  0  0  0  0
  2  1  1  0  0  0  0
  3  2  2  0  0  0  0
  3  4  1  0  0  0  0
  4 20  1  0  0  0  0
  4  5  1  0  0  0  0
  6  2  1  0  0  0  0
  7  3  1  0  0  0  0
  8  9  1  0  0  0  0
  9 10  2  0  0  0  0
  9 14  1  0  0  0  0
 10 16  1  0  0  0  0
 11 10  1  0  0  0  0
 12 11  2  0  0  0  0
 13 12  1  0  0  0  0
 13  8  2  0  0  0  0
 15 12  1  0  0  0  0
 16 18  1  0  0  0  0
 16 17  1  0  0  0  0
 16 19  1  0  0  0  0
 20 24  1  0  0  0  0
 21 22  1  0  0  0  0
 21 20  2  0  0  0  0
 22 23  2  0  0  0  0
 23 24  1  0  0  0  0
 23 28  1  0  0  0  0
 25 21  1  0  0  0  0
 26 22  1  0  0  0  0
 27 34  1  0  0  0  0
 27 33  1  0  0  0  0
 28 27  2  0  0  0  0
 29 28  1  0  0  0  0
 29 31  2  0  0  0  0
 30 29  1  0  0  0  0
 31 32  1  0  0  0  0
 32 33  2  0  0  0  0
 33 36  1  0  0  0  0
 35 34  1  0  0  0  0
 36 37  1  0  0  0  0
M  END
>  <minimizedAffinity>
-6.69651222

$$$$

 OpenBabel03272508073D

 37 40  0  0  0  0  0  0  0  0999 V2000
   37.5040   24.3440   31.4140 C   0  0  0  0  0  0  0  0  0  0  0  0
   38.4340   25.1230   30.7410 C   0  0  0  0  0  0  0  0  0  0  0  0
   38.2560   26.4640   31.0580 C   0  0  0  0  0  0  0  0  0  0  0  0
   37.2130   26.4370   31.9190 N   0  0  0  0  0  0  0  0  0  0  0  0
   36.7680   25.2060   32.1320 N   0  0  0  0  0  0  0  0  0  0  0  0
   39.2040   24.7770   30.0600 H   0  0  0  0  0  0  0  0  0  0  0  0
   38.7660   27.3430   30.7470 H   0  0  0  0  0  0  0  0  0  0  0  0
   37.3840   22.9030   31.3330 C   0  0  0  0  0  0  0  0  0  0  0  0
   36.3390   22.2610   32.0520 C   0  0  0  0  0  0  0  0  0  0  0  0
   36.2540   20.8730   31.9490 C   0  0  0  0  0  0  0  0  0  0  0  0
   37.1640   20.2190   31.1770 N   0  0  0  0  0  0  0  0  0  0  0  0
   38.1490   20.8560   30.5050 C   0  0  0  0  0  0  0  0  0  0  0  0
   38.2460   22.1990   30.5930 N   0  0  0  0  0  0  0  0  0  0  0  0
   35.6350   22.7920   32.6510 H   0  0  0  0  0  0  0  0  0  0  0  0
   38.8420   20.2800   29.9080 H   0  0  0  0  0  0  0  0  0  0  0  0
   35.1640   20.1780   32.6960 C   0  0  0  0  0  0  0  0  0  0  0  0
   35.1490   20.7590   33.9440 F   0  0  0  0  0  0  0  0  0  0  0  0
   33.9240   20.3700   32.1080 F   0  0  0  0  0  0  0  0  0  0  0  0
   35.4190   18.8280   32.8470 F   0  0  0  0  0  0  0  0  0  0  0  0
   36.5670   27.5650   32.6000 C   0  0  0  0  0  0  0  0  0  0  0  0
   35.8530   28.5390   31.8900 C   0  0  0  0  0  0  0  0  0  0  0  0
   35.2690   29.5640   32.5540 C   0  0  0  0  0  0  0  0  0  0  0  0
   35.3990   29.6220   33.9630 C   0  0  0  0  0  0  0  0  0  0  0  0
   36.4160   28.1160   34.3320 S   0  0  0  0  0  0  0  0  0  0  0  0
   35.7380   28.5160   30.8010 H   0  0  0  0  0  0  0  0  0  0  0  0
   34.6910   30.3900   32.1920 H   0  0  0  0  0  0  0  0  0  0  0  0
   33.6640   30.3830   35.4340 C   0  0  0  0  0  0  0  0  0  0  0  0
   34.9630   30.4840   34.9950 C   0  0  0  0  0  0  0  0  0  0  0  0
   35.8990   31.3680   35.4790 C   0  0  0  0  0  0  0  0  0  0  0  0
   36.9010   31.4140   35.1080 H   0  0  0  0  0  0  0  0  0  0  0  0
   35.5130   32.2430   36.5020 C   0  0  0  0  0  3  0  0  0  0  0  0
   34.2000   32.1780   36.9830 C   0  0  0  0  0  3  0  0  0  0  0  0
   33.2840   31.2600   36.4580 C   0  0  0  0  0  0  0  0  0  0  0  0
   32.7220   29.4890   34.9450 O   0  0  0  0  0  0  0  0  0  0  0  0
   32.6430   28.5300   35.2310 H   0  0  0  0  0  0  0  0  0  0  0  0
   31.9780   31.1870   36.9270 O   0  0  0  0  0  0  0  0  0  0  0  0
   31.8370   30.8290   37.8690 H   0  0  0  0  0  0  0  0  0  0  0  0
  1  5  2  0  0  0  0
  2  3  2  0  0  0  0
  2  1  1  0  0  0  0
  3  4  1  0  0  0  0
  4  5  1  0  0  0  0
  4 20  1  0  0  0  0
  6  2  1  0  0  0  0
  7  3  1  0  0  0  0
  8  1  1  0  0  0  0
  8  9  1  0  0  0  0
  9 14  1  0  0  0  0
 10  9  2  0  0  0  0
 10 16  1  0  0  0  0
 11 10  1  0  0  0  0
 12 13  1  0  0  0  0
 12 11  2  0  0  0  0
 13  8  2  0  0  0  0
 15 12  1  0  0  0  0
 16 19  1  0  0  0  0
 16 17  1  0  0  0  0
 18 16  1  0  0  0  0
 20 24  1  0  0  0  0
 21 22  1  0  0  0  0
 21 20  2  0  0  0  0
 22 23  2  0  0  0  0
 23 24  1  0  0  0  0
 23 28  1  0  0  0  0
 25 21  1  0  0  0  0
 26 22  1  0  0  0  0
 27 33  1  0  0  0  0
 28 27  2  0  0  0  0
 28 29  1  0  0  0  0
 29 31  2  0  0  0  0
 30 29  1  0  0  0  0
 31 32  1  0  0  0  0
 33 36  1  0  0  0  0
 33 32  2  0  0  0  0
 34 35  1  0  0  0  0
 34 27  1  0  0  0  0
 36 37  1  0  0  0  0
M  END
>  <minimizedAffinity>
-6.49165869

$$$$

 OpenBabel03272508073D

 37 40  0  0  0  0  0  0  0  0999 V2000
   38.1430   24.9930   34.9660 C   0  0  0  0  0  0  0  0  0  0  0  0
   38.3520   24.6440   33.6400 C   0  0  0  0  0  0  0  0  0  0  0  0
   37.7450   25.5680   32.7990 C   0  0  0  0  0  0  0  0  0  0  0  0
   37.1890   26.4470   33.6650 N   0  0  0  0  0  0  0  0  0  0  0  0
   37.4160   26.1190   34.9290 N   0  0  0  0  0  0  0  0  0  0  0  0
   38.9020   23.7850   33.2700 H   0  0  0  0  0  0  0  0  0  0  0  0
   37.6880   25.6380   31.7400 H   0  0  0  0  0  0  0  0  0  0  0  0
   38.6270   24.2680   36.1230 C   0  0  0  0  0  0  0  0  0  0  0  0
   39.8080   23.4860   35.9970 C   0  0  0  0  0  0  0  0  0  0  0  0
   40.2440   22.8030   37.1320 C   0  0  0  0  0  0  0  0  0  0  0  0
   39.5240   22.9210   38.2810 N   0  0  0  0  0  0  0  0  0  0  0  0
   38.4040   23.6710   38.3710 C   0  0  0  0  0  0  0  0  0  0  0  0
   37.9670   24.3390   37.2840 N   0  0  0  0  0  0  0  0  0  0  0  0
   40.3580   23.4080   35.0870 H   0  0  0  0  0  0  0  0  0  0  0  0
   37.8760   23.7240   39.3130 H   0  0  0  0  0  0  0  0  0  0  0  0
   41.4810   21.9760   37.0220 C   0  0  0  0  0  0  0  0  0  0  0  0
   42.5230   22.8770   37.0220 F   0  0  0  0  0  0  0  0  0  0  0  0
   41.6390   21.1240   38.1040 F   0  0  0  0  0  0  0  0  0  0  0  0
   41.5240   21.2620   35.8390 F   0  0  0  0  0  0  0  0  0  0  0  0
   36.4110   27.6530   33.3600 C   0  0  0  0  0  0  0  0  0  0  0  0
   36.1590   28.6290   34.3350 C   0  0  0  0  0  0  0  0  0  0  0  0
   35.4400   29.7290   34.0160 C   0  0  0  0  0  0  0  0  0  0  0  0
   34.9560   29.8640   32.6910 C   0  0  0  0  0  0  0  0  0  0  0  0
   35.5810   28.3190   31.8800 S   0  0  0  0  0  0  0  0  0  0  0  0
   36.5210   28.5470   35.3650 H   0  0  0  0  0  0  0  0  0  0  0  0
   35.1490   30.5700   34.6140 H   0  0  0  0  0  0  0  0  0  0  0  0
   32.8400   30.6320   31.8640 C   0  0  0  0  0  0  0  0  0  0  0  0
   34.1980   30.8170   31.9720 C   0  0  0  0  0  0  0  0  0  0  0  0
   34.9030   31.8670   31.4340 C   0  0  0  0  0  0  0  0  0  0  0  0
   35.9620   31.9730   31.5420 H   0  0  0  0  0  0  0  0  0  0  0  0
   34.1950   32.8370   30.7120 C   0  0  0  0  0  3  0  0  0  0  0  0
   32.8090   32.6920   30.5730 C   0  0  0  0  0  3  0  0  0  0  0  0
   32.1360   31.6050   31.1420 C   0  0  0  0  0  0  0  0  0  0  0  0
   32.1320   29.5710   32.4090 O   0  0  0  0  0  0  0  0  0  0  0  0
   31.8220   29.5230   33.3630 H   0  0  0  0  0  0  0  0  0  0  0  0
   30.7620   31.4520   31.0110 O   0  0  0  0  0  0  0  0  0  0  0  0
   30.1670   32.1120   31.5060 H   0  0  0  0  0  0  0  0  0  0  0  0
  1  8  1  0  0  0  0
  2  1  1  0  0  0  0
  3  2  2  0  0  0  0
  3  4  1  0  0  0  0
  4  5  1  0  0  0  0
  5  1  2  0  0  0  0
  6  2  1  0  0  0  0
  7  3  1  0  0  0  0
  8 13  1  0  0  0  0
  9  8  2  0  0  0  0
  9 10  1  0  0  0  0
 10 11  2  0  0  0  0
 11 12  1  0  0  0  0
 12 15  1  0  0  0  0
 13 12  2  0  0  0  0
 14  9  1  0  0  0  0
 16 17  1  0  0  0  0
 16 10  1  0  0  0  0
 16 18  1  0  0  0  0
 19 16  1  0  0  0  0
 20  4  1  0  0  0  0
 20 21  2  0  0  0  0
 21 25  1  0  0  0  0
 22 21  1  0  0  0  0
 22 26  1  0  0  0  0
 23 22  2  0  0  0  0
 24 23  1  0  0  0  0
 24 20  1  0  0  0  0
 27 28  1  0  0  0  0
 27 34  1  0  0  0  0
 28 23  1  0  0  0  0
 29 30  1  0  0  0  0
 29 28  2  0  0  0  0
 31 29  1  0  0  0  0
 32 31  2  0  0  0  0
 32 33  1  0  0  0  0
 33 27  2  0  0  0  0
 34 35  1  0  0  0  0
 36 33  1  0  0  0  0
 36 37  1  0  0  0  0
M  END
>  <minimizedAffinity>
-6.35998869

$$$$

 OpenBabel03272508073D

 37 40  0  0  0  0  0  0  0  0999 V2000
   37.4100   26.5030   34.2820 C   0  0  0  0  0  0  0  0  0  0  0  0
   37.4930   26.8580   32.9440 C   0  0  0  0  0  0  0  0  0  0  0  0
   36.7630   28.0160   32.7080 C   0  0  0  0  0  0  0  0  0  0  0  0
   36.2640   28.3140   33.9300 N   0  0  0  0  0  0  0  0  0  0  0  0
   36.6360   27.4380   34.8530 N   0  0  0  0  0  0  0  0  0  0  0  0
   38.0370   26.3370   32.1630 H   0  0  0  0  0  0  0  0  0  0  0  0
   36.5920   28.5830   31.8260 H   0  0  0  0  0  0  0  0  0  0  0  0
   38.0430   25.3550   34.8990 C   0  0  0  0  0  0  0  0  0  0  0  0
   37.8770   25.1480   36.2950 C   0  0  0  0  0  0  0  0  0  0  0  0
   38.4990   24.0320   36.8530 C   0  0  0  0  0  0  0  0  0  0  0  0
   39.2220   23.2140   36.0400 N   0  0  0  0  0  0  0  0  0  0  0  0
   39.3640   23.4360   34.7150 C   0  0  0  0  0  0  0  0  0  0  0  0
   38.7690   24.5110   34.1570 N   0  0  0  0  0  0  0  0  0  0  0  0
   37.3040   25.8010   36.9150 H   0  0  0  0  0  0  0  0  0  0  0  0
   39.9520   22.7490   34.1220 H   0  0  0  0  0  0  0  0  0  0  0  0
   38.3370   23.7960   38.3170 C   0  0  0  0  0  0  0  0  0  0  0  0
   38.0000   25.0200   38.8490 F   0  0  0  0  0  0  0  0  0  0  0  0
   37.3140   22.9020   38.5930 F   0  0  0  0  0  0  0  0  0  0  0  0
   39.5140   23.3730   38.9070 F   0  0  0  0  0  0  0  0  0  0  0  0
   35.4080   29.4440   34.3110 C   0  0  0  0  0  0  0  0  0  0  0  0
   35.8740   30.4680   35.1470 C   0  0  0  0  0  0  0  0  0  0  0  0
   35.0560   31.4950   35.4730 C   0  0  0  0  0  0  0  0  0  0  0  0
   33.7370   31.5030   34.9560 C   0  0  0  0  0  0  0  0  0  0  0  0
   33.6930   29.9470   33.9510 S   0  0  0  0  0  0  0  0  0  0  0  0
   36.8880   30.4840   35.5580 H   0  0  0  0  0  0  0  0  0  0  0  0
   35.2290   32.3550   36.0870 H   0  0  0  0  0  0  0  0  0  0  0  0
   31.6420   32.0640   35.9810 C   0  0  0  0  0  0  0  0  0  0  0  0
   32.6090   32.3520   35.0480 C   0  0  0  0  0  0  0  0  0  0  0  0
   32.5810   33.4130   34.1740 C   0  0  0  0  0  0  0  0  0  0  0  0
   33.3560   33.6000   33.4620 H   0  0  0  0  0  0  0  0  0  0  0  0
   31.4830   34.2820   34.2270 C   0  0  0  0  0  3  0  0  0  0  0  0
   30.4710   34.0300   35.1610 C   0  0  0  0  0  3  0  0  0  0  0  0
   30.5470   32.9360   36.0300 C   0  0  0  0  0  0  0  0  0  0  0  0
   31.6750   30.9930   36.8620 O   0  0  0  0  0  0  0  0  0  0  0  0
   32.1790   30.9830   37.7300 H   0  0  0  0  0  0  0  0  0  0  0  0
   29.5490   32.6770   36.9620 O   0  0  0  0  0  0  0  0  0  0  0  0
   29.4560   33.3240   37.7410 H   0  0  0  0  0  0  0  0  0  0  0  0
  1  5  2  0  0  0  0
  1  8  1  0  0  0  0
  2  1  1  0  0  0  0
  3  2  2  0  0  0  0
  3  4  1  0  0  0  0
  4 20  1  0  0  0  0
  4  5  1  0  0  0  0
  6  2  1  0  0  0  0
  7  3  1  0  0  0  0
  8  9  1  0  0  0  0
  9 10  2  0  0  0  0
  9 14  1  0  0  0  0
 10 16  1  0  0  0  0
 11 10  1  0  0  0  0
 12 11  2  0  0  0  0
 13 12  1  0  0  0  0
 13  8  2  0  0  0  0
 15 12  1  0  0  0  0
 16 18  1  0  0  0  0
 16 17  1  0  0  0  0
 16 19  1  0  0  0  0
 20 21  2  0  0  0  0
 21 22  1  0  0  0  0
 21 25  1  0  0  0  0
 22 26  1  0  0  0  0
 23 28  1  0  0  0  0
 23 22  2  0  0  0  0
 24 20  1  0  0  0  0
 24 23  1  0  0  0  0
 27 33  1  0  0  0  0
 27 34  1  0  0  0  0
 28 27  2  0  0  0  0
 29 31  2  0  0  0  0
 29 28  1  0  0  0  0
 30 29  1  0  0  0  0
 31 32  1  0  0  0  0
 32 33  2  0  0  0  0
 33 36  1  0  0  0  0
 34 35  1  0  0  0  0
 36 37  1  0  0  0  0
M  END
>  <minimizedAffinity>
-6.31369877

$$$$

 OpenBabel03272508073D

 37 40  0  0  0  0  0  0  0  0999 V2000
   35.5830   29.4970   32.0200 C   0  0  0  0  0  0  0  0  0  0  0  0
   36.1870   29.5280   30.7710 C   0  0  0  0  0  0  0  0  0  0  0  0
   36.5600   28.2470   30.3850 C   0  0  0  0  0  0  0  0  0  0  0  0
   36.1620   27.4870   31.4310 N   0  0  0  0  0  0  0  0  0  0  0  0
   35.5920   28.2070   32.3880 N   0  0  0  0  0  0  0  0  0  0  0  0
   36.3610   30.4020   30.1520 H   0  0  0  0  0  0  0  0  0  0  0  0
   37.0390   27.8770   29.5120 H   0  0  0  0  0  0  0  0  0  0  0  0
   35.0640   30.6390   32.7430 C   0  0  0  0  0  0  0  0  0  0  0  0
   35.5300   30.8840   34.0630 C   0  0  0  0  0  0  0  0  0  0  0  0
   35.0090   31.9940   34.7280 C   0  0  0  0  0  0  0  0  0  0  0  0
   34.0950   32.7700   34.0840 N   0  0  0  0  0  0  0  0  0  0  0  0
   33.6690   32.5120   32.8270 C   0  0  0  0  0  0  0  0  0  0  0  0
   34.1630   31.4430   32.1690 N   0  0  0  0  0  0  0  0  0  0  0  0
   36.2480   30.2640   34.5500 H   0  0  0  0  0  0  0  0  0  0  0  0
   32.9410   33.1660   32.3700 H   0  0  0  0  0  0  0  0  0  0  0  0
   35.4850   32.2700   36.1150 C   0  0  0  0  0  0  0  0  0  0  0  0
   36.7030   31.6350   36.2160 F   0  0  0  0  0  0  0  0  0  0  0  0
   35.6760   33.6230   36.3430 F   0  0  0  0  0  0  0  0  0  0  0  0
   34.6360   31.7380   37.0690 F   0  0  0  0  0  0  0  0  0  0  0  0
   36.2870   26.0350   31.5990 C   0  0  0  0  0  0  0  0  0  0  0  0
   37.2660   25.4750   32.4320 C   0  0  0  0  0  0  0  0  0  0  0  0
   37.3490   24.1300   32.5630 C   0  0  0  0  0  0  0  0  0  0  0  0
   36.4340   23.3200   31.8470 C   0  0  0  0  0  0  0  0  0  0  0  0
   35.4110   24.5760   30.9450 S   0  0  0  0  0  0  0  0  0  0  0  0
   37.9840   26.0790   32.9950 H   0  0  0  0  0  0  0  0  0  0  0  0
   38.0170   23.5270   33.1430 H   0  0  0  0  0  0  0  0  0  0  0  0
   37.0570   21.1820   30.9560 C   0  0  0  0  0  0  0  0  0  0  0  0
   36.1870   21.9340   31.7080 C   0  0  0  0  0  0  0  0  0  0  0  0
   35.0730   21.4530   32.3540 C   0  0  0  0  0  0  0  0  0  0  0  0
   34.4220   22.0750   32.9300 H   0  0  0  0  0  0  0  0  0  0  0  0
   34.7880   20.0860   32.2470 C   0  0  0  0  0  3  0  0  0  0  0  0
   35.6440   19.2780   31.4900 C   0  0  0  0  0  3  0  0  0  0  0  0
   36.7680   19.8160   30.8520 C   0  0  0  0  0  0  0  0  0  0  0  0
   38.1810   21.6710   30.3060 O   0  0  0  0  0  0  0  0  0  0  0  0
   39.0710   21.8280   30.7450 H   0  0  0  0  0  0  0  0  0  0  0  0
   37.6250   19.0230   30.0990 O   0  0  0  0  0  0  0  0  0  0  0  0
   38.1990   18.3480   30.5980 H   0  0  0  0  0  0  0  0  0  0  0  0
  1  5  2  0  0  0  0
  1  8  1  0  0  0  0
  2  1  1  0  0  0  0
  3  2  2  0  0  0  0
  3  4  1  0  0  0  0
  4 20  1  0  0  0  0
  4  5  1  0  0  0  0
  6  2  1  0  0  0  0
  7  3  1  0  0  0  0
  8  9  1  0  0  0  0
  9 14  1  0  0  0  0
  9 10  2  0  0  0  0
 10 16  1  0  0  0  0
 11 10  1  0  0  0  0
 12 11  2  0  0  0  0
 13  8  2  0  0  0  0
 13 12  1  0  0  0  0
 15 12  1  0  0  0  0
 16 17  1  0  0  0  0
 16 18  1  0  0  0  0
 16 19  1  0  0  0  0
 20 21  2  0  0  0  0
 21 22  1  0  0  0  0
 21 25  1  0  0  0  0
 22 26  1  0  0  0  0
 23 22  2  0  0  0  0
 24 20  1  0  0  0  0
 24 23  1  0  0  0  0
 27 28  1  0  0  0  0
 28 23  1  0  0  0  0
 28 29  2  0  0  0  0
 29 30  1  0  0  0  0
 31 29  1  0  0  0  0
 32 31  2  0  0  0  0
 33 27  2  0  0  0  0
 33 32  1  0  0  0  0
 34 35  1  0  0  0  0
 34 27  1  0  0  0  0
 36 37  1  0  0  0  0
 36 33  1  0  0  0  0
M  END
>  <minimizedAffinity>
-6.30983162

$$$$

 OpenBabel03272508073D

 37 40  0  0  0  0  0  0  0  0999 V2000
   37.7040   24.9950   33.7530 C   0  0  0  0  0  0  0  0  0  0  0  0
   37.2350   24.5990   32.5090 C   0  0  0  0  0  0  0  0  0  0  0  0
   36.7180   25.6890   31.8210 C   0  0  0  0  0  0  0  0  0  0  0  0
   36.8990   26.7100   32.6900 N   0  0  0  0  0  0  0  0  0  0  0  0
   37.4730   26.3150   33.8190 N   0  0  0  0  0  0  0  0  0  0  0  0
   37.2510   23.5960   32.0960 H   0  0  0  0  0  0  0  0  0  0  0  0
   36.2770   25.7790   30.8590 H   0  0  0  0  0  0  0  0  0  0  0  0
   38.3120   24.1350   34.7470 C   0  0  0  0  0  0  0  0  0  0  0  0
   38.0110   24.3530   36.1190 C   0  0  0  0  0  0  0  0  0  0  0  0
   38.6140   23.5040   37.0470 C   0  0  0  0  0  0  0  0  0  0  0  0
   39.4460   22.5280   36.5930 N   0  0  0  0  0  0  0  0  0  0  0  0
   39.7150   22.3440   35.2820 C   0  0  0  0  0  0  0  0  0  0  0  0
   39.1410   23.1550   34.3690 N   0  0  0  0  0  0  0  0  0  0  0  0
   37.3550   25.1240   36.4540 H   0  0  0  0  0  0  0  0  0  0  0  0
   40.3850   21.5500   34.9840 H   0  0  0  0  0  0  0  0  0  0  0  0
   38.3120   23.7160   38.4930 C   0  0  0  0  0  0  0  0  0  0  0  0
   39.4950   23.4730   39.1530 F   0  0  0  0  0  0  0  0  0  0  0  0
   37.9200   25.0190   38.7600 F   0  0  0  0  0  0  0  0  0  0  0  0
   37.3620   22.8250   38.9590 F   0  0  0  0  0  0  0  0  0  0  0  0
   36.5470   28.1240   32.5160 C   0  0  0  0  0  0  0  0  0  0  0  0
   35.9140   28.8530   33.5330 C   0  0  0  0  0  0  0  0  0  0  0  0
   35.6080   30.1560   33.3360 C   0  0  0  0  0  0  0  0  0  0  0  0
   35.9400   30.7520   32.0940 C   0  0  0  0  0  0  0  0  0  0  0  0
   36.7330   29.3490   31.1790 S   0  0  0  0  0  0  0  0  0  0  0  0
   35.6470   28.4150   34.5000 H   0  0  0  0  0  0  0  0  0  0  0  0
   35.1330   30.8660   33.9830 H   0  0  0  0  0  0  0  0  0  0  0  0
   34.6780   32.2960   30.7620 C   0  0  0  0  0  0  0  0  0  0  0  0
   35.8030   32.0300   31.5050 C   0  0  0  0  0  0  0  0  0  0  0  0
   36.8320   32.9130   31.7340 C   0  0  0  0  0  0  0  0  0  0  0  0
   37.6910   32.6650   32.3200 H   0  0  0  0  0  0  0  0  0  0  0  0
   36.7410   34.1930   31.1710 C   0  0  0  0  0  3  0  0  0  0  0  0
   35.6130   34.5110   30.4050 C   0  0  0  0  0  3  0  0  0  0  0  0
   34.5910   33.5760   30.2020 C   0  0  0  0  0  0  0  0  0  0  0  0
   33.6410   31.4020   30.5340 O   0  0  0  0  0  0  0  0  0  0  0  0
   32.8880   31.2270   31.1740 H   0  0  0  0  0  0  0  0  0  0  0  0
   33.4680   33.8820   29.4430 O   0  0  0  0  0  0  0  0  0  0  0  0
   32.8110   34.5550   29.8290 H   0  0  0  0  0  0  0  0  0  0  0  0
  1  5  2  0  0  0  0
  1  8  1  0  0  0  0
  2  1  1  0  0  0  0
  3  2  2  0  0  0  0
  3  4  1  0  0  0  0
  4  5  1  0  0  0  0
  6  2  1  0  0  0  0
  7  3  1  0  0  0  0
  8  9  1  0  0  0  0
  9 14  1  0  0  0  0
  9 10  2  0  0  0  0
 10 16  1  0  0  0  0
 11 10  1  0  0  0  0
 12 11  2  0  0  0  0
 13  8  2  0  0  0  0
 13 12  1  0  0  0  0
 15 12  1  0  0  0  0
 16 18  1  0  0  0  0
 16 19  1  0  0  0  0
 16 17  1  0  0  0  0
 20  4  1  0  0  0  0
 20 21  2  0  0  0  0
 21 25  1  0  0  0  0
 22 21  1  0  0  0  0
 22 26  1  0  0  0  0
 23 22  2  0  0  0  0
 24 23  1  0  0  0  0
 24 20  1  0  0  0  0
 27 28  1  0  0  0  0
 28 29  2  0  0  0  0
 28 23  1  0  0  0  0
 29 30  1  0  0  0  0
 31 29  1  0  0  0  0
 32 31  2  0  0  0  0
 33 32  1  0  0  0  0
 33 27  2  0  0  0  0
 34 27  1  0  0  0  0
 34 35  1  0  0  0  0
 36 37  1  0  0  0  0
 36 33  1  0  0  0  0
M  END
>  <minimizedAffinity>
-6.27305126

$$$$

 OpenBabel03272508073D

 37 40  0  0  0  0  0  0  0  0999 V2000
   38.4260   25.7710   34.1300 C   0  0  0  0  0  0  0  0  0  0  0  0
   39.1720   26.1940   33.0390 C   0  0  0  0  0  0  0  0  0  0  0  0
   38.5570   27.2790   32.4280 C   0  0  0  0  0  0  0  0  0  0  0  0
   37.4520   27.4680   33.1850 N   0  0  0  0  0  0  0  0  0  0  0  0
   37.3680   26.5940   34.1790 N   0  0  0  0  0  0  0  0  0  0  0  0
   40.1030   25.7670   32.6810 H   0  0  0  0  0  0  0  0  0  0  0  0
   38.8230   27.8640   31.5820 H   0  0  0  0  0  0  0  0  0  0  0  0
   38.7540   24.6690   35.0100 C   0  0  0  0  0  0  0  0  0  0  0  0
   38.3620   24.7400   36.3740 C   0  0  0  0  0  0  0  0  0  0  0  0
   38.6940   23.6600   37.1910 C   0  0  0  0  0  0  0  0  0  0  0  0
   39.3670   22.6110   36.6430 N   0  0  0  0  0  0  0  0  0  0  0  0
   39.7280   22.5710   35.3410 C   0  0  0  0  0  0  0  0  0  0  0  0
   39.4150   23.6070   34.5360 N   0  0  0  0  0  0  0  0  0  0  0  0
   37.8340   25.5720   36.7840 H   0  0  0  0  0  0  0  0  0  0  0  0
   40.2610   21.7090   34.9660 H   0  0  0  0  0  0  0  0  0  0  0  0
   38.2910   23.7140   38.6270 C   0  0  0  0  0  0  0  0  0  0  0  0
   37.6550   24.9250   38.7820 F   0  0  0  0  0  0  0  0  0  0  0  0
   37.4010   22.7050   38.9590 F   0  0  0  0  0  0  0  0  0  0  0  0
   39.3850   23.6850   39.4730 F   0  0  0  0  0  0  0  0  0  0  0  0
   36.4050   28.4840   33.0270 C   0  0  0  0  0  0  0  0  0  0  0  0
   35.7970   29.0890   34.1360 C   0  0  0  0  0  0  0  0  0  0  0  0
   34.8370   30.0250   33.9500 C   0  0  0  0  0  0  0  0  0  0  0  0
   34.4700   30.3680   32.6250 C   0  0  0  0  0  0  0  0  0  0  0  0
   35.5760   29.2790   31.6110 S   0  0  0  0  0  0  0  0  0  0  0  0
   36.0630   28.8410   35.1680 H   0  0  0  0  0  0  0  0  0  0  0  0
   34.2670   30.5890   34.6600 H   0  0  0  0  0  0  0  0  0  0  0  0
   32.2400   30.8690   31.8990 C   0  0  0  0  0  0  0  0  0  0  0  0
   33.5540   31.2560   32.0160 C   0  0  0  0  0  0  0  0  0  0  0  0
   34.0720   32.4540   31.5860 C   0  0  0  0  0  0  0  0  0  0  0  0
   35.1020   32.7160   31.6960 H   0  0  0  0  0  0  0  0  0  0  0  0
   33.2020   33.3680   30.9760 C   0  0  0  0  0  3  0  0  0  0  0  0
   31.8540   33.0190   30.8330 C   0  0  0  0  0  3  0  0  0  0  0  0
   31.3750   31.7860   31.2890 C   0  0  0  0  0  0  0  0  0  0  0  0
   31.7210   29.6590   32.3360 O   0  0  0  0  0  0  0  0  0  0  0  0
   31.4470   29.4640   33.2810 H   0  0  0  0  0  0  0  0  0  0  0  0
   30.0390   31.4300   31.1530 O   0  0  0  0  0  0  0  0  0  0  0  0
   29.3590   31.9320   31.7190 H   0  0  0  0  0  0  0  0  0  0  0  0
  1  5  2  0  0  0  0
  1  8  1  0  0  0  0
  2  1  1  0  0  0  0
  3  2  2  0  0  0  0
  3  4  1  0  0  0  0
  4  5  1  0  0  0  0
  6  2  1  0  0  0  0
  7  3  1  0  0  0  0
  8  9  1  0  0  0  0
  9 14  1  0  0  0  0
  9 10  2  0  0  0  0
 10 16  1  0  0  0  0
 11 10  1  0  0  0  0
 12 11  2  0  0  0  0
 13  8  2  0  0  0  0
 13 12  1  0  0  0  0
 15 12  1  0  0  0  0
 16 17  1  0  0  0  0
 16 18  1  0  0  0  0
 16 19  1  0  0  0  0
 20  4  1  0  0  0  0
 20 21  2  0  0  0  0
 21 25  1  0  0  0  0
 22 21  1  0  0  0  0
 22 26  1  0  0  0  0
 23 22  2  0  0  0  0
 24 23  1  0  0  0  0
 24 20  1  0  0  0  0
 27 28  1  0  0  0  0
 27 34  1  0  0  0  0
 28 23  1  0  0  0  0
 29 30  1  0  0  0  0
 29 28  2  0  0  0  0
 31 29  1  0  0  0  0
 32 31  2  0  0  0  0
 32 33  1  0  0  0  0
 33 27  2  0  0  0  0
 34 35  1  0  0  0  0
 36 33  1  0  0  0  0
 36 37  1  0  0  0  0
M  END
>  <minimizedAffinity>
-6.27039337

$$$$
