REMARK  Name = 
REMARK  3 active torsions:
REMARK  status: ('A' for Active; 'I' for Inactive)
REMARK    1  A    between atoms: C_2  and  C_12
REMARK    2  A    between atoms: O_10  and  C_11
REMARK    3  A    between atoms: C_17  and  O_18
REMARK                            x       y       z     vdW  Elec       q    Type
REMARK                         _______ _______ _______ _____ _____    ______ ____
ROOT
ATOM      1  C   UNL     1      39.499  32.668  49.936  0.00  0.00    +0.000 A 
ATOM      2  C   UNL     1      39.209  31.502  50.615  0.00  0.00    +0.000 A 
ATOM      3  C   UNL     1      40.129  31.169  51.609  0.00  0.00    +0.000 A 
ATOM      4  H   UNL     1      39.914  30.247  52.158  0.00  0.00    +0.000 HD
ATOM      5  C   UNL     1      41.246  31.968  51.877  0.00  0.00    +0.000 A 
ATOM      6  C   UNL     1      41.453  33.127  51.137  0.00  0.00    +0.000 A 
ATOM      7  C   UNL     1      40.560  33.484  50.145  0.00  0.00    +0.000 A 
ENDROOT
BRANCH   2   9
ATOM      8  C   UNL     1      37.295  30.181  51.407  0.00  0.00    +0.000 A 
ATOM      9  C   UNL     1      38.067  30.680  50.346  0.00  0.00    +0.000 A 
ATOM     10  C   UNL     1      37.679  30.343  49.045  0.00  0.00    +0.000 A 
ATOM     11  N   UNL     1      36.575  29.553  48.886  0.00  0.00    +0.000 NA
ATOM     12  C   UNL     1      35.859  29.095  49.940  0.00  0.00    +0.000 A 
ATOM     13  N   UNL     1      36.219  29.409  51.204  0.00  0.00    +0.000 NA
ATOM     14  H   UNL     1      37.551  30.410  52.419  0.00  0.00    +0.000 HD
ATOM     15  H   UNL     1      38.244  30.705  48.196  0.00  0.00    +0.000 HD
ATOM     16  H   UNL     1      35.027  28.490  49.620  0.00  0.00    +0.000 HD
ENDBRANCH   2   9
BRANCH   1  17
ATOM     17  O   UNL     1      38.626  33.085  48.914  0.00  0.00    +0.000 OA
ATOM     18  H   UNL     1      38.015  33.896  49.088  0.00  0.00    +0.000 HD
ENDBRANCH   1  17
BRANCH   7  19
ATOM     19  O   UNL     1      40.797  34.646  49.428  0.00  0.00    +0.000 OA
ATOM     20  H   UNL     1      40.855  34.541  48.405  0.00  0.00    +0.000 HD
ENDBRANCH   7  19
TORSDOF 3
