
 OpenBabel03272508273D

 40 43  0  0  1  0  0  0  0  0999 V2000
   33.7560   28.9040   47.2150 C   0  0  2  0  0  0  0  0  0  0  0  0
   34.4850   28.1130   48.2950 C   0  0  2  0  0  0  0  0  0  0  0  0
   33.5790   27.9690   49.3110 O   0  0  0  0  0  0  0  0  0  0  0  0
   32.3040   28.0700   48.8430 C   0  0  0  0  0  0  0  0  0  0  0  0
   32.3690   28.2620   47.3420 C   0  0  1  0  0  0  0  0  0  0  0  0
   33.6690   29.9700   47.4630 H   0  0  0  0  0  0  0  0  0  0  0  0
   34.7440   27.1330   47.8700 H   0  0  0  0  0  0  0  0  0  0  0  0
   31.7550   27.1230   49.0280 H   0  0  0  0  0  0  0  0  0  0  0  0
   31.7430   28.9470   49.2450 H   0  0  0  0  0  0  0  0  0  0  0  0
   32.3780   27.2720   46.8630 H   0  0  0  0  0  0  0  0  0  0  0  0
   35.5960   30.3390   49.0170 C   0  0  1  0  0  0  0  0  0  0  0  0
   35.6680   28.9290   48.7110 C   0  0  1  0  0  0  0  0  0  0  0  0
   35.8870   29.3240   50.1340 C   0  0  0  0  0  0  0  0  0  0  0  0
   34.7040   30.9430   49.2640 H   0  0  0  0  0  0  0  0  0  0  0  0
   36.6030   28.6020   48.1700 H   0  0  0  0  0  0  0  0  0  0  0  0
   36.9240   29.2780   50.5470 H   0  0  0  0  0  0  0  0  0  0  0  0
   35.1300   29.1630   50.8990 H   0  0  0  0  0  0  0  0  0  0  0  0
   36.7840   31.2530   48.7690 C   0  0  0  0  0  0  0  0  0  0  0  0
   37.0400   32.2460   49.7170 C   0  0  0  0  0  0  0  0  0  0  0  0
   38.1170   33.0650   49.4450 C   0  0  0  0  0  0  0  0  0  0  0  0
   38.8660   32.8900   48.3060 N   0  0  0  0  0  0  0  0  0  0  0  0
   38.5810   31.9130   47.4120 C   0  0  0  0  0  0  0  0  0  0  0  0
   37.5300   31.0870   47.6450 N   0  0  0  0  0  0  0  0  0  0  0  0
   36.4150   32.3310   50.5910 H   0  0  0  0  0  0  0  0  0  0  0  0
   38.3530   33.8510   50.1590 H   0  0  0  0  0  0  0  0  0  0  0  0
   39.1970   31.8110   46.5290 H   0  0  0  0  0  0  0  0  0  0  0  0
   34.2740   28.7360   45.9510 O   0  0  0  0  0  0  0  0  0  0  0  0
   34.2280   27.8120   45.6450 H   0  0  0  0  0  0  0  0  0  0  0  0
   31.3860   29.0620   46.8440 O   0  0  0  0  0  0  0  0  0  0  0  0
   29.6500   29.2540   45.3780 C   0  0  0  0  0  0  0  0  0  0  0  0
   30.1090   28.6760   46.5680 C   0  0  0  0  0  0  0  0  0  0  0  0
   29.2340   27.8490   47.2350 C   0  0  0  0  0  0  0  0  0  0  0  0
   29.6530   27.4440   48.1360 H   0  0  0  0  0  0  0  0  0  0  0  0
   27.9730   27.6010   46.7610 C   0  0  0  0  0  3  0  0  0  0  0  0
   27.5220   28.1680   45.5930 C   0  0  0  0  0  3  0  0  0  0  0  0
   28.3700   29.0030   44.8940 C   0  0  0  0  0  0  0  0  0  0  0  0
   30.3760   30.1130   44.5630 O   0  0  0  0  0  0  0  0  0  0  0  0
   30.4320   31.0920   44.8250 H   0  0  0  0  0  0  0  0  0  0  0  0
   27.8640   29.5430   43.7320 O   0  0  0  0  0  0  0  0  0  0  0  0
   28.4200   29.6470   42.8760 H   0  0  0  0  0  0  0  0  0  0  0  0
  1  5  1  0  0  0  0
  1  6  1  1  0  0  0
  1  2  1  0  0  0  0
  2  7  1  6  0  0  0
  2 12  1  0  0  0  0
  2  3  1  0  0  0  0
  4  8  1  0  0  0  0
  4  9  1  0  0  0  0
  4  3  1  0  0  0  0
  5 10  1  6  0  0  0
  5  4  1  0  0  0  0
 11 14  1  6  0  0  0
 11 13  1  0  0  0  0
 12 15  1  6  0  0  0
 12 11  1  0  0  0  0
 12 13  1  0  0  0  0
 13 16  1  0  0  0  0
 13 17  1  0  0  0  0
 18 11  1  0  0  0  0
 18 19  1  0  0  0  0
 19 24  1  0  0  0  0
 20 19  2  0  0  0  0
 20 25  1  0  0  0  0
 21 20  1  0  0  0  0
 22 23  1  0  0  0  0
 22 21  2  0  0  0  0
 23 18  2  0  0  0  0
 26 22  1  0  0  0  0
 27  1  1  0  0  0  0
 28 27  1  0  0  0  0
 29  5  1  0  0  0  0
 30 31  1  0  0  0  0
 31 29  1  0  0  0  0
 31 32  2  0  0  0  0
 32 33  1  0  0  0  0
 34 32  1  0  0  0  0
 35 34  2  0  0  0  0
 36 30  2  0  0  0  0
 36 35  1  0  0  0  0
 37 38  1  0  0  0  0
 37 30  1  0  0  0  0
 39 36  1  0  0  0  0
 40 39  1  0  0  0  0
M  END
>  <minimizedAffinity>
-5.32364464

>  <minimizedRMSD>
0.999346495

$$$$
