
 OpenBabel03272508053D

 37 40  0  0  0  0  0  0  0  0999 V2000
   38.8400   31.0080   45.7820 C   0  0  0  0  0  0  0  0  0  0  0  0
   39.9400   31.8270   45.9900 C   0  0  0  0  0  0  0  0  0  0  0  0
   40.7880   31.7810   44.8900 C   0  0  0  0  0  0  0  0  0  0  0  0
   40.1550   30.9260   44.0540 N   0  0  0  0  0  0  0  0  0  0  0  0
   39.0190   30.4710   44.5660 N   0  0  0  0  0  0  0  0  0  0  0  0
   40.1480   32.4310   46.8670 H   0  0  0  0  0  0  0  0  0  0  0  0
   41.7110   32.2640   44.6820 H   0  0  0  0  0  0  0  0  0  0  0  0
   37.7450   30.8030   46.7080 C   0  0  0  0  0  0  0  0  0  0  0  0
   37.9740   31.0070   48.0960 C   0  0  0  0  0  0  0  0  0  0  0  0
   36.8960   30.8010   48.9560 C   0  0  0  0  0  0  0  0  0  0  0  0
   35.7020   30.4210   48.4270 N   0  0  0  0  0  0  0  0  0  0  0  0
   35.5130   30.2330   47.1020 C   0  0  0  0  0  0  0  0  0  0  0  0
   36.5440   30.4270   46.2540 N   0  0  0  0  0  0  0  0  0  0  0  0
   38.9180   31.3070   48.4900 H   0  0  0  0  0  0  0  0  0  0  0  0
   34.5400   29.9300   46.7430 H   0  0  0  0  0  0  0  0  0  0  0  0
   37.1150   31.0110   50.4180 C   0  0  0  0  0  0  0  0  0  0  0  0
   36.5970   32.2580   50.6890 F   0  0  0  0  0  0  0  0  0  0  0  0
   36.4370   30.0780   51.1870 F   0  0  0  0  0  0  0  0  0  0  0  0
   38.4580   31.0160   50.7450 F   0  0  0  0  0  0  0  0  0  0  0  0
   40.5730   30.4830   42.7190 C   0  0  0  0  0  0  0  0  0  0  0  0
   40.2010   31.1840   41.5640 C   0  0  0  0  0  0  0  0  0  0  0  0
   40.6090   30.7460   40.3500 C   0  0  0  0  0  0  0  0  0  0  0  0
   41.4080   29.5780   40.2830 C   0  0  0  0  0  0  0  0  0  0  0  0
   41.5700   29.1030   42.0670 S   0  0  0  0  0  0  0  0  0  0  0  0
   39.5850   32.0880   41.5900 H   0  0  0  0  0  0  0  0  0  0  0  0
   40.4300   31.1410   39.3710 H   0  0  0  0  0  0  0  0  0  0  0  0
   41.5140   27.5670   38.9800 C   0  0  0  0  0  0  0  0  0  0  0  0
   42.0190   28.8160   39.2600 C   0  0  0  0  0  0  0  0  0  0  0  0
   43.0860   29.4020   38.6250 C   0  0  0  0  0  0  0  0  0  0  0  0
   43.4470   30.3770   38.8760 H   0  0  0  0  0  0  0  0  0  0  0  0
   43.7240   28.6840   37.6050 C   0  0  0  0  0  3  0  0  0  0  0  0
   43.2460   27.4090   37.2820 C   0  0  0  0  0  3  0  0  0  0  0  0
   42.1540   26.8540   37.9590 C   0  0  0  0  0  0  0  0  0  0  0  0
   40.4350   26.9780   39.6240 O   0  0  0  0  0  0  0  0  0  0  0  0
   39.4730   27.1560   39.4010 H   0  0  0  0  0  0  0  0  0  0  0  0
   41.6720   25.5890   37.6460 O   0  0  0  0  0  0  0  0  0  0  0  0
   41.2080   25.4720   36.7490 H   0  0  0  0  0  0  0  0  0  0  0  0
  1  2  1  0  0  0  0
  1  8  1  0  0  0  0
  2  6  1  0  0  0  0
  3  2  2  0  0  0  0
  4  5  1  0  0  0  0
  4  3  1  0  0  0  0
  5  1  2  0  0  0  0
  7  3  1  0  0  0  0
  8  9  1  0  0  0  0
  9 14  1  0  0  0  0
  9 10  2  0  0  0  0
 10 16  1  0  0  0  0
 11 10  1  0  0  0  0
 12 11  2  0  0  0  0
 13  8  2  0  0  0  0
 13 12  1  0  0  0  0
 15 12  1  0  0  0  0
 16 17  1  0  0  0  0
 16 19  1  0  0  0  0
 16 18  1  0  0  0  0
 20  4  1  0  0  0  0
 21 25  1  0  0  0  0
 21 20  2  0  0  0  0
 22 21  1  0  0  0  0
 23 22  2  0  0  0  0
 23 24  1  0  0  0  0
 24 20  1  0  0  0  0
 26 22  1  0  0  0  0
 27 28  1  0  0  0  0
 27 34  1  0  0  0  0
 28 23  1  0  0  0  0
 29 30  1  0  0  0  0
 29 28  2  0  0  0  0
 31 29  1  0  0  0  0
 32 31  2  0  0  0  0
 32 33  1  0  0  0  0
 33 27  2  0  0  0  0
 35 34  1  0  0  0  0
 36 33  1  0  0  0  0
 37 36  1  0  0  0  0
M  END
>  <minimizedAffinity>
-6.50446272

>  <minimizedRMSD>
0.332450688

$$$$
