
 OpenBabel03262521083D

 47 49  0  0  1  0  0  0  0  0999 V2000
   39.9140   26.5040   32.2070 C   0  0  2  0  0  0  0  0  0  0  0  0
   39.8020   27.3380   31.0180 C   0  0  0  0  0  0  0  0  0  0  0  0
   39.1030   26.6360   29.8590 C   0  0  0  0  0  0  0  0  0  0  0  0
   39.7630   25.3400   29.4840 C   0  0  0  0  0  0  0  0  0  0  0  0
   40.3000   24.5690   30.6570 C   0  0  0  0  0  0  0  0  0  0  0  0
   39.6680   25.0380   31.9610 C   0  0  2  0  0  0  0  0  0  0  0  0
   40.9750   26.5840   32.5930 H   0  0  0  0  0  0  0  0  0  0  0  0
   39.2260   28.2640   31.1440 H   0  0  0  0  0  0  0  0  0  0  0  0
   40.8070   27.6850   30.6330 H   0  0  0  0  0  0  0  0  0  0  0  0
   38.0160   26.5830   29.9970 H   0  0  0  0  0  0  0  0  0  0  0  0
   39.2730   27.3230   28.9990 H   0  0  0  0  0  0  0  0  0  0  0  0
   40.6150   25.5090   28.7740 H   0  0  0  0  0  0  0  0  0  0  0  0
   39.0240   24.7320   28.9240 H   0  0  0  0  0  0  0  0  0  0  0  0
   40.0360   23.4910   30.5600 H   0  0  0  0  0  0  0  0  0  0  0  0
   41.3960   24.6920   30.7800 H   0  0  0  0  0  0  0  0  0  0  0  0
   40.2190   24.4840   32.7620 H   0  0  0  0  0  0  0  0  0  0  0  0
   39.0690   26.8980   33.3390 C   0  0  0  0  0  0  0  0  0  0  0  0
   39.7380   26.9440   34.5670 C   0  0  0  0  0  0  0  0  0  0  0  0
   38.9920   27.3270   35.6700 C   0  0  0  0  0  0  0  0  0  0  0  0
   37.6700   27.6330   35.5160 N   0  0  0  0  0  0  0  0  0  0  0  0
   37.0660   27.5750   34.3190 C   0  0  0  0  0  0  0  0  0  0  0  0
   37.7800   27.2140   33.2920 N   0  0  0  0  0  0  0  0  0  0  0  0
   40.7240   26.7440   34.9280 H   0  0  0  0  0  0  0  0  0  0  0  0
   39.2800   27.4350   36.7000 H   0  0  0  0  0  0  0  0  0  0  0  0
   36.0100   27.8210   34.2120 H   0  0  0  0  0  0  0  0  0  0  0  0
   38.3610   24.5570   31.9680 N   0  0  0  0  0  0  0  0  0  0  0  0
   37.9010   24.3740   31.0500 H   0  0  0  0  0  0  0  0  0  0  0  0
   38.0000   23.2750   33.0150 S   0  0  1  0  0  0  0  0  0  0  0  0
   39.0850   22.2360   32.7680 O   0  0  0  0  0  0  0  0  0  0  0  0
   39.9340   22.2180   33.3010 H   0  0  0  0  0  0  0  0  0  0  0  0
   38.0140   23.6450   34.4300 O   0  0  0  0  0  0  0  0  0  0  0  0
   39.3220   22.7220   36.2620 C   0  0  0  0  0  0  0  0  0  0  0  0
   38.3150   23.5440   35.7310 C   0  0  0  0  0  0  0  0  0  0  0  0
   37.6340   24.2660   36.6930 C   0  0  0  0  0  0  0  0  0  0  0  0
   36.8240   24.9490   36.4420 H   0  0  0  0  0  0  0  0  0  0  0  0
   37.9090   24.1940   38.0430 C   0  0  0  0  0  3  0  0  0  0  0  0
   38.9190   23.3540   38.4540 C   0  0  0  0  0  3  0  0  0  0  0  0
   39.6660   22.5850   37.5880 C   0  0  0  0  0  0  0  0  0  0  0  0
   40.0400   21.9690   35.3160 O   0  0  0  0  0  0  0  0  0  0  0  0
   40.0580   20.9520   35.4640 H   0  0  0  0  0  0  0  0  0  0  0  0
   40.6790   21.7380   37.9590 O   0  0  0  0  0  0  0  0  0  0  0  0
   40.6000   20.7300   38.0070 H   0  0  0  0  0  0  0  0  0  0  0  0
   36.5560   22.5110   32.6150 O   0  0  0  0  0  0  0  0  0  0  0  0
   36.2540   22.6060   31.2680 C   0  0  0  0  0  0  0  0  0  0  0  0
   37.3320   22.2200   30.5210 F   0  0  0  0  0  0  0  0  0  0  0  0
   35.2400   21.6990   31.0130 F   0  0  0  0  0  0  0  0  0  0  0  0
   35.7600   23.8490   30.8950 F   0  0  0  0  0  0  0  0  0  0  0  0
  1  7  1  1  0  0  0
  1 17  1  0  0  0  0
  2  8  1  0  0  0  0
  2  1  1  0  0  0  0
  3 10  1  0  0  0  0
  3  2  1  0  0  0  0
  4  3  1  0  0  0  0
  4  5  1  0  0  0  0
  5 15  1  0  0  0  0
  5  6  1  0  0  0  0
  6 26  1  0  0  0  0
  6  1  1  0  0  0  0
  6 16  1  1  0  0  0
  9  2  1  0  0  0  0
 11  3  1  0  0  0  0
 12  4  1  0  0  0  0
 13  4  1  0  0  0  0
 14  5  1  0  0  0  0
 17 18  1  0  0  0  0
 18 23  1  0  0  0  0
 18 19  2  0  0  0  0
 19 24  1  0  0  0  0
 20 19  1  0  0  0  0
 21 20  2  0  0  0  0
 22 17  2  0  0  0  0
 22 21  1  0  0  0  0
 25 21  1  0  0  0  0
 26 28  1  0  0  0  0
 27 26  1  0  0  0  0
 28 43  1  6  0  0  0
 28 31  1  0  0  0  0
 29 28  1  0  0  0  0
 29 30  1  0  0  0  0
 31 33  1  0  0  0  0
 32 38  1  0  0  0  0
 33 32  2  0  0  0  0
 33 34  1  0  0  0  0
 34 36  2  0  0  0  0
 35 34  1  0  0  0  0
 36 37  1  0  0  0  0
 38 41  1  0  0  0  0
 38 37  2  0  0  0  0
 39 40  1  0  0  0  0
 39 32  1  0  0  0  0
 41 42  1  0  0  0  0
 44 43  1  0  0  0  0
 45 44  1  0  0  0  0
 46 44  1  0  0  0  0
 47 44  1  0  0  0  0
M  END
>  <minimizedAffinity>
-6.21172428

$$$$

 OpenBabel03262521083D

 47 49  0  0  1  0  0  0  0  0999 V2000
   37.9880   23.8570   31.9640 C   0  0  2  0  0  0  0  0  0  0  0  0
   36.9650   23.1150   31.2400 C   0  0  0  0  0  0  0  0  0  0  0  0
   36.3650   21.9740   32.0540 C   0  0  0  0  0  0  0  0  0  0  0  0
   37.4020   21.0100   32.5540 C   0  0  0  0  0  0  0  0  0  0  0  0
   38.6950   21.6630   32.9560 C   0  0  0  0  0  0  0  0  0  0  0  0
   38.5100   23.1560   33.1920 C   0  0  2  0  0  0  0  0  0  0  0  0
   38.8780   23.9890   31.2780 H   0  0  0  0  0  0  0  0  0  0  0  0
   36.0900   23.7000   30.9300 H   0  0  0  0  0  0  0  0  0  0  0  0
   37.3530   22.6630   30.2790 H   0  0  0  0  0  0  0  0  0  0  0  0
   35.6550   22.3300   32.8110 H   0  0  0  0  0  0  0  0  0  0  0  0
   35.7630   21.4110   31.3060 H   0  0  0  0  0  0  0  0  0  0  0  0
   37.6430   20.2350   31.7790 H   0  0  0  0  0  0  0  0  0  0  0  0
   36.9660   20.4530   33.4070 H   0  0  0  0  0  0  0  0  0  0  0  0
   39.0520   21.2410   33.9240 H   0  0  0  0  0  0  0  0  0  0  0  0
   39.4800   21.5650   32.1760 H   0  0  0  0  0  0  0  0  0  0  0  0
   39.5420   23.5490   33.3690 H   0  0  0  0  0  0  0  0  0  0  0  0
   37.6180   25.2160   32.3700 C   0  0  0  0  0  0  0  0  0  0  0  0
   36.5150   25.7400   31.6870 C   0  0  0  0  0  0  0  0  0  0  0  0
   36.1090   27.0160   32.0430 C   0  0  0  0  0  0  0  0  0  0  0  0
   36.7860   27.6910   33.0180 N   0  0  0  0  0  0  0  0  0  0  0  0
   37.8410   27.1520   33.6480 C   0  0  0  0  0  0  0  0  0  0  0  0
   38.2100   25.9520   33.3040 N   0  0  0  0  0  0  0  0  0  0  0  0
   35.8550   25.4230   30.9070 H   0  0  0  0  0  0  0  0  0  0  0  0
   35.3020   27.6180   31.6670 H   0  0  0  0  0  0  0  0  0  0  0  0
   38.3720   27.7030   34.4240 H   0  0  0  0  0  0  0  0  0  0  0  0
   37.8190   23.2870   34.3950 N   0  0  0  0  0  0  0  0  0  0  0  0
   36.9250   22.7630   34.5070 H   0  0  0  0  0  0  0  0  0  0  0  0
   38.7070   23.1470   35.8310 S   0  0  1  0  0  0  0  0  0  0  0  0
   38.3280   21.7900   36.4080 O   0  0  0  0  0  0  0  0  0  0  0  0
   38.8480   20.9590   36.1970 H   0  0  0  0  0  0  0  0  0  0  0  0
   40.1570   23.1880   35.6360 O   0  0  0  0  0  0  0  0  0  0  0  0
   41.8600   24.8630   35.1750 C   0  0  0  0  0  0  0  0  0  0  0  0
   41.4060   23.6610   35.7410 C   0  0  0  0  0  0  0  0  0  0  0  0
   42.3840   22.9800   36.4400 C   0  0  0  0  0  0  0  0  0  0  0  0
   42.1900   22.0320   36.9370 H   0  0  0  0  0  0  0  0  0  0  0  0
   43.6820   23.4290   36.5750 C   0  0  0  0  0  3  0  0  0  0  0  0
   44.0200   24.6230   35.9780 C   0  0  0  0  0  3  0  0  0  0  0  0
   43.1300   25.3890   35.2550 C   0  0  0  0  0  0  0  0  0  0  0  0
   40.8940   25.5880   34.4540 O   0  0  0  0  0  0  0  0  0  0  0  0
   41.1310   25.8160   33.4800 H   0  0  0  0  0  0  0  0  0  0  0  0
   43.4290   26.5820   34.6480 O   0  0  0  0  0  0  0  0  0  0  0  0
   43.5800   26.7000   33.6550 H   0  0  0  0  0  0  0  0  0  0  0  0
   38.2310   24.2700   36.9880 O   0  0  0  0  0  0  0  0  0  0  0  0
   38.3280   23.7830   38.2790 C   0  0  0  0  0  0  0  0  0  0  0  0
   39.5730   23.2610   38.4880 F   0  0  0  0  0  0  0  0  0  0  0  0
   38.1950   24.8650   39.1340 F   0  0  0  0  0  0  0  0  0  0  0  0
   37.3110   22.9000   38.6190 F   0  0  0  0  0  0  0  0  0  0  0  0
  1  7  1  6  0  0  0
  1 17  1  0  0  0  0
  1  6  1  0  0  0  0
  2  1  1  0  0  0  0
  2  3  1  0  0  0  0
  3  4  1  0  0  0  0
  3 10  1  0  0  0  0
  4  5  1  0  0  0  0
  4 13  1  0  0  0  0
  5  6  1  0  0  0  0
  5 14  1  0  0  0  0
  6 16  1  1  0  0  0
  6 26  1  0  0  0  0
  8  2  1  0  0  0  0
  9  2  1  0  0  0  0
 11  3  1  0  0  0  0
 12  4  1  0  0  0  0
 15  5  1  0  0  0  0
 17 22  1  0  0  0  0
 18 19  1  0  0  0  0
 18 17  2  0  0  0  0
 19 20  2  0  0  0  0
 20 21  1  0  0  0  0
 21 25  1  0  0  0  0
 22 21  2  0  0  0  0
 23 18  1  0  0  0  0
 24 19  1  0  0  0  0
 26 27  1  0  0  0  0
 26 28  1  0  0  0  0
 28 31  1  6  0  0  0
 28 29  1  0  0  0  0
 28 43  1  0  0  0  0
 30 29  1  0  0  0  0
 31 33  1  0  0  0  0
 32 38  2  0  0  0  0
 32 33  1  0  0  0  0
 33 34  2  0  0  0  0
 34 36  1  0  0  0  0
 34 35  1  0  0  0  0
 37 36  2  0  0  0  0
 38 37  1  0  0  0  0
 39 32  1  0  0  0  0
 40 39  1  0  0  0  0
 41 38  1  0  0  0  0
 42 41  1  0  0  0  0
 43 44  1  0  0  0  0
 44 45  1  0  0  0  0
 44 47  1  0  0  0  0
 44 46  1  0  0  0  0
M  END
>  <minimizedAffinity>
-6.12161779

$$$$

 OpenBabel03262521083D

 47 49  0  0  1  0  0  0  0  0999 V2000
   38.1880   23.6180   31.9490 C   0  0  2  0  0  0  0  0  0  0  0  0
   37.1620   22.8770   31.2290 C   0  0  0  0  0  0  0  0  0  0  0  0
   36.3040   22.0040   32.1390 C   0  0  0  0  0  0  0  0  0  0  0  0
   37.1190   21.0410   32.9540 C   0  0  0  0  0  0  0  0  0  0  0  0
   38.4350   21.5980   33.4170 C   0  0  0  0  0  0  0  0  0  0  0  0
   38.4460   23.1200   33.3470 C   0  0  2  0  0  0  0  0  0  0  0  0
   39.1650   23.5010   31.3890 H   0  0  0  0  0  0  0  0  0  0  0  0
   36.4270   23.4900   30.6910 H   0  0  0  0  0  0  0  0  0  0  0  0
   37.5930   22.1970   30.4340 H   0  0  0  0  0  0  0  0  0  0  0  0
   35.5680   22.5890   32.7050 H   0  0  0  0  0  0  0  0  0  0  0  0
   35.7210   21.3800   31.4250 H   0  0  0  0  0  0  0  0  0  0  0  0
   37.3340   20.1030   32.3770 H   0  0  0  0  0  0  0  0  0  0  0  0
   36.5040   20.7240   33.8200 H   0  0  0  0  0  0  0  0  0  0  0  0
   38.6050   21.3400   34.4880 H   0  0  0  0  0  0  0  0  0  0  0  0
   39.2860   21.2510   32.7930 H   0  0  0  0  0  0  0  0  0  0  0  0
   39.4960   23.4110   33.6000 H   0  0  0  0  0  0  0  0  0  0  0  0
   37.9770   25.0660   32.0410 C   0  0  0  0  0  0  0  0  0  0  0  0
   39.1540   25.8230   31.9940 C   0  0  0  0  0  0  0  0  0  0  0  0
   39.0130   27.2000   32.0590 C   0  0  0  0  0  0  0  0  0  0  0  0
   37.7650   27.7450   32.1660 N   0  0  0  0  0  0  0  0  0  0  0  0
   36.6620   26.9820   32.2100 C   0  0  0  0  0  0  0  0  0  0  0  0
   36.8100   25.6910   32.1460 N   0  0  0  0  0  0  0  0  0  0  0  0
   40.2030   25.6320   31.9290 H   0  0  0  0  0  0  0  0  0  0  0  0
   39.7560   27.9750   32.0410 H   0  0  0  0  0  0  0  0  0  0  0  0
   35.6730   27.4320   32.2960 H   0  0  0  0  0  0  0  0  0  0  0  0
   37.6420   23.5730   34.3900 N   0  0  0  0  0  0  0  0  0  0  0  0
   36.6740   23.1910   34.4660 H   0  0  0  0  0  0  0  0  0  0  0  0
   38.3210   23.6250   35.9420 S   0  0  1  0  0  0  0  0  0  0  0  0
   37.6150   22.5270   36.7270 O   0  0  0  0  0  0  0  0  0  0  0  0
   37.9770   21.5940   36.7760 H   0  0  0  0  0  0  0  0  0  0  0  0
   39.7620   23.3690   35.9650 O   0  0  0  0  0  0  0  0  0  0  0  0
   41.1890   21.7540   37.0930 C   0  0  0  0  0  0  0  0  0  0  0  0
   40.8880   22.6510   36.0560 C   0  0  0  0  0  0  0  0  0  0  0  0
   41.8840   22.7380   35.1010 C   0  0  0  0  0  0  0  0  0  0  0  0
   41.8030   23.3910   34.2340 H   0  0  0  0  0  0  0  0  0  0  0  0
   43.0600   22.0190   35.1530 C   0  0  0  0  0  3  0  0  0  0  0  0
   43.2510   21.1660   36.2170 C   0  0  0  0  0  3  0  0  0  0  0  0
   42.3300   20.9970   37.2290 C   0  0  0  0  0  0  0  0  0  0  0  0
   40.2000   21.6360   38.0870 O   0  0  0  0  0  0  0  0  0  0  0  0
   40.5040   21.8140   39.0520 H   0  0  0  0  0  0  0  0  0  0  0  0
   42.4850   20.1570   38.3030 O   0  0  0  0  0  0  0  0  0  0  0  0
   42.7250   20.4570   39.2380 H   0  0  0  0  0  0  0  0  0  0  0  0
   37.9570   25.0530   36.7510 O   0  0  0  0  0  0  0  0  0  0  0  0
   38.2110   26.1800   35.9910 C   0  0  0  0  0  0  0  0  0  0  0  0
   37.0920   26.5310   35.2890 F   0  0  0  0  0  0  0  0  0  0  0  0
   38.4770   27.2150   36.8710 F   0  0  0  0  0  0  0  0  0  0  0  0
   39.3360   26.0650   35.1840 F   0  0  0  0  0  0  0  0  0  0  0  0
  1  7  1  6  0  0  0
  1 17  1  0  0  0  0
  1  6  1  0  0  0  0
  2  1  1  0  0  0  0
  2  3  1  0  0  0  0
  3 10  1  0  0  0  0
  3  4  1  0  0  0  0
  4  5  1  0  0  0  0
  4 13  1  0  0  0  0
  5 14  1  0  0  0  0
  6  5  1  0  0  0  0
  6 16  1  1  0  0  0
  6 26  1  0  0  0  0
  8  2  1  0  0  0  0
  9  2  1  0  0  0  0
 11  3  1  0  0  0  0
 12  4  1  0  0  0  0
 15  5  1  0  0  0  0
 17 22  1  0  0  0  0
 18 17  2  0  0  0  0
 18 19  1  0  0  0  0
 19 20  2  0  0  0  0
 20 21  1  0  0  0  0
 21 25  1  0  0  0  0
 22 21  2  0  0  0  0
 23 18  1  0  0  0  0
 24 19  1  0  0  0  0
 26 27  1  0  0  0  0
 26 28  1  0  0  0  0
 28 31  1  6  0  0  0
 28 29  1  0  0  0  0
 28 43  1  0  0  0  0
 29 30  1  0  0  0  0
 31 33  1  0  0  0  0
 32 38  1  0  0  0  0
 32 39  1  0  0  0  0
 33 32  2  0  0  0  0
 34 36  2  0  0  0  0
 34 33  1  0  0  0  0
 35 34  1  0  0  0  0
 36 37  1  0  0  0  0
 37 38  2  0  0  0  0
 38 41  1  0  0  0  0
 39 40  1  0  0  0  0
 41 42  1  0  0  0  0
 44 43  1  0  0  0  0
 44 46  1  0  0  0  0
 45 44  1  0  0  0  0
 47 44  1  0  0  0  0
M  END
>  <minimizedAffinity>
-6.04487848

$$$$

 OpenBabel03262521083D

 47 49  0  0  1  0  0  0  0  0999 V2000
   39.9420   25.6710   33.8990 C   0  0  2  0  0  0  0  0  0  0  0  0
   39.9110   27.0320   34.4170 C   0  0  0  0  0  0  0  0  0  0  0  0
   39.0320   27.1810   35.6550 C   0  0  0  0  0  0  0  0  0  0  0  0
   37.6230   26.7150   35.4240 C   0  0  0  0  0  0  0  0  0  0  0  0
   37.5190   25.5120   34.5300 C   0  0  0  0  0  0  0  0  0  0  0  0
   38.8510   24.7800   34.4330 C   0  0  2  0  0  0  0  0  0  0  0  0
   39.7890   25.7180   32.7790 H   0  0  0  0  0  0  0  0  0  0  0  0
   40.8800   27.4370   34.7380 H   0  0  0  0  0  0  0  0  0  0  0  0
   39.5350   27.7790   33.6560 H   0  0  0  0  0  0  0  0  0  0  0  0
   39.5130   26.7850   36.5580 H   0  0  0  0  0  0  0  0  0  0  0  0
   38.9690   28.2830   35.7960 H   0  0  0  0  0  0  0  0  0  0  0  0
   36.9970   27.5280   34.9690 H   0  0  0  0  0  0  0  0  0  0  0  0
   37.1680   26.5060   36.4130 H   0  0  0  0  0  0  0  0  0  0  0  0
   36.7970   24.7790   34.9580 H   0  0  0  0  0  0  0  0  0  0  0  0
   37.2330   25.7790   33.4910 H   0  0  0  0  0  0  0  0  0  0  0  0
   38.6850   23.9840   33.6640 H   0  0  0  0  0  0  0  0  0  0  0  0
   41.2080   24.9530   34.0780 C   0  0  0  0  0  0  0  0  0  0  0  0
   42.2070   25.6990   34.7140 C   0  0  0  0  0  0  0  0  0  0  0  0
   43.4210   25.0650   34.9260 C   0  0  0  0  0  0  0  0  0  0  0  0
   43.5860   23.7730   34.5130 N   0  0  0  0  0  0  0  0  0  0  0  0
   42.6020   23.0940   33.9050 C   0  0  0  0  0  0  0  0  0  0  0  0
   41.4680   23.7030   33.7140 N   0  0  0  0  0  0  0  0  0  0  0  0
   42.3170   26.6900   35.1010 H   0  0  0  0  0  0  0  0  0  0  0  0
   44.3220   25.4250   35.3870 H   0  0  0  0  0  0  0  0  0  0  0  0
   42.7500   22.0630   33.5810 H   0  0  0  0  0  0  0  0  0  0  0  0
   39.0390   24.1280   35.6500 N   0  0  0  0  0  0  0  0  0  0  0  0
   38.6460   24.5700   36.5090 H   0  0  0  0  0  0  0  0  0  0  0  0
   38.7200   22.4650   35.7090 S   0  0  1  0  0  0  0  0  0  0  0  0
   37.5380   22.3140   36.6570 O   0  0  0  0  0  0  0  0  0  0  0  0
   36.5910   22.3190   36.3290 H   0  0  0  0  0  0  0  0  0  0  0  0
   38.3630   21.8850   34.4130 O   0  0  0  0  0  0  0  0  0  0  0  0
   36.3540   21.1490   33.2550 C   0  0  0  0  0  0  0  0  0  0  0  0
   37.6450   21.7000   33.2980 C   0  0  0  0  0  0  0  0  0  0  0  0
   38.1340   22.0470   32.0530 C   0  0  0  0  0  0  0  0  0  0  0  0
   39.1200   22.4860   31.9170 H   0  0  0  0  0  0  0  0  0  0  0  0
   37.4310   21.8740   30.8780 C   0  0  0  0  0  3  0  0  0  0  0  0
   36.1710   21.3240   30.9520 C   0  0  0  0  0  3  0  0  0  0  0  0
   35.5800   20.9390   32.1370 C   0  0  0  0  0  0  0  0  0  0  0  0
   35.8190   20.7810   34.5030 O   0  0  0  0  0  0  0  0  0  0  0  0
   35.5100   19.8050   34.5940 H   0  0  0  0  0  0  0  0  0  0  0  0
   34.3290   20.3880   32.2500 O   0  0  0  0  0  0  0  0  0  0  0  0
   34.1430   19.4060   32.4070 H   0  0  0  0  0  0  0  0  0  0  0  0
   39.9740   21.6000   36.4210 O   0  0  0  0  0  0  0  0  0  0  0  0
   40.6140   22.3080   37.4210 C   0  0  0  0  0  0  0  0  0  0  0  0
   39.6940   22.8060   38.3020 F   0  0  0  0  0  0  0  0  0  0  0  0
   41.3980   21.4080   38.1220 F   0  0  0  0  0  0  0  0  0  0  0  0
   41.4820   23.2830   36.9460 F   0  0  0  0  0  0  0  0  0  0  0  0
  1  7  1  6  0  0  0
  1 17  1  0  0  0  0
  1  2  1  0  0  0  0
  1  6  1  0  0  0  0
  2  8  1  0  0  0  0
  2  3  1  0  0  0  0
  3 11  1  0  0  0  0
  3 10  1  0  0  0  0
  4  3  1  0  0  0  0
  4 13  1  0  0  0  0
  5 14  1  0  0  0  0
  5  4  1  0  0  0  0
  6 16  1  6  0  0  0
  6  5  1  0  0  0  0
  6 26  1  0  0  0  0
  9  2  1  0  0  0  0
 12  4  1  0  0  0  0
 15  5  1  0  0  0  0
 17 18  1  0  0  0  0
 18 19  2  0  0  0  0
 18 23  1  0  0  0  0
 19 24  1  0  0  0  0
 20 19  1  0  0  0  0
 21 20  2  0  0  0  0
 22 21  1  0  0  0  0
 22 17  2  0  0  0  0
 25 21  1  0  0  0  0
 26 28  1  0  0  0  0
 26 27  1  0  0  0  0
 28 31  1  6  0  0  0
 28 43  1  0  0  0  0
 28 29  1  0  0  0  0
 30 29  1  0  0  0  0
 32 33  1  0  0  0  0
 32 39  1  0  0  0  0
 33 31  1  0  0  0  0
 34 33  2  0  0  0  0
 35 34  1  0  0  0  0
 36 37  2  0  0  0  0
 36 34  1  0  0  0  0
 37 38  1  0  0  0  0
 38 41  1  0  0  0  0
 38 32  2  0  0  0  0
 39 40  1  0  0  0  0
 41 42  1  0  0  0  0
 43 44  1  0  0  0  0
 44 46  1  0  0  0  0
 44 45  1  0  0  0  0
 47 44  1  0  0  0  0
M  END
>  <minimizedAffinity>
-6.02734613

$$$$

 OpenBabel03262521083D

 47 49  0  0  1  0  0  0  0  0999 V2000
   39.0660   26.1310   34.7520 C   0  0  2  0  0  0  0  0  0  0  0  0
   38.3070   27.0730   35.5620 C   0  0  0  0  0  0  0  0  0  0  0  0
   36.9560   27.4340   34.9530 C   0  0  0  0  0  0  0  0  0  0  0  0
   37.0770   27.9780   33.5580 C   0  0  0  0  0  0  0  0  0  0  0  0
   38.1550   27.3240   32.7410 C   0  0  0  0  0  0  0  0  0  0  0  0
   38.5640   25.9840   33.3390 C   0  0  2  0  0  0  0  0  0  0  0  0
   40.1280   26.5140   34.6690 H   0  0  0  0  0  0  0  0  0  0  0  0
   38.0500   26.7270   36.5720 H   0  0  0  0  0  0  0  0  0  0  0  0
   38.8590   28.0450   35.7320 H   0  0  0  0  0  0  0  0  0  0  0  0
   36.2140   26.6360   35.0800 H   0  0  0  0  0  0  0  0  0  0  0  0
   36.6070   28.2840   35.5810 H   0  0  0  0  0  0  0  0  0  0  0  0
   37.2860   29.0810   33.5700 H   0  0  0  0  0  0  0  0  0  0  0  0
   36.0910   27.8670   33.0630 H   0  0  0  0  0  0  0  0  0  0  0  0
   37.7760   27.0990   31.7170 H   0  0  0  0  0  0  0  0  0  0  0  0
   39.0790   27.9370   32.6890 H   0  0  0  0  0  0  0  0  0  0  0  0
   39.4370   25.6500   32.7240 H   0  0  0  0  0  0  0  0  0  0  0  0
   39.1950   24.7790   35.3050 C   0  0  0  0  0  0  0  0  0  0  0  0
   38.5840   24.6080   36.5530 C   0  0  0  0  0  0  0  0  0  0  0  0
   38.6590   23.3440   37.1160 C   0  0  0  0  0  0  0  0  0  0  0  0
   39.3100   22.3460   36.4470 N   0  0  0  0  0  0  0  0  0  0  0  0
   39.8830   22.5530   35.2520 C   0  0  0  0  0  0  0  0  0  0  0  0
   39.8040   23.7460   34.7360 N   0  0  0  0  0  0  0  0  0  0  0  0
   38.0500   25.2150   37.2520 H   0  0  0  0  0  0  0  0  0  0  0  0
   38.2730   22.9750   38.0490 H   0  0  0  0  0  0  0  0  0  0  0  0
   40.4000   21.7470   34.7310 H   0  0  0  0  0  0  0  0  0  0  0  0
   37.5250   25.0950   33.0760 N   0  0  0  0  0  0  0  0  0  0  0  0
   36.5510   25.4000   33.2910 H   0  0  0  0  0  0  0  0  0  0  0  0
   37.5210   24.3130   31.5720 S   0  0  1  0  0  0  0  0  0  0  0  0
   38.9300   24.4880   31.0230 O   0  0  0  0  0  0  0  0  0  0  0  0
   39.6520   23.8130   31.1900 H   0  0  0  0  0  0  0  0  0  0  0  0
   37.2190   22.8830   31.6510 O   0  0  0  0  0  0  0  0  0  0  0  0
   36.3400   21.4260   33.3900 C   0  0  0  0  0  0  0  0  0  0  0  0
   36.5850   21.7730   32.0510 C   0  0  0  0  0  0  0  0  0  0  0  0
   36.1030   20.8460   31.1480 C   0  0  0  0  0  0  0  0  0  0  0  0
   36.2130   20.9700   30.0720 H   0  0  0  0  0  0  0  0  0  0  0  0
   35.4440   19.6900   31.5140 C   0  0  0  0  0  3  0  0  0  0  0  0
   35.2580   19.4480   32.8570 C   0  0  0  0  0  3  0  0  0  0  0  0
   35.6950   20.3000   33.8490 C   0  0  0  0  0  0  0  0  0  0  0  0
   36.8160   22.3450   34.3430 O   0  0  0  0  0  0  0  0  0  0  0  0
   37.4510   21.9680   35.0580 H   0  0  0  0  0  0  0  0  0  0  0  0
   35.5280   20.0940   35.1940 O   0  0  0  0  0  0  0  0  0  0  0  0
   36.2550   19.7790   35.8240 H   0  0  0  0  0  0  0  0  0  0  0  0
   36.5140   25.0720   30.4610 O   0  0  0  0  0  0  0  0  0  0  0  0
   35.2350   25.2750   30.9460 C   0  0  0  0  0  0  0  0  0  0  0  0
   35.1350   26.5270   31.4860 F   0  0  0  0  0  0  0  0  0  0  0  0
   34.3750   25.2330   29.8620 F   0  0  0  0  0  0  0  0  0  0  0  0
   34.8040   24.2800   31.8150 F   0  0  0  0  0  0  0  0  0  0  0  0
  1  7  1  6  0  0  0
  1 17  1  0  0  0  0
  1  2  1  0  0  0  0
  2  9  1  0  0  0  0
  2  8  1  0  0  0  0
  3 10  1  0  0  0  0
  3  2  1  0  0  0  0
  3 11  1  0  0  0  0
  4 12  1  0  0  0  0
  4  3  1  0  0  0  0
  5  6  1  0  0  0  0
  5  4  1  0  0  0  0
  6 16  1  6  0  0  0
  6  1  1  0  0  0  0
 13  4  1  0  0  0  0
 14  5  1  0  0  0  0
 15  5  1  0  0  0  0
 17 18  1  0  0  0  0
 18 19  2  0  0  0  0
 18 23  1  0  0  0  0
 19 24  1  0  0  0  0
 20 19  1  0  0  0  0
 21 20  2  0  0  0  0
 22 21  1  0  0  0  0
 22 17  2  0  0  0  0
 25 21  1  0  0  0  0
 26 27  1  0  0  0  0
 26  6  1  0  0  0  0
 28 43  1  6  0  0  0
 28 31  1  0  0  0  0
 28 26  1  0  0  0  0
 29 30  1  0  0  0  0
 29 28  1  0  0  0  0
 31 33  1  0  0  0  0
 32 38  1  0  0  0  0
 32 39  1  0  0  0  0
 33 32  2  0  0  0  0
 34 36  2  0  0  0  0
 34 33  1  0  0  0  0
 35 34  1  0  0  0  0
 36 37  1  0  0  0  0
 37 38  2  0  0  0  0
 38 41  1  0  0  0  0
 39 40  1  0  0  0  0
 41 42  1  0  0  0  0
 43 44  1  0  0  0  0
 44 45  1  0  0  0  0
 44 47  1  0  0  0  0
 46 44  1  0  0  0  0
M  END
>  <minimizedAffinity>
-6.02064085

$$$$

 OpenBabel03262521083D

 47 49  0  0  1  0  0  0  0  0999 V2000
   36.2480   25.4910   31.8420 C   0  0  2  0  0  0  0  0  0  0  0  0
   35.7520   26.4040   30.8230 C   0  0  0  0  0  0  0  0  0  0  0  0
   36.5170   27.7230   30.7760 C   0  0  0  0  0  0  0  0  0  0  0  0
   36.5310   28.4320   32.1000 C   0  0  0  0  0  0  0  0  0  0  0  0
   36.6290   27.5100   33.2830 C   0  0  0  0  0  0  0  0  0  0  0  0
   37.1410   26.1360   32.8710 C   0  0  2  0  0  0  0  0  0  0  0  0
   35.3580   25.0830   32.4120 H   0  0  0  0  0  0  0  0  0  0  0  0
   35.8100   26.0350   29.7900 H   0  0  0  0  0  0  0  0  0  0  0  0
   34.6600   26.6650   30.9650 H   0  0  0  0  0  0  0  0  0  0  0  0
   37.4970   27.6200   30.2920 H   0  0  0  0  0  0  0  0  0  0  0  0
   35.9020   28.3560   30.0990 H   0  0  0  0  0  0  0  0  0  0  0  0
   35.6080   29.0550   32.2350 H   0  0  0  0  0  0  0  0  0  0  0  0
   37.3760   29.1480   32.0930 H   0  0  0  0  0  0  0  0  0  0  0  0
   37.3700   27.9050   34.0150 H   0  0  0  0  0  0  0  0  0  0  0  0
   35.6480   27.3430   33.7740 H   0  0  0  0  0  0  0  0  0  0  0  0
   37.0640   25.5110   33.7960 H   0  0  0  0  0  0  0  0  0  0  0  0
   36.9530   24.3060   31.3430 C   0  0  0  0  0  0  0  0  0  0  0  0
   36.4380   23.0910   31.8100 C   0  0  0  0  0  0  0  0  0  0  0  0
   37.0550   21.9370   31.3570 C   0  0  0  0  0  0  0  0  0  0  0  0
   38.1130   22.0310   30.4970 N   0  0  0  0  0  0  0  0  0  0  0  0
   38.5760   23.2170   30.0750 C   0  0  0  0  0  0  0  0  0  0  0  0
   37.9860   24.2930   30.5090 N   0  0  0  0  0  0  0  0  0  0  0  0
   35.6590   22.7740   32.4710 H   0  0  0  0  0  0  0  0  0  0  0  0
   36.8420   20.9050   31.5710 H   0  0  0  0  0  0  0  0  0  0  0  0
   39.4220   23.2760   29.3900 H   0  0  0  0  0  0  0  0  0  0  0  0
   38.4990   26.2800   32.5970 N   0  0  0  0  0  0  0  0  0  0  0  0
   38.8100   27.1430   32.1010 H   0  0  0  0  0  0  0  0  0  0  0  0
   39.5930   25.9580   33.8500 S   0  0  1  0  0  0  0  0  0  0  0  0
   39.8820   27.3090   34.4900 O   0  0  0  0  0  0  0  0  0  0  0  0
   39.3480   27.6550   35.2640 H   0  0  0  0  0  0  0  0  0  0  0  0
   39.0680   25.0540   34.8740 O   0  0  0  0  0  0  0  0  0  0  0  0
   39.8050   23.3780   36.4770 C   0  0  0  0  0  0  0  0  0  0  0  0
   38.9920   24.4470   36.0660 C   0  0  0  0  0  0  0  0  0  0  0  0
   38.0740   24.8360   37.0220 C   0  0  0  0  0  0  0  0  0  0  0  0
   37.3710   25.6510   36.8560 H   0  0  0  0  0  0  0  0  0  0  0  0
   37.9590   24.2410   38.2610 C   0  0  0  0  0  3  0  0  0  0  0  0
   38.8090   23.1990   38.5610 C   0  0  0  0  0  3  0  0  0  0  0  0
   39.7640   22.7240   37.6870 C   0  0  0  0  0  0  0  0  0  0  0  0
   40.7540   22.9500   35.5310 O   0  0  0  0  0  0  0  0  0  0  0  0
   40.7230   21.9550   35.2760 H   0  0  0  0  0  0  0  0  0  0  0  0
   40.6270   21.6910   37.9500 O   0  0  0  0  0  0  0  0  0  0  0  0
   40.5310   20.7530   37.5830 H   0  0  0  0  0  0  0  0  0  0  0  0
   41.0760   25.4120   33.2780 O   0  0  0  0  0  0  0  0  0  0  0  0
   42.1490   25.9880   33.9320 C   0  0  0  0  0  0  0  0  0  0  0  0
   42.0680   25.7340   35.2730 F   0  0  0  0  0  0  0  0  0  0  0  0
   43.2940   25.3600   33.4710 F   0  0  0  0  0  0  0  0  0  0  0  0
   42.3130   27.3380   33.6510 F   0  0  0  0  0  0  0  0  0  0  0  0
  1  7  1  1  0  0  0
  1  6  1  0  0  0  0
  2  9  1  0  0  0  0
  2  1  1  0  0  0  0
  3  2  1  0  0  0  0
  3  4  1  0  0  0  0
  4 12  1  0  0  0  0
  4  5  1  0  0  0  0
  5 15  1  0  0  0  0
  5 14  1  0  0  0  0
  6  5  1  0  0  0  0
  6 16  1  1  0  0  0
  8  2  1  0  0  0  0
 10  3  1  0  0  0  0
 11  3  1  0  0  0  0
 13  4  1  0  0  0  0
 17 18  1  0  0  0  0
 17  1  1  0  0  0  0
 18 23  1  0  0  0  0
 19 24  1  0  0  0  0
 19 18  2  0  0  0  0
 20 19  1  0  0  0  0
 21 20  2  0  0  0  0
 21 22  1  0  0  0  0
 22 17  2  0  0  0  0
 25 21  1  0  0  0  0
 26  6  1  0  0  0  0
 26 28  1  0  0  0  0
 27 26  1  0  0  0  0
 28 43  1  6  0  0  0
 28 29  1  0  0  0  0
 28 31  1  0  0  0  0
 29 30  1  0  0  0  0
 31 33  1  0  0  0  0
 32 38  1  0  0  0  0
 33 32  2  0  0  0  0
 33 34  1  0  0  0  0
 34 36  2  0  0  0  0
 35 34  1  0  0  0  0
 36 37  1  0  0  0  0
 38 41  1  0  0  0  0
 38 37  2  0  0  0  0
 39 32  1  0  0  0  0
 40 39  1  0  0  0  0
 42 41  1  0  0  0  0
 43 44  1  0  0  0  0
 44 45  1  0  0  0  0
 46 44  1  0  0  0  0
 47 44  1  0  0  0  0
M  END
>  <minimizedAffinity>
-6.01063204

$$$$

 OpenBabel03262521083D

 47 49  0  0  1  0  0  0  0  0999 V2000
   38.1550   22.0510   34.3810 C   0  0  2  0  0  0  0  0  0  0  0  0
   37.6590   21.7280   35.7110 C   0  0  0  0  0  0  0  0  0  0  0  0
   37.4540   22.9580   36.5890 C   0  0  0  0  0  0  0  0  0  0  0  0
   38.6990   23.7880   36.7230 C   0  0  0  0  0  0  0  0  0  0  0  0
   39.5270   23.8490   35.4700 C   0  0  0  0  0  0  0  0  0  0  0  0
   38.7100   23.4460   34.2490 C   0  0  2  0  0  0  0  0  0  0  0  0
   39.0120   21.3500   34.1450 H   0  0  0  0  0  0  0  0  0  0  0  0
   36.6840   21.2240   35.7410 H   0  0  0  0  0  0  0  0  0  0  0  0
   38.3490   21.0330   36.2770 H   0  0  0  0  0  0  0  0  0  0  0  0
   36.5480   23.5160   36.3220 H   0  0  0  0  0  0  0  0  0  0  0  0
   37.2660   22.5280   37.5980 H   0  0  0  0  0  0  0  0  0  0  0  0
   39.3580   23.4000   37.5430 H   0  0  0  0  0  0  0  0  0  0  0  0
   38.3960   24.8060   37.0390 H   0  0  0  0  0  0  0  0  0  0  0  0
   39.8610   24.8950   35.2830 H   0  0  0  0  0  0  0  0  0  0  0  0
   40.3980   23.1610   35.5030 H   0  0  0  0  0  0  0  0  0  0  0  0
   39.4470   23.4170   33.4080 H   0  0  0  0  0  0  0  0  0  0  0  0
   37.2010   21.8630   33.2850 C   0  0  0  0  0  0  0  0  0  0  0  0
   36.1120   21.0430   33.6040 C   0  0  0  0  0  0  0  0  0  0  0  0
   35.1680   20.8450   32.6100 C   0  0  0  0  0  0  0  0  0  0  0  0
   35.3350   21.4400   31.3920 N   0  0  0  0  0  0  0  0  0  0  0  0
   36.3960   22.2190   31.1270 C   0  0  0  0  0  0  0  0  0  0  0  0
   37.2740   22.3960   32.0710 N   0  0  0  0  0  0  0  0  0  0  0  0
   35.7810   20.4770   34.4480 H   0  0  0  0  0  0  0  0  0  0  0  0
   34.2610   20.2670   32.6190 H   0  0  0  0  0  0  0  0  0  0  0  0
   36.5160   22.6860   30.1490 H   0  0  0  0  0  0  0  0  0  0  0  0
   37.8410   24.5010   33.9840 N   0  0  0  0  0  0  0  0  0  0  0  0
   37.0800   24.6950   34.6710 H   0  0  0  0  0  0  0  0  0  0  0  0
   38.5190   25.9780   33.5040 S   0  0  1  0  0  0  0  0  0  0  0  0
   39.8020   25.6120   32.7690 O   0  0  0  0  0  0  0  0  0  0  0  0
   39.8230   25.4660   31.7780 H   0  0  0  0  0  0  0  0  0  0  0  0
   37.6660   26.7560   32.6040 O   0  0  0  0  0  0  0  0  0  0  0  0
   37.6790   27.6350   30.3360 C   0  0  0  0  0  0  0  0  0  0  0  0
   37.3540   27.6940   31.7010 C   0  0  0  0  0  0  0  0  0  0  0  0
   36.6610   28.8370   32.0500 C   0  0  0  0  0  0  0  0  0  0  0  0
   36.3380   29.0320   33.0710 H   0  0  0  0  0  0  0  0  0  0  0  0
   36.3180   29.8290   31.1550 C   0  0  0  0  0  3  0  0  0  0  0  0
   36.6880   29.6690   29.8380 C   0  0  0  0  0  3  0  0  0  0  0  0
   37.3800   28.5720   29.3730 C   0  0  0  0  0  0  0  0  0  0  0  0
   38.3850   26.4860   29.9380 O   0  0  0  0  0  0  0  0  0  0  0  0
   39.2810   26.6460   29.4610 H   0  0  0  0  0  0  0  0  0  0  0  0
   37.7650   28.3780   28.0700 O   0  0  0  0  0  0  0  0  0  0  0  0
   38.7060   28.5050   27.7220 H   0  0  0  0  0  0  0  0  0  0  0  0
   39.0080   26.9110   34.8130 O   0  0  0  0  0  0  0  0  0  0  0  0
   37.9630   27.2460   35.6540 C   0  0  0  0  0  0  0  0  0  0  0  0
   38.3410   27.0770   36.9570 F   0  0  0  0  0  0  0  0  0  0  0  0
   37.7130   28.5970   35.4780 F   0  0  0  0  0  0  0  0  0  0  0  0
   36.7740   26.5940   35.3520 F   0  0  0  0  0  0  0  0  0  0  0  0
  1  7  1  6  0  0  0
  1  2  1  0  0  0  0
  2  8  1  0  0  0  0
  2  9  1  0  0  0  0
  2  3  1  0  0  0  0
  3  4  1  0  0  0  0
  3 11  1  0  0  0  0
  4 13  1  0  0  0  0
  4 12  1  0  0  0  0
  5 15  1  0  0  0  0
  5  4  1  0  0  0  0
  6 16  1  6  0  0  0
  6  1  1  0  0  0  0
  6  5  1  0  0  0  0
 10  3  1  0  0  0  0
 14  5  1  0  0  0  0
 17 18  1  0  0  0  0
 17  1  1  0  0  0  0
 18 23  1  0  0  0  0
 19 24  1  0  0  0  0
 19 18  2  0  0  0  0
 20 19  1  0  0  0  0
 21 20  2  0  0  0  0
 21 22  1  0  0  0  0
 22 17  2  0  0  0  0
 25 21  1  0  0  0  0
 26  6  1  0  0  0  0
 26 27  1  0  0  0  0
 28 31  1  6  0  0  0
 28 26  1  0  0  0  0
 28 43  1  0  0  0  0
 29 28  1  0  0  0  0
 30 29  1  0  0  0  0
 32 33  1  0  0  0  0
 33 34  2  0  0  0  0
 33 31  1  0  0  0  0
 34 35  1  0  0  0  0
 36 34  1  0  0  0  0
 37 36  2  0  0  0  0
 38 37  1  0  0  0  0
 38 32  2  0  0  0  0
 39 32  1  0  0  0  0
 40 39  1  0  0  0  0
 41 38  1  0  0  0  0
 42 41  1  0  0  0  0
 43 44  1  0  0  0  0
 44 45  1  0  0  0  0
 46 44  1  0  0  0  0
 47 44  1  0  0  0  0
M  END
>  <minimizedAffinity>
-5.97046089

$$$$

 OpenBabel03262521083D

 47 49  0  0  1  0  0  0  0  0999 V2000
   38.1400   27.2510   31.8550 C   0  0  2  0  0  0  0  0  0  0  0  0
   37.2460   28.3840   32.0520 C   0  0  0  0  0  0  0  0  0  0  0  0
   35.8120   27.9670   32.3640 C   0  0  0  0  0  0  0  0  0  0  0  0
   35.2290   27.0630   31.3150 C   0  0  0  0  0  0  0  0  0  0  0  0
   36.2180   26.0930   30.7320 C   0  0  0  0  0  0  0  0  0  0  0  0
   37.4360   25.9370   31.6330 C   0  0  2  0  0  0  0  0  0  0  0  0
   38.7490   27.4420   30.9210 H   0  0  0  0  0  0  0  0  0  0  0  0
   37.5070   29.0520   32.8820 H   0  0  0  0  0  0  0  0  0  0  0  0
   37.2000   29.0640   31.1500 H   0  0  0  0  0  0  0  0  0  0  0  0
   35.6940   27.6190   33.3980 H   0  0  0  0  0  0  0  0  0  0  0  0
   35.2430   28.9210   32.2920 H   0  0  0  0  0  0  0  0  0  0  0  0
   34.7970   27.6540   30.4650 H   0  0  0  0  0  0  0  0  0  0  0  0
   34.3740   26.5230   31.7680 H   0  0  0  0  0  0  0  0  0  0  0  0
   35.7610   25.0790   30.6580 H   0  0  0  0  0  0  0  0  0  0  0  0
   36.6010   26.4200   29.7430 H   0  0  0  0  0  0  0  0  0  0  0  0
   38.1420   25.2920   31.0520 H   0  0  0  0  0  0  0  0  0  0  0  0
   39.1300   27.0340   32.9140 C   0  0  0  0  0  0  0  0  0  0  0  0
   40.4010   26.6780   32.4490 C   0  0  0  0  0  0  0  0  0  0  0  0
   41.3820   26.4770   33.4070 C   0  0  0  0  0  0  0  0  0  0  0  0
   41.0750   26.6300   34.7290 N   0  0  0  0  0  0  0  0  0  0  0  0
   39.8410   26.9720   35.1330 C   0  0  0  0  0  0  0  0  0  0  0  0
   38.9310   27.1570   34.2210 N   0  0  0  0  0  0  0  0  0  0  0  0
   40.8630   26.4910   31.5040 H   0  0  0  0  0  0  0  0  0  0  0  0
   42.4150   26.2030   33.2950 H   0  0  0  0  0  0  0  0  0  0  0  0
   39.6110   27.0890   36.1920 H   0  0  0  0  0  0  0  0  0  0  0  0
   37.0260   25.1900   32.7350 N   0  0  0  0  0  0  0  0  0  0  0  0
   36.0040   25.0290   32.8650 H   0  0  0  0  0  0  0  0  0  0  0  0
   37.8420   23.7400   33.0500 S   0  0  1  0  0  0  0  0  0  0  0  0
   38.8750   23.6090   31.9380 O   0  0  0  0  0  0  0  0  0  0  0  0
   39.8070   23.9650   32.0350 H   0  0  0  0  0  0  0  0  0  0  0  0
   38.5330   23.7180   34.3400 O   0  0  0  0  0  0  0  0  0  0  0  0
   39.6140   22.6940   36.2640 C   0  0  0  0  0  0  0  0  0  0  0  0
   38.6800   23.5510   35.6610 C   0  0  0  0  0  0  0  0  0  0  0  0
   37.8950   24.2330   36.5710 C   0  0  0  0  0  0  0  0  0  0  0  0
   37.1230   24.9360   36.2620 H   0  0  0  0  0  0  0  0  0  0  0  0
   38.0100   24.0940   37.9390 C   0  0  0  0  0  3  0  0  0  0  0  0
   38.9620   23.2240   38.4230 C   0  0  0  0  0  3  0  0  0  0  0  0
   39.8010   22.4900   37.6120 C   0  0  0  0  0  0  0  0  0  0  0  0
   40.4330   21.9800   35.3710 O   0  0  0  0  0  0  0  0  0  0  0  0
   40.4290   20.9570   35.4710 H   0  0  0  0  0  0  0  0  0  0  0  0
   40.7600   21.6150   38.0570 O   0  0  0  0  0  0  0  0  0  0  0  0
   40.6710   20.6080   38.0460 H   0  0  0  0  0  0  0  0  0  0  0  0
   36.8440   22.3970   32.8880 O   0  0  0  0  0  0  0  0  0  0  0  0
   35.9870   22.4920   31.8060 C   0  0  0  0  0  0  0  0  0  0  0  0
   36.7000   22.7500   30.6690 F   0  0  0  0  0  0  0  0  0  0  0  0
   35.3980   21.2500   31.6410 F   0  0  0  0  0  0  0  0  0  0  0  0
   34.9440   23.3880   32.0000 F   0  0  0  0  0  0  0  0  0  0  0  0
  1  7  1  6  0  0  0
  1  2  1  0  0  0  0
  1 17  1  0  0  0  0
  2  3  1  0  0  0  0
  2  8  1  0  0  0  0
  3 10  1  0  0  0  0
  4 13  1  0  0  0  0
  4  3  1  0  0  0  0
  5  4  1  0  0  0  0
  5  6  1  0  0  0  0
  6 16  1  6  0  0  0
  6  1  1  0  0  0  0
  6 26  1  0  0  0  0
  9  2  1  0  0  0  0
 11  3  1  0  0  0  0
 12  4  1  0  0  0  0
 14  5  1  0  0  0  0
 15  5  1  0  0  0  0
 17 22  1  0  0  0  0
 18 17  2  0  0  0  0
 18 19  1  0  0  0  0
 19 20  2  0  0  0  0
 20 21  1  0  0  0  0
 21 25  1  0  0  0  0
 22 21  2  0  0  0  0
 23 18  1  0  0  0  0
 24 19  1  0  0  0  0
 26 27  1  0  0  0  0
 26 28  1  0  0  0  0
 28 29  1  6  0  0  0
 28 31  1  0  0  0  0
 29 30  1  0  0  0  0
 31 33  1  0  0  0  0
 32 38  1  0  0  0  0
 33 32  2  0  0  0  0
 33 34  1  0  0  0  0
 34 36  2  0  0  0  0
 35 34  1  0  0  0  0
 36 37  1  0  0  0  0
 38 41  1  0  0  0  0
 38 37  2  0  0  0  0
 39 40  1  0  0  0  0
 39 32  1  0  0  0  0
 42 41  1  0  0  0  0
 43 28  1  0  0  0  0
 44 47  1  0  0  0  0
 44 43  1  0  0  0  0
 45 44  1  0  0  0  0
 46 44  1  0  0  0  0
M  END
>  <minimizedAffinity>
-5.95826244

$$$$

 OpenBabel03262521083D

 47 49  0  0  1  0  0  0  0  0999 V2000
   37.7640   22.5370   34.3130 C   0  0  2  0  0  0  0  0  0  0  0  0
   38.1000   21.3620   33.5210 C   0  0  0  0  0  0  0  0  0  0  0  0
   38.8940   21.6960   32.2630 C   0  0  0  0  0  0  0  0  0  0  0  0
   38.1950   22.6930   31.3830 C   0  0  0  0  0  0  0  0  0  0  0  0
   37.4460   23.7530   32.1410 C   0  0  0  0  0  0  0  0  0  0  0  0
   37.9280   23.8450   33.5830 C   0  0  2  0  0  0  0  0  0  0  0  0
   36.6690   22.4700   34.5940 H   0  0  0  0  0  0  0  0  0  0  0  0
   38.7220   20.6130   34.0280 H   0  0  0  0  0  0  0  0  0  0  0  0
   37.1860   20.7860   33.1870 H   0  0  0  0  0  0  0  0  0  0  0  0
   39.9450   21.9230   32.4810 H   0  0  0  0  0  0  0  0  0  0  0  0
   38.8960   20.7390   31.6950 H   0  0  0  0  0  0  0  0  0  0  0  0
   37.4620   22.1870   30.7000 H   0  0  0  0  0  0  0  0  0  0  0  0
   38.9540   23.1520   30.7190 H   0  0  0  0  0  0  0  0  0  0  0  0
   37.6380   24.7530   31.6900 H   0  0  0  0  0  0  0  0  0  0  0  0
   36.3560   23.5500   32.1890 H   0  0  0  0  0  0  0  0  0  0  0  0
   37.2330   24.5720   34.0720 H   0  0  0  0  0  0  0  0  0  0  0  0
   38.4740   22.6650   35.5890 C   0  0  0  0  0  0  0  0  0  0  0  0
   37.7280   23.2750   36.6040 C   0  0  0  0  0  0  0  0  0  0  0  0
   38.3440   23.4070   37.8380 C   0  0  0  0  0  0  0  0  0  0  0  0
   39.6200   22.9490   38.0070 N   0  0  0  0  0  0  0  0  0  0  0  0
   40.3010   22.3710   37.0060 C   0  0  0  0  0  0  0  0  0  0  0  0
   39.7080   22.2530   35.8530 N   0  0  0  0  0  0  0  0  0  0  0  0
   36.7570   23.7100   36.7070 H   0  0  0  0  0  0  0  0  0  0  0  0
   37.9780   23.8340   38.7540 H   0  0  0  0  0  0  0  0  0  0  0  0
   41.3190   22.0110   37.1560 H   0  0  0  0  0  0  0  0  0  0  0  0
   39.1820   24.4500   33.5470 N   0  0  0  0  0  0  0  0  0  0  0  0
   39.8480   24.1570   32.8010 H   0  0  0  0  0  0  0  0  0  0  0  0
   39.2440   26.1380   33.6880 S   0  0  1  0  0  0  0  0  0  0  0  0
   40.5410   26.5520   33.0060 O   0  0  0  0  0  0  0  0  0  0  0  0
   40.5760   26.7940   32.0340 H   0  0  0  0  0  0  0  0  0  0  0  0
   38.1290   26.8270   33.0380 O   0  0  0  0  0  0  0  0  0  0  0  0
   37.7220   27.6740   30.7930 C   0  0  0  0  0  0  0  0  0  0  0  0
   37.5190   27.6580   32.1830 C   0  0  0  0  0  0  0  0  0  0  0  0
   36.6080   28.6030   32.6140 C   0  0  0  0  0  0  0  0  0  0  0  0
   36.3420   28.7190   33.6630 H   0  0  0  0  0  0  0  0  0  0  0  0
   35.9560   29.4800   31.7710 C   0  0  0  0  0  3  0  0  0  0  0  0
   36.2310   29.4080   30.4240 C   0  0  0  0  0  3  0  0  0  0  0  0
   37.1210   28.5070   29.8780 C   0  0  0  0  0  0  0  0  0  0  0  0
   38.6440   26.7260   30.3130 O   0  0  0  0  0  0  0  0  0  0  0  0
   39.4270   27.0950   29.7600 H   0  0  0  0  0  0  0  0  0  0  0  0
   37.4190   28.4050   28.5430 O   0  0  0  0  0  0  0  0  0  0  0  0
   38.2660   28.7540   28.1140 H   0  0  0  0  0  0  0  0  0  0  0  0
   39.4030   26.6400   35.2840 O   0  0  0  0  0  0  0  0  0  0  0  0
   38.1870   26.9140   35.8840 C   0  0  0  0  0  0  0  0  0  0  0  0
   38.2880   26.7490   37.2380 F   0  0  0  0  0  0  0  0  0  0  0  0
   37.9130   28.2520   35.6600 F   0  0  0  0  0  0  0  0  0  0  0  0
   37.1240   26.2080   35.3360 F   0  0  0  0  0  0  0  0  0  0  0  0
  1  7  1  1  0  0  0
  1 17  1  0  0  0  0
  2  8  1  0  0  0  0
  2  1  1  0  0  0  0
  3 10  1  0  0  0  0
  3  2  1  0  0  0  0
  4  5  1  0  0  0  0
  4  3  1  0  0  0  0
  5 15  1  0  0  0  0
  5  6  1  0  0  0  0
  6 16  1  1  0  0  0
  6  1  1  0  0  0  0
  9  2  1  0  0  0  0
 11  3  1  0  0  0  0
 12  4  1  0  0  0  0
 13  4  1  0  0  0  0
 14  5  1  0  0  0  0
 17 22  2  0  0  0  0
 17 18  1  0  0  0  0
 18 23  1  0  0  0  0
 18 19  2  0  0  0  0
 19 20  1  0  0  0  0
 19 24  1  0  0  0  0
 21 25  1  0  0  0  0
 21 20  2  0  0  0  0
 22 21  1  0  0  0  0
 26  6  1  0  0  0  0
 26 28  1  0  0  0  0
 27 26  1  0  0  0  0
 28 29  1  6  0  0  0
 28 43  1  0  0  0  0
 30 29  1  0  0  0  0
 31 28  1  0  0  0  0
 32 33  1  0  0  0  0
 33 34  2  0  0  0  0
 33 31  1  0  0  0  0
 34 35  1  0  0  0  0
 36 34  1  0  0  0  0
 37 36  2  0  0  0  0
 38 37  1  0  0  0  0
 38 32  2  0  0  0  0
 39 32  1  0  0  0  0
 40 39  1  0  0  0  0
 41 38  1  0  0  0  0
 42 41  1  0  0  0  0
 43 44  1  0  0  0  0
 44 45  1  0  0  0  0
 46 44  1  0  0  0  0
 47 44  1  0  0  0  0
M  END
>  <minimizedAffinity>
-5.89509439

$$$$
