
     RDKit          3D

 51 54  0  0  0  0  0  0  0  0999 V2000
   34.8185   30.0933   46.8694 C   0  0  0  0  0  0  0  0  0  0  0  0
   36.1451   30.5851   46.9374 C   0  0  0  0  0  0  0  0  0  0  0  0
   36.8376   30.7505   45.7422 C   0  0  0  0  0  0  0  0  0  0  0  0
   36.2149   30.4339   44.5737 N   0  0  0  0  0  0  0  0  0  0  0  0
   34.9526   29.9678   44.5461 C   0  0  0  0  0  0  0  0  0  0  0  0
   34.2621   29.7987   45.6726 N   0  0  0  0  0  0  0  0  0  0  0  0
   36.6406   30.8465   48.2685 N   0  0  0  0  0  0  0  0  0  0  0  0
   37.0736   31.9438   49.0826 C   0  0  0  0  0  0  0  0  0  0  0  0
   38.3958   31.4819   49.6093 C   0  0  0  0  0  0  0  0  0  0  0  0
   38.1995   29.9714   49.7781 C   0  0  0  0  0  0  0  0  0  0  0  0
   36.8380   29.7200   49.2264 C   0  0  1  0  0  0  0  0  0  0  0  0
   34.7928   28.9768   50.4253 C   0  0  0  0  0  0  0  0  0  0  0  0
   34.4884   28.0452   49.6098 O   0  0  0  0  0  0  0  0  0  0  0  0
   35.8683   29.9124   50.3027 N   0  0  0  0  0  0  0  0  0  0  0  0
   38.1877   31.2443   45.6943 C   0  0  0  0  0  0  0  0  0  0  0  0
   38.4414   32.4664   46.2458 C   0  0  0  0  0  0  0  0  0  0  0  0
   39.7041   33.0256   46.2782 C   0  0  0  0  0  0  0  0  0  0  0  0
   40.7494   32.2959   45.7149 C   0  0  0  0  0  0  0  0  0  0  0  0
   40.5550   31.0568   45.1403 C   0  0  0  0  0  0  0  0  0  0  0  0
   39.2435   30.5677   45.1535 C   0  0  0  0  0  0  0  0  0  0  0  0
   39.0132   29.2450   44.5317 C   0  0  0  0  0  0  0  0  0  0  0  0
   34.2110   29.9475   47.7325 H   0  0  0  0  0  0  0  0  0  0  0  0
   34.4243   29.7049   43.6290 H   0  0  0  0  0  0  0  0  0  0  0  0
   36.9701   32.9493   48.7377 H   0  0  0  0  0  0  0  0  0  0  0  0
   36.3881   31.9058   49.9883 H   0  0  0  0  0  0  0  0  0  0  0  0
   38.6653   31.9662   50.5736 H   0  0  0  0  0  0  0  0  0  0  0  0
   39.2275   31.6029   48.9154 H   0  0  0  0  0  0  0  0  0  0  0  0
   39.0115   29.3814   49.3388 H   0  0  0  0  0  0  0  0  0  0  0  0
   38.1889   29.7372   50.8755 H   0  0  0  0  0  0  0  0  0  0  0  0
   36.6816   28.7630   48.7370 H   0  0  0  0  0  0  0  0  0  0  0  0
   34.0232   28.8105   51.1570 H   0  0  0  0  0  0  0  0  0  0  0  0
   35.6609   30.5436   51.0993 H   0  0  0  0  0  0  0  0  0  0  0  0
   37.7645   33.1827   46.6739 H   0  0  0  0  0  0  0  0  0  0  0  0
   40.0382   33.9507   46.6763 H   0  0  0  0  0  0  0  0  0  0  0  0
   41.7851   32.6304   45.6816 H   0  0  0  0  0  0  0  0  0  0  0  0
   41.3636   30.4836   44.6973 H   0  0  0  0  0  0  0  0  0  0  0  0
   38.2140   28.6857   45.1175 H   0  0  0  0  0  0  0  0  0  0  0  0
   39.9332   28.6248   44.6374 H   0  0  0  0  0  0  0  0  0  0  0  0
   38.2821   26.9489   42.9491 O   0  0  0  0  0  0  0  0  0  0  0  0
   38.1484   28.1849   42.3663 C   0  0  0  0  0  0  0  0  0  0  0  0
   38.5127   29.2656   43.1437 C   0  0  0  0  0  0  0  0  0  0  0  0
   38.3734   30.5257   42.5466 C   0  0  0  0  0  0  0  0  0  0  0  0
   38.6422   31.4045   43.1073 H   0  0  0  0  0  0  0  0  0  0  0  0
   37.8995   30.7044   41.2524 C   0  0  0  0  0  0  0  0  0  0  0  0
   37.5352   29.6407   40.4747 C   0  0  0  0  0  0  0  0  0  0  0  0
   37.6751   28.4006   41.0687 C   0  0  0  0  0  0  0  0  0  0  0  0
   37.3112   27.2957   40.2999 O   0  0  0  0  0  0  0  0  0  0  0  0
   37.5540   26.2822   43.0842 H   0  0  0  0  0  0  0  0  0  0  0  0
   37.7975   31.6850   40.8024 H   0  0  0  0  0  0  0  0  0  0  0  0
   37.1721   29.7744   39.4798 H   0  0  0  0  0  0  0  0  0  0  0  0
   36.5459   27.3259   39.6327 H   0  0  0  0  0  0  0  0  0  0  0  0
  1  2  2  0
  2  7  1  0
  3  2  1  0
  4  3  2  0
  5  4  1  0
  5  6  2  0
  6  1  1  0
  7  8  1  0
  7 11  1  0
  8  9  1  0
  9 10  1  0
 11 10  1  0
 11 14  1  0
 13 12  2  0
 14 12  1  0
 15  3  1  0
 15 16  2  0
 16 17  1  0
 18 17  2  0
 19 20  2  0
 19 18  1  0
 20 15  1  0
 21 20  1  0
  1 22  1  0
  5 23  1  0
  8 24  1  0
  8 25  1  0
  9 26  1  0
  9 27  1  0
 10 28  1  0
 10 29  1  0
 11 30  1  6
 12 31  1  0
 14 32  1  0
 16 33  1  0
 17 34  1  0
 18 35  1  0
 19 36  1  0
 21 37  1  0
 21 38  1  0
 39 40  1  0
 40 41  2  0
 41 42  1  0
 42 43  1  0
 42 44  2  0
 44 45  1  0
 45 46  2  0
 46 47  1  0
 46 40  1  0
 39 48  1  0
 44 49  1  0
 45 50  1  0
 47 51  1  0
 21 41  1  0
M  ISO  8  22  14  23  14  24  13  25  13  26  13  27  13  28  13  29  13
M  ISO  8  30  13  31   6  33  14  34  14  35  14  36  14  37   8  38   8
M  ISO  1  43  16
M  END
>  <DihAtoms>  (1) 
19,20,40,39

>  <DihDeg>  (1) 
-146.112272046258

$$$$
