
     RDKit          3D

 22 23  0  0  0  0  0  0  0  0999 V2000
   37.2953   30.1815   51.4066 C   0  0  0  0  0  0  0  0  0  0  0  0
   38.0671   30.6795   50.3460 C   0  0  0  0  0  0  0  0  0  0  0  0
   37.6786   30.3434   49.0450 C   0  0  0  0  0  0  0  0  0  0  0  0
   36.5750   29.5533   48.8859 N   0  0  0  0  0  0  0  0  0  0  0  0
   35.8589   29.0945   49.9402 C   0  0  0  0  0  0  0  0  0  0  0  0
   36.2192   29.4089   51.2043 N   0  0  0  0  0  0  0  0  0  0  0  0
   37.5511   30.4100   52.4190 H   0  0  0  0  0  0  0  0  0  0  0  0
   38.2438   30.7047   48.1962 H   0  0  0  0  0  0  0  0  0  0  0  0
   35.0269   28.4896   49.6195 H   0  0  0  0  0  0  0  0  0  0  0  0
   38.3192   33.3559   49.3857 O   0  0  0  0  0  0  0  0  0  0  0  0
   39.3528   32.7976   50.1619 C   0  0  0  0  0  0  0  0  0  0  0  0
   39.2092   31.5020   50.6153 C   0  0  0  0  0  0  0  0  0  0  0  0
   40.2810   31.0337   51.3748 C   0  0  0  0  0  0  0  0  0  0  0  0
   40.1843   30.0083   51.7427 H   0  0  0  0  0  0  0  0  0  0  0  0
   41.3991   31.8322   51.6411 C   0  0  0  0  0  0  0  0  0  0  0  0
   41.4519   33.1283   51.1394 C   0  0  0  0  0  0  0  0  0  0  0  0
   40.4056   33.6211   50.3834 C   0  0  0  0  0  0  0  0  0  0  0  0
   40.4912   34.9170   49.8990 O   0  0  0  0  0  0  0  0  0  0  0  0
   37.7164   34.0743   49.8124 H   0  0  0  0  0  0  0  0  0  0  0  0
   42.1867   31.3802   52.2435 H   0  0  0  0  0  0  0  0  0  0  0  0
   42.3511   33.6808   51.3904 H   0  0  0  0  0  0  0  0  0  0  0  0
   40.3943   35.0253   48.8794 H   0  0  0  0  0  0  0  0  0  0  0  0
  2  1  2  0
  3  2  1  0
  4  3  2  0
  4  5  1  0
  5  6  2  0
  6  1  1  0
  1  7  1  0
  3  8  1  0
  5  9  1  0
 10 11  1  0
 11 12  2  0
 12 13  1  0
 13 14  1  0
 13 15  2  0
 15 16  1  0
 16 17  2  0
 17 18  1  0
 17 11  1  0
 10 19  1  0
 15 20  1  0
 16 21  1  0
 18 22  1  0
  2 12  1  0
M  ISO  4   7  14   8  14   9  14  14  16
M  END
>  <DihAtoms>  (1) 
0,1,11,10

>  <DihDeg>  (1) 
135.00069474466844

$$$$
