
     RDKit          3D

 44 47  0  0  0  0  0  0  0  0999 V2000
   37.3702   31.0592   47.1452 N   0  0  0  0  0  0  0  0  0  0  0  0
   36.7835   30.7188   45.9667 C   0  0  0  0  0  0  0  0  0  0  0  0
   37.2503   31.1928   44.7455 C   0  0  0  0  0  0  0  0  0  0  0  0
   38.3599   32.0446   44.7638 C   0  0  0  0  0  0  0  0  0  0  0  0
   38.8166   32.4969   43.6921 O   0  0  0  0  0  0  0  0  0  0  0  0
   38.9487   32.3852   45.9591 N   0  0  0  0  0  0  0  0  0  0  0  0
   38.4096   31.8671   47.0562 C   0  0  0  0  0  0  0  0  0  0  0  0
   38.9776   32.2039   48.1210 O   0  0  0  0  0  0  0  0  0  0  0  0
   37.2426   29.4782   50.4983 C   0  0  0  0  0  0  0  0  0  0  0  0
   37.7249   29.9604   49.2761 C   0  0  0  0  0  0  0  0  0  0  0  0
   36.8943   30.5786   48.3610 C   0  0  0  0  0  0  0  0  0  0  0  0
   35.6032   30.6914   48.7064 N   0  0  0  0  0  0  0  0  0  0  0  0
   35.0949   30.2362   49.8840 C   0  0  0  0  0  0  0  0  0  0  0  0
   35.9451   29.6242   50.7773 N   0  0  0  0  0  0  0  0  0  0  0  0
   36.6551   30.8556   43.4614 C   0  0  0  0  0  0  0  0  0  0  0  0
   37.0063   29.7586   42.7287 C   0  0  0  0  0  0  0  0  0  0  0  0
   36.4573   29.4177   41.5101 C   0  0  0  0  0  0  0  0  0  0  0  0
   35.4648   30.2601   40.9847 C   0  0  0  0  0  0  0  0  0  0  0  0
   35.1373   31.3586   41.7550 C   0  0  0  0  0  0  0  0  0  0  0  0
   35.7163   31.6153   42.9219 N   0  0  0  0  0  0  0  0  0  0  0  0
   40.0913   33.2634   45.9659 C   0  0  0  0  0  0  0  0  0  0  0  0
   39.9598   34.2351   45.0343 F   0  0  0  0  0  0  0  0  0  0  0  0
   41.2823   32.6140   45.6895 F   0  0  0  0  0  0  0  0  0  0  0  0
   40.1691   33.8751   47.2229 F   0  0  0  0  0  0  0  0  0  0  0  0
   35.9254   30.0594   45.9582 H   0  0  0  0  0  0  0  0  0  0  0  0
   37.9579   29.0102   51.1521 H   0  0  0  0  0  0  0  0  0  0  0  0
   38.7798   29.8489   49.0342 H   0  0  0  0  0  0  0  0  0  0  0  0
   34.0355   30.3484   50.1265 H   0  0  0  0  0  0  0  0  0  0  0  0
   37.7715   29.0776   43.0974 H   0  0  0  0  0  0  0  0  0  0  0  0
   36.7719   28.5436   40.9784 H   0  0  0  0  0  0  0  0  0  0  0  0
   35.0356   30.0086   40.0493 H   0  0  0  0  0  0  0  0  0  0  0  0
   35.6617   33.1726   39.7052 O   0  0  0  0  0  0  0  0  0  0  0  0
   34.3704   33.1874   40.2659 C   0  0  0  0  0  0  0  0  0  0  0  0
   34.1155   32.2854   41.2825 C   0  0  0  0  0  0  0  0  0  0  0  0
   32.8292   32.3708   41.7703 C   0  0  0  0  0  0  0  0  0  0  0  0
   32.5375   31.7045   42.5673 H   0  0  0  0  0  0  0  0  0  0  0  0
   31.8961   33.2645   41.2914 C   0  0  0  0  0  0  0  0  0  0  0  0
   32.2275   34.1341   40.2730 C   0  0  0  0  0  0  0  0  0  0  0  0
   33.4967   34.1074   39.7341 C   0  0  0  0  0  0  0  0  0  0  0  0
   33.8878   34.9576   38.7086 O   0  0  0  0  0  0  0  0  0  0  0  0
   35.7440   32.5612   38.8786 H   0  0  0  0  0  0  0  0  0  0  0  0
   30.8935   33.3096   41.6930 H   0  0  0  0  0  0  0  0  0  0  0  0
   31.4922   34.8341   39.9000 H   0  0  0  0  0  0  0  0  0  0  0  0
   33.2534   35.0343   37.9106 H   0  0  0  0  0  0  0  0  0  0  0  0
  1 11  1  0
  2  1  1  0
  3  4  1  0
  3  2  2  0
  4  6  1  0
  5  4  2  0
  6 21  1  0
  6  7  1  0
  7  1  1  0
  7  8  2  0
  9 14  2  0
 10  9  1  0
 11 12  1  0
 11 10  2  0
 12 13  2  0
 13 14  1  0
 15  3  1  0
 16 15  2  0
 17 16  1  0
 18 17  2  0
 18 19  1  0
 19 20  2  0
 20 15  1  0
 21 24  1  0
 22 21  1  0
 23 21  1  0
  2 25  1  0
  9 26  1  0
 10 27  1  0
 13 28  1  0
 16 29  1  0
 17 30  1  0
 18 31  1  0
 32 33  1  0
 33 34  2  0
 34 35  1  0
 35 36  1  0
 35 37  2  0
 37 38  1  0
 38 39  2  0
 39 40  1  0
 39 33  1  0
 32 41  1  0
 37 42  1  0
 38 43  1  0
 40 44  1  0
 19 34  1  0
M  ISO  8  25  14  26  14  27  14  28  14  29  14  30  14  31  14  36  16
M  END
>  <DihAtoms>  (1) 
17,18,33,32

>  <DihDeg>  (1) 
179.99613317020206

$$$$
