
 OpenBabel03272510173D

 30 32  0  0  0  0  0  0  0  0999 V2000
   37.1510   29.6890   51.2630 Br  0  0  0  0  0  0  0  0  0  0  0  0
   36.0390   29.3950   49.7340 C   0  0  0  0  0  0  0  0  0  0  0  0
   36.1780   30.1660   48.5790 C   0  0  0  0  0  0  0  0  0  0  0  0
   35.3410   29.8920   47.5190 C   0  0  0  0  0  0  0  0  0  0  0  0
   34.3790   28.8940   47.5520 C   0  0  0  0  0  0  0  0  0  0  0  0
   34.2670   28.1520   48.7030 C   0  0  0  0  0  0  0  0  0  0  0  0
   35.0910   28.4070   49.7750 C   0  0  0  0  0  0  0  0  0  0  0  0
   35.4430   30.4880   46.6150 H   0  0  0  0  0  0  0  0  0  0  0  0
   33.5200   27.3700   48.7410 H   0  0  0  0  0  0  0  0  0  0  0  0
   34.9830   27.8040   50.6810 H   0  0  0  0  0  0  0  0  0  0  0  0
   38.0060   33.2160   49.4250 C   0  0  0  0  0  0  0  0  0  0  0  0
   39.0480   33.2420   48.4740 C   0  0  0  0  0  0  0  0  0  0  0  0
   39.1160   32.1980   47.5360 C   0  0  0  0  0  0  0  0  0  0  0  0
   38.1680   31.2120   47.5950 N   0  0  0  0  0  0  0  0  0  0  0  0
   37.1810   31.2190   48.5230 C   0  0  0  0  0  0  0  0  0  0  0  0
   37.1030   32.2130   49.4290 N   0  0  0  0  0  0  0  0  0  0  0  0
   37.9950   34.0430   50.1280 H   0  0  0  0  0  0  0  0  0  0  0  0
   39.8060   33.9860   48.3890 H   0  0  0  0  0  0  0  0  0  0  0  0
   39.8590   32.1050   46.7640 H   0  0  0  0  0  0  0  0  0  0  0  0
   32.6310   29.6340   45.9600 C   0  0  0  0  0  0  0  0  0  0  0  0
   33.5410   28.6840   46.3690 C   0  0  0  0  0  0  0  0  0  0  0  0
   33.6550   27.5240   45.6480 C   0  0  0  0  0  0  0  0  0  0  0  0
   34.3350   26.7480   45.9040 H   0  0  0  0  0  0  0  0  0  0  0  0
   32.8310   27.3770   44.5310 C   0  0  0  0  0  3  0  0  0  0  0  0
   31.9150   28.3290   44.1160 C   0  0  0  0  0  3  0  0  0  0  0  0
   31.8190   29.4860   44.8560 C   0  0  0  0  0  0  0  0  0  0  0  0
   32.5330   30.8060   46.7100 O   0  0  0  0  0  0  0  0  0  0  0  0
   31.6490   31.2350   46.9470 H   0  0  0  0  0  0  0  0  0  0  0  0
   30.9180   30.5020   44.5070 O   0  0  0  0  0  0  0  0  0  0  0  0
   29.9660   30.4910   44.9020 H   0  0  0  0  0  0  0  0  0  0  0  0
  2  7  1  0  0  0  0
  2  1  1  0  0  0  0
  3  2  2  0  0  0  0
  4  5  2  0  0  0  0
  4  3  1  0  0  0  0
  5  6  1  0  0  0  0
  6  9  1  0  0  0  0
  6  7  2  0  0  0  0
  7 10  1  0  0  0  0
  8  4  1  0  0  0  0
 11 16  1  0  0  0  0
 11 17  1  0  0  0  0
 12 11  2  0  0  0  0
 13 14  2  0  0  0  0
 13 12  1  0  0  0  0
 14 15  1  0  0  0  0
 15  3  1  0  0  0  0
 15 16  2  0  0  0  0
 18 12  1  0  0  0  0
 19 13  1  0  0  0  0
 20 21  1  0  0  0  0
 20 27  1  0  0  0  0
 21  5  1  0  0  0  0
 22 23  1  0  0  0  0
 22 21  2  0  0  0  0
 24 22  1  0  0  0  0
 25 24  2  0  0  0  0
 25 26  1  0  0  0  0
 26 20  2  0  0  0  0
 27 28  1  0  0  0  0
 29 26  1  0  0  0  0
 29 30  1  0  0  0  0
M  END
>  <minimizedAffinity>
-6.4253993

>  <minimizedRMSD>
0.820474327

$$$$
