REMARK  Name = 
REMARK  4 active torsions:
REMARK  status: ('A' for Active; 'I' for Inactive)
REMARK    1  A    between atoms: C_5  and  C_9
REMARK    2  A    between atoms: C_11  and  C_22
REMARK    3  A    between atoms: O_20  and  C_21
REMARK    4  A    between atoms: C_27  and  O_28
REMARK                            x       y       z     vdW  Elec       q    Type
REMARK                         _______ _______ _______ _____ _____    ______ ____
ROOT
ATOM      1 BR   UNL     1      37.281  29.359  51.054  0.00  0.00    +0.000 Br
ATOM      2  C   UNL     1      35.962  29.317  49.669  0.00  0.00    +0.000 A 
ATOM      3  C   UNL     1      35.998  30.223  48.608  0.00  0.00    +0.000 A 
ATOM      4  C   UNL     1      35.013  30.127  47.648  0.00  0.00    +0.000 A 
ATOM      5  C   UNL     1      34.002  29.180  47.692  0.00  0.00    +0.000 A 
ATOM      6  C   UNL     1      33.994  28.302  48.750  0.00  0.00    +0.000 A 
ATOM      7  C   UNL     1      34.966  28.378  49.721  0.00  0.00    +0.000 A 
ATOM      8  H   UNL     1      35.034  30.829  46.818  0.00  0.00    +0.000 HD
ATOM      9  H   UNL     1      33.210  27.558  48.795  0.00  0.00    +0.000 HD
ATOM     10  H   UNL     1      34.939  27.669  50.553  0.00  0.00    +0.000 HD
ENDROOT
BRANCH   3  15
ATOM     11  C   UNL     1      37.984  33.176  49.439  0.00  0.00    +0.000 A 
ATOM     12  C   UNL     1      39.013  33.155  48.475  0.00  0.00    +0.000 A 
ATOM     13  C   UNL     1      39.018  32.113  47.533  0.00  0.00    +0.000 A 
ATOM     14  N   UNL     1      38.024  31.174  47.601  0.00  0.00    +0.000 NA
ATOM     15  C   UNL     1      37.050  31.226  48.542  0.00  0.00    +0.000 A 
ATOM     16  N   UNL     1      37.033  32.219  49.452  0.00  0.00    +0.000 NA
ATOM     17  H   UNL     1      38.023  34.000  50.145  0.00  0.00    +0.000 HD
ATOM     18  H   UNL     1      39.806  33.861  48.382  0.00  0.00    +0.000 HD
ATOM     19  H   UNL     1      39.745  31.986  46.750  0.00  0.00    +0.000 HD
ENDBRANCH   3  15
BRANCH   5  21
ATOM     20  C   UNL     1      32.008  30.112  46.557  0.00  0.00    +0.000 A 
ATOM     21  C   UNL     1      33.005  29.164  46.620  0.00  0.00    +0.000 A 
ATOM     22  C   UNL     1      33.053  28.190  45.656  0.00  0.00    +0.000 A 
ATOM     23  H   UNL     1      33.794  27.427  45.641  0.00  0.00    +0.000 HD
ATOM     24  C   UNL     1      32.078  28.222  44.658  0.00  0.00    +0.000 A 
ATOM     25  C   UNL     1      31.074  29.174  44.590  0.00  0.00    +0.000 A 
ATOM     26  C   UNL     1      31.045  30.141  45.569  0.00  0.00    +0.000 A 
BRANCH  20  27
ATOM     27  O   UNL     1      31.979  31.092  47.549  0.00  0.00    +0.000 OA
ATOM     28  H   UNL     1      31.125  31.399  47.992  0.00  0.00    +0.000 HD
ENDBRANCH  20  27
BRANCH  26  29
ATOM     29  O   UNL     1      30.063  31.142  45.577  0.00  0.00    +0.000 OA
ATOM     30  H   UNL     1      29.184  30.983  46.088  0.00  0.00    +0.000 HD
ENDBRANCH  26  29
ENDBRANCH   5  21
TORSDOF 4
