
 OpenBabel03272509163D

 49 52  0  0  1  0  0  0  0  0999 V2000
   38.1800   23.3780   30.3230 C   0  0  0  0  0  0  0  0  0  0  0  0
   38.7430   24.4340   31.0790 C   0  0  0  0  0  0  0  0  0  0  0  0
   39.7190   24.1120   32.0170 C   0  0  0  0  0  0  0  0  0  0  0  0
   40.0840   22.8090   32.1630 N   0  0  0  0  0  0  0  0  0  0  0  0
   39.5260   21.8300   31.4280 C   0  0  0  0  0  0  0  0  0  0  0  0
   38.5890   22.1050   30.5210 N   0  0  0  0  0  0  0  0  0  0  0  0
   37.4360   23.5340   29.5750 H   0  0  0  0  0  0  0  0  0  0  0  0
   39.7940   20.7760   31.5190 H   0  0  0  0  0  0  0  0  0  0  0  0
   38.2150   25.7490   30.7950 N   0  0  0  0  0  0  0  0  0  0  0  0
   38.4450   26.8580   29.9150 C   0  0  0  0  0  0  0  0  0  0  0  0
   38.5150   28.0270   30.8460 C   0  0  0  0  0  0  0  0  0  0  0  0
   37.5150   27.6600   31.9490 C   0  0  0  0  0  0  0  0  0  0  0  0
   37.0730   26.2820   31.5910 C   0  0  1  0  0  0  0  0  0  0  0  0
   39.1500   26.7800   29.1180 H   0  0  0  0  0  0  0  0  0  0  0  0
   37.4540   26.9930   29.3750 H   0  0  0  0  0  0  0  0  0  0  0  0
   38.2390   28.9840   30.3520 H   0  0  0  0  0  0  0  0  0  0  0  0
   39.4770   28.1550   31.3410 H   0  0  0  0  0  0  0  0  0  0  0  0
   37.9230   27.7850   32.9570 H   0  0  0  0  0  0  0  0  0  0  0  0
   36.6330   28.3500   31.8700 H   0  0  0  0  0  0  0  0  0  0  0  0
   36.8330   25.6200   32.4180 H   0  0  0  0  0  0  0  0  0  0  0  0
   34.9060   25.4060   30.7490 C   0  0  0  0  0  0  0  0  0  0  0  0
   34.9120   24.3360   31.4440 O   0  0  0  0  0  0  0  0  0  0  0  0
   35.9390   26.3910   30.6750 N   0  0  0  0  0  0  0  0  0  0  0  0
   33.9380   25.2980   30.2930 H   0  0  0  0  0  0  0  0  0  0  0  0
   35.5710   26.9940   29.9150 H   0  0  0  0  0  0  0  0  0  0  0  0
   40.3600   25.1060   32.8370 C   0  0  0  0  0  0  0  0  0  0  0  0
   41.5000   25.6860   32.3630 C   0  0  0  0  0  0  0  0  0  0  0  0
   42.1830   26.6680   33.0560 C   0  0  0  0  0  0  0  0  0  0  0  0
   41.6690   27.0660   34.2880 C   0  0  0  0  0  0  0  0  0  0  0  0
   40.5220   26.5140   34.8200 C   0  0  0  0  0  0  0  0  0  0  0  0
   39.8960   25.5280   34.0490 C   0  0  0  0  0  0  0  0  0  0  0  0
   42.0630   25.4750   31.4720 H   0  0  0  0  0  0  0  0  0  0  0  0
   43.0660   27.2010   32.8050 H   0  0  0  0  0  0  0  0  0  0  0  0
   42.1160   27.8300   34.9230 H   0  0  0  0  0  0  0  0  0  0  0  0
   40.1180   26.8180   35.7810 H   0  0  0  0  0  0  0  0  0  0  0  0
   38.6700   24.9160   34.6070 C   0  0  0  0  0  0  0  0  0  0  0  0
   38.3290   24.0680   33.9320 H   0  0  0  0  0  0  0  0  0  0  0  0
   37.8410   25.6600   34.5750 H   0  0  0  0  0  0  0  0  0  0  0  0
   39.6250   23.2420   36.2950 C   0  0  0  0  0  0  0  0  0  0  0  0
   38.8100   24.2980   35.9400 C   0  0  0  0  0  0  0  0  0  0  0  0
   38.0420   24.8540   36.9730 C   0  0  0  0  0  0  0  0  0  0  0  0
   37.3890   25.6810   36.7520 H   0  0  0  0  0  0  0  0  0  0  0  0
   38.0810   24.3900   38.2820 C   0  0  0  0  0  3  0  0  0  0  0  0
   38.8850   23.3460   38.6440 C   0  0  0  0  0  3  0  0  0  0  0  0
   39.6400   22.8020   37.6220 C   0  0  0  0  0  0  0  0  0  0  0  0
   40.3800   22.6960   35.2870 O   0  0  0  0  0  0  0  0  0  0  0  0
   41.3740   22.6240   35.2710 H   0  0  0  0  0  0  0  0  0  0  0  0
   40.4700   21.7340   37.9600 O   0  0  0  0  0  0  0  0  0  0  0  0
   40.9300   21.6680   38.8640 H   0  0  0  0  0  0  0  0  0  0  0  0
  1  6  2  0  0  0  0
  1  2  1  0  0  0  0
  2  3  2  0  0  0  0
  3  4  1  0  0  0  0
  3 26  1  0  0  0  0
  5  8  1  0  0  0  0
  5  4  2  0  0  0  0
  6  5  1  0  0  0  0
  7  1  1  0  0  0  0
  9  2  1  0  0  0  0
  9 13  1  0  0  0  0
 10  9  1  0  0  0  0
 10 11  1  0  0  0  0
 11 17  1  0  0  0  0
 11 12  1  0  0  0  0
 12 18  1  0  0  0  0
 13 12  1  0  0  0  0
 13 20  1  1  0  0  0
 14 10  1  0  0  0  0
 15 10  1  0  0  0  0
 16 11  1  0  0  0  0
 19 12  1  0  0  0  0
 21 22  2  0  0  0  0
 23 21  1  0  0  0  0
 23 13  1  0  0  0  0
 24 21  1  0  0  0  0
 25 23  1  0  0  0  0
 26 31  1  0  0  0  0
 27 26  2  0  0  0  0
 27 28  1  0  0  0  0
 28 29  2  0  0  0  0
 29 30  1  0  0  0  0
 29 34  1  0  0  0  0
 30 35  1  0  0  0  0
 31 36  1  0  0  0  0
 31 30  2  0  0  0  0
 32 27  1  0  0  0  0
 33 28  1  0  0  0  0
 36 40  1  0  0  0  0
 37 36  1  0  0  0  0
 38 36  1  0  0  0  0
 39 45  1  0  0  0  0
 40 39  2  0  0  0  0
 40 41  1  0  0  0  0
 41 43  2  0  0  0  0
 42 41  1  0  0  0  0
 43 44  1  0  0  0  0
 45 48  1  0  0  0  0
 45 44  2  0  0  0  0
 46 39  1  0  0  0  0
 47 46  1  0  0  0  0
 48 49  1  0  0  0  0
M  END
>  <minimizedAffinity>
-6.37120867

$$$$

 OpenBabel03272509163D

 49 52  0  0  1  0  0  0  0  0999 V2000
   35.2630   25.0980   31.1050 C   0  0  0  0  0  0  0  0  0  0  0  0
   36.3170   25.8780   31.6400 C   0  0  0  0  0  0  0  0  0  0  0  0
   37.3620   25.2120   32.2730 C   0  0  0  0  0  0  0  0  0  0  0  0
   37.3220   23.8540   32.3490 N   0  0  0  0  0  0  0  0  0  0  0  0
   36.3040   23.1430   31.8300 C   0  0  0  0  0  0  0  0  0  0  0  0
   35.2890   23.7510   31.2170 N   0  0  0  0  0  0  0  0  0  0  0  0
   34.4310   25.5240   30.5930 H   0  0  0  0  0  0  0  0  0  0  0  0
   36.2410   22.0550   31.8730 H   0  0  0  0  0  0  0  0  0  0  0  0
   36.1730   27.3070   31.4780 N   0  0  0  0  0  0  0  0  0  0  0  0
   36.3750   28.3260   30.4900 C   0  0  0  0  0  0  0  0  0  0  0  0
   37.1830   29.3540   31.2160 C   0  0  0  0  0  0  0  0  0  0  0  0
   36.6470   29.2760   32.6500 C   0  0  0  0  0  0  0  0  0  0  0  0
   35.6810   28.1400   32.6120 C   0  0  1  0  0  0  0  0  0  0  0  0
   36.6380   28.0650   29.4880 H   0  0  0  0  0  0  0  0  0  0  0  0
   35.3530   28.8080   30.3750 H   0  0  0  0  0  0  0  0  0  0  0  0
   37.0560   30.3750   30.7920 H   0  0  0  0  0  0  0  0  0  0  0  0
   38.2480   29.1330   31.2790 H   0  0  0  0  0  0  0  0  0  0  0  0
   37.4400   29.2050   33.4020 H   0  0  0  0  0  0  0  0  0  0  0  0
   36.0800   30.2200   32.8670 H   0  0  0  0  0  0  0  0  0  0  0  0
   35.5930   27.5490   33.5190 H   0  0  0  0  0  0  0  0  0  0  0  0
   33.5640   29.2990   33.2030 C   0  0  0  0  0  0  0  0  0  0  0  0
   33.7810   29.3480   34.4580 O   0  0  0  0  0  0  0  0  0  0  0  0
   34.3770   28.6660   32.2110 N   0  0  0  0  0  0  0  0  0  0  0  0
   32.6430   29.8530   33.1750 H   0  0  0  0  0  0  0  0  0  0  0  0
   33.7680   28.7610   31.3770 H   0  0  0  0  0  0  0  0  0  0  0  0
   38.4830   25.9050   32.8490 C   0  0  0  0  0  0  0  0  0  0  0  0
   39.4630   26.3440   32.0080 C   0  0  0  0  0  0  0  0  0  0  0  0
   40.5720   27.0410   32.4500 C   0  0  0  0  0  0  0  0  0  0  0  0
   40.6740   27.2940   33.8160 C   0  0  0  0  0  0  0  0  0  0  0  0
   39.7160   26.8740   34.7160 C   0  0  0  0  0  0  0  0  0  0  0  0
   38.6280   26.1750   34.1790 C   0  0  0  0  0  0  0  0  0  0  0  0
   39.5790   26.2000   30.9490 H   0  0  0  0  0  0  0  0  0  0  0  0
   41.3940   27.4410   31.9120 H   0  0  0  0  0  0  0  0  0  0  0  0
   41.4960   27.8340   34.2820 H   0  0  0  0  0  0  0  0  0  0  0  0
   39.7900   27.0650   35.7820 H   0  0  0  0  0  0  0  0  0  0  0  0
   37.5950   25.7070   35.1300 C   0  0  0  0  0  0  0  0  0  0  0  0
   36.8120   25.1010   34.5700 H   0  0  0  0  0  0  0  0  0  0  0  0
   37.0430   26.5860   35.5350 H   0  0  0  0  0  0  0  0  0  0  0  0
   38.7320   23.6050   36.0540 C   0  0  0  0  0  0  0  0  0  0  0  0
   38.0680   24.8070   36.1990 C   0  0  0  0  0  0  0  0  0  0  0  0
   37.8340   25.2220   37.5170 C   0  0  0  0  0  0  0  0  0  0  0  0
   37.3210   26.1530   37.6890 H   0  0  0  0  0  0  0  0  0  0  0  0
   38.2360   24.4900   38.6270 C   0  0  0  0  0  3  0  0  0  0  0  0
   38.8940   23.2990   38.4940 C   0  0  0  0  0  3  0  0  0  0  0  0
   39.1230   22.8940   37.1920 C   0  0  0  0  0  0  0  0  0  0  0  0
   38.9640   23.1960   34.7640 O   0  0  0  0  0  0  0  0  0  0  0  0
   39.8550   23.0040   34.3610 H   0  0  0  0  0  0  0  0  0  0  0  0
   39.7930   21.6830   37.0240 O   0  0  0  0  0  0  0  0  0  0  0  0
   40.5160   21.3690   37.6640 H   0  0  0  0  0  0  0  0  0  0  0  0
  1  6  2  0  0  0  0
  1  2  1  0  0  0  0
  2  3  2  0  0  0  0
  3  4  1  0  0  0  0
  3 26  1  0  0  0  0
  5  8  1  0  0  0  0
  5  4  2  0  0  0  0
  6  5  1  0  0  0  0
  7  1  1  0  0  0  0
  9  2  1  0  0  0  0
  9 13  1  0  0  0  0
 10 11  1  0  0  0  0
 10  9  1  0  0  0  0
 11 17  1  0  0  0  0
 11 12  1  0  0  0  0
 12 19  1  0  0  0  0
 12 18  1  0  0  0  0
 13 12  1  0  0  0  0
 13 20  1  1  0  0  0
 14 10  1  0  0  0  0
 15 10  1  0  0  0  0
 16 11  1  0  0  0  0
 21 22  2  0  0  0  0
 23 13  1  0  0  0  0
 23 21  1  0  0  0  0
 24 21  1  0  0  0  0
 25 23  1  0  0  0  0
 26 31  1  0  0  0  0
 27 28  1  0  0  0  0
 27 26  2  0  0  0  0
 28 29  2  0  0  0  0
 29 34  1  0  0  0  0
 29 30  1  0  0  0  0
 30 35  1  0  0  0  0
 31 30  2  0  0  0  0
 31 36  1  0  0  0  0
 32 27  1  0  0  0  0
 33 28  1  0  0  0  0
 36 38  1  0  0  0  0
 36 40  1  0  0  0  0
 37 36  1  0  0  0  0
 39 40  2  0  0  0  0
 39 45  1  0  0  0  0
 40 41  1  0  0  0  0
 41 42  1  0  0  0  0
 41 43  2  0  0  0  0
 44 43  1  0  0  0  0
 45 44  2  0  0  0  0
 46 39  1  0  0  0  0
 47 46  1  0  0  0  0
 48 45  1  0  0  0  0
 48 49  1  0  0  0  0
M  END
>  <minimizedAffinity>
-6.36753082

$$$$

 OpenBabel03272509163D

 49 52  0  0  1  0  0  0  0  0999 V2000
   41.8960   23.1800   33.9800 C   0  0  0  0  0  0  0  0  0  0  0  0
   40.7820   23.9300   34.4280 C   0  0  0  0  0  0  0  0  0  0  0  0
   40.6880   25.2570   34.0230 C   0  0  0  0  0  0  0  0  0  0  0  0
   41.6620   25.7690   33.2230 N   0  0  0  0  0  0  0  0  0  0  0  0
   42.7090   25.0270   32.8160 C   0  0  0  0  0  0  0  0  0  0  0  0
   42.8280   23.7530   33.1860 N   0  0  0  0  0  0  0  0  0  0  0  0
   42.0410   22.1540   34.2310 H   0  0  0  0  0  0  0  0  0  0  0  0
   43.5070   25.4050   32.1750 H   0  0  0  0  0  0  0  0  0  0  0  0
   39.8620   23.2190   35.2870 N   0  0  0  0  0  0  0  0  0  0  0  0
   38.6030   22.5360   35.2200 C   0  0  0  0  0  0  0  0  0  0  0  0
   37.8150   23.1580   36.3290 C   0  0  0  0  0  0  0  0  0  0  0  0
   38.8760   23.4490   37.3960 C   0  0  0  0  0  0  0  0  0  0  0  0
   40.1610   23.0710   36.7400 C   0  0  1  0  0  0  0  0  0  0  0  0
   38.1320   22.3580   34.2790 H   0  0  0  0  0  0  0  0  0  0  0  0
   38.8350   21.4900   35.5980 H   0  0  0  0  0  0  0  0  0  0  0  0
   37.0220   22.4830   36.7200 H   0  0  0  0  0  0  0  0  0  0  0  0
   37.3640   24.1180   36.0810 H   0  0  0  0  0  0  0  0  0  0  0  0
   38.8210   24.4690   37.7890 H   0  0  0  0  0  0  0  0  0  0  0  0
   38.7020   22.7590   38.2650 H   0  0  0  0  0  0  0  0  0  0  0  0
   41.0360   23.6510   37.0180 H   0  0  0  0  0  0  0  0  0  0  0  0
   41.7370   21.1930   37.1350 C   0  0  0  0  0  0  0  0  0  0  0  0
   42.8030   21.8700   36.9600 O   0  0  0  0  0  0  0  0  0  0  0  0
   40.3910   21.6470   36.9770 N   0  0  0  0  0  0  0  0  0  0  0  0
   42.1850   20.2560   37.4170 H   0  0  0  0  0  0  0  0  0  0  0  0
   39.8750   20.7540   37.0910 H   0  0  0  0  0  0  0  0  0  0  0  0
   39.5980   26.1100   34.4170 C   0  0  0  0  0  0  0  0  0  0  0  0
   39.5750   26.5630   35.7040 C   0  0  0  0  0  0  0  0  0  0  0  0
   38.5910   27.4060   36.1830 C   0  0  0  0  0  0  0  0  0  0  0  0
   37.5870   27.7960   35.2980 C   0  0  0  0  0  0  0  0  0  0  0  0
   37.5550   27.3690   33.9870 C   0  0  0  0  0  0  0  0  0  0  0  0
   38.5940   26.5180   33.5890 C   0  0  0  0  0  0  0  0  0  0  0  0
   40.2250   26.3320   36.5280 H   0  0  0  0  0  0  0  0  0  0  0  0
   38.4570   27.8340   37.1450 H   0  0  0  0  0  0  0  0  0  0  0  0
   36.7610   28.4570   35.5570 H   0  0  0  0  0  0  0  0  0  0  0  0
   36.7750   27.6660   33.2930 H   0  0  0  0  0  0  0  0  0  0  0  0
   38.5710   26.0400   32.1890 C   0  0  0  0  0  0  0  0  0  0  0  0
   39.4320   25.3170   32.0220 H   0  0  0  0  0  0  0  0  0  0  0  0
   38.7770   26.8960   31.5050 H   0  0  0  0  0  0  0  0  0  0  0  0
   36.3340   25.7210   30.9820 C   0  0  0  0  0  0  0  0  0  0  0  0
   37.3680   25.2860   31.7870 C   0  0  0  0  0  0  0  0  0  0  0  0
   37.2660   23.9700   32.2590 C   0  0  0  0  0  0  0  0  0  0  0  0
   38.0450   23.5790   32.8900 H   0  0  0  0  0  0  0  0  0  0  0  0
   36.2010   23.1340   31.9510 C   0  0  0  0  0  3  0  0  0  0  0  0
   35.1720   23.5540   31.1550 C   0  0  0  0  0  3  0  0  0  0  0  0
   35.2780   24.8520   30.6920 C   0  0  0  0  0  0  0  0  0  0  0  0
   36.4310   27.0080   30.5160 O   0  0  0  0  0  0  0  0  0  0  0  0
   36.4410   27.2860   29.5590 H   0  0  0  0  0  0  0  0  0  0  0  0
   34.2430   25.3100   29.8770 O   0  0  0  0  0  0  0  0  0  0  0  0
   33.7530   24.7010   29.2280 H   0  0  0  0  0  0  0  0  0  0  0  0
  1  7  1  0  0  0  0
  1  2  1  0  0  0  0
  2  9  1  0  0  0  0
  3 26  1  0  0  0  0
  3  2  2  0  0  0  0
  4  3  1  0  0  0  0
  5  6  1  0  0  0  0
  5  4  2  0  0  0  0
  6  1  2  0  0  0  0
  8  5  1  0  0  0  0
  9 13  1  0  0  0  0
 10  9  1  0  0  0  0
 10 15  1  0  0  0  0
 10 11  1  0  0  0  0
 11 16  1  0  0  0  0
 11 12  1  0  0  0  0
 12 18  1  0  0  0  0
 12 19  1  0  0  0  0
 13 23  1  0  0  0  0
 13 20  1  1  0  0  0
 13 12  1  0  0  0  0
 14 10  1  0  0  0  0
 17 11  1  0  0  0  0
 21 24  1  0  0  0  0
 22 21  2  0  0  0  0
 23 25  1  0  0  0  0
 23 21  1  0  0  0  0
 26 27  1  0  0  0  0
 27 28  2  0  0  0  0
 27 32  1  0  0  0  0
 28 33  1  0  0  0  0
 29 34  1  0  0  0  0
 29 28  1  0  0  0  0
 30 29  2  0  0  0  0
 31 30  1  0  0  0  0
 31 26  2  0  0  0  0
 35 30  1  0  0  0  0
 36 31  1  0  0  0  0
 37 36  1  0  0  0  0
 38 36  1  0  0  0  0
 39 40  1  0  0  0  0
 40 36  1  0  0  0  0
 40 41  2  0  0  0  0
 41 42  1  0  0  0  0
 43 41  1  0  0  0  0
 44 43  2  0  0  0  0
 45 39  2  0  0  0  0
 45 44  1  0  0  0  0
 46 39  1  0  0  0  0
 47 46  1  0  0  0  0
 48 45  1  0  0  0  0
 49 48  1  0  0  0  0
M  END
>  <minimizedAffinity>
-6.21003532

$$$$

 OpenBabel03272509163D

 49 52  0  0  1  0  0  0  0  0999 V2000
   37.9230   24.9030   34.3900 C   0  0  0  0  0  0  0  0  0  0  0  0
   37.4700   25.7370   33.3400 C   0  0  0  0  0  0  0  0  0  0  0  0
   37.5890   27.1130   33.5070 C   0  0  0  0  0  0  0  0  0  0  0  0
   38.1290   27.5890   34.6620 N   0  0  0  0  0  0  0  0  0  0  0  0
   38.5490   26.7670   35.6400 C   0  0  0  0  0  0  0  0  0  0  0  0
   38.4500   25.4440   35.5110 N   0  0  0  0  0  0  0  0  0  0  0  0
   37.8820   23.8380   34.3420 H   0  0  0  0  0  0  0  0  0  0  0  0
   38.9860   27.1140   36.5780 H   0  0  0  0  0  0  0  0  0  0  0  0
   36.9090   25.0480   32.2000 N   0  0  0  0  0  0  0  0  0  0  0  0
   35.6870   24.9770   31.4540 C   0  0  0  0  0  0  0  0  0  0  0  0
   35.4030   23.5090   31.3960 C   0  0  0  0  0  0  0  0  0  0  0  0
   36.8010   22.8830   31.3200 C   0  0  0  0  0  0  0  0  0  0  0  0
   37.7250   24.0450   31.4580 C   0  0  1  0  0  0  0  0  0  0  0  0
   34.8880   25.6570   31.6540 H   0  0  0  0  0  0  0  0  0  0  0  0
   35.9940   25.2410   30.3920 H   0  0  0  0  0  0  0  0  0  0  0  0
   34.7850   23.2270   30.5150 H   0  0  0  0  0  0  0  0  0  0  0  0
   34.9380   23.1020   32.2930 H   0  0  0  0  0  0  0  0  0  0  0  0
   36.9460   22.0680   32.0370 H   0  0  0  0  0  0  0  0  0  0  0  0
   36.9340   22.4400   30.2970 H   0  0  0  0  0  0  0  0  0  0  0  0
   38.6660   23.8580   31.9660 H   0  0  0  0  0  0  0  0  0  0  0  0
   39.2350   25.1840   29.8480 C   0  0  0  0  0  0  0  0  0  0  0  0
   40.1760   25.4080   30.6780 O   0  0  0  0  0  0  0  0  0  0  0  0
   37.9600   24.6000   30.1260 N   0  0  0  0  0  0  0  0  0  0  0  0
   39.7110   25.5580   28.9580 H   0  0  0  0  0  0  0  0  0  0  0  0
   37.4880   24.7300   29.2110 H   0  0  0  0  0  0  0  0  0  0  0  0
   37.1630   28.0520   32.5040 C   0  0  0  0  0  0  0  0  0  0  0  0
   37.9380   28.1930   31.3900 C   0  0  0  0  0  0  0  0  0  0  0  0
   37.6120   29.0470   30.3540 C   0  0  0  0  0  0  0  0  0  0  0  0
   36.4380   29.7880   30.4730 C   0  0  0  0  0  0  0  0  0  0  0  0
   35.6150   29.6920   31.5750 C   0  0  0  0  0  0  0  0  0  0  0  0
   36.0240   28.8010   32.5750 C   0  0  0  0  0  0  0  0  0  0  0  0
   38.8880   27.7490   31.1500 H   0  0  0  0  0  0  0  0  0  0  0  0
   38.1140   29.2450   29.4400 H   0  0  0  0  0  0  0  0  0  0  0  0
   36.0760   30.4910   29.7230 H   0  0  0  0  0  0  0  0  0  0  0  0
   34.7010   30.2680   31.6760 H   0  0  0  0  0  0  0  0  0  0  0  0
   35.1600   28.6910   33.7710 C   0  0  0  0  0  0  0  0  0  0  0  0
   35.6380   27.9810   34.5200 H   0  0  0  0  0  0  0  0  0  0  0  0
   34.1990   28.2040   33.4860 H   0  0  0  0  0  0  0  0  0  0  0  0
   33.7650   30.6350   34.6850 C   0  0  0  0  0  0  0  0  0  0  0  0
   34.9470   29.9400   34.5270 C   0  0  0  0  0  0  0  0  0  0  0  0
   36.0670   30.4800   35.1740 C   0  0  0  0  0  0  0  0  0  0  0  0
   37.0150   29.9780   35.0860 H   0  0  0  0  0  0  0  0  0  0  0  0
   36.0170   31.6410   35.9360 C   0  0  0  0  0  3  0  0  0  0  0  0
   34.8520   32.3360   36.1000 C   0  0  0  0  0  3  0  0  0  0  0  0
   33.7510   31.8000   35.4590 C   0  0  0  0  0  0  0  0  0  0  0  0
   32.6650   30.1090   34.0530 O   0  0  0  0  0  0  0  0  0  0  0  0
   31.8150   29.8300   34.4920 H   0  0  0  0  0  0  0  0  0  0  0  0
   32.5470   32.4870   35.6080 O   0  0  0  0  0  0  0  0  0  0  0  0
   32.3010   32.9750   36.4640 H   0  0  0  0  0  0  0  0  0  0  0  0
  1  6  1  0  0  0  0
  2  3  1  0  0  0  0
  2  1  2  0  0  0  0
  3  4  2  0  0  0  0
  4  5  1  0  0  0  0
  5  8  1  0  0  0  0
  6  5  2  0  0  0  0
  7  1  1  0  0  0  0
  9  2  1  0  0  0  0
 10 14  1  0  0  0  0
 10  9  1  0  0  0  0
 11 10  1  0  0  0  0
 11 17  1  0  0  0  0
 12 11  1  0  0  0  0
 12 13  1  0  0  0  0
 12 18  1  0  0  0  0
 13 20  1  1  0  0  0
 13  9  1  0  0  0  0
 15 10  1  0  0  0  0
 16 11  1  0  0  0  0
 19 12  1  0  0  0  0
 21 23  1  0  0  0  0
 21 22  2  0  0  0  0
 23 13  1  0  0  0  0
 24 21  1  0  0  0  0
 25 23  1  0  0  0  0
 26 31  1  0  0  0  0
 26  3  1  0  0  0  0
 27 26  2  0  0  0  0
 28 29  2  0  0  0  0
 28 27  1  0  0  0  0
 29 30  1  0  0  0  0
 30 35  1  0  0  0  0
 30 31  2  0  0  0  0
 31 36  1  0  0  0  0
 32 27  1  0  0  0  0
 33 28  1  0  0  0  0
 34 29  1  0  0  0  0
 36 37  1  0  0  0  0
 36 40  1  0  0  0  0
 38 36  1  0  0  0  0
 39 45  1  0  0  0  0
 40 39  2  0  0  0  0
 40 41  1  0  0  0  0
 41 43  2  0  0  0  0
 42 41  1  0  0  0  0
 43 44  1  0  0  0  0
 45 48  1  0  0  0  0
 45 44  2  0  0  0  0
 46 47  1  0  0  0  0
 46 39  1  0  0  0  0
 48 49  1  0  0  0  0
M  END
>  <minimizedAffinity>
-6.16369534

$$$$

 OpenBabel03272509163D

 49 52  0  0  1  0  0  0  0  0999 V2000
   37.2610   21.8970   33.7180 C   0  0  0  0  0  0  0  0  0  0  0  0
   38.0690   23.0530   33.5910 C   0  0  0  0  0  0  0  0  0  0  0  0
   38.2220   23.6010   32.3220 C   0  0  0  0  0  0  0  0  0  0  0  0
   37.5930   23.0080   31.2710 N   0  0  0  0  0  0  0  0  0  0  0  0
   36.8320   21.9090   31.4270 C   0  0  0  0  0  0  0  0  0  0  0  0
   36.6650   21.3590   32.6300 N   0  0  0  0  0  0  0  0  0  0  0  0
   37.0790   21.4180   34.6530 H   0  0  0  0  0  0  0  0  0  0  0  0
   36.3140   21.4090   30.6080 H   0  0  0  0  0  0  0  0  0  0  0  0
   38.6690   23.5260   34.8170 N   0  0  0  0  0  0  0  0  0  0  0  0
   39.6710   23.1420   35.7680 C   0  0  0  0  0  0  0  0  0  0  0  0
   38.9620   23.2530   37.0800 C   0  0  0  0  0  0  0  0  0  0  0  0
   38.0130   24.4390   36.8690 C   0  0  0  0  0  0  0  0  0  0  0  0
   38.2010   24.8000   35.4350 C   0  0  1  0  0  0  0  0  0  0  0  0
   40.3000   22.2990   35.5830 H   0  0  0  0  0  0  0  0  0  0  0  0
   40.3990   24.0150   35.7730 H   0  0  0  0  0  0  0  0  0  0  0  0
   39.6570   23.4370   37.9290 H   0  0  0  0  0  0  0  0  0  0  0  0
   38.3290   22.4010   37.3270 H   0  0  0  0  0  0  0  0  0  0  0  0
   36.9850   24.2280   37.1800 H   0  0  0  0  0  0  0  0  0  0  0  0
   38.3720   25.2950   37.5020 H   0  0  0  0  0  0  0  0  0  0  0  0
   37.3290   25.1860   34.9140 H   0  0  0  0  0  0  0  0  0  0  0  0
   39.0700   27.1160   35.6590 C   0  0  0  0  0  0  0  0  0  0  0  0
   37.9420   27.6630   35.8890 O   0  0  0  0  0  0  0  0  0  0  0  0
   39.3140   25.7430   35.3440 N   0  0  0  0  0  0  0  0  0  0  0  0
   39.6980   27.9800   35.7810 H   0  0  0  0  0  0  0  0  0  0  0  0
   40.3260   25.7770   35.1170 H   0  0  0  0  0  0  0  0  0  0  0  0
   39.0180   24.7740   32.0780 C   0  0  0  0  0  0  0  0  0  0  0  0
   40.3760   24.6400   32.0990 C   0  0  0  0  0  0  0  0  0  0  0  0
   41.2360   25.6940   31.8540 C   0  0  0  0  0  0  0  0  0  0  0  0
   40.6720   26.9380   31.5790 C   0  0  0  0  0  0  0  0  0  0  0  0
   39.3070   27.1360   31.5470 C   0  0  0  0  0  0  0  0  0  0  0  0
   38.5130   26.0120   31.8060 C   0  0  0  0  0  0  0  0  0  0  0  0
   40.9810   23.7840   32.3390 H   0  0  0  0  0  0  0  0  0  0  0  0
   42.2960   25.7270   31.8320 H   0  0  0  0  0  0  0  0  0  0  0  0
   41.2450   27.8400   31.3680 H   0  0  0  0  0  0  0  0  0  0  0  0
   38.8610   28.1030   31.3360 H   0  0  0  0  0  0  0  0  0  0  0  0
   37.0470   26.2080   31.7860 C   0  0  0  0  0  0  0  0  0  0  0  0
   36.5830   25.6790   32.6800 H   0  0  0  0  0  0  0  0  0  0  0  0
   36.6190   25.6930   30.8950 H   0  0  0  0  0  0  0  0  0  0  0  0
   36.3400   28.4920   30.8680 C   0  0  0  0  0  0  0  0  0  0  0  0
   36.5830   27.6040   31.8960 C   0  0  0  0  0  0  0  0  0  0  0  0
   36.3440   28.0850   33.1920 C   0  0  0  0  0  0  0  0  0  0  0  0
   36.5170   27.4340   34.0320 H   0  0  0  0  0  0  0  0  0  0  0  0
   35.8900   29.3710   33.4520 C   0  0  0  0  0  3  0  0  0  0  0  0
   35.6450   30.2580   32.4410 C   0  0  0  0  0  3  0  0  0  0  0  0
   35.8820   29.7790   31.1660 C   0  0  0  0  0  0  0  0  0  0  0  0
   36.5710   28.0240   29.5980 O   0  0  0  0  0  0  0  0  0  0  0  0
   35.9030   27.9780   28.8600 H   0  0  0  0  0  0  0  0  0  0  0  0
   35.6410   30.6610   30.1140 O   0  0  0  0  0  0  0  0  0  0  0  0
   34.8940   31.3490   30.1400 H   0  0  0  0  0  0  0  0  0  0  0  0
  1  7  1  0  0  0  0
  2  1  1  0  0  0  0
  2  9  1  0  0  0  0
  3  2  2  0  0  0  0
  4  5  2  0  0  0  0
  4  3  1  0  0  0  0
  5  6  1  0  0  0  0
  6  1  2  0  0  0  0
  8  5  1  0  0  0  0
  9 13  1  0  0  0  0
  9 10  1  0  0  0  0
 10 15  1  0  0  0  0
 10 11  1  0  0  0  0
 11 17  1  0  0  0  0
 11 16  1  0  0  0  0
 12 11  1  0  0  0  0
 12 18  1  0  0  0  0
 12 19  1  0  0  0  0
 13 20  1  6  0  0  0
 13 12  1  0  0  0  0
 14 10  1  0  0  0  0
 21 24  1  0  0  0  0
 21 22  2  0  0  0  0
 23 13  1  0  0  0  0
 23 21  1  0  0  0  0
 25 23  1  0  0  0  0
 26 27  1  0  0  0  0
 26  3  1  0  0  0  0
 27 32  1  0  0  0  0
 28 27  2  0  0  0  0
 29 28  1  0  0  0  0
 30 29  2  0  0  0  0
 30 31  1  0  0  0  0
 31 26  2  0  0  0  0
 33 28  1  0  0  0  0
 34 29  1  0  0  0  0
 35 30  1  0  0  0  0
 36 31  1  0  0  0  0
 36 40  1  0  0  0  0
 36 37  1  0  0  0  0
 38 36  1  0  0  0  0
 39 45  2  0  0  0  0
 39 40  1  0  0  0  0
 40 41  2  0  0  0  0
 41 43  1  0  0  0  0
 41 42  1  0  0  0  0
 44 43  2  0  0  0  0
 45 44  1  0  0  0  0
 46 39  1  0  0  0  0
 47 46  1  0  0  0  0
 48 49  1  0  0  0  0
 48 45  1  0  0  0  0
M  END
>  <minimizedAffinity>
-6.11744261

$$$$

 OpenBabel03272509163D

 49 52  0  0  1  0  0  0  0  0999 V2000
   37.1510   27.0820   33.6270 C   0  0  0  0  0  0  0  0  0  0  0  0
   38.4330   26.7110   33.1560 C   0  0  0  0  0  0  0  0  0  0  0  0
   39.4910   26.7490   34.0590 C   0  0  0  0  0  0  0  0  0  0  0  0
   39.2470   27.1370   35.3400 N   0  0  0  0  0  0  0  0  0  0  0  0
   38.0140   27.4850   35.7530 C   0  0  0  0  0  0  0  0  0  0  0  0
   36.9790   27.4590   34.9140 N   0  0  0  0  0  0  0  0  0  0  0  0
   36.2820   27.0700   33.0080 H   0  0  0  0  0  0  0  0  0  0  0  0
   37.7830   27.8010   36.7710 H   0  0  0  0  0  0  0  0  0  0  0  0
   38.4990   26.3460   31.7600 N   0  0  0  0  0  0  0  0  0  0  0  0
   38.3560   25.1930   30.9190 C   0  0  0  0  0  0  0  0  0  0  0  0
   39.5980   25.2190   30.0860 C   0  0  0  0  0  0  0  0  0  0  0  0
   39.8660   26.7170   29.8980 C   0  0  0  0  0  0  0  0  0  0  0  0
   38.8230   27.3770   30.7330 C   0  0  1  0  0  0  0  0  0  0  0  0
   38.0160   24.2660   31.3230 H   0  0  0  0  0  0  0  0  0  0  0  0
   37.5310   25.4800   30.1930 H   0  0  0  0  0  0  0  0  0  0  0  0
   39.4680   24.7050   29.1080 H   0  0  0  0  0  0  0  0  0  0  0  0
   40.4820   24.8130   30.5780 H   0  0  0  0  0  0  0  0  0  0  0  0
   40.9020   26.9980   30.1140 H   0  0  0  0  0  0  0  0  0  0  0  0
   39.6800   26.9760   28.8220 H   0  0  0  0  0  0  0  0  0  0  0  0
   39.1010   28.3170   31.2010 H   0  0  0  0  0  0  0  0  0  0  0  0
   36.8010   28.6920   30.1400 C   0  0  0  0  0  0  0  0  0  0  0  0
   36.9120   29.5460   31.0800 O   0  0  0  0  0  0  0  0  0  0  0  0
   37.6230   27.5440   29.9150 N   0  0  0  0  0  0  0  0  0  0  0  0
   35.9510   29.1160   29.6350 H   0  0  0  0  0  0  0  0  0  0  0  0
   37.1030   27.0860   29.1430 H   0  0  0  0  0  0  0  0  0  0  0  0
   40.8350   26.3910   33.6900 C   0  0  0  0  0  0  0  0  0  0  0  0
   41.7130   27.3990   33.4190 C   0  0  0  0  0  0  0  0  0  0  0  0
   43.0330   27.1710   33.0790 C   0  0  0  0  0  0  0  0  0  0  0  0
   43.4640   25.8480   33.0130 C   0  0  0  0  0  0  0  0  0  0  0  0
   42.6230   24.7860   33.2740 C   0  0  0  0  0  0  0  0  0  0  0  0
   41.3030   25.1120   33.6110 C   0  0  0  0  0  0  0  0  0  0  0  0
   41.5510   28.4610   33.3710 H   0  0  0  0  0  0  0  0  0  0  0  0
   43.8140   27.8530   32.8530 H   0  0  0  0  0  0  0  0  0  0  0  0
   44.4780   25.5430   32.7590 H   0  0  0  0  0  0  0  0  0  0  0  0
   42.9510   23.7520   33.2220 H   0  0  0  0  0  0  0  0  0  0  0  0
   40.3820   23.9850   33.8830 C   0  0  0  0  0  0  0  0  0  0  0  0
   40.5270   23.1800   33.0940 H   0  0  0  0  0  0  0  0  0  0  0  0
   39.3310   24.3310   33.7520 H   0  0  0  0  0  0  0  0  0  0  0  0
   39.7890   23.3630   36.2960 C   0  0  0  0  0  0  0  0  0  0  0  0
   40.5820   23.2890   35.1690 C   0  0  0  0  0  0  0  0  0  0  0  0
   41.6940   22.4390   35.2560 C   0  0  0  0  0  0  0  0  0  0  0  0
   42.3460   22.3430   34.4050 H   0  0  0  0  0  0  0  0  0  0  0  0
   42.0010   21.7050   36.3940 C   0  0  0  0  0  3  0  0  0  0  0  0
   41.2220   21.7710   37.5160 C   0  0  0  0  0  3  0  0  0  0  0  0
   40.1270   22.6100   37.4250 C   0  0  0  0  0  0  0  0  0  0  0  0
   38.6980   24.1930   36.2140 O   0  0  0  0  0  0  0  0  0  0  0  0
   37.7470   23.9250   36.3440 H   0  0  0  0  0  0  0  0  0  0  0  0
   39.3130   22.6980   38.5530 O   0  0  0  0  0  0  0  0  0  0  0  0
   39.1490   21.9070   39.1690 H   0  0  0  0  0  0  0  0  0  0  0  0
  1  6  1  0  0  0  0
  2  1  2  0  0  0  0
  2  3  1  0  0  0  0
  3  4  2  0  0  0  0
  4  5  1  0  0  0  0
  5  8  1  0  0  0  0
  6  5  2  0  0  0  0
  7  1  1  0  0  0  0
  9  2  1  0  0  0  0
 10 14  1  0  0  0  0
 10  9  1  0  0  0  0
 11 17  1  0  0  0  0
 11 10  1  0  0  0  0
 12 11  1  0  0  0  0
 12 18  1  0  0  0  0
 12 13  1  0  0  0  0
 13 20  1  1  0  0  0
 13  9  1  0  0  0  0
 15 10  1  0  0  0  0
 16 11  1  0  0  0  0
 19 12  1  0  0  0  0
 21 22  2  0  0  0  0
 23 21  1  0  0  0  0
 23 13  1  0  0  0  0
 24 21  1  0  0  0  0
 25 23  1  0  0  0  0
 26  3  1  0  0  0  0
 27 26  2  0  0  0  0
 28 27  1  0  0  0  0
 29 28  2  0  0  0  0
 29 30  1  0  0  0  0
 30 31  2  0  0  0  0
 31 26  1  0  0  0  0
 31 36  1  0  0  0  0
 32 27  1  0  0  0  0
 33 28  1  0  0  0  0
 34 29  1  0  0  0  0
 35 30  1  0  0  0  0
 36 40  1  0  0  0  0
 37 36  1  0  0  0  0
 38 36  1  0  0  0  0
 39 45  1  0  0  0  0
 40 41  1  0  0  0  0
 40 39  2  0  0  0  0
 41 43  2  0  0  0  0
 42 41  1  0  0  0  0
 43 44  1  0  0  0  0
 45 44  2  0  0  0  0
 45 48  1  0  0  0  0
 46 39  1  0  0  0  0
 46 47  1  0  0  0  0
 48 49  1  0  0  0  0
M  END
>  <minimizedAffinity>
-6.09608746

$$$$

 OpenBabel03272509163D

 49 52  0  0  1  0  0  0  0  0999 V2000
   42.1910   23.3750   34.3220 C   0  0  0  0  0  0  0  0  0  0  0  0
   40.9780   24.0410   34.6230 C   0  0  0  0  0  0  0  0  0  0  0  0
   40.8570   25.3720   34.2380 C   0  0  0  0  0  0  0  0  0  0  0  0
   41.9000   25.9670   33.5970 N   0  0  0  0  0  0  0  0  0  0  0  0
   43.0390   25.3040   33.3280 C   0  0  0  0  0  0  0  0  0  0  0  0
   43.1870   24.0280   33.6830 N   0  0  0  0  0  0  0  0  0  0  0  0
   42.3650   22.3520   34.5690 H   0  0  0  0  0  0  0  0  0  0  0  0
   43.8940   25.7500   32.8170 H   0  0  0  0  0  0  0  0  0  0  0  0
   39.9940   23.2490   35.3250 N   0  0  0  0  0  0  0  0  0  0  0  0
   38.7760   22.5370   35.0720 C   0  0  0  0  0  0  0  0  0  0  0  0
   37.8470   23.0600   36.1210 C   0  0  0  0  0  0  0  0  0  0  0  0
   38.7720   23.3100   37.3180 C   0  0  0  0  0  0  0  0  0  0  0  0
   40.1340   23.0130   36.7900 C   0  0  1  0  0  0  0  0  0  0  0  0
   38.4190   22.4090   34.0740 H   0  0  0  0  0  0  0  0  0  0  0  0
   39.0010   21.4750   35.4070 H   0  0  0  0  0  0  0  0  0  0  0  0
   37.0400   22.3390   36.3760 H   0  0  0  0  0  0  0  0  0  0  0  0
   37.3930   24.0220   35.8850 H   0  0  0  0  0  0  0  0  0  0  0  0
   38.6370   24.2990   37.7660 H   0  0  0  0  0  0  0  0  0  0  0  0
   38.5270   22.5580   38.1160 H   0  0  0  0  0  0  0  0  0  0  0  0
   40.9510   23.5970   37.2010 H   0  0  0  0  0  0  0  0  0  0  0  0
   41.7330   21.1510   37.1730 C   0  0  0  0  0  0  0  0  0  0  0  0
   42.7900   21.8610   37.0970 O   0  0  0  0  0  0  0  0  0  0  0  0
   40.3870   21.5830   36.9610 N   0  0  0  0  0  0  0  0  0  0  0  0
   42.1870   20.2100   37.4280 H   0  0  0  0  0  0  0  0  0  0  0  0
   39.8880   20.6740   36.9950 H   0  0  0  0  0  0  0  0  0  0  0  0
   39.6690   26.1440   34.4910 C   0  0  0  0  0  0  0  0  0  0  0  0
   39.5110   26.6850   35.7330 C   0  0  0  0  0  0  0  0  0  0  0  0
   38.4230   27.4630   36.0780 C   0  0  0  0  0  0  0  0  0  0  0  0
   37.4560   27.6910   35.1010 C   0  0  0  0  0  0  0  0  0  0  0  0
   37.5590   27.1690   33.8280 C   0  0  0  0  0  0  0  0  0  0  0  0
   38.6960   26.3940   33.5680 C   0  0  0  0  0  0  0  0  0  0  0  0
   40.1180   26.5770   36.6150 H   0  0  0  0  0  0  0  0  0  0  0  0
   38.1820   27.9450   36.9920 H   0  0  0  0  0  0  0  0  0  0  0  0
   36.5580   28.2880   35.2520 H   0  0  0  0  0  0  0  0  0  0  0  0
   36.8080   27.3410   33.0630 H   0  0  0  0  0  0  0  0  0  0  0  0
   38.8180   25.8160   32.2110 C   0  0  0  0  0  0  0  0  0  0  0  0
   37.8580   25.2670   31.9460 H   0  0  0  0  0  0  0  0  0  0  0  0
   39.6070   25.0290   32.2170 H   0  0  0  0  0  0  0  0  0  0  0  0
   38.0700   27.2140   30.2000 C   0  0  0  0  0  0  0  0  0  0  0  0
   39.0090   26.7860   31.1150 C   0  0  0  0  0  0  0  0  0  0  0  0
   40.2860   27.3530   30.9950 C   0  0  0  0  0  0  0  0  0  0  0  0
   41.0580   27.0550   31.6840 H   0  0  0  0  0  0  0  0  0  0  0  0
   40.6110   28.2910   30.0240 C   0  0  0  0  0  3  0  0  0  0  0  0
   39.6880   28.7230   29.1130 C   0  0  0  0  0  3  0  0  0  0  0  0
   38.4310   28.1610   29.2360 C   0  0  0  0  0  0  0  0  0  0  0  0
   36.8180   26.6620   30.3150 O   0  0  0  0  0  0  0  0  0  0  0  0
   35.9680   27.1620   30.4600 H   0  0  0  0  0  0  0  0  0  0  0  0
   37.4670   28.5820   28.3210 O   0  0  0  0  0  0  0  0  0  0  0  0
   37.4370   29.5310   27.9600 H   0  0  0  0  0  0  0  0  0  0  0  0
  1  7  1  0  0  0  0
  1  2  1  0  0  0  0
  2  9  1  0  0  0  0
  3 26  1  0  0  0  0
  3  2  2  0  0  0  0
  4  3  1  0  0  0  0
  5  4  2  0  0  0  0
  5  6  1  0  0  0  0
  6  1  2  0  0  0  0
  8  5  1  0  0  0  0
  9 13  1  0  0  0  0
 10  9  1  0  0  0  0
 10 15  1  0  0  0  0
 10 11  1  0  0  0  0
 11 16  1  0  0  0  0
 11 12  1  0  0  0  0
 12 18  1  0  0  0  0
 12 19  1  0  0  0  0
 13 23  1  0  0  0  0
 13 20  1  1  0  0  0
 13 12  1  0  0  0  0
 14 10  1  0  0  0  0
 17 11  1  0  0  0  0
 21 24  1  0  0  0  0
 22 21  2  0  0  0  0
 23 25  1  0  0  0  0
 23 21  1  0  0  0  0
 26 27  1  0  0  0  0
 27 28  2  0  0  0  0
 27 32  1  0  0  0  0
 28 33  1  0  0  0  0
 29 34  1  0  0  0  0
 29 28  1  0  0  0  0
 30 29  2  0  0  0  0
 31 30  1  0  0  0  0
 31 26  2  0  0  0  0
 35 30  1  0  0  0  0
 36 38  1  0  0  0  0
 36 31  1  0  0  0  0
 37 36  1  0  0  0  0
 39 46  1  0  0  0  0
 39 40  1  0  0  0  0
 40 36  1  0  0  0  0
 41 40  2  0  0  0  0
 41 42  1  0  0  0  0
 43 41  1  0  0  0  0
 44 45  1  0  0  0  0
 44 43  2  0  0  0  0
 45 39  2  0  0  0  0
 46 47  1  0  0  0  0
 48 45  1  0  0  0  0
 49 48  1  0  0  0  0
M  END
>  <minimizedAffinity>
-5.97440386

$$$$

 OpenBabel03272509163D

 49 52  0  0  1  0  0  0  0  0999 V2000
   38.5300   27.3070   30.8160 C   0  0  0  0  0  0  0  0  0  0  0  0
   38.3230   25.9280   31.0590 C   0  0  0  0  0  0  0  0  0  0  0  0
   37.3420   25.5700   31.9770 C   0  0  0  0  0  0  0  0  0  0  0  0
   36.6320   26.5530   32.5950 N   0  0  0  0  0  0  0  0  0  0  0  0
   36.8550   27.8560   32.3410 C   0  0  0  0  0  0  0  0  0  0  0  0
   37.7880   28.2320   31.4660 N   0  0  0  0  0  0  0  0  0  0  0  0
   39.2510   27.6710   30.1200 H   0  0  0  0  0  0  0  0  0  0  0  0
   36.3060   28.6690   32.8170 H   0  0  0  0  0  0  0  0  0  0  0  0
   39.1870   25.0340   30.3220 N   0  0  0  0  0  0  0  0  0  0  0  0
   39.1650   24.1990   29.1560 C   0  0  0  0  0  0  0  0  0  0  0  0
   39.6690   22.8850   29.6640 C   0  0  0  0  0  0  0  0  0  0  0  0
   40.6910   23.2890   30.7340 C   0  0  0  0  0  0  0  0  0  0  0  0
   40.5750   24.7740   30.8000 C   0  0  1  0  0  0  0  0  0  0  0  0
   38.3290   24.2170   28.4920 H   0  0  0  0  0  0  0  0  0  0  0  0
   40.0170   24.5930   28.5160 H   0  0  0  0  0  0  0  0  0  0  0  0
   40.1400   22.2700   28.8660 H   0  0  0  0  0  0  0  0  0  0  0  0
   38.9210   22.2790   30.1750 H   0  0  0  0  0  0  0  0  0  0  0  0
   40.5560   22.7550   31.6800 H   0  0  0  0  0  0  0  0  0  0  0  0
   41.7160   23.0270   30.3590 H   0  0  0  0  0  0  0  0  0  0  0  0
   40.7430   25.2300   31.7710 H   0  0  0  0  0  0  0  0  0  0  0  0
   42.4000   26.3550   30.2150 C   0  0  0  0  0  0  0  0  0  0  0  0
   42.4510   26.9310   31.3510 O   0  0  0  0  0  0  0  0  0  0  0  0
   41.4760   25.3460   29.8000 N   0  0  0  0  0  0  0  0  0  0  0  0
   43.2240   26.8580   29.7410 H   0  0  0  0  0  0  0  0  0  0  0  0
   41.7170   25.2700   28.7940 H   0  0  0  0  0  0  0  0  0  0  0  0
   37.0470   24.1990   32.2980 C   0  0  0  0  0  0  0  0  0  0  0  0
   36.0220   23.5930   31.6310 C   0  0  0  0  0  0  0  0  0  0  0  0
   35.6680   22.2740   31.8420 C   0  0  0  0  0  0  0  0  0  0  0  0
   36.4010   21.5500   32.7800 C   0  0  0  0  0  0  0  0  0  0  0  0
   37.4460   22.1080   33.4870 C   0  0  0  0  0  0  0  0  0  0  0  0
   37.7340   23.4500   33.2080 C   0  0  0  0  0  0  0  0  0  0  0  0
   35.3250   24.0000   30.9210 H   0  0  0  0  0  0  0  0  0  0  0  0
   34.9090   21.6840   31.3940 H   0  0  0  0  0  0  0  0  0  0  0  0
   36.2190   20.5060   33.0310 H   0  0  0  0  0  0  0  0  0  0  0  0
   38.0190   21.5510   34.2220 H   0  0  0  0  0  0  0  0  0  0  0  0
   38.8450   24.0700   33.9650 C   0  0  0  0  0  0  0  0  0  0  0  0
   38.7460   25.2020   33.9230 H   0  0  0  0  0  0  0  0  0  0  0  0
   39.8080   23.8460   33.4520 H   0  0  0  0  0  0  0  0  0  0  0  0
   39.7150   22.8380   36.0350 C   0  0  0  0  0  0  0  0  0  0  0  0
   38.8960   23.7530   35.4050 C   0  0  0  0  0  0  0  0  0  0  0  0
   38.0280   24.4740   36.2370 C   0  0  0  0  0  0  0  0  0  0  0  0
   37.3670   25.2030   35.7980 H   0  0  0  0  0  0  0  0  0  0  0  0
   37.9750   24.2980   37.6140 C   0  0  0  0  0  3  0  0  0  0  0  0
   38.7810   23.3950   38.2480 C   0  0  0  0  0  3  0  0  0  0  0  0
   39.6350   22.6870   37.4230 C   0  0  0  0  0  0  0  0  0  0  0  0
   40.5670   22.1310   35.2250 O   0  0  0  0  0  0  0  0  0  0  0  0
   41.5610   22.1070   35.2970 H   0  0  0  0  0  0  0  0  0  0  0  0
   40.4710   21.7580   38.0410 O   0  0  0  0  0  0  0  0  0  0  0  0
   40.8570   21.9050   38.9690 H   0  0  0  0  0  0  0  0  0  0  0  0
  1  2  2  0  0  0  0
  1  6  1  0  0  0  0
  2  3  1  0  0  0  0
  3 26  1  0  0  0  0
  3  4  2  0  0  0  0
  5  4  1  0  0  0  0
  5  8  1  0  0  0  0
  6  5  2  0  0  0  0
  7  1  1  0  0  0  0
  9 13  1  0  0  0  0
  9  2  1  0  0  0  0
 10 11  1  0  0  0  0
 10  9  1  0  0  0  0
 11 17  1  0  0  0  0
 11 12  1  0  0  0  0
 12 13  1  0  0  0  0
 12 18  1  0  0  0  0
 13 20  1  1  0  0  0
 14 10  1  0  0  0  0
 15 10  1  0  0  0  0
 16 11  1  0  0  0  0
 19 12  1  0  0  0  0
 21 22  2  0  0  0  0
 23 21  1  0  0  0  0
 23 13  1  0  0  0  0
 24 21  1  0  0  0  0
 25 23  1  0  0  0  0
 26 31  1  0  0  0  0
 27 28  1  0  0  0  0
 27 26  2  0  0  0  0
 28 29  2  0  0  0  0
 29 34  1  0  0  0  0
 29 30  1  0  0  0  0
 30 35  1  0  0  0  0
 31 30  2  0  0  0  0
 31 36  1  0  0  0  0
 32 27  1  0  0  0  0
 33 28  1  0  0  0  0
 36 40  1  0  0  0  0
 37 36  1  0  0  0  0
 38 36  1  0  0  0  0
 39 45  1  0  0  0  0
 40 39  2  0  0  0  0
 40 41  1  0  0  0  0
 41 43  2  0  0  0  0
 42 41  1  0  0  0  0
 43 44  1  0  0  0  0
 45 48  1  0  0  0  0
 45 44  2  0  0  0  0
 46 47  1  0  0  0  0
 46 39  1  0  0  0  0
 48 49  1  0  0  0  0
M  END
>  <minimizedAffinity>
-5.94850588

$$$$

 OpenBabel03272509163D

 49 52  0  0  1  0  0  0  0  0999 V2000
   37.6520   22.2140   35.5080 C   0  0  0  0  0  0  0  0  0  0  0  0
   38.4430   23.1210   34.7610 C   0  0  0  0  0  0  0  0  0  0  0  0
   38.7300   24.3560   35.3340 C   0  0  0  0  0  0  0  0  0  0  0  0
   38.2420   24.6320   36.5740 N   0  0  0  0  0  0  0  0  0  0  0  0
   37.4930   23.7460   37.2560 C   0  0  0  0  0  0  0  0  0  0  0  0
   37.2010   22.5550   36.7350 N   0  0  0  0  0  0  0  0  0  0  0  0
   37.3950   21.2430   35.1520 H   0  0  0  0  0  0  0  0  0  0  0  0
   37.0870   23.9350   38.2510 H   0  0  0  0  0  0  0  0  0  0  0  0
   38.8520   22.6560   33.4550 N   0  0  0  0  0  0  0  0  0  0  0  0
   38.5850   22.9050   32.0690 C   0  0  0  0  0  0  0  0  0  0  0  0
   38.3090   21.5400   31.5220 C   0  0  0  0  0  0  0  0  0  0  0  0
   39.2390   20.6370   32.3390 C   0  0  0  0  0  0  0  0  0  0  0  0
   39.8550   21.5600   33.3340 C   0  0  1  0  0  0  0  0  0  0  0  0
   37.9660   23.7230   31.7740 H   0  0  0  0  0  0  0  0  0  0  0  0
   39.6000   23.1760   31.6350 H   0  0  0  0  0  0  0  0  0  0  0  0
   38.5240   21.4640   30.4330 H   0  0  0  0  0  0  0  0  0  0  0  0
   37.2980   21.1760   31.7030 H   0  0  0  0  0  0  0  0  0  0  0  0
   38.7320   19.7580   32.7510 H   0  0  0  0  0  0  0  0  0  0  0  0
   40.0460   20.2540   31.6590 H   0  0  0  0  0  0  0  0  0  0  0  0
   40.0890   21.1380   34.3070 H   0  0  0  0  0  0  0  0  0  0  0  0
   42.1860   22.3880   33.5620 C   0  0  0  0  0  0  0  0  0  0  0  0
   42.2500   22.2700   34.8300 O   0  0  0  0  0  0  0  0  0  0  0  0
   41.0480   22.1500   32.7290 N   0  0  0  0  0  0  0  0  0  0  0  0
   43.1990   22.6980   33.3760 H   0  0  0  0  0  0  0  0  0  0  0  0
   41.4070   22.4870   31.8160 H   0  0  0  0  0  0  0  0  0  0  0  0
   39.5240   25.3510   34.6660 C   0  0  0  0  0  0  0  0  0  0  0  0
   40.8540   25.4140   34.9660 C   0  0  0  0  0  0  0  0  0  0  0  0
   41.7150   26.3140   34.3670 C   0  0  0  0  0  0  0  0  0  0  0  0
   41.1820   27.1860   33.4200 C   0  0  0  0  0  0  0  0  0  0  0  0
   39.8450   27.1720   33.0770 C   0  0  0  0  0  0  0  0  0  0  0  0
   39.0490   26.2270   33.7340 C   0  0  0  0  0  0  0  0  0  0  0  0
   41.4240   24.8660   35.6940 H   0  0  0  0  0  0  0  0  0  0  0  0
   42.7570   26.4640   34.4990 H   0  0  0  0  0  0  0  0  0  0  0  0
   41.7580   27.9360   32.8800 H   0  0  0  0  0  0  0  0  0  0  0  0
   39.4230   27.8510   32.3420 H   0  0  0  0  0  0  0  0  0  0  0  0
   37.6100   26.2040   33.3870 C   0  0  0  0  0  0  0  0  0  0  0  0
   36.9930   26.4120   34.3190 H   0  0  0  0  0  0  0  0  0  0  0  0
   37.3240   25.1730   33.0760 H   0  0  0  0  0  0  0  0  0  0  0  0
   37.2220   27.1430   31.0360 C   0  0  0  0  0  0  0  0  0  0  0  0
   37.1680   27.2200   32.4130 C   0  0  0  0  0  0  0  0  0  0  0  0
   36.6130   28.3940   32.9400 C   0  0  0  0  0  0  0  0  0  0  0  0
   36.5440   28.5070   34.0090 H   0  0  0  0  0  0  0  0  0  0  0  0
   36.1370   29.4320   32.1480 C   0  0  0  0  0  3  0  0  0  0  0  0
   36.1850   29.3650   30.7840 C   0  0  0  0  0  3  0  0  0  0  0  0
   36.7340   28.2060   30.2690 C   0  0  0  0  0  0  0  0  0  0  0  0
   37.7640   25.9940   30.5150 O   0  0  0  0  0  0  0  0  0  0  0  0
   37.3100   25.3610   29.8940 H   0  0  0  0  0  0  0  0  0  0  0  0
   36.7970   28.1090   28.8800 O   0  0  0  0  0  0  0  0  0  0  0  0
   36.0850   28.5070   28.2740 H   0  0  0  0  0  0  0  0  0  0  0  0
  1  6  1  0  0  0  0
  2  3  1  0  0  0  0
  2  1  2  0  0  0  0
  3  4  2  0  0  0  0
  4  5  1  0  0  0  0
  5  8  1  0  0  0  0
  6  5  2  0  0  0  0
  7  1  1  0  0  0  0
  9  2  1  0  0  0  0
 10  9  1  0  0  0  0
 11 17  1  0  0  0  0
 11 10  1  0  0  0  0
 11 12  1  0  0  0  0
 12 18  1  0  0  0  0
 12 13  1  0  0  0  0
 13  9  1  0  0  0  0
 13 20  1  1  0  0  0
 14 10  1  0  0  0  0
 15 10  1  0  0  0  0
 16 11  1  0  0  0  0
 19 12  1  0  0  0  0
 21 22  2  0  0  0  0
 23 13  1  0  0  0  0
 23 21  1  0  0  0  0
 24 21  1  0  0  0  0
 25 23  1  0  0  0  0
 26 27  1  0  0  0  0
 26  3  1  0  0  0  0
 27 32  1  0  0  0  0
 28 33  1  0  0  0  0
 28 27  2  0  0  0  0
 29 28  1  0  0  0  0
 30 29  2  0  0  0  0
 30 31  1  0  0  0  0
 31 26  2  0  0  0  0
 34 29  1  0  0  0  0
 35 30  1  0  0  0  0
 36 31  1  0  0  0  0
 36 37  1  0  0  0  0
 38 36  1  0  0  0  0
 39 40  1  0  0  0  0
 40 41  2  0  0  0  0
 40 36  1  0  0  0  0
 41 42  1  0  0  0  0
 43 41  1  0  0  0  0
 44 43  2  0  0  0  0
 45 44  1  0  0  0  0
 45 39  2  0  0  0  0
 46 39  1  0  0  0  0
 47 46  1  0  0  0  0
 48 45  1  0  0  0  0
 49 48  1  0  0  0  0
M  END
>  <minimizedAffinity>
-5.92111492

$$$$
