
 OpenBabel03272506093D

 46 49  0  0  0  0  0  0  0  0999 V2000
   34.7910   28.4140   49.2750 C   0  0  0  0  0  0  0  0  0  0  0  0
   35.7120   28.2190   48.6950 H   0  0  0  0  0  0  0  0  0  0  0  0
   34.7910   27.6030   50.0640 H   0  0  0  0  0  0  0  0  0  0  0  0
   33.5550   28.2310   48.4240 C   0  0  0  0  0  0  0  0  0  0  0  0
   33.6580   28.3930   46.9860 C   0  0  0  0  0  0  0  0  0  0  0  0
   31.9950   28.0850   46.4920 S   0  0  0  0  0  0  0  0  0  0  0  0
   31.3670   27.7800   48.2310 C   0  0  0  0  0  0  0  0  0  0  0  0
   32.3690   27.9340   48.8520 N   0  0  0  0  0  0  0  0  0  0  0  0
   30.0420   27.4470   48.7240 N   0  0  0  0  0  0  0  0  0  0  0  0
   29.2000   26.7170   47.8470 C   0  0  0  0  0  0  0  0  0  0  0  0
   27.7660   26.6990   48.2410 C   0  0  0  0  0  0  0  0  0  0  0  0
   27.4430   27.6760   49.2840 N   0  0  0  0  0  0  0  0  0  0  0  0
   28.3180   27.3240   50.3890 C   0  0  0  0  0  0  0  0  0  0  0  0
   29.6750   27.8810   50.0640 C   0  0  0  0  0  0  0  0  0  0  0  0
   34.5360   28.6340   46.4490 H   0  0  0  0  0  0  0  0  0  0  0  0
   29.2650   27.1830   46.8360 H   0  0  0  0  0  0  0  0  0  0  0  0
   29.5880   25.6670   47.7110 H   0  0  0  0  0  0  0  0  0  0  0  0
   27.5460   25.7110   48.7210 H   0  0  0  0  0  0  0  0  0  0  0  0
   27.0560   26.8310   47.4200 H   0  0  0  0  0  0  0  0  0  0  0  0
   26.4400   27.5650   49.5150 H   0  0  0  0  0  0  0  0  0  0  0  0
   27.9770   27.7870   51.3420 H   0  0  0  0  0  0  0  0  0  0  0  0
   28.3750   26.2370   50.5440 H   0  0  0  0  0  0  0  0  0  0  0  0
   29.5730   29.0050   50.1070 H   0  0  0  0  0  0  0  0  0  0  0  0
   30.3850   27.5740   50.8370 H   0  0  0  0  0  0  0  0  0  0  0  0
   34.7950   29.7270   49.9390 C   0  0  0  0  0  0  0  0  0  0  0  0
   35.0130   29.6200   51.0350 H   0  0  0  0  0  0  0  0  0  0  0  0
   33.8670   30.3030   49.7590 H   0  0  0  0  0  0  0  0  0  0  0  0
   37.5390   32.2140   49.7200 C   0  0  0  0  0  0  0  0  0  0  0  0
   37.9910   32.0460   48.4210 C   0  0  0  0  0  0  0  0  0  0  0  0
   37.3700   31.0960   47.6210 C   0  0  0  0  0  0  0  0  0  0  0  0
   36.3510   30.3870   48.1690 N   0  0  0  0  0  0  0  0  0  0  0  0
   35.9420   30.5800   49.4390 C   0  0  0  0  0  0  0  0  0  0  0  0
   36.5280   31.4810   50.2010 N   0  0  0  0  0  0  0  0  0  0  0  0
   38.0500   32.9710   50.3240 H   0  0  0  0  0  0  0  0  0  0  0  0
   38.7840   32.6240   48.0470 H   0  0  0  0  0  0  0  0  0  0  0  0
   36.8480   30.6600   45.1790 C   0  0  0  0  0  0  0  0  0  0  0  0
   37.6980   30.7850   46.2460 C   0  0  0  0  0  0  0  0  0  0  0  0
   39.0170   30.5790   45.9060 C   0  0  0  0  0  0  0  0  0  0  0  0
   39.8190   30.6370   46.6210 H   0  0  0  0  0  0  0  0  0  0  0  0
   39.4380   30.2780   44.6270 C   0  0  0  0  0  3  0  0  0  0  0  0
   38.5540   30.1660   43.6010 C   0  0  0  0  0  3  0  0  0  0  0  0
   37.2240   30.3620   43.8880 C   0  0  0  0  0  0  0  0  0  0  0  0
   35.5060   30.8410   45.3810 O   0  0  0  0  0  0  0  0  0  0  0  0
   34.8630   30.0700   45.4310 H   0  0  0  0  0  0  0  0  0  0  0  0
   36.2990   30.2550   42.8680 O   0  0  0  0  0  0  0  0  0  0  0  0
   36.2100   30.8950   42.0940 H   0  0  0  0  0  0  0  0  0  0  0  0
  1 25  1  0  0  0  0
  1  3  1  0  0  0  0
  2  1  1  0  0  0  0
  4  8  1  0  0  0  0
  4  1  1  0  0  0  0
  5  4  2  0  0  0  0
  6  5  1  0  0  0  0
  6  7  1  0  0  0  0
  7  9  1  0  0  0  0
  7  8  2  0  0  0  0
  9 14  1  0  0  0  0
 10 11  1  0  0  0  0
 10  9  1  0  0  0  0
 11 18  1  0  0  0  0
 11 12  1  0  0  0  0
 12 20  1  0  0  0  0
 12 13  1  0  0  0  0
 13 22  1  0  0  0  0
 13 21  1  0  0  0  0
 14 23  1  0  0  0  0
 14 13  1  0  0  0  0
 14 24  1  0  0  0  0
 15  5  1  0  0  0  0
 16 10  1  0  0  0  0
 17 10  1  0  0  0  0
 19 11  1  0  0  0  0
 25 26  1  0  0  0  0
 27 25  1  0  0  0  0
 28 33  1  0  0  0  0
 28 34  1  0  0  0  0
 29 28  2  0  0  0  0
 30 31  2  0  0  0  0
 30 29  1  0  0  0  0
 31 32  1  0  0  0  0
 32 25  1  0  0  0  0
 32 33  2  0  0  0  0
 35 29  1  0  0  0  0
 36 43  1  0  0  0  0
 36 37  1  0  0  0  0
 37 30  1  0  0  0  0
 38 37  2  0  0  0  0
 38 39  1  0  0  0  0
 40 38  1  0  0  0  0
 41 42  1  0  0  0  0
 41 40  2  0  0  0  0
 42 36  2  0  0  0  0
 43 44  1  0  0  0  0
 45 42  1  0  0  0  0
 46 45  1  0  0  0  0
M  END
>  <minimizedAffinity>
-6.90730906

>  <minimizedRMSD>
1.24464333

$$$$
