
 OpenBabel03272505323D

 42 45  0  0  0  0  0  0  0  0999 V2000
   37.4030   31.2400   47.0390 N   0  0  0  0  0  0  0  0  0  0  0  0
   36.7030   31.0530   45.8880 C   0  0  0  0  0  0  0  0  0  0  0  0
   37.1170   31.5940   44.6750 C   0  0  0  0  0  0  0  0  0  0  0  0
   38.2940   32.3510   44.6730 C   0  0  0  0  0  0  0  0  0  0  0  0
   38.7070   32.8580   43.6080 O   0  0  0  0  0  0  0  0  0  0  0  0
   38.9980   32.5360   45.8400 N   0  0  0  0  0  0  0  0  0  0  0  0
   38.4990   31.9670   46.9310 C   0  0  0  0  0  0  0  0  0  0  0  0
   39.1720   32.1630   47.9710 O   0  0  0  0  0  0  0  0  0  0  0  0
   35.7930   30.4670   45.8950 H   0  0  0  0  0  0  0  0  0  0  0  0
   37.4340   29.5530   50.3420 C   0  0  0  0  0  0  0  0  0  0  0  0
   37.8640   30.1010   49.1280 C   0  0  0  0  0  0  0  0  0  0  0  0
   36.9790   30.6940   48.2460 C   0  0  0  0  0  0  0  0  0  0  0  0
   35.6900   30.7120   48.6140 N   0  0  0  0  0  0  0  0  0  0  0  0
   35.2320   30.1900   49.7850 C   0  0  0  0  0  0  0  0  0  0  0  0
   36.1350   29.6070   50.6450 N   0  0  0  0  0  0  0  0  0  0  0  0
   38.1890   29.1120   50.9700 H   0  0  0  0  0  0  0  0  0  0  0  0
   38.9190   30.0650   48.8670 H   0  0  0  0  0  0  0  0  0  0  0  0
   34.1720   30.2270   50.0470 H   0  0  0  0  0  0  0  0  0  0  0  0
   36.4010   31.4210   43.4210 C   0  0  0  0  0  0  0  0  0  0  0  0
   36.5960   30.3650   42.5780 C   0  0  0  0  0  0  0  0  0  0  0  0
   35.9310   30.1770   41.3840 C   0  0  0  0  0  0  0  0  0  0  0  0
   34.9830   31.1420   41.0100 C   0  0  0  0  0  0  0  0  0  0  0  0
   34.8140   32.1950   41.8880 C   0  0  0  0  0  0  0  0  0  0  0  0
   35.4980   32.3000   43.0210 N   0  0  0  0  0  0  0  0  0  0  0  0
   37.3220   29.5930   42.8280 H   0  0  0  0  0  0  0  0  0  0  0  0
   36.1250   29.3290   40.7610 H   0  0  0  0  0  0  0  0  0  0  0  0
   34.4660   31.0100   40.0940 H   0  0  0  0  0  0  0  0  0  0  0  0
   32.8810   33.6300   42.4820 C   0  0  0  0  0  0  0  0  0  0  0  0
   33.8480   33.2410   41.5740 C   0  0  0  0  0  0  0  0  0  0  0  0
   33.7870   33.9390   40.3860 C   0  0  0  0  0  0  0  0  0  0  0  0
   34.5040   33.7020   39.6150 H   0  0  0  0  0  0  0  0  0  0  0  0
   32.8540   34.9210   40.1340 C   0  0  0  0  0  3  0  0  0  0  0  0
   31.9200   35.2540   41.0930 C   0  0  0  0  0  3  0  0  0  0  0  0
   31.9200   34.5990   42.3060 C   0  0  0  0  0  0  0  0  0  0  0  0
   32.8680   32.9720   43.7250 O   0  0  0  0  0  0  0  0  0  0  0  0
   33.4220   33.4520   44.4510 H   0  0  0  0  0  0  0  0  0  0  0  0
   31.0050   34.8900   43.3090 O   0  0  0  0  0  0  0  0  0  0  0  0
   30.8690   35.8790   43.5310 H   0  0  0  0  0  0  0  0  0  0  0  0
   40.2080   33.3160   45.8260 C   0  0  0  0  0  0  0  0  0  0  0  0
   40.1680   34.2550   44.8520 F   0  0  0  0  0  0  0  0  0  0  0  0
   41.3440   32.5600   45.5940 F   0  0  0  0  0  0  0  0  0  0  0  0
   40.3240   33.9740   47.0570 F   0  0  0  0  0  0  0  0  0  0  0  0
  1 12  1  0  0  0  0
  2  9  1  0  0  0  0
  2  1  1  0  0  0  0
  3  2  2  0  0  0  0
  4  3  1  0  0  0  0
  4  6  1  0  0  0  0
  5  4  2  0  0  0  0
  6  7  1  0  0  0  0
  7  1  1  0  0  0  0
  7  8  2  0  0  0  0
 10 15  1  0  0  0  0
 10 16  1  0  0  0  0
 11 10  2  0  0  0  0
 12 13  2  0  0  0  0
 12 11  1  0  0  0  0
 13 14  1  0  0  0  0
 14 18  1  0  0  0  0
 14 15  2  0  0  0  0
 17 11  1  0  0  0  0
 19  3  1  0  0  0  0
 20 25  1  0  0  0  0
 20 19  2  0  0  0  0
 21 20  1  0  0  0  0
 22 21  2  0  0  0  0
 22 23  1  0  0  0  0
 23 24  2  0  0  0  0
 24 19  1  0  0  0  0
 26 21  1  0  0  0  0
 27 22  1  0  0  0  0
 28 35  1  0  0  0  0
 29 23  1  0  0  0  0
 29 28  2  0  0  0  0
 30 29  1  0  0  0  0
 31 30  1  0  0  0  0
 32 30  2  0  0  0  0
 32 33  1  0  0  0  0
 33 34  2  0  0  0  0
 34 28  1  0  0  0  0
 34 37  1  0  0  0  0
 35 36  1  0  0  0  0
 37 38  1  0  0  0  0
 39  6  1  0  0  0  0
 39 42  1  0  0  0  0
 40 39  1  0  0  0  0
 41 39  1  0  0  0  0
M  END
>  <minimizedAffinity>
-7.25507593

>  <minimizedRMSD>
1.12369621

$$$$
