REMARK  Name = 
REMARK  3 active torsions:
REMARK  status: ('A' for Active; 'I' for Inactive)
REMARK    1  A    between atoms: C_2  and  C_12
REMARK    2  A    between atoms: O_10  and  C_11
REMARK    3  A    between atoms: C_17  and  O_18
REMARK                            x       y       z     vdW  Elec       q    Type
REMARK                         _______ _______ _______ _____ _____    ______ ____
ROOT
ATOM      1  C   UNL     1      39.668  32.489  49.767  0.00  0.00    +0.000 A 
ATOM      2  C   UNL     1      39.209  31.502  50.615  0.00  0.00    +0.000 A 
ATOM      3  C   UNL     1      39.953  31.354  51.786  0.00  0.00    +0.000 A 
ATOM      4  H   UNL     1      39.604  30.576  52.470  0.00  0.00    +0.000 HD
ATOM      5  C   UNL     1      41.069  32.155  52.054  0.00  0.00    +0.000 A 
ATOM      6  C   UNL     1      41.455  33.125  51.136  0.00  0.00    +0.000 A 
ATOM      7  C   UNL     1      40.738  33.296  49.967  0.00  0.00    +0.000 A 
ENDROOT
BRANCH   2   9
ATOM      8  C   UNL     1      37.295  30.181  51.407  0.00  0.00    +0.000 A 
ATOM      9  C   UNL     1      38.067  30.680  50.346  0.00  0.00    +0.000 A 
ATOM     10  C   UNL     1      37.679  30.343  49.045  0.00  0.00    +0.000 A 
ATOM     11  N   UNL     1      36.575  29.553  48.886  0.00  0.00    +0.000 NA
ATOM     12  C   UNL     1      35.859  29.095  49.940  0.00  0.00    +0.000 A 
ATOM     13  N   UNL     1      36.219  29.409  51.204  0.00  0.00    +0.000 NA
ATOM     14  H   UNL     1      37.551  30.410  52.419  0.00  0.00    +0.000 HD
ATOM     15  H   UNL     1      38.244  30.705  48.196  0.00  0.00    +0.000 HD
ATOM     16  H   UNL     1      35.027  28.490  49.620  0.00  0.00    +0.000 HD
ENDBRANCH   2   9
BRANCH   1  17
ATOM     17  O   UNL     1      38.979  32.711  48.559  0.00  0.00    +0.000 OA
ATOM     18  H   UNL     1      38.403  33.560  48.470  0.00  0.00    +0.000 HD
ENDBRANCH   1  17
BRANCH   7  19
ATOM     19  O   UNL     1      41.150  34.273  49.074  0.00  0.00    +0.000 OA
ATOM     20  H   UNL     1      41.347  33.953  48.114  0.00  0.00    +0.000 HD
ENDBRANCH   7  19
TORSDOF 3
