
 OpenBabel03262522103D

 31 33  0  0  0  0  0  0  0  0999 V2000
   37.3270   31.2380   45.0710 C   0  0  0  0  0  0  0  0  0  0  0  0
   36.4020   30.8910   44.1210 C   0  0  0  0  0  0  0  0  0  0  0  0
   35.2590   30.2130   44.4980 C   0  0  0  0  0  0  0  0  0  0  0  0
   35.1460   29.9330   45.8640 C   0  0  0  0  0  0  0  0  0  0  0  0
   36.0860   30.2910   46.7950 C   0  0  0  0  0  0  0  0  0  0  0  0
   37.1920   30.9540   46.3860 N   0  0  0  0  0  0  0  0  0  0  0  0
   36.5580   31.1430   43.0790 H   0  0  0  0  0  0  0  0  0  0  0  0
   34.4940   29.9140   43.7870 H   0  0  0  0  0  0  0  0  0  0  0  0
   34.2440   29.4020   46.1360 H   0  0  0  0  0  0  0  0  0  0  0  0
   34.6990   30.0260   48.8140 C   0  0  0  0  0  0  0  0  0  0  0  0
   35.9360   29.9830   48.2110 C   0  0  0  0  0  0  0  0  0  0  0  0
   36.9680   29.6330   49.0540 C   0  0  0  0  0  0  0  0  0  0  0  0
   37.9670   29.5770   48.6550 H   0  0  0  0  0  0  0  0  0  0  0  0
   36.7950   29.3470   50.3890 C   0  0  0  0  0  0  0  0  0  0  0  0
   35.5190   29.4050   50.9500 C   0  0  0  0  0  0  0  0  0  0  0  0
   34.4830   29.7500   50.1380 C   0  0  0  0  0  0  0  0  0  0  0  0
   33.6030   30.3790   48.0020 O   0  0  0  0  0  0  0  0  0  0  0  0
   33.1120   31.2040   48.2690 H   0  0  0  0  0  0  0  0  0  0  0  0
   33.1890   29.8160   50.6810 O   0  0  0  0  0  0  0  0  0  0  0  0
   33.1390   30.3300   51.5700 H   0  0  0  0  0  0  0  0  0  0  0  0
   38.5220   31.9580   44.6100 C   0  0  0  0  0  0  0  0  0  0  0  0
   38.9330   32.9640   45.1640 O   0  0  0  0  0  0  0  0  0  0  0  0
   40.1270   30.3830   43.5520 C   0  0  0  0  0  0  0  0  0  0  0  0
   39.2880   31.4960   43.4470 C   0  0  0  0  0  0  0  0  0  0  0  0
   39.2270   32.1190   42.2100 C   0  0  0  0  0  0  0  0  0  0  0  0
   39.9690   31.6360   41.1710 N   0  0  0  0  0  0  0  0  0  0  0  0
   40.7660   30.5550   41.3230 C   0  0  0  0  0  0  0  0  0  0  0  0
   40.8450   29.9370   42.4950 N   0  0  0  0  0  0  0  0  0  0  0  0
   40.1770   29.8890   44.5270 H   0  0  0  0  0  0  0  0  0  0  0  0
   38.5880   32.9820   42.0980 H   0  0  0  0  0  0  0  0  0  0  0  0
   41.3670   30.1420   40.5270 H   0  0  0  0  0  0  0  0  0  0  0  0
  1  6  1  0  0  0  0
  2  3  1  0  0  0  0
  2  1  2  0  0  0  0
  3  4  2  0  0  0  0
  4  9  1  0  0  0  0
  4  5  1  0  0  0  0
  5 11  1  0  0  0  0
  6  5  2  0  0  0  0
  7  2  1  0  0  0  0
  8  3  1  0  0  0  0
 10 16  1  0  0  0  0
 11 10  2  0  0  0  0
 11 12  1  0  0  0  0
 12 14  2  0  0  0  0
 13 12  1  0  0  0  0
 14 15  1  0  0  0  0
 16 19  1  0  0  0  0
 16 15  2  0  0  0  0
 17 18  1  0  0  0  0
 17 10  1  0  0  0  0
 19 20  1  0  0  0  0
 21  1  1  0  0  0  0
 21 22  2  0  0  0  0
 23 29  1  0  0  0  0
 24 23  1  0  0  0  0
 24 21  1  0  0  0  0
 25 24  2  0  0  0  0
 26 27  2  0  0  0  0
 26 25  1  0  0  0  0
 27 28  1  0  0  0  0
 28 23  2  0  0  0  0
 30 25  1  0  0  0  0
 31 27  1  0  0  0  0
M  END
>  <minimizedAffinity>
-6.16943359

>  <minimizedRMSD>
8.04811382

$$$$
