
 OpenBabel03272505593D

 46 49  0  0  1  0  0  0  0  0999 V2000
   35.3870   30.4980   49.9190 C   0  0  2  0  0  0  0  0  0  0  0  0
   36.2940   31.3280   49.0920 C   0  0  0  0  0  0  0  0  0  0  0  0
   37.7500   30.8570   49.1480 C   0  0  2  0  0  0  0  0  0  0  0  0
   38.3000   30.7730   50.5020 C   0  0  0  0  0  0  0  0  0  0  0  0
   37.3100   30.2310   51.5270 C   0  0  0  0  0  0  0  0  0  0  0  0
   36.1260   29.5840   50.8720 C   0  0  0  0  0  0  0  0  0  0  0  0
   34.7200   31.1150   50.5870 H   0  0  0  0  0  0  0  0  0  0  0  0
   36.1270   31.4930   48.0560 H   0  0  0  0  0  0  0  0  0  0  0  0
   36.3300   32.3610   49.5760 H   0  0  0  0  0  0  0  0  0  0  0  0
   37.7630   29.9210   48.5850 H   0  0  0  0  0  0  0  0  0  0  0  0
   39.2430   30.1900   50.5000 H   0  0  0  0  0  0  0  0  0  0  0  0
   38.5770   31.7740   50.8750 H   0  0  0  0  0  0  0  0  0  0  0  0
   37.8380   29.4220   52.0730 H   0  0  0  0  0  0  0  0  0  0  0  0
   37.0240   30.9660   52.2910 H   0  0  0  0  0  0  0  0  0  0  0  0
   36.4560   28.7080   50.2880 H   0  0  0  0  0  0  0  0  0  0  0  0
   35.4380   29.2520   51.6510 H   0  0  0  0  0  0  0  0  0  0  0  0
   38.0220   30.2440   46.2760 Cl  0  0  0  0  0  0  0  0  0  0  0  0
   38.7090   31.6880   47.0010 C   0  0  0  0  0  0  0  0  0  0  0  0
   38.4910   31.8830   48.3600 C   0  0  0  0  0  0  0  0  0  0  0  0
   39.0500   33.0470   48.8250 C   0  0  0  0  0  0  0  0  0  0  0  0
   39.7510   33.9210   48.0210 C   0  0  0  0  0  0  0  0  0  0  0  0
   39.9250   33.6550   46.6690 C   0  0  0  0  0  0  0  0  0  0  0  0
   39.3790   32.4900   46.1470 C   0  0  0  0  0  0  0  0  0  0  0  0
   38.9260   33.2840   49.8730 H   0  0  0  0  0  0  0  0  0  0  0  0
   40.1610   34.8250   48.4820 H   0  0  0  0  0  0  0  0  0  0  0  0
   40.4800   34.3700   46.0870 H   0  0  0  0  0  0  0  0  0  0  0  0
   40.4270   31.3080   44.1230 C   0  0  0  0  0  0  0  0  0  0  0  0
   39.5550   32.2000   44.7260 C   0  0  0  0  0  0  0  0  0  0  0  0
   38.7060   32.9530   43.9140 C   0  0  0  0  0  0  0  0  0  0  0  0
   37.9810   33.6870   44.2990 H   0  0  0  0  0  0  0  0  0  0  0  0
   38.6890   32.8560   42.5520 C   0  0  0  0  0  3  0  0  0  0  0  0
   39.5790   31.9480   41.9800 C   0  0  0  0  0  3  0  0  0  0  0  0
   40.4370   31.1830   42.7580 C   0  0  0  0  0  0  0  0  0  0  0  0
   41.2150   30.6230   45.0390 O   0  0  0  0  0  0  0  0  0  0  0  0
   41.8710   29.9550   44.6140 H   0  0  0  0  0  0  0  0  0  0  0  0
   41.3380   30.2690   42.2380 O   0  0  0  0  0  0  0  0  0  0  0  0
   41.8580   30.4650   41.3910 H   0  0  0  0  0  0  0  0  0  0  0  0
   34.4830   29.6570   49.1180 C   0  0  0  0  0  0  0  0  0  0  0  0
   34.5050   29.9020   47.7450 C   0  0  0  0  0  0  0  0  0  0  0  0
   33.6740   29.1180   46.9320 C   0  0  0  0  0  0  0  0  0  0  0  0
   32.8780   28.1460   47.5260 N   0  0  0  0  0  0  0  0  0  0  0  0
   32.8920   27.9470   48.8560 C   0  0  0  0  0  0  0  0  0  0  0  0
   33.6900   28.7050   49.6140 N   0  0  0  0  0  0  0  0  0  0  0  0
   34.9800   30.5510   47.0320 H   0  0  0  0  0  0  0  0  0  0  0  0
   33.5010   29.0940   45.8800 H   0  0  0  0  0  0  0  0  0  0  0  0
   32.2770   27.1970   49.3270 H   0  0  0  0  0  0  0  0  0  0  0  0
  1  7  1  1  0  0  0
  1  6  1  0  0  0  0
  2  3  1  0  0  0  0
  2  9  1  0  0  0  0
  2  1  1  0  0  0  0
  3 10  1  6  0  0  0
  3  4  1  0  0  0  0
  4 12  1  0  0  0  0
  4  5  1  0  0  0  0
  5 13  1  0  0  0  0
  5 14  1  0  0  0  0
  6  5  1  0  0  0  0
  6 16  1  0  0  0  0
  8  2  1  0  0  0  0
 11  4  1  0  0  0  0
 15  6  1  0  0  0  0
 17 18  1  0  0  0  0
 18 19  1  0  0  0  0
 19 20  2  0  0  0  0
 19  3  1  0  0  0  0
 20 24  1  0  0  0  0
 21 25  1  0  0  0  0
 21 20  1  0  0  0  0
 22 21  2  0  0  0  0
 23 22  1  0  0  0  0
 23 18  2  0  0  0  0
 26 22  1  0  0  0  0
 27 28  1  0  0  0  0
 27 34  1  0  0  0  0
 28 23  1  0  0  0  0
 29 30  1  0  0  0  0
 29 28  2  0  0  0  0
 31 29  1  0  0  0  0
 32 31  2  0  0  0  0
 32 33  1  0  0  0  0
 33 27  2  0  0  0  0
 35 34  1  0  0  0  0
 36 33  1  0  0  0  0
 37 36  1  0  0  0  0
 38 43  1  0  0  0  0
 38  1  1  0  0  0  0
 39 38  2  0  0  0  0
 40 41  2  0  0  0  0
 40 39  1  0  0  0  0
 41 42  1  0  0  0  0
 42 46  1  0  0  0  0
 42 43  2  0  0  0  0
 44 39  1  0  0  0  0
 45 40  1  0  0  0  0
M  END
>  <minimizedAffinity>
-8.24457169

>  <minimizedRMSD>
0.959070146

$$$$
