
 OpenBabel03272506473D

 44 47  0  0  1  0  0  0  0  0999 V2000
   31.4300   28.2640   47.4380 C   0  0  2  0  0  0  0  0  0  0  0  0
   32.6140   27.8690   48.2720 C   0  0  1  0  0  0  0  0  0  0  0  0
   32.6900   26.5090   48.2780 O   0  0  0  0  0  0  0  0  0  0  0  0
   31.8310   25.9920   47.3140 C   0  0  0  0  0  0  0  0  0  0  0  0
   31.4920   27.1240   46.3770 C   0  0  1  0  0  0  0  0  0  0  0  0
   30.4640   28.2040   47.9280 H   0  0  0  0  0  0  0  0  0  0  0  0
   32.5830   28.3250   49.2900 H   0  0  0  0  0  0  0  0  0  0  0  0
   30.9850   25.5790   47.8720 H   0  0  0  0  0  0  0  0  0  0  0  0
   32.3010   25.1360   46.7690 H   0  0  0  0  0  0  0  0  0  0  0  0
   32.3170   27.3430   45.7050 H   0  0  0  0  0  0  0  0  0  0  0  0
   31.6650   29.4990   46.8000 O   0  0  0  0  0  0  0  0  0  0  0  0
   31.9640   30.1100   47.5170 H   0  0  0  0  0  0  0  0  0  0  0  0
   34.1200   28.5090   47.4350 S   0  0  0  0  0  0  0  0  0  0  0  0
   35.9740   29.4070   50.8210 C   0  0  0  0  0  0  0  0  0  0  0  0
   36.6680   30.5860   50.5530 C   0  0  0  0  0  0  0  0  0  0  0  0
   36.5630   31.1270   49.2770 C   0  0  0  0  0  0  0  0  0  0  0  0
   35.7880   30.4840   48.3510 N   0  0  0  0  0  0  0  0  0  0  0  0
   35.1310   29.3420   48.6580 C   0  0  0  0  0  0  0  0  0  0  0  0
   35.2140   28.7890   49.8910 N   0  0  0  0  0  0  0  0  0  0  0  0
   36.0440   28.9730   51.8080 H   0  0  0  0  0  0  0  0  0  0  0  0
   37.2690   31.0590   51.3180 H   0  0  0  0  0  0  0  0  0  0  0  0
   37.0860   32.0360   49.0330 H   0  0  0  0  0  0  0  0  0  0  0  0
   30.2600   26.8930   45.8180 O   0  0  0  0  0  0  0  0  0  0  0  0
   29.3960   29.3340   44.4150 Cl  0  0  0  0  0  0  0  0  0  0  0  0
   28.5950   28.4820   45.7140 C   0  0  0  0  0  0  0  0  0  0  0  0
   29.0940   27.3360   46.2880 C   0  0  0  0  0  0  0  0  0  0  0  0
   28.3480   26.7330   47.3010 C   0  0  0  0  0  0  0  0  0  0  0  0
   27.1520   27.2710   47.7130 C   0  0  0  0  0  0  0  0  0  0  0  0
   26.6400   28.4230   47.1430 C   0  0  0  0  0  0  0  0  0  0  0  0
   27.3690   29.0310   46.1370 C   0  0  0  0  0  0  0  0  0  0  0  0
   28.6370   25.8340   47.8130 H   0  0  0  0  0  0  0  0  0  0  0  0
   26.5180   26.8660   48.4870 H   0  0  0  0  0  0  0  0  0  0  0  0
   25.6950   28.8710   47.4510 H   0  0  0  0  0  0  0  0  0  0  0  0
   26.8320   31.3020   46.4350 C   0  0  0  0  0  0  0  0  0  0  0  0
   26.8510   30.2510   45.5200 C   0  0  0  0  0  0  0  0  0  0  0  0
   26.4120   30.4540   44.2320 C   0  0  0  0  0  0  0  0  0  0  0  0
   26.4730   29.5700   43.6160 H   0  0  0  0  0  0  0  0  0  0  0  0
   25.9590   31.7080   43.8660 C   0  0  0  0  0  3  0  0  0  0  0  0
   25.9300   32.7610   44.7490 C   0  0  0  0  0  3  0  0  0  0  0  0
   26.3740   32.5580   46.0580 C   0  0  0  0  0  0  0  0  0  0  0  0
   27.2390   31.2530   47.7590 O   0  0  0  0  0  0  0  0  0  0  0  0
   26.7680   30.7900   48.5040 H   0  0  0  0  0  0  0  0  0  0  0  0
   26.3210   33.6590   46.9010 O   0  0  0  0  0  0  0  0  0  0  0  0
   26.2310   33.4540   47.9070 H   0  0  0  0  0  0  0  0  0  0  0  0
  1  6  1  1  0  0  0
  1  2  1  0  0  0  0
  2  3  1  0  0  0  0
  2  7  1  1  0  0  0
  4  8  1  0  0  0  0
  4  3  1  0  0  0  0
  5 10  1  6  0  0  0
  5  4  1  0  0  0  0
  5  1  1  0  0  0  0
  9  4  1  0  0  0  0
 11  1  1  0  0  0  0
 11 12  1  0  0  0  0
 13  2  1  0  0  0  0
 13 18  1  0  0  0  0
 14 20  1  0  0  0  0
 15 14  1  0  0  0  0
 15 21  1  0  0  0  0
 16 15  2  0  0  0  0
 17 18  2  0  0  0  0
 17 16  1  0  0  0  0
 18 19  1  0  0  0  0
 19 14  2  0  0  0  0
 22 16  1  0  0  0  0
 23 26  1  0  0  0  0
 23  5  1  0  0  0  0
 24 25  1  0  0  0  0
 25 30  2  0  0  0  0
 25 26  1  0  0  0  0
 26 27  2  0  0  0  0
 27 28  1  0  0  0  0
 27 31  1  0  0  0  0
 28 32  1  0  0  0  0
 29 33  1  0  0  0  0
 29 28  2  0  0  0  0
 30 29  1  0  0  0  0
 34 41  1  0  0  0  0
 35 30  1  0  0  0  0
 35 34  2  0  0  0  0
 36 35  1  0  0  0  0
 37 36  1  0  0  0  0
 38 36  2  0  0  0  0
 38 39  1  0  0  0  0
 39 40  2  0  0  0  0
 40 34  1  0  0  0  0
 40 43  1  0  0  0  0
 41 42  1  0  0  0  0
 43 44  1  0  0  0  0
M  END
>  <minimizedAffinity>
-6.18571043

>  <minimizedRMSD>
1.17082191

$$$$
