
 OpenBabel03272506473D

 44 47  0  0  1  0  0  0  0  0999 V2000
   31.9340   28.3670   47.5070 C   0  0  2  0  0  0  0  0  0  0  0  0
   33.1930   28.2440   48.3150 C   0  0  1  0  0  0  0  0  0  0  0  0
   33.5700   26.9350   48.3100 O   0  0  0  0  0  0  0  0  0  0  0  0
   32.8290   26.2410   47.3610 C   0  0  0  0  0  0  0  0  0  0  0  0
   32.2270   27.2720   46.4380 C   0  0  1  0  0  0  0  0  0  0  0  0
   31.0160   28.0910   48.0150 H   0  0  0  0  0  0  0  0  0  0  0  0
   33.0810   28.6790   49.3370 H   0  0  0  0  0  0  0  0  0  0  0  0
   32.1080   25.6490   47.9320 H   0  0  0  0  0  0  0  0  0  0  0  0
   33.4660   25.5130   46.8010 H   0  0  0  0  0  0  0  0  0  0  0  0
   32.9680   27.6700   45.7510 H   0  0  0  0  0  0  0  0  0  0  0  0
   31.8740   29.6240   46.8730 O   0  0  0  0  0  0  0  0  0  0  0  0
   32.0450   30.2850   47.5880 H   0  0  0  0  0  0  0  0  0  0  0  0
   34.5010   29.2050   47.4530 S   0  0  0  0  0  0  0  0  0  0  0  0
   37.0080   29.2700   50.5220 C   0  0  0  0  0  0  0  0  0  0  0  0
   37.5040   30.5720   50.5590 C   0  0  0  0  0  0  0  0  0  0  0  0
   37.0480   31.4680   49.5980 C   0  0  0  0  0  0  0  0  0  0  0  0
   36.1420   31.0350   48.6710 N   0  0  0  0  0  0  0  0  0  0  0  0
   35.6880   29.7610   48.6750 C   0  0  0  0  0  0  0  0  0  0  0  0
   36.1120   28.8630   49.5960 N   0  0  0  0  0  0  0  0  0  0  0  0
   37.3510   28.5590   51.2600 H   0  0  0  0  0  0  0  0  0  0  0  0
   38.2200   30.8690   51.3120 H   0  0  0  0  0  0  0  0  0  0  0  0
   37.4090   32.4820   49.5950 H   0  0  0  0  0  0  0  0  0  0  0  0
   31.0660   26.7730   45.9020 O   0  0  0  0  0  0  0  0  0  0  0  0
   29.7480   28.5680   43.9760 Cl  0  0  0  0  0  0  0  0  0  0  0  0
   29.1180   27.9260   45.4750 C   0  0  0  0  0  0  0  0  0  0  0  0
   29.8300   27.0800   46.2930 C   0  0  0  0  0  0  0  0  0  0  0  0
   29.2070   26.6130   47.4520 C   0  0  0  0  0  0  0  0  0  0  0  0
   27.9230   26.9910   47.7640 C   0  0  0  0  0  0  0  0  0  0  0  0
   27.1980   27.8410   46.9490 C   0  0  0  0  0  0  0  0  0  0  0  0
   27.8020   28.3110   45.7970 C   0  0  0  0  0  0  0  0  0  0  0  0
   29.6650   25.9450   48.1580 H   0  0  0  0  0  0  0  0  0  0  0  0
   27.3740   26.6750   48.6390 H   0  0  0  0  0  0  0  0  0  0  0  0
   26.1790   28.1570   47.1730 H   0  0  0  0  0  0  0  0  0  0  0  0
   26.2750   28.4920   44.0170 C   0  0  0  0  0  0  0  0  0  0  0  0
   27.0580   29.2120   44.9190 C   0  0  0  0  0  0  0  0  0  0  0  0
   27.0470   30.5880   44.8890 C   0  0  0  0  0  0  0  0  0  0  0  0
   27.6910   31.0330   45.6320 H   0  0  0  0  0  0  0  0  0  0  0  0
   26.2560   31.2350   43.9610 C   0  0  0  0  0  3  0  0  0  0  0  0
   25.4760   30.5490   43.0610 C   0  0  0  0  0  3  0  0  0  0  0  0
   25.4820   29.1530   43.0860 C   0  0  0  0  0  0  0  0  0  0  0  0
   26.1790   27.1130   43.9230 O   0  0  0  0  0  0  0  0  0  0  0  0
   26.8800   26.4950   43.5810 H   0  0  0  0  0  0  0  0  0  0  0  0
   24.6740   28.5180   42.1540 O   0  0  0  0  0  0  0  0  0  0  0  0
   24.9650   27.5700   41.8720 H   0  0  0  0  0  0  0  0  0  0  0  0
  1  6  1  1  0  0  0
  1  2  1  0  0  0  0
  2  7  1  1  0  0  0
  3  2  1  0  0  0  0
  4  8  1  0  0  0  0
  4  3  1  0  0  0  0
  5 10  1  6  0  0  0
  5  4  1  0  0  0  0
  5  1  1  0  0  0  0
  9  4  1  0  0  0  0
 11  1  1  0  0  0  0
 11 12  1  0  0  0  0
 13  2  1  0  0  0  0
 13 18  1  0  0  0  0
 14 15  1  0  0  0  0
 14 20  1  0  0  0  0
 15 21  1  0  0  0  0
 16 15  2  0  0  0  0
 17 18  2  0  0  0  0
 17 16  1  0  0  0  0
 18 19  1  0  0  0  0
 19 14  2  0  0  0  0
 22 16  1  0  0  0  0
 23 26  1  0  0  0  0
 23  5  1  0  0  0  0
 24 25  1  0  0  0  0
 25 30  2  0  0  0  0
 25 26  1  0  0  0  0
 26 27  2  0  0  0  0
 27 28  1  0  0  0  0
 27 31  1  0  0  0  0
 28 32  1  0  0  0  0
 29 33  1  0  0  0  0
 29 28  2  0  0  0  0
 30 29  1  0  0  0  0
 34 35  1  0  0  0  0
 35 30  1  0  0  0  0
 36 35  2  0  0  0  0
 36 37  1  0  0  0  0
 38 36  1  0  0  0  0
 39 40  1  0  0  0  0
 39 38  2  0  0  0  0
 40 34  2  0  0  0  0
 41 34  1  0  0  0  0
 42 41  1  0  0  0  0
 43 40  1  0  0  0  0
 44 43  1  0  0  0  0
M  END
>  <minimizedAffinity>
-5.66957045

>  <minimizedRMSD>
0.580283642

$$$$
