
 OpenBabel03272508283D

 40 43  0  0  1  0  0  0  0  0999 V2000
   32.9210   28.9080   47.0100 C   0  0  2  0  0  0  0  0  0  0  0  0
   33.7560   27.8730   47.7550 C   0  0  2  0  0  0  0  0  0  0  0  0
   32.9610   27.4380   48.7810 O   0  0  0  0  0  0  0  0  0  0  0  0
   31.6450   27.6320   48.4910 C   0  0  0  0  0  0  0  0  0  0  0  0
   31.5530   28.2230   47.0990 C   0  0  1  0  0  0  0  0  0  0  0  0
   32.8660   29.8660   47.5450 H   0  0  0  0  0  0  0  0  0  0  0  0
   33.9650   27.0500   47.0570 H   0  0  0  0  0  0  0  0  0  0  0  0
   31.1130   26.6570   48.4670 H   0  0  0  0  0  0  0  0  0  0  0  0
   31.1330   28.3540   49.1700 H   0  0  0  0  0  0  0  0  0  0  0  0
   31.5070   27.3990   46.3720 H   0  0  0  0  0  0  0  0  0  0  0  0
   34.9670   29.9150   48.7900 C   0  0  1  0  0  0  0  0  0  0  0  0
   34.9800   28.5740   48.2530 C   0  0  1  0  0  0  0  0  0  0  0  0
   35.2600   28.7220   49.7130 C   0  0  0  0  0  0  0  0  0  0  0  0
   34.1060   30.4960   49.1670 H   0  0  0  0  0  0  0  0  0  0  0  0
   35.8840   28.3150   47.6300 H   0  0  0  0  0  0  0  0  0  0  0  0
   36.3080   28.5790   50.0720 H   0  0  0  0  0  0  0  0  0  0  0  0
   34.5250   28.4580   50.4700 H   0  0  0  0  0  0  0  0  0  0  0  0
   36.1780   30.8240   48.6490 C   0  0  0  0  0  0  0  0  0  0  0  0
   36.5350   31.5950   49.7580 C   0  0  0  0  0  0  0  0  0  0  0  0
   37.6290   32.4180   49.5830 C   0  0  0  0  0  0  0  0  0  0  0  0
   38.2980   32.4550   48.3840 N   0  0  0  0  0  0  0  0  0  0  0  0
   37.9160   31.6900   47.3330 C   0  0  0  0  0  0  0  0  0  0  0  0
   36.8450   30.8670   47.4670 N   0  0  0  0  0  0  0  0  0  0  0  0
   35.9690   31.5190   50.6720 H   0  0  0  0  0  0  0  0  0  0  0  0
   37.9420   33.0350   50.4220 H   0  0  0  0  0  0  0  0  0  0  0  0
   38.4710   31.7520   46.4070 H   0  0  0  0  0  0  0  0  0  0  0  0
   33.3040   29.0990   45.7020 O   0  0  0  0  0  0  0  0  0  0  0  0
   33.2210   28.2920   45.1630 H   0  0  0  0  0  0  0  0  0  0  0  0
   30.5270   29.1040   46.9400 O   0  0  0  0  0  0  0  0  0  0  0  0
   28.3370   28.9900   47.5670 C   0  0  0  0  0  0  0  0  0  0  0  0
   29.2640   28.7910   46.5350 C   0  0  0  0  0  0  0  0  0  0  0  0
   28.7680   28.3310   45.3370 C   0  0  0  0  0  0  0  0  0  0  0  0
   29.5350   28.2020   44.5960 H   0  0  0  0  0  0  0  0  0  0  0  0
   27.4350   28.0790   45.1560 C   0  0  0  0  0  3  0  0  0  0  0  0
   26.5250   28.2740   46.1690 C   0  0  0  0  0  3  0  0  0  0  0  0
   26.9820   28.7350   47.3870 C   0  0  0  0  0  0  0  0  0  0  0  0
   28.6350   29.4480   48.8450 O   0  0  0  0  0  0  0  0  0  0  0  0
   28.9980   28.7830   49.5200 H   0  0  0  0  0  0  0  0  0  0  0  0
   26.0270   28.9130   48.3630 O   0  0  0  0  0  0  0  0  0  0  0  0
   26.0290   29.7090   49.0090 H   0  0  0  0  0  0  0  0  0  0  0  0
  1  5  1  0  0  0  0
  1  6  1  1  0  0  0
  1  2  1  0  0  0  0
  2  7  1  6  0  0  0
  2 12  1  0  0  0  0
  2  3  1  0  0  0  0
  4  3  1  0  0  0  0
  4  9  1  0  0  0  0
  5 10  1  6  0  0  0
  5  4  1  0  0  0  0
  8  4  1  0  0  0  0
 11 14  1  1  0  0  0
 11 13  1  0  0  0  0
 12 15  1  6  0  0  0
 12 11  1  0  0  0  0
 12 13  1  0  0  0  0
 13 16  1  0  0  0  0
 13 17  1  0  0  0  0
 18 11  1  0  0  0  0
 18 19  1  0  0  0  0
 19 24  1  0  0  0  0
 20 19  2  0  0  0  0
 20 25  1  0  0  0  0
 21 20  1  0  0  0  0
 22 23  1  0  0  0  0
 22 21  2  0  0  0  0
 23 18  2  0  0  0  0
 26 22  1  0  0  0  0
 27  1  1  0  0  0  0
 28 27  1  0  0  0  0
 29  5  1  0  0  0  0
 30 37  1  0  0  0  0
 31 29  1  0  0  0  0
 31 30  2  0  0  0  0
 32 31  1  0  0  0  0
 33 32  1  0  0  0  0
 34 32  2  0  0  0  0
 34 35  1  0  0  0  0
 35 36  2  0  0  0  0
 36 30  1  0  0  0  0
 36 39  1  0  0  0  0
 37 38  1  0  0  0  0
 39 40  1  0  0  0  0
M  END
>  <minimizedAffinity>
-6.0146904

>  <minimizedRMSD>
1.89077139

$$$$
