
 OpenBabel03272507513D

 30 32  0  0  0  0  0  0  0  0999 V2000
   36.5430   30.5520   46.7020 C   0  0  0  0  0  0  0  0  0  0  0  0
   37.4250   31.5850   46.3530 C   0  0  0  0  0  0  0  0  0  0  0  0
   37.6550   31.7990   44.9810 C   0  0  0  0  0  0  0  0  0  0  0  0
   37.0080   30.9950   44.0930 N   0  0  0  0  0  0  0  0  0  0  0  0
   36.1740   30.0220   44.4590 C   0  0  0  0  0  0  0  0  0  0  0  0
   35.9330   29.7900   45.7670 N   0  0  0  0  0  0  0  0  0  0  0  0
   38.3370   32.5980   44.8000 H   0  0  0  0  0  0  0  0  0  0  0  0
   35.8110   29.5570   43.5570 H   0  0  0  0  0  0  0  0  0  0  0  0
   38.0240   32.3530   47.3990 N   0  0  0  0  0  0  0  0  0  0  0  0
   37.4160   32.5160   48.5800 C   0  0  0  0  0  0  0  0  0  0  0  0
   38.0370   33.2830   49.5840 C   0  0  0  0  0  0  0  0  0  0  0  0
   39.2660   33.7970   49.1990 C   0  0  0  0  0  0  0  0  0  0  0  0
   39.8210   34.4840   50.1100 O   0  0  0  0  0  0  0  0  0  0  0  0
   39.8830   33.6430   48.0290 N   0  0  0  0  0  0  0  0  0  0  0  0
   39.2260   32.8930   47.1090 C   0  0  0  0  0  0  0  0  0  0  0  0
   39.7950   32.7400   46.0030 O   0  0  0  0  0  0  0  0  0  0  0  0
   36.4480   32.0790   48.7970 H   0  0  0  0  0  0  0  0  0  0  0  0
   37.6000   33.4520   50.5510 H   0  0  0  0  0  0  0  0  0  0  0  0
   40.8010   34.0930   47.8990 H   0  0  0  0  0  0  0  0  0  0  0  0
   34.8900   30.2500   48.5920 C   0  0  0  0  0  0  0  0  0  0  0  0
   36.1790   30.1680   48.0600 C   0  0  0  0  0  0  0  0  0  0  0  0
   37.2140   29.6630   48.8610 C   0  0  0  0  0  0  0  0  0  0  0  0
   38.2490   29.5600   48.5320 H   0  0  0  0  0  0  0  0  0  0  0  0
   36.9780   29.2490   50.1520 C   0  0  0  0  0  0  0  0  0  0  0  0
   35.7170   29.3320   50.6600 C   0  0  0  0  0  0  0  0  0  0  0  0
   34.6740   29.8320   49.8800 C   0  0  0  0  0  0  0  0  0  0  0  0
   33.8780   30.7620   47.7650 O   0  0  0  0  0  0  0  0  0  0  0  0
   33.7440   31.7790   47.8030 H   0  0  0  0  0  0  0  0  0  0  0  0
   33.3910   29.9070   50.4150 O   0  0  0  0  0  0  0  0  0  0  0  0
   32.6070   29.9560   49.7810 H   0  0  0  0  0  0  0  0  0  0  0  0
  1 21  1  0  0  0  0
  2  1  1  0  0  0  0
  2  9  1  0  0  0  0
  3  2  2  0  0  0  0
  4  5  2  0  0  0  0
  4  3  1  0  0  0  0
  5  6  1  0  0  0  0
  6  1  2  0  0  0  0
  7  3  1  0  0  0  0
  8  5  1  0  0  0  0
  9 10  1  0  0  0  0
 10 17  1  0  0  0  0
 10 11  2  0  0  0  0
 11 18  1  0  0  0  0
 12 11  1  0  0  0  0
 12 13  2  0  0  0  0
 14 12  1  0  0  0  0
 15  9  1  0  0  0  0
 15 14  1  0  0  0  0
 16 15  2  0  0  0  0
 19 14  1  0  0  0  0
 20 26  1  0  0  0  0
 21 20  2  0  0  0  0
 21 22  1  0  0  0  0
 22 24  2  0  0  0  0
 23 22  1  0  0  0  0
 24 25  1  0  0  0  0
 26 29  1  0  0  0  0
 26 25  2  0  0  0  0
 27 28  1  0  0  0  0
 27 20  1  0  0  0  0
 30 29  1  0  0  0  0
M  END
>  <minimizedAffinity>
-6.35026455

>  <minimizedRMSD>
3.40421653

$$$$
