
 OpenBabel03272509293D

 36 38  0  0  1  0  0  0  0  0999 V2000
   37.8570   24.3790   33.7120 C   0  0  2  0  0  0  0  0  0  0  0  0
   37.5120   25.3340   32.5810 C   0  0  0  0  0  0  0  0  0  0  0  0
   38.5740   26.3650   32.3300 C   0  0  0  0  0  0  0  0  0  0  0  0
   38.8610   27.1700   33.5610 C   0  0  0  0  0  0  0  0  0  0  0  0
   39.0210   26.3330   34.7870 C   0  0  0  0  0  0  0  0  0  0  0  0
   39.0210   24.8420   34.5120 C   0  0  1  0  0  0  0  0  0  0  0  0
   36.9020   24.2780   34.2820 H   0  0  0  0  0  0  0  0  0  0  0  0
   36.5740   25.8830   32.7720 H   0  0  0  0  0  0  0  0  0  0  0  0
   37.3810   24.7660   31.6370 H   0  0  0  0  0  0  0  0  0  0  0  0
   39.5440   25.8610   32.0630 H   0  0  0  0  0  0  0  0  0  0  0  0
   38.2160   27.0310   31.5490 H   0  0  0  0  0  0  0  0  0  0  0  0
   39.7170   27.8410   33.3660 H   0  0  0  0  0  0  0  0  0  0  0  0
   37.9710   27.8390   33.7290 H   0  0  0  0  0  0  0  0  0  0  0  0
   40.0350   26.5600   35.2180 H   0  0  0  0  0  0  0  0  0  0  0  0
   38.2980   26.5770   35.5900 H   0  0  0  0  0  0  0  0  0  0  0  0
   39.9630   24.6200   33.9540 H   0  0  0  0  0  0  0  0  0  0  0  0
   38.1420   23.0330   33.1810 C   0  0  0  0  0  0  0  0  0  0  0  0
   37.0690   22.1230   33.1940 C   0  0  0  0  0  0  0  0  0  0  0  0
   37.3330   20.8270   32.7030 C   0  0  0  0  0  0  0  0  0  0  0  0
   38.6000   20.5310   32.2470 N   0  0  0  0  0  0  0  0  0  0  0  0
   39.6010   21.4570   32.2600 C   0  0  0  0  0  0  0  0  0  0  0  0
   39.3390   22.6720   32.7260 N   0  0  0  0  0  0  0  0  0  0  0  0
   36.0680   22.3050   33.5380 H   0  0  0  0  0  0  0  0  0  0  0  0
   36.6040   20.0280   32.6520 H   0  0  0  0  0  0  0  0  0  0  0  0
   40.5330   21.0830   31.8750 H   0  0  0  0  0  0  0  0  0  0  0  0
   39.9000   23.1890   36.3050 C   0  0  0  0  0  0  0  0  0  0  0  0
   39.0950   24.2090   35.8540 C   0  0  0  0  0  0  0  0  0  0  0  0
   38.1460   24.7860   36.7050 C   0  0  0  0  0  0  0  0  0  0  0  0
   37.4550   25.5880   36.4830 H   0  0  0  0  0  0  0  0  0  0  0  0
   38.0060   24.3300   38.0210 C   0  0  0  0  0  3  0  0  0  0  0  0
   38.8130   23.3060   38.4720 C   0  0  0  0  0  3  0  0  0  0  0  0
   39.7500   22.7500   37.6040 C   0  0  0  0  0  0  0  0  0  0  0  0
   40.8170   22.6740   35.4070 O   0  0  0  0  0  0  0  0  0  0  0  0
   41.7400   22.3550   35.7310 H   0  0  0  0  0  0  0  0  0  0  0  0
   40.5740   21.7190   38.0330 O   0  0  0  0  0  0  0  0  0  0  0  0
   41.5800   21.8800   38.1790 H   0  0  0  0  0  0  0  0  0  0  0  0
  1  7  1  1  0  0  0
  1  6  1  0  0  0  0
  2  8  1  0  0  0  0
  2  1  1  0  0  0  0
  3  2  1  0  0  0  0
  3  4  1  0  0  0  0
  4 13  1  0  0  0  0
  4  5  1  0  0  0  0
  5 14  1  0  0  0  0
  5 15  1  0  0  0  0
  6 16  1  6  0  0  0
  6  5  1  0  0  0  0
  6 27  1  0  0  0  0
  9  2  1  0  0  0  0
 10  3  1  0  0  0  0
 11  3  1  0  0  0  0
 12  4  1  0  0  0  0
 17 18  1  0  0  0  0
 17  1  1  0  0  0  0
 18 23  1  0  0  0  0
 19 18  2  0  0  0  0
 20 21  2  0  0  0  0
 20 19  1  0  0  0  0
 21 22  1  0  0  0  0
 22 17  2  0  0  0  0
 24 19  1  0  0  0  0
 25 21  1  0  0  0  0
 26 32  1  0  0  0  0
 27 26  2  0  0  0  0
 27 28  1  0  0  0  0
 28 30  2  0  0  0  0
 29 28  1  0  0  0  0
 30 31  1  0  0  0  0
 32 35  1  0  0  0  0
 32 31  2  0  0  0  0
 33 34  1  0  0  0  0
 33 26  1  0  0  0  0
 35 36  1  0  0  0  0
M  END
>  <minimizedAffinity>
-5.49681473

$$$$

 OpenBabel03272509293D

 36 38  0  0  1  0  0  0  0  0999 V2000
   38.7010   24.3690   33.5320 C   0  0  2  0  0  0  0  0  0  0  0  0
   38.2420   24.3640   32.0830 C   0  0  0  0  0  0  0  0  0  0  0  0
   37.1100   23.4120   31.8230 C   0  0  0  0  0  0  0  0  0  0  0  0
   37.4700   22.0100   32.2130 C   0  0  0  0  0  0  0  0  0  0  0  0
   38.1210   21.9210   33.5540 C   0  0  0  0  0  0  0  0  0  0  0  0
   38.1400   23.2350   34.3110 C   0  0  1  0  0  0  0  0  0  0  0  0
   39.8160   24.3890   33.4630 H   0  0  0  0  0  0  0  0  0  0  0  0
   39.0560   24.0880   31.3910 H   0  0  0  0  0  0  0  0  0  0  0  0
   37.8880   25.3760   31.7980 H   0  0  0  0  0  0  0  0  0  0  0  0
   36.2230   23.6860   32.4580 H   0  0  0  0  0  0  0  0  0  0  0  0
   36.8920   23.4370   30.7580 H   0  0  0  0  0  0  0  0  0  0  0  0
   36.5810   21.3630   32.1070 H   0  0  0  0  0  0  0  0  0  0  0  0
   38.2170   21.6420   31.4560 H   0  0  0  0  0  0  0  0  0  0  0  0
   37.5030   21.2210   34.1800 H   0  0  0  0  0  0  0  0  0  0  0  0
   39.1350   21.4770   33.5280 H   0  0  0  0  0  0  0  0  0  0  0  0
   37.0800   23.4630   34.5820 H   0  0  0  0  0  0  0  0  0  0  0  0
   38.3270   25.6360   34.1870 C   0  0  0  0  0  0  0  0  0  0  0  0
   37.1690   26.2680   33.6970 C   0  0  0  0  0  0  0  0  0  0  0  0
   36.8100   27.4890   34.3050 C   0  0  0  0  0  0  0  0  0  0  0  0
   37.5950   27.9850   35.3240 N   0  0  0  0  0  0  0  0  0  0  0  0
   38.7080   27.3250   35.7560 C   0  0  0  0  0  0  0  0  0  0  0  0
   39.0360   26.1780   35.1750 N   0  0  0  0  0  0  0  0  0  0  0  0
   36.5270   25.9240   32.9080 H   0  0  0  0  0  0  0  0  0  0  0  0
   35.9460   28.0820   34.0310 H   0  0  0  0  0  0  0  0  0  0  0  0
   39.2200   27.8320   36.5550 H   0  0  0  0  0  0  0  0  0  0  0  0
   38.6200   23.2750   36.8590 C   0  0  0  0  0  0  0  0  0  0  0  0
   38.9010   22.9450   35.5530 C   0  0  0  0  0  0  0  0  0  0  0  0
   40.0790   22.2580   35.2390 C   0  0  0  0  0  0  0  0  0  0  0  0
   40.4220   21.9380   34.2640 H   0  0  0  0  0  0  0  0  0  0  0  0
   40.9800   21.9010   36.2490 C   0  0  0  0  0  3  0  0  0  0  0  0
   40.6980   22.2330   37.5570 C   0  0  0  0  0  3  0  0  0  0  0  0
   39.5180   22.9180   37.8420 C   0  0  0  0  0  0  0  0  0  0  0  0
   37.4350   23.9500   37.0900 O   0  0  0  0  0  0  0  0  0  0  0  0
   36.8950   23.7750   37.9480 H   0  0  0  0  0  0  0  0  0  0  0  0
   39.2100   23.2630   39.1500 O   0  0  0  0  0  0  0  0  0  0  0  0
   38.4410   22.7940   39.6480 H   0  0  0  0  0  0  0  0  0  0  0  0
  1  7  1  1  0  0  0
  1 17  1  0  0  0  0
  1  6  1  0  0  0  0
  2  1  1  0  0  0  0
  3  2  1  0  0  0  0
  3  4  1  0  0  0  0
  3 10  1  0  0  0  0
  4  5  1  0  0  0  0
  5 14  1  0  0  0  0
  5  6  1  0  0  0  0
  6 16  1  1  0  0  0
  6 27  1  0  0  0  0
  8  2  1  0  0  0  0
  9  2  1  0  0  0  0
 11  3  1  0  0  0  0
 12  4  1  0  0  0  0
 13  4  1  0  0  0  0
 15  5  1  0  0  0  0
 17 22  1  0  0  0  0
 18 17  2  0  0  0  0
 18 19  1  0  0  0  0
 19 20  2  0  0  0  0
 20 21  1  0  0  0  0
 21 25  1  0  0  0  0
 22 21  2  0  0  0  0
 23 18  1  0  0  0  0
 24 19  1  0  0  0  0
 26 33  1  0  0  0  0
 26 32  1  0  0  0  0
 27 26  2  0  0  0  0
 28 27  1  0  0  0  0
 28 30  2  0  0  0  0
 29 28  1  0  0  0  0
 30 31  1  0  0  0  0
 31 32  2  0  0  0  0
 32 35  1  0  0  0  0
 33 34  1  0  0  0  0
 35 36  1  0  0  0  0
M  END
>  <minimizedAffinity>
-5.47832108

$$$$

 OpenBabel03272509293D

 36 38  0  0  1  0  0  0  0  0999 V2000
   37.9760   24.4660   33.8970 C   0  0  2  0  0  0  0  0  0  0  0  0
   37.4730   25.5930   33.0090 C   0  0  0  0  0  0  0  0  0  0  0  0
   38.5450   26.5760   32.6360 C   0  0  0  0  0  0  0  0  0  0  0  0
   39.1870   27.1770   33.8510 C   0  0  0  0  0  0  0  0  0  0  0  0
   39.5420   26.1660   34.8900 C   0  0  0  0  0  0  0  0  0  0  0  0
   39.3320   24.7320   34.4420 C   0  0  1  0  0  0  0  0  0  0  0  0
   37.1720   24.3480   34.6650 H   0  0  0  0  0  0  0  0  0  0  0  0
   36.6640   26.1700   33.4880 H   0  0  0  0  0  0  0  0  0  0  0  0
   37.0730   25.1750   32.0630 H   0  0  0  0  0  0  0  0  0  0  0  0
   39.3730   26.0520   32.0830 H   0  0  0  0  0  0  0  0  0  0  0  0
   38.0830   27.3690   32.0530 H   0  0  0  0  0  0  0  0  0  0  0  0
   40.0360   27.8110   33.5380 H   0  0  0  0  0  0  0  0  0  0  0  0
   38.4300   27.8730   34.3090 H   0  0  0  0  0  0  0  0  0  0  0  0
   40.6450   26.2610   35.0860 H   0  0  0  0  0  0  0  0  0  0  0  0
   39.0520   26.3400   35.8670 H   0  0  0  0  0  0  0  0  0  0  0  0
   40.0940   24.5290   33.6500 H   0  0  0  0  0  0  0  0  0  0  0  0
   37.9960   23.1930   33.1530 C   0  0  0  0  0  0  0  0  0  0  0  0
   38.8670   23.1350   32.0500 C   0  0  0  0  0  0  0  0  0  0  0  0
   38.8840   21.9280   31.3200 C   0  0  0  0  0  0  0  0  0  0  0  0
   38.0640   20.8940   31.7200 N   0  0  0  0  0  0  0  0  0  0  0  0
   37.2390   21.0110   32.8000 C   0  0  0  0  0  0  0  0  0  0  0  0
   37.2320   22.1520   33.4770 N   0  0  0  0  0  0  0  0  0  0  0  0
   39.5230   23.9100   31.6990 H   0  0  0  0  0  0  0  0  0  0  0  0
   39.5040   21.7410   30.4520 H   0  0  0  0  0  0  0  0  0  0  0  0
   36.6590   20.1250   32.9910 H   0  0  0  0  0  0  0  0  0  0  0  0
   38.9090   23.6740   36.7720 C   0  0  0  0  0  0  0  0  0  0  0  0
   39.6520   23.9120   35.6380 C   0  0  0  0  0  0  0  0  0  0  0  0
   40.9340   23.3650   35.5110 C   0  0  0  0  0  0  0  0  0  0  0  0
   41.6210   23.4690   34.6810 H   0  0  0  0  0  0  0  0  0  0  0  0
   41.4710   22.5740   36.5330 C   0  0  0  0  0  3  0  0  0  0  0  0
   40.7250   22.3380   37.6690 C   0  0  0  0  0  3  0  0  0  0  0  0
   39.4510   22.8940   37.7700 C   0  0  0  0  0  0  0  0  0  0  0  0
   37.6490   24.2450   36.8220 O   0  0  0  0  0  0  0  0  0  0  0  0
   36.8720   23.7500   37.2810 H   0  0  0  0  0  0  0  0  0  0  0  0
   38.6800   22.6710   38.9020 O   0  0  0  0  0  0  0  0  0  0  0  0
   37.8450   22.0730   38.8570 H   0  0  0  0  0  0  0  0  0  0  0  0
  1  6  1  0  0  0  0
  1  7  1  1  0  0  0
  2  8  1  0  0  0  0
  2  1  1  0  0  0  0
  3  2  1  0  0  0  0
  3  4  1  0  0  0  0
  4 13  1  0  0  0  0
  4  5  1  0  0  0  0
  5 14  1  0  0  0  0
  5 15  1  0  0  0  0
  6 16  1  6  0  0  0
  6  5  1  0  0  0  0
  6 27  1  0  0  0  0
  9  2  1  0  0  0  0
 10  3  1  0  0  0  0
 11  3  1  0  0  0  0
 12  4  1  0  0  0  0
 17 22  1  0  0  0  0
 17  1  1  0  0  0  0
 18 17  2  0  0  0  0
 19 20  2  0  0  0  0
 19 18  1  0  0  0  0
 20 21  1  0  0  0  0
 21 25  1  0  0  0  0
 21 22  2  0  0  0  0
 23 18  1  0  0  0  0
 24 19  1  0  0  0  0
 26 33  1  0  0  0  0
 26 32  1  0  0  0  0
 27 26  2  0  0  0  0
 28 27  1  0  0  0  0
 28 30  2  0  0  0  0
 29 28  1  0  0  0  0
 30 31  1  0  0  0  0
 31 32  2  0  0  0  0
 32 35  1  0  0  0  0
 33 34  1  0  0  0  0
 36 35  1  0  0  0  0
M  END
>  <minimizedAffinity>
-5.34025097

$$$$

 OpenBabel03272509293D

 36 38  0  0  1  0  0  0  0  0999 V2000
   40.0210   24.9090   34.2670 C   0  0  2  0  0  0  0  0  0  0  0  0
   41.4300   24.3500   34.3780 C   0  0  0  0  0  0  0  0  0  0  0  0
   42.4110   25.3280   34.9590 C   0  0  0  0  0  0  0  0  0  0  0  0
   42.4620   26.5950   34.1600 C   0  0  0  0  0  0  0  0  0  0  0  0
   41.1120   27.1310   33.8180 C   0  0  0  0  0  0  0  0  0  0  0  0
   39.9730   26.3790   34.4790 C   0  0  1  0  0  0  0  0  0  0  0  0
   39.6710   24.5640   33.2640 H   0  0  0  0  0  0  0  0  0  0  0  0
   41.8320   24.0400   33.3980 H   0  0  0  0  0  0  0  0  0  0  0  0
   41.4300   23.4590   35.0380 H   0  0  0  0  0  0  0  0  0  0  0  0
   42.0850   25.6320   35.9920 H   0  0  0  0  0  0  0  0  0  0  0  0
   43.3930   24.8620   34.9460 H   0  0  0  0  0  0  0  0  0  0  0  0
   43.1120   27.3250   34.6770 H   0  0  0  0  0  0  0  0  0  0  0  0
   42.9780   26.3500   33.1900 H   0  0  0  0  0  0  0  0  0  0  0  0
   41.0550   28.1790   34.2220 H   0  0  0  0  0  0  0  0  0  0  0  0
   40.9320   27.2230   32.7300 H   0  0  0  0  0  0  0  0  0  0  0  0
   40.0380   26.5950   35.5730 H   0  0  0  0  0  0  0  0  0  0  0  0
   39.1280   24.2510   35.2400 C   0  0  0  0  0  0  0  0  0  0  0  0
   38.6120   23.0000   34.8590 C   0  0  0  0  0  0  0  0  0  0  0  0
   37.7450   22.3680   35.7740 C   0  0  0  0  0  0  0  0  0  0  0  0
   37.4570   22.9980   36.9670 N   0  0  0  0  0  0  0  0  0  0  0  0
   37.9900   24.2140   37.2800 C   0  0  0  0  0  0  0  0  0  0  0  0
   38.8040   24.7980   36.4090 N   0  0  0  0  0  0  0  0  0  0  0  0
   38.8040   22.4690   33.9450 H   0  0  0  0  0  0  0  0  0  0  0  0
   37.2760   21.4050   35.6150 H   0  0  0  0  0  0  0  0  0  0  0  0
   37.6760   24.5820   38.2420 H   0  0  0  0  0  0  0  0  0  0  0  0
   37.7140   27.6480   34.5940 C   0  0  0  0  0  0  0  0  0  0  0  0
   38.7400   27.0070   33.9380 C   0  0  0  0  0  0  0  0  0  0  0  0
   38.6920   26.8410   32.5490 C   0  0  0  0  0  0  0  0  0  0  0  0
   39.4230   26.3610   31.9120 H   0  0  0  0  0  0  0  0  0  0  0  0
   37.6030   27.3260   31.8160 C   0  0  0  0  0  3  0  0  0  0  0  0
   36.5750   27.9680   32.4740 C   0  0  0  0  0  3  0  0  0  0  0  0
   36.6480   28.1190   33.8580 C   0  0  0  0  0  0  0  0  0  0  0  0
   37.8360   27.7770   35.9660 O   0  0  0  0  0  0  0  0  0  0  0  0
   37.4820   28.6180   36.4430 H   0  0  0  0  0  0  0  0  0  0  0  0
   35.6270   28.7620   34.5440 O   0  0  0  0  0  0  0  0  0  0  0  0
   35.7810   29.6910   34.9600 H   0  0  0  0  0  0  0  0  0  0  0  0
  1  7  1  6  0  0  0
  1  2  1  0  0  0  0
  1  6  1  0  0  0  0
  1 17  1  0  0  0  0
  2  3  1  0  0  0  0
  2  9  1  0  0  0  0
  3 10  1  0  0  0  0
  4 12  1  0  0  0  0
  4  3  1  0  0  0  0
  5  4  1  0  0  0  0
  5 14  1  0  0  0  0
  5  6  1  0  0  0  0
  6 16  1  1  0  0  0
  8  2  1  0  0  0  0
 11  3  1  0  0  0  0
 13  4  1  0  0  0  0
 15  5  1  0  0  0  0
 17 22  1  0  0  0  0
 18 17  2  0  0  0  0
 18 19  1  0  0  0  0
 19 20  2  0  0  0  0
 20 21  1  0  0  0  0
 21 25  1  0  0  0  0
 22 21  2  0  0  0  0
 23 18  1  0  0  0  0
 24 19  1  0  0  0  0
 26 33  1  0  0  0  0
 27  6  1  0  0  0  0
 27 26  1  0  0  0  0
 28 27  2  0  0  0  0
 29 28  1  0  0  0  0
 30 31  2  0  0  0  0
 30 28  1  0  0  0  0
 31 32  1  0  0  0  0
 32 35  1  0  0  0  0
 32 26  2  0  0  0  0
 33 34  1  0  0  0  0
 35 36  1  0  0  0  0
M  END
>  <minimizedAffinity>
-5.24284744

$$$$

 OpenBabel03272509293D

 36 38  0  0  1  0  0  0  0  0999 V2000
   37.5310   25.8660   32.5290 C   0  0  2  0  0  0  0  0  0  0  0  0
   37.4280   24.3670   32.7590 C   0  0  0  0  0  0  0  0  0  0  0  0
   36.8340   23.6280   31.5950 C   0  0  0  0  0  0  0  0  0  0  0  0
   35.4730   24.1510   31.2480 C   0  0  0  0  0  0  0  0  0  0  0  0
   35.4120   25.6410   31.1920 C   0  0  0  0  0  0  0  0  0  0  0  0
   36.7640   26.3120   31.3370 C   0  0  1  0  0  0  0  0  0  0  0  0
   37.2020   26.3120   33.4980 H   0  0  0  0  0  0  0  0  0  0  0  0
   36.8090   24.1240   33.6400 H   0  0  0  0  0  0  0  0  0  0  0  0
   38.4390   23.9430   32.9320 H   0  0  0  0  0  0  0  0  0  0  0  0
   37.4640   23.7860   30.6770 H   0  0  0  0  0  0  0  0  0  0  0  0
   36.7490   22.5800   31.8730 H   0  0  0  0  0  0  0  0  0  0  0  0
   35.1170   23.6560   30.3260 H   0  0  0  0  0  0  0  0  0  0  0  0
   34.7770   23.8200   32.0690 H   0  0  0  0  0  0  0  0  0  0  0  0
   35.0450   25.9230   30.1670 H   0  0  0  0  0  0  0  0  0  0  0  0
   34.6840   26.0840   31.8990 H   0  0  0  0  0  0  0  0  0  0  0  0
   37.3440   26.0680   30.4130 H   0  0  0  0  0  0  0  0  0  0  0  0
   38.9420   26.2670   32.3730 C   0  0  0  0  0  0  0  0  0  0  0  0
   39.5350   26.8900   33.4850 C   0  0  0  0  0  0  0  0  0  0  0  0
   40.8800   27.2920   33.3430 C   0  0  0  0  0  0  0  0  0  0  0  0
   41.5240   27.0570   32.1470 N   0  0  0  0  0  0  0  0  0  0  0  0
   40.8950   26.4470   31.1020 C   0  0  0  0  0  0  0  0  0  0  0  0
   39.6290   26.0750   31.2490 N   0  0  0  0  0  0  0  0  0  0  0  0
   39.0770   27.0950   34.4350 H   0  0  0  0  0  0  0  0  0  0  0  0
   41.4620   27.7800   34.1150 H   0  0  0  0  0  0  0  0  0  0  0  0
   41.5220   26.3320   30.2350 H   0  0  0  0  0  0  0  0  0  0  0  0
   36.5490   28.6930   30.3320 C   0  0  0  0  0  0  0  0  0  0  0  0
   36.4650   27.7670   31.3470 C   0  0  0  0  0  0  0  0  0  0  0  0
   36.0800   28.1650   32.6320 C   0  0  0  0  0  0  0  0  0  0  0  0
   35.9730   27.5480   33.5140 H   0  0  0  0  0  0  0  0  0  0  0  0
   35.7760   29.5050   32.8960 C   0  0  0  0  0  3  0  0  0  0  0  0
   35.8600   30.4320   31.8790 C   0  0  0  0  0  3  0  0  0  0  0  0
   36.2470   30.0090   30.6080 C   0  0  0  0  0  0  0  0  0  0  0  0
   36.9320   28.2230   29.0890 O   0  0  0  0  0  0  0  0  0  0  0  0
   36.5350   28.6320   28.2320 H   0  0  0  0  0  0  0  0  0  0  0  0
   36.3390   30.9220   29.5670 O   0  0  0  0  0  0  0  0  0  0  0  0
   35.6610   30.9040   28.7940 H   0  0  0  0  0  0  0  0  0  0  0  0
  1  2  1  0  0  0  0
  1  7  1  1  0  0  0
  2  9  1  0  0  0  0
  2  8  1  0  0  0  0
  3 11  1  0  0  0  0
  3  2  1  0  0  0  0
  4  3  1  0  0  0  0
  4 13  1  0  0  0  0
  5  4  1  0  0  0  0
  5  6  1  0  0  0  0
  5 15  1  0  0  0  0
  6 16  1  6  0  0  0
  6 27  1  0  0  0  0
  6  1  1  0  0  0  0
 10  3  1  0  0  0  0
 12  4  1  0  0  0  0
 14  5  1  0  0  0  0
 17  1  1  0  0  0  0
 17 18  1  0  0  0  0
 18 23  1  0  0  0  0
 19 18  2  0  0  0  0
 19 24  1  0  0  0  0
 20 19  1  0  0  0  0
 21 22  1  0  0  0  0
 21 20  2  0  0  0  0
 22 17  2  0  0  0  0
 25 21  1  0  0  0  0
 26 32  2  0  0  0  0
 26 27  1  0  0  0  0
 27 28  2  0  0  0  0
 28 30  1  0  0  0  0
 28 29  1  0  0  0  0
 31 30  2  0  0  0  0
 32 31  1  0  0  0  0
 33 26  1  0  0  0  0
 34 33  1  0  0  0  0
 35 32  1  0  0  0  0
 36 35  1  0  0  0  0
M  END
>  <minimizedAffinity>
-5.13823557

$$$$

 OpenBabel03272509293D

 36 38  0  0  1  0  0  0  0  0999 V2000
   35.5260   30.5980   32.6450 C   0  0  2  0  0  0  0  0  0  0  0  0
   36.4270   29.8720   31.6580 C   0  0  0  0  0  0  0  0  0  0  0  0
   36.3650   28.3780   31.7890 C   0  0  0  0  0  0  0  0  0  0  0  0
   36.7210   27.9320   33.1750 C   0  0  0  0  0  0  0  0  0  0  0  0
   36.0370   28.7220   34.2410 C   0  0  0  0  0  0  0  0  0  0  0  0
   35.0080   29.7000   33.7090 C   0  0  1  0  0  0  0  0  0  0  0  0
   36.1520   31.4490   33.0070 H   0  0  0  0  0  0  0  0  0  0  0  0
   37.4860   30.1590   31.7740 H   0  0  0  0  0  0  0  0  0  0  0  0
   36.1230   30.1210   30.6210 H   0  0  0  0  0  0  0  0  0  0  0  0
   35.3140   28.0190   31.6140 H   0  0  0  0  0  0  0  0  0  0  0  0
   37.0790   27.9520   31.0880 H   0  0  0  0  0  0  0  0  0  0  0  0
   36.5610   26.8410   33.2590 H   0  0  0  0  0  0  0  0  0  0  0  0
   37.8270   28.0960   33.2980 H   0  0  0  0  0  0  0  0  0  0  0  0
   35.4610   27.9970   34.8790 H   0  0  0  0  0  0  0  0  0  0  0  0
   36.7340   29.2340   34.9320 H   0  0  0  0  0  0  0  0  0  0  0  0
   34.1670   29.0890   33.2980 H   0  0  0  0  0  0  0  0  0  0  0  0
   34.3890   31.2210   31.9420 C   0  0  0  0  0  0  0  0  0  0  0  0
   34.6600   32.4280   31.2730 C   0  0  0  0  0  0  0  0  0  0  0  0
   33.5770   33.0410   30.6100 C   0  0  0  0  0  0  0  0  0  0  0  0
   32.3380   32.4370   30.6530 N   0  0  0  0  0  0  0  0  0  0  0  0
   32.1370   31.2640   31.3190 C   0  0  0  0  0  0  0  0  0  0  0  0
   33.1650   30.6980   31.9400 N   0  0  0  0  0  0  0  0  0  0  0  0
   35.6040   32.9380   31.2110 H   0  0  0  0  0  0  0  0  0  0  0  0
   33.6400   33.9700   30.0560 H   0  0  0  0  0  0  0  0  0  0  0  0
   31.1210   30.9130   31.2660 H   0  0  0  0  0  0  0  0  0  0  0  0
   33.2780   30.4580   35.4870 C   0  0  0  0  0  0  0  0  0  0  0  0
   34.5270   30.4340   34.9080 C   0  0  0  0  0  0  0  0  0  0  0  0
   35.5630   31.2100   35.4380 C   0  0  0  0  0  0  0  0  0  0  0  0
   36.5830   31.2850   35.0860 H   0  0  0  0  0  0  0  0  0  0  0  0
   35.3400   32.0170   36.5590 C   0  0  0  0  0  3  0  0  0  0  0  0
   34.0880   32.0410   37.1380 C   0  0  0  0  0  3  0  0  0  0  0  0
   33.0740   31.2580   36.5900 C   0  0  0  0  0  0  0  0  0  0  0  0
   32.3070   29.6600   34.9090 O   0  0  0  0  0  0  0  0  0  0  0  0
   31.5960   29.2000   35.4930 H   0  0  0  0  0  0  0  0  0  0  0  0
   31.8060   31.2640   37.1540 O   0  0  0  0  0  0  0  0  0  0  0  0
   31.4530   30.4390   37.6580 H   0  0  0  0  0  0  0  0  0  0  0  0
  1  7  1  1  0  0  0
  1  6  1  0  0  0  0
  2  8  1  0  0  0  0
  2  3  1  0  0  0  0
  2  1  1  0  0  0  0
  3  4  1  0  0  0  0
  4 12  1  0  0  0  0
  4 13  1  0  0  0  0
  4  5  1  0  0  0  0
  5 14  1  0  0  0  0
  5 15  1  0  0  0  0
  6 16  1  6  0  0  0
  6  5  1  0  0  0  0
  6 27  1  0  0  0  0
  9  2  1  0  0  0  0
 10  3  1  0  0  0  0
 11  3  1  0  0  0  0
 17  1  1  0  0  0  0
 18 17  2  0  0  0  0
 19 20  2  0  0  0  0
 19 18  1  0  0  0  0
 20 21  1  0  0  0  0
 21 22  2  0  0  0  0
 22 17  1  0  0  0  0
 23 18  1  0  0  0  0
 24 19  1  0  0  0  0
 25 21  1  0  0  0  0
 26 32  1  0  0  0  0
 27 28  1  0  0  0  0
 27 26  2  0  0  0  0
 28 30  2  0  0  0  0
 29 28  1  0  0  0  0
 30 31  1  0  0  0  0
 32 31  2  0  0  0  0
 32 35  1  0  0  0  0
 33 26  1  0  0  0  0
 33 34  1  0  0  0  0
 35 36  1  0  0  0  0
M  END
>  <minimizedAffinity>
-5.11000633

$$$$

 OpenBabel03272509293D

 36 38  0  0  1  0  0  0  0  0999 V2000
   39.9510   24.8870   34.0480 C   0  0  2  0  0  0  0  0  0  0  0  0
   41.4080   24.5500   34.3230 C   0  0  0  0  0  0  0  0  0  0  0  0
   42.1840   25.7010   34.8960 C   0  0  0  0  0  0  0  0  0  0  0  0
   42.1340   26.9000   33.9980 C   0  0  0  0  0  0  0  0  0  0  0  0
   40.7600   27.2060   33.5010 C   0  0  0  0  0  0  0  0  0  0  0  0
   39.6800   26.3460   34.1280 C   0  0  1  0  0  0  0  0  0  0  0  0
   39.7490   24.4220   33.0530 H   0  0  0  0  0  0  0  0  0  0  0  0
   41.9390   24.2300   33.4100 H   0  0  0  0  0  0  0  0  0  0  0  0
   41.4690   23.7200   35.0560 H   0  0  0  0  0  0  0  0  0  0  0  0
   41.7240   26.0290   35.8680 H   0  0  0  0  0  0  0  0  0  0  0  0
   43.2190   25.3840   35.0040 H   0  0  0  0  0  0  0  0  0  0  0  0
   42.6250   27.7530   34.5020 H   0  0  0  0  0  0  0  0  0  0  0  0
   42.7680   26.6610   33.0990 H   0  0  0  0  0  0  0  0  0  0  0  0
   40.5200   28.2610   33.8070 H   0  0  0  0  0  0  0  0  0  0  0  0
   40.6720   27.1910   32.3970 H   0  0  0  0  0  0  0  0  0  0  0  0
   39.6120   26.6500   35.2010 H   0  0  0  0  0  0  0  0  0  0  0  0
   39.0710   24.1800   34.9980 C   0  0  0  0  0  0  0  0  0  0  0  0
   38.5690   22.9380   34.5690 C   0  0  0  0  0  0  0  0  0  0  0  0
   37.7140   22.2590   35.4620 C   0  0  0  0  0  0  0  0  0  0  0  0
   37.4240   22.8380   36.6790 N   0  0  0  0  0  0  0  0  0  0  0  0
   37.9420   24.0470   37.0390 C   0  0  0  0  0  0  0  0  0  0  0  0
   38.7440   24.6760   36.1890 N   0  0  0  0  0  0  0  0  0  0  0  0
   38.7650   22.4470   33.6340 H   0  0  0  0  0  0  0  0  0  0  0  0
   37.2570   21.2970   35.2660 H   0  0  0  0  0  0  0  0  0  0  0  0
   37.6270   24.3720   38.0150 H   0  0  0  0  0  0  0  0  0  0  0  0
   37.9870   26.4470   32.1660 C   0  0  0  0  0  0  0  0  0  0  0  0
   38.4280   26.7460   33.4350 C   0  0  0  0  0  0  0  0  0  0  0  0
   37.6660   27.5720   34.2680 C   0  0  0  0  0  0  0  0  0  0  0  0
   37.8910   27.8840   35.2790 H   0  0  0  0  0  0  0  0  0  0  0  0
   36.4510   28.1010   33.8190 C   0  0  0  0  0  3  0  0  0  0  0  0
   36.0100   27.8020   32.5470 C   0  0  0  0  0  3  0  0  0  0  0  0
   36.7890   26.9770   31.7380 C   0  0  0  0  0  0  0  0  0  0  0  0
   38.7930   25.6200   31.4040 O   0  0  0  0  0  0  0  0  0  0  0  0
   38.3760   24.9440   30.7510 H   0  0  0  0  0  0  0  0  0  0  0  0
   36.3670   26.6600   30.4540 O   0  0  0  0  0  0  0  0  0  0  0  0
   36.0540   25.7070   30.2260 H   0  0  0  0  0  0  0  0  0  0  0  0
  1  7  1  6  0  0  0
  1  6  1  0  0  0  0
  1  2  1  0  0  0  0
  1 17  1  0  0  0  0
  2  3  1  0  0  0  0
  2  9  1  0  0  0  0
  3 11  1  0  0  0  0
  3 10  1  0  0  0  0
  4 12  1  0  0  0  0
  4  3  1  0  0  0  0
  5 14  1  0  0  0  0
  5  4  1  0  0  0  0
  5  6  1  0  0  0  0
  6 16  1  1  0  0  0
  8  2  1  0  0  0  0
 13  4  1  0  0  0  0
 15  5  1  0  0  0  0
 17 22  1  0  0  0  0
 18 17  2  0  0  0  0
 18 19  1  0  0  0  0
 19 20  2  0  0  0  0
 20 21  1  0  0  0  0
 21 25  1  0  0  0  0
 22 21  2  0  0  0  0
 23 18  1  0  0  0  0
 24 19  1  0  0  0  0
 26 27  1  0  0  0  0
 27  6  1  0  0  0  0
 27 28  2  0  0  0  0
 28 29  1  0  0  0  0
 30 28  1  0  0  0  0
 31 30  2  0  0  0  0
 32 26  2  0  0  0  0
 32 31  1  0  0  0  0
 33 26  1  0  0  0  0
 34 33  1  0  0  0  0
 35 32  1  0  0  0  0
 36 35  1  0  0  0  0
M  END
>  <minimizedAffinity>
-5.07880068

$$$$

 OpenBabel03272509293D

 36 38  0  0  1  0  0  0  0  0999 V2000
   38.6850   26.4460   32.8640 C   0  0  2  0  0  0  0  0  0  0  0  0
   39.2510   27.4550   31.8790 C   0  0  0  0  0  0  0  0  0  0  0  0
   40.7370   27.3380   31.7000 C   0  0  0  0  0  0  0  0  0  0  0  0
   41.4620   27.4880   33.0040 C   0  0  0  0  0  0  0  0  0  0  0  0
   40.8590   26.6840   34.1070 C   0  0  0  0  0  0  0  0  0  0  0  0
   39.7440   25.7630   33.6520 C   0  0  1  0  0  0  0  0  0  0  0  0
   37.9540   27.0370   33.4680 H   0  0  0  0  0  0  0  0  0  0  0  0
   39.0480   28.4950   32.1860 H   0  0  0  0  0  0  0  0  0  0  0  0
   38.7910   27.3040   30.8810 H   0  0  0  0  0  0  0  0  0  0  0  0
   41.0000   26.3120   31.3220 H   0  0  0  0  0  0  0  0  0  0  0  0
   41.0560   28.1310   31.0260 H   0  0  0  0  0  0  0  0  0  0  0  0
   42.5380   27.2910   32.8470 H   0  0  0  0  0  0  0  0  0  0  0  0
   41.3820   28.5710   33.2990 H   0  0  0  0  0  0  0  0  0  0  0  0
   41.6630   26.0070   34.5070 H   0  0  0  0  0  0  0  0  0  0  0  0
   40.5270   27.2920   34.9720 H   0  0  0  0  0  0  0  0  0  0  0  0
   40.2190   24.9720   33.0210 H   0  0  0  0  0  0  0  0  0  0  0  0
   37.8790   25.4320   32.1580 C   0  0  0  0  0  0  0  0  0  0  0  0
   38.5920   24.5270   31.3510 C   0  0  0  0  0  0  0  0  0  0  0  0
   37.8310   23.5620   30.6580 C   0  0  0  0  0  0  0  0  0  0  0  0
   36.4600   23.5600   30.8070 N   0  0  0  0  0  0  0  0  0  0  0  0
   35.8250   24.4650   31.6050 C   0  0  0  0  0  0  0  0  0  0  0  0
   36.5530   25.3680   32.2510 N   0  0  0  0  0  0  0  0  0  0  0  0
   39.6550   24.4880   31.2030 H   0  0  0  0  0  0  0  0  0  0  0  0
   38.2450   22.8040   30.0040 H   0  0  0  0  0  0  0  0  0  0  0  0
   34.7560   24.3420   31.6230 H   0  0  0  0  0  0  0  0  0  0  0  0
   39.2590   23.8250   35.3060 C   0  0  0  0  0  0  0  0  0  0  0  0
   39.2330   25.1400   34.9000 C   0  0  0  0  0  0  0  0  0  0  0  0
   38.6260   26.1120   35.7020 C   0  0  0  0  0  0  0  0  0  0  0  0
   38.5350   27.1720   35.5080 H   0  0  0  0  0  0  0  0  0  0  0  0
   38.0410   25.7560   36.9230 C   0  0  0  0  0  3  0  0  0  0  0  0
   38.0670   24.4380   37.3290 C   0  0  0  0  0  3  0  0  0  0  0  0
   38.6780   23.4910   36.5100 C   0  0  0  0  0  0  0  0  0  0  0  0
   39.8820   22.9240   34.4600 O   0  0  0  0  0  0  0  0  0  0  0  0
   40.4100   22.1290   34.8450 H   0  0  0  0  0  0  0  0  0  0  0  0
   38.7190   22.1580   36.8950 O   0  0  0  0  0  0  0  0  0  0  0  0
   39.6070   21.7210   37.1760 H   0  0  0  0  0  0  0  0  0  0  0  0
  1  7  1  1  0  0  0
  1  6  1  0  0  0  0
  2  8  1  0  0  0  0
  2  1  1  0  0  0  0
  3  2  1  0  0  0  0
  3  4  1  0  0  0  0
  4 13  1  0  0  0  0
  4  5  1  0  0  0  0
  5 14  1  0  0  0  0
  5 15  1  0  0  0  0
  6 16  1  6  0  0  0
  6  5  1  0  0  0  0
  6 27  1  0  0  0  0
  9  2  1  0  0  0  0
 10  3  1  0  0  0  0
 11  3  1  0  0  0  0
 12  4  1  0  0  0  0
 17 22  1  0  0  0  0
 17  1  1  0  0  0  0
 18 17  2  0  0  0  0
 19 20  2  0  0  0  0
 19 18  1  0  0  0  0
 20 21  1  0  0  0  0
 21 25  1  0  0  0  0
 21 22  2  0  0  0  0
 23 18  1  0  0  0  0
 24 19  1  0  0  0  0
 26 32  1  0  0  0  0
 27 26  2  0  0  0  0
 27 28  1  0  0  0  0
 28 30  2  0  0  0  0
 29 28  1  0  0  0  0
 30 31  1  0  0  0  0
 32 35  1  0  0  0  0
 32 31  2  0  0  0  0
 33 34  1  0  0  0  0
 33 26  1  0  0  0  0
 35 36  1  0  0  0  0
M  END
>  <minimizedAffinity>
-5.0617013

$$$$

 OpenBabel03272509293D

 36 38  0  0  1  0  0  0  0  0999 V2000
   39.3110   25.4670   34.6590 C   0  0  2  0  0  0  0  0  0  0  0  0
   39.3750   26.8290   35.3320 C   0  0  0  0  0  0  0  0  0  0  0  0
   38.0220   27.4020   35.6410 C   0  0  0  0  0  0  0  0  0  0  0  0
   37.1800   27.5200   34.4060 C   0  0  0  0  0  0  0  0  0  0  0  0
   37.2050   26.2930   33.5570 C   0  0  0  0  0  0  0  0  0  0  0  0
   37.9420   25.1290   34.1900 C   0  0  1  0  0  0  0  0  0  0  0  0
   40.0850   25.5250   33.8560 H   0  0  0  0  0  0  0  0  0  0  0  0
   39.9030   27.5740   34.7110 H   0  0  0  0  0  0  0  0  0  0  0  0
   39.9210   26.7470   36.2940 H   0  0  0  0  0  0  0  0  0  0  0  0
   37.4600   26.7120   36.3280 H   0  0  0  0  0  0  0  0  0  0  0  0
   38.1680   28.3930   36.0640 H   0  0  0  0  0  0  0  0  0  0  0  0
   36.1620   27.8440   34.6890 H   0  0  0  0  0  0  0  0  0  0  0  0
   37.6150   28.3580   33.7930 H   0  0  0  0  0  0  0  0  0  0  0  0
   36.1420   25.9470   33.4370 H   0  0  0  0  0  0  0  0  0  0  0  0
   37.5770   26.4700   32.5290 H   0  0  0  0  0  0  0  0  0  0  0  0
   37.3260   24.7960   35.0610 H   0  0  0  0  0  0  0  0  0  0  0  0
   39.7790   24.4150   35.5810 C   0  0  0  0  0  0  0  0  0  0  0  0
   41.0690   23.9080   35.3370 C   0  0  0  0  0  0  0  0  0  0  0  0
   41.5220   22.8910   36.2020 C   0  0  0  0  0  0  0  0  0  0  0  0
   40.6950   22.4590   37.2170 N   0  0  0  0  0  0  0  0  0  0  0  0
   39.4530   22.9900   37.4030 C   0  0  0  0  0  0  0  0  0  0  0  0
   39.0380   23.9460   36.5810 N   0  0  0  0  0  0  0  0  0  0  0  0
   41.7490   24.2100   34.5620 H   0  0  0  0  0  0  0  0  0  0  0  0
   42.4910   22.4110   36.1330 H   0  0  0  0  0  0  0  0  0  0  0  0
   38.9230   22.5540   38.2320 H   0  0  0  0  0  0  0  0  0  0  0  0
   37.7200   22.7080   33.2860 C   0  0  0  0  0  0  0  0  0  0  0  0
   37.9270   24.0630   33.1560 C   0  0  0  0  0  0  0  0  0  0  0  0
   38.2050   24.6150   31.9000 C   0  0  0  0  0  0  0  0  0  0  0  0
   38.3850   25.6530   31.6570 H   0  0  0  0  0  0  0  0  0  0  0  0
   38.2740   23.7960   30.7670 C   0  0  0  0  0  3  0  0  0  0  0  0
   38.0680   22.4390   30.8990 C   0  0  0  0  0  3  0  0  0  0  0  0
   37.7930   21.9150   32.1610 C   0  0  0  0  0  0  0  0  0  0  0  0
   37.4460   22.2390   34.5580 O   0  0  0  0  0  0  0  0  0  0  0  0
   36.7940   21.4540   34.6940 H   0  0  0  0  0  0  0  0  0  0  0  0
   37.5800   20.5530   32.3200 O   0  0  0  0  0  0  0  0  0  0  0  0
   36.6430   20.1920   32.5420 H   0  0  0  0  0  0  0  0  0  0  0  0
  1  7  1  6  0  0  0
  1  2  1  0  0  0  0
  1 17  1  0  0  0  0
  2  3  1  0  0  0  0
  2  9  1  0  0  0  0
  3 11  1  0  0  0  0
  3 10  1  0  0  0  0
  4 12  1  0  0  0  0
  4  3  1  0  0  0  0
  5  6  1  0  0  0  0
  5  4  1  0  0  0  0
  6  1  1  0  0  0  0
  6 16  1  1  0  0  0
  8  2  1  0  0  0  0
 13  4  1  0  0  0  0
 14  5  1  0  0  0  0
 15  5  1  0  0  0  0
 17 22  1  0  0  0  0
 18 17  2  0  0  0  0
 18 19  1  0  0  0  0
 19 20  2  0  0  0  0
 20 21  1  0  0  0  0
 21 25  1  0  0  0  0
 22 21  2  0  0  0  0
 23 18  1  0  0  0  0
 24 19  1  0  0  0  0
 26 33  1  0  0  0  0
 27 26  1  0  0  0  0
 27  6  1  0  0  0  0
 28 27  2  0  0  0  0
 29 28  1  0  0  0  0
 30 31  2  0  0  0  0
 30 28  1  0  0  0  0
 31 32  1  0  0  0  0
 32 35  1  0  0  0  0
 32 26  2  0  0  0  0
 33 34  1  0  0  0  0
 35 36  1  0  0  0  0
M  END
>  <minimizedAffinity>
-5.04023075

$$$$
