
 OpenBabel03272510173D

 30 32  0  0  0  0  0  0  0  0999 V2000
   37.1260   29.6060   51.3290 Br  0  0  0  0  0  0  0  0  0  0  0  0
   36.0230   29.3200   49.7920 C   0  0  0  0  0  0  0  0  0  0  0  0
   36.1410   30.1240   48.6570 C   0  0  0  0  0  0  0  0  0  0  0  0
   35.3120   29.8530   47.5900 C   0  0  0  0  0  0  0  0  0  0  0  0
   34.3770   28.8300   47.5970 C   0  0  0  0  0  0  0  0  0  0  0  0
   34.2840   28.0560   48.7300 C   0  0  0  0  0  0  0  0  0  0  0  0
   35.1010   28.3070   49.8080 C   0  0  0  0  0  0  0  0  0  0  0  0
   35.3980   30.4740   46.7010 H   0  0  0  0  0  0  0  0  0  0  0  0
   33.5590   27.2540   48.7470 H   0  0  0  0  0  0  0  0  0  0  0  0
   35.0090   27.6780   50.6990 H   0  0  0  0  0  0  0  0  0  0  0  0
   37.8410   33.2390   49.5300 C   0  0  0  0  0  0  0  0  0  0  0  0
   38.9250   33.2790   48.6280 C   0  0  0  0  0  0  0  0  0  0  0  0
   39.0660   32.2220   47.7140 C   0  0  0  0  0  0  0  0  0  0  0  0
   38.1450   31.2100   47.7470 N   0  0  0  0  0  0  0  0  0  0  0  0
   37.1150   31.2040   48.6280 C   0  0  0  0  0  0  0  0  0  0  0  0
   36.9670   32.2110   49.5110 N   0  0  0  0  0  0  0  0  0  0  0  0
   37.7740   34.0770   50.2170 H   0  0  0  0  0  0  0  0  0  0  0  0
   39.6650   34.0430   48.5650 H   0  0  0  0  0  0  0  0  0  0  0  0
   39.8470   32.1370   46.9780 H   0  0  0  0  0  0  0  0  0  0  0  0
   32.1700   28.6320   46.4900 C   0  0  0  0  0  0  0  0  0  0  0  0
   33.5460   28.6270   46.4090 C   0  0  0  0  0  0  0  0  0  0  0  0
   34.1350   28.4270   45.1870 C   0  0  0  0  0  0  0  0  0  0  0  0
   35.1890   28.4110   45.0490 H   0  0  0  0  0  0  0  0  0  0  0  0
   33.2940   28.2390   44.0900 C   0  0  0  0  0  3  0  0  0  0  0  0
   31.9110   28.2430   44.1660 C   0  0  0  0  0  3  0  0  0  0  0  0
   31.3420   28.4450   45.4030 C   0  0  0  0  0  0  0  0  0  0  0  0
   31.5940   28.8370   47.7430 O   0  0  0  0  0  0  0  0  0  0  0  0
   30.8010   28.3070   48.0770 H   0  0  0  0  0  0  0  0  0  0  0  0
   29.9500   28.4650   45.5710 O   0  0  0  0  0  0  0  0  0  0  0  0
   29.4550   27.5880   45.7870 H   0  0  0  0  0  0  0  0  0  0  0  0
  2  7  1  0  0  0  0
  2  1  1  0  0  0  0
  3  2  2  0  0  0  0
  4  5  2  0  0  0  0
  4  3  1  0  0  0  0
  5  6  1  0  0  0  0
  6  9  1  0  0  0  0
  6  7  2  0  0  0  0
  7 10  1  0  0  0  0
  8  4  1  0  0  0  0
 11 17  1  0  0  0  0
 12 11  2  0  0  0  0
 13 14  2  0  0  0  0
 13 12  1  0  0  0  0
 14 15  1  0  0  0  0
 15  3  1  0  0  0  0
 15 16  2  0  0  0  0
 16 11  1  0  0  0  0
 18 12  1  0  0  0  0
 19 13  1  0  0  0  0
 20 27  1  0  0  0  0
 21 20  1  0  0  0  0
 21  5  1  0  0  0  0
 22 21  2  0  0  0  0
 23 22  1  0  0  0  0
 24 25  2  0  0  0  0
 24 22  1  0  0  0  0
 25 26  1  0  0  0  0
 26 29  1  0  0  0  0
 26 20  2  0  0  0  0
 27 28  1  0  0  0  0
 29 30  1  0  0  0  0
M  END
>  <minimizedAffinity>
-6.28709269

>  <minimizedRMSD>
0.717462361

$$$$
