
     RDKit          3D

 44 47  0  0  0  0  0  0  0  0999 V2000
   37.3702   31.0592   47.1452 N   0  0  0  0  0  0  0  0  0  0  0  0
   36.7835   30.7188   45.9667 C   0  0  0  0  0  0  0  0  0  0  0  0
   37.2503   31.1928   44.7455 C   0  0  0  0  0  0  0  0  0  0  0  0
   38.3599   32.0446   44.7638 C   0  0  0  0  0  0  0  0  0  0  0  0
   38.8166   32.4969   43.6921 O   0  0  0  0  0  0  0  0  0  0  0  0
   38.9487   32.3852   45.9591 N   0  0  0  0  0  0  0  0  0  0  0  0
   38.4096   31.8671   47.0562 C   0  0  0  0  0  0  0  0  0  0  0  0
   38.9776   32.2039   48.1210 O   0  0  0  0  0  0  0  0  0  0  0  0
   37.2426   29.4782   50.4983 C   0  0  0  0  0  0  0  0  0  0  0  0
   37.7249   29.9604   49.2761 C   0  0  0  0  0  0  0  0  0  0  0  0
   36.8943   30.5786   48.3610 C   0  0  0  0  0  0  0  0  0  0  0  0
   35.6032   30.6914   48.7064 N   0  0  0  0  0  0  0  0  0  0  0  0
   35.0949   30.2362   49.8840 C   0  0  0  0  0  0  0  0  0  0  0  0
   35.9451   29.6242   50.7773 N   0  0  0  0  0  0  0  0  0  0  0  0
   36.6551   30.8556   43.4614 C   0  0  0  0  0  0  0  0  0  0  0  0
   37.0063   29.7586   42.7287 C   0  0  0  0  0  0  0  0  0  0  0  0
   36.4573   29.4177   41.5101 C   0  0  0  0  0  0  0  0  0  0  0  0
   35.4648   30.2601   40.9847 C   0  0  0  0  0  0  0  0  0  0  0  0
   35.1373   31.3586   41.7550 C   0  0  0  0  0  0  0  0  0  0  0  0
   35.7163   31.6153   42.9219 N   0  0  0  0  0  0  0  0  0  0  0  0
   40.0913   33.2634   45.9659 C   0  0  0  0  0  0  0  0  0  0  0  0
   39.9598   34.2351   45.0343 F   0  0  0  0  0  0  0  0  0  0  0  0
   41.2823   32.6140   45.6895 F   0  0  0  0  0  0  0  0  0  0  0  0
   40.1691   33.8751   47.2229 F   0  0  0  0  0  0  0  0  0  0  0  0
   35.9254   30.0594   45.9582 H   0  0  0  0  0  0  0  0  0  0  0  0
   37.9579   29.0102   51.1521 H   0  0  0  0  0  0  0  0  0  0  0  0
   38.7798   29.8489   49.0342 H   0  0  0  0  0  0  0  0  0  0  0  0
   34.0355   30.3484   50.1265 H   0  0  0  0  0  0  0  0  0  0  0  0
   37.7715   29.0776   43.0974 H   0  0  0  0  0  0  0  0  0  0  0  0
   36.7719   28.5436   40.9784 H   0  0  0  0  0  0  0  0  0  0  0  0
   35.0356   30.0086   40.0493 H   0  0  0  0  0  0  0  0  0  0  0  0
   32.5812   31.3874   42.8653 O   0  0  0  0  0  0  0  0  0  0  0  0
   32.8458   32.3039   41.8299 C   0  0  0  0  0  0  0  0  0  0  0  0
   34.1155   32.2854   41.2825 C   0  0  0  0  0  0  0  0  0  0  0  0
   34.2840   33.2139   40.2778 C   0  0  0  0  0  0  0  0  0  0  0  0
   35.2448   33.2734   39.7901 H   0  0  0  0  0  0  0  0  0  0  0  0
   33.2872   34.0706   39.8643 C   0  0  0  0  0  0  0  0  0  0  0  0
   32.0442   34.0279   40.4611 C   0  0  0  0  0  0  0  0  0  0  0  0
   31.8005   33.1245   41.4742 C   0  0  0  0  0  0  0  0  0  0  0  0
   30.5704   33.0352   42.1118 O   0  0  0  0  0  0  0  0  0  0  0  0
   32.7490   31.7720   43.8076 H   0  0  0  0  0  0  0  0  0  0  0  0
   33.4474   34.7896   39.0731 H   0  0  0  0  0  0  0  0  0  0  0  0
   31.2645   34.7021   40.1336 H   0  0  0  0  0  0  0  0  0  0  0  0
   30.1511   33.9143   42.4225 H   0  0  0  0  0  0  0  0  0  0  0  0
  1 11  1  0
  2  1  1  0
  3  4  1  0
  3  2  2  0
  4  6  1  0
  5  4  2  0
  6 21  1  0
  6  7  1  0
  7  1  1  0
  7  8  2  0
  9 14  2  0
 10  9  1  0
 11 12  1  0
 11 10  2  0
 12 13  2  0
 13 14  1  0
 15  3  1  0
 16 15  2  0
 17 16  1  0
 18 17  2  0
 18 19  1  0
 19 20  2  0
 20 15  1  0
 21 24  1  0
 22 21  1  0
 23 21  1  0
  2 25  1  0
  9 26  1  0
 10 27  1  0
 13 28  1  0
 16 29  1  0
 17 30  1  0
 18 31  1  0
 32 33  1  0
 33 34  2  0
 34 35  1  0
 35 36  1  0
 35 37  2  0
 37 38  1  0
 38 39  2  0
 39 40  1  0
 39 33  1  0
 32 41  1  0
 37 42  1  0
 38 43  1  0
 40 44  1  0
 19 34  1  0
M  ISO  8  25  14  26  14  27  14  28  14  29  14  30  14  31  14  36  16
M  END
>  <DihAtoms>  (1) 
17,18,33,32

>  <DihDeg>  (1) 
179.99613317020206

$$$$
