
 OpenBabel03272505593D

 46 49  0  0  1  0  0  0  0  0999 V2000
   35.3870   30.4980   49.9190 C   0  0  2  0  0  0  0  0  0  0  0  0
   36.2930   31.3280   49.0930 C   0  0  0  0  0  0  0  0  0  0  0  0
   37.7500   30.8560   49.1490 C   0  0  2  0  0  0  0  0  0  0  0  0
   38.2990   30.7720   50.5030 C   0  0  0  0  0  0  0  0  0  0  0  0
   37.3090   30.2300   51.5270 C   0  0  0  0  0  0  0  0  0  0  0  0
   36.1250   29.5830   50.8720 C   0  0  0  0  0  0  0  0  0  0  0  0
   34.7190   31.1140   50.5870 H   0  0  0  0  0  0  0  0  0  0  0  0
   36.1270   31.4930   48.0570 H   0  0  0  0  0  0  0  0  0  0  0  0
   36.3290   32.3600   49.5770 H   0  0  0  0  0  0  0  0  0  0  0  0
   37.7630   29.9210   48.5860 H   0  0  0  0  0  0  0  0  0  0  0  0
   39.2430   30.1900   50.5000 H   0  0  0  0  0  0  0  0  0  0  0  0
   38.5760   31.7740   50.8760 H   0  0  0  0  0  0  0  0  0  0  0  0
   37.8370   29.4210   52.0730 H   0  0  0  0  0  0  0  0  0  0  0  0
   37.0230   30.9660   52.2910 H   0  0  0  0  0  0  0  0  0  0  0  0
   36.4560   28.7070   50.2880 H   0  0  0  0  0  0  0  0  0  0  0  0
   35.4370   29.2510   51.6510 H   0  0  0  0  0  0  0  0  0  0  0  0
   38.0230   30.2430   46.2770 Cl  0  0  0  0  0  0  0  0  0  0  0  0
   38.7090   31.6880   47.0020 C   0  0  0  0  0  0  0  0  0  0  0  0
   38.4910   31.8830   48.3610 C   0  0  0  0  0  0  0  0  0  0  0  0
   39.0490   33.0460   48.8260 C   0  0  0  0  0  0  0  0  0  0  0  0
   39.7500   33.9210   48.0220 C   0  0  0  0  0  0  0  0  0  0  0  0
   39.9250   33.6540   46.6700 C   0  0  0  0  0  0  0  0  0  0  0  0
   39.3790   32.4900   46.1480 C   0  0  0  0  0  0  0  0  0  0  0  0
   38.9250   33.2840   49.8730 H   0  0  0  0  0  0  0  0  0  0  0  0
   40.1600   34.8250   48.4830 H   0  0  0  0  0  0  0  0  0  0  0  0
   40.4800   34.3700   46.0880 H   0  0  0  0  0  0  0  0  0  0  0  0
   40.4270   31.3080   44.1240 C   0  0  0  0  0  0  0  0  0  0  0  0
   39.5560   32.1990   44.7270 C   0  0  0  0  0  0  0  0  0  0  0  0
   38.7060   32.9530   43.9150 C   0  0  0  0  0  0  0  0  0  0  0  0
   37.9800   33.6860   44.2990 H   0  0  0  0  0  0  0  0  0  0  0  0
   38.6880   32.8560   42.5530 C   0  0  0  0  0  3  0  0  0  0  0  0
   39.5800   31.9470   41.9810 C   0  0  0  0  0  3  0  0  0  0  0  0
   40.4370   31.1840   42.7580 C   0  0  0  0  0  0  0  0  0  0  0  0
   41.2150   30.6230   45.0410 O   0  0  0  0  0  0  0  0  0  0  0  0
   41.8720   29.9560   44.6150 H   0  0  0  0  0  0  0  0  0  0  0  0
   41.3390   30.2690   42.2400 O   0  0  0  0  0  0  0  0  0  0  0  0
   41.8590   30.4650   41.3920 H   0  0  0  0  0  0  0  0  0  0  0  0
   34.4830   29.6570   49.1180 C   0  0  0  0  0  0  0  0  0  0  0  0
   34.5050   29.9010   47.7450 C   0  0  0  0  0  0  0  0  0  0  0  0
   33.6750   29.1170   46.9320 C   0  0  0  0  0  0  0  0  0  0  0  0
   32.8780   28.1460   47.5260 N   0  0  0  0  0  0  0  0  0  0  0  0
   32.8910   27.9470   48.8560 C   0  0  0  0  0  0  0  0  0  0  0  0
   33.6890   28.7040   49.6140 N   0  0  0  0  0  0  0  0  0  0  0  0
   34.9810   30.5500   47.0320 H   0  0  0  0  0  0  0  0  0  0  0  0
   33.5020   29.0930   45.8800 H   0  0  0  0  0  0  0  0  0  0  0  0
   32.2760   27.1970   49.3270 H   0  0  0  0  0  0  0  0  0  0  0  0
  1  7  1  1  0  0  0
  1  6  1  0  0  0  0
  2  3  1  0  0  0  0
  2  9  1  0  0  0  0
  2  1  1  0  0  0  0
  3 10  1  6  0  0  0
  3  4  1  0  0  0  0
  4 12  1  0  0  0  0
  4  5  1  0  0  0  0
  5 13  1  0  0  0  0
  5 14  1  0  0  0  0
  6  5  1  0  0  0  0
  6 16  1  0  0  0  0
  8  2  1  0  0  0  0
 11  4  1  0  0  0  0
 15  6  1  0  0  0  0
 17 18  1  0  0  0  0
 18 19  1  0  0  0  0
 19 20  2  0  0  0  0
 19  3  1  0  0  0  0
 20 24  1  0  0  0  0
 21 25  1  0  0  0  0
 21 20  1  0  0  0  0
 22 21  2  0  0  0  0
 23 22  1  0  0  0  0
 23 18  2  0  0  0  0
 26 22  1  0  0  0  0
 27 28  1  0  0  0  0
 27 34  1  0  0  0  0
 28 23  1  0  0  0  0
 29 30  1  0  0  0  0
 29 28  2  0  0  0  0
 31 29  1  0  0  0  0
 32 31  2  0  0  0  0
 32 33  1  0  0  0  0
 33 27  2  0  0  0  0
 35 34  1  0  0  0  0
 36 33  1  0  0  0  0
 37 36  1  0  0  0  0
 38 43  1  0  0  0  0
 38  1  1  0  0  0  0
 39 38  2  0  0  0  0
 40 41  2  0  0  0  0
 40 39  1  0  0  0  0
 41 42  1  0  0  0  0
 42 46  1  0  0  0  0
 42 43  2  0  0  0  0
 44 39  1  0  0  0  0
 45 40  1  0  0  0  0
M  END
>  <minimizedAffinity>
-8.24870586

>  <minimizedRMSD>
1.04422021

$$$$
