
 OpenBabel03272505313D

 42 45  0  0  0  0  0  0  0  0999 V2000
   37.3770   31.1810   47.0780 N   0  0  0  0  0  0  0  0  0  0  0  0
   36.7090   30.9510   45.9170 C   0  0  0  0  0  0  0  0  0  0  0  0
   37.1380   31.4750   44.7020 C   0  0  0  0  0  0  0  0  0  0  0  0
   38.2970   32.2600   44.7090 C   0  0  0  0  0  0  0  0  0  0  0  0
   38.7230   32.7530   43.6430 O   0  0  0  0  0  0  0  0  0  0  0  0
   38.9680   32.4890   45.8880 N   0  0  0  0  0  0  0  0  0  0  0  0
   38.4580   31.9330   46.9800 C   0  0  0  0  0  0  0  0  0  0  0  0
   39.1000   32.1680   48.0290 O   0  0  0  0  0  0  0  0  0  0  0  0
   35.8130   30.3430   45.9170 H   0  0  0  0  0  0  0  0  0  0  0  0
   37.3630   29.5250   50.3970 C   0  0  0  0  0  0  0  0  0  0  0  0
   37.8080   30.0560   49.1810 C   0  0  0  0  0  0  0  0  0  0  0  0
   36.9380   30.6520   48.2880 C   0  0  0  0  0  0  0  0  0  0  0  0
   35.6470   30.6930   48.6470 N   0  0  0  0  0  0  0  0  0  0  0  0
   35.1740   30.1880   49.8200 C   0  0  0  0  0  0  0  0  0  0  0  0
   36.0620   29.6000   50.6910 N   0  0  0  0  0  0  0  0  0  0  0  0
   38.1070   29.0790   51.0340 H   0  0  0  0  0  0  0  0  0  0  0  0
   38.8650   30.0030   48.9270 H   0  0  0  0  0  0  0  0  0  0  0  0
   34.1120   30.2420   50.0750 H   0  0  0  0  0  0  0  0  0  0  0  0
   36.4570   31.2550   43.4350 C   0  0  0  0  0  0  0  0  0  0  0  0
   36.6890   30.1800   42.6280 C   0  0  0  0  0  0  0  0  0  0  0  0
   36.0560   29.9490   41.4230 C   0  0  0  0  0  0  0  0  0  0  0  0
   35.1040   30.8880   40.9980 C   0  0  0  0  0  0  0  0  0  0  0  0
   34.8970   31.9620   41.8430 C   0  0  0  0  0  0  0  0  0  0  0  0
   35.5510   32.1090   42.9890 N   0  0  0  0  0  0  0  0  0  0  0  0
   37.4200   29.4260   42.9170 H   0  0  0  0  0  0  0  0  0  0  0  0
   36.2790   29.0870   40.8290 H   0  0  0  0  0  0  0  0  0  0  0  0
   34.6120   30.7220   40.0750 H   0  0  0  0  0  0  0  0  0  0  0  0
   34.2600   34.3240   41.4420 C   0  0  0  0  0  0  0  0  0  0  0  0
   33.9240   32.9840   41.4760 C   0  0  0  0  0  0  0  0  0  0  0  0
   32.6100   32.7480   41.1350 C   0  0  0  0  0  0  0  0  0  0  0  0
   32.2560   31.7280   41.1330 H   0  0  0  0  0  0  0  0  0  0  0  0
   31.7250   33.7470   40.7950 C   0  0  0  0  0  3  0  0  0  0  0  0
   32.1360   35.0640   40.7840 C   0  0  0  0  0  3  0  0  0  0  0  0
   33.4390   35.3780   41.1150 C   0  0  0  0  0  0  0  0  0  0  0  0
   35.5860   34.6620   41.7780 O   0  0  0  0  0  0  0  0  0  0  0  0
   36.2150   34.7140   40.9620 H   0  0  0  0  0  0  0  0  0  0  0  0
   33.9100   36.6840   41.1230 O   0  0  0  0  0  0  0  0  0  0  0  0
   33.6900   37.2540   40.3020 H   0  0  0  0  0  0  0  0  0  0  0  0
   40.1600   33.2980   45.8830 C   0  0  0  0  0  0  0  0  0  0  0  0
   40.0870   34.2610   44.9360 F   0  0  0  0  0  0  0  0  0  0  0  0
   41.3110   32.5760   45.6190 F   0  0  0  0  0  0  0  0  0  0  0  0
   40.2720   33.9240   47.1310 F   0  0  0  0  0  0  0  0  0  0  0  0
  1 12  1  0  0  0  0
  2  9  1  0  0  0  0
  2  1  1  0  0  0  0
  3  4  1  0  0  0  0
  3  2  2  0  0  0  0
  4  6  1  0  0  0  0
  5  4  2  0  0  0  0
  6  7  1  0  0  0  0
  7  1  1  0  0  0  0
  7  8  2  0  0  0  0
 10 15  1  0  0  0  0
 10 16  1  0  0  0  0
 11 10  2  0  0  0  0
 12 13  2  0  0  0  0
 12 11  1  0  0  0  0
 13 14  1  0  0  0  0
 14 18  1  0  0  0  0
 14 15  2  0  0  0  0
 17 11  1  0  0  0  0
 19  3  1  0  0  0  0
 20 25  1  0  0  0  0
 20 19  2  0  0  0  0
 21 20  1  0  0  0  0
 22 21  2  0  0  0  0
 22 23  1  0  0  0  0
 23 24  2  0  0  0  0
 24 19  1  0  0  0  0
 26 21  1  0  0  0  0
 27 22  1  0  0  0  0
 28 29  1  0  0  0  0
 28 35  1  0  0  0  0
 29 23  1  0  0  0  0
 30 29  2  0  0  0  0
 31 30  1  0  0  0  0
 32 30  1  0  0  0  0
 33 32  2  0  0  0  0
 33 34  1  0  0  0  0
 34 37  1  0  0  0  0
 34 28  2  0  0  0  0
 36 35  1  0  0  0  0
 38 37  1  0  0  0  0
 39  6  1  0  0  0  0
 39 42  1  0  0  0  0
 40 39  1  0  0  0  0
 41 39  1  0  0  0  0
M  END
>  <minimizedAffinity>
-6.92580223

>  <minimizedRMSD>
0.919133902

$$$$
