
     RDKit          3D

 48 51  0  0  0  0  0  0  0  0999 V2000
   35.3283   30.3679   49.9668 C   0  0  2  0  0  0  0  0  0  0  0  0
   36.2523   31.3428   49.3421 C   0  0  0  0  0  0  0  0  0  0  0  0
   37.7161   30.8959   49.3969 C   0  0  2  0  0  0  0  0  0  0  0  0
   38.1990   30.5936   50.7448 C   0  0  0  0  0  0  0  0  0  0  0  0
   37.1744   29.8679   51.6092 C   0  0  0  0  0  0  0  0  0  0  0  0
   36.0429   29.3193   50.7905 C   0  0  0  0  0  0  0  0  0  0  0  0
   34.4889   29.6579   48.9884 C   0  0  0  0  0  0  0  0  0  0  0  0
   34.4453   30.2313   47.7169 C   0  0  0  0  0  0  0  0  0  0  0  0
   33.6735   29.5865   46.7405 C   0  0  0  0  0  0  0  0  0  0  0  0
   32.9962   28.4216   47.0812 N   0  0  0  0  0  0  0  0  0  0  0  0
   33.0687   27.9073   48.3223 C   0  0  0  0  0  0  0  0  0  0  0  0
   33.8097   28.5362   49.2389 N   0  0  0  0  0  0  0  0  0  0  0  0
   38.5580   30.5709   46.5891 Cl  0  0  0  0  0  0  0  0  0  0  0  0
   38.9416   32.0044   47.5285 C   0  0  0  0  0  0  0  0  0  0  0  0
   38.4672   32.0552   48.8336 C   0  0  0  0  0  0  0  0  0  0  0  0
   38.8033   33.2204   49.4750 C   0  0  0  0  0  0  0  0  0  0  0  0
   39.5348   34.2264   48.8792 C   0  0  0  0  0  0  0  0  0  0  0  0
   39.9738   34.0988   47.5671 C   0  0  0  0  0  0  0  0  0  0  0  0
   39.6599   32.9387   46.8722 C   0  0  0  0  0  0  0  0  0  0  0  0
   34.6114   30.8496   50.6919 H   0  0  0  0  0  0  0  0  0  0  0  0
   36.1328   31.6776   48.3414 H   0  0  0  0  0  0  0  0  0  0  0  0
   36.2349   32.2795   49.9940 H   0  0  0  0  0  0  0  0  0  0  0  0
   37.7828   30.0696   48.6857 H   0  0  0  0  0  0  0  0  0  0  0  0
   39.1565   30.0376   50.6956 H   0  0  0  0  0  0  0  0  0  0  0  0
   38.4291   31.5235   51.2964 H   0  0  0  0  0  0  0  0  0  0  0  0
   37.6959   28.9879   52.0395 H   0  0  0  0  0  0  0  0  0  0  0  0
   36.8304   30.4576   52.4695 H   0  0  0  0  0  0  0  0  0  0  0  0
   36.4264   28.5607   50.0872 H   0  0  0  0  0  0  0  0  0  0  0  0
   35.3256   28.8470   51.4652 H   0  0  0  0  0  0  0  0  0  0  0  0
   34.8320   31.0796   47.1828 H   0  0  0  0  0  0  0  0  0  0  0  0
   33.4717   29.8022   45.7158 H   0  0  0  0  0  0  0  0  0  0  0  0
   32.5470   27.0047   48.5969 H   0  0  0  0  0  0  0  0  0  0  0  0
   38.4708   33.3498   50.4959 H   0  0  0  0  0  0  0  0  0  0  0  0
   39.7549   35.1197   49.4703 H   0  0  0  0  0  0  0  0  0  0  0  0
   40.5409   34.9128   47.1499 H   0  0  0  0  0  0  0  0  0  0  0  0
   39.7268   30.5206   45.3785 O   0  0  0  0  0  0  0  0  0  0  0  0
   40.1749   31.6527   44.7100 C   0  0  0  0  0  0  0  0  0  0  0  0
   40.1164   32.7952   45.4925 C   0  0  0  0  0  0  0  0  0  0  0  0
   40.5394   34.0038   44.9370 C   0  0  0  0  0  0  0  0  0  0  0  0
   40.5314   34.9638   45.4771 H   0  0  0  0  0  0  0  0  0  0  0  0
   41.0091   34.1207   43.6600 C   0  0  0  0  0  0  0  0  0  0  0  0
   41.0534   32.9493   42.9028 C   0  0  0  0  0  0  0  0  0  0  0  0
   40.6411   31.7318   43.4230 C   0  0  0  0  0  0  0  0  0  0  0  0
   40.6654   30.5426   42.7129 O   0  0  0  0  0  0  0  0  0  0  0  0
   39.7627   29.6586   44.8176 H   0  0  0  0  0  0  0  0  0  0  0  0
   41.3398   35.0512   43.2182 H   0  0  0  0  0  0  0  0  0  0  0  0
   41.4174   32.9854   41.8837 H   0  0  0  0  0  0  0  0  0  0  0  0
   41.4340   30.3149   42.0932 H   0  0  0  0  0  0  0  0  0  0  0  0
  1  6  1  0
  2  3  1  0
  2  1  1  0
  3  4  1  0
  4  5  1  0
  6  5  1  0
  7 12  1  0
  7  1  1  0
  8  7  2  0
  9 10  2  0
  9  8  1  0
 10 11  1  0
 11 12  2  0
 13 14  1  0
 14 15  2  0
 15  3  1  0
 15 16  1  0
 17 16  2  0
 18 17  1  0
 19 14  1  0
 19 18  2  0
  1 20  1  1
  2 21  1  0
  2 22  1  0
  3 23  1  6
  4 24  1  0
  4 25  1  0
  5 26  1  0
  5 27  1  0
  6 28  1  0
  6 29  1  0
  8 30  1  0
  9 31  1  0
 11 32  1  0
 16 33  1  0
 17 34  1  0
 18 35  1  0
 36 37  1  0
 37 38  2  0
 38 39  1  0
 39 40  1  0
 39 41  2  0
 41 42  1  0
 42 43  2  0
 43 44  1  0
 43 37  1  0
 36 45  1  0
 41 46  1  0
 42 47  1  0
 44 48  1  0
 19 38  1  0
M  ISO  8  20  13  21  13  22  13  23  13  24  13  25  13  26  13  27  13
M  ISO  8  28  13  29  13  30  14  31  14  32  14  33  14  34  14  35  14
M  ISO  1  40  16
M  END
>  <DihAtoms>  (1) 
13,18,37,36

>  <DihDeg>  (1) 
-89.99858236002758

$$$$
