
 OpenBabel03272504573D

 35 37  0  0  1  0  0  0  0  0999 V2000
   37.0500   31.5670   48.6080 C   0  0  1  0  0  0  0  0  0  0  0  0
   36.3580   30.8430   47.5690 C   0  0  0  0  0  0  0  0  0  0  0  0
   37.3010   30.1260   48.4870 C   0  0  2  0  0  0  0  0  0  0  0  0
   36.5480   31.8690   49.5900 H   0  0  0  0  0  0  0  0  0  0  0  0
   36.7090   31.0180   46.5310 H   0  0  0  0  0  0  0  0  0  0  0  0
   35.3090   31.0530   47.6730 H   0  0  0  0  0  0  0  0  0  0  0  0
   38.0250   29.5840   47.8940 H   0  0  0  0  0  0  0  0  0  0  0  0
   38.2000   32.4790   48.2800 C   0  0  0  0  0  0  0  0  0  0  0  0
   38.5480   33.4090   49.2750 C   0  0  0  0  0  0  0  0  0  0  0  0
   39.6010   34.2330   48.9520 C   0  0  0  0  0  0  0  0  0  0  0  0
   40.2230   34.1180   47.7570 N   0  0  0  0  0  0  0  0  0  0  0  0
   39.8570   33.2060   46.8250 C   0  0  0  0  0  0  0  0  0  0  0  0
   38.8100   32.3670   47.1080 N   0  0  0  0  0  0  0  0  0  0  0  0
   40.5030   33.0530   45.5950 N   0  0  0  0  0  0  0  0  0  0  0  0
   38.0630   33.5130   50.2330 H   0  0  0  0  0  0  0  0  0  0  0  0
   39.9060   34.9710   49.6960 H   0  0  0  0  0  0  0  0  0  0  0  0
   41.5470   33.2400   45.6610 H   0  0  0  0  0  0  0  0  0  0  0  0
   40.0280   32.7910   44.7290 H   0  0  0  0  0  0  0  0  0  0  0  0
   36.6810   29.3380   49.4660 O   0  0  0  0  0  0  0  0  0  0  0  0
   34.5670   27.9230   49.8730 O   0  0  0  0  0  0  0  0  0  0  0  0
   35.0680   29.1130   49.1190 P   0  0  1  0  0  0  0  0  0  0  0  0
   34.1550   30.4510   49.7090 O   0  0  0  0  0  0  0  0  0  0  0  0
   33.4890   30.7560   49.0740 H   0  0  0  0  0  0  0  0  0  0  0  0
   34.8930   28.9750   47.4470 O   0  0  0  0  0  0  0  0  0  0  0  0
   32.7320   29.6650   46.5190 C   0  0  0  0  0  0  0  0  0  0  0  0
   33.6600   28.6810   46.8360 C   0  0  0  0  0  0  0  0  0  0  0  0
   33.3280   27.3720   46.5250 C   0  0  0  0  0  0  0  0  0  0  0  0
   34.0020   26.5410   46.7410 H   0  0  0  0  0  0  0  0  0  0  0  0
   32.1460   26.9850   45.9270 C   0  0  0  0  0  3  0  0  0  0  0  0
   31.2340   27.9900   45.6200 C   0  0  0  0  0  3  0  0  0  0  0  0
   31.5330   29.3130   45.9170 C   0  0  0  0  0  0  0  0  0  0  0  0
   33.0170   30.9930   46.8110 O   0  0  0  0  0  0  0  0  0  0  0  0
   33.5850   31.3310   47.5520 H   0  0  0  0  0  0  0  0  0  0  0  0
   30.5980   30.2750   45.5960 O   0  0  0  0  0  0  0  0  0  0  0  0
   29.8500   30.0880   44.9470 H   0  0  0  0  0  0  0  0  0  0  0  0
  1  4  1  1  0  0  0
  2  6  1  0  0  0  0
  2  3  1  0  0  0  0
  2  1  1  0  0  0  0
  3  7  1  6  0  0  0
  3  1  1  0  0  0  0
  3 19  1  0  0  0  0
  5  2  1  0  0  0  0
  8  1  1  0  0  0  0
  8  9  1  0  0  0  0
  9 15  1  0  0  0  0
 10  9  2  0  0  0  0
 10 16  1  0  0  0  0
 11 10  1  0  0  0  0
 12 13  1  0  0  0  0
 12 11  2  0  0  0  0
 13  8  2  0  0  0  0
 14 17  1  0  0  0  0
 14 12  1  0  0  0  0
 18 14  1  0  0  0  0
 21 19  1  0  0  0  0
 21 22  1  0  0  0  0
 21 20  2  1  0  0  0
 23 22  1  0  0  0  0
 24 21  1  0  0  0  0
 25 32  1  0  0  0  0
 25 26  1  0  0  0  0
 26 24  1  0  0  0  0
 27 28  1  0  0  0  0
 27 26  2  0  0  0  0
 29 27  1  0  0  0  0
 30 31  1  0  0  0  0
 30 29  2  0  0  0  0
 31 25  2  0  0  0  0
 32 33  1  0  0  0  0
 34 31  1  0  0  0  0
 35 34  1  0  0  0  0
M  END
>  <minimizedAffinity>
-5.48291636

>  <minimizedRMSD>
0.293161184

$$$$
