
 OpenBabel03272505593D

 46 49  0  0  1  0  0  0  0  0999 V2000
   34.9190   30.0030   50.0090 C   0  0  2  0  0  0  0  0  0  0  0  0
   35.8560   30.8890   49.2800 C   0  0  0  0  0  0  0  0  0  0  0  0
   37.3210   30.4730   49.4450 C   0  0  2  0  0  0  0  0  0  0  0  0
   37.7610   30.3740   50.8370 C   0  0  0  0  0  0  0  0  0  0  0  0
   36.7130   29.7670   51.7640 C   0  0  0  0  0  0  0  0  0  0  0  0
   35.6140   29.0920   50.9980 C   0  0  0  0  0  0  0  0  0  0  0  0
   34.1750   30.5750   50.6340 H   0  0  0  0  0  0  0  0  0  0  0  0
   35.7680   31.0750   48.2380 H   0  0  0  0  0  0  0  0  0  0  0  0
   35.8100   31.9090   49.7890 H   0  0  0  0  0  0  0  0  0  0  0  0
   37.4180   29.5540   48.8630 H   0  0  0  0  0  0  0  0  0  0  0  0
   38.7240   29.8280   50.9000 H   0  0  0  0  0  0  0  0  0  0  0  0
   37.9650   31.3750   51.2560 H   0  0  0  0  0  0  0  0  0  0  0  0
   37.2280   28.9640   52.3330 H   0  0  0  0  0  0  0  0  0  0  0  0
   36.3360   30.4700   52.5190 H   0  0  0  0  0  0  0  0  0  0  0  0
   36.0260   28.2450   50.4230 H   0  0  0  0  0  0  0  0  0  0  0  0
   34.8790   28.7130   51.7100 H   0  0  0  0  0  0  0  0  0  0  0  0
   37.6890   30.0360   46.5520 Cl  0  0  0  0  0  0  0  0  0  0  0  0
   38.3440   31.4370   47.3850 C   0  0  0  0  0  0  0  0  0  0  0  0
   38.0810   31.5480   48.7450 C   0  0  0  0  0  0  0  0  0  0  0  0
   38.6180   32.6830   49.2980 C   0  0  0  0  0  0  0  0  0  0  0  0
   39.3400   33.6070   48.5720 C   0  0  0  0  0  0  0  0  0  0  0  0
   39.5600   33.4230   47.2120 C   0  0  0  0  0  0  0  0  0  0  0  0
   39.0360   32.2910   46.6030 C   0  0  0  0  0  0  0  0  0  0  0  0
   38.4600   32.8550   50.3530 H   0  0  0  0  0  0  0  0  0  0  0  0
   39.7310   34.4820   49.0990 H   0  0  0  0  0  0  0  0  0  0  0  0
   40.1290   34.1750   46.6930 H   0  0  0  0  0  0  0  0  0  0  0  0
   38.4490   32.4390   44.1080 C   0  0  0  0  0  0  0  0  0  0  0  0
   39.2600   32.0880   45.1740 C   0  0  0  0  0  0  0  0  0  0  0  0
   40.4720   31.4490   44.9050 C   0  0  0  0  0  0  0  0  0  0  0  0
   41.1840   31.1310   45.6840 H   0  0  0  0  0  0  0  0  0  0  0  0
   40.9010   31.1510   43.6440 C   0  0  0  0  0  3  0  0  0  0  0  0
   40.0570   31.5200   42.5960 C   0  0  0  0  0  3  0  0  0  0  0  0
   38.8460   32.1570   42.8260 C   0  0  0  0  0  0  0  0  0  0  0  0
   37.2760   33.0670   44.5090 O   0  0  0  0  0  0  0  0  0  0  0  0
   36.6550   33.3360   43.7340 H   0  0  0  0  0  0  0  0  0  0  0  0
   37.9740   32.5430   41.8220 O   0  0  0  0  0  0  0  0  0  0  0  0
   37.8100   31.9550   41.0120 H   0  0  0  0  0  0  0  0  0  0  0  0
   34.1190   29.1490   49.1170 C   0  0  0  0  0  0  0  0  0  0  0  0
   34.5540   29.1010   47.7920 C   0  0  0  0  0  0  0  0  0  0  0  0
   33.8370   28.2900   46.9010 C   0  0  0  0  0  0  0  0  0  0  0  0
   32.7390   27.5810   47.3750 N   0  0  0  0  0  0  0  0  0  0  0  0
   32.3570   27.6600   48.6630 C   0  0  0  0  0  0  0  0  0  0  0  0
   33.0540   28.4380   49.4960 N   0  0  0  0  0  0  0  0  0  0  0  0
   35.3190   29.5170   47.1620 H   0  0  0  0  0  0  0  0  0  0  0  0
   33.9510   28.0750   45.8640 H   0  0  0  0  0  0  0  0  0  0  0  0
   31.5070   27.1150   49.0400 H   0  0  0  0  0  0  0  0  0  0  0  0
  1  7  1  1  0  0  0
  1  6  1  0  0  0  0
  2  3  1  0  0  0  0
  2  9  1  0  0  0  0
  2  1  1  0  0  0  0
  3 10  1  6  0  0  0
  3  4  1  0  0  0  0
  4 11  1  0  0  0  0
  4 12  1  0  0  0  0
  4  5  1  0  0  0  0
  5 13  1  0  0  0  0
  5 14  1  0  0  0  0
  6 16  1  0  0  0  0
  6  5  1  0  0  0  0
  8  2  1  0  0  0  0
 15  6  1  0  0  0  0
 17 18  1  0  0  0  0
 18 19  1  0  0  0  0
 19 20  2  0  0  0  0
 19  3  1  0  0  0  0
 20 24  1  0  0  0  0
 21 25  1  0  0  0  0
 21 20  1  0  0  0  0
 22 21  2  0  0  0  0
 23 22  1  0  0  0  0
 23 18  2  0  0  0  0
 26 22  1  0  0  0  0
 27 34  1  0  0  0  0
 27 28  1  0  0  0  0
 28 23  1  0  0  0  0
 29 28  2  0  0  0  0
 29 30  1  0  0  0  0
 31 29  1  0  0  0  0
 32 33  1  0  0  0  0
 32 31  2  0  0  0  0
 33 27  2  0  0  0  0
 35 34  1  0  0  0  0
 36 33  1  0  0  0  0
 37 36  1  0  0  0  0
 38 43  1  0  0  0  0
 38  1  1  0  0  0  0
 39 38  2  0  0  0  0
 40 41  2  0  0  0  0
 40 39  1  0  0  0  0
 41 42  1  0  0  0  0
 42 46  1  0  0  0  0
 42 43  2  0  0  0  0
 44 39  1  0  0  0  0
 45 40  1  0  0  0  0
M  END
>  <minimizedAffinity>
-7.8353672

>  <minimizedRMSD>
1.20349848

$$$$
