
 OpenBabel03272506473D

 44 47  0  0  1  0  0  0  0  0999 V2000
   32.1300   28.4210   47.4030 C   0  0  2  0  0  0  0  0  0  0  0  0
   33.3520   28.3420   48.2730 C   0  0  1  0  0  0  0  0  0  0  0  0
   33.8010   27.0570   48.2530 O   0  0  0  0  0  0  0  0  0  0  0  0
   33.1490   26.3530   47.2460 C   0  0  0  0  0  0  0  0  0  0  0  0
   32.5390   27.3760   46.3210 C   0  0  1  0  0  0  0  0  0  0  0  0
   31.2050   28.0800   47.8540 H   0  0  0  0  0  0  0  0  0  0  0  0
   33.1630   28.7400   49.2990 H   0  0  0  0  0  0  0  0  0  0  0  0
   32.4340   25.7050   47.7620 H   0  0  0  0  0  0  0  0  0  0  0  0
   33.8550   25.6780   46.7020 H   0  0  0  0  0  0  0  0  0  0  0  0
   33.2920   27.8350   45.6860 H   0  0  0  0  0  0  0  0  0  0  0  0
   32.0340   29.6920   46.8010 O   0  0  0  0  0  0  0  0  0  0  0  0
   32.1290   30.3390   47.5420 H   0  0  0  0  0  0  0  0  0  0  0  0
   34.6460   29.3990   47.5090 S   0  0  0  0  0  0  0  0  0  0  0  0
   37.1120   29.2730   50.6080 C   0  0  0  0  0  0  0  0  0  0  0  0
   37.5800   30.5780   50.7540 C   0  0  0  0  0  0  0  0  0  0  0  0
   37.1180   31.5380   49.8600 C   0  0  0  0  0  0  0  0  0  0  0  0
   36.2320   31.1600   48.8890 N   0  0  0  0  0  0  0  0  0  0  0  0
   35.8060   29.8810   48.7880 C   0  0  0  0  0  0  0  0  0  0  0  0
   36.2370   28.9230   49.6410 N   0  0  0  0  0  0  0  0  0  0  0  0
   37.4610   28.5140   51.2940 H   0  0  0  0  0  0  0  0  0  0  0  0
   38.2810   30.8300   51.5380 H   0  0  0  0  0  0  0  0  0  0  0  0
   37.4580   32.5560   49.9410 H   0  0  0  0  0  0  0  0  0  0  0  0
   31.4370   26.8310   45.7110 O   0  0  0  0  0  0  0  0  0  0  0  0
   30.0220   28.6420   43.8690 Cl  0  0  0  0  0  0  0  0  0  0  0  0
   29.4110   27.8480   45.3020 C   0  0  0  0  0  0  0  0  0  0  0  0
   30.1700   27.0090   46.0830 C   0  0  0  0  0  0  0  0  0  0  0  0
   29.5600   26.4140   47.1880 C   0  0  0  0  0  0  0  0  0  0  0  0
   28.2410   26.6630   47.4860 C   0  0  0  0  0  0  0  0  0  0  0  0
   27.4690   27.5050   46.7070 C   0  0  0  0  0  0  0  0  0  0  0  0
   28.0600   28.1010   45.6080 C   0  0  0  0  0  0  0  0  0  0  0  0
   30.0550   25.7380   47.8620 H   0  0  0  0  0  0  0  0  0  0  0  0
   27.6990   26.2430   48.3200 H   0  0  0  0  0  0  0  0  0  0  0  0
   26.4210   27.7200   46.9210 H   0  0  0  0  0  0  0  0  0  0  0  0
   27.3160   30.3040   45.2500 C   0  0  0  0  0  0  0  0  0  0  0  0
   27.2650   28.9970   44.7700 C   0  0  0  0  0  0  0  0  0  0  0  0
   26.5280   28.7070   43.6440 C   0  0  0  0  0  0  0  0  0  0  0  0
   26.5640   27.6650   43.3670 H   0  0  0  0  0  0  0  0  0  0  0  0
   25.8480   29.7270   43.0060 C   0  0  0  0  0  3  0  0  0  0  0  0
   25.8820   31.0240   43.4600 C   0  0  0  0  0  3  0  0  0  0  0  0
   26.6280   31.3210   44.6020 C   0  0  0  0  0  0  0  0  0  0  0  0
   28.0100   30.7480   46.3640 O   0  0  0  0  0  0  0  0  0  0  0  0
   27.7800   30.5650   47.3150 H   0  0  0  0  0  0  0  0  0  0  0  0
   26.6240   32.6480   45.0090 O   0  0  0  0  0  0  0  0  0  0  0  0
   26.7870   32.8140   46.0140 H   0  0  0  0  0  0  0  0  0  0  0  0
  1  6  1  1  0  0  0
  1  2  1  0  0  0  0
  2  7  1  1  0  0  0
  3  2  1  0  0  0  0
  4  8  1  0  0  0  0
  4  3  1  0  0  0  0
  5 10  1  6  0  0  0
  5  4  1  0  0  0  0
  5  1  1  0  0  0  0
  9  4  1  0  0  0  0
 11  1  1  0  0  0  0
 11 12  1  0  0  0  0
 13  2  1  0  0  0  0
 13 18  1  0  0  0  0
 14 15  1  0  0  0  0
 14 20  1  0  0  0  0
 15 21  1  0  0  0  0
 16 22  1  0  0  0  0
 16 15  2  0  0  0  0
 17 16  1  0  0  0  0
 18 17  2  0  0  0  0
 18 19  1  0  0  0  0
 19 14  2  0  0  0  0
 23 26  1  0  0  0  0
 23  5  1  0  0  0  0
 24 25  1  0  0  0  0
 25 30  2  0  0  0  0
 25 26  1  0  0  0  0
 26 27  2  0  0  0  0
 27 28  1  0  0  0  0
 27 31  1  0  0  0  0
 28 32  1  0  0  0  0
 29 33  1  0  0  0  0
 29 28  2  0  0  0  0
 30 29  1  0  0  0  0
 34 41  1  0  0  0  0
 35 34  1  0  0  0  0
 35 30  1  0  0  0  0
 36 35  2  0  0  0  0
 37 36  1  0  0  0  0
 38 39  2  0  0  0  0
 38 36  1  0  0  0  0
 39 40  1  0  0  0  0
 40 43  1  0  0  0  0
 40 34  2  0  0  0  0
 41 42  1  0  0  0  0
 43 44  1  0  0  0  0
M  END
>  <minimizedAffinity>
-5.56996202

>  <minimizedRMSD>
0.538666964

$$$$
