
 OpenBabel03262521033D

 20 21  0  0  0  0  0  0  0  0999 V2000
   37.5050   31.9240   48.8980 C   0  0  0  0  0  0  0  0  0  0  0  0
   37.1080   30.8780   48.0890 C   0  0  0  0  0  0  0  0  0  0  0  0
   37.8930   30.7000   46.9500 C   0  0  0  0  0  0  0  0  0  0  0  0
   37.5940   29.8740   46.2980 H   0  0  0  0  0  0  0  0  0  0  0  0
   38.9870   31.5260   46.6730 C   0  0  0  0  0  3  0  0  0  0  0  0
   39.3090   32.5560   47.5510 C   0  0  0  0  0  3  0  0  0  0  0  0
   38.5510   32.7590   48.6870 C   0  0  0  0  0  0  0  0  0  0  0  0
   36.0780   29.0580   49.3780 C   0  0  0  0  0  0  0  0  0  0  0  0
   35.9890   30.0280   48.3680 C   0  0  0  0  0  0  0  0  0  0  0  0
   34.7850   30.1230   47.6610 C   0  0  0  0  0  0  0  0  0  0  0  0
   33.7720   29.2700   47.9970 N   0  0  0  0  0  0  0  0  0  0  0  0
   33.9020   28.3490   48.9810 C   0  0  0  0  0  0  0  0  0  0  0  0
   35.0570   28.2420   49.6740 N   0  0  0  0  0  0  0  0  0  0  0  0
   36.9760   28.9460   49.9460 H   0  0  0  0  0  0  0  0  0  0  0  0
   34.6710   30.8570   46.8740 H   0  0  0  0  0  0  0  0  0  0  0  0
   33.0020   27.7690   49.1020 H   0  0  0  0  0  0  0  0  0  0  0  0
   36.7710   32.1810   50.0720 O   0  0  0  0  0  0  0  0  0  0  0  0
   37.1950   31.9410   50.9800 H   0  0  0  0  0  0  0  0  0  0  0  0
   38.8990   33.7950   49.5400 O   0  0  0  0  0  0  0  0  0  0  0  0
   38.1600   34.4850   49.7380 H   0  0  0  0  0  0  0  0  0  0  0  0
  1 17  1  0  0  0  0
  2  9  1  0  0  0  0
  2  1  2  0  0  0  0
  3  2  1  0  0  0  0
  4  3  1  0  0  0  0
  5  3  2  0  0  0  0
  5  6  1  0  0  0  0
  6  7  2  0  0  0  0
  7  1  1  0  0  0  0
  7 19  1  0  0  0  0
  8 13  1  0  0  0  0
  8 14  1  0  0  0  0
  9  8  2  0  0  0  0
 10 11  2  0  0  0  0
 10  9  1  0  0  0  0
 11 12  1  0  0  0  0
 12 16  1  0  0  0  0
 12 13  2  0  0  0  0
 15 10  1  0  0  0  0
 17 18  1  0  0  0  0
 19 20  1  0  0  0  0
M  END
>  <minimizedAffinity>
-5.26084042

>  <minimizedRMSD>
3.59800506

$$$$
