
     RDKit          3D

 48 51  0  0  0  0  0  0  0  0999 V2000
   37.2323   29.2321   50.5772 C   0  0  0  0  0  0  0  0  0  0  0  0
   37.3992   30.6005   50.8980 C   0  0  0  0  0  0  0  0  0  0  0  0
   36.6848   31.5180   50.1379 C   0  0  0  0  0  0  0  0  0  0  0  0
   35.8788   31.0529   49.1444 N   0  0  0  0  0  0  0  0  0  0  0  0
   35.7510   29.7574   48.8763 C   0  0  0  0  0  0  0  0  0  0  0  0
   36.4258   28.8461   49.5903 N   0  0  0  0  0  0  0  0  0  0  0  0
   34.8951   29.3341   47.8286 N   0  0  0  0  0  0  0  0  0  0  0  0
   34.2443   28.0372   47.8547 C   0  0  0  0  0  0  0  0  0  0  0  0
   32.7707   28.1914   47.6584 C   0  0  0  0  0  0  0  0  0  0  0  0
   32.3363   29.4191   47.2042 N   0  0  0  0  0  0  0  0  0  0  0  0
   33.1998   30.2921   46.4522 C   0  0  0  0  0  0  0  0  0  0  0  0
   34.6275   30.1780   46.6806 C   0  0  2  0  0  0  0  0  0  0  0  0
   35.3797   29.6215   45.5638 N   0  0  0  0  0  0  0  0  0  0  0  0
   36.5634   30.4372   45.2730 C   0  0  0  0  0  0  0  0  0  0  0  0
   36.7428   30.4338   43.7661 C   0  0  0  0  0  0  0  0  0  0  0  0
   35.7470   29.4347   43.3151 C   0  0  0  0  0  0  0  0  0  0  0  0
   34.6294   29.5439   44.3703 C   0  0  1  0  0  0  0  0  0  0  0  0
   37.7367   28.4082   51.0980 H   0  0  0  0  0  0  0  0  0  0  0  0
   38.0606   30.8332   51.6996 H   0  0  0  0  0  0  0  0  0  0  0  0
   36.7985   32.5603   50.3665 H   0  0  0  0  0  0  0  0  0  0  0  0
   34.7409   27.2596   47.2854 H   0  0  0  0  0  0  0  0  0  0  0  0
   34.3603   27.6795   48.9354 H   0  0  0  0  0  0  0  0  0  0  0  0
   32.1730   27.8910   48.5434 H   0  0  0  0  0  0  0  0  0  0  0  0
   32.4921   27.4134   46.8859 H   0  0  0  0  0  0  0  0  0  0  0  0
   31.4671   29.8342   47.5489 H   0  0  0  0  0  0  0  0  0  0  0  0
   32.9012   31.3166   46.8687 H   0  0  0  0  0  0  0  0  0  0  0  0
   32.7649   30.3353   45.4684 H   0  0  0  0  0  0  0  0  0  0  0  0
   35.1201   31.1750   46.8936 H   0  0  0  0  0  0  0  0  0  0  0  0
   36.3284   31.4684   45.6087 H   0  0  0  0  0  0  0  0  0  0  0  0
   37.4503   30.0587   45.7969 H   0  0  0  0  0  0  0  0  0  0  0  0
   37.7928   30.2039   43.4973 H   0  0  0  0  0  0  0  0  0  0  0  0
   36.5214   31.4359   43.3344 H   0  0  0  0  0  0  0  0  0  0  0  0
   35.3371   29.6146   42.3023 H   0  0  0  0  0  0  0  0  0  0  0  0
   36.1786   28.4123   43.4159 H   0  0  0  0  0  0  0  0  0  0  0  0
   34.1655   30.4819   44.0227 H   0  0  0  0  0  0  0  0  0  0  0  0
   35.6392   27.3045   42.8403 O   0  0  0  0  0  0  0  0  0  0  0  0
   34.3628   27.2637   43.3748 C   0  0  0  0  0  0  0  0  0  0  0  0
   33.8576   28.3348   44.1027 C   0  0  0  0  0  0  0  0  0  0  0  0
   32.5781   28.1055   44.5508 C   0  0  0  0  0  0  0  0  0  0  0  0
   32.0759   28.8561   45.1422 H   0  0  0  0  0  0  0  0  0  0  0  0
   31.8401   26.9640   44.3294 C   0  0  0  0  0  0  0  0  0  0  0  0
   32.4012   25.9383   43.5980 C   0  0  0  0  0  0  0  0  0  0  0  0
   33.6833   26.0937   43.1145 C   0  0  0  0  0  0  0  0  0  0  0  0
   34.2053   25.0521   42.3928 O   0  0  0  0  0  0  0  0  0  0  0  0
   35.7516   27.5077   41.8713 H   0  0  0  0  0  0  0  0  0  0  0  0
   30.8433   26.8431   44.7054 H   0  0  0  0  0  0  0  0  0  0  0  0
   31.8223   25.0508   43.4279 H   0  0  0  0  0  0  0  0  0  0  0  0
   33.7077   24.7786   41.5529 H   0  0  0  0  0  0  0  0  0  0  0  0
  1  2  2  0
  3  2  1  0
  4  3  2  0
  5  4  1  0
  5  6  2  0
  6  1  1  0
  7  8  1  0
  7  5  1  0
  9  8  1  0
 10  9  1  0
 11 12  1  0
 11 10  1  0
 12  7  1  0
 13 14  1  0
 13 12  1  0
 15 14  1  0
 16 15  1  0
 16 17  1  0
 17 13  1  0
  1 18  1  0
  2 19  1  0
  3 20  1  0
  8 21  1  0
  8 22  1  0
  9 23  1  0
  9 24  1  0
 10 25  1  0
 11 26  1  0
 11 27  1  0
 12 28  1  1
 14 29  1  0
 14 30  1  0
 15 31  1  0
 15 32  1  0
 16 33  1  0
 16 34  1  0
 17 35  1  6
 36 37  1  0
 37 38  2  0
 38 39  1  0
 39 40  1  0
 39 41  2  0
 41 42  1  0
 42 43  2  0
 43 44  1  0
 43 37  1  0
 36 45  1  0
 41 46  1  0
 42 47  1  0
 44 48  1  0
 17 38  1  0
M  ISO  8  18  14  19  14  20  14  21  13  22  13  23  13  24  13  25   5
M  ISO  8  26  13  27  13  28  13  29  13  30  13  31  13  32  13  33  13
M  ISO  3  34  13  35  13  40  16
M  END
>  <DihAtoms>  (1) 
15,16,37,36

>  <DihDeg>  (1) 
-102.4168503295867

$$$$
