
 OpenBabel03272505313D

 42 45  0  0  0  0  0  0  0  0999 V2000
   37.3940   31.2410   47.0480 N   0  0  0  0  0  0  0  0  0  0  0  0
   36.6840   31.0560   45.9040 C   0  0  0  0  0  0  0  0  0  0  0  0
   37.0880   31.5970   44.6870 C   0  0  0  0  0  0  0  0  0  0  0  0
   38.2670   32.3500   44.6750 C   0  0  0  0  0  0  0  0  0  0  0  0
   38.6720   32.8570   43.6070 O   0  0  0  0  0  0  0  0  0  0  0  0
   38.9810   32.5340   45.8360 N   0  0  0  0  0  0  0  0  0  0  0  0
   38.4910   31.9660   46.9310 C   0  0  0  0  0  0  0  0  0  0  0  0
   39.1730   32.1600   47.9650 O   0  0  0  0  0  0  0  0  0  0  0  0
   35.7730   30.4720   45.9190 H   0  0  0  0  0  0  0  0  0  0  0  0
   37.4510   29.5580   50.3530 C   0  0  0  0  0  0  0  0  0  0  0  0
   37.8710   30.1060   49.1360 C   0  0  0  0  0  0  0  0  0  0  0  0
   36.9800   30.6950   48.2590 C   0  0  0  0  0  0  0  0  0  0  0  0
   35.6930   30.7120   48.6360 N   0  0  0  0  0  0  0  0  0  0  0  0
   35.2440   30.1900   49.8100 C   0  0  0  0  0  0  0  0  0  0  0  0
   36.1540   29.6100   50.6650 N   0  0  0  0  0  0  0  0  0  0  0  0
   38.2110   29.1190   50.9760 H   0  0  0  0  0  0  0  0  0  0  0  0
   38.9250   30.0720   48.8670 H   0  0  0  0  0  0  0  0  0  0  0  0
   34.1850   30.2250   50.0800 H   0  0  0  0  0  0  0  0  0  0  0  0
   36.3610   31.4250   43.4390 C   0  0  0  0  0  0  0  0  0  0  0  0
   36.5100   30.3440   42.6200 C   0  0  0  0  0  0  0  0  0  0  0  0
   35.8330   30.1580   41.4320 C   0  0  0  0  0  0  0  0  0  0  0  0
   34.9240   31.1520   41.0390 C   0  0  0  0  0  0  0  0  0  0  0  0
   34.8010   32.2290   41.8950 C   0  0  0  0  0  0  0  0  0  0  0  0
   35.4930   32.3310   43.0230 N   0  0  0  0  0  0  0  0  0  0  0  0
   37.2050   29.5480   42.8840 H   0  0  0  0  0  0  0  0  0  0  0  0
   35.9900   29.2890   40.8270 H   0  0  0  0  0  0  0  0  0  0  0  0
   34.3980   31.0210   40.1280 H   0  0  0  0  0  0  0  0  0  0  0  0
   32.9370   33.7620   42.4660 C   0  0  0  0  0  0  0  0  0  0  0  0
   33.8770   33.3070   41.5600 C   0  0  0  0  0  0  0  0  0  0  0  0
   33.8340   33.9740   40.3550 C   0  0  0  0  0  0  0  0  0  0  0  0
   34.5320   33.6880   39.5840 H   0  0  0  0  0  0  0  0  0  0  0  0
   32.9420   34.9890   40.0840 C   0  0  0  0  0  3  0  0  0  0  0  0
   32.0310   35.3870   41.0420 C   0  0  0  0  0  3  0  0  0  0  0  0
   32.0160   34.7650   42.2730 C   0  0  0  0  0  0  0  0  0  0  0  0
   32.9080   33.1370   43.7270 O   0  0  0  0  0  0  0  0  0  0  0  0
   33.4900   33.6130   44.4350 H   0  0  0  0  0  0  0  0  0  0  0  0
   31.1250   35.1220   43.2750 O   0  0  0  0  0  0  0  0  0  0  0  0
   31.0320   36.1210   43.4720 H   0  0  0  0  0  0  0  0  0  0  0  0
   40.1940   33.3110   45.8110 C   0  0  0  0  0  0  0  0  0  0  0  0
   40.1520   34.2420   44.8300 F   0  0  0  0  0  0  0  0  0  0  0  0
   41.3270   32.5510   45.5810 F   0  0  0  0  0  0  0  0  0  0  0  0
   40.3150   33.9780   47.0370 F   0  0  0  0  0  0  0  0  0  0  0  0
  1 12  1  0  0  0  0
  2  9  1  0  0  0  0
  2  1  1  0  0  0  0
  3  2  2  0  0  0  0
  4  3  1  0  0  0  0
  4  6  1  0  0  0  0
  5  4  2  0  0  0  0
  6  7  1  0  0  0  0
  7  1  1  0  0  0  0
  7  8  2  0  0  0  0
 10 15  1  0  0  0  0
 10 16  1  0  0  0  0
 11 10  2  0  0  0  0
 12 13  2  0  0  0  0
 12 11  1  0  0  0  0
 13 14  1  0  0  0  0
 14 18  1  0  0  0  0
 14 15  2  0  0  0  0
 17 11  1  0  0  0  0
 19  3  1  0  0  0  0
 20 25  1  0  0  0  0
 20 19  2  0  0  0  0
 21 20  1  0  0  0  0
 22 21  2  0  0  0  0
 22 23  1  0  0  0  0
 23 24  2  0  0  0  0
 24 19  1  0  0  0  0
 26 21  1  0  0  0  0
 27 22  1  0  0  0  0
 28 35  1  0  0  0  0
 29 23  1  0  0  0  0
 29 28  2  0  0  0  0
 30 29  1  0  0  0  0
 31 30  1  0  0  0  0
 32 30  2  0  0  0  0
 32 33  1  0  0  0  0
 33 34  2  0  0  0  0
 34 28  1  0  0  0  0
 34 37  1  0  0  0  0
 35 36  1  0  0  0  0
 37 38  1  0  0  0  0
 39  6  1  0  0  0  0
 39 42  1  0  0  0  0
 40 39  1  0  0  0  0
 41 39  1  0  0  0  0
M  END
>  <minimizedAffinity>
-7.27451229

>  <minimizedRMSD>
1.04184783

$$$$
