
 OpenBabel03272507343D

 38 41  0  0  1  0  0  0  0  0999 V2000
   33.0960   27.3880   48.1300 C   0  0  0  0  0  0  0  0  0  0  0  0
   31.9020   27.7940   47.9210 O   0  0  0  0  0  0  0  0  0  0  0  0
   35.7870   29.0950   49.7540 C   0  0  0  0  0  0  0  0  0  0  0  0
   34.7370   29.6230   50.4770 C   0  0  0  0  0  0  0  0  0  0  0  0
   33.5560   29.0580   49.9720 C   0  0  0  0  0  0  0  0  0  0  0  0
   33.9680   28.2160   48.9640 C   0  0  0  0  0  0  0  0  0  0  0  0
   35.2790   28.2690   48.8710 O   0  0  0  0  0  0  0  0  0  0  0  0
   34.7960   30.3430   51.2920 H   0  0  0  0  0  0  0  0  0  0  0  0
   32.5540   29.2610   50.3200 H   0  0  0  0  0  0  0  0  0  0  0  0
   37.1690   29.4640   50.0130 C   0  0  0  0  0  0  0  0  0  0  0  0
   37.7950   28.8770   50.9040 O   0  0  0  0  0  0  0  0  0  0  0  0
   37.7270   30.5090   49.2030 C   0  0  0  0  0  0  0  0  0  0  0  0
   38.0730   31.6920   49.8400 C   0  0  0  0  0  0  0  0  0  0  0  0
   38.6170   32.7240   49.0750 C   0  0  0  0  0  0  0  0  0  0  0  0
   38.7830   32.5170   47.7260 N   0  0  0  0  0  0  0  0  0  0  0  0
   38.4380   31.3630   47.1460 C   0  0  0  0  0  0  0  0  0  0  0  0
   37.9140   30.3630   47.8710 N   0  0  0  0  0  0  0  0  0  0  0  0
   37.9220   31.8070   50.9110 H   0  0  0  0  0  0  0  0  0  0  0  0
   38.8860   33.6410   49.5660 H   0  0  0  0  0  0  0  0  0  0  0  0
   38.5710   31.2080   46.0850 H   0  0  0  0  0  0  0  0  0  0  0  0
   33.5940   26.0960   47.5500 C   0  0  1  0  0  0  0  0  0  0  0  0
   32.4860   25.4660   46.6200 C   0  0  0  0  0  0  0  0  0  0  0  0
   33.7840   25.9680   46.1040 C   0  0  2  0  0  0  0  0  0  0  0  0
   33.8640   25.3610   48.3380 H   0  0  0  0  0  0  0  0  0  0  0  0
   32.4080   24.3660   46.7050 H   0  0  0  0  0  0  0  0  0  0  0  0
   31.6010   26.0620   46.4170 H   0  0  0  0  0  0  0  0  0  0  0  0
   33.7480   26.9610   45.5640 H   0  0  0  0  0  0  0  0  0  0  0  0
   35.1740   25.2830   44.1930 C   0  0  0  0  0  0  0  0  0  0  0  0
   34.7290   25.0330   45.4960 C   0  0  0  0  0  0  0  0  0  0  0  0
   35.2440   23.9010   46.0860 C   0  0  0  0  0  0  0  0  0  0  0  0
   34.9290   23.6700   47.0870 H   0  0  0  0  0  0  0  0  0  0  0  0
   36.1250   23.0630   45.4700 C   0  0  0  0  0  0  0  0  0  0  0  0
   36.5520   23.3280   44.1800 C   0  0  0  0  0  0  0  0  0  0  0  0
   36.0770   24.4480   43.5280 C   0  0  0  0  0  0  0  0  0  0  0  0
   34.6940   26.4100   43.5400 O   0  0  0  0  0  0  0  0  0  0  0  0
   34.8310   26.5120   42.5350 H   0  0  0  0  0  0  0  0  0  0  0  0
   36.4420   24.8050   42.2350 O   0  0  0  0  0  0  0  0  0  0  0  0
   35.9610   24.3290   41.4780 H   0  0  0  0  0  0  0  0  0  0  0  0
  1  6  1  0  0  0  0
  2  1  2  0  0  0  0
  3 10  1  0  0  0  0
  3  4  2  0  0  0  0
  4  8  1  0  0  0  0
  5  9  1  0  0  0  0
  5  4  1  0  0  0  0
  6  5  2  0  0  0  0
  7  6  1  0  0  0  0
  7  3  1  0  0  0  0
 10 11  2  0  0  0  0
 12 13  1  0  0  0  0
 12 10  1  0  0  0  0
 13 18  1  0  0  0  0
 14 19  1  0  0  0  0
 14 13  2  0  0  0  0
 15 14  1  0  0  0  0
 16 15  2  0  0  0  0
 16 17  1  0  0  0  0
 17 12  2  0  0  0  0
 20 16  1  0  0  0  0
 21  1  1  0  0  0  0
 21 24  1  1  0  0  0
 22 25  1  0  0  0  0
 22 21  1  0  0  0  0
 23 27  1  6  0  0  0
 23 22  1  0  0  0  0
 23 21  1  0  0  0  0
 26 22  1  0  0  0  0
 28 29  1  0  0  0  0
 29 30  2  0  0  0  0
 29 23  1  0  0  0  0
 30 31  1  0  0  0  0
 32 30  1  0  0  0  0
 33 32  2  0  0  0  0
 34 33  1  0  0  0  0
 34 28  2  0  0  0  0
 35 28  1  0  0  0  0
 36 35  1  0  0  0  0
 37 34  1  0  0  0  0
 38 37  1  0  0  0  0
M  END
>  <minimizedAffinity>
-5.4538455

>  <minimizedRMSD>
1.81504309

$$$$
