
 OpenBabel03272508273D

 40 43  0  0  1  0  0  0  0  0999 V2000
   33.6870   29.0000   47.2270 C   0  0  2  0  0  0  0  0  0  0  0  0
   34.4700   28.1360   48.2090 C   0  0  2  0  0  0  0  0  0  0  0  0
   33.6050   27.8860   49.2400 O   0  0  0  0  0  0  0  0  0  0  0  0
   32.3120   27.9990   48.8280 C   0  0  0  0  0  0  0  0  0  0  0  0
   32.3180   28.3200   47.3470 C   0  0  1  0  0  0  0  0  0  0  0  0
   33.5890   30.0390   47.5690 H   0  0  0  0  0  0  0  0  0  0  0  0
   34.7320   27.2020   47.6930 H   0  0  0  0  0  0  0  0  0  0  0  0
   31.7880   27.0280   48.9500 H   0  0  0  0  0  0  0  0  0  0  0  0
   31.7500   28.8260   49.3230 H   0  0  0  0  0  0  0  0  0  0  0  0
   32.3280   27.3740   46.7850 H   0  0  0  0  0  0  0  0  0  0  0  0
   35.5850   30.3460   48.9700 C   0  0  1  0  0  0  0  0  0  0  0  0
   35.6520   28.9390   48.6510 C   0  0  1  0  0  0  0  0  0  0  0  0
   35.8510   29.3190   50.0820 C   0  0  0  0  0  0  0  0  0  0  0  0
   34.6950   30.9550   49.2080 H   0  0  0  0  0  0  0  0  0  0  0  0
   36.5930   28.6100   48.1220 H   0  0  0  0  0  0  0  0  0  0  0  0
   36.8810   29.2620   50.5110 H   0  0  0  0  0  0  0  0  0  0  0  0
   35.0810   29.1560   50.8330 H   0  0  0  0  0  0  0  0  0  0  0  0
   36.7840   31.2540   48.7490 C   0  0  0  0  0  0  0  0  0  0  0  0
   37.0360   32.2330   49.7140 C   0  0  0  0  0  0  0  0  0  0  0  0
   38.1220   33.0460   49.4670 C   0  0  0  0  0  0  0  0  0  0  0  0
   38.8850   32.8800   48.3360 N   0  0  0  0  0  0  0  0  0  0  0  0
   38.6040   31.9170   47.4260 C   0  0  0  0  0  0  0  0  0  0  0  0
   37.5440   31.0960   47.6340 N   0  0  0  0  0  0  0  0  0  0  0  0
   36.3990   32.3120   50.5800 H   0  0  0  0  0  0  0  0  0  0  0  0
   38.3550   33.8210   50.1940 H   0  0  0  0  0  0  0  0  0  0  0  0
   39.2310   31.8220   46.5500 H   0  0  0  0  0  0  0  0  0  0  0  0
   34.1610   28.9510   45.9370 O   0  0  0  0  0  0  0  0  0  0  0  0
   34.1210   28.0560   45.5540 H   0  0  0  0  0  0  0  0  0  0  0  0
   31.3020   29.1380   46.9550 O   0  0  0  0  0  0  0  0  0  0  0  0
   30.3760   29.9030   45.0170 C   0  0  0  0  0  0  0  0  0  0  0  0
   30.4040   28.8730   45.9660 C   0  0  0  0  0  0  0  0  0  0  0  0
   29.5580   27.8080   45.7510 C   0  0  0  0  0  0  0  0  0  0  0  0
   29.6350   27.0590   46.5170 H   0  0  0  0  0  0  0  0  0  0  0  0
   28.7260   27.7540   44.6660 C   0  0  0  0  0  3  0  0  0  0  0  0
   28.6980   28.7660   43.7340 C   0  0  0  0  0  3  0  0  0  0  0  0
   29.5310   29.8510   43.9130 C   0  0  0  0  0  0  0  0  0  0  0  0
   31.1490   31.0570   45.0520 O   0  0  0  0  0  0  0  0  0  0  0  0
   30.8450   31.8200   45.6490 H   0  0  0  0  0  0  0  0  0  0  0  0
   29.4590   30.8330   42.9480 O   0  0  0  0  0  0  0  0  0  0  0  0
   30.2850   31.3220   42.5870 H   0  0  0  0  0  0  0  0  0  0  0  0
  1  5  1  0  0  0  0
  1  6  1  1  0  0  0
  1  2  1  0  0  0  0
  2  7  1  6  0  0  0
  2 12  1  0  0  0  0
  2  3  1  0  0  0  0
  4  8  1  0  0  0  0
  4  3  1  0  0  0  0
  4  9  1  0  0  0  0
  5 10  1  6  0  0  0
  5  4  1  0  0  0  0
 11 14  1  6  0  0  0
 11 13  1  0  0  0  0
 12 15  1  6  0  0  0
 12 11  1  0  0  0  0
 12 13  1  0  0  0  0
 13 16  1  0  0  0  0
 13 17  1  0  0  0  0
 18 11  1  0  0  0  0
 18 19  1  0  0  0  0
 19 24  1  0  0  0  0
 20 19  2  0  0  0  0
 20 25  1  0  0  0  0
 21 20  1  0  0  0  0
 22 23  1  0  0  0  0
 22 21  2  0  0  0  0
 23 18  2  0  0  0  0
 26 22  1  0  0  0  0
 27  1  1  0  0  0  0
 28 27  1  0  0  0  0
 29  5  1  0  0  0  0
 30 37  1  0  0  0  0
 30 31  1  0  0  0  0
 31 29  1  0  0  0  0
 32 31  2  0  0  0  0
 32 33  1  0  0  0  0
 34 32  1  0  0  0  0
 35 36  1  0  0  0  0
 35 34  2  0  0  0  0
 36 30  2  0  0  0  0
 37 38  1  0  0  0  0
 39 36  1  0  0  0  0
 40 39  1  0  0  0  0
M  END
>  <minimizedAffinity>
-4.96903419

>  <minimizedRMSD>
0.332084149

$$$$
