
 OpenBabel03272506003D

 46 49  0  0  1  0  0  0  0  0999 V2000
   35.5010   28.5790   31.8880 C   0  0  2  0  0  0  0  0  0  0  0  0
   35.8420   27.1870   32.2650 C   0  0  0  0  0  0  0  0  0  0  0  0
   37.3340   26.9960   32.5510 C   0  0  2  0  0  0  0  0  0  0  0  0
   38.2110   27.4110   31.4550 C   0  0  0  0  0  0  0  0  0  0  0  0
   37.7520   28.6870   30.7590 C   0  0  0  0  0  0  0  0  0  0  0  0
   36.7170   29.4180   31.5610 C   0  0  0  0  0  0  0  0  0  0  0  0
   34.8650   28.6350   30.9580 H   0  0  0  0  0  0  0  0  0  0  0  0
   35.3690   26.6850   33.0730 H   0  0  0  0  0  0  0  0  0  0  0  0
   35.6630   26.5420   31.3420 H   0  0  0  0  0  0  0  0  0  0  0  0
   37.5050   27.5100   33.5000 H   0  0  0  0  0  0  0  0  0  0  0  0
   39.2580   27.4950   31.8100 H   0  0  0  0  0  0  0  0  0  0  0  0
   38.2330   26.6440   30.6610 H   0  0  0  0  0  0  0  0  0  0  0  0
   38.6360   29.3550   30.7180 H   0  0  0  0  0  0  0  0  0  0  0  0
   37.4500   28.5310   29.7150 H   0  0  0  0  0  0  0  0  0  0  0  0
   37.1510   29.7460   32.5200 H   0  0  0  0  0  0  0  0  0  0  0  0
   36.4000   30.2970   30.9960 H   0  0  0  0  0  0  0  0  0  0  0  0
   38.7230   26.2750   35.0510 Cl  0  0  0  0  0  0  0  0  0  0  0  0
   38.1340   25.0690   33.9180 C   0  0  0  0  0  0  0  0  0  0  0  0
   37.4700   25.5300   32.7870 C   0  0  0  0  0  0  0  0  0  0  0  0
   37.0340   24.5130   31.9770 C   0  0  0  0  0  0  0  0  0  0  0  0
   37.2390   23.1790   32.2640 C   0  0  0  0  0  0  0  0  0  0  0  0
   37.9140   22.7990   33.4170 C   0  0  0  0  0  0  0  0  0  0  0  0
   38.3750   23.7900   34.2720 C   0  0  0  0  0  0  0  0  0  0  0  0
   36.5020   24.7770   31.0740 H   0  0  0  0  0  0  0  0  0  0  0  0
   36.8550   22.4370   31.5570 H   0  0  0  0  0  0  0  0  0  0  0  0
   38.0460   21.7450   33.5930 H   0  0  0  0  0  0  0  0  0  0  0  0
   38.5940   23.2640   36.7760 C   0  0  0  0  0  0  0  0  0  0  0  0
   39.0850   23.4020   35.4880 C   0  0  0  0  0  0  0  0  0  0  0  0
   40.4390   23.1480   35.2620 C   0  0  0  0  0  0  0  0  0  0  0  0
   40.9230   23.2290   34.2760 H   0  0  0  0  0  0  0  0  0  0  0  0
   41.3070   22.7700   36.2460 C   0  0  0  0  0  3  0  0  0  0  0  0
   40.7750   22.6410   37.5310 C   0  0  0  0  0  3  0  0  0  0  0  0
   39.4360   22.8860   37.7900 C   0  0  0  0  0  0  0  0  0  0  0  0
   37.2360   23.5460   36.8650 O   0  0  0  0  0  0  0  0  0  0  0  0
   36.8490   23.4520   37.8140 H   0  0  0  0  0  0  0  0  0  0  0  0
   38.8610   22.7730   39.0450 O   0  0  0  0  0  0  0  0  0  0  0  0
   39.3490   23.0820   39.8780 H   0  0  0  0  0  0  0  0  0  0  0  0
   34.7450   29.2910   32.9310 C   0  0  0  0  0  0  0  0  0  0  0  0
   35.5230   29.9100   33.9100 C   0  0  0  0  0  0  0  0  0  0  0  0
   34.8560   30.6170   34.9200 C   0  0  0  0  0  0  0  0  0  0  0  0
   33.4670   30.6660   34.8980 N   0  0  0  0  0  0  0  0  0  0  0  0
   32.7590   30.0530   33.9320 C   0  0  0  0  0  0  0  0  0  0  0  0
   33.4140   29.3840   32.9790 N   0  0  0  0  0  0  0  0  0  0  0  0
   36.5550   30.0360   34.1830 H   0  0  0  0  0  0  0  0  0  0  0  0
   35.1960   31.1690   35.7660 H   0  0  0  0  0  0  0  0  0  0  0  0
   31.6820   30.0840   33.9070 H   0  0  0  0  0  0  0  0  0  0  0  0
  1  7  1  6  0  0  0
  1  2  1  0  0  0  0
  1 38  1  0  0  0  0
  2  3  1  0  0  0  0
  2  8  1  0  0  0  0
  3 19  1  0  0  0  0
  3 10  1  1  0  0  0
  4 11  1  0  0  0  0
  4  3  1  0  0  0  0
  5  4  1  0  0  0  0
  5  6  1  0  0  0  0
  6  1  1  0  0  0  0
  6 15  1  0  0  0  0
  9  2  1  0  0  0  0
 12  4  1  0  0  0  0
 13  5  1  0  0  0  0
 14  5  1  0  0  0  0
 16  6  1  0  0  0  0
 18 23  1  0  0  0  0
 18 17  1  0  0  0  0
 19 18  2  0  0  0  0
 20 21  2  0  0  0  0
 20 19  1  0  0  0  0
 21 22  1  0  0  0  0
 22 26  1  0  0  0  0
 22 23  2  0  0  0  0
 23 28  1  0  0  0  0
 24 20  1  0  0  0  0
 25 21  1  0  0  0  0
 27 34  1  0  0  0  0
 27 33  1  0  0  0  0
 28 27  2  0  0  0  0
 29 28  1  0  0  0  0
 29 31  2  0  0  0  0
 30 29  1  0  0  0  0
 31 32  1  0  0  0  0
 32 33  2  0  0  0  0
 33 36  1  0  0  0  0
 34 35  1  0  0  0  0
 36 37  1  0  0  0  0
 38 43  2  0  0  0  0
 38 39  1  0  0  0  0
 39 44  1  0  0  0  0
 39 40  2  0  0  0  0
 40 45  1  0  0  0  0
 41 40  1  0  0  0  0
 42 41  2  0  0  0  0
 43 42  1  0  0  0  0
 46 42  1  0  0  0  0
M  END
>  <minimizedAffinity>
-6.67195797

$$$$

 OpenBabel03272506003D

 46 49  0  0  1  0  0  0  0  0999 V2000
   36.3890   28.5470   31.3510 C   0  0  2  0  0  0  0  0  0  0  0  0
   36.4620   27.1940   31.9490 C   0  0  0  0  0  0  0  0  0  0  0  0
   37.8920   26.6480   32.0140 C   0  0  2  0  0  0  0  0  0  0  0  0
   38.5830   26.6260   30.7250 C   0  0  0  0  0  0  0  0  0  0  0  0
   38.3010   27.8510   29.8630 C   0  0  0  0  0  0  0  0  0  0  0  0
   37.6690   28.9570   30.6540 C   0  0  0  0  0  0  0  0  0  0  0  0
   35.5990   28.6270   30.5490 H   0  0  0  0  0  0  0  0  0  0  0  0
   36.0700   26.9760   32.9120 H   0  0  0  0  0  0  0  0  0  0  0  0
   35.9390   26.4840   31.2260 H   0  0  0  0  0  0  0  0  0  0  0  0
   38.3820   27.2400   32.7910 H   0  0  0  0  0  0  0  0  0  0  0  0
   39.6710   26.4740   30.8730 H   0  0  0  0  0  0  0  0  0  0  0  0
   38.2490   25.7660   30.1170 H   0  0  0  0  0  0  0  0  0  0  0  0
   39.2880   28.2360   29.5340 H   0  0  0  0  0  0  0  0  0  0  0  0
   37.7510   27.6200   28.9400 H   0  0  0  0  0  0  0  0  0  0  0  0
   38.3660   29.3010   31.4370 H   0  0  0  0  0  0  0  0  0  0  0  0
   37.4560   29.7880   29.9790 H   0  0  0  0  0  0  0  0  0  0  0  0
   38.7500   26.2530   34.8090 Cl  0  0  0  0  0  0  0  0  0  0  0  0
   38.1220   24.9440   33.8210 C   0  0  0  0  0  0  0  0  0  0  0  0
   37.7230   25.2580   32.5270 C   0  0  0  0  0  0  0  0  0  0  0  0
   37.2310   24.1740   31.8460 C   0  0  0  0  0  0  0  0  0  0  0  0
   37.1460   22.9120   32.3970 C   0  0  0  0  0  0  0  0  0  0  0  0
   37.5650   22.6790   33.7000 C   0  0  0  0  0  0  0  0  0  0  0  0
   38.0710   23.7430   34.4340 C   0  0  0  0  0  0  0  0  0  0  0  0
   36.8920   24.3250   30.8310 H   0  0  0  0  0  0  0  0  0  0  0  0
   36.7390   22.1080   31.7760 H   0  0  0  0  0  0  0  0  0  0  0  0
   37.4770   21.6760   34.0810 H   0  0  0  0  0  0  0  0  0  0  0  0
   39.6340   22.8260   36.2540 C   0  0  0  0  0  0  0  0  0  0  0  0
   38.5150   23.5100   35.8060 C   0  0  0  0  0  0  0  0  0  0  0  0
   37.6570   24.0730   36.7520 C   0  0  0  0  0  0  0  0  0  0  0  0
   36.7440   24.6340   36.4950 H   0  0  0  0  0  0  0  0  0  0  0  0
   37.8620   23.9870   38.0990 C   0  0  0  0  0  3  0  0  0  0  0  0
   39.0000   23.2910   38.5120 C   0  0  0  0  0  3  0  0  0  0  0  0
   39.8730   22.7190   37.6000 C   0  0  0  0  0  0  0  0  0  0  0  0
   40.4020   22.3150   35.2160 O   0  0  0  0  0  0  0  0  0  0  0  0
   41.2390   21.8020   35.5240 H   0  0  0  0  0  0  0  0  0  0  0  0
   41.0130   22.0200   37.9590 O   0  0  0  0  0  0  0  0  0  0  0  0
   41.0170   21.3910   38.7540 H   0  0  0  0  0  0  0  0  0  0  0  0
   36.0690   29.5960   32.3320 C   0  0  0  0  0  0  0  0  0  0  0  0
   35.7760   29.1390   33.6170 C   0  0  0  0  0  0  0  0  0  0  0  0
   35.4790   30.0970   34.5960 C   0  0  0  0  0  0  0  0  0  0  0  0
   35.4920   31.4410   34.2440 N   0  0  0  0  0  0  0  0  0  0  0  0
   35.7820   31.8350   32.9910 C   0  0  0  0  0  0  0  0  0  0  0  0
   36.0610   30.9060   32.0710 N   0  0  0  0  0  0  0  0  0  0  0  0
   35.6840   28.2160   34.1610 H   0  0  0  0  0  0  0  0  0  0  0  0
   35.2290   30.0250   35.6290 H   0  0  0  0  0  0  0  0  0  0  0  0
   35.7930   32.8740   32.7070 H   0  0  0  0  0  0  0  0  0  0  0  0
  1  7  1  6  0  0  0
  1  2  1  0  0  0  0
  1 38  1  0  0  0  0
  2  3  1  0  0  0  0
  2  8  1  0  0  0  0
  3 19  1  0  0  0  0
  3 10  1  1  0  0  0
  4 11  1  0  0  0  0
  4  3  1  0  0  0  0
  5  6  1  0  0  0  0
  5  4  1  0  0  0  0
  6  1  1  0  0  0  0
  6 15  1  0  0  0  0
  9  2  1  0  0  0  0
 12  4  1  0  0  0  0
 13  5  1  0  0  0  0
 14  5  1  0  0  0  0
 16  6  1  0  0  0  0
 18 23  1  0  0  0  0
 18 17  1  0  0  0  0
 19 18  2  0  0  0  0
 20 21  2  0  0  0  0
 20 19  1  0  0  0  0
 21 22  1  0  0  0  0
 22 26  1  0  0  0  0
 22 23  2  0  0  0  0
 23 28  1  0  0  0  0
 24 20  1  0  0  0  0
 25 21  1  0  0  0  0
 27 33  1  0  0  0  0
 28 27  2  0  0  0  0
 28 29  1  0  0  0  0
 29 31  2  0  0  0  0
 30 29  1  0  0  0  0
 31 32  1  0  0  0  0
 33 36  1  0  0  0  0
 33 32  2  0  0  0  0
 34 35  1  0  0  0  0
 34 27  1  0  0  0  0
 36 37  1  0  0  0  0
 38 39  1  0  0  0  0
 39 44  1  0  0  0  0
 39 40  2  0  0  0  0
 40 45  1  0  0  0  0
 41 40  1  0  0  0  0
 42 41  2  0  0  0  0
 43 38  2  0  0  0  0
 43 42  1  0  0  0  0
 46 42  1  0  0  0  0
M  END
>  <minimizedAffinity>
-6.5344367

$$$$

 OpenBabel03272506003D

 46 49  0  0  1  0  0  0  0  0999 V2000
   36.8450   23.1400   31.1070 C   0  0  2  0  0  0  0  0  0  0  0  0
   38.0390   23.4430   31.9300 C   0  0  0  0  0  0  0  0  0  0  0  0
   37.7210   24.3350   33.1340 C   0  0  2  0  0  0  0  0  0  0  0  0
   37.0610   25.5950   32.7880 C   0  0  0  0  0  0  0  0  0  0  0  0
   36.0220   25.4520   31.6820 C   0  0  0  0  0  0  0  0  0  0  0  0
   35.6580   24.0170   31.4400 C   0  0  0  0  0  0  0  0  0  0  0  0
   37.0200   23.3140   30.0060 H   0  0  0  0  0  0  0  0  0  0  0  0
   38.6540   22.6810   32.3420 H   0  0  0  0  0  0  0  0  0  0  0  0
   38.7250   24.0930   31.2910 H   0  0  0  0  0  0  0  0  0  0  0  0
   37.1610   23.6930   33.8180 H   0  0  0  0  0  0  0  0  0  0  0  0
   36.6290   26.0660   33.6940 H   0  0  0  0  0  0  0  0  0  0  0  0
   37.7920   26.3260   32.3990 H   0  0  0  0  0  0  0  0  0  0  0  0
   35.0990   25.9430   32.0550 H   0  0  0  0  0  0  0  0  0  0  0  0
   36.2880   25.9850   30.7590 H   0  0  0  0  0  0  0  0  0  0  0  0
   35.1870   23.5940   32.3430 H   0  0  0  0  0  0  0  0  0  0  0  0
   34.9430   23.9760   30.6150 H   0  0  0  0  0  0  0  0  0  0  0  0
   39.0600   21.9700   34.2810 Cl  0  0  0  0  0  0  0  0  0  0  0  0
   39.7670   23.5760   34.3410 C   0  0  0  0  0  0  0  0  0  0  0  0
   39.0550   24.6080   33.7410 C   0  0  0  0  0  0  0  0  0  0  0  0
   39.7000   25.8160   33.8250 C   0  0  0  0  0  0  0  0  0  0  0  0
   40.9240   25.9770   34.4410 C   0  0  0  0  0  0  0  0  0  0  0  0
   41.5740   24.8930   35.0180 C   0  0  0  0  0  0  0  0  0  0  0  0
   40.9640   23.6470   34.9600 C   0  0  0  0  0  0  0  0  0  0  0  0
   39.2210   26.6780   33.3810 H   0  0  0  0  0  0  0  0  0  0  0  0
   41.3610   26.9800   34.4590 H   0  0  0  0  0  0  0  0  0  0  0  0
   42.5260   25.0740   35.4850 H   0  0  0  0  0  0  0  0  0  0  0  0
   41.4720   21.9580   36.8260 C   0  0  0  0  0  0  0  0  0  0  0  0
   41.6390   22.5000   35.5630 C   0  0  0  0  0  0  0  0  0  0  0  0
   42.5680   21.9110   34.7030 C   0  0  0  0  0  0  0  0  0  0  0  0
   42.7730   22.2680   33.6820 H   0  0  0  0  0  0  0  0  0  0  0  0
   43.3230   20.8250   35.0440 C   0  0  0  0  0  3  0  0  0  0  0  0
   43.1260   20.3060   36.3250 C   0  0  0  0  0  3  0  0  0  0  0  0
   42.2120   20.8670   37.2030 C   0  0  0  0  0  0  0  0  0  0  0  0
   40.5210   22.6360   37.5790 O   0  0  0  0  0  0  0  0  0  0  0  0
   40.3810   22.2510   38.5240 H   0  0  0  0  0  0  0  0  0  0  0  0
   41.9800   20.3900   38.4820 O   0  0  0  0  0  0  0  0  0  0  0  0
   42.7400   20.0650   39.0690 H   0  0  0  0  0  0  0  0  0  0  0  0
   36.4020   21.7410   31.2250 C   0  0  0  0  0  0  0  0  0  0  0  0
   35.3160   21.5310   32.0750 C   0  0  0  0  0  0  0  0  0  0  0  0
   34.8430   20.2190   32.2120 C   0  0  0  0  0  0  0  0  0  0  0  0
   35.4700   19.2020   31.5030 N   0  0  0  0  0  0  0  0  0  0  0  0
   36.5160   19.4540   30.6950 C   0  0  0  0  0  0  0  0  0  0  0  0
   36.9530   20.7110   30.5770 N   0  0  0  0  0  0  0  0  0  0  0  0
   34.6620   22.0830   32.7260 H   0  0  0  0  0  0  0  0  0  0  0  0
   34.0490   19.7900   32.7790 H   0  0  0  0  0  0  0  0  0  0  0  0
   37.0110   18.6720   30.1410 H   0  0  0  0  0  0  0  0  0  0  0  0
  1  7  1  6  0  0  0
  1 38  1  0  0  0  0
  1  6  1  0  0  0  0
  1  2  1  0  0  0  0
  2  8  1  0  0  0  0
  2  3  1  0  0  0  0
  3 19  1  0  0  0  0
  3 10  1  1  0  0  0
  4  3  1  0  0  0  0
  4 11  1  0  0  0  0
  5 13  1  0  0  0  0
  5  4  1  0  0  0  0
  6  5  1  0  0  0  0
  6 15  1  0  0  0  0
  9  2  1  0  0  0  0
 12  4  1  0  0  0  0
 14  5  1  0  0  0  0
 16  6  1  0  0  0  0
 17 18  1  0  0  0  0
 18 23  1  0  0  0  0
 19 20  1  0  0  0  0
 19 18  2  0  0  0  0
 20 21  2  0  0  0  0
 21 25  1  0  0  0  0
 21 22  1  0  0  0  0
 22 26  1  0  0  0  0
 23 22  2  0  0  0  0
 23 28  1  0  0  0  0
 24 20  1  0  0  0  0
 27 33  1  0  0  0  0
 27 34  1  0  0  0  0
 28 27  2  0  0  0  0
 29 31  2  0  0  0  0
 29 28  1  0  0  0  0
 30 29  1  0  0  0  0
 31 32  1  0  0  0  0
 32 33  2  0  0  0  0
 33 36  1  0  0  0  0
 34 35  1  0  0  0  0
 36 37  1  0  0  0  0
 38 39  1  0  0  0  0
 39 40  2  0  0  0  0
 39 44  1  0  0  0  0
 40 45  1  0  0  0  0
 41 40  1  0  0  0  0
 42 41  2  0  0  0  0
 43 42  1  0  0  0  0
 43 38  2  0  0  0  0
 46 42  1  0  0  0  0
M  END
>  <minimizedAffinity>
-6.41810369

$$$$

 OpenBabel03272506003D

 46 49  0  0  1  0  0  0  0  0999 V2000
   38.9690   22.7930   36.4550 C   0  0  2  0  0  0  0  0  0  0  0  0
   38.5880   23.8170   35.4530 C   0  0  0  0  0  0  0  0  0  0  0  0
   38.6960   25.2460   35.9920 C   0  0  2  0  0  0  0  0  0  0  0  0
   37.9280   25.4840   37.2150 C   0  0  0  0  0  0  0  0  0  0  0  0
   37.9780   24.3200   38.1990 C   0  0  0  0  0  0  0  0  0  0  0  0
   39.0690   23.3480   37.8590 C   0  0  0  0  0  0  0  0  0  0  0  0
   38.2110   21.9620   36.5380 H   0  0  0  0  0  0  0  0  0  0  0  0
   39.0500   23.8770   34.4980 H   0  0  0  0  0  0  0  0  0  0  0  0
   37.4720   23.6890   35.2580 H   0  0  0  0  0  0  0  0  0  0  0  0
   39.7680   25.4340   36.0750 H   0  0  0  0  0  0  0  0  0  0  0  0
   38.2460   26.4330   37.6910 H   0  0  0  0  0  0  0  0  0  0  0  0
   36.8560   25.6170   36.9850 H   0  0  0  0  0  0  0  0  0  0  0  0
   38.2510   24.7550   39.1830 H   0  0  0  0  0  0  0  0  0  0  0  0
   37.0060   23.8330   38.3490 H   0  0  0  0  0  0  0  0  0  0  0  0
   40.0500   23.8460   37.9400 H   0  0  0  0  0  0  0  0  0  0  0  0
   39.0300   22.5220   38.5710 H   0  0  0  0  0  0  0  0  0  0  0  0
   40.1890   25.0380   33.4570 Cl  0  0  0  0  0  0  0  0  0  0  0  0
   38.8020   26.0970   33.6500 C   0  0  0  0  0  0  0  0  0  0  0  0
   38.1620   26.0890   34.8830 C   0  0  0  0  0  0  0  0  0  0  0  0
   37.0820   26.9340   34.9250 C   0  0  0  0  0  0  0  0  0  0  0  0
   36.6830   27.7040   33.8530 C   0  0  0  0  0  0  0  0  0  0  0  0
   37.3770   27.6550   32.6500 C   0  0  0  0  0  0  0  0  0  0  0  0
   38.4780   26.8150   32.5540 C   0  0  0  0  0  0  0  0  0  0  0  0
   36.5190   26.9900   35.8470 H   0  0  0  0  0  0  0  0  0  0  0  0
   35.8090   28.3490   33.9800 H   0  0  0  0  0  0  0  0  0  0  0  0
   37.0240   28.2760   31.8450 H   0  0  0  0  0  0  0  0  0  0  0  0
   38.9670   25.9730   30.1770 C   0  0  0  0  0  0  0  0  0  0  0  0
   39.2150   26.7550   31.2940 C   0  0  0  0  0  0  0  0  0  0  0  0
   40.3080   27.6240   31.2690 C   0  0  0  0  0  0  0  0  0  0  0  0
   40.5870   28.2840   32.1050 H   0  0  0  0  0  0  0  0  0  0  0  0
   41.1470   27.7440   30.1980 C   0  0  0  0  0  3  0  0  0  0  0  0
   40.8650   26.9410   29.0920 C   0  0  0  0  0  3  0  0  0  0  0  0
   39.7880   26.0680   29.0840 C   0  0  0  0  0  0  0  0  0  0  0  0
   37.8550   25.1550   30.3320 O   0  0  0  0  0  0  0  0  0  0  0  0
   37.6510   24.5640   29.5150 H   0  0  0  0  0  0  0  0  0  0  0  0
   39.4670   25.2510   28.0120 O   0  0  0  0  0  0  0  0  0  0  0  0
   40.1860   24.7840   27.4710 H   0  0  0  0  0  0  0  0  0  0  0  0
   40.2510   22.1370   36.1510 C   0  0  0  0  0  0  0  0  0  0  0  0
   40.9950   21.7450   37.2640 C   0  0  0  0  0  0  0  0  0  0  0  0
   42.2180   21.1000   37.0330 C   0  0  0  0  0  0  0  0  0  0  0  0
   42.6260   20.8850   35.7220 N   0  0  0  0  0  0  0  0  0  0  0  0
   41.8720   21.2820   34.6800 C   0  0  0  0  0  0  0  0  0  0  0  0
   40.7100   21.8950   34.9210 N   0  0  0  0  0  0  0  0  0  0  0  0
   40.9500   21.7770   38.3380 H   0  0  0  0  0  0  0  0  0  0  0  0
   42.9640   20.7050   37.6830 H   0  0  0  0  0  0  0  0  0  0  0  0
   42.1800   21.1210   33.6600 H   0  0  0  0  0  0  0  0  0  0  0  0
  1  7  1  1  0  0  0
  1  6  1  0  0  0  0
  2  3  1  0  0  0  0
  2  1  1  0  0  0  0
  3 10  1  1  0  0  0
  3  4  1  0  0  0  0
  4 11  1  0  0  0  0
  4  5  1  0  0  0  0
  5 14  1  0  0  0  0
  5 13  1  0  0  0  0
  6 15  1  0  0  0  0
  6  5  1  0  0  0  0
  6 16  1  0  0  0  0
  8  2  1  0  0  0  0
  9  2  1  0  0  0  0
 12  4  1  0  0  0  0
 17 18  1  0  0  0  0
 18 19  1  0  0  0  0
 19 20  2  0  0  0  0
 19  3  1  0  0  0  0
 20 24  1  0  0  0  0
 21 25  1  0  0  0  0
 21 20  1  0  0  0  0
 22 21  2  0  0  0  0
 23 22  1  0  0  0  0
 23 18  2  0  0  0  0
 26 22  1  0  0  0  0
 27 34  1  0  0  0  0
 27 28  1  0  0  0  0
 28 23  1  0  0  0  0
 29 28  2  0  0  0  0
 29 30  1  0  0  0  0
 31 29  1  0  0  0  0
 32 31  2  0  0  0  0
 33 32  1  0  0  0  0
 33 27  2  0  0  0  0
 35 34  1  0  0  0  0
 36 33  1  0  0  0  0
 37 36  1  0  0  0  0
 38  1  1  0  0  0  0
 38 39  1  0  0  0  0
 39 44  1  0  0  0  0
 40 39  2  0  0  0  0
 40 45  1  0  0  0  0
 41 40  1  0  0  0  0
 42 43  1  0  0  0  0
 42 41  2  0  0  0  0
 43 38  2  0  0  0  0
 46 42  1  0  0  0  0
M  END
>  <minimizedAffinity>
-6.34732723

$$$$

 OpenBabel03272506003D

 46 49  0  0  1  0  0  0  0  0999 V2000
   37.6990   24.6100   33.4480 C   0  0  2  0  0  0  0  0  0  0  0  0
   37.0290   25.8590   33.0160 C   0  0  0  0  0  0  0  0  0  0  0  0
   37.9920   26.8570   32.3660 C   0  0  2  0  0  0  0  0  0  0  0  0
   39.1420   27.2090   33.2000 C   0  0  0  0  0  0  0  0  0  0  0  0
   39.7160   26.0270   33.9720 C   0  0  0  0  0  0  0  0  0  0  0  0
   39.2080   24.7170   33.4470 C   0  0  0  0  0  0  0  0  0  0  0  0
   37.4410   24.3210   34.5070 H   0  0  0  0  0  0  0  0  0  0  0  0
   36.1930   25.8580   32.3600 H   0  0  0  0  0  0  0  0  0  0  0  0
   36.6890   26.3960   33.9630 H   0  0  0  0  0  0  0  0  0  0  0  0
   38.2410   26.4160   31.3980 H   0  0  0  0  0  0  0  0  0  0  0  0
   39.9190   27.7150   32.5930 H   0  0  0  0  0  0  0  0  0  0  0  0
   38.8540   27.9420   33.9750 H   0  0  0  0  0  0  0  0  0  0  0  0
   40.8090   26.0300   33.7800 H   0  0  0  0  0  0  0  0  0  0  0  0
   39.6070   26.1200   35.0610 H   0  0  0  0  0  0  0  0  0  0  0  0
   39.5420   24.5790   32.4050 H   0  0  0  0  0  0  0  0  0  0  0  0
   39.6220   23.9140   34.0610 H   0  0  0  0  0  0  0  0  0  0  0  0
   36.7810   28.0200   34.7910 Cl  0  0  0  0  0  0  0  0  0  0  0  0
   36.5020   28.6800   33.1870 C   0  0  0  0  0  0  0  0  0  0  0  0
   37.1490   28.0630   32.1240 C   0  0  0  0  0  0  0  0  0  0  0  0
   36.8820   28.6640   30.9200 C   0  0  0  0  0  0  0  0  0  0  0  0
   36.0570   29.7620   30.7910 C   0  0  0  0  0  0  0  0  0  0  0  0
   35.4450   30.3220   31.9050 C   0  0  0  0  0  0  0  0  0  0  0  0
   35.6830   29.7530   33.1490 C   0  0  0  0  0  0  0  0  0  0  0  0
   37.3480   28.2540   30.0350 H   0  0  0  0  0  0  0  0  0  0  0  0
   35.9030   30.1730   29.7890 H   0  0  0  0  0  0  0  0  0  0  0  0
   34.8110   31.1780   31.7490 H   0  0  0  0  0  0  0  0  0  0  0  0
   33.7620   30.1350   34.8090 C   0  0  0  0  0  0  0  0  0  0  0  0
   35.0460   30.3340   34.3280 C   0  0  0  0  0  0  0  0  0  0  0  0
   35.8910   31.1990   35.0240 C   0  0  0  0  0  0  0  0  0  0  0  0
   36.9270   31.4220   34.7210 H   0  0  0  0  0  0  0  0  0  0  0  0
   35.5190   31.8620   36.1580 C   0  0  0  0  0  3  0  0  0  0  0  0
   34.2190   31.6370   36.6130 C   0  0  0  0  0  3  0  0  0  0  0  0
   33.3530   30.7840   35.9460 C   0  0  0  0  0  0  0  0  0  0  0  0
   33.0260   29.2540   34.0270 O   0  0  0  0  0  0  0  0  0  0  0  0
   32.0680   29.0920   34.3650 H   0  0  0  0  0  0  0  0  0  0  0  0
   32.0560   30.5270   36.3570 O   0  0  0  0  0  0  0  0  0  0  0  0
   31.4640   31.2630   36.7250 H   0  0  0  0  0  0  0  0  0  0  0  0
   37.3430   23.4470   32.6180 C   0  0  0  0  0  0  0  0  0  0  0  0
   36.1540   23.5720   31.8990 C   0  0  0  0  0  0  0  0  0  0  0  0
   35.7740   22.5000   31.0800 C   0  0  0  0  0  0  0  0  0  0  0  0
   36.5910   21.3760   31.0240 N   0  0  0  0  0  0  0  0  0  0  0  0
   37.7290   21.3020   31.7370 C   0  0  0  0  0  0  0  0  0  0  0  0
   38.0740   22.3350   32.5120 N   0  0  0  0  0  0  0  0  0  0  0  0
   35.3520   24.2720   31.7500 H   0  0  0  0  0  0  0  0  0  0  0  0
   34.9380   22.3370   30.4390 H   0  0  0  0  0  0  0  0  0  0  0  0
   38.3690   20.4350   31.7020 H   0  0  0  0  0  0  0  0  0  0  0  0
  1  7  1  1  0  0  0
  2  1  1  0  0  0  0
  2  9  1  0  0  0  0
  3 10  1  6  0  0  0
  3  2  1  0  0  0  0
  3  4  1  0  0  0  0
  4  5  1  0  0  0  0
  4 12  1  0  0  0  0
  5 14  1  0  0  0  0
  6  1  1  0  0  0  0
  6  5  1  0  0  0  0
  6 16  1  0  0  0  0
  8  2  1  0  0  0  0
 11  4  1  0  0  0  0
 13  5  1  0  0  0  0
 15  6  1  0  0  0  0
 18 17  1  0  0  0  0
 19  3  1  0  0  0  0
 19 18  2  0  0  0  0
 20 19  1  0  0  0  0
 21 20  2  0  0  0  0
 21 22  1  0  0  0  0
 22 23  2  0  0  0  0
 23 18  1  0  0  0  0
 23 28  1  0  0  0  0
 24 20  1  0  0  0  0
 25 21  1  0  0  0  0
 26 22  1  0  0  0  0
 27 33  1  0  0  0  0
 28 27  2  0  0  0  0
 28 29  1  0  0  0  0
 29 31  2  0  0  0  0
 30 29  1  0  0  0  0
 31 32  1  0  0  0  0
 33 36  1  0  0  0  0
 33 32  2  0  0  0  0
 34 35  1  0  0  0  0
 34 27  1  0  0  0  0
 36 37  1  0  0  0  0
 38  1  1  0  0  0  0
 39 38  2  0  0  0  0
 40 39  1  0  0  0  0
 41 40  2  0  0  0  0
 41 42  1  0  0  0  0
 42 43  2  0  0  0  0
 43 38  1  0  0  0  0
 44 39  1  0  0  0  0
 45 40  1  0  0  0  0
 46 42  1  0  0  0  0
M  END
>  <minimizedAffinity>
-6.3343401

$$$$

 OpenBabel03272506003D

 46 49  0  0  1  0  0  0  0  0999 V2000
   35.0310   29.7530   32.9440 C   0  0  2  0  0  0  0  0  0  0  0  0
   35.4220   28.3270   33.0480 C   0  0  0  0  0  0  0  0  0  0  0  0
   36.8980   28.0890   32.7130 C   0  0  2  0  0  0  0  0  0  0  0  0
   37.3010   28.5890   31.3980 C   0  0  0  0  0  0  0  0  0  0  0  0
   36.6720   29.9300   31.0390 C   0  0  0  0  0  0  0  0  0  0  0  0
   36.0660   30.6000   32.2360 C   0  0  0  0  0  0  0  0  0  0  0  0
   34.0890   29.9040   32.3430 H   0  0  0  0  0  0  0  0  0  0  0  0
   35.2750   27.7600   33.9330 H   0  0  0  0  0  0  0  0  0  0  0  0
   34.8680   27.7720   32.2190 H   0  0  0  0  0  0  0  0  0  0  0  0
   37.4480   28.5110   33.5570 H   0  0  0  0  0  0  0  0  0  0  0  0
   38.4070   28.6240   31.3210 H   0  0  0  0  0  0  0  0  0  0  0  0
   36.9760   27.8990   30.6000 H   0  0  0  0  0  0  0  0  0  0  0  0
   37.5040   30.5860   30.7090 H   0  0  0  0  0  0  0  0  0  0  0  0
   35.9820   29.8750   30.1860 H   0  0  0  0  0  0  0  0  0  0  0  0
   36.8540   30.8320   32.9720 H   0  0  0  0  0  0  0  0  0  0  0  0
   35.5990   31.5320   31.9110 H   0  0  0  0  0  0  0  0  0  0  0  0
   38.2240   27.0570   35.1370 Cl  0  0  0  0  0  0  0  0  0  0  0  0
   37.6790   26.0060   33.8400 C   0  0  0  0  0  0  0  0  0  0  0  0
   37.0420   26.6050   32.7600 C   0  0  0  0  0  0  0  0  0  0  0  0
   36.6380   25.6990   31.8130 C   0  0  0  0  0  0  0  0  0  0  0  0
   36.8480   24.3400   31.9300 C   0  0  0  0  0  0  0  0  0  0  0  0
   37.4940   23.8180   33.0440 C   0  0  0  0  0  0  0  0  0  0  0  0
   37.9220   24.6920   34.0330 C   0  0  0  0  0  0  0  0  0  0  0  0
   36.1280   26.0750   30.9370 H   0  0  0  0  0  0  0  0  0  0  0  0
   36.4900   23.6940   31.1230 H   0  0  0  0  0  0  0  0  0  0  0  0
   37.6320   22.7510   33.0850 H   0  0  0  0  0  0  0  0  0  0  0  0
   39.9390   23.8260   35.3660 C   0  0  0  0  0  0  0  0  0  0  0  0
   38.6020   24.1540   35.2080 C   0  0  0  0  0  0  0  0  0  0  0  0
   37.7380   23.9630   36.2880 C   0  0  0  0  0  0  0  0  0  0  0  0
   36.6610   24.1920   36.2610 H   0  0  0  0  0  0  0  0  0  0  0  0
   38.1430   23.4690   37.4950 C   0  0  0  0  0  3  0  0  0  0  0  0
   39.4970   23.1510   37.6160 C   0  0  0  0  0  3  0  0  0  0  0  0
   40.3820   23.3280   36.5640 C   0  0  0  0  0  0  0  0  0  0  0  0
   40.6880   24.0630   34.2200 O   0  0  0  0  0  0  0  0  0  0  0  0
   41.6850   23.8250   34.3130 H   0  0  0  0  0  0  0  0  0  0  0  0
   41.7320   23.0280   36.6340 O   0  0  0  0  0  0  0  0  0  0  0  0
   42.0640   22.2010   37.1180 H   0  0  0  0  0  0  0  0  0  0  0  0
   34.7750   30.3780   34.2520 C   0  0  0  0  0  0  0  0  0  0  0  0
   35.8840   30.9750   34.8520 C   0  0  0  0  0  0  0  0  0  0  0  0
   35.6940   31.5990   36.0930 C   0  0  0  0  0  0  0  0  0  0  0  0
   34.4240   31.5930   36.6590 N   0  0  0  0  0  0  0  0  0  0  0  0
   33.3840   31.0030   36.0410 C   0  0  0  0  0  0  0  0  0  0  0  0
   33.5870   30.4130   34.8590 N   0  0  0  0  0  0  0  0  0  0  0  0
   36.9330   31.1290   34.6750 H   0  0  0  0  0  0  0  0  0  0  0  0
   36.3500   32.1190   36.7520 H   0  0  0  0  0  0  0  0  0  0  0  0
   32.3970   30.9910   36.4720 H   0  0  0  0  0  0  0  0  0  0  0  0
  1  7  1  6  0  0  0
  1  2  1  0  0  0  0
  1 38  1  0  0  0  0
  2  8  1  0  0  0  0
  3 19  1  0  0  0  0
  3  2  1  0  0  0  0
  3 10  1  1  0  0  0
  4  3  1  0  0  0  0
  5  4  1  0  0  0  0
  5  6  1  0  0  0  0
  6  1  1  0  0  0  0
  6 15  1  0  0  0  0
  9  2  1  0  0  0  0
 11  4  1  0  0  0  0
 12  4  1  0  0  0  0
 13  5  1  0  0  0  0
 14  5  1  0  0  0  0
 16  6  1  0  0  0  0
 18 23  1  0  0  0  0
 18 17  1  0  0  0  0
 19 18  2  0  0  0  0
 20 21  2  0  0  0  0
 20 19  1  0  0  0  0
 21 22  1  0  0  0  0
 22 26  1  0  0  0  0
 22 23  2  0  0  0  0
 23 28  1  0  0  0  0
 24 20  1  0  0  0  0
 25 21  1  0  0  0  0
 27 33  1  0  0  0  0
 28 27  2  0  0  0  0
 28 29  1  0  0  0  0
 29 31  2  0  0  0  0
 30 29  1  0  0  0  0
 31 32  1  0  0  0  0
 33 36  1  0  0  0  0
 33 32  2  0  0  0  0
 34 35  1  0  0  0  0
 34 27  1  0  0  0  0
 36 37  1  0  0  0  0
 38 39  2  0  0  0  0
 38 43  1  0  0  0  0
 39 40  1  0  0  0  0
 40 41  2  0  0  0  0
 40 45  1  0  0  0  0
 42 46  1  0  0  0  0
 42 41  1  0  0  0  0
 43 42  2  0  0  0  0
 44 39  1  0  0  0  0
M  END
>  <minimizedAffinity>
-6.30549717

$$$$

 OpenBabel03272506003D

 46 49  0  0  1  0  0  0  0  0999 V2000
   39.0080   27.2150   30.9300 C   0  0  2  0  0  0  0  0  0  0  0  0
   38.7600   25.8650   31.4880 C   0  0  0  0  0  0  0  0  0  0  0  0
   37.2860   25.6220   31.8240 C   0  0  2  0  0  0  0  0  0  0  0  0
   36.7070   26.6140   32.7310 C   0  0  0  0  0  0  0  0  0  0  0  0
   37.1730   28.0380   32.4500 C   0  0  0  0  0  0  0  0  0  0  0  0
   37.8350   28.1550   31.1090 C   0  0  0  0  0  0  0  0  0  0  0  0
   39.8670   27.7440   31.4350 H   0  0  0  0  0  0  0  0  0  0  0  0
   39.0480   24.9780   30.9790 H   0  0  0  0  0  0  0  0  0  0  0  0
   39.2740   25.8280   32.5050 H   0  0  0  0  0  0  0  0  0  0  0  0
   36.7890   25.5350   30.8560 H   0  0  0  0  0  0  0  0  0  0  0  0
   35.6000   26.5400   32.7280 H   0  0  0  0  0  0  0  0  0  0  0  0
   37.0100   26.4160   33.7740 H   0  0  0  0  0  0  0  0  0  0  0  0
   36.2560   28.6610   32.3930 H   0  0  0  0  0  0  0  0  0  0  0  0
   37.7750   28.4700   33.2600 H   0  0  0  0  0  0  0  0  0  0  0  0
   37.1080   27.9190   30.3130 H   0  0  0  0  0  0  0  0  0  0  0  0
   38.1800   29.1820   30.9820 H   0  0  0  0  0  0  0  0  0  0  0  0
   38.8990   25.4340   34.2860 Cl  0  0  0  0  0  0  0  0  0  0  0  0
   38.0310   24.0600   33.6200 C   0  0  0  0  0  0  0  0  0  0  0  0
   37.2820   24.2770   32.4700 C   0  0  0  0  0  0  0  0  0  0  0  0
   36.6290   23.1500   32.0420 C   0  0  0  0  0  0  0  0  0  0  0  0
   36.7150   21.9350   32.6900 C   0  0  0  0  0  0  0  0  0  0  0  0
   37.4870   21.7990   33.8370 C   0  0  0  0  0  0  0  0  0  0  0  0
   38.1680   22.9110   34.3140 C   0  0  0  0  0  0  0  0  0  0  0  0
   36.0160   23.2260   31.1540 H   0  0  0  0  0  0  0  0  0  0  0  0
   36.1580   21.0910   32.2740 H   0  0  0  0  0  0  0  0  0  0  0  0
   37.5190   20.8300   34.3040 H   0  0  0  0  0  0  0  0  0  0  0  0
   38.6510   23.0840   36.8300 C   0  0  0  0  0  0  0  0  0  0  0  0
   38.9820   22.7790   35.5200 C   0  0  0  0  0  0  0  0  0  0  0  0
   40.2560   22.2740   35.2550 C   0  0  0  0  0  0  0  0  0  0  0  0
   40.6120   22.0020   34.2490 H   0  0  0  0  0  0  0  0  0  0  0  0
   41.1970   22.0630   36.2220 C   0  0  0  0  0  3  0  0  0  0  0  0
   40.8270   22.3820   37.5300 C   0  0  0  0  0  3  0  0  0  0  0  0
   39.5700   22.8850   37.8280 C   0  0  0  0  0  0  0  0  0  0  0  0
   37.3590   23.5770   36.9570 O   0  0  0  0  0  0  0  0  0  0  0  0
   37.0910   23.8120   37.9220 H   0  0  0  0  0  0  0  0  0  0  0  0
   39.1560   23.2150   39.1080 O   0  0  0  0  0  0  0  0  0  0  0  0
   39.7820   23.6710   39.7630 H   0  0  0  0  0  0  0  0  0  0  0  0
   39.3390   27.1960   29.4960 C   0  0  0  0  0  0  0  0  0  0  0  0
   39.2030   28.4190   28.8390 C   0  0  0  0  0  0  0  0  0  0  0  0
   39.5200   28.4620   27.4740 C   0  0  0  0  0  0  0  0  0  0  0  0
   39.9490   27.2970   26.8480 N   0  0  0  0  0  0  0  0  0  0  0  0
   40.0640   26.1400   27.5250 C   0  0  0  0  0  0  0  0  0  0  0  0
   39.7570   26.1200   28.8260 N   0  0  0  0  0  0  0  0  0  0  0  0
   38.9050   29.4320   29.0390 H   0  0  0  0  0  0  0  0  0  0  0  0
   39.5080   29.2440   26.7510 H   0  0  0  0  0  0  0  0  0  0  0  0
   40.3940   25.2310   27.0490 H   0  0  0  0  0  0  0  0  0  0  0  0
  1  6  1  0  0  0  0
  1  7  1  1  0  0  0
  1  2  1  0  0  0  0
  2  3  1  0  0  0  0
  2  9  1  0  0  0  0
  3 10  1  6  0  0  0
  3 19  1  0  0  0  0
  3  4  1  0  0  0  0
  4 12  1  0  0  0  0
  5  4  1  0  0  0  0
  5 14  1  0  0  0  0
  6  5  1  0  0  0  0
  8  2  1  0  0  0  0
 11  4  1  0  0  0  0
 13  5  1  0  0  0  0
 15  6  1  0  0  0  0
 16  6  1  0  0  0  0
 18 17  1  0  0  0  0
 18 23  1  0  0  0  0
 19 18  2  0  0  0  0
 20 19  1  0  0  0  0
 20 21  2  0  0  0  0
 21 22  1  0  0  0  0
 22 26  1  0  0  0  0
 22 23  2  0  0  0  0
 23 28  1  0  0  0  0
 24 20  1  0  0  0  0
 25 21  1  0  0  0  0
 27 34  1  0  0  0  0
 27 33  1  0  0  0  0
 28 27  2  0  0  0  0
 29 28  1  0  0  0  0
 29 31  2  0  0  0  0
 30 29  1  0  0  0  0
 31 32  1  0  0  0  0
 32 33  2  0  0  0  0
 33 36  1  0  0  0  0
 34 35  1  0  0  0  0
 36 37  1  0  0  0  0
 38  1  1  0  0  0  0
 39 44  1  0  0  0  0
 39 38  1  0  0  0  0
 40 39  2  0  0  0  0
 41 40  1  0  0  0  0
 41 42  2  0  0  0  0
 42 43  1  0  0  0  0
 43 38  2  0  0  0  0
 45 40  1  0  0  0  0
 46 42  1  0  0  0  0
M  END
>  <minimizedAffinity>
-6.27954626

$$$$

 OpenBabel03272506003D

 46 49  0  0  1  0  0  0  0  0999 V2000
   37.5490   26.9890   32.9870 C   0  0  2  0  0  0  0  0  0  0  0  0
   38.9080   26.4500   33.2310 C   0  0  0  0  0  0  0  0  0  0  0  0
   39.1450   26.0720   34.6960 C   0  0  2  0  0  0  0  0  0  0  0  0
   38.8980   27.1600   35.6420 C   0  0  0  0  0  0  0  0  0  0  0  0
   37.6820   28.0090   35.2880 C   0  0  0  0  0  0  0  0  0  0  0  0
   36.8150   27.3420   34.2620 C   0  0  0  0  0  0  0  0  0  0  0  0
   37.5600   27.9500   32.3970 H   0  0  0  0  0  0  0  0  0  0  0  0
   39.2940   25.6190   32.6950 H   0  0  0  0  0  0  0  0  0  0  0  0
   39.6390   27.3080   33.0560 H   0  0  0  0  0  0  0  0  0  0  0  0
   38.5410   25.1760   34.8540 H   0  0  0  0  0  0  0  0  0  0  0  0
   38.8310   26.7650   36.6760 H   0  0  0  0  0  0  0  0  0  0  0  0
   39.7450   27.8680   35.6550 H   0  0  0  0  0  0  0  0  0  0  0  0
   37.0690   28.0760   36.2110 H   0  0  0  0  0  0  0  0  0  0  0  0
   37.9340   29.0450   35.0240 H   0  0  0  0  0  0  0  0  0  0  0  0
   36.4090   26.4010   34.6730 H   0  0  0  0  0  0  0  0  0  0  0  0
   35.9860   28.0100   34.0220 H   0  0  0  0  0  0  0  0  0  0  0  0
   39.6230   23.2310   35.3290 Cl  0  0  0  0  0  0  0  0  0  0  0  0
   40.9320   24.3700   35.0560 C   0  0  0  0  0  0  0  0  0  0  0  0
   40.5820   25.6770   34.7370 C   0  0  0  0  0  0  0  0  0  0  0  0
   41.6730   26.4800   34.5240 C   0  0  0  0  0  0  0  0  0  0  0  0
   42.9730   26.0290   34.6200 C   0  0  0  0  0  0  0  0  0  0  0  0
   43.2410   24.7050   34.9430 C   0  0  0  0  0  0  0  0  0  0  0  0
   42.1710   23.8480   35.1680 C   0  0  0  0  0  0  0  0  0  0  0  0
   41.4960   27.5150   34.2650 H   0  0  0  0  0  0  0  0  0  0  0  0
   43.7800   26.7450   34.4320 H   0  0  0  0  0  0  0  0  0  0  0  0
   44.2720   24.4050   35.0050 H   0  0  0  0  0  0  0  0  0  0  0  0
   42.2860   21.8100   36.7250 C   0  0  0  0  0  0  0  0  0  0  0  0
   42.4410   22.4540   35.5090 C   0  0  0  0  0  0  0  0  0  0  0  0
   42.9180   21.7180   34.4220 C   0  0  0  0  0  0  0  0  0  0  0  0
   43.0750   22.1390   33.4170 H   0  0  0  0  0  0  0  0  0  0  0  0
   43.2410   20.3930   34.4960 C   0  0  0  0  0  3  0  0  0  0  0  0
   43.0710   19.7790   35.7380 C   0  0  0  0  0  3  0  0  0  0  0  0
   42.6000   20.4800   36.8370 C   0  0  0  0  0  0  0  0  0  0  0  0
   41.8060   22.6520   37.7200 O   0  0  0  0  0  0  0  0  0  0  0  0
   41.6840   22.1960   38.6350 H   0  0  0  0  0  0  0  0  0  0  0  0
   42.4140   19.9160   38.0880 O   0  0  0  0  0  0  0  0  0  0  0  0
   43.0750   19.2480   38.4690 H   0  0  0  0  0  0  0  0  0  0  0  0
   36.6890   26.0650   32.2290 C   0  0  0  0  0  0  0  0  0  0  0  0
   37.0160   24.7140   32.3500 C   0  0  0  0  0  0  0  0  0  0  0  0
   36.2200   23.7890   31.6610 C   0  0  0  0  0  0  0  0  0  0  0  0
   35.1560   24.2560   30.8990 N   0  0  0  0  0  0  0  0  0  0  0  0
   34.8800   25.5700   30.8120 C   0  0  0  0  0  0  0  0  0  0  0  0
   35.6510   26.4360   31.4760 N   0  0  0  0  0  0  0  0  0  0  0  0
   37.7410   24.0830   32.8310 H   0  0  0  0  0  0  0  0  0  0  0  0
   36.2450   22.7260   31.5830 H   0  0  0  0  0  0  0  0  0  0  0  0
   34.0580   25.9430   30.2230 H   0  0  0  0  0  0  0  0  0  0  0  0
  1  7  1  6  0  0  0
  1  2  1  0  0  0  0
  1  6  1  0  0  0  0
  2  3  1  0  0  0  0
  3 19  1  0  0  0  0
  3 10  1  1  0  0  0
  3  4  1  0  0  0  0
  4 12  1  0  0  0  0
  4 11  1  0  0  0  0
  5  4  1  0  0  0  0
  5 13  1  0  0  0  0
  6 15  1  0  0  0  0
  6  5  1  0  0  0  0
  8  2  1  0  0  0  0
  9  2  1  0  0  0  0
 14  5  1  0  0  0  0
 16  6  1  0  0  0  0
 18 23  1  0  0  0  0
 18 17  1  0  0  0  0
 19 18  2  0  0  0  0
 20 21  2  0  0  0  0
 20 19  1  0  0  0  0
 21 22  1  0  0  0  0
 22 26  1  0  0  0  0
 22 23  2  0  0  0  0
 23 28  1  0  0  0  0
 24 20  1  0  0  0  0
 25 21  1  0  0  0  0
 27 33  1  0  0  0  0
 27 34  1  0  0  0  0
 28 27  2  0  0  0  0
 29 31  2  0  0  0  0
 29 28  1  0  0  0  0
 30 29  1  0  0  0  0
 31 32  1  0  0  0  0
 32 33  2  0  0  0  0
 33 36  1  0  0  0  0
 34 35  1  0  0  0  0
 36 37  1  0  0  0  0
 38 39  1  0  0  0  0
 38  1  1  0  0  0  0
 39 44  1  0  0  0  0
 40 39  2  0  0  0  0
 41 40  1  0  0  0  0
 42 41  2  0  0  0  0
 42 43  1  0  0  0  0
 43 38  2  0  0  0  0
 45 40  1  0  0  0  0
 46 42  1  0  0  0  0
M  END
>  <minimizedAffinity>
-6.2285018

$$$$

 OpenBabel03272506003D

 46 49  0  0  1  0  0  0  0  0999 V2000
   35.1660   31.4840   35.8550 C   0  0  2  0  0  0  0  0  0  0  0  0
   35.8350   30.8610   34.6890 C   0  0  0  0  0  0  0  0  0  0  0  0
   34.8600   30.5080   33.5620 C   0  0  2  0  0  0  0  0  0  0  0  0
   33.7520   29.6480   33.9780 C   0  0  0  0  0  0  0  0  0  0  0  0
   33.1930   29.9990   35.3520 C   0  0  0  0  0  0  0  0  0  0  0  0
   33.6600   31.3460   35.8170 C   0  0  0  0  0  0  0  0  0  0  0  0
   35.4640   31.0090   36.8340 H   0  0  0  0  0  0  0  0  0  0  0  0
   36.6430   31.3280   34.1810 H   0  0  0  0  0  0  0  0  0  0  0  0
   36.2230   29.8450   35.0340 H   0  0  0  0  0  0  0  0  0  0  0  0
   34.5650   31.4690   33.1360 H   0  0  0  0  0  0  0  0  0  0  0  0
   32.9570   29.6420   33.2040 H   0  0  0  0  0  0  0  0  0  0  0  0
   34.0820   28.5970   34.0640 H   0  0  0  0  0  0  0  0  0  0  0  0
   32.0930   30.0810   35.2290 H   0  0  0  0  0  0  0  0  0  0  0  0
   33.3500   29.2120   36.1020 H   0  0  0  0  0  0  0  0  0  0  0  0
   33.2810   32.1270   35.1350 H   0  0  0  0  0  0  0  0  0  0  0  0
   33.2610   31.5240   36.8170 H   0  0  0  0  0  0  0  0  0  0  0  0
   36.2520   28.1240   34.6000 Cl  0  0  0  0  0  0  0  0  0  0  0  0
   36.4380   28.6780   32.9440 C   0  0  0  0  0  0  0  0  0  0  0  0
   35.7090   29.7980   32.5620 C   0  0  0  0  0  0  0  0  0  0  0  0
   35.9090   30.1370   31.2480 C   0  0  0  0  0  0  0  0  0  0  0  0
   36.7460   29.4360   30.4060 C   0  0  0  0  0  0  0  0  0  0  0  0
   37.4410   28.3240   30.8640 C   0  0  0  0  0  0  0  0  0  0  0  0
   37.2740   27.9360   32.1870 C   0  0  0  0  0  0  0  0  0  0  0  0
   35.3770   30.9960   30.8610 H   0  0  0  0  0  0  0  0  0  0  0  0
   36.8420   29.7820   29.3720 H   0  0  0  0  0  0  0  0  0  0  0  0
   38.0800   27.8120   30.1660 H   0  0  0  0  0  0  0  0  0  0  0  0
   37.5910   25.4450   32.7220 C   0  0  0  0  0  0  0  0  0  0  0  0
   37.9990   26.7680   32.6790 C   0  0  0  0  0  0  0  0  0  0  0  0
   39.2700   27.0890   33.1610 C   0  0  0  0  0  0  0  0  0  0  0  0
   39.6840   28.1090   33.1690 H   0  0  0  0  0  0  0  0  0  0  0  0
   40.1340   26.1640   33.6730 C   0  0  0  0  0  3  0  0  0  0  0  0
   39.6880   24.8410   33.7000 C   0  0  0  0  0  3  0  0  0  0  0  0
   38.4320   24.4890   33.2300 C   0  0  0  0  0  0  0  0  0  0  0  0
   36.3110   25.2620   32.2150 O   0  0  0  0  0  0  0  0  0  0  0  0
   35.9850   24.2860   32.2390 H   0  0  0  0  0  0  0  0  0  0  0  0
   37.9440   23.1930   33.2340 O   0  0  0  0  0  0  0  0  0  0  0  0
   38.1160   22.5670   34.0140 H   0  0  0  0  0  0  0  0  0  0  0  0
   35.4710   32.9170   35.9980 C   0  0  0  0  0  0  0  0  0  0  0  0
   36.6460   33.3400   35.3770 C   0  0  0  0  0  0  0  0  0  0  0  0
   36.9770   34.6990   35.4680 C   0  0  0  0  0  0  0  0  0  0  0  0
   36.1280   35.5500   36.1650 N   0  0  0  0  0  0  0  0  0  0  0  0
   35.0040   35.0960   36.7480 C   0  0  0  0  0  0  0  0  0  0  0  0
   34.7060   33.7970   36.6500 N   0  0  0  0  0  0  0  0  0  0  0  0
   37.4640   32.9410   34.8050 H   0  0  0  0  0  0  0  0  0  0  0  0
   37.7930   35.2740   35.0960 H   0  0  0  0  0  0  0  0  0  0  0  0
   34.3390   35.7470   37.2910 H   0  0  0  0  0  0  0  0  0  0  0  0
  1 38  1  0  0  0  0
  1  7  1  1  0  0  0
  2  9  1  0  0  0  0
  2  1  1  0  0  0  0
  3 10  1  6  0  0  0
  3  4  1  0  0  0  0
  3  2  1  0  0  0  0
  4 12  1  0  0  0  0
  4  5  1  0  0  0  0
  5  6  1  0  0  0  0
  5 14  1  0  0  0  0
  6  1  1  0  0  0  0
  6 16  1  0  0  0  0
  8  2  1  0  0  0  0
 11  4  1  0  0  0  0
 13  5  1  0  0  0  0
 15  6  1  0  0  0  0
 18 17  1  0  0  0  0
 19 18  1  0  0  0  0
 19  3  1  0  0  0  0
 20 19  2  0  0  0  0
 21 22  2  0  0  0  0
 21 20  1  0  0  0  0
 22 23  1  0  0  0  0
 23 28  1  0  0  0  0
 23 18  2  0  0  0  0
 24 20  1  0  0  0  0
 25 21  1  0  0  0  0
 26 22  1  0  0  0  0
 27 33  1  0  0  0  0
 28 27  2  0  0  0  0
 28 29  1  0  0  0  0
 29 30  1  0  0  0  0
 29 31  2  0  0  0  0
 31 32  1  0  0  0  0
 33 36  1  0  0  0  0
 33 32  2  0  0  0  0
 34 35  1  0  0  0  0
 34 27  1  0  0  0  0
 36 37  1  0  0  0  0
 38 43  1  0  0  0  0
 39 40  1  0  0  0  0
 39 38  2  0  0  0  0
 40 41  2  0  0  0  0
 41 42  1  0  0  0  0
 42 46  1  0  0  0  0
 43 42  2  0  0  0  0
 44 39  1  0  0  0  0
 45 40  1  0  0  0  0
M  END
>  <minimizedAffinity>
-6.21465683

$$$$
