REMARK  Name = 
REMARK  6 active torsions:
REMARK  status: ('A' for Active; 'I' for Inactive)
REMARK    1  A    between atoms: C_1  and  C_2
REMARK    2  A    between atoms: C_1  and  C_13
REMARK    3  A    between atoms: C_13  and  C_18
REMARK    4  A    between atoms: C_16  and  C_38
REMARK    5  A    between atoms: O_36  and  C_37
REMARK    6  A    between atoms: C_43  and  O_44
REMARK                            x       y       z     vdW  Elec       q    Type
REMARK                         _______ _______ _______ _____ _____    ______ ____
ROOT
ATOM      1  C   UNL     1      34.825  28.372  49.431  0.00  0.00    +0.000 C 
ATOM      2  H   UNL     1      35.729  28.096  48.857  0.00  0.00    +0.000 HD
ATOM      3  H   UNL     1      34.743  27.558  50.213  0.00  0.00    +0.000 HD
ENDROOT
BRANCH   1   4
ATOM      4  C   UNL     1      33.585  28.311  48.569  0.00  0.00    +0.000 A 
ATOM      5  C   UNL     1      33.675  28.700  47.174  0.00  0.00    +0.000 A 
ATOM      6  S   UNL     1      32.012  28.455  46.647  0.00  0.00    +0.000 S 
ATOM      7  C   UNL     1      31.400  27.872  48.320  0.00  0.00    +0.000 A 
ATOM      8  N   UNL     1      32.405  27.937  48.952  0.00  0.00    +0.000 NA
ATOM      9  N   UNL     1      30.082  27.450  48.762  0.00  0.00    +0.000 N 
ATOM     10  C   UNL     1      29.241  26.858  47.786  0.00  0.00    +0.000 C 
ATOM     11  C   UNL     1      27.810  26.762  48.180  0.00  0.00    +0.000 C 
ATOM     12  N   UNL     1      27.485  27.559  49.366  0.00  0.00    +0.000 NA
ATOM     13  C   UNL     1      28.372  27.046  50.397  0.00  0.00    +0.000 C 
ATOM     14  C   UNL     1      29.721  27.663  50.156  0.00  0.00    +0.000 C 
ATOM     15  H   UNL     1      34.546  29.032  46.677  0.00  0.00    +0.000 HD
ATOM     16  H   UNL     1      29.294  27.479  46.861  0.00  0.00    +0.000 HD
ATOM     17  H   UNL     1      29.639  25.848  47.483  0.00  0.00    +0.000 HD
ATOM     18  H   UNL     1      27.604  25.709  48.499  0.00  0.00    +0.000 HD
ATOM     19  H   UNL     1      27.093  27.014  47.394  0.00  0.00    +0.000 HD
ATOM     20  H   UNL     1      26.485  27.401  49.583  0.00  0.00    +0.000 HD
ATOM     21  H   UNL     1      28.034  27.349  51.413  0.00  0.00    +0.000 HD
ATOM     22  H   UNL     1      28.441  25.949  50.378  0.00  0.00    +0.000 HD
ATOM     23  H   UNL     1      29.608  28.765  50.376  0.00  0.00    +0.000 HD
ATOM     24  H   UNL     1      30.440  27.246  50.866  0.00  0.00    +0.000 HD
ENDBRANCH   1   4
BRANCH   1  25
ATOM     25  C   UNL     1      34.946  29.673  50.107  0.00  0.00    +0.000 C 
ATOM     26  H   UNL     1      35.193  29.538  51.193  0.00  0.00    +0.000 HD
ATOM     27  H   UNL     1      34.055  30.316  49.965  0.00  0.00    +0.000 HD
BRANCH  25  32
ATOM     28  C   UNL     1      37.528  32.280  49.557  0.00  0.00    +0.000 A 
ATOM     29  C   UNL     1      38.285  31.738  48.531  0.00  0.00    +0.000 A 
ATOM     30  C   UNL     1      37.924  30.496  48.026  0.00  0.00    +0.000 A 
ATOM     31  N   UNL     1      36.843  29.888  48.575  0.00  0.00    +0.000 NA
ATOM     32  C   UNL     1      36.132  30.449  49.574  0.00  0.00    +0.000 A 
ATOM     33  N   UNL     1      36.471  31.627  50.056  0.00  0.00    +0.000 NA
ATOM     34  H   UNL     1      37.839  33.260  49.933  0.00  0.00    +0.000 HD
ATOM     35  H   UNL     1      39.113  32.253  48.142  0.00  0.00    +0.000 HD
BRANCH  30  37
ATOM     36  C   UNL     1      39.704  30.150  46.253  0.00  0.00    +0.000 A 
ATOM     37  C   UNL     1      38.588  29.778  46.958  0.00  0.00    +0.000 A 
ATOM     38  C   UNL     1      38.083  28.560  46.559  0.00  0.00    +0.000 A 
ATOM     39  H   UNL     1      37.210  28.116  47.005  0.00  0.00    +0.000 HD
ATOM     40  C   UNL     1      38.640  27.795  45.555  0.00  0.00    +0.000 A 
ATOM     41  C   UNL     1      39.748  28.208  44.885  0.00  0.00    +0.000 A 
ATOM     42  C   UNL     1      40.291  29.418  45.246  0.00  0.00    +0.000 A 
BRANCH  36  43
ATOM     43  O   UNL     1      40.304  31.341  46.552  0.00  0.00    +0.000 OA
ATOM     44  H   UNL     1      40.196  32.157  45.974  0.00  0.00    +0.000 HD
ENDBRANCH  36  43
BRANCH  42  45
ATOM     45  O   UNL     1      41.418  29.867  44.584  0.00  0.00    +0.000 OA
ATOM     46  H   UNL     1      42.336  29.454  44.651  0.00  0.00    +0.000 HD
ENDBRANCH  42  45
ENDBRANCH  30  37
ENDBRANCH  25  32
ENDBRANCH   1  25
TORSDOF 6
