
 OpenBabel03272510173D

 30 32  0  0  0  0  0  0  0  0999 V2000
   37.2270   29.5680   51.1900 Br  0  0  0  0  0  0  0  0  0  0  0  0
   36.0170   29.3770   49.7210 C   0  0  0  0  0  0  0  0  0  0  0  0
   36.1090   30.1980   48.5960 C   0  0  0  0  0  0  0  0  0  0  0  0
   35.2010   29.9970   47.5780 C   0  0  0  0  0  0  0  0  0  0  0  0
   34.2140   29.0260   47.6250 C   0  0  0  0  0  0  0  0  0  0  0  0
   34.1480   28.2340   48.7470 C   0  0  0  0  0  0  0  0  0  0  0  0
   35.0430   28.4160   49.7760 C   0  0  0  0  0  0  0  0  0  0  0  0
   35.2670   30.6310   46.6980 H   0  0  0  0  0  0  0  0  0  0  0  0
   33.3810   27.4720   48.7950 H   0  0  0  0  0  0  0  0  0  0  0  0
   34.9710   27.7740   50.6590 H   0  0  0  0  0  0  0  0  0  0  0  0
   38.0240   33.2020   49.4090 C   0  0  0  0  0  0  0  0  0  0  0  0
   39.0570   33.1970   48.4490 C   0  0  0  0  0  0  0  0  0  0  0  0
   39.0900   32.1470   47.5170 C   0  0  0  0  0  0  0  0  0  0  0  0
   38.1170   31.1860   47.5890 N   0  0  0  0  0  0  0  0  0  0  0  0
   37.1390   31.2240   48.5250 C   0  0  0  0  0  0  0  0  0  0  0  0
   37.0950   32.2240   49.4270 N   0  0  0  0  0  0  0  0  0  0  0  0
   38.0410   34.0330   50.1080 H   0  0  0  0  0  0  0  0  0  0  0  0
   39.8340   33.9200   48.3530 H   0  0  0  0  0  0  0  0  0  0  0  0
   39.8230   32.0300   46.7380 H   0  0  0  0  0  0  0  0  0  0  0  0
   32.5770   29.9710   46.0240 C   0  0  0  0  0  0  0  0  0  0  0  0
   33.3000   28.8950   46.4880 C   0  0  0  0  0  0  0  0  0  0  0  0
   33.1520   27.6810   45.8670 C   0  0  0  0  0  0  0  0  0  0  0  0
   33.6770   26.8070   46.1710 H   0  0  0  0  0  0  0  0  0  0  0  0
   32.2670   27.6120   44.7900 C   0  0  0  0  0  3  0  0  0  0  0  0
   31.5380   28.6930   44.3180 C   0  0  0  0  0  3  0  0  0  0  0  0
   31.7040   29.9010   44.9580 C   0  0  0  0  0  0  0  0  0  0  0  0
   32.7450   31.1940   46.6720 O   0  0  0  0  0  0  0  0  0  0  0  0
   31.9740   31.8090   46.8940 H   0  0  0  0  0  0  0  0  0  0  0  0
   31.0060   31.0450   44.5480 O   0  0  0  0  0  0  0  0  0  0  0  0
   30.0900   31.2550   44.9670 H   0  0  0  0  0  0  0  0  0  0  0  0
  2  7  1  0  0  0  0
  2  1  1  0  0  0  0
  3  2  2  0  0  0  0
  4  5  2  0  0  0  0
  4  3  1  0  0  0  0
  5  6  1  0  0  0  0
  6  9  1  0  0  0  0
  6  7  2  0  0  0  0
  7 10  1  0  0  0  0
  8  4  1  0  0  0  0
 11 16  1  0  0  0  0
 11 17  1  0  0  0  0
 12 11  2  0  0  0  0
 13 14  2  0  0  0  0
 13 12  1  0  0  0  0
 14 15  1  0  0  0  0
 15  3  1  0  0  0  0
 15 16  2  0  0  0  0
 18 12  1  0  0  0  0
 19 13  1  0  0  0  0
 20 21  1  0  0  0  0
 20 27  1  0  0  0  0
 21  5  1  0  0  0  0
 22 23  1  0  0  0  0
 22 21  2  0  0  0  0
 24 22  1  0  0  0  0
 25 24  2  0  0  0  0
 25 26  1  0  0  0  0
 26 20  2  0  0  0  0
 27 28  1  0  0  0  0
 29 26  1  0  0  0  0
 29 30  1  0  0  0  0
M  END
>  <minimizedAffinity>
-6.61377001

>  <minimizedRMSD>
0.441327482

$$$$
