
 OpenBabel03272510173D

 30 32  0  0  0  0  0  0  0  0999 V2000
   37.2120   29.3240   50.9490 Br  0  0  0  0  0  0  0  0  0  0  0  0
   35.9450   29.2960   49.5160 C   0  0  0  0  0  0  0  0  0  0  0  0
   36.0190   30.2140   48.4680 C   0  0  0  0  0  0  0  0  0  0  0  0
   35.0700   30.1280   47.4710 C   0  0  0  0  0  0  0  0  0  0  0  0
   34.0590   29.1800   47.4670 C   0  0  0  0  0  0  0  0  0  0  0  0
   34.0130   28.2900   48.5140 C   0  0  0  0  0  0  0  0  0  0  0  0
   34.9490   28.3560   49.5210 C   0  0  0  0  0  0  0  0  0  0  0  0
   35.1200   30.8390   46.6500 H   0  0  0  0  0  0  0  0  0  0  0  0
   33.2290   27.5450   48.5220 H   0  0  0  0  0  0  0  0  0  0  0  0
   34.8920   27.6370   50.3430 H   0  0  0  0  0  0  0  0  0  0  0  0
   37.9910   33.1370   49.4300 C   0  0  0  0  0  0  0  0  0  0  0  0
   39.0330   33.1490   48.4800 C   0  0  0  0  0  0  0  0  0  0  0  0
   39.0530   32.1410   47.5030 C   0  0  0  0  0  0  0  0  0  0  0  0
   38.0580   31.2000   47.5240 N   0  0  0  0  0  0  0  0  0  0  0  0
   37.0710   31.2190   48.4520 C   0  0  0  0  0  0  0  0  0  0  0  0
   37.0400   32.1800   49.3950 N   0  0  0  0  0  0  0  0  0  0  0  0
   38.0190   33.9360   50.1640 H   0  0  0  0  0  0  0  0  0  0  0  0
   39.8270   33.8580   48.4230 H   0  0  0  0  0  0  0  0  0  0  0  0
   39.7910   32.0410   46.7260 H   0  0  0  0  0  0  0  0  0  0  0  0
   33.1390   28.2010   45.3860 C   0  0  0  0  0  0  0  0  0  0  0  0
   33.1020   29.1750   46.3590 C   0  0  0  0  0  0  0  0  0  0  0  0
   32.1460   30.1550   46.2780 C   0  0  0  0  0  0  0  0  0  0  0  0
   32.0570   30.9380   46.9920 H   0  0  0  0  0  0  0  0  0  0  0  0
   31.2590   30.1020   45.2020 C   0  0  0  0  0  3  0  0  0  0  0  0
   31.2920   29.1240   44.2210 C   0  0  0  0  0  3  0  0  0  0  0  0
   32.2600   28.1510   44.3230 C   0  0  0  0  0  0  0  0  0  0  0  0
   34.1200   27.2150   45.4910 O   0  0  0  0  0  0  0  0  0  0  0  0
   34.6500   26.8820   44.6980 H   0  0  0  0  0  0  0  0  0  0  0  0
   32.3660   27.1240   43.3750 O   0  0  0  0  0  0  0  0  0  0  0  0
   32.9700   27.2560   42.5520 H   0  0  0  0  0  0  0  0  0  0  0  0
  2  7  1  0  0  0  0
  2  1  1  0  0  0  0
  3  2  2  0  0  0  0
  4  3  1  0  0  0  0
  5  4  2  0  0  0  0
  5  6  1  0  0  0  0
  6  9  1  0  0  0  0
  6  7  2  0  0  0  0
  7 10  1  0  0  0  0
  8  4  1  0  0  0  0
 11 17  1  0  0  0  0
 12 11  2  0  0  0  0
 13 14  2  0  0  0  0
 13 12  1  0  0  0  0
 14 15  1  0  0  0  0
 15  3  1  0  0  0  0
 15 16  2  0  0  0  0
 16 11  1  0  0  0  0
 18 12  1  0  0  0  0
 19 13  1  0  0  0  0
 20 27  1  0  0  0  0
 20 21  1  0  0  0  0
 21  5  1  0  0  0  0
 22 21  2  0  0  0  0
 22 23  1  0  0  0  0
 24 22  1  0  0  0  0
 25 26  1  0  0  0  0
 25 24  2  0  0  0  0
 26 20  2  0  0  0  0
 28 27  1  0  0  0  0
 29 26  1  0  0  0  0
 30 29  1  0  0  0  0
M  END
>  <minimizedAffinity>
-5.833529

>  <minimizedRMSD>
0.70503521

$$$$
