
 OpenBabel03272501193D

 32 34  0  0  0  0  0  0  0  0999 V2000
   39.7500   24.9960   34.7680 C   0  0  0  0  0  0  0  0  0  0  0  0
   39.8920   26.3360   34.4970 C   0  0  0  0  0  0  0  0  0  0  0  0
   39.1080   27.1720   35.3090 C   0  0  0  0  0  0  0  0  0  0  0  0
   38.2640   26.6590   36.3000 C   0  0  0  0  0  0  0  0  0  0  0  0
   38.1970   25.2770   36.4890 C   0  0  0  0  0  0  0  0  0  0  0  0
   38.9620   24.4240   35.6990 C   0  0  0  0  0  0  0  0  0  0  0  0
   39.1250   28.2500   35.2020 H   0  0  0  0  0  0  0  0  0  0  0  0
   37.6720   27.3380   36.9090 H   0  0  0  0  0  0  0  0  0  0  0  0
   37.5320   24.9160   37.2670 H   0  0  0  0  0  0  0  0  0  0  0  0
   40.2460   27.1210   32.2080 C   0  0  0  0  0  0  0  0  0  0  0  0
   40.7470   26.8730   33.4920 C   0  0  0  0  0  0  0  0  0  0  0  0
   42.0900   27.1740   33.7210 C   0  0  0  0  0  0  0  0  0  0  0  0
   42.8180   27.6840   32.6860 N   0  0  0  0  0  0  0  0  0  0  0  0
   42.2900   27.9060   31.4660 C   0  0  0  0  0  0  0  0  0  0  0  0
   40.9840   27.6220   31.2140 N   0  0  0  0  0  0  0  0  0  0  0  0
   39.2150   26.9160   31.9470 H   0  0  0  0  0  0  0  0  0  0  0  0
   42.4900   26.9880   34.7030 H   0  0  0  0  0  0  0  0  0  0  0  0
   43.0100   28.3130   30.7660 H   0  0  0  0  0  0  0  0  0  0  0  0
   40.4950   24.0830   34.0050 O   0  0  0  0  0  0  0  0  0  0  0  0
   40.0670   23.7720   33.1390 H   0  0  0  0  0  0  0  0  0  0  0  0
   38.8500   23.0730   35.9380 O   0  0  0  0  0  0  0  0  0  0  0  0
   36.7820   21.8800   36.5950 C   0  0  0  0  0  0  0  0  0  0  0  0
   37.7450   22.3060   35.6940 C   0  0  0  0  0  0  0  0  0  0  0  0
   37.6020   21.9220   34.3570 C   0  0  0  0  0  0  0  0  0  0  0  0
   38.2990   22.1990   33.5580 H   0  0  0  0  0  0  0  0  0  0  0  0
   36.5400   21.1420   33.9270 C   0  0  0  0  0  3  0  0  0  0  0  0
   35.5820   20.7190   34.8250 C   0  0  0  0  0  3  0  0  0  0  0  0
   35.7430   21.1100   36.1370 C   0  0  0  0  0  0  0  0  0  0  0  0
   36.9670   22.2830   37.8950 O   0  0  0  0  0  0  0  0  0  0  0  0
   36.1680   22.2600   38.5080 H   0  0  0  0  0  0  0  0  0  0  0  0
   34.7820   20.6930   37.0740 O   0  0  0  0  0  0  0  0  0  0  0  0
   33.7870   20.7500   36.8280 H   0  0  0  0  0  0  0  0  0  0  0  0
  1  6  1  0  0  0  0
  2  1  2  0  0  0  0
  2  3  1  0  0  0  0
  3  4  2  0  0  0  0
  4  5  1  0  0  0  0
  4  8  1  0  0  0  0
  5  9  1  0  0  0  0
  6 21  1  0  0  0  0
  6  5  2  0  0  0  0
  7  3  1  0  0  0  0
 10 11  1  0  0  0  0
 11 12  2  0  0  0  0
 11  2  1  0  0  0  0
 12 17  1  0  0  0  0
 13 12  1  0  0  0  0
 14 13  2  0  0  0  0
 15 14  1  0  0  0  0
 15 10  2  0  0  0  0
 16 10  1  0  0  0  0
 18 14  1  0  0  0  0
 19  1  1  0  0  0  0
 20 19  1  0  0  0  0
 22 29  1  0  0  0  0
 23 21  1  0  0  0  0
 23 22  2  0  0  0  0
 24 23  1  0  0  0  0
 25 24  1  0  0  0  0
 26 24  2  0  0  0  0
 26 27  1  0  0  0  0
 27 28  2  0  0  0  0
 28 22  1  0  0  0  0
 28 31  1  0  0  0  0
 29 30  1  0  0  0  0
 32 31  1  0  0  0  0
M  END
>  <minimizedAffinity>
-6.10074186

$$$$

 OpenBabel03272501193D

 32 34  0  0  0  0  0  0  0  0999 V2000
   37.6180   22.9950   33.0760 C   0  0  0  0  0  0  0  0  0  0  0  0
   36.6580   22.6540   32.1530 C   0  0  0  0  0  0  0  0  0  0  0  0
   35.9890   23.7520   31.5890 C   0  0  0  0  0  0  0  0  0  0  0  0
   36.2930   25.0690   31.9520 C   0  0  0  0  0  0  0  0  0  0  0  0
   37.2890   25.3000   32.9030 C   0  0  0  0  0  0  0  0  0  0  0  0
   37.9680   24.2320   33.4800 C   0  0  0  0  0  0  0  0  0  0  0  0
   35.2090   23.6250   30.8480 H   0  0  0  0  0  0  0  0  0  0  0  0
   35.7520   25.8930   31.4920 H   0  0  0  0  0  0  0  0  0  0  0  0
   37.4970   26.3340   33.1590 H   0  0  0  0  0  0  0  0  0  0  0  0
   37.0390   20.7030   30.7300 C   0  0  0  0  0  0  0  0  0  0  0  0
   36.3380   21.3190   31.7740 C   0  0  0  0  0  0  0  0  0  0  0  0
   35.3410   20.5710   32.4000 C   0  0  0  0  0  0  0  0  0  0  0  0
   35.1180   19.3000   31.9550 N   0  0  0  0  0  0  0  0  0  0  0  0
   35.8210   18.7510   30.9450 C   0  0  0  0  0  0  0  0  0  0  0  0
   36.7980   19.4560   30.3160 N   0  0  0  0  0  0  0  0  0  0  0  0
   37.8290   21.2120   30.1910 H   0  0  0  0  0  0  0  0  0  0  0  0
   34.7930   21.0310   33.2040 H   0  0  0  0  0  0  0  0  0  0  0  0
   35.5110   17.7360   30.7240 H   0  0  0  0  0  0  0  0  0  0  0  0
   38.3400   21.9620   33.6950 O   0  0  0  0  0  0  0  0  0  0  0  0
   37.9250   21.5700   34.5350 H   0  0  0  0  0  0  0  0  0  0  0  0
   38.9390   24.5300   34.4100 O   0  0  0  0  0  0  0  0  0  0  0  0
   39.8000   23.1020   36.2400 C   0  0  0  0  0  0  0  0  0  0  0  0
   38.9780   24.0770   35.6990 C   0  0  0  0  0  0  0  0  0  0  0  0
   38.0570   24.6990   36.5490 C   0  0  0  0  0  0  0  0  0  0  0  0
   37.3570   25.4820   36.2330 H   0  0  0  0  0  0  0  0  0  0  0  0
   37.9550   24.3670   37.8900 C   0  0  0  0  0  3  0  0  0  0  0  0
   38.7750   23.3960   38.4280 C   0  0  0  0  0  3  0  0  0  0  0  0
   39.6740   22.7960   37.5720 C   0  0  0  0  0  0  0  0  0  0  0  0
   40.6860   22.5210   35.3660 O   0  0  0  0  0  0  0  0  0  0  0  0
   41.4820   22.0450   35.7580 H   0  0  0  0  0  0  0  0  0  0  0  0
   40.5210   21.8030   38.0930 O   0  0  0  0  0  0  0  0  0  0  0  0
   40.9770   21.9600   38.9990 H   0  0  0  0  0  0  0  0  0  0  0  0
  1  6  1  0  0  0  0
  1 19  1  0  0  0  0
  2  1  2  0  0  0  0
  3  4  2  0  0  0  0
  3  2  1  0  0  0  0
  4  5  1  0  0  0  0
  5  9  1  0  0  0  0
  5  6  2  0  0  0  0
  6 21  1  0  0  0  0
  7  3  1  0  0  0  0
  8  4  1  0  0  0  0
 10 11  1  0  0  0  0
 11  2  1  0  0  0  0
 11 12  2  0  0  0  0
 12 17  1  0  0  0  0
 13 12  1  0  0  0  0
 14 13  2  0  0  0  0
 15 10  2  0  0  0  0
 15 14  1  0  0  0  0
 16 10  1  0  0  0  0
 18 14  1  0  0  0  0
 19 20  1  0  0  0  0
 21 23  1  0  0  0  0
 22 28  1  0  0  0  0
 23 22  2  0  0  0  0
 23 24  1  0  0  0  0
 24 26  2  0  0  0  0
 25 24  1  0  0  0  0
 26 27  1  0  0  0  0
 28 31  1  0  0  0  0
 28 27  2  0  0  0  0
 29 30  1  0  0  0  0
 29 22  1  0  0  0  0
 31 32  1  0  0  0  0
M  END
>  <minimizedAffinity>
-6.02626467

$$$$

 OpenBabel03272501193D

 32 34  0  0  0  0  0  0  0  0999 V2000
   37.9680   25.5070   33.7970 C   0  0  0  0  0  0  0  0  0  0  0  0
   37.7560   26.8650   33.7700 C   0  0  0  0  0  0  0  0  0  0  0  0
   37.9640   27.5030   35.0040 C   0  0  0  0  0  0  0  0  0  0  0  0
   38.3530   26.7940   36.1450 C   0  0  0  0  0  0  0  0  0  0  0  0
   38.5400   25.4130   36.0590 C   0  0  0  0  0  0  0  0  0  0  0  0
   38.3410   24.7540   34.8500 C   0  0  0  0  0  0  0  0  0  0  0  0
   37.8330   28.5720   35.1220 H   0  0  0  0  0  0  0  0  0  0  0  0
   38.5050   27.3240   37.0830 H   0  0  0  0  0  0  0  0  0  0  0  0
   38.8420   24.8980   36.9650 H   0  0  0  0  0  0  0  0  0  0  0  0
   38.2890   27.8570   31.5990 C   0  0  0  0  0  0  0  0  0  0  0  0
   37.3610   27.6000   32.6150 C   0  0  0  0  0  0  0  0  0  0  0  0
   36.0670   28.0900   32.4350 C   0  0  0  0  0  0  0  0  0  0  0  0
   35.7980   28.7810   31.2900 N   0  0  0  0  0  0  0  0  0  0  0  0
   36.7270   29.0030   30.3400 C   0  0  0  0  0  0  0  0  0  0  0  0
   37.9950   28.5380   30.4890 N   0  0  0  0  0  0  0  0  0  0  0  0
   39.3140   27.5120   31.6600 H   0  0  0  0  0  0  0  0  0  0  0  0
   35.3420   27.9010   33.2080 H   0  0  0  0  0  0  0  0  0  0  0  0
   36.3390   29.5680   29.5000 H   0  0  0  0  0  0  0  0  0  0  0  0
   37.7830   24.7830   32.6090 O   0  0  0  0  0  0  0  0  0  0  0  0
   36.8400   24.4540   32.4290 H   0  0  0  0  0  0  0  0  0  0  0  0
   38.5420   23.3920   34.8330 O   0  0  0  0  0  0  0  0  0  0  0  0
   36.9320   21.9650   36.0590 C   0  0  0  0  0  0  0  0  0  0  0  0
   37.5680   22.4380   34.9220 C   0  0  0  0  0  0  0  0  0  0  0  0
   37.1920   21.8920   33.6900 C   0  0  0  0  0  0  0  0  0  0  0  0
   37.6240   22.1870   32.7270 H   0  0  0  0  0  0  0  0  0  0  0  0
   36.2190   20.9110   33.5890 C   0  0  0  0  0  3  0  0  0  0  0  0
   35.5860   20.4420   34.7220 C   0  0  0  0  0  3  0  0  0  0  0  0
   35.9730   20.9940   35.9240 C   0  0  0  0  0  0  0  0  0  0  0  0
   37.3370   22.5320   37.2430 O   0  0  0  0  0  0  0  0  0  0  0  0
   36.7190   22.4490   38.0340 H   0  0  0  0  0  0  0  0  0  0  0  0
   35.3460   20.5340   37.0950 O   0  0  0  0  0  0  0  0  0  0  0  0
   34.3270   20.4050   37.0990 H   0  0  0  0  0  0  0  0  0  0  0  0
  1  6  1  0  0  0  0
  2  1  2  0  0  0  0
  2  3  1  0  0  0  0
  3  7  1  0  0  0  0
  3  4  2  0  0  0  0
  4  8  1  0  0  0  0
  5  4  1  0  0  0  0
  5  9  1  0  0  0  0
  6  5  2  0  0  0  0
 10 16  1  0  0  0  0
 10 11  1  0  0  0  0
 11  2  1  0  0  0  0
 12 11  2  0  0  0  0
 12 17  1  0  0  0  0
 13 12  1  0  0  0  0
 14 15  1  0  0  0  0
 14 13  2  0  0  0  0
 15 10  2  0  0  0  0
 18 14  1  0  0  0  0
 19  1  1  0  0  0  0
 20 19  1  0  0  0  0
 21  6  1  0  0  0  0
 21 23  1  0  0  0  0
 22 29  1  0  0  0  0
 23 22  2  0  0  0  0
 24 23  1  0  0  0  0
 25 24  1  0  0  0  0
 26 24  2  0  0  0  0
 26 27  1  0  0  0  0
 27 28  2  0  0  0  0
 28 22  1  0  0  0  0
 28 31  1  0  0  0  0
 29 30  1  0  0  0  0
 31 32  1  0  0  0  0
M  END
>  <minimizedAffinity>
-5.98136234

$$$$

 OpenBabel03272501193D

 32 34  0  0  0  0  0  0  0  0999 V2000
   37.8380   26.2480   33.1740 C   0  0  0  0  0  0  0  0  0  0  0  0
   36.8200   26.4630   32.2760 C   0  0  0  0  0  0  0  0  0  0  0  0
   36.2510   25.2870   31.7610 C   0  0  0  0  0  0  0  0  0  0  0  0
   36.7000   24.0190   32.1460 C   0  0  0  0  0  0  0  0  0  0  0  0
   37.7440   23.9170   33.0680 C   0  0  0  0  0  0  0  0  0  0  0  0
   38.3270   25.0650   33.5950 C   0  0  0  0  0  0  0  0  0  0  0  0
   35.4390   25.3140   31.0440 H   0  0  0  0  0  0  0  0  0  0  0  0
   36.2340   23.1310   31.7250 H   0  0  0  0  0  0  0  0  0  0  0  0
   38.0640   22.9170   33.3420 H   0  0  0  0  0  0  0  0  0  0  0  0
   36.8520   28.3410   30.7090 C   0  0  0  0  0  0  0  0  0  0  0  0
   36.3520   27.7480   31.8750 C   0  0  0  0  0  0  0  0  0  0  0  0
   35.3990   28.4670   32.5980 C   0  0  0  0  0  0  0  0  0  0  0  0
   35.0230   29.6890   32.1220 N   0  0  0  0  0  0  0  0  0  0  0  0
   35.5340   30.2180   30.9930 C   0  0  0  0  0  0  0  0  0  0  0  0
   36.4640   29.5400   30.2690 N   0  0  0  0  0  0  0  0  0  0  0  0
   37.5930   27.8500   30.0900 H   0  0  0  0  0  0  0  0  0  0  0  0
   35.0060   28.0250   33.4970 H   0  0  0  0  0  0  0  0  0  0  0  0
   35.1220   31.1940   30.7650 H   0  0  0  0  0  0  0  0  0  0  0  0
   38.4690   27.3660   33.7430 O   0  0  0  0  0  0  0  0  0  0  0  0
   39.2490   27.7510   33.2210 H   0  0  0  0  0  0  0  0  0  0  0  0
   39.3510   24.8940   34.4990 O   0  0  0  0  0  0  0  0  0  0  0  0
   39.9860   23.2410   36.2300 C   0  0  0  0  0  0  0  0  0  0  0  0
   39.2450   24.2970   35.7240 C   0  0  0  0  0  0  0  0  0  0  0  0
   38.2540   24.8490   36.5430 C   0  0  0  0  0  0  0  0  0  0  0  0
   37.6080   25.6850   36.2510 H   0  0  0  0  0  0  0  0  0  0  0  0
   38.0050   24.3700   37.8190 C   0  0  0  0  0  3  0  0  0  0  0  0
   38.7440   23.3180   38.3210 C   0  0  0  0  0  3  0  0  0  0  0  0
   39.7140   22.7910   37.4970 C   0  0  0  0  0  0  0  0  0  0  0  0
   40.9460   22.7340   35.3880 O   0  0  0  0  0  0  0  0  0  0  0  0
   41.6860   22.1910   35.8010 H   0  0  0  0  0  0  0  0  0  0  0  0
   40.4820   21.7180   37.9830 O   0  0  0  0  0  0  0  0  0  0  0  0
   40.8430   21.7550   38.9430 H   0  0  0  0  0  0  0  0  0  0  0  0
  1  6  1  0  0  0  0
  1 19  1  0  0  0  0
  2  1  2  0  0  0  0
  3  4  2  0  0  0  0
  3  2  1  0  0  0  0
  4  5  1  0  0  0  0
  5  9  1  0  0  0  0
  5  6  2  0  0  0  0
  6 21  1  0  0  0  0
  7  3  1  0  0  0  0
  8  4  1  0  0  0  0
 10 11  1  0  0  0  0
 11  2  1  0  0  0  0
 11 12  2  0  0  0  0
 12 17  1  0  0  0  0
 13 12  1  0  0  0  0
 14 13  2  0  0  0  0
 15 10  2  0  0  0  0
 15 14  1  0  0  0  0
 16 10  1  0  0  0  0
 18 14  1  0  0  0  0
 20 19  1  0  0  0  0
 21 23  1  0  0  0  0
 22 28  1  0  0  0  0
 23 22  2  0  0  0  0
 23 24  1  0  0  0  0
 24 26  2  0  0  0  0
 25 24  1  0  0  0  0
 26 27  1  0  0  0  0
 28 31  1  0  0  0  0
 28 27  2  0  0  0  0
 29 30  1  0  0  0  0
 29 22  1  0  0  0  0
 31 32  1  0  0  0  0
M  END
>  <minimizedAffinity>
-5.86960173

$$$$

 OpenBabel03272501193D

 32 34  0  0  0  0  0  0  0  0999 V2000
   37.9520   25.3960   34.1980 C   0  0  0  0  0  0  0  0  0  0  0  0
   37.8340   26.7450   33.9640 C   0  0  0  0  0  0  0  0  0  0  0  0
   38.0370   27.5450   35.1000 C   0  0  0  0  0  0  0  0  0  0  0  0
   38.3340   26.9910   36.3500 C   0  0  0  0  0  0  0  0  0  0  0  0
   38.4300   25.6030   36.4750 C   0  0  0  0  0  0  0  0  0  0  0  0
   38.2330   24.7860   35.3670 C   0  0  0  0  0  0  0  0  0  0  0  0
   37.9740   28.6250   35.0550 H   0  0  0  0  0  0  0  0  0  0  0  0
   38.4850   27.6440   37.2070 H   0  0  0  0  0  0  0  0  0  0  0  0
   38.6620   25.2110   37.4590 H   0  0  0  0  0  0  0  0  0  0  0  0
   36.2180   27.7010   32.3960 C   0  0  0  0  0  0  0  0  0  0  0  0
   37.5330   27.3230   32.6970 C   0  0  0  0  0  0  0  0  0  0  0  0
   38.4990   27.5400   31.7140 C   0  0  0  0  0  0  0  0  0  0  0  0
   38.1000   28.1010   30.5360 N   0  0  0  0  0  0  0  0  0  0  0  0
   36.8210   28.4480   30.2930 C   0  0  0  0  0  0  0  0  0  0  0  0
   35.8580   28.2480   31.2330 N   0  0  0  0  0  0  0  0  0  0  0  0
   35.4080   27.5680   33.1030 H   0  0  0  0  0  0  0  0  0  0  0  0
   39.5140   27.2550   31.9310 H   0  0  0  0  0  0  0  0  0  0  0  0
   36.6840   28.8790   29.3080 H   0  0  0  0  0  0  0  0  0  0  0  0
   37.7650   24.5160   33.1210 O   0  0  0  0  0  0  0  0  0  0  0  0
   36.8090   24.2220   32.9460 H   0  0  0  0  0  0  0  0  0  0  0  0
   38.3430   23.4270   35.5580 O   0  0  0  0  0  0  0  0  0  0  0  0
   40.0000   22.2110   36.9390 C   0  0  0  0  0  0  0  0  0  0  0  0
   39.5070   22.7380   35.7560 C   0  0  0  0  0  0  0  0  0  0  0  0
   40.2700   22.5630   34.5970 C   0  0  0  0  0  0  0  0  0  0  0  0
   39.9810   22.9350   33.6060 H   0  0  0  0  0  0  0  0  0  0  0  0
   41.4800   21.8890   34.6090 C   0  0  0  0  0  3  0  0  0  0  0  0
   41.9690   21.3650   35.7880 C   0  0  0  0  0  3  0  0  0  0  0  0
   41.2020   21.5490   36.9170 C   0  0  0  0  0  0  0  0  0  0  0  0
   39.2150   22.4100   38.0490 O   0  0  0  0  0  0  0  0  0  0  0  0
   39.3700   21.8090   38.8420 H   0  0  0  0  0  0  0  0  0  0  0  0
   41.6760   21.0260   38.1320 O   0  0  0  0  0  0  0  0  0  0  0  0
   42.0710   20.0790   38.1480 H   0  0  0  0  0  0  0  0  0  0  0  0
  1  6  1  0  0  0  0
  2  1  2  0  0  0  0
  2  3  1  0  0  0  0
  3  4  2  0  0  0  0
  4  5  1  0  0  0  0
  4  8  1  0  0  0  0
  5  9  1  0  0  0  0
  6 21  1  0  0  0  0
  6  5  2  0  0  0  0
  7  3  1  0  0  0  0
 10 11  1  0  0  0  0
 10 16  1  0  0  0  0
 11  2  1  0  0  0  0
 12 17  1  0  0  0  0
 12 11  2  0  0  0  0
 13 12  1  0  0  0  0
 14 13  2  0  0  0  0
 14 15  1  0  0  0  0
 15 10  2  0  0  0  0
 18 14  1  0  0  0  0
 19  1  1  0  0  0  0
 20 19  1  0  0  0  0
 21 23  1  0  0  0  0
 22 29  1  0  0  0  0
 23 22  2  0  0  0  0
 24 26  2  0  0  0  0
 24 23  1  0  0  0  0
 25 24  1  0  0  0  0
 26 27  1  0  0  0  0
 27 28  2  0  0  0  0
 28 22  1  0  0  0  0
 28 31  1  0  0  0  0
 29 30  1  0  0  0  0
 31 32  1  0  0  0  0
M  END
>  <minimizedAffinity>
-5.79638481

$$$$

 OpenBabel03272501193D

 32 34  0  0  0  0  0  0  0  0999 V2000
   38.9170   25.8860   32.6060 C   0  0  0  0  0  0  0  0  0  0  0  0
   39.4440   26.9950   31.9880 C   0  0  0  0  0  0  0  0  0  0  0  0
   40.6180   27.4820   32.5870 C   0  0  0  0  0  0  0  0  0  0  0  0
   41.1800   26.8730   33.7130 C   0  0  0  0  0  0  0  0  0  0  0  0
   40.5590   25.7480   34.2610 C   0  0  0  0  0  0  0  0  0  0  0  0
   39.3950   25.2440   33.6900 C   0  0  0  0  0  0  0  0  0  0  0  0
   41.1360   28.3510   32.1990 H   0  0  0  0  0  0  0  0  0  0  0  0
   42.0900   27.2800   34.1480 H   0  0  0  0  0  0  0  0  0  0  0  0
   41.0250   25.3030   35.1340 H   0  0  0  0  0  0  0  0  0  0  0  0
   39.4250   27.3800   29.5730 C   0  0  0  0  0  0  0  0  0  0  0  0
   38.8830   27.6260   30.8400 C   0  0  0  0  0  0  0  0  0  0  0  0
   37.7950   28.4960   30.9100 C   0  0  0  0  0  0  0  0  0  0  0  0
   37.3380   29.0440   29.7470 N   0  0  0  0  0  0  0  0  0  0  0  0
   37.8940   28.7760   28.5500 C   0  0  0  0  0  0  0  0  0  0  0  0
   38.9560   27.9320   28.4520 N   0  0  0  0  0  0  0  0  0  0  0  0
   40.2700   26.7170   29.4310 H   0  0  0  0  0  0  0  0  0  0  0  0
   37.3670   28.6950   31.8770 H   0  0  0  0  0  0  0  0  0  0  0  0
   37.4050   29.2980   27.7350 H   0  0  0  0  0  0  0  0  0  0  0  0
   37.7420   25.3280   32.0780 O   0  0  0  0  0  0  0  0  0  0  0  0
   36.8700   25.7160   32.4230 H   0  0  0  0  0  0  0  0  0  0  0  0
   38.8340   24.1330   34.2780 O   0  0  0  0  0  0  0  0  0  0  0  0
   39.7850   22.8630   36.1800 C   0  0  0  0  0  0  0  0  0  0  0  0
   38.9340   23.7890   35.5970 C   0  0  0  0  0  0  0  0  0  0  0  0
   38.0510   24.4790   36.4340 C   0  0  0  0  0  0  0  0  0  0  0  0
   37.3340   25.2330   36.0870 H   0  0  0  0  0  0  0  0  0  0  0  0
   38.0120   24.2590   37.8010 C   0  0  0  0  0  3  0  0  0  0  0  0
   38.8600   23.3370   38.3800 C   0  0  0  0  0  3  0  0  0  0  0  0
   39.7210   22.6690   37.5360 C   0  0  0  0  0  0  0  0  0  0  0  0
   40.6320   22.2110   35.3160 O   0  0  0  0  0  0  0  0  0  0  0  0
   41.4470   21.7700   35.7090 H   0  0  0  0  0  0  0  0  0  0  0  0
   40.5960   21.7230   38.0980 O   0  0  0  0  0  0  0  0  0  0  0  0
   41.0920   21.9550   38.9670 H   0  0  0  0  0  0  0  0  0  0  0  0
  1  6  1  0  0  0  0
  2  3  1  0  0  0  0
  2  1  2  0  0  0  0
  3  4  2  0  0  0  0
  4  8  1  0  0  0  0
  4  5  1  0  0  0  0
  5  9  1  0  0  0  0
  6  5  2  0  0  0  0
  6 21  1  0  0  0  0
  7  3  1  0  0  0  0
 10 11  1  0  0  0  0
 11 12  2  0  0  0  0
 11  2  1  0  0  0  0
 12 17  1  0  0  0  0
 13 12  1  0  0  0  0
 14 13  2  0  0  0  0
 15 14  1  0  0  0  0
 15 10  2  0  0  0  0
 16 10  1  0  0  0  0
 18 14  1  0  0  0  0
 19 20  1  0  0  0  0
 19  1  1  0  0  0  0
 21 23  1  0  0  0  0
 22 28  1  0  0  0  0
 23 22  2  0  0  0  0
 23 24  1  0  0  0  0
 24 26  2  0  0  0  0
 25 24  1  0  0  0  0
 26 27  1  0  0  0  0
 28 31  1  0  0  0  0
 28 27  2  0  0  0  0
 29 30  1  0  0  0  0
 29 22  1  0  0  0  0
 31 32  1  0  0  0  0
M  END
>  <minimizedAffinity>
-5.59123993

$$$$

 OpenBabel03272501193D

 32 34  0  0  0  0  0  0  0  0999 V2000
   37.0570   24.5240   32.5130 C   0  0  0  0  0  0  0  0  0  0  0  0
   36.2300   23.7130   31.7740 C   0  0  0  0  0  0  0  0  0  0  0  0
   35.3010   24.4090   30.9820 C   0  0  0  0  0  0  0  0  0  0  0  0
   35.2450   25.8070   30.9670 C   0  0  0  0  0  0  0  0  0  0  0  0
   36.1360   26.5340   31.7600 C   0  0  0  0  0  0  0  0  0  0  0  0
   37.0660   25.8710   32.5540 C   0  0  0  0  0  0  0  0  0  0  0  0
   34.5900   23.8910   30.3500 H   0  0  0  0  0  0  0  0  0  0  0  0
   34.5110   26.3100   30.3400 H   0  0  0  0  0  0  0  0  0  0  0  0
   36.0620   27.6160   31.7210 H   0  0  0  0  0  0  0  0  0  0  0  0
   35.3960   21.5650   32.5930 C   0  0  0  0  0  0  0  0  0  0  0  0
   36.2760   22.2890   31.7790 C   0  0  0  0  0  0  0  0  0  0  0  0
   37.1720   21.5570   31.0000 C   0  0  0  0  0  0  0  0  0  0  0  0
   37.1290   20.1960   31.0830 N   0  0  0  0  0  0  0  0  0  0  0  0
   36.2620   19.5440   31.8820 C   0  0  0  0  0  0  0  0  0  0  0  0
   35.3780   20.2320   32.6530 N   0  0  0  0  0  0  0  0  0  0  0  0
   34.6680   22.0560   33.2280 H   0  0  0  0  0  0  0  0  0  0  0  0
   37.8550   22.1000   30.3700 H   0  0  0  0  0  0  0  0  0  0  0  0
   36.3680   18.4670   31.8230 H   0  0  0  0  0  0  0  0  0  0  0  0
   38.0190   23.9180   33.3370 O   0  0  0  0  0  0  0  0  0  0  0  0
   37.7130   23.6740   34.2740 H   0  0  0  0  0  0  0  0  0  0  0  0
   37.9150   26.6470   33.3120 O   0  0  0  0  0  0  0  0  0  0  0  0
   40.2930   27.0500   33.8720 C   0  0  0  0  0  0  0  0  0  0  0  0
   39.2150   26.9410   33.0080 C   0  0  0  0  0  0  0  0  0  0  0  0
   39.4470   27.1530   31.6450 C   0  0  0  0  0  0  0  0  0  0  0  0
   38.6730   27.0940   30.8710 H   0  0  0  0  0  0  0  0  0  0  0  0
   40.7050   27.4620   31.1540 C   0  0  0  0  0  3  0  0  0  0  0  0
   41.7780   27.5690   32.0160 C   0  0  0  0  0  3  0  0  0  0  0  0
   41.5260   27.3570   33.3540 C   0  0  0  0  0  0  0  0  0  0  0  0
   40.0130   26.8330   35.1990 O   0  0  0  0  0  0  0  0  0  0  0  0
   40.7840   26.6070   35.8060 H   0  0  0  0  0  0  0  0  0  0  0  0
   42.6000   27.4600   34.2540 O   0  0  0  0  0  0  0  0  0  0  0  0
   43.4990   27.0290   34.0110 H   0  0  0  0  0  0  0  0  0  0  0  0
  1  6  1  0  0  0  0
  1 19  1  0  0  0  0
  2 11  1  0  0  0  0
  2  1  2  0  0  0  0
  3  2  1  0  0  0  0
  4  3  2  0  0  0  0
  4  5  1  0  0  0  0
  5  6  2  0  0  0  0
  6 21  1  0  0  0  0
  7  3  1  0  0  0  0
  8  4  1  0  0  0  0
  9  5  1  0  0  0  0
 10 15  1  0  0  0  0
 10 16  1  0  0  0  0
 11 10  2  0  0  0  0
 12 13  2  0  0  0  0
 12 11  1  0  0  0  0
 13 14  1  0  0  0  0
 14 15  2  0  0  0  0
 17 12  1  0  0  0  0
 18 14  1  0  0  0  0
 19 20  1  0  0  0  0
 22 29  1  0  0  0  0
 23 21  1  0  0  0  0
 23 22  2  0  0  0  0
 24 23  1  0  0  0  0
 25 24  1  0  0  0  0
 26 24  2  0  0  0  0
 26 27  1  0  0  0  0
 27 28  2  0  0  0  0
 28 22  1  0  0  0  0
 28 31  1  0  0  0  0
 29 30  1  0  0  0  0
 32 31  1  0  0  0  0
M  END
>  <minimizedAffinity>
-5.50158787

$$$$

 OpenBabel03272501193D

 32 34  0  0  0  0  0  0  0  0999 V2000
   36.1960   28.9560   33.4000 C   0  0  0  0  0  0  0  0  0  0  0  0
   35.5250   30.1520   33.4890 C   0  0  0  0  0  0  0  0  0  0  0  0
   35.4820   30.8770   32.2870 C   0  0  0  0  0  0  0  0  0  0  0  0
   36.0780   30.3990   31.1150 C   0  0  0  0  0  0  0  0  0  0  0  0
   36.7360   29.1680   31.1380 C   0  0  0  0  0  0  0  0  0  0  0  0
   36.7960   28.4280   32.3150 C   0  0  0  0  0  0  0  0  0  0  0  0
   34.9830   31.8360   32.2180 H   0  0  0  0  0  0  0  0  0  0  0  0
   36.0230   30.9900   30.2030 H   0  0  0  0  0  0  0  0  0  0  0  0
   37.1860   28.8300   30.2100 H   0  0  0  0  0  0  0  0  0  0  0  0
   35.6590   31.4210   35.5760 C   0  0  0  0  0  0  0  0  0  0  0  0
   34.9130   30.6510   34.6750 C   0  0  0  0  0  0  0  0  0  0  0  0
   33.5770   30.4080   34.9980 C   0  0  0  0  0  0  0  0  0  0  0  0
   33.0940   30.9350   36.1600 N   0  0  0  0  0  0  0  0  0  0  0  0
   33.8520   31.6710   36.9950 C   0  0  0  0  0  0  0  0  0  0  0  0
   35.1570   31.9230   36.7060 N   0  0  0  0  0  0  0  0  0  0  0  0
   36.7020   31.6560   35.4010 H   0  0  0  0  0  0  0  0  0  0  0  0
   32.9910   29.8180   34.3160 H   0  0  0  0  0  0  0  0  0  0  0  0
   33.3060   32.0070   37.8690 H   0  0  0  0  0  0  0  0  0  0  0  0
   36.2920   28.1610   34.5530 O   0  0  0  0  0  0  0  0  0  0  0  0
   37.0800   28.3550   35.1640 H   0  0  0  0  0  0  0  0  0  0  0  0
   37.4590   27.2230   32.2700 O   0  0  0  0  0  0  0  0  0  0  0  0
   37.3310   24.7540   32.4190 C   0  0  0  0  0  0  0  0  0  0  0  0
   36.8900   26.0050   32.0170 C   0  0  0  0  0  0  0  0  0  0  0  0
   35.7190   26.0710   31.2560 C   0  0  0  0  0  0  0  0  0  0  0  0
   35.2770   27.0020   30.8830 H   0  0  0  0  0  0  0  0  0  0  0  0
   35.0080   24.9350   30.9030 C   0  0  0  0  0  3  0  0  0  0  0  0
   35.4480   23.6900   31.3040 C   0  0  0  0  0  3  0  0  0  0  0  0
   36.6030   23.6490   32.0530 C   0  0  0  0  0  0  0  0  0  0  0  0
   38.4850   24.7430   33.1640 O   0  0  0  0  0  0  0  0  0  0  0  0
   38.6730   23.9230   33.7170 H   0  0  0  0  0  0  0  0  0  0  0  0
   37.0750   22.3940   32.4750 O   0  0  0  0  0  0  0  0  0  0  0  0
   36.4080   21.7110   32.8520 H   0  0  0  0  0  0  0  0  0  0  0  0
  1  2  1  0  0  0  0
  1 19  1  0  0  0  0
  2 11  1  0  0  0  0
  3  2  2  0  0  0  0
  4  5  2  0  0  0  0
  4  3  1  0  0  0  0
  5  6  1  0  0  0  0
  6  1  2  0  0  0  0
  7  3  1  0  0  0  0
  8  4  1  0  0  0  0
  9  5  1  0  0  0  0
 10 15  1  0  0  0  0
 11 12  1  0  0  0  0
 11 10  2  0  0  0  0
 12 13  2  0  0  0  0
 13 14  1  0  0  0  0
 14 18  1  0  0  0  0
 15 14  2  0  0  0  0
 16 10  1  0  0  0  0
 17 12  1  0  0  0  0
 19 20  1  0  0  0  0
 21  6  1  0  0  0  0
 22 29  1  0  0  0  0
 23 21  1  0  0  0  0
 23 22  2  0  0  0  0
 24 23  1  0  0  0  0
 25 24  1  0  0  0  0
 26 24  2  0  0  0  0
 26 27  1  0  0  0  0
 27 28  2  0  0  0  0
 28 22  1  0  0  0  0
 28 31  1  0  0  0  0
 29 30  1  0  0  0  0
 31 32  1  0  0  0  0
M  END
>  <minimizedAffinity>
-5.48169041

$$$$

 OpenBabel03272501193D

 32 34  0  0  0  0  0  0  0  0999 V2000
   35.5210   30.1370   32.8040 C   0  0  0  0  0  0  0  0  0  0  0  0
   35.5690   29.8280   34.1420 C   0  0  0  0  0  0  0  0  0  0  0  0
   36.2470   28.6320   34.4310 C   0  0  0  0  0  0  0  0  0  0  0  0
   36.8150   27.8430   33.4250 C   0  0  0  0  0  0  0  0  0  0  0  0
   36.7060   28.2530   32.0950 C   0  0  0  0  0  0  0  0  0  0  0  0
   36.0390   29.4330   31.7780 C   0  0  0  0  0  0  0  0  0  0  0  0
   36.3580   28.2720   35.4470 H   0  0  0  0  0  0  0  0  0  0  0  0
   37.3320   26.9230   33.6890 H   0  0  0  0  0  0  0  0  0  0  0  0
   37.1590   27.6160   31.3430 H   0  0  0  0  0  0  0  0  0  0  0  0
   33.6240   30.5340   35.4460 C   0  0  0  0  0  0  0  0  0  0  0  0
   34.9960   30.6210   35.1770 C   0  0  0  0  0  0  0  0  0  0  0  0
   35.7440   31.5030   35.9580 C   0  0  0  0  0  0  0  0  0  0  0  0
   35.0920   32.2150   36.9230 N   0  0  0  0  0  0  0  0  0  0  0  0
   33.7680   32.0960   37.1440 C   0  0  0  0  0  0  0  0  0  0  0  0
   33.0140   31.2440   36.3980 N   0  0  0  0  0  0  0  0  0  0  0  0
   32.9720   29.8740   34.8870 H   0  0  0  0  0  0  0  0  0  0  0  0
   36.7990   31.5820   35.7630 H   0  0  0  0  0  0  0  0  0  0  0  0
   33.4190   32.7350   37.9470 H   0  0  0  0  0  0  0  0  0  0  0  0
   34.8630   31.3150   32.4180 O   0  0  0  0  0  0  0  0  0  0  0  0
   33.8640   31.2340   32.2540 H   0  0  0  0  0  0  0  0  0  0  0  0
   35.9690   29.7800   30.4480 O   0  0  0  0  0  0  0  0  0  0  0  0
   37.6950   29.4220   28.7090 C   0  0  0  0  0  0  0  0  0  0  0  0
   37.0200   30.1660   29.6640 C   0  0  0  0  0  0  0  0  0  0  0  0
   37.4390   31.4820   29.8810 C   0  0  0  0  0  0  0  0  0  0  0  0
   36.9820   32.1630   30.6090 H   0  0  0  0  0  0  0  0  0  0  0  0
   38.4920   32.0430   29.1770 C   0  0  0  0  0  3  0  0  0  0  0  0
   39.1630   31.3010   28.2260 C   0  0  0  0  0  3  0  0  0  0  0  0
   38.7330   30.0070   28.0290 C   0  0  0  0  0  0  0  0  0  0  0  0
   37.2460   28.1360   28.5330 O   0  0  0  0  0  0  0  0  0  0  0  0
   37.4910   27.6710   27.6740 H   0  0  0  0  0  0  0  0  0  0  0  0
   39.3990   29.2290   27.0670 O   0  0  0  0  0  0  0  0  0  0  0  0
   39.6290   29.6460   26.1580 H   0  0  0  0  0  0  0  0  0  0  0  0
  1  2  1  0  0  0  0
  2  3  2  0  0  0  0
  2 11  1  0  0  0  0
  3  7  1  0  0  0  0
  4  8  1  0  0  0  0
  4  3  1  0  0  0  0
  5  4  2  0  0  0  0
  6  5  1  0  0  0  0
  6  1  2  0  0  0  0
  9  5  1  0  0  0  0
 10 15  1  0  0  0  0
 11 10  2  0  0  0  0
 11 12  1  0  0  0  0
 12 13  2  0  0  0  0
 13 14  1  0  0  0  0
 14 18  1  0  0  0  0
 15 14  2  0  0  0  0
 16 10  1  0  0  0  0
 17 12  1  0  0  0  0
 19  1  1  0  0  0  0
 20 19  1  0  0  0  0
 21  6  1  0  0  0  0
 22 23  1  0  0  0  0
 23 24  2  0  0  0  0
 23 21  1  0  0  0  0
 24 25  1  0  0  0  0
 26 24  1  0  0  0  0
 27 26  2  0  0  0  0
 28 27  1  0  0  0  0
 28 22  2  0  0  0  0
 29 22  1  0  0  0  0
 30 29  1  0  0  0  0
 31 28  1  0  0  0  0
 32 31  1  0  0  0  0
M  END
>  <minimizedAffinity>
-5.47986317

$$$$
