
 OpenBabel03272510173D

 30 32  0  0  0  0  0  0  0  0999 V2000
   37.2660   29.5100   51.1870 Br  0  0  0  0  0  0  0  0  0  0  0  0
   36.0570   29.2960   49.7200 C   0  0  0  0  0  0  0  0  0  0  0  0
   36.1260   30.1240   48.5990 C   0  0  0  0  0  0  0  0  0  0  0  0
   35.2210   29.9050   47.5820 C   0  0  0  0  0  0  0  0  0  0  0  0
   34.2590   28.9090   47.6260 C   0  0  0  0  0  0  0  0  0  0  0  0
   34.2170   28.1090   48.7430 C   0  0  0  0  0  0  0  0  0  0  0  0
   35.1090   28.3090   49.7720 C   0  0  0  0  0  0  0  0  0  0  0  0
   35.2680   30.5460   46.7050 H   0  0  0  0  0  0  0  0  0  0  0  0
   33.4700   27.3280   48.7890 H   0  0  0  0  0  0  0  0  0  0  0  0
   35.0560   27.6610   50.6510 H   0  0  0  0  0  0  0  0  0  0  0  0
   37.9580   33.1780   49.4180 C   0  0  0  0  0  0  0  0  0  0  0  0
   38.9950   33.1990   48.4620 C   0  0  0  0  0  0  0  0  0  0  0  0
   39.0590   32.1510   47.5290 C   0  0  0  0  0  0  0  0  0  0  0  0
   38.1110   31.1650   47.5990 N   0  0  0  0  0  0  0  0  0  0  0  0
   37.1280   31.1770   48.5310 C   0  0  0  0  0  0  0  0  0  0  0  0
   37.0550   32.1760   49.4320 N   0  0  0  0  0  0  0  0  0  0  0  0
   37.9510   34.0100   50.1160 H   0  0  0  0  0  0  0  0  0  0  0  0
   39.7530   33.9430   48.3680 H   0  0  0  0  0  0  0  0  0  0  0  0
   39.7970   32.0530   46.7530 H   0  0  0  0  0  0  0  0  0  0  0  0
   31.9860   28.6450   46.6770 C   0  0  0  0  0  0  0  0  0  0  0  0
   33.3460   28.7610   46.4900 C   0  0  0  0  0  0  0  0  0  0  0  0
   33.8420   28.7360   45.2120 C   0  0  0  0  0  0  0  0  0  0  0  0
   34.8790   28.8210   44.9930 H   0  0  0  0  0  0  0  0  0  0  0  0
   32.9270   28.5940   44.1690 C   0  0  0  0  0  3  0  0  0  0  0  0
   31.5590   28.4760   44.3520 C   0  0  0  0  0  3  0  0  0  0  0  0
   31.0840   28.5030   45.6440 C   0  0  0  0  0  0  0  0  0  0  0  0
   31.5050   28.6710   47.9860 O   0  0  0  0  0  0  0  0  0  0  0  0
   30.7850   28.0470   48.3200 H   0  0  0  0  0  0  0  0  0  0  0  0
   29.7140   28.3910   45.9190 O   0  0  0  0  0  0  0  0  0  0  0  0
   29.3050   27.4580   46.0770 H   0  0  0  0  0  0  0  0  0  0  0  0
  2  7  1  0  0  0  0
  2  1  1  0  0  0  0
  3  2  2  0  0  0  0
  4  5  2  0  0  0  0
  4  3  1  0  0  0  0
  5  6  1  0  0  0  0
  6  9  1  0  0  0  0
  6  7  2  0  0  0  0
  7 10  1  0  0  0  0
  8  4  1  0  0  0  0
 11 16  1  0  0  0  0
 11 17  1  0  0  0  0
 12 11  2  0  0  0  0
 13 14  2  0  0  0  0
 13 12  1  0  0  0  0
 14 15  1  0  0  0  0
 15  3  1  0  0  0  0
 15 16  2  0  0  0  0
 18 12  1  0  0  0  0
 19 13  1  0  0  0  0
 20 27  1  0  0  0  0
 21 20  1  0  0  0  0
 21  5  1  0  0  0  0
 22 21  2  0  0  0  0
 23 22  1  0  0  0  0
 24 25  2  0  0  0  0
 24 22  1  0  0  0  0
 25 26  1  0  0  0  0
 26 29  1  0  0  0  0
 26 20  2  0  0  0  0
 27 28  1  0  0  0  0
 29 30  1  0  0  0  0
M  END
>  <minimizedAffinity>
-6.31194878

>  <minimizedRMSD>
0.558507621

$$$$
