
 OpenBabel03272506483D

 44 47  0  0  1  0  0  0  0  0999 V2000
   32.0970   28.2950   47.3670 C   0  0  2  0  0  0  0  0  0  0  0  0
   33.3270   28.1770   48.2200 C   0  0  1  0  0  0  0  0  0  0  0  0
   33.8050   26.9080   48.0970 O   0  0  0  0  0  0  0  0  0  0  0  0
   33.1600   26.2690   47.0430 C   0  0  0  0  0  0  0  0  0  0  0  0
   32.5200   27.3480   46.2040 C   0  0  1  0  0  0  0  0  0  0  0  0
   31.1830   27.9000   47.7960 H   0  0  0  0  0  0  0  0  0  0  0  0
   33.1380   28.4890   49.2750 H   0  0  0  0  0  0  0  0  0  0  0  0
   32.4640   25.5670   47.5120 H   0  0  0  0  0  0  0  0  0  0  0  0
   33.8760   25.6550   46.4430 H   0  0  0  0  0  0  0  0  0  0  0  0
   33.2570   27.8720   45.6020 H   0  0  0  0  0  0  0  0  0  0  0  0
   31.9680   29.6070   46.8670 O   0  0  0  0  0  0  0  0  0  0  0  0
   32.0550   30.1960   47.6560 H   0  0  0  0  0  0  0  0  0  0  0  0
   34.5910   29.3190   47.5320 S   0  0  0  0  0  0  0  0  0  0  0  0
   36.9870   29.1900   50.6860 C   0  0  0  0  0  0  0  0  0  0  0  0
   37.3770   30.5110   50.9020 C   0  0  0  0  0  0  0  0  0  0  0  0
   36.8820   31.4830   50.0400 C   0  0  0  0  0  0  0  0  0  0  0  0
   36.0420   31.1020   49.0290 N   0  0  0  0  0  0  0  0  0  0  0  0
   35.6920   29.8060   48.8610 C   0  0  0  0  0  0  0  0  0  0  0  0
   36.1570   28.8360   49.6820 N   0  0  0  0  0  0  0  0  0  0  0  0
   37.3620   28.4210   51.3470 H   0  0  0  0  0  0  0  0  0  0  0  0
   38.0430   30.7650   51.7140 H   0  0  0  0  0  0  0  0  0  0  0  0
   37.1610   32.5140   50.1750 H   0  0  0  0  0  0  0  0  0  0  0  0
   31.4250   26.8270   45.5610 O   0  0  0  0  0  0  0  0  0  0  0  0
   30.1490   29.0260   44.0750 Cl  0  0  0  0  0  0  0  0  0  0  0  0
   29.4570   27.9960   45.3070 C   0  0  0  0  0  0  0  0  0  0  0  0
   30.1540   26.9870   45.9280 C   0  0  0  0  0  0  0  0  0  0  0  0
   29.4830   26.2160   46.8780 C   0  0  0  0  0  0  0  0  0  0  0  0
   28.1650   26.4630   47.1840 C   0  0  0  0  0  0  0  0  0  0  0  0
   27.4550   27.4760   46.5660 C   0  0  0  0  0  0  0  0  0  0  0  0
   28.1080   28.2470   45.6220 C   0  0  0  0  0  0  0  0  0  0  0  0
   29.9260   25.3990   47.4180 H   0  0  0  0  0  0  0  0  0  0  0  0
   27.5780   25.9130   47.9050 H   0  0  0  0  0  0  0  0  0  0  0  0
   26.4100   27.6930   46.7900 H   0  0  0  0  0  0  0  0  0  0  0  0
   27.3380   30.4660   45.7540 C   0  0  0  0  0  0  0  0  0  0  0  0
   27.3780   29.3250   44.9550 C   0  0  0  0  0  0  0  0  0  0  0  0
   26.7740   29.3310   43.7190 C   0  0  0  0  0  0  0  0  0  0  0  0
   26.8700   28.3930   43.1930 H   0  0  0  0  0  0  0  0  0  0  0  0
   26.1340   30.4770   43.2890 C   0  0  0  0  0  3  0  0  0  0  0  0
   26.0800   31.6160   44.0580 C   0  0  0  0  0  3  0  0  0  0  0  0
   26.6920   31.6150   45.3140 C   0  0  0  0  0  0  0  0  0  0  0  0
   27.8960   30.6130   47.0150 O   0  0  0  0  0  0  0  0  0  0  0  0
   27.5740   30.1920   47.8560 H   0  0  0  0  0  0  0  0  0  0  0  0
   26.6040   32.7920   46.0420 O   0  0  0  0  0  0  0  0  0  0  0  0
   26.6550   32.6960   47.0660 H   0  0  0  0  0  0  0  0  0  0  0  0
  1  6  1  1  0  0  0
  1  2  1  0  0  0  0
  2  7  1  1  0  0  0
  3  2  1  0  0  0  0
  4  8  1  0  0  0  0
  4  3  1  0  0  0  0
  5 10  1  6  0  0  0
  5  4  1  0  0  0  0
  5  1  1  0  0  0  0
  9  4  1  0  0  0  0
 11  1  1  0  0  0  0
 11 12  1  0  0  0  0
 13  2  1  0  0  0  0
 13 18  1  0  0  0  0
 14 15  1  0  0  0  0
 14 20  1  0  0  0  0
 15 21  1  0  0  0  0
 16 22  1  0  0  0  0
 16 15  2  0  0  0  0
 17 16  1  0  0  0  0
 18 17  2  0  0  0  0
 18 19  1  0  0  0  0
 19 14  2  0  0  0  0
 23 26  1  0  0  0  0
 23  5  1  0  0  0  0
 24 25  1  0  0  0  0
 25 30  2  0  0  0  0
 25 26  1  0  0  0  0
 26 27  2  0  0  0  0
 27 28  1  0  0  0  0
 27 31  1  0  0  0  0
 28 32  1  0  0  0  0
 29 33  1  0  0  0  0
 29 28  2  0  0  0  0
 30 29  1  0  0  0  0
 34 41  1  0  0  0  0
 35 30  1  0  0  0  0
 35 34  2  0  0  0  0
 36 35  1  0  0  0  0
 37 36  1  0  0  0  0
 38 36  2  0  0  0  0
 38 39  1  0  0  0  0
 39 40  2  0  0  0  0
 40 34  1  0  0  0  0
 40 43  1  0  0  0  0
 41 42  1  0  0  0  0
 43 44  1  0  0  0  0
M  END
>  <minimizedAffinity>
-5.68901777

>  <minimizedRMSD>
0.358730882

$$$$
