
 OpenBabel03272505333D

 42 45  0  0  0  0  0  0  0  0999 V2000
   37.9300   24.3050   34.4410 N   0  0  0  0  0  0  0  0  0  0  0  0
   37.6810   25.6240   34.2270 C   0  0  0  0  0  0  0  0  0  0  0  0
   37.0440   26.0790   33.0770 C   0  0  0  0  0  0  0  0  0  0  0  0
   36.6610   25.1230   32.1290 C   0  0  0  0  0  0  0  0  0  0  0  0
   36.0850   25.4810   31.0790 O   0  0  0  0  0  0  0  0  0  0  0  0
   36.9170   23.7900   32.3510 N   0  0  0  0  0  0  0  0  0  0  0  0
   37.5310   23.4840   33.4880 C   0  0  0  0  0  0  0  0  0  0  0  0
   37.7440   22.2590   33.6480 O   0  0  0  0  0  0  0  0  0  0  0  0
   37.9780   26.3600   34.9640 H   0  0  0  0  0  0  0  0  0  0  0  0
   38.5620   23.3610   37.9720 C   0  0  0  0  0  0  0  0  0  0  0  0
   37.9170   23.8070   36.8130 C   0  0  0  0  0  0  0  0  0  0  0  0
   38.5690   23.8630   35.5950 C   0  0  0  0  0  0  0  0  0  0  0  0
   39.8500   23.4690   35.5840 N   0  0  0  0  0  0  0  0  0  0  0  0
   40.5130   23.0290   36.6890 C   0  0  0  0  0  0  0  0  0  0  0  0
   39.8400   22.9840   37.8890 N   0  0  0  0  0  0  0  0  0  0  0  0
   37.9800   23.3490   38.8770 H   0  0  0  0  0  0  0  0  0  0  0  0
   36.8750   24.1180   36.8640 H   0  0  0  0  0  0  0  0  0  0  0  0
   41.5600   22.7170   36.6370 H   0  0  0  0  0  0  0  0  0  0  0  0
   36.7550   27.4790   32.8060 C   0  0  0  0  0  0  0  0  0  0  0  0
   37.0580   28.1000   31.6290 C   0  0  0  0  0  0  0  0  0  0  0  0
   36.7950   29.4250   31.3490 C   0  0  0  0  0  0  0  0  0  0  0  0
   36.1700   30.1900   32.3450 C   0  0  0  0  0  0  0  0  0  0  0  0
   35.8790   29.5260   33.5210 C   0  0  0  0  0  0  0  0  0  0  0  0
   36.1670   28.2430   33.7100 N   0  0  0  0  0  0  0  0  0  0  0  0
   37.5450   27.5460   30.8280 H   0  0  0  0  0  0  0  0  0  0  0  0
   37.0570   29.8610   30.4060 H   0  0  0  0  0  0  0  0  0  0  0  0
   35.9630   31.2090   32.1420 H   0  0  0  0  0  0  0  0  0  0  0  0
   33.8730   30.1260   34.8490 C   0  0  0  0  0  0  0  0  0  0  0  0
   35.2290   30.2470   34.6080 C   0  0  0  0  0  0  0  0  0  0  0  0
   35.8600   31.1000   35.4880 C   0  0  0  0  0  0  0  0  0  0  0  0
   36.9220   31.2580   35.3780 H   0  0  0  0  0  0  0  0  0  0  0  0
   35.2040   31.7620   36.5030 C   0  0  0  0  0  3  0  0  0  0  0  0
   33.8460   31.5890   36.6800 C   0  0  0  0  0  3  0  0  0  0  0  0
   33.1470   30.7500   35.8370 C   0  0  0  0  0  0  0  0  0  0  0  0
   33.1450   29.2730   33.9980 O   0  0  0  0  0  0  0  0  0  0  0  0
   33.0650   28.3090   34.3530 H   0  0  0  0  0  0  0  0  0  0  0  0
   31.7820   30.5360   35.9660 O   0  0  0  0  0  0  0  0  0  0  0  0
   31.4370   30.3290   36.9060 H   0  0  0  0  0  0  0  0  0  0  0  0
   36.5190   22.8150   31.3690 C   0  0  0  0  0  0  0  0  0  0  0  0
   35.3680   23.1830   30.7600 F   0  0  0  0  0  0  0  0  0  0  0  0
   36.2930   21.5590   31.9040 F   0  0  0  0  0  0  0  0  0  0  0  0
   37.5200   22.7380   30.3930 F   0  0  0  0  0  0  0  0  0  0  0  0
  1 12  1  0  0  0  0
  2  1  1  0  0  0  0
  2  9  1  0  0  0  0
  3  2  2  0  0  0  0
  4  6  1  0  0  0  0
  4  3  1  0  0  0  0
  5  4  2  0  0  0  0
  6  7  1  0  0  0  0
  7  8  2  0  0  0  0
  7  1  1  0  0  0  0
 10 16  1  0  0  0  0
 11 17  1  0  0  0  0
 11 10  2  0  0  0  0
 12 11  1  0  0  0  0
 13 12  2  0  0  0  0
 13 14  1  0  0  0  0
 14 15  2  0  0  0  0
 15 10  1  0  0  0  0
 18 14  1  0  0  0  0
 19  3  1  0  0  0  0
 19 24  1  0  0  0  0
 20 19  2  0  0  0  0
 21 20  1  0  0  0  0
 21 22  2  0  0  0  0
 22 23  1  0  0  0  0
 23 24  2  0  0  0  0
 23 29  1  0  0  0  0
 25 20  1  0  0  0  0
 26 21  1  0  0  0  0
 27 22  1  0  0  0  0
 28 34  1  0  0  0  0
 29 28  2  0  0  0  0
 29 30  1  0  0  0  0
 30 32  2  0  0  0  0
 31 30  1  0  0  0  0
 32 33  1  0  0  0  0
 34 37  1  0  0  0  0
 34 33  2  0  0  0  0
 35 36  1  0  0  0  0
 35 28  1  0  0  0  0
 37 38  1  0  0  0  0
 39 41  1  0  0  0  0
 39  6  1  0  0  0  0
 40 39  1  0  0  0  0
 42 39  1  0  0  0  0
M  END
>  <minimizedAffinity>
-7.48049545

$$$$

 OpenBabel03272505333D

 42 45  0  0  0  0  0  0  0  0999 V2000
   37.2400   23.6670   32.8470 N   0  0  0  0  0  0  0  0  0  0  0  0
   36.8740   24.9240   32.4790 C   0  0  0  0  0  0  0  0  0  0  0  0
   37.1570   26.0360   33.2650 C   0  0  0  0  0  0  0  0  0  0  0  0
   37.8420   25.8210   34.4660 C   0  0  0  0  0  0  0  0  0  0  0  0
   38.1200   26.7890   35.2070 O   0  0  0  0  0  0  0  0  0  0  0  0
   38.2090   24.5480   34.8330 N   0  0  0  0  0  0  0  0  0  0  0  0
   37.8810   23.5700   33.9970 C   0  0  0  0  0  0  0  0  0  0  0  0
   38.2350   22.4280   34.3710 O   0  0  0  0  0  0  0  0  0  0  0  0
   36.3450   25.0850   31.5480 H   0  0  0  0  0  0  0  0  0  0  0  0
   35.4130   20.8620   31.2510 C   0  0  0  0  0  0  0  0  0  0  0  0
   35.7000   21.9740   32.0500 C   0  0  0  0  0  0  0  0  0  0  0  0
   36.9510   22.5620   32.0530 C   0  0  0  0  0  0  0  0  0  0  0  0
   37.8730   22.0100   31.2510 N   0  0  0  0  0  0  0  0  0  0  0  0
   37.6330   20.9300   30.4580 C   0  0  0  0  0  0  0  0  0  0  0  0
   36.3790   20.3640   30.4750 N   0  0  0  0  0  0  0  0  0  0  0  0
   34.4130   20.4670   31.3090 H   0  0  0  0  0  0  0  0  0  0  0  0
   34.9240   22.3910   32.6880 H   0  0  0  0  0  0  0  0  0  0  0  0
   38.4140   20.5110   29.8170 H   0  0  0  0  0  0  0  0  0  0  0  0
   36.7860   27.3980   32.9110 C   0  0  0  0  0  0  0  0  0  0  0  0
   37.0000   27.9440   31.6790 C   0  0  0  0  0  0  0  0  0  0  0  0
   36.6570   29.2320   31.3190 C   0  0  0  0  0  0  0  0  0  0  0  0
   36.0430   30.0370   32.2910 C   0  0  0  0  0  0  0  0  0  0  0  0
   35.8440   29.4480   33.5240 C   0  0  0  0  0  0  0  0  0  0  0  0
   36.2050   28.1980   33.7890 N   0  0  0  0  0  0  0  0  0  0  0  0
   37.4740   27.3570   30.8940 H   0  0  0  0  0  0  0  0  0  0  0  0
   36.8490   29.6090   30.3360 H   0  0  0  0  0  0  0  0  0  0  0  0
   35.7760   31.0280   32.0270 H   0  0  0  0  0  0  0  0  0  0  0  0
   33.8540   30.1320   34.8360 C   0  0  0  0  0  0  0  0  0  0  0  0
   35.2120   30.2160   34.5900 C   0  0  0  0  0  0  0  0  0  0  0  0
   35.8640   31.0800   35.4440 C   0  0  0  0  0  0  0  0  0  0  0  0
   36.9290   31.2110   35.3280 H   0  0  0  0  0  0  0  0  0  0  0  0
   35.2250   31.7870   36.4390 C   0  0  0  0  0  3  0  0  0  0  0  0
   33.8640   31.6490   36.6230 C   0  0  0  0  0  3  0  0  0  0  0  0
   33.1440   30.8020   35.8060 C   0  0  0  0  0  0  0  0  0  0  0  0
   33.1060   29.2710   34.0120 O   0  0  0  0  0  0  0  0  0  0  0  0
   33.0050   28.3200   34.3950 H   0  0  0  0  0  0  0  0  0  0  0  0
   31.7740   30.6230   35.9430 O   0  0  0  0  0  0  0  0  0  0  0  0
   31.4270   30.4510   36.8890 H   0  0  0  0  0  0  0  0  0  0  0  0
   38.9130   24.3390   36.0720 C   0  0  0  0  0  0  0  0  0  0  0  0
   38.7540   23.0690   36.5110 F   0  0  0  0  0  0  0  0  0  0  0  0
   38.4770   25.1630   37.0950 F   0  0  0  0  0  0  0  0  0  0  0  0
   40.2780   24.5520   35.8450 F   0  0  0  0  0  0  0  0  0  0  0  0
  1  7  1  0  0  0  0
  2  1  1  0  0  0  0
  2  3  2  0  0  0  0
  3  4  1  0  0  0  0
  4  6  1  0  0  0  0
  4  5  2  0  0  0  0
  6 39  1  0  0  0  0
  7  8  2  0  0  0  0
  7  6  1  0  0  0  0
  9  2  1  0  0  0  0
 10 16  1  0  0  0  0
 10 11  1  0  0  0  0
 11 12  2  0  0  0  0
 11 17  1  0  0  0  0
 12  1  1  0  0  0  0
 13 12  1  0  0  0  0
 14 15  1  0  0  0  0
 14 13  2  0  0  0  0
 15 10  2  0  0  0  0
 18 14  1  0  0  0  0
 19  3  1  0  0  0  0
 19 24  1  0  0  0  0
 20 19  2  0  0  0  0
 21 20  1  0  0  0  0
 21 22  2  0  0  0  0
 22 23  1  0  0  0  0
 23 24  2  0  0  0  0
 23 29  1  0  0  0  0
 25 20  1  0  0  0  0
 26 21  1  0  0  0  0
 27 22  1  0  0  0  0
 28 34  1  0  0  0  0
 29 28  2  0  0  0  0
 29 30  1  0  0  0  0
 30 32  2  0  0  0  0
 31 30  1  0  0  0  0
 32 33  1  0  0  0  0
 34 37  1  0  0  0  0
 34 33  2  0  0  0  0
 35 36  1  0  0  0  0
 35 28  1  0  0  0  0
 37 38  1  0  0  0  0
 39 40  1  0  0  0  0
 39 41  1  0  0  0  0
 42 39  1  0  0  0  0
M  END
>  <minimizedAffinity>
-7.21597958

$$$$

 OpenBabel03272505333D

 42 45  0  0  0  0  0  0  0  0999 V2000
   37.3810   24.2330   32.9680 N   0  0  0  0  0  0  0  0  0  0  0  0
   37.0040   25.4640   32.5320 C   0  0  0  0  0  0  0  0  0  0  0  0
   37.0180   26.5790   33.3650 C   0  0  0  0  0  0  0  0  0  0  0  0
   37.4370   26.3930   34.6870 C   0  0  0  0  0  0  0  0  0  0  0  0
   37.4670   27.3630   35.4740 O   0  0  0  0  0  0  0  0  0  0  0  0
   37.8170   25.1450   35.1210 N   0  0  0  0  0  0  0  0  0  0  0  0
   37.7600   24.1620   34.2300 C   0  0  0  0  0  0  0  0  0  0  0  0
   38.1140   23.0430   34.6700 O   0  0  0  0  0  0  0  0  0  0  0  0
   36.6820   25.6030   31.5080 H   0  0  0  0  0  0  0  0  0  0  0  0
   36.2080   21.2520   31.0980 C   0  0  0  0  0  0  0  0  0  0  0  0
   36.2230   22.3650   31.9460 C   0  0  0  0  0  0  0  0  0  0  0  0
   37.3630   23.1260   32.1260 C   0  0  0  0  0  0  0  0  0  0  0  0
   38.4530   22.7390   31.4470 N   0  0  0  0  0  0  0  0  0  0  0  0
   38.4800   21.6630   30.6140 C   0  0  0  0  0  0  0  0  0  0  0  0
   37.3310   20.9230   30.4530 N   0  0  0  0  0  0  0  0  0  0  0  0
   35.2790   20.7160   31.0160 H   0  0  0  0  0  0  0  0  0  0  0  0
   35.3170   22.6460   32.4790 H   0  0  0  0  0  0  0  0  0  0  0  0
   39.3910   21.3810   30.0790 H   0  0  0  0  0  0  0  0  0  0  0  0
   36.6250   27.9140   32.9420 C   0  0  0  0  0  0  0  0  0  0  0  0
   37.0310   28.4890   31.7730 C   0  0  0  0  0  0  0  0  0  0  0  0
   36.6720   29.7520   31.3500 C   0  0  0  0  0  0  0  0  0  0  0  0
   35.8270   30.5010   32.1830 C   0  0  0  0  0  0  0  0  0  0  0  0
   35.4370   29.8860   33.3570 C   0  0  0  0  0  0  0  0  0  0  0  0
   35.8290   28.6620   33.6890 N   0  0  0  0  0  0  0  0  0  0  0  0
   37.6880   27.9450   31.0960 H   0  0  0  0  0  0  0  0  0  0  0  0
   37.0220   30.1530   30.4220 H   0  0  0  0  0  0  0  0  0  0  0  0
   35.5450   31.4730   31.8700 H   0  0  0  0  0  0  0  0  0  0  0  0
   35.0200   31.0900   35.4840 C   0  0  0  0  0  0  0  0  0  0  0  0
   34.5580   30.5950   34.2790 C   0  0  0  0  0  0  0  0  0  0  0  0
   33.2190   30.8470   34.0690 C   0  0  0  0  0  0  0  0  0  0  0  0
   32.7680   30.4970   33.1530 H   0  0  0  0  0  0  0  0  0  0  0  0
   32.4260   31.5220   34.9710 C   0  0  0  0  0  3  0  0  0  0  0  0
   32.9620   31.9860   36.1540 C   0  0  0  0  0  3  0  0  0  0  0  0
   34.2960   31.7720   36.4340 C   0  0  0  0  0  0  0  0  0  0  0  0
   36.3800   30.8800   35.7840 O   0  0  0  0  0  0  0  0  0  0  0  0
   36.9900   31.6550   35.4890 H   0  0  0  0  0  0  0  0  0  0  0  0
   34.8900   32.2150   37.6070 O   0  0  0  0  0  0  0  0  0  0  0  0
   34.7070   33.1850   37.8760 H   0  0  0  0  0  0  0  0  0  0  0  0
   38.2460   24.9650   36.4840 C   0  0  0  0  0  0  0  0  0  0  0  0
   38.3960   26.1580   37.1060 F   0  0  0  0  0  0  0  0  0  0  0  0
   39.4610   24.3110   36.5940 F   0  0  0  0  0  0  0  0  0  0  0  0
   37.2590   24.2420   37.1660 F   0  0  0  0  0  0  0  0  0  0  0  0
  1  7  1  0  0  0  0
  2  1  1  0  0  0  0
  2  3  2  0  0  0  0
  3  4  1  0  0  0  0
  4  6  1  0  0  0  0
  4  5  2  0  0  0  0
  6 39  1  0  0  0  0
  7  8  2  0  0  0  0
  7  6  1  0  0  0  0
  9  2  1  0  0  0  0
 10 11  1  0  0  0  0
 11 12  2  0  0  0  0
 11 17  1  0  0  0  0
 12  1  1  0  0  0  0
 13 12  1  0  0  0  0
 14 13  2  0  0  0  0
 15 14  1  0  0  0  0
 15 10  2  0  0  0  0
 16 10  1  0  0  0  0
 18 14  1  0  0  0  0
 19  3  1  0  0  0  0
 19 24  1  0  0  0  0
 20 19  2  0  0  0  0
 21 20  1  0  0  0  0
 21 22  2  0  0  0  0
 22 23  1  0  0  0  0
 23 24  2  0  0  0  0
 23 29  1  0  0  0  0
 25 20  1  0  0  0  0
 26 21  1  0  0  0  0
 27 22  1  0  0  0  0
 28 35  1  0  0  0  0
 28 34  1  0  0  0  0
 29 28  2  0  0  0  0
 30 29  1  0  0  0  0
 30 32  2  0  0  0  0
 31 30  1  0  0  0  0
 32 33  1  0  0  0  0
 33 34  2  0  0  0  0
 34 37  1  0  0  0  0
 36 35  1  0  0  0  0
 37 38  1  0  0  0  0
 39 41  1  0  0  0  0
 39 40  1  0  0  0  0
 39 42  1  0  0  0  0
M  END
>  <minimizedAffinity>
-7.21171999

$$$$

 OpenBabel03272505333D

 42 45  0  0  0  0  0  0  0  0999 V2000
   38.4160   25.2080   33.4530 N   0  0  0  0  0  0  0  0  0  0  0  0
   38.0740   26.5240   33.4250 C   0  0  0  0  0  0  0  0  0  0  0  0
   36.9750   26.9860   32.7080 C   0  0  0  0  0  0  0  0  0  0  0  0
   36.2170   26.0420   32.0060 C   0  0  0  0  0  0  0  0  0  0  0  0
   35.2200   26.4070   31.3480 O   0  0  0  0  0  0  0  0  0  0  0  0
   36.5680   24.7120   32.0390 N   0  0  0  0  0  0  0  0  0  0  0  0
   37.6380   24.3980   32.7590 C   0  0  0  0  0  0  0  0  0  0  0  0
   37.9210   23.1770   32.7600 O   0  0  0  0  0  0  0  0  0  0  0  0
   38.6630   27.2500   33.9700 H   0  0  0  0  0  0  0  0  0  0  0  0
   41.9180   24.5310   34.4690 C   0  0  0  0  0  0  0  0  0  0  0  0
   40.8120   24.9860   33.7430 C   0  0  0  0  0  0  0  0  0  0  0  0
   39.5180   24.7580   34.1730 C   0  0  0  0  0  0  0  0  0  0  0  0
   39.3800   24.0760   35.3200 N   0  0  0  0  0  0  0  0  0  0  0  0
   40.4300   23.6170   36.0550 C   0  0  0  0  0  0  0  0  0  0  0  0
   41.7070   23.8590   35.6040 N   0  0  0  0  0  0  0  0  0  0  0  0
   42.8900   24.7520   34.0630 H   0  0  0  0  0  0  0  0  0  0  0  0
   40.9670   25.5350   32.8170 H   0  0  0  0  0  0  0  0  0  0  0  0
   40.2740   23.0660   36.9860 H   0  0  0  0  0  0  0  0  0  0  0  0
   36.5710   28.3820   32.6490 C   0  0  0  0  0  0  0  0  0  0  0  0
   36.7840   29.1860   31.5670 C   0  0  0  0  0  0  0  0  0  0  0  0
   36.4110   30.5120   31.4860 C   0  0  0  0  0  0  0  0  0  0  0  0
   35.7660   31.0750   32.5980 C   0  0  0  0  0  0  0  0  0  0  0  0
   35.5680   30.2300   33.6730 C   0  0  0  0  0  0  0  0  0  0  0  0
   35.9590   28.9610   33.6680 N   0  0  0  0  0  0  0  0  0  0  0  0
   37.2820   28.7920   30.6820 H   0  0  0  0  0  0  0  0  0  0  0  0
   36.6040   31.0970   30.6110 H   0  0  0  0  0  0  0  0  0  0  0  0
   35.4750   32.0930   32.5480 H   0  0  0  0  0  0  0  0  0  0  0  0
   33.6120   30.3680   35.1900 C   0  0  0  0  0  0  0  0  0  0  0  0
   34.9050   30.7360   34.8680 C   0  0  0  0  0  0  0  0  0  0  0  0
   35.4630   31.6050   35.7820 C   0  0  0  0  0  0  0  0  0  0  0  0
   36.4710   31.9490   35.6150 H   0  0  0  0  0  0  0  0  0  0  0  0
   34.7970   32.0580   36.9000 C   0  0  0  0  0  3  0  0  0  0  0  0
   33.5050   31.6430   37.1530 C   0  0  0  0  0  3  0  0  0  0  0  0
   32.8810   30.7730   36.2820 C   0  0  0  0  0  0  0  0  0  0  0  0
   32.9620   29.4800   34.3120 O   0  0  0  0  0  0  0  0  0  0  0  0
   33.0690   28.4900   34.5740 H   0  0  0  0  0  0  0  0  0  0  0  0
   31.5840   30.3220   36.4840 O   0  0  0  0  0  0  0  0  0  0  0  0
   31.3580   29.9800   37.4210 H   0  0  0  0  0  0  0  0  0  0  0  0
   35.7810   23.7500   31.3120 C   0  0  0  0  0  0  0  0  0  0  0  0
   34.9660   23.0620   32.1450 F   0  0  0  0  0  0  0  0  0  0  0  0
   36.5470   22.8070   30.6480 F   0  0  0  0  0  0  0  0  0  0  0  0
   34.9810   24.4380   30.3930 F   0  0  0  0  0  0  0  0  0  0  0  0
  1 12  1  0  0  0  0
  2  1  1  0  0  0  0
  2  9  1  0  0  0  0
  3  2  2  0  0  0  0
  4  6  1  0  0  0  0
  4  3  1  0  0  0  0
  5  4  2  0  0  0  0
  6  7  1  0  0  0  0
  7  8  2  0  0  0  0
  7  1  1  0  0  0  0
 10 15  1  0  0  0  0
 11 12  1  0  0  0  0
 11 10  2  0  0  0  0
 12 13  2  0  0  0  0
 13 14  1  0  0  0  0
 14 18  1  0  0  0  0
 15 14  2  0  0  0  0
 16 10  1  0  0  0  0
 17 11  1  0  0  0  0
 19  3  1  0  0  0  0
 19 24  1  0  0  0  0
 20 19  2  0  0  0  0
 21 20  1  0  0  0  0
 21 22  2  0  0  0  0
 22 23  1  0  0  0  0
 23 29  1  0  0  0  0
 24 23  2  0  0  0  0
 25 20  1  0  0  0  0
 26 21  1  0  0  0  0
 27 22  1  0  0  0  0
 28 34  1  0  0  0  0
 29 28  2  0  0  0  0
 29 30  1  0  0  0  0
 30 32  2  0  0  0  0
 31 30  1  0  0  0  0
 32 33  1  0  0  0  0
 34 37  1  0  0  0  0
 34 33  2  0  0  0  0
 35 36  1  0  0  0  0
 35 28  1  0  0  0  0
 37 38  1  0  0  0  0
 39  6  1  0  0  0  0
 39 40  1  0  0  0  0
 41 39  1  0  0  0  0
 42 39  1  0  0  0  0
M  END
>  <minimizedAffinity>
-7.0727067

$$$$

 OpenBabel03272505333D

 42 45  0  0  0  0  0  0  0  0999 V2000
   38.1710   25.6710   34.0780 N   0  0  0  0  0  0  0  0  0  0  0  0
   37.2260   26.6390   33.9420 C   0  0  0  0  0  0  0  0  0  0  0  0
   37.2710   27.5760   32.9140 C   0  0  0  0  0  0  0  0  0  0  0  0
   38.3350   27.4910   32.0090 C   0  0  0  0  0  0  0  0  0  0  0  0
   38.4190   28.3100   31.0680 O   0  0  0  0  0  0  0  0  0  0  0  0
   39.2870   26.5100   32.1530 N   0  0  0  0  0  0  0  0  0  0  0  0
   39.1330   25.6770   33.1740 C   0  0  0  0  0  0  0  0  0  0  0  0
   40.0230   24.8000   33.2670 O   0  0  0  0  0  0  0  0  0  0  0  0
   36.4050   26.7000   34.6450 H   0  0  0  0  0  0  0  0  0  0  0  0
   38.1210   24.1810   37.4750 C   0  0  0  0  0  0  0  0  0  0  0  0
   38.1760   25.1200   36.4390 C   0  0  0  0  0  0  0  0  0  0  0  0
   38.1160   24.7400   35.1110 C   0  0  0  0  0  0  0  0  0  0  0  0
   38.0040   23.4260   34.8690 N   0  0  0  0  0  0  0  0  0  0  0  0
   37.9470   22.4820   35.8480 C   0  0  0  0  0  0  0  0  0  0  0  0
   38.0090   22.8880   37.1620 N   0  0  0  0  0  0  0  0  0  0  0  0
   38.1740   24.5620   38.4800 H   0  0  0  0  0  0  0  0  0  0  0  0
   38.2680   26.1780   36.6770 H   0  0  0  0  0  0  0  0  0  0  0  0
   37.8550   21.4190   35.6080 H   0  0  0  0  0  0  0  0  0  0  0  0
   36.2830   28.6280   32.7290 C   0  0  0  0  0  0  0  0  0  0  0  0
   35.9850   29.1810   31.5170 C   0  0  0  0  0  0  0  0  0  0  0  0
   35.0540   30.1780   31.3160 C   0  0  0  0  0  0  0  0  0  0  0  0
   34.3610   30.6580   32.4380 C   0  0  0  0  0  0  0  0  0  0  0  0
   34.6900   30.0730   33.6450 C   0  0  0  0  0  0  0  0  0  0  0  0
   35.6030   29.1150   33.7520 N   0  0  0  0  0  0  0  0  0  0  0  0
   36.4980   28.8400   30.6190 H   0  0  0  0  0  0  0  0  0  0  0  0
   34.8610   30.5770   30.3410 H   0  0  0  0  0  0  0  0  0  0  0  0
   33.6430   31.4250   32.2960 H   0  0  0  0  0  0  0  0  0  0  0  0
   34.6460   31.3300   35.7820 C   0  0  0  0  0  0  0  0  0  0  0  0
   34.0170   30.5140   34.8610 C   0  0  0  0  0  0  0  0  0  0  0  0
   32.7280   30.1850   35.2220 C   0  0  0  0  0  0  0  0  0  0  0  0
   32.1560   29.5490   34.5630 H   0  0  0  0  0  0  0  0  0  0  0  0
   32.1310   30.6250   36.3830 C   0  0  0  0  0  3  0  0  0  0  0  0
   32.8260   31.4390   37.2540 C   0  0  0  0  0  3  0  0  0  0  0  0
   34.1220   31.8110   36.9590 C   0  0  0  0  0  0  0  0  0  0  0  0
   35.9680   31.7190   35.4950 O   0  0  0  0  0  0  0  0  0  0  0  0
   36.0330   32.6170   34.9930 H   0  0  0  0  0  0  0  0  0  0  0  0
   34.8690   32.6280   37.7960 O   0  0  0  0  0  0  0  0  0  0  0  0
   34.4120   33.4760   38.1370 H   0  0  0  0  0  0  0  0  0  0  0  0
   40.3780   26.4330   31.2150 C   0  0  0  0  0  0  0  0  0  0  0  0
   39.9650   26.7450   29.9650 F   0  0  0  0  0  0  0  0  0  0  0  0
   40.9450   25.1730   31.1370 F   0  0  0  0  0  0  0  0  0  0  0  0
   41.3520   27.3650   31.5940 F   0  0  0  0  0  0  0  0  0  0  0  0
  1 12  1  0  0  0  0
  2  1  1  0  0  0  0
  2  9  1  0  0  0  0
  3  2  2  0  0  0  0
  4  6  1  0  0  0  0
  4  3  1  0  0  0  0
  5  4  2  0  0  0  0
  6  7  1  0  0  0  0
  7  8  2  0  0  0  0
  7  1  1  0  0  0  0
 10 16  1  0  0  0  0
 11 17  1  0  0  0  0
 11 10  2  0  0  0  0
 12 11  1  0  0  0  0
 13 12  2  0  0  0  0
 13 14  1  0  0  0  0
 14 15  2  0  0  0  0
 15 10  1  0  0  0  0
 18 14  1  0  0  0  0
 19  3  1  0  0  0  0
 19 24  1  0  0  0  0
 20 19  2  0  0  0  0
 21 20  1  0  0  0  0
 21 22  2  0  0  0  0
 22 23  1  0  0  0  0
 23 24  2  0  0  0  0
 23 29  1  0  0  0  0
 25 20  1  0  0  0  0
 26 21  1  0  0  0  0
 27 22  1  0  0  0  0
 28 34  1  0  0  0  0
 29 30  1  0  0  0  0
 29 28  2  0  0  0  0
 30 32  2  0  0  0  0
 31 30  1  0  0  0  0
 32 33  1  0  0  0  0
 34 33  2  0  0  0  0
 34 37  1  0  0  0  0
 35 28  1  0  0  0  0
 36 35  1  0  0  0  0
 37 38  1  0  0  0  0
 39 42  1  0  0  0  0
 39  6  1  0  0  0  0
 40 39  1  0  0  0  0
 41 39  1  0  0  0  0
M  END
>  <minimizedAffinity>
-6.91835737

$$$$

 OpenBabel03272505333D

 42 45  0  0  0  0  0  0  0  0999 V2000
   36.7260   27.2610   32.0740 N   0  0  0  0  0  0  0  0  0  0  0  0
   37.9590   27.2730   32.6460 C   0  0  0  0  0  0  0  0  0  0  0  0
   38.7150   26.1150   32.7990 C   0  0  0  0  0  0  0  0  0  0  0  0
   38.1590   24.9160   32.3390 C   0  0  0  0  0  0  0  0  0  0  0  0
   38.7990   23.8480   32.4540 O   0  0  0  0  0  0  0  0  0  0  0  0
   36.9110   24.9100   31.7620 N   0  0  0  0  0  0  0  0  0  0  0  0
   36.2910   26.0800   31.6740 C   0  0  0  0  0  0  0  0  0  0  0  0
   35.1580   26.0280   31.1420 O   0  0  0  0  0  0  0  0  0  0  0  0
   38.3840   28.2040   33.0000 H   0  0  0  0  0  0  0  0  0  0  0  0
   35.5360   30.5440   30.8250 C   0  0  0  0  0  0  0  0  0  0  0  0
   36.2880   29.3740   30.9700 C   0  0  0  0  0  0  0  0  0  0  0  0
   35.9790   28.4250   31.9270 C   0  0  0  0  0  0  0  0  0  0  0  0
   34.9220   28.6880   32.7090 N   0  0  0  0  0  0  0  0  0  0  0  0
   34.1640   29.8130   32.6000 C   0  0  0  0  0  0  0  0  0  0  0  0
   34.4940   30.7410   31.6380 N   0  0  0  0  0  0  0  0  0  0  0  0
   35.8450   31.2290   30.0550 H   0  0  0  0  0  0  0  0  0  0  0  0
   37.1400   29.1980   30.3150 H   0  0  0  0  0  0  0  0  0  0  0  0
   33.3090   29.9890   33.2580 H   0  0  0  0  0  0  0  0  0  0  0  0
   40.0370   26.0810   33.4030 C   0  0  0  0  0  0  0  0  0  0  0  0
   40.9450   27.0940   33.2960 C   0  0  0  0  0  0  0  0  0  0  0  0
   42.2040   27.0860   33.8600 C   0  0  0  0  0  0  0  0  0  0  0  0
   42.5790   25.9530   34.5980 C   0  0  0  0  0  0  0  0  0  0  0  0
   41.6330   24.9490   34.6840 C   0  0  0  0  0  0  0  0  0  0  0  0
   40.4400   25.0380   34.1090 N   0  0  0  0  0  0  0  0  0  0  0  0
   40.6980   27.9920   32.7320 H   0  0  0  0  0  0  0  0  0  0  0  0
   42.8770   27.9100   33.7420 H   0  0  0  0  0  0  0  0  0  0  0  0
   43.5440   25.9340   35.0350 H   0  0  0  0  0  0  0  0  0  0  0  0
   41.0540   23.2050   36.3490 C   0  0  0  0  0  0  0  0  0  0  0  0
   41.9430   23.7370   35.4330 C   0  0  0  0  0  0  0  0  0  0  0  0
   43.1070   23.0070   35.3220 C   0  0  0  0  0  0  0  0  0  0  0  0
   43.8620   23.3470   34.6310 H   0  0  0  0  0  0  0  0  0  0  0  0
   43.3570   21.8660   36.0520 C   0  0  0  0  0  3  0  0  0  0  0  0
   42.4180   21.3960   36.9480 C   0  0  0  0  0  3  0  0  0  0  0  0
   41.2280   22.0740   37.1130 C   0  0  0  0  0  0  0  0  0  0  0  0
   39.8350   23.8850   36.5270 O   0  0  0  0  0  0  0  0  0  0  0  0
   39.0760   23.5330   35.9260 H   0  0  0  0  0  0  0  0  0  0  0  0
   40.2470   21.6500   37.9980 O   0  0  0  0  0  0  0  0  0  0  0  0
   39.9960   20.6600   37.9640 H   0  0  0  0  0  0  0  0  0  0  0  0
   36.3490   23.6690   31.2920 C   0  0  0  0  0  0  0  0  0  0  0  0
   35.1800   23.8810   30.6450 F   0  0  0  0  0  0  0  0  0  0  0  0
   36.0750   22.7730   32.3110 F   0  0  0  0  0  0  0  0  0  0  0  0
   37.2480   23.0920   30.3870 F   0  0  0  0  0  0  0  0  0  0  0  0
  1  2  1  0  0  0  0
  2  3  2  0  0  0  0
  2  9  1  0  0  0  0
  3 19  1  0  0  0  0
  4  5  2  0  0  0  0
  4  3  1  0  0  0  0
  6  4  1  0  0  0  0
  7  6  1  0  0  0  0
  7  1  1  0  0  0  0
  8  7  2  0  0  0  0
 10 11  2  0  0  0  0
 10 15  1  0  0  0  0
 11 12  1  0  0  0  0
 12  1  1  0  0  0  0
 12 13  2  0  0  0  0
 14 13  1  0  0  0  0
 14 18  1  0  0  0  0
 15 14  2  0  0  0  0
 16 10  1  0  0  0  0
 17 11  1  0  0  0  0
 19 24  1  0  0  0  0
 20 19  2  0  0  0  0
 20 21  1  0  0  0  0
 21 22  2  0  0  0  0
 22 23  1  0  0  0  0
 22 27  1  0  0  0  0
 23 29  1  0  0  0  0
 24 23  2  0  0  0  0
 25 20  1  0  0  0  0
 26 21  1  0  0  0  0
 28 35  1  0  0  0  0
 28 34  1  0  0  0  0
 29 28  2  0  0  0  0
 30 29  1  0  0  0  0
 30 32  2  0  0  0  0
 31 30  1  0  0  0  0
 32 33  1  0  0  0  0
 33 34  2  0  0  0  0
 34 37  1  0  0  0  0
 36 35  1  0  0  0  0
 38 37  1  0  0  0  0
 39  6  1  0  0  0  0
 39 41  1  0  0  0  0
 40 39  1  0  0  0  0
 42 39  1  0  0  0  0
M  END
>  <minimizedAffinity>
-6.83262253

$$$$

 OpenBabel03272505333D

 42 45  0  0  0  0  0  0  0  0999 V2000
   38.0920   23.6050   34.3030 N   0  0  0  0  0  0  0  0  0  0  0  0
   38.1030   24.8600   33.7800 C   0  0  0  0  0  0  0  0  0  0  0  0
   37.4470   25.1710   32.5930 C   0  0  0  0  0  0  0  0  0  0  0  0
   36.7640   24.1370   31.9420 C   0  0  0  0  0  0  0  0  0  0  0  0
   36.1590   24.3670   30.8730 O   0  0  0  0  0  0  0  0  0  0  0  0
   36.7560   22.8710   32.4770 N   0  0  0  0  0  0  0  0  0  0  0  0
   37.4200   22.7020   33.6140 C   0  0  0  0  0  0  0  0  0  0  0  0
   37.3870   21.5330   34.0650 O   0  0  0  0  0  0  0  0  0  0  0  0
   38.6320   25.6560   34.2880 H   0  0  0  0  0  0  0  0  0  0  0  0
   40.6960   22.4910   36.6980 C   0  0  0  0  0  0  0  0  0  0  0  0
   40.0350   22.7910   35.5020 C   0  0  0  0  0  0  0  0  0  0  0  0
   38.7520   23.3060   35.4910 C   0  0  0  0  0  0  0  0  0  0  0  0
   38.1750   23.4990   36.6860 N   0  0  0  0  0  0  0  0  0  0  0  0
   38.7830   23.2200   37.8710 C   0  0  0  0  0  0  0  0  0  0  0  0
   40.0610   22.7100   37.8530 N   0  0  0  0  0  0  0  0  0  0  0  0
   41.6930   22.0950   36.6160 H   0  0  0  0  0  0  0  0  0  0  0  0
   40.5380   22.6190   34.5530 H   0  0  0  0  0  0  0  0  0  0  0  0
   38.2770   23.3940   38.8250 H   0  0  0  0  0  0  0  0  0  0  0  0
   37.4310   26.4970   31.9960 C   0  0  0  0  0  0  0  0  0  0  0  0
   36.4810   27.4390   32.2700 C   0  0  0  0  0  0  0  0  0  0  0  0
   36.4440   28.7030   31.7180 C   0  0  0  0  0  0  0  0  0  0  0  0
   37.4570   29.0450   30.8090 C   0  0  0  0  0  0  0  0  0  0  0  0
   38.4000   28.0670   30.5590 C   0  0  0  0  0  0  0  0  0  0  0  0
   38.3620   26.8710   31.1350 N   0  0  0  0  0  0  0  0  0  0  0  0
   35.6750   27.2160   32.9680 H   0  0  0  0  0  0  0  0  0  0  0  0
   35.6730   29.4020   31.9680 H   0  0  0  0  0  0  0  0  0  0  0  0
   37.4400   30.0130   30.3780 H   0  0  0  0  0  0  0  0  0  0  0  0
   39.2750   28.3970   28.2630 C   0  0  0  0  0  0  0  0  0  0  0  0
   39.4870   28.3420   29.6270 C   0  0  0  0  0  0  0  0  0  0  0  0
   40.8000   28.5700   29.9800 C   0  0  0  0  0  0  0  0  0  0  0  0
   41.0620   28.5470   31.0260 H   0  0  0  0  0  0  0  0  0  0  0  0
   41.7960   28.8260   29.0640 C   0  0  0  0  0  3  0  0  0  0  0  0
   41.5050   28.8650   27.7150 C   0  0  0  0  0  3  0  0  0  0  0  0
   40.2120   28.6460   27.2870 C   0  0  0  0  0  0  0  0  0  0  0  0
   37.9610   28.1760   27.8090 O   0  0  0  0  0  0  0  0  0  0  0  0
   37.4120   29.0420   27.7020 H   0  0  0  0  0  0  0  0  0  0  0  0
   39.8590   28.6730   25.9450 O   0  0  0  0  0  0  0  0  0  0  0  0
   40.1980   29.4670   25.3970 H   0  0  0  0  0  0  0  0  0  0  0  0
   36.0500   21.8150   31.7980 C   0  0  0  0  0  0  0  0  0  0  0  0
   35.3250   22.3030   30.7650 F   0  0  0  0  0  0  0  0  0  0  0  0
   35.1610   21.1380   32.6140 F   0  0  0  0  0  0  0  0  0  0  0  0
   36.9910   20.9160   31.2800 F   0  0  0  0  0  0  0  0  0  0  0  0
  1 12  1  0  0  0  0
  2  9  1  0  0  0  0
  2  1  1  0  0  0  0
  3  2  2  0  0  0  0
  4  6  1  0  0  0  0
  4  3  1  0  0  0  0
  5  4  2  0  0  0  0
  6  7  1  0  0  0  0
  7  8  2  0  0  0  0
  7  1  1  0  0  0  0
 10 15  1  0  0  0  0
 11 10  2  0  0  0  0
 12 11  1  0  0  0  0
 12 13  2  0  0  0  0
 13 14  1  0  0  0  0
 14 18  1  0  0  0  0
 15 14  2  0  0  0  0
 16 10  1  0  0  0  0
 17 11  1  0  0  0  0
 19 20  1  0  0  0  0
 19  3  1  0  0  0  0
 20 25  1  0  0  0  0
 21 26  1  0  0  0  0
 21 20  2  0  0  0  0
 22 21  1  0  0  0  0
 23 22  2  0  0  0  0
 23 24  1  0  0  0  0
 24 19  2  0  0  0  0
 27 22  1  0  0  0  0
 28 29  1  0  0  0  0
 29 30  2  0  0  0  0
 29 23  1  0  0  0  0
 30 31  1  0  0  0  0
 32 30  1  0  0  0  0
 33 32  2  0  0  0  0
 34 33  1  0  0  0  0
 34 28  2  0  0  0  0
 35 28  1  0  0  0  0
 36 35  1  0  0  0  0
 37 34  1  0  0  0  0
 38 37  1  0  0  0  0
 39  6  1  0  0  0  0
 39 41  1  0  0  0  0
 40 39  1  0  0  0  0
 42 39  1  0  0  0  0
M  END
>  <minimizedAffinity>
-6.76693106

$$$$

 OpenBabel03272505333D

 42 45  0  0  0  0  0  0  0  0999 V2000
   38.0720   23.5980   34.2660 N   0  0  0  0  0  0  0  0  0  0  0  0
   38.1190   24.8520   33.7440 C   0  0  0  0  0  0  0  0  0  0  0  0
   37.4780   25.1810   32.5540 C   0  0  0  0  0  0  0  0  0  0  0  0
   36.7710   24.1670   31.8990 C   0  0  0  0  0  0  0  0  0  0  0  0
   36.1780   24.4130   30.8270 O   0  0  0  0  0  0  0  0  0  0  0  0
   36.7270   22.9000   32.4330 N   0  0  0  0  0  0  0  0  0  0  0  0
   37.3800   22.7130   33.5730 C   0  0  0  0  0  0  0  0  0  0  0  0
   37.3130   21.5450   34.0230 O   0  0  0  0  0  0  0  0  0  0  0  0
   38.6670   25.6330   34.2550 H   0  0  0  0  0  0  0  0  0  0  0  0
   38.8370   23.2950   37.8830 C   0  0  0  0  0  0  0  0  0  0  0  0
   38.1850   23.6160   36.6880 C   0  0  0  0  0  0  0  0  0  0  0  0
   38.7180   23.2800   35.4570 C   0  0  0  0  0  0  0  0  0  0  0  0
   39.8920   22.6330   35.4710 N   0  0  0  0  0  0  0  0  0  0  0  0
   40.5580   22.3030   36.6110 C   0  0  0  0  0  0  0  0  0  0  0  0
   40.0040   22.6490   37.8230 N   0  0  0  0  0  0  0  0  0  0  0  0
   38.3520   23.5930   38.7970 H   0  0  0  0  0  0  0  0  0  0  0  0
   37.2330   24.1420   36.7200 H   0  0  0  0  0  0  0  0  0  0  0  0
   41.5150   21.7740   36.5780 H   0  0  0  0  0  0  0  0  0  0  0  0
   37.5010   26.5080   31.9580 C   0  0  0  0  0  0  0  0  0  0  0  0
   38.4210   26.9070   31.0330 C   0  0  0  0  0  0  0  0  0  0  0  0
   38.4640   28.1580   30.4540 C   0  0  0  0  0  0  0  0  0  0  0  0
   37.4890   29.0890   30.8440 C   0  0  0  0  0  0  0  0  0  0  0  0
   36.5750   28.6480   31.7810 C   0  0  0  0  0  0  0  0  0  0  0  0
   36.6040   27.4220   32.2900 N   0  0  0  0  0  0  0  0  0  0  0  0
   39.1970   26.2180   30.7020 H   0  0  0  0  0  0  0  0  0  0  0  0
   39.2110   28.4170   29.7330 H   0  0  0  0  0  0  0  0  0  0  0  0
   37.5110   30.0540   30.4060 H   0  0  0  0  0  0  0  0  0  0  0  0
   35.2910   29.7640   33.5850 C   0  0  0  0  0  0  0  0  0  0  0  0
   35.5270   29.5530   32.2400 C   0  0  0  0  0  0  0  0  0  0  0  0
   34.6840   30.2750   31.4230 C   0  0  0  0  0  0  0  0  0  0  0  0
   34.7930   30.1740   30.3540 H   0  0  0  0  0  0  0  0  0  0  0  0
   33.7060   31.1200   31.9020 C   0  0  0  0  0  3  0  0  0  0  0  0
   33.5320   31.2780   33.2620 C   0  0  0  0  0  3  0  0  0  0  0  0
   34.3400   30.5870   34.1410 C   0  0  0  0  0  0  0  0  0  0  0  0
   36.1080   29.0670   34.4960 O   0  0  0  0  0  0  0  0  0  0  0  0
   36.9410   29.5970   34.7900 H   0  0  0  0  0  0  0  0  0  0  0  0
   34.2120   30.7070   35.5180 O   0  0  0  0  0  0  0  0  0  0  0  0
   34.1490   31.6560   35.8920 H   0  0  0  0  0  0  0  0  0  0  0  0
   35.9960   21.8640   31.7490 C   0  0  0  0  0  0  0  0  0  0  0  0
   35.2520   22.3790   30.7430 F   0  0  0  0  0  0  0  0  0  0  0  0
   35.1200   21.1780   32.5720 F   0  0  0  0  0  0  0  0  0  0  0  0
   36.9180   20.9690   31.1930 F   0  0  0  0  0  0  0  0  0  0  0  0
  1 12  1  0  0  0  0
  2  9  1  0  0  0  0
  2  1  1  0  0  0  0
  3  2  2  0  0  0  0
  4  6  1  0  0  0  0
  4  3  1  0  0  0  0
  5  4  2  0  0  0  0
  6  7  1  0  0  0  0
  7  8  2  0  0  0  0
  7  1  1  0  0  0  0
 10 16  1  0  0  0  0
 11 17  1  0  0  0  0
 11 10  2  0  0  0  0
 12 13  2  0  0  0  0
 12 11  1  0  0  0  0
 13 14  1  0  0  0  0
 14 15  2  0  0  0  0
 15 10  1  0  0  0  0
 18 14  1  0  0  0  0
 19 24  1  0  0  0  0
 19  3  1  0  0  0  0
 20 19  2  0  0  0  0
 21 22  2  0  0  0  0
 21 20  1  0  0  0  0
 22 23  1  0  0  0  0
 23 29  1  0  0  0  0
 23 24  2  0  0  0  0
 25 20  1  0  0  0  0
 26 21  1  0  0  0  0
 27 22  1  0  0  0  0
 28 34  1  0  0  0  0
 28 35  1  0  0  0  0
 29 28  2  0  0  0  0
 30 32  2  0  0  0  0
 30 29  1  0  0  0  0
 31 30  1  0  0  0  0
 32 33  1  0  0  0  0
 33 34  2  0  0  0  0
 34 37  1  0  0  0  0
 35 36  1  0  0  0  0
 37 38  1  0  0  0  0
 39  6  1  0  0  0  0
 39 41  1  0  0  0  0
 40 39  1  0  0  0  0
 42 39  1  0  0  0  0
M  END
>  <minimizedAffinity>
-6.74128342

$$$$

 OpenBabel03272505333D

 42 45  0  0  0  0  0  0  0  0999 V2000
   36.2790   28.1850   32.5550 N   0  0  0  0  0  0  0  0  0  0  0  0
   36.3800   26.8790   32.9190 C   0  0  0  0  0  0  0  0  0  0  0  0
   37.2960   26.0160   32.3270 C   0  0  0  0  0  0  0  0  0  0  0  0
   38.1250   26.5390   31.3290 C   0  0  0  0  0  0  0  0  0  0  0  0
   38.9650   25.8030   30.7670 O   0  0  0  0  0  0  0  0  0  0  0  0
   38.0180   27.8610   30.9650 N   0  0  0  0  0  0  0  0  0  0  0  0
   37.1050   28.5810   31.6050 C   0  0  0  0  0  0  0  0  0  0  0  0
   37.0430   29.7790   31.2410 O   0  0  0  0  0  0  0  0  0  0  0  0
   35.7360   26.4800   33.6930 H   0  0  0  0  0  0  0  0  0  0  0  0
   34.7250   30.5890   34.9140 C   0  0  0  0  0  0  0  0  0  0  0  0
   35.6540   29.7310   34.3140 C   0  0  0  0  0  0  0  0  0  0  0  0
   35.3590   29.0390   33.1540 C   0  0  0  0  0  0  0  0  0  0  0  0
   34.1370   29.2340   32.6360 N   0  0  0  0  0  0  0  0  0  0  0  0
   33.2070   30.0590   33.1890 C   0  0  0  0  0  0  0  0  0  0  0  0
   33.5270   30.7360   34.3440 N   0  0  0  0  0  0  0  0  0  0  0  0
   35.0370   31.0880   35.8150 H   0  0  0  0  0  0  0  0  0  0  0  0
   36.6350   29.6010   34.7670 H   0  0  0  0  0  0  0  0  0  0  0  0
   32.2210   30.1900   32.7340 H   0  0  0  0  0  0  0  0  0  0  0  0
   37.4390   24.6130   32.6850 C   0  0  0  0  0  0  0  0  0  0  0  0
   36.8050   23.5970   32.0310 C   0  0  0  0  0  0  0  0  0  0  0  0
   36.9250   22.2600   32.3500 C   0  0  0  0  0  0  0  0  0  0  0  0
   37.7600   21.9200   33.4250 C   0  0  0  0  0  0  0  0  0  0  0  0
   38.3850   22.9750   34.0610 C   0  0  0  0  0  0  0  0  0  0  0  0
   38.2150   24.2380   33.6880 N   0  0  0  0  0  0  0  0  0  0  0  0
   36.1460   23.8140   31.1920 H   0  0  0  0  0  0  0  0  0  0  0  0
   36.4010   21.5030   31.8020 H   0  0  0  0  0  0  0  0  0  0  0  0
   37.8600   20.8960   33.6810 H   0  0  0  0  0  0  0  0  0  0  0  0
   38.8550   22.8870   36.4940 C   0  0  0  0  0  0  0  0  0  0  0  0
   39.2700   22.7090   35.1880 C   0  0  0  0  0  0  0  0  0  0  0  0
   40.5730   22.2670   35.0900 C   0  0  0  0  0  0  0  0  0  0  0  0
   40.9860   22.0990   34.1080 H   0  0  0  0  0  0  0  0  0  0  0  0
   41.3750   22.0280   36.1850 C   0  0  0  0  0  3  0  0  0  0  0  0
   40.8860   22.2300   37.4600 C   0  0  0  0  0  3  0  0  0  0  0  0
   39.5910   22.6710   37.6360 C   0  0  0  0  0  0  0  0  0  0  0  0
   37.5350   23.3370   36.6900 O   0  0  0  0  0  0  0  0  0  0  0  0
   36.8550   22.5730   36.8150 H   0  0  0  0  0  0  0  0  0  0  0  0
   39.0450   22.8910   38.8930 O   0  0  0  0  0  0  0  0  0  0  0  0
   39.1780   22.1520   39.5860 H   0  0  0  0  0  0  0  0  0  0  0  0
   38.8770   28.3880   29.9360 C   0  0  0  0  0  0  0  0  0  0  0  0
   38.6120   29.6950   29.7070 F   0  0  0  0  0  0  0  0  0  0  0  0
   38.7350   27.7410   28.7200 F   0  0  0  0  0  0  0  0  0  0  0  0
   40.2040   28.2840   30.3720 F   0  0  0  0  0  0  0  0  0  0  0  0
  1  2  1  0  0  0  0
  1 12  1  0  0  0  0
  2  9  1  0  0  0  0
  3 19  1  0  0  0  0
  3  2  2  0  0  0  0
  4  3  1  0  0  0  0
  5  4  2  0  0  0  0
  6  4  1  0  0  0  0
  6  7  1  0  0  0  0
  7  1  1  0  0  0  0
  8  7  2  0  0  0  0
 10 16  1  0  0  0  0
 11 17  1  0  0  0  0
 11 10  2  0  0  0  0
 12 11  1  0  0  0  0
 13 12  2  0  0  0  0
 13 14  1  0  0  0  0
 14 15  2  0  0  0  0
 15 10  1  0  0  0  0
 18 14  1  0  0  0  0
 19 24  1  0  0  0  0
 20 21  1  0  0  0  0
 20 19  2  0  0  0  0
 21 22  2  0  0  0  0
 22 27  1  0  0  0  0
 22 23  1  0  0  0  0
 23 29  1  0  0  0  0
 24 23  2  0  0  0  0
 25 20  1  0  0  0  0
 26 21  1  0  0  0  0
 28 35  1  0  0  0  0
 28 34  1  0  0  0  0
 29 28  2  0  0  0  0
 30 29  1  0  0  0  0
 30 32  2  0  0  0  0
 31 30  1  0  0  0  0
 32 33  1  0  0  0  0
 33 34  2  0  0  0  0
 34 37  1  0  0  0  0
 35 36  1  0  0  0  0
 37 38  1  0  0  0  0
 39 42  1  0  0  0  0
 39  6  1  0  0  0  0
 40 39  1  0  0  0  0
 41 39  1  0  0  0  0
M  END
>  <minimizedAffinity>
-6.72860336

$$$$
