REMARK  Name = 
REMARK  8 active torsions:
REMARK  status: ('A' for Active; 'I' for Inactive)
REMARK    1  A    between atoms: C_1  and  O_6
REMARK    2  A    between atoms: C_2  and  S_7
REMARK    3  A    between atoms: C_5  and  O_14
REMARK    4  A    between atoms: S_7  and  C_12
REMARK    5  A    between atoms: O_14  and  C_17
REMARK    6  A    between atoms: C_21  and  C_36
REMARK    7  A    between atoms: O_34  and  C_35
REMARK    8  A    between atoms: C_41  and  O_42
REMARK                            x       y       z     vdW  Elec       q    Type
REMARK                         _______ _______ _______ _____ _____    ______ ____
ROOT
ATOM      1  C   UNL     1      32.165  28.530  47.422  0.00  0.00    +0.000 C 
ATOM      2  C   UNL     1      33.407  28.372  48.251  0.00  0.00    +0.000 C 
ATOM      3  O   UNL     1      33.809  27.074  48.164  0.00  0.00    +0.000 OA
ATOM      4  C   UNL     1      33.104  26.436  47.149  0.00  0.00    +0.000 C 
ATOM      5  C   UNL     1      32.505  27.519  46.286  0.00  0.00    +0.000 C 
ATOM      6  H   UNL     1      31.241  28.203  47.886  0.00  0.00    +0.000 HD
ATOM      7  H   UNL     1      33.262  28.732  49.298  0.00  0.00    +0.000 HD
ATOM      8  H   UNL     1      32.381  25.792  47.659  0.00  0.00    +0.000 HD
ATOM      9  H   UNL     1      33.769  25.761  46.556  0.00  0.00    +0.000 HD
ATOM     10  H   UNL     1      33.255  27.978  45.648  0.00  0.00    +0.000 HD
ENDROOT
BRANCH   1  11
ATOM     11  O   UNL     1      32.097  29.828  46.877  0.00  0.00    +0.000 OA
ATOM     12  H   UNL     1      32.237  30.439  47.641  0.00  0.00    +0.000 HD
ENDBRANCH   1  11
BRANCH   2  13
ATOM     13  S   UNL     1      34.716  29.415  47.493  0.00  0.00    +0.000 S 
BRANCH  13  18
ATOM     14  C   UNL     1      37.142  29.285  50.624  0.00  0.00    +0.000 A 
ATOM     15  C   UNL     1      37.634  30.582  50.757  0.00  0.00    +0.000 A 
ATOM     16  C   UNL     1      37.202  31.538  49.844  0.00  0.00    +0.000 A 
ATOM     17  N   UNL     1      36.321  31.164  48.867  0.00  0.00    +0.000 NA
ATOM     18  C   UNL     1      35.870  29.892  48.779  0.00  0.00    +0.000 A 
ATOM     19  N   UNL     1      36.272  28.938  49.651  0.00  0.00    +0.000 NA
ATOM     20  H   UNL     1      37.467  28.529  51.325  0.00  0.00    +0.000 HD
ATOM     21  H   UNL     1      38.330  30.831  51.546  0.00  0.00    +0.000 HD
ATOM     22  H   UNL     1      37.561  32.550  49.915  0.00  0.00    +0.000 HD
ENDBRANCH  13  18
ENDBRANCH   2  13
BRANCH   5  23
ATOM     23  O   UNL     1      31.367  27.039  45.687  0.00  0.00    +0.000 OA
BRANCH  23  26
ATOM     24 CL   UNL     1      29.884  29.108  44.207  0.00  0.00    +0.000 Cl
ATOM     25  C   UNL     1      29.338  28.120  45.542  0.00  0.00    +0.000 A 
ATOM     26  C   UNL     1      30.125  27.171  46.151  0.00  0.00    +0.000 A 
ATOM     27  C   UNL     1      29.566  26.427  47.191  0.00  0.00    +0.000 A 
ATOM     28  C   UNL     1      28.269  26.641  47.594  0.00  0.00    +0.000 A 
ATOM     29  C   UNL     1      27.469  27.593  46.989  0.00  0.00    +0.000 A 
ATOM     30  C   UNL     1      28.010  28.337  45.956  0.00  0.00    +0.000 A 
ATOM     31  H   UNL     1      30.085  25.657  47.732  0.00  0.00    +0.000 HD
ATOM     32  H   UNL     1      27.766  26.109  48.388  0.00  0.00    +0.000 HD
ATOM     33  H   UNL     1      26.438  27.783  47.289  0.00  0.00    +0.000 HD
BRANCH  30  35
ATOM     34  C   UNL     1      27.758  30.615  45.426  0.00  0.00    +0.000 A 
ATOM     35  C   UNL     1      27.185  29.351  45.301  0.00  0.00    +0.000 A 
ATOM     36  C   UNL     1      25.995  29.200  44.626  0.00  0.00    +0.000 A 
ATOM     37  H   UNL     1      25.650  28.178  44.594  0.00  0.00    +0.000 HD
ATOM     38  C   UNL     1      25.386  30.314  44.081  0.00  0.00    +0.000 A 
ATOM     39  C   UNL     1      25.930  31.572  44.191  0.00  0.00    +0.000 A 
ATOM     40  C   UNL     1      27.137  31.729  44.875  0.00  0.00    +0.000 A 
BRANCH  34  41
ATOM     41  O   UNL     1      28.944  30.925  46.072  0.00  0.00    +0.000 OA
ATOM     42  H   UNL     1      29.100  30.919  47.055  0.00  0.00    +0.000 HD
ENDBRANCH  34  41
BRANCH  40  43
ATOM     43  O   UNL     1      27.636  33.022  44.951  0.00  0.00    +0.000 OA
ATOM     44  H   UNL     1      28.244  33.226  45.758  0.00  0.00    +0.000 HD
ENDBRANCH  40  43
ENDBRANCH  30  35
ENDBRANCH  23  26
ENDBRANCH   5  23
TORSDOF 8
