REMARK  Name = 
REMARK  5 active torsions:
REMARK  status: ('A' for Active; 'I' for Inactive)
REMARK    1  A    between atoms: C_1  and  C_8
REMARK    2  A    between atoms: C_3  and  N_12
REMARK    3  A    between atoms: C_10  and  C_13
REMARK    4  A    between atoms: C_17  and  C_19
REMARK    5  A    between atoms: C_19  and  C_32
REMARK                            x       y       z     vdW  Elec       q    Type
REMARK                         _______ _______ _______ _____ _____    ______ ____
ROOT
ATOM      1  C   UNL     1      39.124  31.478  43.293  0.00  0.00    +0.000 A 
ATOM      2  C   UNL     1      40.136  30.570  43.437  0.00  0.00    +0.000 A 
ATOM      3  C   UNL     1      40.873  30.241  42.309  0.00  0.00    +0.000 A 
ATOM      4  C   UNL     1      40.530  30.857  41.115  0.00  0.00    +0.000 A 
ATOM      5  C   UNL     1      39.507  31.776  40.966  0.00  0.00    +0.000 A 
ATOM      6  N   UNL     1      38.831  32.053  42.094  0.00  0.00    +0.000 NA
ATOM      7  H   UNL     1      40.374  30.108  44.385  0.00  0.00    +0.000 HD
ATOM      8  H   UNL     1      41.692  29.535  42.318  0.00  0.00    +0.000 HD
ATOM      9  H   UNL     1      41.101  30.606  40.231  0.00  0.00    +0.000 HD
ENDROOT
BRANCH   1  10
ATOM     10  C   UNL     1      38.327  31.884  44.472  0.00  0.00    +0.000 C 
ATOM     11  O   UNL     1      37.218  32.416  44.376  0.00  0.00    +0.000 OA
ATOM     12  N   UNL     1      38.932  31.617  45.772  0.00  0.00    +0.000 N 
ATOM     13  H   UNL     1      39.914  31.351  45.934  0.00  0.00    +0.000 HD
BRANCH  12  16
ATOM     14  C   UNL     1      38.440  31.101  48.156  0.00  0.00    +0.000 C 
ATOM     15  C   UNL     1      38.721  32.559  48.085  0.00  0.00    +0.000 C 
ATOM     16  C   UNL     1      38.076  31.738  46.933  0.00  0.00    +0.000 C 
ATOM     17  H   UNL     1      39.373  30.491  48.227  0.00  0.00    +0.000 HD
ATOM     18  H   UNL     1      39.751  32.914  47.941  0.00  0.00    +0.000 HD
ATOM     19  H   UNL     1      38.067  33.319  48.536  0.00  0.00    +0.000 HD
ATOM     20  H   UNL     1      36.995  31.995  46.745  0.00  0.00    +0.000 HD
BRANCH  14  25
ATOM     21  C   UNL     1      35.087  30.288  49.511  0.00  0.00    +0.000 A 
ATOM     22  C   UNL     1      35.424  29.585  50.711  0.00  0.00    +0.000 A 
ATOM     23  C   UNL     1      36.808  29.411  51.036  0.00  0.00    +0.000 A 
ATOM     24  N   UNL     1      37.766  29.920  50.192  0.00  0.00    +0.000 NA
ATOM     25  C   UNL     1      37.366  30.576  49.070  0.00  0.00    +0.000 A 
ATOM     26  N   UNL     1      36.050  30.779  48.697  0.00  0.00    +0.000 NA
ATOM     27  H   UNL     1      34.032  30.398  49.301  0.00  0.00    +0.000 HD
ATOM     28  H   UNL     1      34.675  29.190  51.365  0.00  0.00    +0.000 HD
ATOM     29  H   UNL     1      37.103  28.896  51.916  0.00  0.00    +0.000 HD
ENDBRANCH  14  25
ENDBRANCH  12  16
ENDBRANCH   1  10
BRANCH   5  30
ATOM     30  C   UNL     1      39.233  32.355  39.672  0.00  0.00    +0.000 C 
ATOM     31  O   UNL     1      38.804  33.533  39.635  0.00  0.00    +0.000 OA
BRANCH  30  32
ATOM     32  C   UNL     1      39.414  31.690  38.407  0.00  0.00    +0.000 A 
ATOM     33  C   UNL     1      39.046  30.352  38.317  0.00  0.00    +0.000 A 
ATOM     34  H   UNL     1      38.639  29.852  39.202  0.00  0.00    +0.000 HD
ATOM     35  C   UNL     1      39.144  29.553  37.191  0.00  0.00    +0.000 A 
ATOM     36  C   UNL     1      39.652  30.130  36.046  0.00  0.00    +0.000 A 
ATOM     37  N   UNL     1      39.751  29.367  34.946  0.00  0.00    +0.000 NA
ATOM     38  C   UNL     1      40.250  29.927  33.809  0.00  0.00    +0.000 A 
ATOM     39  H   UNL     1      40.310  29.266  32.945  0.00  0.00    +0.000 HD
ATOM     40  C   UNL     1      40.655  31.263  33.770  0.00  0.00    +0.000 A 
ATOM     41  C   UNL     1      40.540  32.034  34.933  0.00  0.00    +0.000 A 
ATOM     42  C   UNL     1      40.026  31.456  36.101  0.00  0.00    +0.000 A 
ATOM     43  C   UNL     1      39.925  32.245  37.228  0.00  0.00    +0.000 A 
ENDBRANCH  30  32
ENDBRANCH   5  30
TORSDOF 5
