
 OpenBabel03272508573D

 43 47  0  0  1  0  0  0  0  0999 V2000
   39.1280   31.4140   43.3340 C   0  0  0  0  0  0  0  0  0  0  0  0
   40.1290   30.4960   43.4890 C   0  0  0  0  0  0  0  0  0  0  0  0
   40.8740   30.1580   42.3690 C   0  0  0  0  0  0  0  0  0  0  0  0
   40.5490   30.7760   41.1710 C   0  0  0  0  0  0  0  0  0  0  0  0
   39.5370   31.7050   41.0100 C   0  0  0  0  0  0  0  0  0  0  0  0
   38.8520   31.9900   42.1310 N   0  0  0  0  0  0  0  0  0  0  0  0
   40.3530   30.0330   44.4400 H   0  0  0  0  0  0  0  0  0  0  0  0
   41.6860   29.4440   42.3860 H   0  0  0  0  0  0  0  0  0  0  0  0
   41.1260   30.5180   40.2920 H   0  0  0  0  0  0  0  0  0  0  0  0
   38.3240   31.8300   44.5050 C   0  0  0  0  0  0  0  0  0  0  0  0
   37.2260   32.3820   44.3970 O   0  0  0  0  0  0  0  0  0  0  0  0
   38.9080   31.5470   45.8110 N   0  0  0  0  0  0  0  0  0  0  0  0
   39.8830   31.2630   45.9840 H   0  0  0  0  0  0  0  0  0  0  0  0
   38.4050   31.0770   48.2020 C   0  0  2  0  0  0  0  0  0  0  0  0
   38.6600   32.5380   48.1000 C   0  0  0  0  0  0  0  0  0  0  0  0
   38.0400   31.6790   46.9620 C   0  0  1  0  0  0  0  0  0  0  0  0
   39.3480   30.4860   48.2950 H   0  0  0  0  0  0  0  0  0  0  0  0
   39.6840   32.9080   47.9560 H   0  0  0  0  0  0  0  0  0  0  0  0
   37.9880   33.2960   48.5280 H   0  0  0  0  0  0  0  0  0  0  0  0
   36.9560   31.9120   46.7590 H   0  0  0  0  0  0  0  0  0  0  0  0
   35.0560   30.2210   49.5410 C   0  0  0  0  0  0  0  0  0  0  0  0
   35.3950   29.5650   50.7670 C   0  0  0  0  0  0  0  0  0  0  0  0
   36.7790   29.4360   51.1140 C   0  0  0  0  0  0  0  0  0  0  0  0
   37.7340   29.9430   50.2660 N   0  0  0  0  0  0  0  0  0  0  0  0
   37.3320   30.5530   49.1190 C   0  0  0  0  0  0  0  0  0  0  0  0
   36.0170   30.7110   48.7240 N   0  0  0  0  0  0  0  0  0  0  0  0
   34.0010   30.2980   49.3150 H   0  0  0  0  0  0  0  0  0  0  0  0
   34.6480   29.1710   51.4240 H   0  0  0  0  0  0  0  0  0  0  0  0
   37.0750   28.9560   52.0130 H   0  0  0  0  0  0  0  0  0  0  0  0
   39.2810   32.2850   39.7130 C   0  0  0  0  0  0  0  0  0  0  0  0
   38.6360   33.3590   39.6670 O   0  0  0  0  0  0  0  0  0  0  0  0
   39.7100   31.7310   38.4540 C   0  0  0  0  0  0  0  0  0  0  0  0
   38.9070   30.7620   37.8620 C   0  0  0  0  0  0  0  0  0  0  0  0
   37.9860   30.4530   38.3690 H   0  0  0  0  0  0  0  0  0  0  0  0
   39.1530   30.1210   36.6610 C   0  0  0  0  0  3  0  0  0  0  0  0
   40.3000   30.4710   35.9790 C   0  0  0  0  0  0  0  0  0  0  0  0
   40.5500   29.8580   34.8100 N   0  0  0  0  0  0  0  0  0  0  0  0
   41.6790   30.1960   34.1280 C   0  0  0  0  0  0  0  0  0  0  0  0
   41.8360   29.6700   33.1870 H   0  0  0  0  0  0  0  0  0  0  0  0
   42.5680   31.1560   34.6170 C   0  0  0  0  0  3  0  0  0  0  0  0
   42.2800   31.7780   35.8370 C   0  0  0  0  0  3  0  0  0  0  0  0
   41.1180   31.4290   36.5380 C   0  0  0  0  0  0  0  0  0  0  0  0
   40.8650   32.0630   37.7370 C   0  0  0  0  0  3  0  0  0  0  0  0
  1  2  1  0  0  0  0
  1 10  1  0  0  0  0
  2  7  1  0  0  0  0
  3  8  1  0  0  0  0
  3  2  2  0  0  0  0
  4  3  1  0  0  0  0
  5  4  2  0  0  0  0
  5  6  1  0  0  0  0
  6  1  2  0  0  0  0
  9  4  1  0  0  0  0
 10 12  1  0  0  0  0
 11 10  2  0  0  0  0
 12 13  1  0  0  0  0
 12 16  1  0  0  0  0
 14 17  1  6  0  0  0
 14 25  1  0  0  0  0
 15 14  1  0  0  0  0
 15 19  1  0  0  0  0
 16 20  1  6  0  0  0
 16 15  1  0  0  0  0
 16 14  1  0  0  0  0
 18 15  1  0  0  0  0
 21 22  1  0  0  0  0
 22 23  2  0  0  0  0
 22 28  1  0  0  0  0
 23 29  1  0  0  0  0
 24 23  1  0  0  0  0
 25 24  2  0  0  0  0
 26 25  1  0  0  0  0
 26 21  2  0  0  0  0
 27 21  1  0  0  0  0
 30  5  1  0  0  0  0
 31 30  2  0  0  0  0
 32 30  1  0  0  0  0
 33 34  1  0  0  0  0
 33 32  1  0  0  0  0
 35 33  2  0  0  0  0
 36 42  1  0  0  0  0
 36 35  1  0  0  0  0
 37 36  2  0  0  0  0
 38 40  2  0  0  0  0
 38 37  1  0  0  0  0
 39 38  1  0  0  0  0
 40 41  1  0  0  0  0
 41 42  2  0  0  0  0
 42 43  1  0  0  0  0
 43 32  2  0  0  0  0
M  END
>  <minimizedAffinity>
-4.96738338

>  <minimizedRMSD>
0.600482285

$$$$
