
 OpenBabel03272508573D

 43 47  0  0  1  0  0  0  0  0999 V2000
   38.6880   31.4570   43.7900 C   0  0  0  0  0  0  0  0  0  0  0  0
   39.7740   30.6360   43.6610 C   0  0  0  0  0  0  0  0  0  0  0  0
   40.4660   30.6660   42.4590 C   0  0  0  0  0  0  0  0  0  0  0  0
   40.0060   31.5260   41.4730 C   0  0  0  0  0  0  0  0  0  0  0  0
   38.9070   32.3570   41.6010 C   0  0  0  0  0  0  0  0  0  0  0  0
   38.2800   32.2830   42.7870 N   0  0  0  0  0  0  0  0  0  0  0  0
   40.1030   29.9760   44.4510 H   0  0  0  0  0  0  0  0  0  0  0  0
   41.3360   30.0560   42.2580 H   0  0  0  0  0  0  0  0  0  0  0  0
   40.5410   31.5550   40.5330 H   0  0  0  0  0  0  0  0  0  0  0  0
   37.9340   31.4840   45.0630 C   0  0  0  0  0  0  0  0  0  0  0  0
   36.9530   30.7650   45.2720 O   0  0  0  0  0  0  0  0  0  0  0  0
   38.4190   32.4190   46.0710 N   0  0  0  0  0  0  0  0  0  0  0  0
   39.1040   33.1720   45.9110 H   0  0  0  0  0  0  0  0  0  0  0  0
   38.5340   31.4030   48.3400 C   0  0  2  0  0  0  0  0  0  0  0  0
   38.8340   32.8500   48.5050 C   0  0  0  0  0  0  0  0  0  0  0  0
   37.8910   32.2740   47.4110 C   0  0  1  0  0  0  0  0  0  0  0  0
   39.4340   30.8140   48.0420 H   0  0  0  0  0  0  0  0  0  0  0  0
   39.8040   33.2510   48.1800 H   0  0  0  0  0  0  0  0  0  0  0  0
   38.3400   33.4830   49.2560 H   0  0  0  0  0  0  0  0  0  0  0  0
   36.8070   32.5400   47.5630 H   0  0  0  0  0  0  0  0  0  0  0  0
   35.9420   29.2190   49.8400 C   0  0  0  0  0  0  0  0  0  0  0  0
   36.2510   29.3210   51.2330 C   0  0  0  0  0  0  0  0  0  0  0  0
   37.3470   30.1510   51.6320 C   0  0  0  0  0  0  0  0  0  0  0  0
   38.0670   30.8220   50.6720 N   0  0  0  0  0  0  0  0  0  0  0  0
   37.7110   30.6740   49.3670 C   0  0  0  0  0  0  0  0  0  0  0  0
   36.6660   29.8900   48.9150 N   0  0  0  0  0  0  0  0  0  0  0  0
   35.1070   28.5830   49.5800 H   0  0  0  0  0  0  0  0  0  0  0  0
   35.6880   28.7970   51.9780 H   0  0  0  0  0  0  0  0  0  0  0  0
   37.6120   30.2550   52.6550 H   0  0  0  0  0  0  0  0  0  0  0  0
   38.5130   33.2130   40.5070 C   0  0  0  0  0  0  0  0  0  0  0  0
   38.0440   34.3420   40.7840 O   0  0  0  0  0  0  0  0  0  0  0  0
   38.6140   32.8770   39.1090 C   0  0  0  0  0  0  0  0  0  0  0  0
   37.7260   31.9360   38.6010 C   0  0  0  0  0  0  0  0  0  0  0  0
   36.9880   31.4840   39.2730 H   0  0  0  0  0  0  0  0  0  0  0  0
   37.6700   31.4910   37.2920 C   0  0  0  0  0  3  0  0  0  0  0  0
   38.5760   32.0260   36.4010 C   0  0  0  0  0  0  0  0  0  0  0  0
   38.5320   31.6030   35.1270 N   0  0  0  0  0  0  0  0  0  0  0  0
   39.4220   32.1250   34.2380 C   0  0  0  0  0  0  0  0  0  0  0  0
   39.3450   31.7500   33.2180 H   0  0  0  0  0  0  0  0  0  0  0  0
   40.3660   33.0790   34.6250 C   0  0  0  0  0  3  0  0  0  0  0  0
   40.3870   33.5000   35.9590 C   0  0  0  0  0  3  0  0  0  0  0  0
   39.4710   32.9620   36.8720 C   0  0  0  0  0  0  0  0  0  0  0  0
   39.5200   33.3990   38.1790 C   0  0  0  0  0  3  0  0  0  0  0  0
  1 10  1  0  0  0  0
  2  1  1  0  0  0  0
  2  7  1  0  0  0  0
  3  2  2  0  0  0  0
  4  5  2  0  0  0  0
  4  3  1  0  0  0  0
  5  6  1  0  0  0  0
  6  1  2  0  0  0  0
  8  3  1  0  0  0  0
  9  4  1  0  0  0  0
 10 11  2  0  0  0  0
 10 12  1  0  0  0  0
 12 16  1  0  0  0  0
 13 12  1  0  0  0  0
 14 17  1  6  0  0  0
 14 15  1  0  0  0  0
 14 25  1  0  0  0  0
 15 19  1  0  0  0  0
 16 20  1  1  0  0  0
 16 14  1  0  0  0  0
 16 15  1  0  0  0  0
 18 15  1  0  0  0  0
 21 22  1  0  0  0  0
 22 23  2  0  0  0  0
 22 28  1  0  0  0  0
 23 29  1  0  0  0  0
 24 23  1  0  0  0  0
 25 24  2  0  0  0  0
 26 25  1  0  0  0  0
 26 21  2  0  0  0  0
 27 21  1  0  0  0  0
 30 31  2  0  0  0  0
 30  5  1  0  0  0  0
 32 30  1  0  0  0  0
 33 32  1  0  0  0  0
 33 34  1  0  0  0  0
 35 33  2  0  0  0  0
 36 42  1  0  0  0  0
 36 35  1  0  0  0  0
 37 36  2  0  0  0  0
 38 40  2  0  0  0  0
 38 37  1  0  0  0  0
 39 38  1  0  0  0  0
 40 41  1  0  0  0  0
 41 42  2  0  0  0  0
 42 43  1  0  0  0  0
 43 32  2  0  0  0  0
M  END
>  <minimizedAffinity>
-5.4239459

>  <minimizedRMSD>
1.83761203

$$$$
