
 OpenBabel03272507313D

 32 35  0  0  0  0  0  0  0  0999 V2000
   32.6820   27.9290   46.5640 C   0  0  0  0  0  0  0  0  0  0  0  0
   31.7120   28.5320   47.3240 C   0  0  0  0  0  0  0  0  0  0  0  0
   30.4920   27.9230   46.9900 C   0  0  0  0  0  0  0  0  0  0  0  0
   30.8200   26.9720   46.0280 C   0  0  0  0  0  0  0  0  0  0  0  0
   32.0950   27.0310   45.8310 O   0  0  0  0  0  0  0  0  0  0  0  0
   31.6970   29.3260   48.0750 H   0  0  0  0  0  0  0  0  0  0  0  0
   29.5140   28.1190   47.3660 H   0  0  0  0  0  0  0  0  0  0  0  0
   34.0710   28.3210   46.6610 C   0  0  0  0  0  0  0  0  0  0  0  0
   34.6530   28.1990   47.7610 O   0  0  0  0  0  0  0  0  0  0  0  0
   34.7010   28.8360   45.4610 C   0  0  0  0  0  0  0  0  0  0  0  0
   35.3940   30.0470   45.5970 C   0  0  0  0  0  0  0  0  0  0  0  0
   36.0120   30.5670   44.4510 C   0  0  0  0  0  0  0  0  0  0  0  0
   35.9000   29.8620   43.2770 N   0  0  0  0  0  0  0  0  0  0  0  0
   35.2270   28.7090   43.1990 C   0  0  0  0  0  0  0  0  0  0  0  0
   34.6310   28.1970   44.2780 N   0  0  0  0  0  0  0  0  0  0  0  0
   35.4430   30.5470   46.5450 H   0  0  0  0  0  0  0  0  0  0  0  0
   36.5390   31.4880   44.5540 H   0  0  0  0  0  0  0  0  0  0  0  0
   35.2250   28.2730   42.2100 H   0  0  0  0  0  0  0  0  0  0  0  0
   29.8410   26.0890   45.3870 C   0  0  0  0  0  0  0  0  0  0  0  0
   28.6810   26.5280   45.1030 O   0  0  0  0  0  0  0  0  0  0  0  0
   30.1140   24.7070   45.0460 C   0  0  0  0  0  0  0  0  0  0  0  0
   31.4430   24.3840   44.7450 C   0  0  0  0  0  0  0  0  0  0  0  0
   32.2730   25.0920   44.7500 H   0  0  0  0  0  0  0  0  0  0  0  0
   31.7680   23.0640   44.4080 C   0  0  0  0  0  3  0  0  0  0  0  0
   30.7920   22.0900   44.3720 C   0  0  0  0  0  0  0  0  0  0  0  0
   31.1590   20.8390   44.0410 N   0  0  0  0  0  0  0  0  0  0  0  0
   30.2710   19.8070   43.9760 C   0  0  0  0  0  0  0  0  0  0  0  0
   30.5410   18.7980   43.7140 H   0  0  0  0  0  0  0  0  0  0  0  0
   28.9640   20.0960   44.2650 C   0  0  0  0  0  3  0  0  0  0  0  0
   28.5690   21.3790   44.6090 C   0  0  0  0  0  3  0  0  0  0  0  0
   29.4740   22.4180   44.6710 C   0  0  0  0  0  0  0  0  0  0  0  0
   29.1600   23.7120   45.0000 C   0  0  0  0  0  3  0  0  0  0  0  0
  1  8  1  0  0  0  0
  1  2  2  0  0  0  0
  2  6  1  0  0  0  0
  3  2  1  0  0  0  0
  3  7  1  0  0  0  0
  4  3  2  0  0  0  0
  5  4  1  0  0  0  0
  5  1  1  0  0  0  0
  8  9  2  0  0  0  0
 10 11  1  0  0  0  0
 10  8  1  0  0  0  0
 11 16  1  0  0  0  0
 12 17  1  0  0  0  0
 12 11  2  0  0  0  0
 13 12  1  0  0  0  0
 14 13  2  0  0  0  0
 14 15  1  0  0  0  0
 15 10  2  0  0  0  0
 18 14  1  0  0  0  0
 19  4  1  0  0  0  0
 20 19  2  0  0  0  0
 21 19  1  0  0  0  0
 22 23  1  0  0  0  0
 22 21  2  0  0  0  0
 24 22  1  0  0  0  0
 25 24  2  0  0  0  0
 25 31  1  0  0  0  0
 26 25  1  0  0  0  0
 27 26  2  0  0  0  0
 27 29  1  0  0  0  0
 28 27  1  0  0  0  0
 29 30  2  0  0  0  0
 30 31  1  0  0  0  0
 31 32  2  0  0  0  0
 32 21  1  0  0  0  0
M  END
>  <minimizedAffinity>
-2.36801481

>  <minimizedRMSD>
6.26121473

$$$$
