
 OpenBabel03272508583D

 43 47  0  0  1  0  0  0  0  0999 V2000
   39.1370   31.3850   43.3570 C   0  0  0  0  0  0  0  0  0  0  0  0
   40.1460   30.4770   43.5240 C   0  0  0  0  0  0  0  0  0  0  0  0
   40.8940   30.1320   42.4080 C   0  0  0  0  0  0  0  0  0  0  0  0
   40.5650   30.7330   41.2020 C   0  0  0  0  0  0  0  0  0  0  0  0
   39.5450   31.6520   41.0300 C   0  0  0  0  0  0  0  0  0  0  0  0
   38.8580   31.9450   42.1480 N   0  0  0  0  0  0  0  0  0  0  0  0
   40.3730   30.0270   44.4800 H   0  0  0  0  0  0  0  0  0  0  0  0
   41.7110   29.4250   42.4350 H   0  0  0  0  0  0  0  0  0  0  0  0
   41.1450   30.4690   40.3280 H   0  0  0  0  0  0  0  0  0  0  0  0
   38.3290   31.8080   44.5220 C   0  0  0  0  0  0  0  0  0  0  0  0
   37.2320   32.3610   44.4070 O   0  0  0  0  0  0  0  0  0  0  0  0
   38.9060   31.5310   45.8320 N   0  0  0  0  0  0  0  0  0  0  0  0
   39.8800   31.2460   46.0110 H   0  0  0  0  0  0  0  0  0  0  0  0
   38.3950   31.0790   48.2250 C   0  0  2  0  0  0  0  0  0  0  0  0
   38.6470   32.5400   48.1120 C   0  0  0  0  0  0  0  0  0  0  0  0
   38.0340   31.6700   46.9790 C   0  0  1  0  0  0  0  0  0  0  0  0
   39.3390   30.4910   48.3260 H   0  0  0  0  0  0  0  0  0  0  0  0
   39.6720   32.9110   47.9700 H   0  0  0  0  0  0  0  0  0  0  0  0
   37.9720   33.3000   48.5310 H   0  0  0  0  0  0  0  0  0  0  0  0
   36.9500   31.8990   46.7700 H   0  0  0  0  0  0  0  0  0  0  0  0
   35.0440   30.2120   49.5510 C   0  0  0  0  0  0  0  0  0  0  0  0
   35.3790   29.5810   50.7910 C   0  0  0  0  0  0  0  0  0  0  0  0
   36.7610   29.4730   51.1520 C   0  0  0  0  0  0  0  0  0  0  0  0
   37.7190   29.9750   50.3030 N   0  0  0  0  0  0  0  0  0  0  0  0
   37.3200   30.5600   49.1420 C   0  0  0  0  0  0  0  0  0  0  0  0
   36.0070   30.6980   48.7330 N   0  0  0  0  0  0  0  0  0  0  0  0
   33.9900   30.2740   49.3150 H   0  0  0  0  0  0  0  0  0  0  0  0
   34.6300   29.1910   51.4480 H   0  0  0  0  0  0  0  0  0  0  0  0
   37.0550   29.0120   52.0620 H   0  0  0  0  0  0  0  0  0  0  0  0
   39.2860   32.2140   39.7260 C   0  0  0  0  0  0  0  0  0  0  0  0
   38.6920   33.3170   39.6700 O   0  0  0  0  0  0  0  0  0  0  0  0
   39.6580   31.6130   38.4710 C   0  0  0  0  0  0  0  0  0  0  0  0
   40.7270   32.1650   37.7760 C   0  0  0  0  0  0  0  0  0  0  0  0
   41.2450   33.0310   38.1990 H   0  0  0  0  0  0  0  0  0  0  0  0
   41.2260   31.7240   36.5630 C   0  0  0  0  0  3  0  0  0  0  0  0
   40.6110   30.6360   35.9820 C   0  0  0  0  0  0  0  0  0  0  0  0
   41.0850   30.1960   34.8040 N   0  0  0  0  0  0  0  0  0  0  0  0
   40.4870   29.1210   34.2220 C   0  0  0  0  0  0  0  0  0  0  0  0
   40.9090   28.8050   33.2690 H   0  0  0  0  0  0  0  0  0  0  0  0
   39.4020   28.4770   34.8210 C   0  0  0  0  0  3  0  0  0  0  0  0
   38.9300   28.9570   36.0480 C   0  0  0  0  0  3  0  0  0  0  0  0
   39.5470   30.0630   36.6450 C   0  0  0  0  0  0  0  0  0  0  0  0
   39.0560   30.5090   37.8550 C   0  0  0  0  0  3  0  0  0  0  0  0
  1  2  1  0  0  0  0
  1 10  1  0  0  0  0
  2  7  1  0  0  0  0
  3  8  1  0  0  0  0
  3  2  2  0  0  0  0
  4  3  1  0  0  0  0
  5  4  2  0  0  0  0
  5  6  1  0  0  0  0
  6  1  2  0  0  0  0
  9  4  1  0  0  0  0
 10 12  1  0  0  0  0
 11 10  2  0  0  0  0
 12 13  1  0  0  0  0
 12 16  1  0  0  0  0
 14 17  1  6  0  0  0
 14 25  1  0  0  0  0
 15 14  1  0  0  0  0
 15 19  1  0  0  0  0
 16 20  1  6  0  0  0
 16 15  1  0  0  0  0
 16 14  1  0  0  0  0
 18 15  1  0  0  0  0
 21 22  1  0  0  0  0
 22 23  2  0  0  0  0
 22 28  1  0  0  0  0
 23 29  1  0  0  0  0
 24 23  1  0  0  0  0
 25 24  2  0  0  0  0
 26 25  1  0  0  0  0
 26 21  2  0  0  0  0
 27 21  1  0  0  0  0
 30  5  1  0  0  0  0
 31 30  2  0  0  0  0
 32 30  1  0  0  0  0
 33 34  1  0  0  0  0
 33 32  2  0  0  0  0
 35 33  1  0  0  0  0
 36 35  2  0  0  0  0
 36 42  1  0  0  0  0
 37 36  1  0  0  0  0
 38 37  2  0  0  0  0
 38 40  1  0  0  0  0
 39 38  1  0  0  0  0
 40 41  2  0  0  0  0
 41 42  1  0  0  0  0
 42 43  2  0  0  0  0
 43 32  1  0  0  0  0
M  END
>  <minimizedAffinity>
-4.93221998

>  <minimizedRMSD>
0.817291796

$$$$
