
     RDKit          3D

 36 39  0  0  0  0  0  0  0  0999 V2000
   37.1189   30.2692   50.3182 C   0  0  0  0  0  0  0  0  0  0  0  0
   37.5016   30.1398   51.5019 O   0  0  0  0  0  0  0  0  0  0  0  0
   37.7956   31.0853   49.3299 C   0  0  0  0  0  0  0  0  0  0  0  0
   38.1011   32.3978   49.7150 C   0  0  0  0  0  0  0  0  0  0  0  0
   38.7558   33.2087   48.7771 C   0  0  0  0  0  0  0  0  0  0  0  0
   39.0540   32.6693   47.5495 N   0  0  0  0  0  0  0  0  0  0  0  0
   38.7410   31.4091   47.2295 C   0  0  0  0  0  0  0  0  0  0  0  0
   38.1178   30.6214   48.1082 N   0  0  0  0  0  0  0  0  0  0  0  0
   35.9283   29.5671   49.8944 C   0  0  0  0  0  0  0  0  0  0  0  0
   34.6886   29.8933   50.3867 C   0  0  0  0  0  0  0  0  0  0  0  0
   33.7649   29.0302   49.7767 C   0  0  0  0  0  0  0  0  0  0  0  0
   34.5298   28.2242   48.9389 C   0  0  0  0  0  0  0  0  0  0  0  0
   35.7637   28.5877   49.0565 O   0  0  0  0  0  0  0  0  0  0  0  0
   33.9713   27.1640   48.0944 C   0  0  0  0  0  0  0  0  0  0  0  0
   32.7225   26.9249   48.1194 O   0  0  0  0  0  0  0  0  0  0  0  0
   37.8397   32.7580   50.6921 H   0  0  0  0  0  0  0  0  0  0  0  0
   38.9883   34.2076   49.0703 H   0  0  0  0  0  0  0  0  0  0  0  0
   39.0383   31.1275   46.2290 H   0  0  0  0  0  0  0  0  0  0  0  0
   34.3071   30.6287   51.0993 H   0  0  0  0  0  0  0  0  0  0  0  0
   32.7078   28.9746   49.9024 H   0  0  0  0  0  0  0  0  0  0  0  0
   34.7723   26.3449   47.2059 C   0  0  0  0  0  0  0  0  0  0  0  0
   35.8522   25.6630   47.7798 C   0  0  0  0  0  0  0  0  0  0  0  0
   36.1257   25.7074   48.8353 H   0  0  0  0  0  0  0  0  0  0  0  0
   36.6623   24.8565   46.9707 C   0  0  0  0  0  0  0  0  0  0  0  0
   36.4018   24.7327   45.6223 C   0  0  0  0  0  0  0  0  0  0  0  0
   37.2116   23.9461   44.8915 N   0  0  0  0  0  0  0  0  0  0  0  0
   37.0391   23.7586   43.5521 C   0  0  0  0  0  0  0  0  0  0  0  0
   37.6745   23.1342   42.9465 H   0  0  0  0  0  0  0  0  0  0  0  0
   35.9894   24.4141   42.9656 C   0  0  0  0  0  0  0  0  0  0  0  0
   35.1455   25.2281   43.7030 C   0  0  0  0  0  0  0  0  0  0  0  0
   35.3275   25.4123   45.0582 C   0  0  0  0  0  0  0  0  0  0  0  0
   34.5369   26.2015   45.8542 C   0  0  0  0  0  0  0  0  0  0  0  0
   37.5050   24.3234   47.4116 H   0  0  0  0  0  0  0  0  0  0  0  0
   35.8382   24.2770   41.9067 H   0  0  0  0  0  0  0  0  0  0  0  0
   34.3167   25.7431   43.2257 H   0  0  0  0  0  0  0  0  0  0  0  0
   33.7096   26.7231   45.4092 H   0  0  0  0  0  0  0  0  0  0  0  0
  1  2  2  0
  3  4  2  0
  3  1  1  0
  5  4  1  0
  6  5  2  0
  7  6  1  0
  7  8  2  0
  8  3  1  0
  9  1  1  0
  9 10  2  0
 11 10  1  0
 12 13  1  0
 12 11  2  0
 13  9  1  0
 14 15  2  0
 14 12  1  0
  4 16  1  0
  5 17  1  0
  7 18  1  0
 10 19  1  0
 11 20  1  0
 21 22  2  0
 22 23  1  0
 22 24  1  0
 24 25  2  0
 25 26  1  0
 26 27  2  0
 27 28  1  0
 27 29  1  0
 29 30  2  0
 30 31  1  0
 31 32  2  0
 32 21  1  0
 31 25  1  0
 24 33  1  0
 29 34  1  0
 30 35  1  0
 32 36  1  0
 14 21  1  0
M  ISO  7  16  14  17  14  18  14  19  14  20  14  23  16  28  16
M  END
>  <DihAtoms>  (1) 
14,13,20,21

>  <DihDeg>  (1) 
25.166115747575528

$$$$
