
 OpenBabel03272507313D

 32 35  0  0  0  0  0  0  0  0999 V2000
   37.8160   25.7910   34.7360 C   0  0  0  0  0  0  0  0  0  0  0  0
   38.3930   26.6850   35.6040 C   0  0  0  0  0  0  0  0  0  0  0  0
   37.8190   27.9390   35.3410 C   0  0  0  0  0  0  0  0  0  0  0  0
   36.9140   27.7070   34.3090 C   0  0  0  0  0  0  0  0  0  0  0  0
   36.9650   26.4510   34.0110 O   0  0  0  0  0  0  0  0  0  0  0  0
   39.1470   26.6240   36.3920 H   0  0  0  0  0  0  0  0  0  0  0  0
   38.0080   28.8790   35.8060 H   0  0  0  0  0  0  0  0  0  0  0  0
   38.1840   24.3920   34.7380 C   0  0  0  0  0  0  0  0  0  0  0  0
   38.0230   23.7290   33.6890 O   0  0  0  0  0  0  0  0  0  0  0  0
   38.7180   23.8470   35.9690 C   0  0  0  0  0  0  0  0  0  0  0  0
   40.0120   23.3110   35.8990 C   0  0  0  0  0  0  0  0  0  0  0  0
   40.5530   22.7770   37.0780 C   0  0  0  0  0  0  0  0  0  0  0  0
   39.7860   22.8120   38.2160 N   0  0  0  0  0  0  0  0  0  0  0  0
   38.5550   23.3340   38.2320 C   0  0  0  0  0  0  0  0  0  0  0  0
   38.0220   23.8480   37.1220 N   0  0  0  0  0  0  0  0  0  0  0  0
   40.5580   23.3160   34.9760 H   0  0  0  0  0  0  0  0  0  0  0  0
   41.5370   22.3690   37.0240 H   0  0  0  0  0  0  0  0  0  0  0  0
   38.0750   23.2890   39.2000 H   0  0  0  0  0  0  0  0  0  0  0  0
   36.0780   28.7520   33.7080 C   0  0  0  0  0  0  0  0  0  0  0  0
   36.0720   28.9110   32.4460 O   0  0  0  0  0  0  0  0  0  0  0  0
   35.2350   29.6420   34.4800 C   0  0  0  0  0  0  0  0  0  0  0  0
   33.8640   29.3570   34.4930 C   0  0  0  0  0  0  0  0  0  0  0  0
   33.3970   28.5220   33.9690 H   0  0  0  0  0  0  0  0  0  0  0  0
   32.9990   30.1840   35.2220 C   0  0  0  0  0  3  0  0  0  0  0  0
   33.4890   31.2670   35.9200 C   0  0  0  0  0  0  0  0  0  0  0  0
   32.6130   32.0280   36.6010 N   0  0  0  0  0  0  0  0  0  0  0  0
   32.9970   33.1200   37.3220 C   0  0  0  0  0  0  0  0  0  0  0  0
   32.3160   33.7440   37.8760 H   0  0  0  0  0  0  0  0  0  0  0  0
   34.3330   33.4210   37.3260 C   0  0  0  0  0  3  0  0  0  0  0  0
   35.2470   32.6480   36.6300 C   0  0  0  0  0  3  0  0  0  0  0  0
   34.8510   31.5450   35.9030 C   0  0  0  0  0  0  0  0  0  0  0  0
   35.6940   30.7330   35.1880 C   0  0  0  0  0  3  0  0  0  0  0  0
  1  8  1  0  0  0  0
  1  2  2  0  0  0  0
  2  6  1  0  0  0  0
  3  2  1  0  0  0  0
  3  7  1  0  0  0  0
  4  3  2  0  0  0  0
  5  4  1  0  0  0  0
  5  1  1  0  0  0  0
  8 10  1  0  0  0  0
  9  8  2  0  0  0  0
 10 15  1  0  0  0  0
 11 10  2  0  0  0  0
 11 12  1  0  0  0  0
 12 13  2  0  0  0  0
 13 14  1  0  0  0  0
 14 18  1  0  0  0  0
 15 14  2  0  0  0  0
 16 11  1  0  0  0  0
 17 12  1  0  0  0  0
 19  4  1  0  0  0  0
 19 21  1  0  0  0  0
 20 19  2  0  0  0  0
 21 22  2  0  0  0  0
 21 32  1  0  0  0  0
 22 24  1  0  0  0  0
 23 22  1  0  0  0  0
 24 25  2  0  0  0  0
 25 26  1  0  0  0  0
 26 27  2  0  0  0  0
 27 29  1  0  0  0  0
 27 28  1  0  0  0  0
 30 29  2  0  0  0  0
 31 25  1  0  0  0  0
 31 30  1  0  0  0  0
 32 31  2  0  0  0  0
M  END
>  <minimizedAffinity>
-6.39911366

$$$$

 OpenBabel03272507313D

 32 35  0  0  0  0  0  0  0  0999 V2000
   37.7200   26.2310   34.1350 C   0  0  0  0  0  0  0  0  0  0  0  0
   37.3120   27.3430   33.4400 C   0  0  0  0  0  0  0  0  0  0  0  0
   36.5930   26.8880   32.3240 C   0  0  0  0  0  0  0  0  0  0  0  0
   36.6180   25.5000   32.4260 C   0  0  0  0  0  0  0  0  0  0  0  0
   37.2820   25.1920   33.4900 O   0  0  0  0  0  0  0  0  0  0  0  0
   37.4250   28.4220   33.5690 H   0  0  0  0  0  0  0  0  0  0  0  0
   36.1200   27.4480   31.5500 H   0  0  0  0  0  0  0  0  0  0  0  0
   38.4930   26.3420   35.3520 C   0  0  0  0  0  0  0  0  0  0  0  0
   38.8100   27.4810   35.7590 O   0  0  0  0  0  0  0  0  0  0  0  0
   38.8510   25.1090   36.0250 C   0  0  0  0  0  0  0  0  0  0  0  0
   38.0530   24.7460   37.1190 C   0  0  0  0  0  0  0  0  0  0  0  0
   38.3790   23.5580   37.7880 C   0  0  0  0  0  0  0  0  0  0  0  0
   39.4520   22.8320   37.3330 N   0  0  0  0  0  0  0  0  0  0  0  0
   40.1840   23.2210   36.2840 C   0  0  0  0  0  0  0  0  0  0  0  0
   39.8910   24.3490   35.6330 N   0  0  0  0  0  0  0  0  0  0  0  0
   37.2270   25.3600   37.4230 H   0  0  0  0  0  0  0  0  0  0  0  0
   37.7720   23.2810   38.6200 H   0  0  0  0  0  0  0  0  0  0  0  0
   40.9960   22.5480   36.0450 H   0  0  0  0  0  0  0  0  0  0  0  0
   35.9810   24.5990   31.4590 C   0  0  0  0  0  0  0  0  0  0  0  0
   35.1710   25.0650   30.5970 O   0  0  0  0  0  0  0  0  0  0  0  0
   36.2210   23.1700   31.4210 C   0  0  0  0  0  0  0  0  0  0  0  0
   37.4180   22.7480   30.8310 C   0  0  0  0  0  0  0  0  0  0  0  0
   38.1700   23.4130   30.4050 H   0  0  0  0  0  0  0  0  0  0  0  0
   37.7040   21.3780   30.7650 C   0  0  0  0  0  3  0  0  0  0  0  0
   36.8180   20.4530   31.2760 C   0  0  0  0  0  0  0  0  0  0  0  0
   37.1420   19.1510   31.1840 N   0  0  0  0  0  0  0  0  0  0  0  0
   36.3350   18.1590   31.6580 C   0  0  0  0  0  0  0  0  0  0  0  0
   36.5720   17.1100   31.5960 H   0  0  0  0  0  0  0  0  0  0  0  0
   35.1570   18.5460   32.2400 C   0  0  0  0  0  3  0  0  0  0  0  0
   34.8080   19.8820   32.3410 C   0  0  0  0  0  3  0  0  0  0  0  0
   35.6300   20.8790   31.8600 C   0  0  0  0  0  0  0  0  0  0  0  0
   35.3550   22.2210   31.9230 C   0  0  0  0  0  3  0  0  0  0  0  0
  1  8  1  0  0  0  0
  2  6  1  0  0  0  0
  2  1  2  0  0  0  0
  3  4  2  0  0  0  0
  3  2  1  0  0  0  0
  4  5  1  0  0  0  0
  5  1  1  0  0  0  0
  7  3  1  0  0  0  0
  8  9  2  0  0  0  0
  8 10  1  0  0  0  0
 10 11  1  0  0  0  0
 11 16  1  0  0  0  0
 11 12  2  0  0  0  0
 12 17  1  0  0  0  0
 13 12  1  0  0  0  0
 14 13  2  0  0  0  0
 15 10  2  0  0  0  0
 15 14  1  0  0  0  0
 18 14  1  0  0  0  0
 19  4  1  0  0  0  0
 20 19  2  0  0  0  0
 21 19  1  0  0  0  0
 21 32  1  0  0  0  0
 22 21  2  0  0  0  0
 23 22  1  0  0  0  0
 24 22  1  0  0  0  0
 24 25  2  0  0  0  0
 25 31  1  0  0  0  0
 26 25  1  0  0  0  0
 26 27  2  0  0  0  0
 27 29  1  0  0  0  0
 28 27  1  0  0  0  0
 29 30  2  0  0  0  0
 31 32  2  0  0  0  0
 31 30  1  0  0  0  0
M  END
>  <minimizedAffinity>
-6.35112

$$$$

 OpenBabel03272507313D

 32 35  0  0  0  0  0  0  0  0999 V2000
   38.0740   25.1010   34.0030 C   0  0  0  0  0  0  0  0  0  0  0  0
   39.0800   26.0330   33.9290 C   0  0  0  0  0  0  0  0  0  0  0  0
   38.5220   27.1940   33.3720 C   0  0  0  0  0  0  0  0  0  0  0  0
   37.1870   26.8740   33.1440 C   0  0  0  0  0  0  0  0  0  0  0  0
   36.9990   25.6550   33.5290 O   0  0  0  0  0  0  0  0  0  0  0  0
   40.1400   26.0520   34.1930 H   0  0  0  0  0  0  0  0  0  0  0  0
   38.9850   28.1300   33.1570 H   0  0  0  0  0  0  0  0  0  0  0  0
   38.3080   23.7770   34.5350 C   0  0  0  0  0  0  0  0  0  0  0  0
   38.3350   22.8080   33.7430 O   0  0  0  0  0  0  0  0  0  0  0  0
   38.4970   23.6610   35.9670 C   0  0  0  0  0  0  0  0  0  0  0  0
   39.6190   22.9320   36.3860 C   0  0  0  0  0  0  0  0  0  0  0  0
   39.8250   22.8040   37.7680 C   0  0  0  0  0  0  0  0  0  0  0  0
   38.9210   23.3960   38.6150 N   0  0  0  0  0  0  0  0  0  0  0  0
   37.8640   24.0810   38.1650 C   0  0  0  0  0  0  0  0  0  0  0  0
   37.6510   24.2150   36.8550 N   0  0  0  0  0  0  0  0  0  0  0  0
   40.2880   22.4940   35.6700 H   0  0  0  0  0  0  0  0  0  0  0  0
   40.6790   22.2500   38.0870 H   0  0  0  0  0  0  0  0  0  0  0  0
   37.2430   24.4870   38.9510 H   0  0  0  0  0  0  0  0  0  0  0  0
   36.2130   27.8040   32.5620 C   0  0  0  0  0  0  0  0  0  0  0  0
   35.4780   27.4290   31.5950 O   0  0  0  0  0  0  0  0  0  0  0  0
   36.0290   29.1630   33.0300 C   0  0  0  0  0  0  0  0  0  0  0  0
   36.0440   30.1710   32.0590 C   0  0  0  0  0  0  0  0  0  0  0  0
   36.1840   30.0030   30.9900 H   0  0  0  0  0  0  0  0  0  0  0  0
   35.8720   31.5050   32.4520 C   0  0  0  0  0  3  0  0  0  0  0  0
   35.6870   31.8240   33.7800 C   0  0  0  0  0  0  0  0  0  0  0  0
   35.5280   33.1210   34.1020 N   0  0  0  0  0  0  0  0  0  0  0  0
   35.3400   33.5400   35.3860 C   0  0  0  0  0  0  0  0  0  0  0  0
   35.2100   34.5710   35.6680 H   0  0  0  0  0  0  0  0  0  0  0  0
   35.3200   32.5730   36.3560 C   0  0  0  0  0  3  0  0  0  0  0  0
   35.4830   31.2340   36.0420 C   0  0  0  0  0  3  0  0  0  0  0  0
   35.6730   30.8180   34.7410 C   0  0  0  0  0  0  0  0  0  0  0  0
   35.8420   29.5140   34.3510 C   0  0  0  0  0  3  0  0  0  0  0  0
  1  8  1  0  0  0  0
  2  1  2  0  0  0  0
  2  6  1  0  0  0  0
  3  2  1  0  0  0  0
  4  3  2  0  0  0  0
  4  5  1  0  0  0  0
  5  1  1  0  0  0  0
  7  3  1  0  0  0  0
  8 10  1  0  0  0  0
  9  8  2  0  0  0  0
 10 11  2  0  0  0  0
 10 15  1  0  0  0  0
 11 12  1  0  0  0  0
 12 17  1  0  0  0  0
 12 13  2  0  0  0  0
 14 13  1  0  0  0  0
 14 18  1  0  0  0  0
 15 14  2  0  0  0  0
 16 11  1  0  0  0  0
 19 21  1  0  0  0  0
 19  4  1  0  0  0  0
 20 19  2  0  0  0  0
 21 32  1  0  0  0  0
 22 24  1  0  0  0  0
 22 21  2  0  0  0  0
 23 22  1  0  0  0  0
 24 25  2  0  0  0  0
 25 26  1  0  0  0  0
 25 31  1  0  0  0  0
 26 27  2  0  0  0  0
 27 28  1  0  0  0  0
 27 29  1  0  0  0  0
 30 29  2  0  0  0  0
 31 30  1  0  0  0  0
 32 31  2  0  0  0  0
M  END
>  <minimizedAffinity>
-6.13524055

$$$$

 OpenBabel03272507313D

 32 35  0  0  0  0  0  0  0  0999 V2000
   36.5090   25.5250   32.2250 C   0  0  0  0  0  0  0  0  0  0  0  0
   36.4420   26.8940   32.1640 C   0  0  0  0  0  0  0  0  0  0  0  0
   37.1300   27.3880   33.2840 C   0  0  0  0  0  0  0  0  0  0  0  0
   37.5750   26.2540   33.9570 C   0  0  0  0  0  0  0  0  0  0  0  0
   37.1820   25.2180   33.2930 O   0  0  0  0  0  0  0  0  0  0  0  0
   35.9960   27.6190   31.4780 H   0  0  0  0  0  0  0  0  0  0  0  0
   37.2950   28.3970   33.5840 H   0  0  0  0  0  0  0  0  0  0  0  0
   35.8950   24.6930   31.2130 C   0  0  0  0  0  0  0  0  0  0  0  0
   34.9250   25.1490   30.5680 O   0  0  0  0  0  0  0  0  0  0  0  0
   36.4530   23.3700   31.0140 C   0  0  0  0  0  0  0  0  0  0  0  0
   35.6080   22.2910   31.3070 C   0  0  0  0  0  0  0  0  0  0  0  0
   36.1240   21.0000   31.1230 C   0  0  0  0  0  0  0  0  0  0  0  0
   37.4150   20.8770   30.6700 N   0  0  0  0  0  0  0  0  0  0  0  0
   38.1820   21.9390   30.4050 C   0  0  0  0  0  0  0  0  0  0  0  0
   37.7110   23.1750   30.5730 N   0  0  0  0  0  0  0  0  0  0  0  0
   34.6070   22.4570   31.6570 H   0  0  0  0  0  0  0  0  0  0  0  0
   35.4810   20.1780   31.3460 H   0  0  0  0  0  0  0  0  0  0  0  0
   39.1740   21.6830   30.0590 H   0  0  0  0  0  0  0  0  0  0  0  0
   38.3500   26.2960   35.2010 C   0  0  0  0  0  0  0  0  0  0  0  0
   38.4660   27.3900   35.8400 O   0  0  0  0  0  0  0  0  0  0  0  0
   39.0140   25.1390   35.7670 C   0  0  0  0  0  0  0  0  0  0  0  0
   38.3320   24.4560   36.7820 C   0  0  0  0  0  0  0  0  0  0  0  0
   37.3510   24.7340   37.1680 H   0  0  0  0  0  0  0  0  0  0  0  0
   38.9250   23.3300   37.3680 C   0  0  0  0  0  3  0  0  0  0  0  0
   40.1650   22.8950   36.9520 C   0  0  0  0  0  0  0  0  0  0  0  0
   40.6880   21.8100   37.5500 N   0  0  0  0  0  0  0  0  0  0  0  0
   41.9060   21.3010   37.2110 C   0  0  0  0  0  0  0  0  0  0  0  0
   42.3460   20.4340   37.6750 H   0  0  0  0  0  0  0  0  0  0  0  0
   42.5940   21.9500   36.2200 C   0  0  0  0  0  3  0  0  0  0  0  0
   42.0710   23.0700   35.5950 C   0  0  0  0  0  3  0  0  0  0  0  0
   40.8370   23.5780   35.9440 C   0  0  0  0  0  0  0  0  0  0  0  0
   40.2530   24.6800   35.3730 C   0  0  0  0  0  3  0  0  0  0  0  0
  1  5  1  0  0  0  0
  2  1  2  0  0  0  0
  2  3  1  0  0  0  0
  3  7  1  0  0  0  0
  3  4  2  0  0  0  0
  4 19  1  0  0  0  0
  5  4  1  0  0  0  0
  6  2  1  0  0  0  0
  8  1  1  0  0  0  0
  9  8  2  0  0  0  0
 10  8  1  0  0  0  0
 10 11  1  0  0  0  0
 11 16  1  0  0  0  0
 12 11  2  0  0  0  0
 12 17  1  0  0  0  0
 13 12  1  0  0  0  0
 14 15  1  0  0  0  0
 14 13  2  0  0  0  0
 15 10  2  0  0  0  0
 18 14  1  0  0  0  0
 19 21  1  0  0  0  0
 19 20  2  0  0  0  0
 21 22  1  0  0  0  0
 22 23  1  0  0  0  0
 22 24  2  0  0  0  0
 25 24  1  0  0  0  0
 25 26  1  0  0  0  0
 27 26  2  0  0  0  0
 27 28  1  0  0  0  0
 29 27  1  0  0  0  0
 30 31  1  0  0  0  0
 30 29  2  0  0  0  0
 31 25  2  0  0  0  0
 32 21  2  0  0  0  0
 32 31  1  0  0  0  0
M  END
>  <minimizedAffinity>
-6.09142923

$$$$

 OpenBabel03272507313D

 32 35  0  0  0  0  0  0  0  0999 V2000
   37.7690   27.2250   34.3600 C   0  0  0  0  0  0  0  0  0  0  0  0
   37.8560   27.3750   32.9990 C   0  0  0  0  0  0  0  0  0  0  0  0
   36.7720   28.1750   32.6040 C   0  0  0  0  0  0  0  0  0  0  0  0
   36.0900   28.4580   33.7840 C   0  0  0  0  0  0  0  0  0  0  0  0
   36.7180   27.8800   34.7540 O   0  0  0  0  0  0  0  0  0  0  0  0
   38.5420   27.0260   32.2230 H   0  0  0  0  0  0  0  0  0  0  0  0
   36.4990   28.5100   31.6300 H   0  0  0  0  0  0  0  0  0  0  0  0
   38.7400   26.4490   35.0990 C   0  0  0  0  0  0  0  0  0  0  0  0
   39.8590   26.9580   35.3360 O   0  0  0  0  0  0  0  0  0  0  0  0
   38.3470   25.1190   35.5200 C   0  0  0  0  0  0  0  0  0  0  0  0
   38.4590   24.1070   34.5570 C   0  0  0  0  0  0  0  0  0  0  0  0
   38.0850   22.8100   34.9380 C   0  0  0  0  0  0  0  0  0  0  0  0
   37.6350   22.6170   36.2210 N   0  0  0  0  0  0  0  0  0  0  0  0
   37.5460   23.6170   37.1040 C   0  0  0  0  0  0  0  0  0  0  0  0
   37.8980   24.8580   36.7620 N   0  0  0  0  0  0  0  0  0  0  0  0
   38.8190   24.3260   33.5700 H   0  0  0  0  0  0  0  0  0  0  0  0
   38.1700   22.0400   34.2050 H   0  0  0  0  0  0  0  0  0  0  0  0
   37.1750   23.3110   38.0720 H   0  0  0  0  0  0  0  0  0  0  0  0
   34.8750   29.2760   33.8470 C   0  0  0  0  0  0  0  0  0  0  0  0
   33.8920   29.0120   33.0840 O   0  0  0  0  0  0  0  0  0  0  0  0
   34.7140   30.3990   34.7490 C   0  0  0  0  0  0  0  0  0  0  0  0
   35.8820   30.9210   35.3190 C   0  0  0  0  0  0  0  0  0  0  0  0
   36.8880   30.5430   35.1320 H   0  0  0  0  0  0  0  0  0  0  0  0
   35.7890   32.0070   36.1990 C   0  0  0  0  0  3  0  0  0  0  0  0
   34.5630   32.5600   36.5010 C   0  0  0  0  0  0  0  0  0  0  0  0
   34.5320   33.6000   37.3540 N   0  0  0  0  0  0  0  0  0  0  0  0
   33.3700   34.2160   37.7170 C   0  0  0  0  0  0  0  0  0  0  0  0
   33.3200   35.0500   38.3970 H   0  0  0  0  0  0  0  0  0  0  0  0
   32.2130   33.7240   37.1730 C   0  0  0  0  0  3  0  0  0  0  0  0
   32.2270   32.6540   36.2960 C   0  0  0  0  0  3  0  0  0  0  0  0
   33.4070   32.0370   35.9330 C   0  0  0  0  0  0  0  0  0  0  0  0
   33.5020   30.9730   35.0720 C   0  0  0  0  0  3  0  0  0  0  0  0
  1  5  1  0  0  0  0
  1  8  1  0  0  0  0
  2  1  2  0  0  0  0
  3  2  1  0  0  0  0
  3  4  2  0  0  0  0
  4 19  1  0  0  0  0
  4  5  1  0  0  0  0
  6  2  1  0  0  0  0
  7  3  1  0  0  0  0
  8  9  2  0  0  0  0
  8 10  1  0  0  0  0
 10 15  1  0  0  0  0
 11 12  1  0  0  0  0
 11 10  2  0  0  0  0
 12 13  2  0  0  0  0
 13 14  1  0  0  0  0
 14 18  1  0  0  0  0
 15 14  2  0  0  0  0
 16 11  1  0  0  0  0
 17 12  1  0  0  0  0
 19 21  1  0  0  0  0
 20 19  2  0  0  0  0
 21 32  2  0  0  0  0
 21 22  1  0  0  0  0
 22 24  2  0  0  0  0
 23 22  1  0  0  0  0
 24 25  1  0  0  0  0
 25 26  1  0  0  0  0
 26 27  2  0  0  0  0
 27 28  1  0  0  0  0
 29 27  1  0  0  0  0
 30 29  2  0  0  0  0
 31 30  1  0  0  0  0
 31 25  2  0  0  0  0
 32 31  1  0  0  0  0
M  END
>  <minimizedAffinity>
-5.99951792

$$$$

 OpenBabel03272507313D

 32 35  0  0  0  0  0  0  0  0999 V2000
   37.5710   25.8230   32.7370 C   0  0  0  0  0  0  0  0  0  0  0  0
   36.6750   25.2970   31.8400 C   0  0  0  0  0  0  0  0  0  0  0  0
   35.8240   26.3420   31.4490 C   0  0  0  0  0  0  0  0  0  0  0  0
   36.2770   27.4530   32.1540 C   0  0  0  0  0  0  0  0  0  0  0  0
   37.2830   27.0820   32.8750 O   0  0  0  0  0  0  0  0  0  0  0  0
   36.5030   24.3090   31.4050 H   0  0  0  0  0  0  0  0  0  0  0  0
   35.0040   26.3270   30.7680 H   0  0  0  0  0  0  0  0  0  0  0  0
   38.6000   25.0090   33.3440 C   0  0  0  0  0  0  0  0  0  0  0  0
   39.7340   24.9840   32.8160 O   0  0  0  0  0  0  0  0  0  0  0  0
   38.2430   24.2670   34.5360 C   0  0  0  0  0  0  0  0  0  0  0  0
   38.0520   25.0220   35.7020 C   0  0  0  0  0  0  0  0  0  0  0  0
   37.7060   24.3280   36.8700 C   0  0  0  0  0  0  0  0  0  0  0  0
   37.5770   22.9630   36.7990 N   0  0  0  0  0  0  0  0  0  0  0  0
   37.7700   22.2870   35.6610 C   0  0  0  0  0  0  0  0  0  0  0  0
   38.1000   22.9280   34.5390 N   0  0  0  0  0  0  0  0  0  0  0  0
   38.1680   26.0890   35.6890 H   0  0  0  0  0  0  0  0  0  0  0  0
   37.5610   24.9030   37.7570 H   0  0  0  0  0  0  0  0  0  0  0  0
   37.6350   21.2190   35.7620 H   0  0  0  0  0  0  0  0  0  0  0  0
   35.6730   28.7860   32.0530 C   0  0  0  0  0  0  0  0  0  0  0  0
   35.7180   29.4210   30.9520 O   0  0  0  0  0  0  0  0  0  0  0  0
   35.0100   29.4480   33.1590 C   0  0  0  0  0  0  0  0  0  0  0  0
   33.6270   29.2560   33.2690 C   0  0  0  0  0  0  0  0  0  0  0  0
   33.0270   28.6520   32.5890 H   0  0  0  0  0  0  0  0  0  0  0  0
   32.9320   29.8720   34.3180 C   0  0  0  0  0  3  0  0  0  0  0  0
   33.5990   30.6570   35.2340 C   0  0  0  0  0  0  0  0  0  0  0  0
   32.8820   31.2260   36.2200 N   0  0  0  0  0  0  0  0  0  0  0  0
   33.4470   32.0190   37.1740 C   0  0  0  0  0  0  0  0  0  0  0  0
   32.8940   32.4850   37.9730 H   0  0  0  0  0  0  0  0  0  0  0  0
   34.7990   32.2230   37.0890 C   0  0  0  0  0  3  0  0  0  0  0  0
   35.5520   31.6460   36.0800 C   0  0  0  0  0  3  0  0  0  0  0  0
   34.9720   30.8440   35.1190 C   0  0  0  0  0  0  0  0  0  0  0  0
   35.6490   30.2390   34.0900 C   0  0  0  0  0  3  0  0  0  0  0  0
  1  5  1  0  0  0  0
  1  8  1  0  0  0  0
  2  1  2  0  0  0  0
  3  2  1  0  0  0  0
  3  4  2  0  0  0  0
  4  5  1  0  0  0  0
  6  2  1  0  0  0  0
  7  3  1  0  0  0  0
  8 10  1  0  0  0  0
  9  8  2  0  0  0  0
 10 15  2  0  0  0  0
 10 11  1  0  0  0  0
 11 12  2  0  0  0  0
 12 17  1  0  0  0  0
 13 12  1  0  0  0  0
 14 18  1  0  0  0  0
 14 13  2  0  0  0  0
 15 14  1  0  0  0  0
 16 11  1  0  0  0  0
 19  4  1  0  0  0  0
 19 21  1  0  0  0  0
 20 19  2  0  0  0  0
 21 22  2  0  0  0  0
 21 32  1  0  0  0  0
 22 24  1  0  0  0  0
 23 22  1  0  0  0  0
 24 25  2  0  0  0  0
 25 26  1  0  0  0  0
 26 27  2  0  0  0  0
 27 28  1  0  0  0  0
 29 27  1  0  0  0  0
 30 29  2  0  0  0  0
 31 25  1  0  0  0  0
 31 30  1  0  0  0  0
 32 31  2  0  0  0  0
M  END
>  <minimizedAffinity>
-5.95521307

$$$$

 OpenBabel03272507313D

 32 35  0  0  0  0  0  0  0  0999 V2000
   37.7900   25.8580   34.8210 C   0  0  0  0  0  0  0  0  0  0  0  0
   38.3840   26.7950   35.6310 C   0  0  0  0  0  0  0  0  0  0  0  0
   37.7700   28.0260   35.3520 C   0  0  0  0  0  0  0  0  0  0  0  0
   36.8260   27.7390   34.3700 C   0  0  0  0  0  0  0  0  0  0  0  0
   36.8930   26.4750   34.1130 O   0  0  0  0  0  0  0  0  0  0  0  0
   39.1740   26.7780   36.3860 H   0  0  0  0  0  0  0  0  0  0  0  0
   37.9580   28.9860   35.7760 H   0  0  0  0  0  0  0  0  0  0  0  0
   38.1900   24.4690   34.8530 C   0  0  0  0  0  0  0  0  0  0  0  0
   38.1650   23.8130   33.7880 O   0  0  0  0  0  0  0  0  0  0  0  0
   38.5960   23.9240   36.1340 C   0  0  0  0  0  0  0  0  0  0  0  0
   37.6550   24.0110   37.1700 C   0  0  0  0  0  0  0  0  0  0  0  0
   38.0230   23.4920   38.4190 C   0  0  0  0  0  0  0  0  0  0  0  0
   39.2720   22.9360   38.5470 N   0  0  0  0  0  0  0  0  0  0  0  0
   40.1350   22.8770   37.5270 C   0  0  0  0  0  0  0  0  0  0  0  0
   39.8040   23.3650   36.3300 N   0  0  0  0  0  0  0  0  0  0  0  0
   36.6940   24.4590   37.0020 H   0  0  0  0  0  0  0  0  0  0  0  0
   37.3080   23.5580   39.2080 H   0  0  0  0  0  0  0  0  0  0  0  0
   41.0780   22.4120   37.7810 H   0  0  0  0  0  0  0  0  0  0  0  0
   35.9400   28.7430   33.7720 C   0  0  0  0  0  0  0  0  0  0  0  0
   34.8610   29.0690   34.3610 O   0  0  0  0  0  0  0  0  0  0  0  0
   36.2220   29.4090   32.5160 C   0  0  0  0  0  0  0  0  0  0  0  0
   35.7750   30.7300   32.3880 C   0  0  0  0  0  0  0  0  0  0  0  0
   35.2360   31.2810   33.1600 H   0  0  0  0  0  0  0  0  0  0  0  0
   36.0170   31.4230   31.1960 C   0  0  0  0  0  3  0  0  0  0  0  0
   36.6900   30.8160   30.1570 C   0  0  0  0  0  0  0  0  0  0  0  0
   36.8950   31.5280   29.0340 N   0  0  0  0  0  0  0  0  0  0  0  0
   37.5490   31.0190   27.9520 C   0  0  0  0  0  0  0  0  0  0  0  0
   37.7250   31.5690   27.0430 H   0  0  0  0  0  0  0  0  0  0  0  0
   37.9970   29.7290   28.0500 C   0  0  0  0  0  3  0  0  0  0  0  0
   37.7950   28.9810   29.1980 C   0  0  0  0  0  3  0  0  0  0  0  0
   37.1320   29.5040   30.2890 C   0  0  0  0  0  0  0  0  0  0  0  0
   36.8920   28.8290   31.4590 C   0  0  0  0  0  3  0  0  0  0  0  0
  1  8  1  0  0  0  0
  1  2  2  0  0  0  0
  2  6  1  0  0  0  0
  3  2  1  0  0  0  0
  3  7  1  0  0  0  0
  4  3  2  0  0  0  0
  5  4  1  0  0  0  0
  5  1  1  0  0  0  0
  8 10  1  0  0  0  0
  9  8  2  0  0  0  0
 10 15  2  0  0  0  0
 10 11  1  0  0  0  0
 11 12  2  0  0  0  0
 12 13  1  0  0  0  0
 12 17  1  0  0  0  0
 14 18  1  0  0  0  0
 14 13  2  0  0  0  0
 15 14  1  0  0  0  0
 16 11  1  0  0  0  0
 19 20  2  0  0  0  0
 19  4  1  0  0  0  0
 21 19  1  0  0  0  0
 22 21  1  0  0  0  0
 22 23  1  0  0  0  0
 24 22  2  0  0  0  0
 25 31  1  0  0  0  0
 25 24  1  0  0  0  0
 26 25  2  0  0  0  0
 27 29  2  0  0  0  0
 27 26  1  0  0  0  0
 28 27  1  0  0  0  0
 29 30  1  0  0  0  0
 30 31  2  0  0  0  0
 31 32  1  0  0  0  0
 32 21  2  0  0  0  0
M  END
>  <minimizedAffinity>
-5.90689802

$$$$

 OpenBabel03272507313D

 32 35  0  0  0  0  0  0  0  0999 V2000
   37.1960   27.2510   34.6130 C   0  0  0  0  0  0  0  0  0  0  0  0
   38.0360   27.8020   35.5490 C   0  0  0  0  0  0  0  0  0  0  0  0
   38.4950   26.7500   36.3580 C   0  0  0  0  0  0  0  0  0  0  0  0
   37.8860   25.6110   35.8400 C   0  0  0  0  0  0  0  0  0  0  0  0
   37.1530   25.9720   34.8390 O   0  0  0  0  0  0  0  0  0  0  0  0
   38.3890   28.8110   35.7750 H   0  0  0  0  0  0  0  0  0  0  0  0
   39.1600   26.7790   37.1900 H   0  0  0  0  0  0  0  0  0  0  0  0
   36.5420   28.0640   33.6120 C   0  0  0  0  0  0  0  0  0  0  0  0
   35.5630   28.7650   33.9540 O   0  0  0  0  0  0  0  0  0  0  0  0
   37.0720   28.0110   32.2640 C   0  0  0  0  0  0  0  0  0  0  0  0
   38.3690   27.4970   32.1290 C   0  0  0  0  0  0  0  0  0  0  0  0
   38.9060   27.4350   30.8340 C   0  0  0  0  0  0  0  0  0  0  0  0
   38.1320   27.8800   29.7910 N   0  0  0  0  0  0  0  0  0  0  0  0
   36.8980   28.3630   29.9720 C   0  0  0  0  0  0  0  0  0  0  0  0
   36.3700   28.4300   31.1950 N   0  0  0  0  0  0  0  0  0  0  0  0
   38.9210   27.1660   32.9880 H   0  0  0  0  0  0  0  0  0  0  0  0
   39.8930   27.0440   30.7310 H   0  0  0  0  0  0  0  0  0  0  0  0
   36.4150   28.6750   29.0570 H   0  0  0  0  0  0  0  0  0  0  0  0
   38.0820   24.2630   36.3830 C   0  0  0  0  0  0  0  0  0  0  0  0
   37.2250   23.7710   37.1840 O   0  0  0  0  0  0  0  0  0  0  0  0
   39.2230   23.4300   36.0590 C   0  0  0  0  0  0  0  0  0  0  0  0
   39.6030   23.3790   34.7120 C   0  0  0  0  0  0  0  0  0  0  0  0
   39.1050   23.9170   33.9050 H   0  0  0  0  0  0  0  0  0  0  0  0
   40.6980   22.5900   34.3390 C   0  0  0  0  0  3  0  0  0  0  0  0
   41.3970   21.8700   35.2840 C   0  0  0  0  0  0  0  0  0  0  0  0
   42.4400   21.1270   34.8700 N   0  0  0  0  0  0  0  0  0  0  0  0
   43.1940   20.3810   35.7260 C   0  0  0  0  0  0  0  0  0  0  0  0
   44.0330   19.7790   35.4180 H   0  0  0  0  0  0  0  0  0  0  0  0
   42.8430   20.4130   37.0490 C   0  0  0  0  0  3  0  0  0  0  0  0
   41.7720   21.1710   37.4920 C   0  0  0  0  0  3  0  0  0  0  0  0
   41.0140   21.9240   36.6200 C   0  0  0  0  0  0  0  0  0  0  0  0
   39.9410   22.6990   36.9810 C   0  0  0  0  0  3  0  0  0  0  0  0
  1  5  1  0  0  0  0
  1  2  2  0  0  0  0
  2  6  1  0  0  0  0
  2  3  1  0  0  0  0
  3  7  1  0  0  0  0
  4  3  2  0  0  0  0
  4 19  1  0  0  0  0
  5  4  1  0  0  0  0
  8  9  2  0  0  0  0
  8  1  1  0  0  0  0
 10  8  1  0  0  0  0
 11 10  1  0  0  0  0
 11 16  1  0  0  0  0
 12 11  2  0  0  0  0
 13 14  2  0  0  0  0
 13 12  1  0  0  0  0
 14 15  1  0  0  0  0
 15 10  2  0  0  0  0
 17 12  1  0  0  0  0
 18 14  1  0  0  0  0
 19 20  2  0  0  0  0
 21 19  1  0  0  0  0
 21 32  1  0  0  0  0
 22 21  2  0  0  0  0
 23 22  1  0  0  0  0
 24 22  1  0  0  0  0
 24 25  2  0  0  0  0
 25 31  1  0  0  0  0
 26 25  1  0  0  0  0
 26 27  2  0  0  0  0
 27 29  1  0  0  0  0
 28 27  1  0  0  0  0
 29 30  2  0  0  0  0
 31 32  2  0  0  0  0
 31 30  1  0  0  0  0
M  END
>  <minimizedAffinity>
-5.85491037

$$$$

 OpenBabel03272507313D

 32 35  0  0  0  0  0  0  0  0999 V2000
   35.4620   28.9690   32.8870 C   0  0  0  0  0  0  0  0  0  0  0  0
   36.0000   29.2970   31.6670 C   0  0  0  0  0  0  0  0  0  0  0  0
   37.1560   28.5180   31.5060 C   0  0  0  0  0  0  0  0  0  0  0  0
   37.2370   27.7550   32.6670 C   0  0  0  0  0  0  0  0  0  0  0  0
   36.2310   28.0660   33.4170 O   0  0  0  0  0  0  0  0  0  0  0  0
   35.7330   29.9870   30.8630 H   0  0  0  0  0  0  0  0  0  0  0  0
   37.8430   28.4890   30.6910 H   0  0  0  0  0  0  0  0  0  0  0  0
   34.2520   29.5940   33.3720 C   0  0  0  0  0  0  0  0  0  0  0  0
   33.1930   29.4340   32.7250 O   0  0  0  0  0  0  0  0  0  0  0  0
   34.3490   30.3730   34.5900 C   0  0  0  0  0  0  0  0  0  0  0  0
   35.6120   30.9040   34.8860 C   0  0  0  0  0  0  0  0  0  0  0  0
   35.7340   31.6620   36.0600 C   0  0  0  0  0  0  0  0  0  0  0  0
   34.6160   31.8330   36.8390 N   0  0  0  0  0  0  0  0  0  0  0  0
   33.4310   31.3050   36.5130 C   0  0  0  0  0  0  0  0  0  0  0  0
   33.2950   30.5810   35.4010 N   0  0  0  0  0  0  0  0  0  0  0  0
   36.4460   30.7330   34.2330 H   0  0  0  0  0  0  0  0  0  0  0  0
   36.6950   32.0660   36.2850 H   0  0  0  0  0  0  0  0  0  0  0  0
   32.6470   31.5240   37.2240 H   0  0  0  0  0  0  0  0  0  0  0  0
   38.3040   26.7850   32.9330 C   0  0  0  0  0  0  0  0  0  0  0  0
   39.3510   26.7800   32.2120 O   0  0  0  0  0  0  0  0  0  0  0  0
   38.2420   25.8010   33.9960 C   0  0  0  0  0  0  0  0  0  0  0  0
   38.2440   24.4550   33.6100 C   0  0  0  0  0  0  0  0  0  0  0  0
   38.2880   24.1050   32.5780 H   0  0  0  0  0  0  0  0  0  0  0  0
   38.1840   23.4600   34.5930 C   0  0  0  0  0  3  0  0  0  0  0  0
   38.1260   23.7970   35.9280 C   0  0  0  0  0  0  0  0  0  0  0  0
   38.0680   22.8010   36.8300 N   0  0  0  0  0  0  0  0  0  0  0  0
   38.0080   23.0300   38.1730 C   0  0  0  0  0  0  0  0  0  0  0  0
   37.9610   22.2500   38.9140 H   0  0  0  0  0  0  0  0  0  0  0  0
   38.0040   24.3380   38.5780 C   0  0  0  0  0  3  0  0  0  0  0  0
   38.0610   25.3760   37.6630 C   0  0  0  0  0  3  0  0  0  0  0  0
   38.1230   25.1360   36.3060 C   0  0  0  0  0  0  0  0  0  0  0  0
   38.1810   26.1070   35.3400 C   0  0  0  0  0  3  0  0  0  0  0  0
  1  8  1  0  0  0  0
  1  5  1  0  0  0  0
  2  1  2  0  0  0  0
  3  2  1  0  0  0  0
  3  4  2  0  0  0  0
  4 19  1  0  0  0  0
  4  5  1  0  0  0  0
  6  2  1  0  0  0  0
  7  3  1  0  0  0  0
  8 10  1  0  0  0  0
  9  8  2  0  0  0  0
 10 11  2  0  0  0  0
 10 15  1  0  0  0  0
 11 12  1  0  0  0  0
 12 17  1  0  0  0  0
 12 13  2  0  0  0  0
 14 13  1  0  0  0  0
 14 18  1  0  0  0  0
 15 14  2  0  0  0  0
 16 11  1  0  0  0  0
 19 21  1  0  0  0  0
 20 19  2  0  0  0  0
 21 32  1  0  0  0  0
 22 21  2  0  0  0  0
 22 24  1  0  0  0  0
 23 22  1  0  0  0  0
 24 25  2  0  0  0  0
 25 31  1  0  0  0  0
 25 26  1  0  0  0  0
 26 27  2  0  0  0  0
 27 29  1  0  0  0  0
 27 28  1  0  0  0  0
 30 29  2  0  0  0  0
 31 30  1  0  0  0  0
 32 31  2  0  0  0  0
M  END
>  <minimizedAffinity>
-5.83184958

$$$$
