
 OpenBabel03272510083D

 47 52  0  0  0  0  0  0  0  0999 V2000
   35.3070   30.0480   47.5930 C   0  0  0  0  0  0  0  0  0  0  0  0
   35.1770   29.9960   48.9440 N   0  0  0  0  0  0  0  0  0  0  0  0
   36.1790   30.4310   49.7270 C   0  0  0  0  0  0  0  0  0  0  0  0
   37.3550   30.9390   49.2600 N   0  0  0  0  0  0  0  0  0  0  0  0
   37.5180   31.0050   47.9230 C   0  0  0  0  0  0  0  0  0  0  0  0
   38.6670   31.5190   47.3460 C   0  0  0  0  0  0  0  0  0  0  0  0
   38.7930   31.5870   45.9540 C   0  0  0  0  0  0  0  0  0  0  0  0
   37.7430   31.1290   45.1490 C   0  0  0  0  0  0  0  0  0  0  0  0
   36.6130   30.6210   45.7760 C   0  0  0  0  0  0  0  0  0  0  0  0
   36.4890   30.5560   47.1270 C   0  0  0  0  0  0  0  0  0  0  0  0
   36.1370   30.4150   50.8170 H   0  0  0  0  0  0  0  0  0  0  0  0
   39.4270   31.8490   48.0420 H   0  0  0  0  0  0  0  0  0  0  0  0
   39.7310   32.0080   45.6270 H   0  0  0  0  0  0  0  0  0  0  0  0
   38.0470   31.2730   44.1250 H   0  0  0  0  0  0  0  0  0  0  0  0
   33.9580   28.2950   46.3240 C   0  0  0  0  0  0  0  0  0  0  0  0
   34.1840   29.5840   46.8570 C   0  0  0  0  0  0  0  0  0  0  0  0
   33.1940   30.5780   46.6460 C   0  0  0  0  0  0  0  0  0  0  0  0
   32.0750   30.2690   45.9430 N   0  0  0  0  0  0  0  0  0  0  0  0
   31.9190   29.0060   45.4510 C   0  0  0  0  0  0  0  0  0  0  0  0
   32.8280   28.0450   45.6340 N   0  0  0  0  0  0  0  0  0  0  0  0
   30.7220   28.7400   44.6850 N   0  0  0  0  0  0  0  0  0  0  0  0
   29.3910   28.8550   45.1980 C   0  0  0  0  0  0  0  0  0  0  0  0
   28.5070   28.7550   43.9960 C   0  0  0  0  0  0  0  0  0  0  0  0
   29.4170   28.8020   42.7730 C   0  0  0  0  0  0  0  0  0  0  0  0
   30.7120   28.3190   43.2720 C   0  0  0  0  0  0  0  0  0  0  0  0
   34.7500   27.5900   46.5270 H   0  0  0  0  0  0  0  0  0  0  0  0
   33.2750   31.5800   47.0140 H   0  0  0  0  0  0  0  0  0  0  0  0
   29.2120   28.0540   45.9510 H   0  0  0  0  0  0  0  0  0  0  0  0
   29.2360   29.8470   45.6800 H   0  0  0  0  0  0  0  0  0  0  0  0
   27.7630   29.5900   43.9490 H   0  0  0  0  0  0  0  0  0  0  0  0
   27.9050   27.8210   43.9570 H   0  0  0  0  0  0  0  0  0  0  0  0
   29.5090   29.8330   42.3790 H   0  0  0  0  0  0  0  0  0  0  0  0
   29.0030   28.1170   42.0020 H   0  0  0  0  0  0  0  0  0  0  0  0
   31.6180   28.6650   42.7770 H   0  0  0  0  0  0  0  0  0  0  0  0
   30.7940   27.1990   43.2970 H   0  0  0  0  0  0  0  0  0  0  0  0
   35.8140   30.2100   44.6350 C   0  0  0  0  0  0  0  0  0  0  0  0
   34.7900   30.7950   43.9180 C   0  0  0  0  0  0  0  0  0  0  0  0
   34.5700   31.7930   44.3390 H   0  0  0  0  0  0  0  0  0  0  0  0
   34.1070   30.2620   42.8590 C   0  0  0  0  0  3  0  0  0  0  0  0
   34.4810   29.0030   42.4640 C   0  0  0  0  0  0  0  0  0  0  0  0
   33.8300   28.4480   41.4270 N   0  0  0  0  0  0  0  0  0  0  0  0
   34.1400   27.2060   40.9780 C   0  0  0  0  0  0  0  0  0  0  0  0
   33.6070   26.7530   40.1290 H   0  0  0  0  0  0  0  0  0  0  0  0
   35.1580   26.4760   41.5990 C   0  0  0  0  0  3  0  0  0  0  0  0
   35.8610   27.0030   42.6740 C   0  0  0  0  0  3  0  0  0  0  0  0
   35.4750   28.2610   43.0530 C   0  0  0  0  0  0  0  0  0  0  0  0
   36.0910   28.9130   44.1150 C   0  0  0  0  0  3  0  0  0  0  0  0
  1  2  1  0  0  0  0
  2  3  2  0  0  0  0
  3 11  1  0  0  0  0
  4  3  1  0  0  0  0
  5  4  2  0  0  0  0
  6  5  1  0  0  0  0
  6 12  1  0  0  0  0
  7  6  2  0  0  0  0
  8  9  2  0  0  0  0
  8  7  1  0  0  0  0
  9 10  1  0  0  0  0
 10  1  2  0  0  0  0
 10  5  1  0  0  0  0
 13  7  1  0  0  0  0
 14  8  1  0  0  0  0
 15 26  1  0  0  0  0
 15 16  1  0  0  0  0
 16  1  1  0  0  0  0
 17 16  2  0  0  0  0
 17 27  1  0  0  0  0
 18 17  1  0  0  0  0
 19 20  1  0  0  0  0
 19 18  2  0  0  0  0
 20 15  2  0  0  0  0
 21 22  1  0  0  0  0
 21 19  1  0  0  0  0
 22 29  1  0  0  0  0
 22 28  1  0  0  0  0
 23 22  1  0  0  0  0
 24 25  1  0  0  0  0
 24 23  1  0  0  0  0
 25 35  1  0  0  0  0
 25 21  1  0  0  0  0
 30 23  1  0  0  0  0
 31 23  1  0  0  0  0
 32 24  1  0  0  0  0
 33 24  1  0  0  0  0
 34 25  1  0  0  0  0
 36  9  1  0  0  0  0
 37 38  1  0  0  0  0
 37 36  2  0  0  0  0
 39 37  1  0  0  0  0
 40 39  2  0  0  0  0
 40 46  1  0  0  0  0
 41 40  1  0  0  0  0
 42 41  2  0  0  0  0
 42 44  1  0  0  0  0
 43 42  1  0  0  0  0
 44 45  2  0  0  0  0
 45 46  1  0  0  0  0
 46 47  2  0  0  0  0
 47 36  1  0  0  0  0
M  END
>  <minimizedAffinity>
-4.84258509

>  <minimizedRMSD>
3.84512234

$$$$
