
 OpenBabel03272504053D

 44 48  0  0  0  0  0  0  0  0999 V2000
   36.2110   26.6410   31.3860 C   0  0  0  0  0  0  0  0  0  0  0  0
   35.7040   27.5540   30.9770 H   0  0  0  0  0  0  0  0  0  0  0  0
   37.0810   26.4920   30.6930 H   0  0  0  0  0  0  0  0  0  0  0  0
   36.6080   26.9300   32.7350 C   0  0  0  0  0  0  0  0  0  0  0  0
   36.3420   28.1450   33.3060 C   0  0  0  0  0  0  0  0  0  0  0  0
   36.7230   28.4450   34.6260 C   0  0  0  0  0  0  0  0  0  0  0  0
   37.3850   27.4190   35.2990 N   0  0  0  0  0  0  0  0  0  0  0  0
   37.6220   26.2440   34.6950 C   0  0  0  0  0  0  0  0  0  0  0  0
   37.2400   26.0060   33.4360 N   0  0  0  0  0  0  0  0  0  0  0  0
   35.8240   28.8880   32.7160 H   0  0  0  0  0  0  0  0  0  0  0  0
   36.4990   29.4030   35.0400 H   0  0  0  0  0  0  0  0  0  0  0  0
   38.3200   25.2050   35.4500 C   0  0  0  0  0  0  0  0  0  0  0  0
   37.7260   24.6550   36.5870 C   0  0  0  0  0  0  0  0  0  0  0  0
   36.7510   25.0360   36.8630 H   0  0  0  0  0  0  0  0  0  0  0  0
   38.3440   23.6740   37.3330 C   0  0  0  0  0  3  0  0  0  0  0  0
   39.5990   23.2210   36.9330 C   0  0  0  0  0  0  0  0  0  0  0  0
   40.1890   22.2720   37.6590 N   0  0  0  0  0  0  0  0  0  0  0  0
   41.4130   21.7990   37.3090 C   0  0  0  0  0  0  0  0  0  0  0  0
   41.9420   21.0310   37.8570 H   0  0  0  0  0  0  0  0  0  0  0  0
   41.9840   22.3480   36.1920 C   0  0  0  0  0  3  0  0  0  0  0  0
   41.4320   23.3420   35.3800 C   0  0  0  0  0  3  0  0  0  0  0  0
   40.1750   23.7730   35.8070 C   0  0  0  0  0  0  0  0  0  0  0  0
   39.5630   24.7650   35.0440 C   0  0  0  0  0  3  0  0  0  0  0  0
   35.2970   25.5060   31.1570 C   0  0  0  0  0  0  0  0  0  0  0  0
   34.6270   25.4310   32.0640 H   0  0  0  0  0  0  0  0  0  0  0  0
   34.6230   25.6730   30.3190 H   0  0  0  0  0  0  0  0  0  0  0  0
   35.9800   24.1980   31.0960 C   0  0  0  0  0  0  0  0  0  0  0  0
   37.2890   24.0680   30.6210 C   0  0  0  0  0  0  0  0  0  0  0  0
   37.6280   22.7480   30.6920 C   0  0  0  0  0  0  0  0  0  0  0  0
   36.5700   22.0970   31.1900 N   0  0  0  0  0  0  0  0  0  0  0  0
   35.6140   22.9830   31.4180 N   0  0  0  0  0  0  0  0  0  0  0  0
   37.9860   24.8120   30.2450 H   0  0  0  0  0  0  0  0  0  0  0  0
   38.5290   22.2130   30.4320 H   0  0  0  0  0  0  0  0  0  0  0  0
   36.3460   20.7240   31.4820 C   0  0  0  0  0  0  0  0  0  0  0  0
   35.6530   20.4560   32.6360 C   0  0  0  0  0  0  0  0  0  0  0  0
   35.3400   19.1820   33.0850 C   0  0  0  0  0  0  0  0  0  0  0  0
   35.7740   18.1360   32.2860 C   0  0  0  0  0  0  0  0  0  0  0  0
   36.4770   18.3880   31.1140 C   0  0  0  0  0  0  0  0  0  0  0  0
   36.7720   19.6700   30.6950 C   0  0  0  0  0  0  0  0  0  0  0  0
   35.2990   21.2600   33.2860 H   0  0  0  0  0  0  0  0  0  0  0  0
   34.7910   19.0020   34.0000 H   0  0  0  0  0  0  0  0  0  0  0  0
   35.5820   17.1050   32.5430 H   0  0  0  0  0  0  0  0  0  0  0  0
   36.8490   17.6210   30.4360 H   0  0  0  0  0  0  0  0  0  0  0  0
   37.3170   19.9060   29.7890 H   0  0  0  0  0  0  0  0  0  0  0  0
  1  4  1  0  0  0  0
  2  1  1  0  0  0  0
  3  1  1  0  0  0  0
  4  5  2  0  0  0  0
  4  9  1  0  0  0  0
  5  6  1  0  0  0  0
  6 11  1  0  0  0  0
  6  7  2  0  0  0  0
  8  7  1  0  0  0  0
  8 12  1  0  0  0  0
  9  8  2  0  0  0  0
 10  5  1  0  0  0  0
 12 13  1  0  0  0  0
 13 14  1  0  0  0  0
 13 15  2  0  0  0  0
 16 15  1  0  0  0  0
 16 17  1  0  0  0  0
 18 17  2  0  0  0  0
 18 19  1  0  0  0  0
 20 18  1  0  0  0  0
 21 22  1  0  0  0  0
 21 20  2  0  0  0  0
 22 16  2  0  0  0  0
 23 12  2  0  0  0  0
 23 22  1  0  0  0  0
 24  1  1  0  0  0  0
 24 25  1  0  0  0  0
 26 24  1  0  0  0  0
 27 24  1  0  0  0  0
 27 31  2  0  0  0  0
 28 29  2  0  0  0  0
 28 27  1  0  0  0  0
 29 30  1  0  0  0  0
 30 31  1  0  0  0  0
 30 34  1  0  0  0  0
 32 28  1  0  0  0  0
 33 29  1  0  0  0  0
 34 35  1  0  0  0  0
 35 36  2  0  0  0  0
 35 40  1  0  0  0  0
 36 41  1  0  0  0  0
 37 42  1  0  0  0  0
 37 36  1  0  0  0  0
 38 37  2  0  0  0  0
 39 38  1  0  0  0  0
 39 34  2  0  0  0  0
 43 38  1  0  0  0  0
 44 39  1  0  0  0  0
M  END
>  <minimizedAffinity>
-6.98733711

$$$$

 OpenBabel03272504053D

 44 48  0  0  0  0  0  0  0  0999 V2000
   35.7490   23.0840   31.1490 C   0  0  0  0  0  0  0  0  0  0  0  0
   35.0220   23.3990   31.9420 H   0  0  0  0  0  0  0  0  0  0  0  0
   35.0960   22.8890   30.2570 H   0  0  0  0  0  0  0  0  0  0  0  0
   36.6690   24.1670   30.9470 C   0  0  0  0  0  0  0  0  0  0  0  0
   37.9080   23.9520   30.4060 C   0  0  0  0  0  0  0  0  0  0  0  0
   38.8210   25.0010   30.2010 C   0  0  0  0  0  0  0  0  0  0  0  0
   38.3710   26.2620   30.5880 N   0  0  0  0  0  0  0  0  0  0  0  0
   37.1470   26.4220   31.1130 C   0  0  0  0  0  0  0  0  0  0  0  0
   36.3130   25.3920   31.2900 N   0  0  0  0  0  0  0  0  0  0  0  0
   38.1810   22.9420   30.1330 H   0  0  0  0  0  0  0  0  0  0  0  0
   39.7790   24.7970   29.7770 H   0  0  0  0  0  0  0  0  0  0  0  0
   36.7290   27.7690   31.5000 C   0  0  0  0  0  0  0  0  0  0  0  0
   36.6870   28.7840   30.5450 C   0  0  0  0  0  0  0  0  0  0  0  0
   36.9760   28.5200   29.5350 H   0  0  0  0  0  0  0  0  0  0  0  0
   36.3010   30.0700   30.8600 C   0  0  0  0  0  3  0  0  0  0  0  0
   35.9410   30.3560   32.1750 C   0  0  0  0  0  0  0  0  0  0  0  0
   35.5670   31.6000   32.4710 N   0  0  0  0  0  0  0  0  0  0  0  0
   35.2070   31.9280   33.7390 C   0  0  0  0  0  0  0  0  0  0  0  0
   34.8960   32.9180   34.0410 H   0  0  0  0  0  0  0  0  0  0  0  0
   35.2530   30.9210   34.6660 C   0  0  0  0  0  3  0  0  0  0  0  0
   35.6310   29.5960   34.4370 C   0  0  0  0  0  3  0  0  0  0  0  0
   35.9850   29.3420   33.1100 C   0  0  0  0  0  0  0  0  0  0  0  0
   36.3740   28.0400   32.8060 C   0  0  0  0  0  3  0  0  0  0  0  0
   36.2920   21.7770   31.5620 C   0  0  0  0  0  0  0  0  0  0  0  0
   35.5080   20.9990   31.3220 H   0  0  0  0  0  0  0  0  0  0  0  0
   37.1670   21.4850   30.9840 H   0  0  0  0  0  0  0  0  0  0  0  0
   36.4970   21.6530   33.0190 C   0  0  0  0  0  0  0  0  0  0  0  0
   35.7040   20.8140   33.8090 C   0  0  0  0  0  0  0  0  0  0  0  0
   36.1400   20.9210   35.0980 C   0  0  0  0  0  0  0  0  0  0  0  0
   37.1590   21.7890   35.0970 N   0  0  0  0  0  0  0  0  0  0  0  0
   37.3430   22.2020   33.8530 N   0  0  0  0  0  0  0  0  0  0  0  0
   34.8750   20.1630   33.5450 H   0  0  0  0  0  0  0  0  0  0  0  0
   35.8150   20.4560   36.0170 H   0  0  0  0  0  0  0  0  0  0  0  0
   37.9900   22.2840   36.1370 C   0  0  0  0  0  0  0  0  0  0  0  0
   37.3550   22.9620   37.1490 C   0  0  0  0  0  0  0  0  0  0  0  0
   37.9980   23.5160   38.2460 C   0  0  0  0  0  0  0  0  0  0  0  0
   39.3740   23.3540   38.2850 C   0  0  0  0  0  0  0  0  0  0  0  0
   40.0340   22.6710   37.2710 C   0  0  0  0  0  0  0  0  0  0  0  0
   39.3630   22.1310   36.1920 C   0  0  0  0  0  0  0  0  0  0  0  0
   36.2720   23.1060   37.1440 H   0  0  0  0  0  0  0  0  0  0  0  0
   37.4700   24.0450   39.0280 H   0  0  0  0  0  0  0  0  0  0  0  0
   39.9710   23.7450   39.0960 H   0  0  0  0  0  0  0  0  0  0  0  0
   41.1100   22.5030   37.2330 H   0  0  0  0  0  0  0  0  0  0  0  0
   39.8420   21.5930   35.3820 H   0  0  0  0  0  0  0  0  0  0  0  0
  1 24  1  0  0  0  0
  1  2  1  0  0  0  0
  3  1  1  0  0  0  0
  4  1  1  0  0  0  0
  4  9  1  0  0  0  0
  5  4  2  0  0  0  0
  6  5  1  0  0  0  0
  6  7  2  0  0  0  0
  7  8  1  0  0  0  0
  8  9  2  0  0  0  0
  8 12  1  0  0  0  0
 10  5  1  0  0  0  0
 11  6  1  0  0  0  0
 12 23  1  0  0  0  0
 13 15  1  0  0  0  0
 13 12  2  0  0  0  0
 14 13  1  0  0  0  0
 15 16  2  0  0  0  0
 16 17  1  0  0  0  0
 16 22  1  0  0  0  0
 17 18  2  0  0  0  0
 18 19  1  0  0  0  0
 18 20  1  0  0  0  0
 21 20  2  0  0  0  0
 22 21  1  0  0  0  0
 23 22  2  0  0  0  0
 24 27  1  0  0  0  0
 25 24  1  0  0  0  0
 26 24  1  0  0  0  0
 27 28  1  0  0  0  0
 27 31  2  0  0  0  0
 28 29  2  0  0  0  0
 29 33  1  0  0  0  0
 30 29  1  0  0  0  0
 30 34  1  0  0  0  0
 31 30  1  0  0  0  0
 32 28  1  0  0  0  0
 34 39  2  0  0  0  0
 34 35  1  0  0  0  0
 35 36  2  0  0  0  0
 36 37  1  0  0  0  0
 36 41  1  0  0  0  0
 37 42  1  0  0  0  0
 38 37  2  0  0  0  0
 39 38  1  0  0  0  0
 40 35  1  0  0  0  0
 43 38  1  0  0  0  0
 44 39  1  0  0  0  0
M  END
>  <minimizedAffinity>
-6.90084314

$$$$

 OpenBabel03272504053D

 44 48  0  0  0  0  0  0  0  0999 V2000
   36.0460   25.4680   31.1640 C   0  0  0  0  0  0  0  0  0  0  0  0
   35.4290   25.1240   32.0340 H   0  0  0  0  0  0  0  0  0  0  0  0
   35.4590   25.1230   30.2720 H   0  0  0  0  0  0  0  0  0  0  0  0
   36.1570   26.8970   31.2470 C   0  0  0  0  0  0  0  0  0  0  0  0
   36.9020   27.6030   30.3430 C   0  0  0  0  0  0  0  0  0  0  0  0
   37.0210   29.0030   30.4080 C   0  0  0  0  0  0  0  0  0  0  0  0
   36.3280   29.6070   31.4560 N   0  0  0  0  0  0  0  0  0  0  0  0
   35.6090   28.8700   32.3170 C   0  0  0  0  0  0  0  0  0  0  0  0
   35.5270   27.5400   32.2130 N   0  0  0  0  0  0  0  0  0  0  0  0
   37.4110   27.0590   29.5590 H   0  0  0  0  0  0  0  0  0  0  0  0
   37.6110   29.5220   29.6860 H   0  0  0  0  0  0  0  0  0  0  0  0
   34.9020   29.5590   33.3960 C   0  0  0  0  0  0  0  0  0  0  0  0
   33.5250   29.3930   33.5410 C   0  0  0  0  0  0  0  0  0  0  0  0
   33.0310   28.7450   32.8270 H   0  0  0  0  0  0  0  0  0  0  0  0
   32.8130   30.0210   34.5420 C   0  0  0  0  0  3  0  0  0  0  0  0
   33.4980   30.8440   35.4320 C   0  0  0  0  0  0  0  0  0  0  0  0
   32.8030   31.4470   36.3970 N   0  0  0  0  0  0  0  0  0  0  0  0
   33.4250   32.2590   37.2890 C   0  0  0  0  0  0  0  0  0  0  0  0
   32.9180   32.7760   38.0920 H   0  0  0  0  0  0  0  0  0  0  0  0
   34.7780   32.4130   37.1350 C   0  0  0  0  0  3  0  0  0  0  0  0
   35.5760   31.8190   36.1540 C   0  0  0  0  0  3  0  0  0  0  0  0
   34.8600   31.0000   35.2780 C   0  0  0  0  0  0  0  0  0  0  0  0
   35.5910   30.3720   34.2730 C   0  0  0  0  0  3  0  0  0  0  0  0
   37.2870   24.6720   31.1790 C   0  0  0  0  0  0  0  0  0  0  0  0
   36.9860   23.5840   31.1350 H   0  0  0  0  0  0  0  0  0  0  0  0
   37.8990   24.8330   30.2930 H   0  0  0  0  0  0  0  0  0  0  0  0
   38.0530   24.7900   32.4360 C   0  0  0  0  0  0  0  0  0  0  0  0
   39.2550   25.5020   32.5060 C   0  0  0  0  0  0  0  0  0  0  0  0
   39.7110   25.4250   33.7910 C   0  0  0  0  0  0  0  0  0  0  0  0
   38.8240   24.6950   34.4780 N   0  0  0  0  0  0  0  0  0  0  0  0
   37.8570   24.3360   33.6480 N   0  0  0  0  0  0  0  0  0  0  0  0
   39.8040   26.0470   31.7430 H   0  0  0  0  0  0  0  0  0  0  0  0
   40.5880   25.8240   34.2770 H   0  0  0  0  0  0  0  0  0  0  0  0
   38.7740   24.2890   35.8390 C   0  0  0  0  0  0  0  0  0  0  0  0
   39.7130   23.3660   36.2300 C   0  0  0  0  0  0  0  0  0  0  0  0
   39.8200   22.8520   37.5130 C   0  0  0  0  0  0  0  0  0  0  0  0
   38.8990   23.3270   38.4330 C   0  0  0  0  0  0  0  0  0  0  0  0
   37.9420   24.2610   38.0570 C   0  0  0  0  0  0  0  0  0  0  0  0
   37.8630   24.7530   36.7690 C   0  0  0  0  0  0  0  0  0  0  0  0
   40.4510   22.9740   35.5260 H   0  0  0  0  0  0  0  0  0  0  0  0
   40.5720   22.1250   37.7910 H   0  0  0  0  0  0  0  0  0  0  0  0
   38.8960   22.9930   39.4600 H   0  0  0  0  0  0  0  0  0  0  0  0
   37.1880   24.6810   38.7220 H   0  0  0  0  0  0  0  0  0  0  0  0
   37.1320   25.4810   36.4380 H   0  0  0  0  0  0  0  0  0  0  0  0
  1 24  1  0  0  0  0
  1  4  1  0  0  0  0
  1  2  1  0  0  0  0
  3  1  1  0  0  0  0
  4  9  1  0  0  0  0
  5  6  1  0  0  0  0
  5  4  2  0  0  0  0
  6  7  2  0  0  0  0
  7  8  1  0  0  0  0
  8 12  1  0  0  0  0
  9  8  2  0  0  0  0
 10  5  1  0  0  0  0
 11  6  1  0  0  0  0
 12 13  2  0  0  0  0
 12 23  1  0  0  0  0
 13 15  1  0  0  0  0
 14 13  1  0  0  0  0
 15 16  2  0  0  0  0
 16 17  1  0  0  0  0
 17 18  2  0  0  0  0
 18 19  1  0  0  0  0
 20 18  1  0  0  0  0
 21 20  2  0  0  0  0
 22 16  1  0  0  0  0
 22 21  1  0  0  0  0
 23 22  2  0  0  0  0
 24 27  1  0  0  0  0
 25 24  1  0  0  0  0
 26 24  1  0  0  0  0
 27 28  1  0  0  0  0
 27 31  2  0  0  0  0
 28 29  2  0  0  0  0
 29 33  1  0  0  0  0
 29 30  1  0  0  0  0
 30 34  1  0  0  0  0
 31 30  1  0  0  0  0
 32 28  1  0  0  0  0
 34 35  2  0  0  0  0
 34 39  1  0  0  0  0
 35 36  1  0  0  0  0
 36 41  1  0  0  0  0
 36 37  2  0  0  0  0
 37 42  1  0  0  0  0
 38 37  1  0  0  0  0
 38 43  1  0  0  0  0
 39 38  2  0  0  0  0
 40 35  1  0  0  0  0
 44 39  1  0  0  0  0
M  END
>  <minimizedAffinity>
-6.88040781

$$$$

 OpenBabel03272504053D

 44 48  0  0  0  0  0  0  0  0999 V2000
   38.2310   26.0990   34.4340 C   0  0  0  0  0  0  0  0  0  0  0  0
   38.3500   25.2240   33.7440 H   0  0  0  0  0  0  0  0  0  0  0  0
   39.2870   26.3890   34.6760 H   0  0  0  0  0  0  0  0  0  0  0  0
   37.5150   27.1200   33.7220 C   0  0  0  0  0  0  0  0  0  0  0  0
   37.6640   27.2780   32.3710 C   0  0  0  0  0  0  0  0  0  0  0  0
   36.9710   28.2710   31.6570 C   0  0  0  0  0  0  0  0  0  0  0  0
   36.1300   29.0740   32.4260 N   0  0  0  0  0  0  0  0  0  0  0  0
   36.0170   28.8800   33.7490 C   0  0  0  0  0  0  0  0  0  0  0  0
   36.6980   27.9200   34.3830 N   0  0  0  0  0  0  0  0  0  0  0  0
   38.3380   26.6140   31.8480 H   0  0  0  0  0  0  0  0  0  0  0  0
   37.1120   28.3660   30.6040 H   0  0  0  0  0  0  0  0  0  0  0  0
   35.1190   29.7520   34.5040 C   0  0  0  0  0  0  0  0  0  0  0  0
   33.7460   29.5010   34.5070 C   0  0  0  0  0  0  0  0  0  0  0  0
   33.4030   28.6490   33.9330 H   0  0  0  0  0  0  0  0  0  0  0  0
   32.8580   30.2940   35.2020 C   0  0  0  0  0  3  0  0  0  0  0  0
   33.3550   31.3790   35.9230 C   0  0  0  0  0  0  0  0  0  0  0  0
   32.4900   32.1400   36.5930 N   0  0  0  0  0  0  0  0  0  0  0  0
   32.9250   33.2080   37.3090 C   0  0  0  0  0  0  0  0  0  0  0  0
   32.2750   33.8630   37.8730 H   0  0  0  0  0  0  0  0  0  0  0  0
   34.2750   33.4430   37.2970 C   0  0  0  0  0  3  0  0  0  0  0  0
   35.2430   32.6940   36.6230 C   0  0  0  0  0  3  0  0  0  0  0  0
   34.7140   31.6160   35.9120 C   0  0  0  0  0  0  0  0  0  0  0  0
   35.6220   30.8230   35.2140 C   0  0  0  0  0  3  0  0  0  0  0  0
   37.6430   25.5820   35.6840 C   0  0  0  0  0  0  0  0  0  0  0  0
   37.5730   26.4500   36.4030 H   0  0  0  0  0  0  0  0  0  0  0  0
   36.6190   25.2370   35.5540 H   0  0  0  0  0  0  0  0  0  0  0  0
   38.4980   24.5970   36.3780 C   0  0  0  0  0  0  0  0  0  0  0  0
   38.1580   24.0760   37.6300 C   0  0  0  0  0  0  0  0  0  0  0  0
   39.1400   23.2010   37.9980 C   0  0  0  0  0  0  0  0  0  0  0  0
   40.0430   23.1880   37.0100 N   0  0  0  0  0  0  0  0  0  0  0  0
   39.6330   24.0240   36.0690 N   0  0  0  0  0  0  0  0  0  0  0  0
   37.3010   24.2660   38.2710 H   0  0  0  0  0  0  0  0  0  0  0  0
   39.2760   22.5870   38.8750 H   0  0  0  0  0  0  0  0  0  0  0  0
   41.2610   22.4760   36.8420 C   0  0  0  0  0  0  0  0  0  0  0  0
   42.2670   23.1430   36.1870 C   0  0  0  0  0  0  0  0  0  0  0  0
   43.5220   22.6130   35.9290 C   0  0  0  0  0  0  0  0  0  0  0  0
   43.7350   21.3190   36.3790 C   0  0  0  0  0  0  0  0  0  0  0  0
   42.7300   20.6280   37.0440 C   0  0  0  0  0  0  0  0  0  0  0  0
   41.4900   21.1860   37.2840 C   0  0  0  0  0  0  0  0  0  0  0  0
   42.1270   24.1630   35.8210 H   0  0  0  0  0  0  0  0  0  0  0  0
   44.2950   23.1640   35.4110 H   0  0  0  0  0  0  0  0  0  0  0  0
   44.6770   20.8130   36.2320 H   0  0  0  0  0  0  0  0  0  0  0  0
   42.8220   19.6120   37.4260 H   0  0  0  0  0  0  0  0  0  0  0  0
   40.6820   20.6800   37.7980 H   0  0  0  0  0  0  0  0  0  0  0  0
  1  3  1  0  0  0  0
  1 24  1  0  0  0  0
  2  1  1  0  0  0  0
  4  9  1  0  0  0  0
  4  1  1  0  0  0  0
  5  4  2  0  0  0  0
  6  5  1  0  0  0  0
  6  7  2  0  0  0  0
  7  8  1  0  0  0  0
  8  9  2  0  0  0  0
  8 12  1  0  0  0  0
 10  5  1  0  0  0  0
 11  6  1  0  0  0  0
 12 13  2  0  0  0  0
 12 23  1  0  0  0  0
 13 15  1  0  0  0  0
 14 13  1  0  0  0  0
 15 16  2  0  0  0  0
 16 17  1  0  0  0  0
 17 18  2  0  0  0  0
 18 19  1  0  0  0  0
 20 18  1  0  0  0  0
 21 20  2  0  0  0  0
 22 16  1  0  0  0  0
 22 21  1  0  0  0  0
 23 22  2  0  0  0  0
 24 27  1  0  0  0  0
 24 25  1  0  0  0  0
 26 24  1  0  0  0  0
 27 28  1  0  0  0  0
 28 29  2  0  0  0  0
 28 32  1  0  0  0  0
 29 33  1  0  0  0  0
 30 29  1  0  0  0  0
 31 27  2  0  0  0  0
 31 30  1  0  0  0  0
 34 30  1  0  0  0  0
 34 39  1  0  0  0  0
 35 34  2  0  0  0  0
 36 35  1  0  0  0  0
 36 37  2  0  0  0  0
 37 38  1  0  0  0  0
 38 39  2  0  0  0  0
 38 43  1  0  0  0  0
 39 44  1  0  0  0  0
 40 35  1  0  0  0  0
 41 36  1  0  0  0  0
 42 37  1  0  0  0  0
M  END
>  <minimizedAffinity>
-6.85566664

$$$$

 OpenBabel03272504053D

 44 48  0  0  0  0  0  0  0  0999 V2000
   38.1190   27.1540   33.7290 C   0  0  0  0  0  0  0  0  0  0  0  0
   39.1600   26.7790   33.5480 H   0  0  0  0  0  0  0  0  0  0  0  0
   38.2010   28.2570   33.5390 H   0  0  0  0  0  0  0  0  0  0  0  0
   37.2500   26.4860   32.8020 C   0  0  0  0  0  0  0  0  0  0  0  0
   36.3230   27.1800   32.0740 C   0  0  0  0  0  0  0  0  0  0  0  0
   35.4640   26.5420   31.1620 C   0  0  0  0  0  0  0  0  0  0  0  0
   35.6290   25.1610   31.0600 N   0  0  0  0  0  0  0  0  0  0  0  0
   36.5520   24.5250   31.7960 C   0  0  0  0  0  0  0  0  0  0  0  0
   37.3470   25.1770   32.6510 N   0  0  0  0  0  0  0  0  0  0  0  0
   36.2580   28.2500   32.2120 H   0  0  0  0  0  0  0  0  0  0  0  0
   34.7530   27.1150   30.6100 H   0  0  0  0  0  0  0  0  0  0  0  0
   36.6800   23.0760   31.6470 C   0  0  0  0  0  0  0  0  0  0  0  0
   37.7870   22.5400   30.9890 C   0  0  0  0  0  0  0  0  0  0  0  0
   38.5190   23.2430   30.6080 H   0  0  0  0  0  0  0  0  0  0  0  0
   37.9530   21.1820   30.8220 C   0  0  0  0  0  3  0  0  0  0  0  0
   36.9810   20.3230   31.3310 C   0  0  0  0  0  0  0  0  0  0  0  0
   37.1490   19.0110   31.1660 N   0  0  0  0  0  0  0  0  0  0  0  0
   36.2290   18.1340   31.6440 C   0  0  0  0  0  0  0  0  0  0  0  0
   36.3080   17.0610   31.5420 H   0  0  0  0  0  0  0  0  0  0  0  0
   35.1470   18.6740   32.2880 C   0  0  0  0  0  3  0  0  0  0  0  0
   34.8990   20.0330   32.5010 C   0  0  0  0  0  3  0  0  0  0  0  0
   35.8920   20.8650   31.9800 C   0  0  0  0  0  0  0  0  0  0  0  0
   35.7110   22.2350   32.1550 C   0  0  0  0  0  3  0  0  0  0  0  0
   37.8520   26.9980   35.1700 C   0  0  0  0  0  0  0  0  0  0  0  0
   38.4710   27.7740   35.7090 H   0  0  0  0  0  0  0  0  0  0  0  0
   36.8210   27.2250   35.4330 H   0  0  0  0  0  0  0  0  0  0  0  0
   38.3160   25.7090   35.7240 C   0  0  0  0  0  0  0  0  0  0  0  0
   37.4640   24.8630   36.4390 C   0  0  0  0  0  0  0  0  0  0  0  0
   38.1850   23.7640   36.8110 C   0  0  0  0  0  0  0  0  0  0  0  0
   39.4270   23.9320   36.3420 N   0  0  0  0  0  0  0  0  0  0  0  0
   39.4700   25.0920   35.7040 N   0  0  0  0  0  0  0  0  0  0  0  0
   36.4150   24.9660   36.7030 H   0  0  0  0  0  0  0  0  0  0  0  0
   37.9240   22.8770   37.3690 H   0  0  0  0  0  0  0  0  0  0  0  0
   40.5940   23.1250   36.4220 C   0  0  0  0  0  0  0  0  0  0  0  0
   41.6660   23.5350   35.6680 C   0  0  0  0  0  0  0  0  0  0  0  0
   42.8850   22.8780   35.6170 C   0  0  0  0  0  0  0  0  0  0  0  0
   42.9890   21.7340   36.3930 C   0  0  0  0  0  0  0  0  0  0  0  0
   41.9150   21.3040   37.1620 C   0  0  0  0  0  0  0  0  0  0  0  0
   40.7130   21.9830   37.1910 C   0  0  0  0  0  0  0  0  0  0  0  0
   41.6130   24.4320   35.0460 H   0  0  0  0  0  0  0  0  0  0  0  0
   43.7130   23.2260   35.0130 H   0  0  0  0  0  0  0  0  0  0  0  0
   43.8950   21.1480   36.4260 H   0  0  0  0  0  0  0  0  0  0  0  0
   41.9200   20.4180   37.7960 H   0  0  0  0  0  0  0  0  0  0  0  0
   39.8540   21.6790   37.7770 H   0  0  0  0  0  0  0  0  0  0  0  0
  1 24  1  0  0  0  0
  2  1  1  0  0  0  0
  3  1  1  0  0  0  0
  4  1  1  0  0  0  0
  5 10  1  0  0  0  0
  5  4  2  0  0  0  0
  6  5  1  0  0  0  0
  7  6  2  0  0  0  0
  7  8  1  0  0  0  0
  8  9  2  0  0  0  0
  9  4  1  0  0  0  0
 11  6  1  0  0  0  0
 12  8  1  0  0  0  0
 12 23  1  0  0  0  0
 13 12  2  0  0  0  0
 14 13  1  0  0  0  0
 15 13  1  0  0  0  0
 15 16  2  0  0  0  0
 16 22  1  0  0  0  0
 17 16  1  0  0  0  0
 17 18  2  0  0  0  0
 18 20  1  0  0  0  0
 19 18  1  0  0  0  0
 20 21  2  0  0  0  0
 22 23  2  0  0  0  0
 22 21  1  0  0  0  0
 24 26  1  0  0  0  0
 24 25  1  0  0  0  0
 24 27  1  0  0  0  0
 27 28  1  0  0  0  0
 28 32  1  0  0  0  0
 28 29  2  0  0  0  0
 29 33  1  0  0  0  0
 30 34  1  0  0  0  0
 30 29  1  0  0  0  0
 31 27  2  0  0  0  0
 31 30  1  0  0  0  0
 34 39  1  0  0  0  0
 35 34  2  0  0  0  0
 36 35  1  0  0  0  0
 36 37  2  0  0  0  0
 37 42  1  0  0  0  0
 37 38  1  0  0  0  0
 38 39  2  0  0  0  0
 38 43  1  0  0  0  0
 39 44  1  0  0  0  0
 40 35  1  0  0  0  0
 41 36  1  0  0  0  0
M  END
>  <minimizedAffinity>
-6.66475344

$$$$

 OpenBabel03272504053D

 44 48  0  0  0  0  0  0  0  0999 V2000
   38.7970   26.5370   35.3400 C   0  0  0  0  0  0  0  0  0  0  0  0
   39.5310   27.2530   35.7920 H   0  0  0  0  0  0  0  0  0  0  0  0
   38.2340   26.1430   36.2270 H   0  0  0  0  0  0  0  0  0  0  0  0
   37.9680   27.2780   34.4310 C   0  0  0  0  0  0  0  0  0  0  0  0
   38.1160   27.1550   33.0760 C   0  0  0  0  0  0  0  0  0  0  0  0
   37.3130   27.8720   32.1730 C   0  0  0  0  0  0  0  0  0  0  0  0
   36.3650   28.7090   32.7580 N   0  0  0  0  0  0  0  0  0  0  0  0
   36.2580   28.7950   34.0930 C   0  0  0  0  0  0  0  0  0  0  0  0
   37.0460   28.0920   34.9130 N   0  0  0  0  0  0  0  0  0  0  0  0
   38.8770   26.4840   32.7020 H   0  0  0  0  0  0  0  0  0  0  0  0
   37.4570   27.7510   31.1220 H   0  0  0  0  0  0  0  0  0  0  0  0
   35.2440   29.6890   34.6510 C   0  0  0  0  0  0  0  0  0  0  0  0
   33.9010   29.5100   34.3190 C   0  0  0  0  0  0  0  0  0  0  0  0
   33.6670   28.6950   33.6450 H   0  0  0  0  0  0  0  0  0  0  0  0
   32.9080   30.3260   34.8180 C   0  0  0  0  0  3  0  0  0  0  0  0
   33.2650   31.3600   35.6810 C   0  0  0  0  0  0  0  0  0  0  0  0
   32.3000   32.1440   36.1600 N   0  0  0  0  0  0  0  0  0  0  0  0
   32.5980   33.1650   37.0040 C   0  0  0  0  0  0  0  0  0  0  0  0
   31.8610   33.8350   37.4250 H   0  0  0  0  0  0  0  0  0  0  0  0
   33.9200   33.3300   37.3210 C   0  0  0  0  0  3  0  0  0  0  0  0
   34.9880   32.5530   36.8630 C   0  0  0  0  0  3  0  0  0  0  0  0
   34.5970   31.5260   36.0020 C   0  0  0  0  0  0  0  0  0  0  0  0
   35.6100   30.7100   35.5050 C   0  0  0  0  0  3  0  0  0  0  0  0
   39.5770   25.4060   34.8050 C   0  0  0  0  0  0  0  0  0  0  0  0
   39.7720   25.6220   33.7130 H   0  0  0  0  0  0  0  0  0  0  0  0
   40.5640   25.3250   35.2590 H   0  0  0  0  0  0  0  0  0  0  0  0
   38.8400   24.1260   34.7990 C   0  0  0  0  0  0  0  0  0  0  0  0
   38.7870   23.2980   35.9260 C   0  0  0  0  0  0  0  0  0  0  0  0
   38.0370   22.2040   35.6030 C   0  0  0  0  0  0  0  0  0  0  0  0
   37.6470   22.3560   34.3320 N   0  0  0  0  0  0  0  0  0  0  0  0
   38.1390   23.5020   33.8870 N   0  0  0  0  0  0  0  0  0  0  0  0
   39.2240   23.4130   36.9140 H   0  0  0  0  0  0  0  0  0  0  0  0
   37.7460   21.3300   36.1660 H   0  0  0  0  0  0  0  0  0  0  0  0
   36.8590   21.5440   33.4730 C   0  0  0  0  0  0  0  0  0  0  0  0
   37.1340   21.6370   32.1310 C   0  0  0  0  0  0  0  0  0  0  0  0
   36.4710   20.9260   31.1430 C   0  0  0  0  0  0  0  0  0  0  0  0
   35.4700   20.0730   31.5810 C   0  0  0  0  0  0  0  0  0  0  0  0
   35.1770   19.9650   32.9350 C   0  0  0  0  0  0  0  0  0  0  0  0
   35.8570   20.6890   33.8940 C   0  0  0  0  0  0  0  0  0  0  0  0
   37.9170   22.3020   31.7560 H   0  0  0  0  0  0  0  0  0  0  0  0
   36.7110   21.0200   30.0920 H   0  0  0  0  0  0  0  0  0  0  0  0
   34.8930   19.4710   30.8950 H   0  0  0  0  0  0  0  0  0  0  0  0
   34.4070   19.3180   33.3550 H   0  0  0  0  0  0  0  0  0  0  0  0
   35.6580   20.6320   34.9570 H   0  0  0  0  0  0  0  0  0  0  0  0
  1  2  1  0  0  0  0
  1  3  1  0  0  0  0
  4  9  1  0  0  0  0
  4  1  1  0  0  0  0
  5  4  2  0  0  0  0
  6  7  2  0  0  0  0
  6  5  1  0  0  0  0
  7  8  1  0  0  0  0
  8 12  1  0  0  0  0
  8  9  2  0  0  0  0
 10  5  1  0  0  0  0
 11  6  1  0  0  0  0
 12 23  1  0  0  0  0
 13 12  2  0  0  0  0
 13 15  1  0  0  0  0
 14 13  1  0  0  0  0
 15 16  2  0  0  0  0
 16 22  1  0  0  0  0
 16 17  1  0  0  0  0
 17 18  2  0  0  0  0
 18 20  1  0  0  0  0
 18 19  1  0  0  0  0
 21 20  2  0  0  0  0
 22 21  1  0  0  0  0
 23 22  2  0  0  0  0
 24 26  1  0  0  0  0
 24  1  1  0  0  0  0
 25 24  1  0  0  0  0
 27 24  1  0  0  0  0
 27 28  1  0  0  0  0
 28 32  1  0  0  0  0
 29 28  2  0  0  0  0
 29 33  1  0  0  0  0
 30 29  1  0  0  0  0
 31 30  1  0  0  0  0
 31 27  2  0  0  0  0
 34 39  1  0  0  0  0
 34 30  1  0  0  0  0
 35 34  2  0  0  0  0
 36 37  2  0  0  0  0
 36 35  1  0  0  0  0
 37 38  1  0  0  0  0
 38 43  1  0  0  0  0
 38 39  2  0  0  0  0
 39 44  1  0  0  0  0
 40 35  1  0  0  0  0
 41 36  1  0  0  0  0
 42 37  1  0  0  0  0
M  END
>  <minimizedAffinity>
-6.63962793

$$$$

 OpenBabel03272504053D

 44 48  0  0  0  0  0  0  0  0999 V2000
   38.7380   26.0600   35.1430 C   0  0  0  0  0  0  0  0  0  0  0  0
   38.2870   26.8350   35.8150 H   0  0  0  0  0  0  0  0  0  0  0  0
   39.8420   26.2050   35.2790 H   0  0  0  0  0  0  0  0  0  0  0  0
   38.2800   24.7750   35.5910 C   0  0  0  0  0  0  0  0  0  0  0  0
   38.2070   24.4730   36.9230 C   0  0  0  0  0  0  0  0  0  0  0  0
   37.7600   23.2210   37.3790 C   0  0  0  0  0  0  0  0  0  0  0  0
   37.4000   22.3210   36.3780 N   0  0  0  0  0  0  0  0  0  0  0  0
   37.4880   22.6640   35.0840 C   0  0  0  0  0  0  0  0  0  0  0  0
   37.9200   23.8680   34.6990 N   0  0  0  0  0  0  0  0  0  0  0  0
   38.5060   25.2280   37.6370 H   0  0  0  0  0  0  0  0  0  0  0  0
   37.7160   23.0200   38.4270 H   0  0  0  0  0  0  0  0  0  0  0  0
   37.0960   21.6780   34.0770 C   0  0  0  0  0  0  0  0  0  0  0  0
   35.9930   20.8540   34.3040 C   0  0  0  0  0  0  0  0  0  0  0  0
   35.4660   20.9870   35.2410 H   0  0  0  0  0  0  0  0  0  0  0  0
   35.5840   19.9090   33.3870 C   0  0  0  0  0  3  0  0  0  0  0  0
   36.2980   19.7800   32.1980 C   0  0  0  0  0  0  0  0  0  0  0  0
   35.8960   18.8650   31.3160 N   0  0  0  0  0  0  0  0  0  0  0  0
   36.5600   18.7000   30.1440 C   0  0  0  0  0  0  0  0  0  0  0  0
   36.2840   17.9770   29.3890 H   0  0  0  0  0  0  0  0  0  0  0  0
   37.6410   19.5160   29.9340 C   0  0  0  0  0  3  0  0  0  0  0  0
   38.1250   20.4950   30.8050 C   0  0  0  0  0  3  0  0  0  0  0  0
   37.3870   20.6000   31.9860 C   0  0  0  0  0  0  0  0  0  0  0  0
   37.8110   21.5580   32.9030 C   0  0  0  0  0  3  0  0  0  0  0  0
   38.4320   26.4640   33.7580 C   0  0  0  0  0  0  0  0  0  0  0  0
   39.3610   26.9520   33.3410 H   0  0  0  0  0  0  0  0  0  0  0  0
   38.2410   25.6130   33.1060 H   0  0  0  0  0  0  0  0  0  0  0  0
   37.3930   27.5090   33.6610 C   0  0  0  0  0  0  0  0  0  0  0  0
   36.8340   27.8840   32.4360 C   0  0  0  0  0  0  0  0  0  0  0  0
   35.9130   28.8620   32.6800 C   0  0  0  0  0  0  0  0  0  0  0  0
   35.9090   29.0760   34.0010 N   0  0  0  0  0  0  0  0  0  0  0  0
   36.7950   28.2600   34.5510 N   0  0  0  0  0  0  0  0  0  0  0  0
   37.0260   27.5270   31.4270 H   0  0  0  0  0  0  0  0  0  0  0  0
   35.2600   29.4250   32.0310 H   0  0  0  0  0  0  0  0  0  0  0  0
   35.1640   29.9670   34.8200 C   0  0  0  0  0  0  0  0  0  0  0  0
   35.8950   30.8740   35.5490 C   0  0  0  0  0  0  0  0  0  0  0  0
   35.3460   31.8190   36.4010 C   0  0  0  0  0  0  0  0  0  0  0  0
   33.9630   31.8150   36.4970 C   0  0  0  0  0  0  0  0  0  0  0  0
   33.2070   30.9060   35.7680 C   0  0  0  0  0  0  0  0  0  0  0  0
   33.7860   29.9770   34.9270 C   0  0  0  0  0  0  0  0  0  0  0  0
   36.9860   30.8990   35.4930 H   0  0  0  0  0  0  0  0  0  0  0  0
   35.9480   32.5210   36.9620 H   0  0  0  0  0  0  0  0  0  0  0  0
   33.4340   32.5100   37.1320 H   0  0  0  0  0  0  0  0  0  0  0  0
   32.1200   30.8420   35.7910 H   0  0  0  0  0  0  0  0  0  0  0  0
   33.2310   29.2520   34.3430 H   0  0  0  0  0  0  0  0  0  0  0  0
  1  3  1  0  0  0  0
  1  4  1  0  0  0  0
  1  2  1  0  0  0  0
  4  5  1  0  0  0  0
  5  6  2  0  0  0  0
  5 10  1  0  0  0  0
  6 11  1  0  0  0  0
  7  6  1  0  0  0  0
  8  7  2  0  0  0  0
  9  8  1  0  0  0  0
  9  4  2  0  0  0  0
 12 13  1  0  0  0  0
 12  8  1  0  0  0  0
 13 14  1  0  0  0  0
 15 13  2  0  0  0  0
 16 15  1  0  0  0  0
 17 16  2  0  0  0  0
 18 17  1  0  0  0  0
 19 18  1  0  0  0  0
 20 18  2  0  0  0  0
 20 21  1  0  0  0  0
 21 22  2  0  0  0  0
 22 16  1  0  0  0  0
 22 23  1  0  0  0  0
 23 12  2  0  0  0  0
 24  1  1  0  0  0  0
 25 24  1  0  0  0  0
 26 24  1  0  0  0  0
 27 24  1  0  0  0  0
 27 31  2  0  0  0  0
 28 29  2  0  0  0  0
 28 27  1  0  0  0  0
 29 30  1  0  0  0  0
 30 31  1  0  0  0  0
 30 34  1  0  0  0  0
 32 28  1  0  0  0  0
 33 29  1  0  0  0  0
 34 39  2  0  0  0  0
 34 35  1  0  0  0  0
 35 36  2  0  0  0  0
 36 37  1  0  0  0  0
 36 41  1  0  0  0  0
 37 42  1  0  0  0  0
 38 43  1  0  0  0  0
 38 37  2  0  0  0  0
 39 38  1  0  0  0  0
 40 35  1  0  0  0  0
 44 39  1  0  0  0  0
M  END
>  <minimizedAffinity>
-6.49535322

$$$$

 OpenBabel03272504053D

 44 48  0  0  0  0  0  0  0  0999 V2000
   37.9180   27.5670   31.5600 C   0  0  0  0  0  0  0  0  0  0  0  0
   38.7870   28.0290   32.0970 H   0  0  0  0  0  0  0  0  0  0  0  0
   37.5350   28.4010   30.9140 H   0  0  0  0  0  0  0  0  0  0  0  0
   38.4160   26.4530   30.8040 C   0  0  0  0  0  0  0  0  0  0  0  0
   39.3710   26.6220   29.8390 C   0  0  0  0  0  0  0  0  0  0  0  0
   39.8710   25.5420   29.0900 C   0  0  0  0  0  0  0  0  0  0  0  0
   39.3230   24.3000   29.4040 N   0  0  0  0  0  0  0  0  0  0  0  0
   38.3890   24.1850   30.3600 C   0  0  0  0  0  0  0  0  0  0  0  0
   37.9440   25.2420   31.0460 N   0  0  0  0  0  0  0  0  0  0  0  0
   39.7440   27.6200   29.6550 H   0  0  0  0  0  0  0  0  0  0  0  0
   40.6160   25.7110   28.3440 H   0  0  0  0  0  0  0  0  0  0  0  0
   37.8500   22.8560   30.6470 C   0  0  0  0  0  0  0  0  0  0  0  0
   38.5960   21.7200   30.3280 C   0  0  0  0  0  0  0  0  0  0  0  0
   39.5640   21.8820   29.8690 H   0  0  0  0  0  0  0  0  0  0  0  0
   38.1330   20.4460   30.5770 C   0  0  0  0  0  3  0  0  0  0  0  0
   36.8800   20.2950   31.1680 C   0  0  0  0  0  0  0  0  0  0  0  0
   36.4390   19.0600   31.4070 N   0  0  0  0  0  0  0  0  0  0  0  0
   35.2250   18.8620   31.9800 C   0  0  0  0  0  0  0  0  0  0  0  0
   34.8120   17.8860   32.1990 H   0  0  0  0  0  0  0  0  0  0  0  0
   34.5030   19.9850   32.2880 C   0  0  0  0  0  3  0  0  0  0  0  0
   34.8940   21.3090   32.0710 C   0  0  0  0  0  3  0  0  0  0  0  0
   36.1530   21.4250   31.4790 C   0  0  0  0  0  0  0  0  0  0  0  0
   36.6080   22.7180   31.2320 C   0  0  0  0  0  3  0  0  0  0  0  0
   36.8770   27.3100   32.5720 C   0  0  0  0  0  0  0  0  0  0  0  0
   36.3560   28.2930   32.7700 H   0  0  0  0  0  0  0  0  0  0  0  0
   36.0960   26.6430   32.2110 H   0  0  0  0  0  0  0  0  0  0  0  0
   37.4140   26.9080   33.8880 C   0  0  0  0  0  0  0  0  0  0  0  0
   37.5120   27.8080   34.9530 C   0  0  0  0  0  0  0  0  0  0  0  0
   38.0410   27.1370   36.0180 C   0  0  0  0  0  0  0  0  0  0  0  0
   38.2580   25.8780   35.6200 N   0  0  0  0  0  0  0  0  0  0  0  0
   37.8760   25.7760   34.3560 N   0  0  0  0  0  0  0  0  0  0  0  0
   37.2450   28.8600   35.0230 H   0  0  0  0  0  0  0  0  0  0  0  0
   38.2830   27.4440   37.0240 H   0  0  0  0  0  0  0  0  0  0  0  0
   38.7870   24.7430   36.2920 C   0  0  0  0  0  0  0  0  0  0  0  0
   38.2360   24.4530   37.5160 C   0  0  0  0  0  0  0  0  0  0  0  0
   38.6220   23.3890   38.3170 C   0  0  0  0  0  0  0  0  0  0  0  0
   39.6350   22.5890   37.8120 C   0  0  0  0  0  0  0  0  0  0  0  0
   40.2050   22.8670   36.5760 C   0  0  0  0  0  0  0  0  0  0  0  0
   39.7970   23.9350   35.8020 C   0  0  0  0  0  0  0  0  0  0  0  0
   37.4370   25.0660   37.9390 H   0  0  0  0  0  0  0  0  0  0  0  0
   38.1680   23.1850   39.2780 H   0  0  0  0  0  0  0  0  0  0  0  0
   40.0090   21.7340   38.3550 H   0  0  0  0  0  0  0  0  0  0  0  0
   41.0020   22.2850   36.1140 H   0  0  0  0  0  0  0  0  0  0  0  0
   40.2160   24.1840   34.8350 H   0  0  0  0  0  0  0  0  0  0  0  0
  1  2  1  0  0  0  0
  1 24  1  0  0  0  0
  3  1  1  0  0  0  0
  4  9  1  0  0  0  0
  4  1  1  0  0  0  0
  5  4  2  0  0  0  0
  6  7  2  0  0  0  0
  6  5  1  0  0  0  0
  7  8  1  0  0  0  0
  8 12  1  0  0  0  0
  8  9  2  0  0  0  0
 10  5  1  0  0  0  0
 11  6  1  0  0  0  0
 12 23  1  0  0  0  0
 13 15  1  0  0  0  0
 13 12  2  0  0  0  0
 14 13  1  0  0  0  0
 15 16  2  0  0  0  0
 16 17  1  0  0  0  0
 16 22  1  0  0  0  0
 17 18  2  0  0  0  0
 18 19  1  0  0  0  0
 18 20  1  0  0  0  0
 21 20  2  0  0  0  0
 22 21  1  0  0  0  0
 23 22  2  0  0  0  0
 24 25  1  0  0  0  0
 24 27  1  0  0  0  0
 26 24  1  0  0  0  0
 27 31  2  0  0  0  0
 27 28  1  0  0  0  0
 28 32  1  0  0  0  0
 28 29  2  0  0  0  0
 29 33  1  0  0  0  0
 30 29  1  0  0  0  0
 30 34  1  0  0  0  0
 31 30  1  0  0  0  0
 34 35  1  0  0  0  0
 35 40  1  0  0  0  0
 35 36  2  0  0  0  0
 36 41  1  0  0  0  0
 37 36  1  0  0  0  0
 37 42  1  0  0  0  0
 38 37  2  0  0  0  0
 39 34  2  0  0  0  0
 39 38  1  0  0  0  0
 43 38  1  0  0  0  0
 44 39  1  0  0  0  0
M  END
>  <minimizedAffinity>
-6.40237379

$$$$

 OpenBabel03272504053D

 44 48  0  0  0  0  0  0  0  0999 V2000
   37.8720   26.0840   31.6620 C   0  0  0  0  0  0  0  0  0  0  0  0
   38.6400   26.2410   32.4630 H   0  0  0  0  0  0  0  0  0  0  0  0
   37.1900   25.3090   32.1010 H   0  0  0  0  0  0  0  0  0  0  0  0
   37.2200   27.3420   31.4320 C   0  0  0  0  0  0  0  0  0  0  0  0
   37.3380   27.9930   30.2340 C   0  0  0  0  0  0  0  0  0  0  0  0
   36.7060   29.2250   29.9910 C   0  0  0  0  0  0  0  0  0  0  0  0
   35.9580   29.7260   31.0550 N   0  0  0  0  0  0  0  0  0  0  0  0
   35.8710   29.0500   32.2100 C   0  0  0  0  0  0  0  0  0  0  0  0
   36.4920   27.8810   32.3940 N   0  0  0  0  0  0  0  0  0  0  0  0
   37.9390   27.5370   29.4590 H   0  0  0  0  0  0  0  0  0  0  0  0
   36.8210   29.7040   29.0440 H   0  0  0  0  0  0  0  0  0  0  0  0
   35.0710   29.6250   33.2910 C   0  0  0  0  0  0  0  0  0  0  0  0
   33.7010   29.3690   33.3530 C   0  0  0  0  0  0  0  0  0  0  0  0
   33.2840   28.7410   32.5750 H   0  0  0  0  0  0  0  0  0  0  0  0
   32.9040   29.8880   34.3510 C   0  0  0  0  0  3  0  0  0  0  0  0
   33.4920   30.6910   35.3260 C   0  0  0  0  0  0  0  0  0  0  0  0
   32.7150   31.1880   36.2880 N   0  0  0  0  0  0  0  0  0  0  0  0
   33.2410   31.9750   37.2600 C   0  0  0  0  0  0  0  0  0  0  0  0
   32.6640   32.4080   38.0660 H   0  0  0  0  0  0  0  0  0  0  0  0
   34.5880   32.2180   37.1870 C   0  0  0  0  0  3  0  0  0  0  0  0
   35.4680   31.7360   36.2150 C   0  0  0  0  0  3  0  0  0  0  0  0
   34.8480   30.9350   35.2540 C   0  0  0  0  0  0  0  0  0  0  0  0
   35.6650   30.4190   34.2520 C   0  0  0  0  0  3  0  0  0  0  0  0
   38.5610   25.4400   30.5290 C   0  0  0  0  0  0  0  0  0  0  0  0
   38.0710   25.8170   29.5840 H   0  0  0  0  0  0  0  0  0  0  0  0
   39.6040   25.7410   30.4470 H   0  0  0  0  0  0  0  0  0  0  0  0
   38.3790   23.9750   30.4790 C   0  0  0  0  0  0  0  0  0  0  0  0
   39.2680   23.1430   29.7910 C   0  0  0  0  0  0  0  0  0  0  0  0
   38.8300   21.8580   29.9330 C   0  0  0  0  0  0  0  0  0  0  0  0
   37.7180   21.9020   30.6760 N   0  0  0  0  0  0  0  0  0  0  0  0
   37.4800   23.1690   30.9820 N   0  0  0  0  0  0  0  0  0  0  0  0
   40.1650   23.3750   29.2220 H   0  0  0  0  0  0  0  0  0  0  0  0
   39.2100   20.9150   29.5700 H   0  0  0  0  0  0  0  0  0  0  0  0
   36.8400   20.8860   31.1410 C   0  0  0  0  0  0  0  0  0  0  0  0
   35.6320   21.3100   31.6380 C   0  0  0  0  0  0  0  0  0  0  0  0
   34.6500   20.4680   32.1360 C   0  0  0  0  0  0  0  0  0  0  0  0
   34.9450   19.1140   32.1110 C   0  0  0  0  0  0  0  0  0  0  0  0
   36.1620   18.6660   31.6110 C   0  0  0  0  0  0  0  0  0  0  0  0
   37.1200   19.5320   31.1230 C   0  0  0  0  0  0  0  0  0  0  0  0
   35.3720   22.3710   31.6710 H   0  0  0  0  0  0  0  0  0  0  0  0
   33.7070   20.8330   32.5210 H   0  0  0  0  0  0  0  0  0  0  0  0
   34.2490   18.3720   32.4730 H   0  0  0  0  0  0  0  0  0  0  0  0
   36.4650   17.6210   31.5590 H   0  0  0  0  0  0  0  0  0  0  0  0
   38.0780   19.2220   30.7260 H   0  0  0  0  0  0  0  0  0  0  0  0
  1  3  1  0  0  0  0
  1  2  1  0  0  0  0
  4  1  1  0  0  0  0
  4  9  1  0  0  0  0
  5  4  2  0  0  0  0
  6  5  1  0  0  0  0
  6  7  2  0  0  0  0
  7  8  1  0  0  0  0
  8  9  2  0  0  0  0
  8 12  1  0  0  0  0
 10  5  1  0  0  0  0
 11  6  1  0  0  0  0
 12 13  2  0  0  0  0
 12 23  1  0  0  0  0
 13 15  1  0  0  0  0
 14 13  1  0  0  0  0
 15 16  2  0  0  0  0
 16 17  1  0  0  0  0
 17 18  2  0  0  0  0
 18 19  1  0  0  0  0
 20 18  1  0  0  0  0
 21 20  2  0  0  0  0
 22 16  1  0  0  0  0
 22 21  1  0  0  0  0
 23 22  2  0  0  0  0
 24  1  1  0  0  0  0
 25 24  1  0  0  0  0
 26 24  1  0  0  0  0
 27 24  1  0  0  0  0
 27 31  2  0  0  0  0
 28 29  2  0  0  0  0
 28 27  1  0  0  0  0
 29 30  1  0  0  0  0
 30 31  1  0  0  0  0
 30 34  1  0  0  0  0
 32 28  1  0  0  0  0
 33 29  1  0  0  0  0
 34 35  1  0  0  0  0
 35 40  1  0  0  0  0
 35 36  2  0  0  0  0
 36 41  1  0  0  0  0
 37 36  1  0  0  0  0
 37 42  1  0  0  0  0
 38 37  2  0  0  0  0
 39 34  2  0  0  0  0
 39 38  1  0  0  0  0
 43 38  1  0  0  0  0
 44 39  1  0  0  0  0
M  END
>  <minimizedAffinity>
-6.33785677

$$$$
