
 OpenBabel03272503133D

 49 54  0  0  0  0  0  0  0  0999 V2000
   39.1860   32.1870   42.5570 C   0  0  0  0  0  0  0  0  0  0  0  0
   39.7270   31.4790   43.6170 C   0  0  0  0  0  0  0  0  0  0  0  0
   40.6180   30.4660   43.4570 C   0  0  0  0  0  0  0  0  0  0  0  0
   41.0270   30.0990   42.1790 C   0  0  0  0  0  0  0  0  0  0  0  0
   41.8670   29.1680   41.7330 N   0  0  0  0  0  0  0  0  0  0  0  0
   41.8820   29.2590   40.3980 C   0  0  0  0  0  0  0  0  0  0  0  0
   41.0530   30.2450   40.0100 N   0  0  0  0  0  0  0  0  0  0  0  0
   40.4900   30.8030   41.1150 C   0  0  0  0  0  0  0  0  0  0  0  0
   39.5810   31.8380   41.2570 C   0  0  0  0  0  0  0  0  0  0  0  0
   38.4880   32.9810   42.6830 H   0  0  0  0  0  0  0  0  0  0  0  0
   41.0220   29.9330   44.3010 H   0  0  0  0  0  0  0  0  0  0  0  0
   42.4340   28.4730   42.2710 H   0  0  0  0  0  0  0  0  0  0  0  0
   42.3980   28.7270   39.6300 H   0  0  0  0  0  0  0  0  0  0  0  0
   39.2700   31.8990   44.9280 C   0  0  0  0  0  0  0  0  0  0  0  0
   38.1920   32.5650   45.0480 O   0  0  0  0  0  0  0  0  0  0  0  0
   39.9590   31.6130   46.1510 N   0  0  0  0  0  0  0  0  0  0  0  0
   40.8280   31.0770   46.1040 H   0  0  0  0  0  0  0  0  0  0  0  0
   38.1240   30.1350   47.4950 F   0  0  0  0  0  0  0  0  0  0  0  0
   38.3840   31.3910   47.9770 C   0  0  0  0  0  0  0  0  0  0  0  0
   37.7190   31.8270   49.0890 C   0  0  0  0  0  0  0  0  0  0  0  0
   38.0220   33.0870   49.5230 C   0  0  0  0  0  0  0  0  0  0  0  0
   38.9370   33.8900   48.8950 C   0  0  0  0  0  0  0  0  0  0  0  0
   39.6010   33.4230   47.7650 C   0  0  0  0  0  0  0  0  0  0  0  0
   39.3040   32.1440   47.3110 C   0  0  0  0  0  0  0  0  0  0  0  0
   37.5020   33.4580   50.4110 H   0  0  0  0  0  0  0  0  0  0  0  0
   39.1840   34.8760   49.2200 H   0  0  0  0  0  0  0  0  0  0  0  0
   40.3430   33.9580   47.1800 H   0  0  0  0  0  0  0  0  0  0  0  0
   36.0760   29.3630   51.4440 C   0  0  0  0  0  0  0  0  0  0  0  0
   37.0480   30.2160   50.8610 C   0  0  0  0  0  0  0  0  0  0  0  0
   36.7530   30.9380   49.7250 C   0  0  0  0  0  0  0  0  0  0  0  0
   35.4910   30.7870   49.1940 N   0  0  0  0  0  0  0  0  0  0  0  0
   34.5800   29.9740   49.7590 C   0  0  0  0  0  0  0  0  0  0  0  0
   34.8680   29.2800   50.8570 N   0  0  0  0  0  0  0  0  0  0  0  0
   36.2980   28.7940   52.3360 H   0  0  0  0  0  0  0  0  0  0  0  0
   38.0300   30.3080   51.3070 H   0  0  0  0  0  0  0  0  0  0  0  0
   33.6530   29.9980   49.1910 H   0  0  0  0  0  0  0  0  0  0  0  0
   39.0530   32.5320   40.1920 O   0  0  0  0  0  0  0  0  0  0  0  0
   37.8420   32.3370   39.5950 C   0  0  0  0  0  0  0  0  0  0  0  0
   37.3180   33.3300   38.7670 C   0  0  0  0  0  0  0  0  0  0  0  0
   37.8750   34.2600   38.5960 H   0  0  0  0  0  0  0  0  0  0  0  0
   36.1040   33.1870   38.1410 C   0  0  0  0  0  3  0  0  0  0  0  0
   35.3400   32.0490   38.3040 C   0  0  0  0  0  0  0  0  0  0  0  0
   34.1520   31.8610   37.7170 N   0  0  0  0  0  0  0  0  0  0  0  0
   33.4170   30.7520   37.8800 C   0  0  0  0  0  0  0  0  0  0  0  0
   32.4470   30.6060   37.3960 H   0  0  0  0  0  0  0  0  0  0  0  0
   33.8610   29.7080   38.6890 C   0  0  0  0  0  3  0  0  0  0  0  0
   35.0890   29.8800   39.3070 C   0  0  0  0  0  3  0  0  0  0  0  0
   35.8260   31.0270   39.1250 C   0  0  0  0  0  0  0  0  0  0  0  0
   37.0580   31.2310   39.7290 C   0  0  0  0  0  3  0  0  0  0  0  0
  1 10  1  0  0  0  0
  1  2  1  0  0  0  0
  2 14  1  0  0  0  0
  3  2  2  0  0  0  0
  3 11  1  0  0  0  0
  4  3  1  0  0  0  0
  5  4  1  0  0  0  0
  5 12  1  0  0  0  0
  6  5  1  0  0  0  0
  7  6  2  0  0  0  0
  7  8  1  0  0  0  0
  8  9  1  0  0  0  0
  8  4  2  0  0  0  0
  9  1  2  0  0  0  0
 13  6  1  0  0  0  0
 14 15  2  0  0  0  0
 14 16  1  0  0  0  0
 16 24  1  0  0  0  0
 17 16  1  0  0  0  0
 18 19  1  0  0  0  0
 19 20  1  0  0  0  0
 20 21  2  0  0  0  0
 20 30  1  0  0  0  0
 21 25  1  0  0  0  0
 22 26  1  0  0  0  0
 22 21  1  0  0  0  0
 23 22  2  0  0  0  0
 24 23  1  0  0  0  0
 24 19  2  0  0  0  0
 27 23  1  0  0  0  0
 28 34  1  0  0  0  0
 29 35  1  0  0  0  0
 29 28  1  0  0  0  0
 30 29  2  0  0  0  0
 31 30  1  0  0  0  0
 31 32  2  0  0  0  0
 32 33  1  0  0  0  0
 33 28  2  0  0  0  0
 36 32  1  0  0  0  0
 37  9  1  0  0  0  0
 38 49  1  0  0  0  0
 38 37  1  0  0  0  0
 39 38  2  0  0  0  0
 40 39  1  0  0  0  0
 41 42  2  0  0  0  0
 41 39  1  0  0  0  0
 42 48  1  0  0  0  0
 43 44  2  0  0  0  0
 43 42  1  0  0  0  0
 44 46  1  0  0  0  0
 45 44  1  0  0  0  0
 46 47  2  0  0  0  0
 48 47  1  0  0  0  0
 48 49  2  0  0  0  0
M  END
>  <minimizedAffinity>
-7.03426504

>  <minimizedRMSD>
1.28876925

$$$$
