REMARK  Name = 
REMARK  3 active torsions:
REMARK  status: ('A' for Active; 'I' for Inactive)
REMARK    1  A    between atoms: C_3  and  N_7
REMARK    2  A    between atoms: C_9  and  C_23
REMARK    3  A    between atoms: N_12  and  C_15
REMARK                            x       y       z     vdW  Elec       q    Type
REMARK                         _______ _______ _______ _____ _____    ______ ____
ROOT
ATOM      1  N   UNL     1      37.441  31.135  47.054  0.00  0.00    +0.000 N 
ATOM      2  C   UNL     1      36.806  30.808  45.896  0.00  0.00    +0.000 A 
ATOM      3  C   UNL     1      37.231  31.266  44.660  0.00  0.00    +0.000 A 
ATOM      4  C   UNL     1      38.367  32.098  44.643  0.00  0.00    +0.000 A 
ATOM      5  O   UNL     1      38.787  32.534  43.548  0.00  0.00    +0.000 OA
ATOM      6  N   UNL     1      39.005  32.427  45.801  0.00  0.00    +0.000 N 
ATOM      7  C   UNL     1      38.496  31.922  46.930  0.00  0.00    +0.000 A 
ATOM      8  O   UNL     1      39.108  32.248  47.973  0.00  0.00    +0.000 OA
ATOM      9  H   UNL     1      35.946  30.179  45.897  0.00  0.00    +0.000 HD
ENDROOT
BRANCH   3  10
ATOM     10  C   UNL     1      36.547  30.914  43.418  0.00  0.00    +0.000 A 
ATOM     11  C   UNL     1      36.493  29.546  43.132  0.00  0.00    +0.000 A 
ATOM     12  H   UNL     1      36.920  28.779  43.769  0.00  0.00    +0.000 HD
ATOM     13  C   UNL     1      35.874  29.066  41.985  0.00  0.00    +0.000 A 
ATOM     14  C   UNL     1      35.301  29.970  41.114  0.00  0.00    +0.000 A 
ATOM     15  N   UNL     1      34.680  29.556  39.973  0.00  0.00    +0.000 NA
ATOM     16  C   UNL     1      34.122  30.440  39.124  0.00  0.00    +0.000 A 
ATOM     17  H   UNL     1      33.666  29.953  38.261  0.00  0.00    +0.000 HD
ATOM     18  C   UNL     1      34.166  31.797  39.389  0.00  0.00    +0.000 A 
ATOM     19  C   UNL     1      34.789  32.243  40.539  0.00  0.00    +0.000 A 
ATOM     20  C   UNL     1      35.359  31.335  41.405  0.00  0.00    +0.000 A 
ATOM     21  C   UNL     1      35.974  31.820  42.544  0.00  0.00    +0.000 A 
ENDBRANCH   3  10
BRANCH   1  24
ATOM     22  C   UNL     1      37.410  29.938  50.566  0.00  0.00    +0.000 A 
ATOM     23  C   UNL     1      37.865  30.402  49.325  0.00  0.00    +0.000 A 
ATOM     24  C   UNL     1      36.998  30.666  48.294  0.00  0.00    +0.000 A 
ATOM     25  N   UNL     1      35.676  30.461  48.516  0.00  0.00    +0.000 NA
ATOM     26  C   UNL     1      35.202  30.010  49.710  0.00  0.00    +0.000 A 
ATOM     27  N   UNL     1      36.066  29.748  50.736  0.00  0.00    +0.000 NA
ATOM     28  H   UNL     1      38.040  29.713  51.414  0.00  0.00    +0.000 HD
ATOM     29  H   UNL     1      38.922  30.490  49.334  0.00  0.00    +0.000 HD
ATOM     30  H   UNL     1      34.133  29.879  49.787  0.00  0.00    +0.000 HD
ENDBRANCH   1  24
BRANCH   6  31
ATOM     31  C   UNL     1      40.172  33.280  45.776  0.00  0.00    +0.000 C 
ATOM     32  F   UNL     1      40.035  34.223  44.799  0.00  0.00    +0.000 F 
ATOM     33  F   UNL     1      41.345  32.589  45.509  0.00  0.00    +0.000 F 
ATOM     34  F   UNL     1      40.270  33.939  46.995  0.00  0.00    +0.000 F 
ENDBRANCH   6  31
TORSDOF 3
