REMARK  Name = 
REMARK  2 active torsions:
REMARK  status: ('A' for Active; 'I' for Inactive)
REMARK    1  A    between atoms: C_2  and  C_12
REMARK    2  A    between atoms: C_20  and  C_36
REMARK                            x       y       z     vdW  Elec       q    Type
REMARK                         _______ _______ _______ _____ _____    ______ ____
ROOT
ATOM      1  C   UNL     1      36.846  31.109  48.547  0.00  0.00    +0.000 A 
ATOM      2  N   UNL     1      36.795  32.008  49.565  0.00  0.00    +0.000 NA
ATOM      3  C   UNL     1      37.676  33.022  49.603  0.00  0.00    +0.000 A 
ATOM      4  N   UNL     1      38.650  33.230  48.671  0.00  0.00    +0.000 NA
ATOM      5  C   UNL     1      38.729  32.356  47.647  0.00  0.00    +0.000 A 
ATOM      6  C   UNL     1      39.670  32.487  46.639  0.00  0.00    +0.000 A 
ATOM      7  C   UNL     1      39.711  31.570  45.583  0.00  0.00    +0.000 A 
ATOM      8  C   UNL     1      38.789  30.517  45.556  0.00  0.00    +0.000 A 
ATOM      9  C   UNL     1      37.866  30.429  46.590  0.00  0.00    +0.000 A 
ATOM     10  C   UNL     1      37.825  31.320  47.615  0.00  0.00    +0.000 A 
ATOM     11  H   UNL     1      37.688  33.775  50.392  0.00  0.00    +0.000 HD
ATOM     12  H   UNL     1      40.343  33.328  46.740  0.00  0.00    +0.000 HD
ATOM     13  H   UNL     1      40.485  31.779  44.861  0.00  0.00    +0.000 HD
ATOM     14  H   UNL     1      38.997  29.941  44.669  0.00  0.00    +0.000 HD
ENDROOT
BRANCH   1  16
ATOM     15  C   UNL     1      35.838  28.921  49.383  0.00  0.00    +0.000 A 
ATOM     16  C   UNL     1      35.858  30.089  48.589  0.00  0.00    +0.000 A 
ATOM     17  C   UNL     1      34.778  30.308  47.695  0.00  0.00    +0.000 A 
ATOM     18  N   UNL     1      33.773  29.400  47.625  0.00  0.00    +0.000 NA
ATOM     19  C   UNL     1      33.816  28.289  48.417  0.00  0.00    +0.000 A 
ATOM     20  N   UNL     1      34.814  28.053  49.272  0.00  0.00    +0.000 NA
ATOM     21  N   UNL     1      32.733  27.340  48.280  0.00  0.00    +0.000 N 
ATOM     22  C   UNL     1      31.357  27.640  48.535  0.00  0.00    +0.000 C 
ATOM     23  C   UNL     1      30.604  26.462  48.005  0.00  0.00    +0.000 C 
ATOM     24  C   UNL     1      31.608  25.600  47.247  0.00  0.00    +0.000 C 
ATOM     25  C   UNL     1      32.902  25.938  47.857  0.00  0.00    +0.000 C 
ATOM     26  H   UNL     1      36.688  28.822  50.042  0.00  0.00    +0.000 HD
ATOM     27  H   UNL     1      34.704  31.165  47.057  0.00  0.00    +0.000 HD
ATOM     28  H   UNL     1      31.209  27.809  49.626  0.00  0.00    +0.000 HD
ATOM     29  H   UNL     1      31.041  28.552  47.980  0.00  0.00    +0.000 HD
ATOM     30  H   UNL     1      29.772  26.767  47.321  0.00  0.00    +0.000 HD
ATOM     31  H   UNL     1      30.125  25.842  48.794  0.00  0.00    +0.000 HD
ATOM     32  H   UNL     1      31.610  25.840  46.166  0.00  0.00    +0.000 HD
ATOM     33  H   UNL     1      31.351  24.532  47.417  0.00  0.00    +0.000 HD
ATOM     34  H   UNL     1      33.800  25.841  47.249  0.00  0.00    +0.000 HD
ATOM     35  H   UNL     1      33.116  25.368  48.801  0.00  0.00    +0.000 HD
ENDBRANCH   1  16
BRANCH   9  36
ATOM     36  C   UNL     1      37.158  29.211  46.238  0.00  0.00    +0.000 A 
ATOM     37  C   UNL     1      36.684  28.683  45.054  0.00  0.00    +0.000 A 
ATOM     38  H   UNL     1      36.925  29.370  44.223  0.00  0.00    +0.000 HD
ATOM     39  C   UNL     1      36.002  27.510  44.882  0.00  0.00    +0.000 A 
ATOM     40  C   UNL     1      35.759  26.774  46.014  0.00  0.00    +0.000 A 
ATOM     41  N   UNL     1      35.090  25.615  45.882  0.00  0.00    +0.000 NA
ATOM     42  C   UNL     1      34.810  24.832  46.953  0.00  0.00    +0.000 A 
ATOM     43  H   UNL     1      34.262  23.884  46.843  0.00  0.00    +0.000 HD
ATOM     44  C   UNL     1      35.221  25.227  48.230  0.00  0.00    +0.000 A 
ATOM     45  C   UNL     1      35.915  26.414  48.421  0.00  0.00    +0.000 A 
ATOM     46  C   UNL     1      36.149  27.134  47.280  0.00  0.00    +0.000 A 
ATOM     47  C   UNL     1      36.833  28.344  47.321  0.00  0.00    +0.000 A 
ENDBRANCH   9  36
TORSDOF 2
