
 OpenBabel03272509583D

 49 53  0  0  0  0  0  0  0  0999 V2000
   33.5940   27.5010   47.7510 C   0  0  0  0  0  0  0  0  0  0  0  0
   33.7610   26.6250   48.3770 H   0  0  0  0  0  0  0  0  0  0  0  0
   33.8320   27.1910   46.7090 H   0  0  0  0  0  0  0  0  0  0  0  0
   32.1490   27.8630   47.7530 C   0  0  0  0  0  0  0  0  0  0  0  0
   31.3840   27.4110   48.8110 C   0  0  0  0  0  0  0  0  0  0  0  0
   30.0360   27.6910   48.9070 C   0  0  0  0  0  0  0  0  0  0  0  0
   29.4570   28.4200   47.9520 N   0  0  0  0  0  0  0  0  0  0  0  0
   30.2180   28.8600   46.9170 C   0  0  0  0  0  0  0  0  0  0  0  0
   31.5310   28.5950   46.8080 N   0  0  0  0  0  0  0  0  0  0  0  0
   31.8090   26.8180   49.6080 H   0  0  0  0  0  0  0  0  0  0  0  0
   29.4190   27.3380   49.7400 H   0  0  0  0  0  0  0  0  0  0  0  0
   29.5490   29.6690   45.8640 C   0  0  0  0  0  0  0  0  0  0  0  0
   28.7970   30.3640   46.2890 H   0  0  0  0  0  0  0  0  0  0  0  0
   30.3310   30.3140   45.4130 H   0  0  0  0  0  0  0  0  0  0  0  0
   28.9310   28.7900   44.8180 C   0  0  0  0  0  0  0  0  0  0  0  0
   29.6640   28.1630   43.8330 C   0  0  0  0  0  0  0  0  0  0  0  0
   30.7370   28.3080   43.8070 H   0  0  0  0  0  0  0  0  0  0  0  0
   28.9670   27.3800   42.9290 C   0  0  0  0  0  3  0  0  0  0  0  0
   27.5890   27.2210   42.9980 C   0  0  0  0  0  0  0  0  0  0  0  0
   26.9190   26.4630   42.1230 N   0  0  0  0  0  0  0  0  0  0  0  0
   25.5820   26.3400   42.2310 C   0  0  0  0  0  0  0  0  0  0  0  0
   24.9810   25.7380   41.5490 H   0  0  0  0  0  0  0  0  0  0  0  0
   24.8290   26.9710   43.2250 C   0  0  0  0  0  3  0  0  0  0  0  0
   25.4880   27.7490   44.1290 C   0  0  0  0  0  3  0  0  0  0  0  0
   26.8610   27.8620   44.0000 C   0  0  0  0  0  0  0  0  0  0  0  0
   27.5460   28.6340   44.8900 C   0  0  0  0  0  3  0  0  0  0  0  0
   34.4760   28.6170   48.2080 C   0  0  0  0  0  0  0  0  0  0  0  0
   33.9780   29.6060   48.1730 H   0  0  0  0  0  0  0  0  0  0  0  0
   35.3420   28.6780   47.5160 H   0  0  0  0  0  0  0  0  0  0  0  0
   35.0210   28.3640   49.4880 O   0  0  0  0  0  0  0  0  0  0  0  0
   37.3580   30.1870   51.5380 C   0  0  0  0  0  0  0  0  0  0  0  0
   38.0870   30.8820   50.5410 C   0  0  0  0  0  0  0  0  0  0  0  0
   37.7120   30.6650   49.2180 C   0  0  0  0  0  0  0  0  0  0  0  0
   36.6730   29.7990   49.0140 N   0  0  0  0  0  0  0  0  0  0  0  0
   36.0030   29.1600   49.9680 C   0  0  0  0  0  0  0  0  0  0  0  0
   36.3570   29.3610   51.2520 N   0  0  0  0  0  0  0  0  0  0  0  0
   37.7030   30.4050   52.5370 H   0  0  0  0  0  0  0  0  0  0  0  0
   38.8980   31.5540   50.7290 H   0  0  0  0  0  0  0  0  0  0  0  0
   38.9380   33.2790   49.0290 F   0  0  0  0  0  0  0  0  0  0  0  0
   38.9110   32.4910   47.9620 C   0  0  0  0  0  0  0  0  0  0  0  0
   38.3360   31.2810   48.0760 C   0  0  0  0  0  0  0  0  0  0  0  0
   38.3610   30.5290   46.8950 C   0  0  0  0  0  0  0  0  0  0  0  0
   38.9220   30.9960   45.7390 C   0  0  0  0  0  0  0  0  0  0  0  0
   39.4990   32.2450   45.6780 C   0  0  0  0  0  0  0  0  0  0  0  0
   39.4830   32.9850   46.8140 C   0  0  0  0  0  0  0  0  0  0  0  0
   37.9330   29.5340   46.8410 H   0  0  0  0  0  0  0  0  0  0  0  0
   38.9380   30.4010   44.8180 H   0  0  0  0  0  0  0  0  0  0  0  0
   39.9370   32.5940   44.7580 H   0  0  0  0  0  0  0  0  0  0  0  0
   39.9320   33.9700   46.7850 H   0  0  0  0  0  0  0  0  0  0  0  0
  1  4  1  0  0  0  0
  1 27  1  0  0  0  0
  1  2  1  0  0  0  0
  3  1  1  0  0  0  0
  4  5  1  0  0  0  0
  5  6  2  0  0  0  0
  5 10  1  0  0  0  0
  6 11  1  0  0  0  0
  7  6  1  0  0  0  0
  8  7  2  0  0  0  0
  9  8  1  0  0  0  0
  9  4  2  0  0  0  0
 12 13  1  0  0  0  0
 12  8  1  0  0  0  0
 14 12  1  0  0  0  0
 15 26  1  0  0  0  0
 15 12  1  0  0  0  0
 16 15  2  0  0  0  0
 17 16  1  0  0  0  0
 18 19  2  0  0  0  0
 18 16  1  0  0  0  0
 19 25  1  0  0  0  0
 20 21  2  0  0  0  0
 20 19  1  0  0  0  0
 21 23  1  0  0  0  0
 22 21  1  0  0  0  0
 23 24  2  0  0  0  0
 25 24  1  0  0  0  0
 25 26  2  0  0  0  0
 27 30  1  0  0  0  0
 28 27  1  0  0  0  0
 29 27  1  0  0  0  0
 30 35  1  0  0  0  0
 31 37  1  0  0  0  0
 32 38  1  0  0  0  0
 32 31  2  0  0  0  0
 33 32  1  0  0  0  0
 34 33  2  0  0  0  0
 34 35  1  0  0  0  0
 35 36  2  0  0  0  0
 36 31  1  0  0  0  0
 40 41  1  0  0  0  0
 40 39  1  0  0  0  0
 41 33  1  0  0  0  0
 42 41  2  0  0  0  0
 43 42  1  0  0  0  0
 44 43  2  0  0  0  0
 44 45  1  0  0  0  0
 45 40  2  0  0  0  0
 46 42  1  0  0  0  0
 47 43  1  0  0  0  0
 48 44  1  0  0  0  0
 49 45  1  0  0  0  0
M  END
>  <minimizedAffinity>
-6.93561649

>  <minimizedRMSD>
0.472924888

$$$$
