
 OpenBabel03272503183D

 28 31  0  0  0  0  0  0  0  0999 V2000
   37.2880   27.6190   33.9370 C   0  0  0  0  0  0  0  0  0  0  0  0
   37.5290   27.9270   35.2170 C   0  0  0  0  0  0  0  0  0  0  0  0
   38.1480   27.0570   36.0350 C   0  0  0  0  0  0  0  0  0  0  0  0
   38.5150   25.8390   35.4730 C   0  0  0  0  0  0  0  0  0  0  0  0
   37.9340   25.9980   33.7360 S   0  0  0  0  0  0  0  0  0  0  0  0
   37.2030   28.9190   35.5780 H   0  0  0  0  0  0  0  0  0  0  0  0
   38.3940   27.1960   37.0770 H   0  0  0  0  0  0  0  0  0  0  0  0
   39.1830   24.6880   36.0400 C   0  0  0  0  0  0  0  0  0  0  0  0
   38.6020   24.0380   37.0750 C   0  0  0  0  0  0  0  0  0  0  0  0
   37.6490   24.3880   37.4630 H   0  0  0  0  0  0  0  0  0  0  0  0
   39.2670   22.9430   37.5930 C   0  0  0  0  0  3  0  0  0  0  0  0
   40.4900   22.5280   37.0650 C   0  0  0  0  0  0  0  0  0  0  0  0
   41.1490   21.4620   37.5600 N   0  0  0  0  0  0  0  0  0  0  0  0
   42.3320   21.0900   37.0200 C   0  0  0  0  0  0  0  0  0  0  0  0
   42.8410   20.2370   37.4290 H   0  0  0  0  0  0  0  0  0  0  0  0
   42.8990   21.7680   35.9680 C   0  0  0  0  0  3  0  0  0  0  0  0
   42.2410   22.8550   35.4530 C   0  0  0  0  0  3  0  0  0  0  0  0
   41.0420   23.2300   36.0020 C   0  0  0  0  0  0  0  0  0  0  0  0
   40.3860   24.3260   35.4760 C   0  0  0  0  0  3  0  0  0  0  0  0
   34.9100   29.7820   31.9840 C   0  0  0  0  0  0  0  0  0  0  0  0
   35.4510   29.0850   33.0770 C   0  0  0  0  0  0  0  0  0  0  0  0
   36.6440   28.3750   32.8690 C   0  0  0  0  0  0  0  0  0  0  0  0
   37.2070   28.3940   31.6500 N   0  0  0  0  0  0  0  0  0  0  0  0
   36.6680   29.0690   30.6220 C   0  0  0  0  0  0  0  0  0  0  0  0
   35.5230   29.7580   30.7960 N   0  0  0  0  0  0  0  0  0  0  0  0
   33.9920   30.3130   32.1980 H   0  0  0  0  0  0  0  0  0  0  0  0
   35.0250   29.0490   34.0710 H   0  0  0  0  0  0  0  0  0  0  0  0
   37.2050   29.0160   29.6810 H   0  0  0  0  0  0  0  0  0  0  0  0
  1  2  2  0  0  0  0
  2  6  1  0  0  0  0
  2  3  1  0  0  0  0
  3  7  1  0  0  0  0
  4  3  2  0  0  0  0
  4  8  1  0  0  0  0
  5  1  1  0  0  0  0
  5  4  1  0  0  0  0
  8  9  1  0  0  0  0
  9 10  1  0  0  0  0
  9 11  2  0  0  0  0
 12 13  1  0  0  0  0
 12 11  1  0  0  0  0
 14 15  1  0  0  0  0
 14 13  2  0  0  0  0
 16 14  1  0  0  0  0
 17 16  2  0  0  0  0
 17 18  1  0  0  0  0
 18 12  2  0  0  0  0
 19 18  1  0  0  0  0
 19  8  2  0  0  0  0
 20 26  1  0  0  0  0
 20 21  1  0  0  0  0
 21 27  1  0  0  0  0
 22 21  2  0  0  0  0
 22  1  1  0  0  0  0
 23 22  1  0  0  0  0
 24 25  1  0  0  0  0
 24 23  2  0  0  0  0
 25 20  2  0  0  0  0
 28 24  1  0  0  0  0
M  END
>  <minimizedAffinity>
-5.51250124

$$$$

 OpenBabel03272503183D

 28 31  0  0  0  0  0  0  0  0999 V2000
   37.4230   27.7270   32.7460 C   0  0  0  0  0  0  0  0  0  0  0  0
   36.7730   27.7670   33.9150 C   0  0  0  0  0  0  0  0  0  0  0  0
   37.0840   26.9190   34.9120 C   0  0  0  0  0  0  0  0  0  0  0  0
   38.1100   26.0160   34.6530 C   0  0  0  0  0  0  0  0  0  0  0  0
   38.5990   26.4340   32.9310 S   0  0  0  0  0  0  0  0  0  0  0  0
   35.9720   28.5190   34.0320 H   0  0  0  0  0  0  0  0  0  0  0  0
   36.6310   26.8610   35.8900 H   0  0  0  0  0  0  0  0  0  0  0  0
   38.7010   24.9810   35.4740 C   0  0  0  0  0  0  0  0  0  0  0  0
   38.0310   24.5530   36.5690 C   0  0  0  0  0  0  0  0  0  0  0  0
   37.0670   24.9910   36.8160 H   0  0  0  0  0  0  0  0  0  0  0  0
   38.6230   23.5630   37.3300 C   0  0  0  0  0  3  0  0  0  0  0  0
   39.8630   23.0300   36.9780 C   0  0  0  0  0  0  0  0  0  0  0  0
   40.4520   22.0640   37.7100 N   0  0  0  0  0  0  0  0  0  0  0  0
   41.6550   21.5720   37.3360 C   0  0  0  0  0  0  0  0  0  0  0  0
   42.1070   20.8020   37.9330 H   0  0  0  0  0  0  0  0  0  0  0  0
   42.3130   22.0250   36.2170 C   0  0  0  0  0  3  0  0  0  0  0  0
   41.7270   23.0070   35.4610 C   0  0  0  0  0  3  0  0  0  0  0  0
   40.5070   23.5040   35.8430 C   0  0  0  0  0  0  0  0  0  0  0  0
   39.9250   24.4940   35.0740 C   0  0  0  0  0  3  0  0  0  0  0  0
   37.6170   28.9430   29.1930 C   0  0  0  0  0  0  0  0  0  0  0  0
   37.8130   28.1070   30.3040 C   0  0  0  0  0  0  0  0  0  0  0  0
   37.2760   28.5220   31.5330 C   0  0  0  0  0  0  0  0  0  0  0  0
   36.6060   29.6850   31.5890 N   0  0  0  0  0  0  0  0  0  0  0  0
   36.4340   30.4650   30.5110 C   0  0  0  0  0  0  0  0  0  0  0  0
   36.9400   30.0890   29.3200 N   0  0  0  0  0  0  0  0  0  0  0  0
   38.0500   28.5770   28.2710 H   0  0  0  0  0  0  0  0  0  0  0  0
   38.3450   27.1650   30.2940 H   0  0  0  0  0  0  0  0  0  0  0  0
   35.8780   31.3830   30.6690 H   0  0  0  0  0  0  0  0  0  0  0  0
  1  5  1  0  0  0  0
  1  2  2  0  0  0  0
  2  6  1  0  0  0  0
  2  3  1  0  0  0  0
  3  7  1  0  0  0  0
  4  3  2  0  0  0  0
  4  8  1  0  0  0  0
  5  4  1  0  0  0  0
  8  9  1  0  0  0  0
  9 10  1  0  0  0  0
  9 11  2  0  0  0  0
 12 11  1  0  0  0  0
 12 13  1  0  0  0  0
 14 13  2  0  0  0  0
 14 15  1  0  0  0  0
 16 14  1  0  0  0  0
 17 18  1  0  0  0  0
 17 16  2  0  0  0  0
 18 12  2  0  0  0  0
 19  8  2  0  0  0  0
 19 18  1  0  0  0  0
 20 25  2  0  0  0  0
 20 21  1  0  0  0  0
 21 22  2  0  0  0  0
 22 23  1  0  0  0  0
 22  1  1  0  0  0  0
 24 28  1  0  0  0  0
 24 23  2  0  0  0  0
 25 24  1  0  0  0  0
 26 20  1  0  0  0  0
 27 21  1  0  0  0  0
M  END
>  <minimizedAffinity>
-5.4987793

$$$$

 OpenBabel03272503183D

 28 31  0  0  0  0  0  0  0  0999 V2000
   39.6650   23.5450   35.8460 C   0  0  0  0  0  0  0  0  0  0  0  0
   38.7200   24.0560   36.6440 C   0  0  0  0  0  0  0  0  0  0  0  0
   37.8690   24.9970   36.1970 C   0  0  0  0  0  0  0  0  0  0  0  0
   38.0320   25.3950   34.8740 C   0  0  0  0  0  0  0  0  0  0  0  0
   39.4490   24.3680   34.3090 S   0  0  0  0  0  0  0  0  0  0  0  0
   38.6630   23.6800   37.6810 H   0  0  0  0  0  0  0  0  0  0  0  0
   37.0740   25.4780   36.7470 H   0  0  0  0  0  0  0  0  0  0  0  0
   37.3140   26.3620   34.0720 C   0  0  0  0  0  0  0  0  0  0  0  0
   37.0760   26.0840   32.7690 C   0  0  0  0  0  0  0  0  0  0  0  0
   37.4260   25.1440   32.3470 H   0  0  0  0  0  0  0  0  0  0  0  0
   36.3880   27.0280   32.0330 C   0  0  0  0  0  3  0  0  0  0  0  0
   35.9580   28.2210   32.6140 C   0  0  0  0  0  0  0  0  0  0  0  0
   35.2860   29.1510   31.9080 N   0  0  0  0  0  0  0  0  0  0  0  0
   34.8840   30.2950   32.5080 C   0  0  0  0  0  0  0  0  0  0  0  0
   34.3500   31.0230   31.9270 H   0  0  0  0  0  0  0  0  0  0  0  0
   35.1400   30.5510   33.8340 C   0  0  0  0  0  3  0  0  0  0  0  0
   35.8230   29.6150   34.5660 C   0  0  0  0  0  3  0  0  0  0  0  0
   36.2280   28.4560   33.9560 C   0  0  0  0  0  0  0  0  0  0  0  0
   36.9150   27.5190   34.7030 C   0  0  0  0  0  3  0  0  0  0  0  0
   41.9590   21.0700   37.5060 C   0  0  0  0  0  0  0  0  0  0  0  0
   40.9530   22.0410   37.3760 C   0  0  0  0  0  0  0  0  0  0  0  0
   40.6880   22.5350   36.0890 C   0  0  0  0  0  0  0  0  0  0  0  0
   41.4000   22.0610   35.0530 N   0  0  0  0  0  0  0  0  0  0  0  0
   42.3560   21.1320   35.2060 C   0  0  0  0  0  0  0  0  0  0  0  0
   42.6290   20.6420   36.4320 N   0  0  0  0  0  0  0  0  0  0  0  0
   42.1230   20.7230   38.5180 H   0  0  0  0  0  0  0  0  0  0  0  0
   40.3610   22.4440   38.1880 H   0  0  0  0  0  0  0  0  0  0  0  0
   42.8690   20.8210   34.3020 H   0  0  0  0  0  0  0  0  0  0  0  0
  1 22  1  0  0  0  0
  1  2  2  0  0  0  0
  2  6  1  0  0  0  0
  3  2  1  0  0  0  0
  3  7  1  0  0  0  0
  4  3  2  0  0  0  0
  5  4  1  0  0  0  0
  5  1  1  0  0  0  0
  8 19  1  0  0  0  0
  8  4  1  0  0  0  0
  9  8  2  0  0  0  0
 10  9  1  0  0  0  0
 11 12  2  0  0  0  0
 11  9  1  0  0  0  0
 12 18  1  0  0  0  0
 13 14  2  0  0  0  0
 13 12  1  0  0  0  0
 14 16  1  0  0  0  0
 15 14  1  0  0  0  0
 16 17  2  0  0  0  0
 18 17  1  0  0  0  0
 18 19  2  0  0  0  0
 20 26  1  0  0  0  0
 21 20  1  0  0  0  0
 21 27  1  0  0  0  0
 22 21  2  0  0  0  0
 23 24  2  0  0  0  0
 23 22  1  0  0  0  0
 24 25  1  0  0  0  0
 25 20  2  0  0  0  0
 28 24  1  0  0  0  0
M  END
>  <minimizedAffinity>
-5.44560146

$$$$

 OpenBabel03272503183D

 28 31  0  0  0  0  0  0  0  0999 V2000
   38.2250   25.1460   35.0930 C   0  0  0  0  0  0  0  0  0  0  0  0
   37.8470   24.9300   33.8280 C   0  0  0  0  0  0  0  0  0  0  0  0
   37.2520   25.8980   33.1070 C   0  0  0  0  0  0  0  0  0  0  0  0
   37.0620   27.1160   33.7520 C   0  0  0  0  0  0  0  0  0  0  0  0
   37.7660   26.8090   35.4220 S   0  0  0  0  0  0  0  0  0  0  0  0
   38.0390   23.9310   33.3960 H   0  0  0  0  0  0  0  0  0  0  0  0
   36.9080   25.8380   32.0850 H   0  0  0  0  0  0  0  0  0  0  0  0
   36.4700   28.3550   33.2960 C   0  0  0  0  0  0  0  0  0  0  0  0
   36.5290   28.6640   31.9800 C   0  0  0  0  0  0  0  0  0  0  0  0
   37.0180   27.9810   31.2890 H   0  0  0  0  0  0  0  0  0  0  0  0
   35.9540   29.8540   31.5790 C   0  0  0  0  0  3  0  0  0  0  0  0
   35.3370   30.7010   32.4990 C   0  0  0  0  0  0  0  0  0  0  0  0
   34.7710   31.8640   32.1230 N   0  0  0  0  0  0  0  0  0  0  0  0
   34.1810   32.6580   33.0460 C   0  0  0  0  0  0  0  0  0  0  0  0
   33.7360   33.5810   32.7240 H   0  0  0  0  0  0  0  0  0  0  0  0
   34.1350   32.3190   34.3770 C   0  0  0  0  0  3  0  0  0  0  0  0
   34.7060   31.1380   34.7760 C   0  0  0  0  0  3  0  0  0  0  0  0
   35.3020   30.3360   33.8390 C   0  0  0  0  0  0  0  0  0  0  0  0
   35.8750   29.1480   34.2520 C   0  0  0  0  0  3  0  0  0  0  0  0
   39.0260   23.1880   38.2030 C   0  0  0  0  0  0  0  0  0  0  0  0
   38.3240   24.0420   37.3370 C   0  0  0  0  0  0  0  0  0  0  0  0
   38.8750   24.2760   36.0660 C   0  0  0  0  0  0  0  0  0  0  0  0
   40.0330   23.6800   35.7410 N   0  0  0  0  0  0  0  0  0  0  0  0
   40.6840   22.8680   36.5900 C   0  0  0  0  0  0  0  0  0  0  0  0
   40.1760   22.6270   37.8150 N   0  0  0  0  0  0  0  0  0  0  0  0
   38.5590   23.0410   39.1680 H   0  0  0  0  0  0  0  0  0  0  0  0
   37.3890   24.5370   37.5660 H   0  0  0  0  0  0  0  0  0  0  0  0
   41.6120   22.4400   36.2250 H   0  0  0  0  0  0  0  0  0  0  0  0
  1  5  1  0  0  0  0
  1 22  1  0  0  0  0
  2  1  2  0  0  0  0
  3  4  2  0  0  0  0
  3  2  1  0  0  0  0
  4  5  1  0  0  0  0
  6  2  1  0  0  0  0
  7  3  1  0  0  0  0
  8  4  1  0  0  0  0
  8 19  1  0  0  0  0
  9  8  2  0  0  0  0
 10  9  1  0  0  0  0
 11  9  1  0  0  0  0
 11 12  2  0  0  0  0
 12 18  1  0  0  0  0
 13 12  1  0  0  0  0
 13 14  2  0  0  0  0
 14 16  1  0  0  0  0
 15 14  1  0  0  0  0
 16 17  2  0  0  0  0
 18 19  2  0  0  0  0
 18 17  1  0  0  0  0
 20 26  1  0  0  0  0
 21 27  1  0  0  0  0
 21 20  2  0  0  0  0
 22 21  1  0  0  0  0
 23 22  2  0  0  0  0
 23 24  1  0  0  0  0
 24 25  2  0  0  0  0
 25 20  1  0  0  0  0
 28 24  1  0  0  0  0
M  END
>  <minimizedAffinity>
-5.40147638

$$$$

 OpenBabel03272503183D

 28 31  0  0  0  0  0  0  0  0999 V2000
   39.8850   23.9990   35.8630 C   0  0  0  0  0  0  0  0  0  0  0  0
   38.7060   24.2150   36.4580 C   0  0  0  0  0  0  0  0  0  0  0  0
   37.8490   25.1380   35.9860 C   0  0  0  0  0  0  0  0  0  0  0  0
   38.2610   25.8390   34.8580 C   0  0  0  0  0  0  0  0  0  0  0  0
   39.9180   25.1210   34.5120 S   0  0  0  0  0  0  0  0  0  0  0  0
   38.4610   23.6090   37.3500 H   0  0  0  0  0  0  0  0  0  0  0  0
   36.8780   25.3960   36.3820 H   0  0  0  0  0  0  0  0  0  0  0  0
   37.6130   26.8820   34.0920 C   0  0  0  0  0  0  0  0  0  0  0  0
   36.7190   27.6890   34.7110 C   0  0  0  0  0  0  0  0  0  0  0  0
   36.5020   27.5410   35.7660 H   0  0  0  0  0  0  0  0  0  0  0  0
   36.1190   28.6740   33.9510 C   0  0  0  0  0  3  0  0  0  0  0  0
   36.4260   28.8270   32.5990 C   0  0  0  0  0  0  0  0  0  0  0  0
   35.8500   29.7840   31.8460 N   0  0  0  0  0  0  0  0  0  0  0  0
   36.1750   29.9010   30.5380 C   0  0  0  0  0  0  0  0  0  0  0  0
   35.7030   30.6710   29.9550 H   0  0  0  0  0  0  0  0  0  0  0  0
   37.0870   29.0690   29.9350 C   0  0  0  0  0  3  0  0  0  0  0  0
   37.6830   28.0900   30.6880 C   0  0  0  0  0  3  0  0  0  0  0  0
   37.3520   27.9740   32.0130 C   0  0  0  0  0  0  0  0  0  0  0  0
   37.9590   26.9840   32.7640 C   0  0  0  0  0  3  0  0  0  0  0  0
   41.8960   21.1630   37.2970 C   0  0  0  0  0  0  0  0  0  0  0  0
   40.7920   21.9980   37.0610 C   0  0  0  0  0  0  0  0  0  0  0  0
   40.9670   23.0730   36.1750 C   0  0  0  0  0  0  0  0  0  0  0  0
   42.1680   23.2510   35.6000 N   0  0  0  0  0  0  0  0  0  0  0  0
   43.2070   22.4370   35.8440 C   0  0  0  0  0  0  0  0  0  0  0  0
   43.0640   21.3980   36.6900 N   0  0  0  0  0  0  0  0  0  0  0  0
   41.7080   20.3500   37.9860 H   0  0  0  0  0  0  0  0  0  0  0  0
   39.8120   21.8830   37.5060 H   0  0  0  0  0  0  0  0  0  0  0  0
   44.1310   22.6730   35.3270 H   0  0  0  0  0  0  0  0  0  0  0  0
  1 22  1  0  0  0  0
  1  2  2  0  0  0  0
  2  6  1  0  0  0  0
  3  7  1  0  0  0  0
  3  2  1  0  0  0  0
  4  3  2  0  0  0  0
  5  4  1  0  0  0  0
  5  1  1  0  0  0  0
  8  9  1  0  0  0  0
  8  4  1  0  0  0  0
  9 10  1  0  0  0  0
 11  9  2  0  0  0  0
 12 11  1  0  0  0  0
 13 12  2  0  0  0  0
 14 13  1  0  0  0  0
 15 14  1  0  0  0  0
 16 14  2  0  0  0  0
 16 17  1  0  0  0  0
 17 18  2  0  0  0  0
 18 12  1  0  0  0  0
 18 19  1  0  0  0  0
 19  8  2  0  0  0  0
 20 26  1  0  0  0  0
 21 20  1  0  0  0  0
 21 27  1  0  0  0  0
 22 21  2  0  0  0  0
 23 24  2  0  0  0  0
 23 22  1  0  0  0  0
 24 25  1  0  0  0  0
 25 20  2  0  0  0  0
 28 24  1  0  0  0  0
M  END
>  <minimizedAffinity>
-5.36580515

$$$$

 OpenBabel03272503183D

 28 31  0  0  0  0  0  0  0  0999 V2000
   38.1880   24.9030   34.8200 C   0  0  0  0  0  0  0  0  0  0  0  0
   37.8320   24.3870   33.6380 C   0  0  0  0  0  0  0  0  0  0  0  0
   37.5460   25.1820   32.5910 C   0  0  0  0  0  0  0  0  0  0  0  0
   37.6440   26.5510   32.8140 C   0  0  0  0  0  0  0  0  0  0  0  0
   38.1580   26.6430   34.5770 S   0  0  0  0  0  0  0  0  0  0  0  0
   37.7820   23.2860   33.5510 H   0  0  0  0  0  0  0  0  0  0  0  0
   37.2500   24.8790   31.5980 H   0  0  0  0  0  0  0  0  0  0  0  0
   37.4150   27.6800   31.9390 C   0  0  0  0  0  0  0  0  0  0  0  0
   36.5590   28.6520   32.3330 C   0  0  0  0  0  0  0  0  0  0  0  0
   36.0580   28.5690   33.2950 H   0  0  0  0  0  0  0  0  0  0  0  0
   36.3650   29.7160   31.4740 C   0  0  0  0  0  3  0  0  0  0  0  0
   37.0270   29.7810   30.2480 C   0  0  0  0  0  0  0  0  0  0  0  0
   36.8480   30.8120   29.4000 N   0  0  0  0  0  0  0  0  0  0  0  0
   37.5100   30.8400   28.2200 C   0  0  0  0  0  0  0  0  0  0  0  0
   37.3520   31.6710   27.5590 H   0  0  0  0  0  0  0  0  0  0  0  0
   38.3740   29.8400   27.8450 C   0  0  0  0  0  3  0  0  0  0  0  0
   38.5680   28.7830   28.6970 C   0  0  0  0  0  3  0  0  0  0  0  0
   37.8960   28.7580   29.8920 C   0  0  0  0  0  0  0  0  0  0  0  0
   38.0990   27.6890   30.7440 C   0  0  0  0  0  3  0  0  0  0  0  0
   39.8840   22.8190   37.4510 C   0  0  0  0  0  0  0  0  0  0  0  0
   39.6250   23.3810   36.1900 C   0  0  0  0  0  0  0  0  0  0  0  0
   38.5410   24.2660   36.0830 C   0  0  0  0  0  0  0  0  0  0  0  0
   37.8100   24.5330   37.1780 N   0  0  0  0  0  0  0  0  0  0  0  0
   38.0800   23.9810   38.3710 C   0  0  0  0  0  0  0  0  0  0  0  0
   39.1150   23.1280   38.5000 N   0  0  0  0  0  0  0  0  0  0  0  0
   40.7290   22.1440   37.4790 H   0  0  0  0  0  0  0  0  0  0  0  0
   40.1930   23.1880   35.2890 H   0  0  0  0  0  0  0  0  0  0  0  0
   37.4260   24.2660   39.1880 H   0  0  0  0  0  0  0  0  0  0  0  0
  1 22  1  0  0  0  0
  2  1  2  0  0  0  0
  3  4  2  0  0  0  0
  3  2  1  0  0  0  0
  4  5  1  0  0  0  0
  5  1  1  0  0  0  0
  6  2  1  0  0  0  0
  7  3  1  0  0  0  0
  8  9  1  0  0  0  0
  8  4  1  0  0  0  0
  9 10  1  0  0  0  0
 11  9  2  0  0  0  0
 12 11  1  0  0  0  0
 13 12  2  0  0  0  0
 14 13  1  0  0  0  0
 15 14  1  0  0  0  0
 16 14  2  0  0  0  0
 16 17  1  0  0  0  0
 17 18  2  0  0  0  0
 18 12  1  0  0  0  0
 18 19  1  0  0  0  0
 19  8  2  0  0  0  0
 20 26  1  0  0  0  0
 20 25  1  0  0  0  0
 21 20  2  0  0  0  0
 22 21  1  0  0  0  0
 22 23  2  0  0  0  0
 23 24  1  0  0  0  0
 24 25  2  0  0  0  0
 24 28  1  0  0  0  0
 27 21  1  0  0  0  0
M  END
>  <minimizedAffinity>
-5.34937096

$$$$

 OpenBabel03272503183D

 28 31  0  0  0  0  0  0  0  0999 V2000
   36.4930   23.4420   31.9850 C   0  0  0  0  0  0  0  0  0  0  0  0
   37.4480   24.0080   32.7320 C   0  0  0  0  0  0  0  0  0  0  0  0
   37.5510   25.3460   32.8280 C   0  0  0  0  0  0  0  0  0  0  0  0
   36.6160   26.0880   32.1130 C   0  0  0  0  0  0  0  0  0  0  0  0
   35.5950   24.7900   31.3050 S   0  0  0  0  0  0  0  0  0  0  0  0
   38.1470   23.3400   33.2660 H   0  0  0  0  0  0  0  0  0  0  0  0
   38.2750   25.9100   33.3960 H   0  0  0  0  0  0  0  0  0  0  0  0
   36.4270   27.5160   31.9840 C   0  0  0  0  0  0  0  0  0  0  0  0
   36.5800   28.0900   30.7670 C   0  0  0  0  0  0  0  0  0  0  0  0
   36.8420   27.4720   29.9110 H   0  0  0  0  0  0  0  0  0  0  0  0
   36.3920   29.4550   30.6790 C   0  0  0  0  0  3  0  0  0  0  0  0
   36.0570   30.2100   31.8040 C   0  0  0  0  0  0  0  0  0  0  0  0
   35.8710   31.5420   31.7330 N   0  0  0  0  0  0  0  0  0  0  0  0
   35.5460   32.2380   32.8460 C   0  0  0  0  0  0  0  0  0  0  0  0
   35.4010   33.3000   32.7680 H   0  0  0  0  0  0  0  0  0  0  0  0
   35.3960   31.6300   34.0690 C   0  0  0  0  0  3  0  0  0  0  0  0
   35.5830   30.2750   34.1580 C   0  0  0  0  0  3  0  0  0  0  0  0
   35.9110   29.5720   33.0280 C   0  0  0  0  0  0  0  0  0  0  0  0
   36.0970   28.2060   33.1290 C   0  0  0  0  0  3  0  0  0  0  0  0
   34.8730   20.0480   32.0240 C   0  0  0  0  0  0  0  0  0  0  0  0
   35.0940   21.3980   32.3420 C   0  0  0  0  0  0  0  0  0  0  0  0
   36.1770   22.0420   31.7230 C   0  0  0  0  0  0  0  0  0  0  0  0
   36.9430   21.3470   30.8660 N   0  0  0  0  0  0  0  0  0  0  0  0
   36.7080   20.0560   30.5800 C   0  0  0  0  0  0  0  0  0  0  0  0
   35.6750   19.4160   31.1610 N   0  0  0  0  0  0  0  0  0  0  0  0
   34.0270   19.5990   32.5270 H   0  0  0  0  0  0  0  0  0  0  0  0
   34.4980   21.9870   33.0270 H   0  0  0  0  0  0  0  0  0  0  0  0
   37.3890   19.5920   29.8750 H   0  0  0  0  0  0  0  0  0  0  0  0
  1  2  2  0  0  0  0
  2  3  1  0  0  0  0
  2  6  1  0  0  0  0
  3  7  1  0  0  0  0
  4  3  2  0  0  0  0
  5  1  1  0  0  0  0
  5  4  1  0  0  0  0
  8  4  1  0  0  0  0
  8 19  1  0  0  0  0
  9  8  2  0  0  0  0
 10  9  1  0  0  0  0
 11  9  1  0  0  0  0
 11 12  2  0  0  0  0
 12 18  1  0  0  0  0
 13 12  1  0  0  0  0
 13 14  2  0  0  0  0
 14 16  1  0  0  0  0
 15 14  1  0  0  0  0
 16 17  2  0  0  0  0
 18 19  2  0  0  0  0
 18 17  1  0  0  0  0
 20 21  1  0  0  0  0
 20 26  1  0  0  0  0
 21 27  1  0  0  0  0
 22  1  1  0  0  0  0
 22 21  2  0  0  0  0
 23 22  1  0  0  0  0
 24 23  2  0  0  0  0
 24 25  1  0  0  0  0
 25 20  2  0  0  0  0
 28 24  1  0  0  0  0
M  END
>  <minimizedAffinity>
-5.33292103

$$$$

 OpenBabel03272503183D

 28 31  0  0  0  0  0  0  0  0999 V2000
   38.1470   25.1410   35.0590 C   0  0  0  0  0  0  0  0  0  0  0  0
   37.7860   24.8640   33.8010 C   0  0  0  0  0  0  0  0  0  0  0  0
   37.2630   25.8130   33.0040 C   0  0  0  0  0  0  0  0  0  0  0  0
   37.1250   27.0790   33.5640 C   0  0  0  0  0  0  0  0  0  0  0  0
   37.7730   26.8450   35.2690 S   0  0  0  0  0  0  0  0  0  0  0  0
   37.9330   23.8300   33.4400 H   0  0  0  0  0  0  0  0  0  0  0  0
   36.9390   25.7050   31.9790 H   0  0  0  0  0  0  0  0  0  0  0  0
   36.6130   28.3150   33.0150 C   0  0  0  0  0  0  0  0  0  0  0  0
   35.6860   29.0080   33.7160 C   0  0  0  0  0  0  0  0  0  0  0  0
   35.3410   28.6270   34.6740 H   0  0  0  0  0  0  0  0  0  0  0  0
   35.2180   30.1850   33.1630 C   0  0  0  0  0  3  0  0  0  0  0  0
   35.6870   30.6370   31.9290 C   0  0  0  0  0  0  0  0  0  0  0  0
   35.2410   31.7820   31.3790 N   0  0  0  0  0  0  0  0  0  0  0  0
   35.7210   32.1870   30.1810 C   0  0  0  0  0  0  0  0  0  0  0  0
   35.3520   33.1040   29.7590 H   0  0  0  0  0  0  0  0  0  0  0  0
   36.6640   31.4640   29.4900 C   0  0  0  0  0  3  0  0  0  0  0  0
   37.1290   30.2960   30.0380 C   0  0  0  0  0  3  0  0  0  0  0  0
   36.6410   29.8880   31.2520 C   0  0  0  0  0  0  0  0  0  0  0  0
   37.1160   28.7100   31.7950 C   0  0  0  0  0  3  0  0  0  0  0  0
   38.7710   23.3550   38.3100 C   0  0  0  0  0  0  0  0  0  0  0  0
   38.1370   24.1880   37.3730 C   0  0  0  0  0  0  0  0  0  0  0  0
   38.7260   24.3040   36.1030 C   0  0  0  0  0  0  0  0  0  0  0  0
   39.8530   23.6210   35.8460 N   0  0  0  0  0  0  0  0  0  0  0  0
   40.4390   22.8330   36.7610 C   0  0  0  0  0  0  0  0  0  0  0  0
   39.8930   22.7050   37.9870 N   0  0  0  0  0  0  0  0  0  0  0  0
   38.2770   23.3010   39.2710 H   0  0  0  0  0  0  0  0  0  0  0  0
   37.2290   24.7500   37.5460 H   0  0  0  0  0  0  0  0  0  0  0  0
   41.3460   22.3290   36.4470 H   0  0  0  0  0  0  0  0  0  0  0  0
  1  5  1  0  0  0  0
  1 22  1  0  0  0  0
  2  1  2  0  0  0  0
  3  4  2  0  0  0  0
  3  2  1  0  0  0  0
  4  5  1  0  0  0  0
  6  2  1  0  0  0  0
  7  3  1  0  0  0  0
  8  4  1  0  0  0  0
  8  9  1  0  0  0  0
  9 10  1  0  0  0  0
 11  9  2  0  0  0  0
 12 11  1  0  0  0  0
 13 12  1  0  0  0  0
 14 13  2  0  0  0  0
 15 14  1  0  0  0  0
 16 17  2  0  0  0  0
 16 14  1  0  0  0  0
 17 18  1  0  0  0  0
 18 19  1  0  0  0  0
 18 12  2  0  0  0  0
 19  8  2  0  0  0  0
 20 26  1  0  0  0  0
 21 27  1  0  0  0  0
 21 20  2  0  0  0  0
 22 21  1  0  0  0  0
 23 22  2  0  0  0  0
 23 24  1  0  0  0  0
 24 25  2  0  0  0  0
 25 20  1  0  0  0  0
 28 24  1  0  0  0  0
M  END
>  <minimizedAffinity>
-5.32754421

$$$$

 OpenBabel03272503183D

 28 31  0  0  0  0  0  0  0  0999 V2000
   36.5760   27.7830   33.2980 C   0  0  0  0  0  0  0  0  0  0  0  0
   36.7610   26.6630   32.5900 C   0  0  0  0  0  0  0  0  0  0  0  0
   37.3700   25.5920   33.1310 C   0  0  0  0  0  0  0  0  0  0  0  0
   37.7860   25.7240   34.4520 C   0  0  0  0  0  0  0  0  0  0  0  0
   37.2710   27.4380   34.8750 S   0  0  0  0  0  0  0  0  0  0  0  0
   36.3960   26.6480   31.5470 H   0  0  0  0  0  0  0  0  0  0  0  0
   37.5710   24.6430   32.6580 H   0  0  0  0  0  0  0  0  0  0  0  0
   38.4600   24.8000   35.3370 C   0  0  0  0  0  0  0  0  0  0  0  0
   37.9240   24.5510   36.5550 C   0  0  0  0  0  0  0  0  0  0  0  0
   37.0020   25.0480   36.8480 H   0  0  0  0  0  0  0  0  0  0  0  0
   38.5920   23.6630   37.3750 C   0  0  0  0  0  3  0  0  0  0  0  0
   39.7730   23.0490   36.9600 C   0  0  0  0  0  0  0  0  0  0  0  0
   40.4350   22.1810   37.7490 N   0  0  0  0  0  0  0  0  0  0  0  0
   41.5780   21.6050   37.3100 C   0  0  0  0  0  0  0  0  0  0  0  0
   42.0900   20.9150   37.9540 H   0  0  0  0  0  0  0  0  0  0  0  0
   42.1000   21.8740   36.0670 C   0  0  0  0  0  3  0  0  0  0  0  0
   41.4380   22.7560   35.2520 C   0  0  0  0  0  3  0  0  0  0  0  0
   40.2800   23.3380   35.7000 C   0  0  0  0  0  0  0  0  0  0  0  0
   39.6200   24.2240   34.8700 C   0  0  0  0  0  3  0  0  0  0  0  0
   34.9790   31.1830   33.4820 C   0  0  0  0  0  0  0  0  0  0  0  0
   35.5670   29.9860   33.9220 C   0  0  0  0  0  0  0  0  0  0  0  0
   35.9570   29.0550   32.9460 C   0  0  0  0  0  0  0  0  0  0  0  0
   35.7510   29.3480   31.6520 N   0  0  0  0  0  0  0  0  0  0  0  0
   35.1850   30.5000   31.2580 C   0  0  0  0  0  0  0  0  0  0  0  0
   34.8030   31.4100   32.1760 N   0  0  0  0  0  0  0  0  0  0  0  0
   34.6980   31.8660   34.2730 H   0  0  0  0  0  0  0  0  0  0  0  0
   35.7480   29.7190   34.9560 H   0  0  0  0  0  0  0  0  0  0  0  0
   35.0660   30.6330   30.1890 H   0  0  0  0  0  0  0  0  0  0  0  0
  1  5  1  0  0  0  0
  2  3  1  0  0  0  0
  2  1  2  0  0  0  0
  3  4  2  0  0  0  0
  4  5  1  0  0  0  0
  4  8  1  0  0  0  0
  6  2  1  0  0  0  0
  7  3  1  0  0  0  0
  8  9  1  0  0  0  0
  9 10  1  0  0  0  0
  9 11  2  0  0  0  0
 12 11  1  0  0  0  0
 12 13  1  0  0  0  0
 14 13  2  0  0  0  0
 14 15  1  0  0  0  0
 16 14  1  0  0  0  0
 17 18  1  0  0  0  0
 17 16  2  0  0  0  0
 18 12  2  0  0  0  0
 19  8  2  0  0  0  0
 19 18  1  0  0  0  0
 20 21  1  0  0  0  0
 20 26  1  0  0  0  0
 21 27  1  0  0  0  0
 22  1  1  0  0  0  0
 22 21  2  0  0  0  0
 23 22  1  0  0  0  0
 24 23  2  0  0  0  0
 24 25  1  0  0  0  0
 25 20  2  0  0  0  0
 28 24  1  0  0  0  0
M  END
>  <minimizedAffinity>
-5.32485771

$$$$
