REMARK  Name = 
REMARK  3 active torsions:
REMARK  status: ('A' for Active; 'I' for Inactive)
REMARK    1  A    between atoms: C_3  and  C_12
REMARK    2  A    between atoms: C_5  and  C_14
REMARK    3  A    between atoms: C_18  and  C_28
REMARK                            x       y       z     vdW  Elec       q    Type
REMARK                         _______ _______ _______ _____ _____    ______ ____
ROOT
ATOM      1  C   UNL     1      32.905  29.196  46.761  0.00  0.00    +0.000 A 
ATOM      2  C   UNL     1      32.271  28.044  46.356  0.00  0.00    +0.000 A 
ATOM      3  C   UNL     1      31.260  28.029  45.404  0.00  0.00    +0.000 A 
ATOM      4  N   UNL     1      30.872  29.187  44.841  0.00  0.00    +0.000 NA
ATOM      5  C   UNL     1      31.485  30.310  45.230  0.00  0.00    +0.000 A 
ATOM      6  N   UNL     1      32.453  30.303  46.146  0.00  0.00    +0.000 NA
ATOM      7  H   UNL     1      32.593  27.097  46.820  0.00  0.00    +0.000 HD
ATOM      8  H   UNL     1      30.837  27.054  45.170  0.00  0.00    +0.000 HD
ENDROOT
BRANCH   5   9
ATOM      9  C   UNL     1      31.077  31.576  44.631  0.00  0.00    +0.000 A 
ATOM     10  C   UNL     1      31.989  32.617  44.486  0.00  0.00    +0.000 A 
ATOM     11  H   UNL     1      33.004  32.457  44.830  0.00  0.00    +0.000 HD
ATOM     12  C   UNL     1      31.708  33.837  43.939  0.00  0.00    +0.000 A 
ATOM     13  C   UNL     1      30.417  34.044  43.500  0.00  0.00    +0.000 A 
ATOM     14  N   UNL     1      30.113  35.238  42.957  0.00  0.00    +0.000 NA
ATOM     15  C   UNL     1      28.882  35.537  42.499  0.00  0.00    +0.000 A 
ATOM     16  H   UNL     1      28.676  36.497  42.073  0.00  0.00    +0.000 HD
ATOM     17  C   UNL     1      27.907  34.553  42.605  0.00  0.00    +0.000 A 
ATOM     18  C   UNL     1      28.176  33.303  43.159  0.00  0.00    +0.000 A 
ATOM     19  C   UNL     1      29.455  33.051  43.613  0.00  0.00    +0.000 A 
ATOM     20  C   UNL     1      29.816  31.836  44.179  0.00  0.00    +0.000 A 
ENDBRANCH   5   9
BRANCH   1  25
ATOM     21 BR   UNL     1      37.311  29.336  51.032  0.00  0.00    +0.000 Br
ATOM     22  C   UNL     1      35.962  29.326  49.686  0.00  0.00    +0.000 A 
ATOM     23  C   UNL     1      35.989  30.258  48.642  0.00  0.00    +0.000 A 
ATOM     24  C   UNL     1      34.992  30.201  47.706  0.00  0.00    +0.000 A 
ATOM     25  C   UNL     1      33.966  29.262  47.751  0.00  0.00    +0.000 A 
ATOM     26  C   UNL     1      33.962  28.366  48.777  0.00  0.00    +0.000 A 
ATOM     27  C   UNL     1      34.956  28.410  49.727  0.00  0.00    +0.000 A 
ATOM     28  H   UNL     1      34.950  30.894  46.867  0.00  0.00    +0.000 HD
ATOM     29  H   UNL     1      33.216  27.594  48.914  0.00  0.00    +0.000 HD
ATOM     30  H   UNL     1      34.966  27.697  50.556  0.00  0.00    +0.000 HD
BRANCH  23  35
ATOM     31  C   UNL     1      37.992  33.195  49.451  0.00  0.00    +0.000 A 
ATOM     32  C   UNL     1      39.026  33.175  48.468  0.00  0.00    +0.000 A 
ATOM     33  C   UNL     1      39.006  32.145  47.549  0.00  0.00    +0.000 A 
ATOM     34  N   UNL     1      38.014  31.201  47.613  0.00  0.00    +0.000 NA
ATOM     35  C   UNL     1      37.045  31.251  48.563  0.00  0.00    +0.000 A 
ATOM     36  N   UNL     1      37.047  32.254  49.474  0.00  0.00    +0.000 NA
ATOM     37  H   UNL     1      38.044  34.027  50.160  0.00  0.00    +0.000 HD
ATOM     38  H   UNL     1      39.815  33.878  48.374  0.00  0.00    +0.000 HD
ATOM     39  H   UNL     1      39.718  32.011  46.763  0.00  0.00    +0.000 HD
ENDBRANCH  23  35
ENDBRANCH   1  25
TORSDOF 3
