
 OpenBabel03272508553D

 41 45  0  0  1  0  0  0  0  0999 V2000
   39.1690   31.4470   43.3500 C   0  0  0  0  0  0  0  0  0  0  0  0
   40.1460   30.5010   43.5000 C   0  0  0  0  0  0  0  0  0  0  0  0
   40.8730   30.1130   42.3810 C   0  0  0  0  0  0  0  0  0  0  0  0
   40.5650   30.7050   41.1950 C   0  0  0  0  0  0  0  0  0  0  0  0
   39.5820   31.6640   41.0280 C   0  0  0  0  0  0  0  0  0  0  0  0
   38.9240   31.9840   42.1560 N   0  0  0  0  0  0  0  0  0  0  0  0
   40.4180   30.0070   44.4310 H   0  0  0  0  0  0  0  0  0  0  0  0
   41.6550   29.3630   42.4680 H   0  0  0  0  0  0  0  0  0  0  0  0
   41.1370   30.3960   40.3320 H   0  0  0  0  0  0  0  0  0  0  0  0
   39.2510   32.3000   39.7620 C   0  0  0  0  0  0  0  0  0  0  0  0
   39.8970   31.9990   38.5840 C   0  0  0  0  0  0  0  0  0  0  0  0
   40.6890   31.2670   38.5550 H   0  0  0  0  0  0  0  0  0  0  0  0
   39.6080   32.5830   37.3690 C   0  0  0  0  0  3  0  0  0  0  0  0
   38.5850   33.5370   37.3720 C   0  0  0  0  0  0  0  0  0  0  0  0
   38.2060   34.1820   36.2430 N   0  0  0  0  0  0  0  0  0  0  0  0
   37.2290   35.1000   36.2200 C   0  0  0  0  0  0  0  0  0  0  0  0
   37.0000   35.5640   35.2500 H   0  0  0  0  0  0  0  0  0  0  0  0
   36.5390   35.4460   37.3780 C   0  0  0  0  0  3  0  0  0  0  0  0
   36.8980   34.8080   38.5490 C   0  0  0  0  0  3  0  0  0  0  0  0
   37.9060   33.8690   38.5400 C   0  0  0  0  0  0  0  0  0  0  0  0
   38.2470   33.2430   39.7380 C   0  0  0  0  0  3  0  0  0  0  0  0
   38.3980   31.8400   44.5390 C   0  0  0  0  0  0  0  0  0  0  0  0
   37.2900   32.4460   44.4300 O   0  0  0  0  0  0  0  0  0  0  0  0
   38.9250   31.5200   45.8360 N   0  0  0  0  0  0  0  0  0  0  0  0
   39.8960   31.1690   45.9990 H   0  0  0  0  0  0  0  0  0  0  0  0
   38.4140   31.1080   48.2400 C   0  0  2  0  0  0  0  0  0  0  0  0
   38.6820   32.5480   48.1130 C   0  0  0  0  0  0  0  0  0  0  0  0
   38.0470   31.6990   46.9810 C   0  0  1  0  0  0  0  0  0  0  0  0
   39.3590   30.5030   48.3360 H   0  0  0  0  0  0  0  0  0  0  0  0
   39.6930   32.9170   47.9450 H   0  0  0  0  0  0  0  0  0  0  0  0
   37.9770   33.2150   48.6670 H   0  0  0  0  0  0  0  0  0  0  0  0
   36.9810   31.9470   46.7730 H   0  0  0  0  0  0  0  0  0  0  0  0
   35.0950   30.1840   49.5620 C   0  0  0  0  0  0  0  0  0  0  0  0
   35.4250   29.5370   50.7960 C   0  0  0  0  0  0  0  0  0  0  0  0
   36.8260   29.4450   51.1420 C   0  0  0  0  0  0  0  0  0  0  0  0
   37.7560   29.9670   50.2990 N   0  0  0  0  0  0  0  0  0  0  0  0
   37.3580   30.5700   49.1390 C   0  0  0  0  0  0  0  0  0  0  0  0
   36.0420   30.6950   48.7420 N   0  0  0  0  0  0  0  0  0  0  0  0
   34.0620   30.2600   49.2920 H   0  0  0  0  0  0  0  0  0  0  0  0
   34.6600   29.1400   51.4290 H   0  0  0  0  0  0  0  0  0  0  0  0
   37.0640   28.9610   52.0610 H   0  0  0  0  0  0  0  0  0  0  0  0
  1  2  1  0  0  0  0
  1 22  1  0  0  0  0
  2  7  1  0  0  0  0
  3  8  1  0  0  0  0
  3  2  2  0  0  0  0
  4  3  1  0  0  0  0
  5  4  2  0  0  0  0
  5  6  1  0  0  0  0
  6  1  2  0  0  0  0
  9  4  1  0  0  0  0
 10  5  1  0  0  0  0
 11 10  2  0  0  0  0
 12 11  1  0  0  0  0
 13 14  2  0  0  0  0
 13 11  1  0  0  0  0
 14 20  1  0  0  0  0
 15 14  1  0  0  0  0
 16 15  2  0  0  0  0
 16 18  1  0  0  0  0
 17 16  1  0  0  0  0
 18 19  2  0  0  0  0
 20 19  1  0  0  0  0
 20 21  2  0  0  0  0
 21 10  1  0  0  0  0
 22 24  1  0  0  0  0
 23 22  2  0  0  0  0
 24 25  1  0  0  0  0
 24 28  1  0  0  0  0
 26 29  1  6  0  0  0
 26 37  1  0  0  0  0
 27 26  1  0  0  0  0
 27 31  1  0  0  0  0
 28 32  1  6  0  0  0
 28 27  1  0  0  0  0
 28 26  1  0  0  0  0
 30 27  1  0  0  0  0
 33 34  1  0  0  0  0
 34 35  2  0  0  0  0
 34 40  1  0  0  0  0
 35 41  1  0  0  0  0
 36 35  1  0  0  0  0
 37 36  2  0  0  0  0
 38 37  1  0  0  0  0
 38 33  2  0  0  0  0
 39 33  1  0  0  0  0
M  END
>  <minimizedAffinity>
-5.45076561

>  <minimizedRMSD>
0.194971323

$$$$
