
 OpenBabel03272509593D

 49 53  0  0  0  0  0  0  0  0999 V2000
   37.3280   26.0880   35.5720 C   0  0  0  0  0  0  0  0  0  0  0  0
   36.3040   25.7700   35.3790 H   0  0  0  0  0  0  0  0  0  0  0  0
   37.2710   26.8480   36.3830 H   0  0  0  0  0  0  0  0  0  0  0  0
   38.1200   24.9540   36.1250 C   0  0  0  0  0  0  0  0  0  0  0  0
   37.6950   24.4080   37.3210 C   0  0  0  0  0  0  0  0  0  0  0  0
   38.3590   23.3550   37.9180 C   0  0  0  0  0  0  0  0  0  0  0  0
   39.4410   22.8520   37.3220 N   0  0  0  0  0  0  0  0  0  0  0  0
   39.8500   23.3960   36.1470 C   0  0  0  0  0  0  0  0  0  0  0  0
   39.2160   24.4210   35.5530 N   0  0  0  0  0  0  0  0  0  0  0  0
   36.8240   24.7830   37.8390 H   0  0  0  0  0  0  0  0  0  0  0  0
   38.0320   22.9140   38.8650 H   0  0  0  0  0  0  0  0  0  0  0  0
   41.0600   22.8180   35.5040 C   0  0  0  0  0  0  0  0  0  0  0  0
   41.3220   21.8260   35.9270 H   0  0  0  0  0  0  0  0  0  0  0  0
   40.7960   22.6290   34.4420 H   0  0  0  0  0  0  0  0  0  0  0  0
   42.2220   23.7600   35.5930 C   0  0  0  0  0  0  0  0  0  0  0  0
   43.1870   23.6750   36.5740 C   0  0  0  0  0  0  0  0  0  0  0  0
   43.1080   22.8930   37.3180 H   0  0  0  0  0  0  0  0  0  0  0  0
   44.2060   24.6110   36.5400 C   0  0  0  0  0  3  0  0  0  0  0  0
   44.2700   25.6000   35.5640 C   0  0  0  0  0  0  0  0  0  0  0  0
   45.2570   26.5010   35.5350 N   0  0  0  0  0  0  0  0  0  0  0  0
   45.2730   27.4410   34.5690 C   0  0  0  0  0  0  0  0  0  0  0  0
   46.0510   28.2020   34.4920 H   0  0  0  0  0  0  0  0  0  0  0  0
   44.3020   27.5350   33.5710 C   0  0  0  0  0  3  0  0  0  0  0  0
   43.2860   26.6290   33.5790 C   0  0  0  0  0  3  0  0  0  0  0  0
   43.2860   25.6730   34.5780 C   0  0  0  0  0  0  0  0  0  0  0  0
   42.2830   24.7520   34.6130 C   0  0  0  0  0  3  0  0  0  0  0  0
   37.9180   26.6580   34.3240 C   0  0  0  0  0  0  0  0  0  0  0  0
   38.7700   26.0650   33.9360 H   0  0  0  0  0  0  0  0  0  0  0  0
   38.3200   27.6660   34.5620 H   0  0  0  0  0  0  0  0  0  0  0  0
   36.9370   26.8600   33.3250 O   0  0  0  0  0  0  0  0  0  0  0  0
   36.3860   29.9790   31.6050 C   0  0  0  0  0  0  0  0  0  0  0  0
   35.7420   30.7240   32.6240 C   0  0  0  0  0  0  0  0  0  0  0  0
   35.5420   30.0840   33.8450 C   0  0  0  0  0  0  0  0  0  0  0  0
   35.9910   28.7950   33.9360 N   0  0  0  0  0  0  0  0  0  0  0  0
   36.5950   28.1180   32.9650 C   0  0  0  0  0  0  0  0  0  0  0  0
   36.7930   28.7260   31.7800 N   0  0  0  0  0  0  0  0  0  0  0  0
   36.5070   30.5380   30.6900 H   0  0  0  0  0  0  0  0  0  0  0  0
   35.3990   31.7330   32.5250 H   0  0  0  0  0  0  0  0  0  0  0  0
   36.7150   31.7820   35.8730 F   0  0  0  0  0  0  0  0  0  0  0  0
   35.4280   31.4710   35.9450 C   0  0  0  0  0  0  0  0  0  0  0  0
   34.9060   30.6810   34.9900 C   0  0  0  0  0  0  0  0  0  0  0  0
   33.5420   30.4140   35.1590 C   0  0  0  0  0  0  0  0  0  0  0  0
   32.8200   30.9180   36.2030 C   0  0  0  0  0  0  0  0  0  0  0  0
   33.4040   31.7240   37.1550 C   0  0  0  0  0  0  0  0  0  0  0  0
   34.7250   31.9920   37.0050 C   0  0  0  0  0  0  0  0  0  0  0  0
   32.9910   29.7910   34.4630 H   0  0  0  0  0  0  0  0  0  0  0  0
   31.7510   30.7050   36.3280 H   0  0  0  0  0  0  0  0  0  0  0  0
   32.8170   32.1120   37.9700 H   0  0  0  0  0  0  0  0  0  0  0  0
   35.2020   32.6240   37.7440 H   0  0  0  0  0  0  0  0  0  0  0  0
  1  4  1  0  0  0  0
  1  3  1  0  0  0  0
  2  1  1  0  0  0  0
  4  5  1  0  0  0  0
  5 10  1  0  0  0  0
  5  6  2  0  0  0  0
  6 11  1  0  0  0  0
  7  6  1  0  0  0  0
  8  7  2  0  0  0  0
  9  4  2  0  0  0  0
  9  8  1  0  0  0  0
 12 15  1  0  0  0  0
 12 13  1  0  0  0  0
 12  8  1  0  0  0  0
 14 12  1  0  0  0  0
 15 16  1  0  0  0  0
 16 17  1  0  0  0  0
 18 16  2  0  0  0  0
 19 18  1  0  0  0  0
 20 19  1  0  0  0  0
 21 20  2  0  0  0  0
 22 21  1  0  0  0  0
 23 24  2  0  0  0  0
 23 21  1  0  0  0  0
 24 25  1  0  0  0  0
 25 26  1  0  0  0  0
 25 19  2  0  0  0  0
 26 15  2  0  0  0  0
 27 29  1  0  0  0  0
 27  1  1  0  0  0  0
 28 27  1  0  0  0  0
 30 27  1  0  0  0  0
 31 36  2  0  0  0  0
 31 32  1  0  0  0  0
 32 33  2  0  0  0  0
 33 34  1  0  0  0  0
 33 41  1  0  0  0  0
 35 30  1  0  0  0  0
 35 34  2  0  0  0  0
 36 35  1  0  0  0  0
 37 31  1  0  0  0  0
 38 32  1  0  0  0  0
 39 40  1  0  0  0  0
 40 45  1  0  0  0  0
 41 42  1  0  0  0  0
 41 40  2  0  0  0  0
 42 43  2  0  0  0  0
 43 47  1  0  0  0  0
 43 44  1  0  0  0  0
 44 48  1  0  0  0  0
 45 44  2  0  0  0  0
 45 49  1  0  0  0  0
 46 42  1  0  0  0  0
M  END
>  <minimizedAffinity>
-6.96524286

$$$$

 OpenBabel03272509593D

 49 53  0  0  0  0  0  0  0  0999 V2000
   38.1260   27.7270   31.4610 C   0  0  0  0  0  0  0  0  0  0  0  0
   38.6480   28.0770   30.5710 H   0  0  0  0  0  0  0  0  0  0  0  0
   38.8310   27.8650   32.3110 H   0  0  0  0  0  0  0  0  0  0  0  0
   36.9570   28.6040   31.7490 C   0  0  0  0  0  0  0  0  0  0  0  0
   36.6200   29.5430   30.7930 C   0  0  0  0  0  0  0  0  0  0  0  0
   35.5540   30.4040   30.9630 C   0  0  0  0  0  0  0  0  0  0  0  0
   34.8310   30.3260   32.0800 N   0  0  0  0  0  0  0  0  0  0  0  0
   35.1710   29.3990   33.0120 C   0  0  0  0  0  0  0  0  0  0  0  0
   36.2050   28.5540   32.8630 N   0  0  0  0  0  0  0  0  0  0  0  0
   37.1770   29.6430   29.8720 H   0  0  0  0  0  0  0  0  0  0  0  0
   35.2780   31.1520   30.2130 H   0  0  0  0  0  0  0  0  0  0  0  0
   34.3490   29.3330   34.2500 C   0  0  0  0  0  0  0  0  0  0  0  0
   33.2790   29.1430   34.0290 H   0  0  0  0  0  0  0  0  0  0  0  0
   34.6990   28.4450   34.8170 H   0  0  0  0  0  0  0  0  0  0  0  0
   34.5110   30.5750   35.0740 C   0  0  0  0  0  0  0  0  0  0  0  0
   35.7400   31.0780   35.4450 C   0  0  0  0  0  0  0  0  0  0  0  0
   36.6340   30.5560   35.1310 H   0  0  0  0  0  0  0  0  0  0  0  0
   35.7450   32.2340   36.2070 C   0  0  0  0  0  3  0  0  0  0  0  0
   34.5700   32.8730   36.5900 C   0  0  0  0  0  0  0  0  0  0  0  0
   34.5810   33.9890   37.3250 N   0  0  0  0  0  0  0  0  0  0  0  0
   33.4150   34.5710   37.6710 C   0  0  0  0  0  0  0  0  0  0  0  0
   33.3580   35.4810   38.2690 H   0  0  0  0  0  0  0  0  0  0  0  0
   32.1660   34.0700   37.3000 C   0  0  0  0  0  3  0  0  0  0  0  0
   32.1290   32.9340   36.5500 C   0  0  0  0  0  3  0  0  0  0  0  0
   33.3350   32.3520   36.2050 C   0  0  0  0  0  0  0  0  0  0  0  0
   33.3300   31.2150   35.4560 C   0  0  0  0  0  3  0  0  0  0  0  0
   37.7500   26.2920   31.2870 C   0  0  0  0  0  0  0  0  0  0  0  0
   37.5710   26.0150   30.2290 H   0  0  0  0  0  0  0  0  0  0  0  0
   36.7920   26.1190   31.8220 H   0  0  0  0  0  0  0  0  0  0  0  0
   38.6920   25.4260   31.8910 O   0  0  0  0  0  0  0  0  0  0  0  0
   37.3240   22.1620   32.5750 C   0  0  0  0  0  0  0  0  0  0  0  0
   37.5720   22.0670   33.9670 C   0  0  0  0  0  0  0  0  0  0  0  0
   38.2020   23.1510   34.5730 C   0  0  0  0  0  0  0  0  0  0  0  0
   38.5190   24.2030   33.7580 N   0  0  0  0  0  0  0  0  0  0  0  0
   38.2740   24.2690   32.4540 C   0  0  0  0  0  0  0  0  0  0  0  0
   37.6660   23.2260   31.8560 N   0  0  0  0  0  0  0  0  0  0  0  0
   36.8350   21.2880   32.1760 H   0  0  0  0  0  0  0  0  0  0  0  0
   37.3140   21.2290   34.5820 H   0  0  0  0  0  0  0  0  0  0  0  0
   40.4010   21.9000   35.9770 F   0  0  0  0  0  0  0  0  0  0  0  0
   39.5460   22.6620   36.6470 C   0  0  0  0  0  0  0  0  0  0  0  0
   38.5330   23.2320   35.9720 C   0  0  0  0  0  0  0  0  0  0  0  0
   37.6900   24.0150   36.7700 C   0  0  0  0  0  0  0  0  0  0  0  0
   37.8920   24.1760   38.1120 C   0  0  0  0  0  0  0  0  0  0  0  0
   38.9470   23.5680   38.7550 C   0  0  0  0  0  0  0  0  0  0  0  0
   39.7730   22.8060   37.9950 C   0  0  0  0  0  0  0  0  0  0  0  0
   36.8320   24.5340   36.3580 H   0  0  0  0  0  0  0  0  0  0  0  0
   37.2280   24.7910   38.7310 H   0  0  0  0  0  0  0  0  0  0  0  0
   39.0890   23.7080   39.8140 H   0  0  0  0  0  0  0  0  0  0  0  0
   40.6090   22.3210   38.4840 H   0  0  0  0  0  0  0  0  0  0  0  0
  1  4  1  0  0  0  0
  1  3  1  0  0  0  0
  2  1  1  0  0  0  0
  4  9  1  0  0  0  0
  5  6  1  0  0  0  0
  5  4  2  0  0  0  0
  6  7  2  0  0  0  0
  7  8  1  0  0  0  0
  8 12  1  0  0  0  0
  9  8  2  0  0  0  0
 10  5  1  0  0  0  0
 11  6  1  0  0  0  0
 12 14  1  0  0  0  0
 12 15  1  0  0  0  0
 13 12  1  0  0  0  0
 15 16  2  0  0  0  0
 15 26  1  0  0  0  0
 16 18  1  0  0  0  0
 17 16  1  0  0  0  0
 18 19  2  0  0  0  0
 19 20  1  0  0  0  0
 20 21  2  0  0  0  0
 21 22  1  0  0  0  0
 23 21  1  0  0  0  0
 24 23  2  0  0  0  0
 25 24  1  0  0  0  0
 25 19  1  0  0  0  0
 26 25  2  0  0  0  0
 27  1  1  0  0  0  0
 27 29  1  0  0  0  0
 27 30  1  0  0  0  0
 28 27  1  0  0  0  0
 30 35  1  0  0  0  0
 31 32  1  0  0  0  0
 32 33  2  0  0  0  0
 32 38  1  0  0  0  0
 33 41  1  0  0  0  0
 34 33  1  0  0  0  0
 35 34  2  0  0  0  0
 36 35  1  0  0  0  0
 36 31  2  0  0  0  0
 37 31  1  0  0  0  0
 39 40  1  0  0  0  0
 40 45  1  0  0  0  0
 41 40  2  0  0  0  0
 41 42  1  0  0  0  0
 42 43  2  0  0  0  0
 43 47  1  0  0  0  0
 43 44  1  0  0  0  0
 44 48  1  0  0  0  0
 45 49  1  0  0  0  0
 45 44  2  0  0  0  0
 46 42  1  0  0  0  0
M  END
>  <minimizedAffinity>
-6.67951202

$$$$

 OpenBabel03272509593D

 49 53  0  0  0  0  0  0  0  0999 V2000
   37.0730   20.7860   32.5330 C   0  0  0  0  0  0  0  0  0  0  0  0
   37.9450   20.1440   32.4130 H   0  0  0  0  0  0  0  0  0  0  0  0
   36.1850   20.1450   32.3390 H   0  0  0  0  0  0  0  0  0  0  0  0
   36.9580   21.2320   33.9500 C   0  0  0  0  0  0  0  0  0  0  0  0
   35.9510   20.6700   34.7110 C   0  0  0  0  0  0  0  0  0  0  0  0
   35.7580   21.0150   36.0330 C   0  0  0  0  0  0  0  0  0  0  0  0
   36.5680   21.9150   36.5920 N   0  0  0  0  0  0  0  0  0  0  0  0
   37.5550   22.4610   35.8350 C   0  0  0  0  0  0  0  0  0  0  0  0
   37.7550   22.1370   34.5470 N   0  0  0  0  0  0  0  0  0  0  0  0
   35.2710   19.9360   34.3020 H   0  0  0  0  0  0  0  0  0  0  0  0
   34.9640   20.5770   36.6460 H   0  0  0  0  0  0  0  0  0  0  0  0
   38.4440   23.4640   36.4800 C   0  0  0  0  0  0  0  0  0  0  0  0
   38.3450   24.4670   36.0160 H   0  0  0  0  0  0  0  0  0  0  0  0
   38.0860   23.5810   37.5240 H   0  0  0  0  0  0  0  0  0  0  0  0
   39.8720   23.0090   36.4660 C   0  0  0  0  0  0  0  0  0  0  0  0
   40.3350   21.9560   37.2250 C   0  0  0  0  0  0  0  0  0  0  0  0
   39.6390   21.4270   37.8640 H   0  0  0  0  0  0  0  0  0  0  0  0
   41.6780   21.6410   37.1160 C   0  0  0  0  0  3  0  0  0  0  0  0
   42.5380   22.3470   36.2810 C   0  0  0  0  0  0  0  0  0  0  0  0
   43.8350   22.0380   36.1800 N   0  0  0  0  0  0  0  0  0  0  0  0
   44.6270   22.7530   35.3570 C   0  0  0  0  0  0  0  0  0  0  0  0
   45.6920   22.5510   35.2310 H   0  0  0  0  0  0  0  0  0  0  0  0
   44.1690   23.8210   34.5830 C   0  0  0  0  0  3  0  0  0  0  0  0
   42.8520   24.1540   34.6690 C   0  0  0  0  0  3  0  0  0  0  0  0
   42.0550   23.4100   35.5190 C   0  0  0  0  0  0  0  0  0  0  0  0
   40.7330   23.7190   35.6260 C   0  0  0  0  0  3  0  0  0  0  0  0
   37.1520   21.9230   31.5680 C   0  0  0  0  0  0  0  0  0  0  0  0
   37.5570   21.6270   30.5800 H   0  0  0  0  0  0  0  0  0  0  0  0
   37.8550   22.6780   31.9810 H   0  0  0  0  0  0  0  0  0  0  0  0
   35.9090   22.5840   31.4350 O   0  0  0  0  0  0  0  0  0  0  0  0
   35.1140   26.0650   30.9390 C   0  0  0  0  0  0  0  0  0  0  0  0
   36.1000   26.6720   31.7560 C   0  0  0  0  0  0  0  0  0  0  0  0
   36.9760   25.8230   32.4270 C   0  0  0  0  0  0  0  0  0  0  0  0
   36.7950   24.4810   32.2280 N   0  0  0  0  0  0  0  0  0  0  0  0
   35.8630   23.9360   31.4530 C   0  0  0  0  0  0  0  0  0  0  0  0
   35.0090   24.7470   30.8000 N   0  0  0  0  0  0  0  0  0  0  0  0
   34.4740   26.7830   30.4510 H   0  0  0  0  0  0  0  0  0  0  0  0
   36.2180   27.7270   31.8960 H   0  0  0  0  0  0  0  0  0  0  0  0
   36.8170   26.5840   35.2150 F   0  0  0  0  0  0  0  0  0  0  0  0
   37.9890   26.6170   34.5930 C   0  0  0  0  0  0  0  0  0  0  0  0
   38.0360   26.2580   33.2990 C   0  0  0  0  0  0  0  0  0  0  0  0
   39.3180   26.3260   32.7390 C   0  0  0  0  0  0  0  0  0  0  0  0
   40.4110   26.7240   33.4560 C   0  0  0  0  0  0  0  0  0  0  0  0
   40.3070   27.0810   34.7820 C   0  0  0  0  0  0  0  0  0  0  0  0
   39.0710   27.0190   35.3390 C   0  0  0  0  0  0  0  0  0  0  0  0
   39.5040   26.0650   31.7030 H   0  0  0  0  0  0  0  0  0  0  0  0
   41.4120   26.7740   33.0100 H   0  0  0  0  0  0  0  0  0  0  0  0
   41.1810   27.3900   35.3300 H   0  0  0  0  0  0  0  0  0  0  0  0
   38.9700   27.2960   36.3810 H   0  0  0  0  0  0  0  0  0  0  0  0
  1  4  1  0  0  0  0
  2  1  1  0  0  0  0
  3  1  1  0  0  0  0
  4  9  2  0  0  0  0
  4  5  1  0  0  0  0
  5  6  2  0  0  0  0
  6  7  1  0  0  0  0
  6 11  1  0  0  0  0
  8 12  1  0  0  0  0
  8  7  2  0  0  0  0
  9  8  1  0  0  0  0
 10  5  1  0  0  0  0
 12 14  1  0  0  0  0
 13 12  1  0  0  0  0
 15 12  1  0  0  0  0
 15 16  1  0  0  0  0
 16 17  1  0  0  0  0
 18 16  2  0  0  0  0
 19 18  1  0  0  0  0
 20 19  1  0  0  0  0
 21 20  2  0  0  0  0
 22 21  1  0  0  0  0
 23 24  2  0  0  0  0
 23 21  1  0  0  0  0
 24 25  1  0  0  0  0
 25 26  1  0  0  0  0
 25 19  2  0  0  0  0
 26 15  2  0  0  0  0
 27 29  1  0  0  0  0
 27  1  1  0  0  0  0
 28 27  1  0  0  0  0
 30 35  1  0  0  0  0
 30 27  1  0  0  0  0
 31 32  1  0  0  0  0
 32 38  1  0  0  0  0
 32 33  2  0  0  0  0
 33 41  1  0  0  0  0
 34 33  1  0  0  0  0
 35 34  2  0  0  0  0
 36 31  2  0  0  0  0
 36 35  1  0  0  0  0
 37 31  1  0  0  0  0
 40 39  1  0  0  0  0
 40 45  1  0  0  0  0
 41 40  2  0  0  0  0
 42 41  1  0  0  0  0
 42 43  2  0  0  0  0
 43 44  1  0  0  0  0
 44 48  1  0  0  0  0
 44 45  2  0  0  0  0
 45 49  1  0  0  0  0
 46 42  1  0  0  0  0
 47 43  1  0  0  0  0
M  END
>  <minimizedAffinity>
-6.51945972

$$$$

 OpenBabel03272509593D

 49 53  0  0  0  0  0  0  0  0999 V2000
   39.8880   26.6550   31.7990 C   0  0  0  0  0  0  0  0  0  0  0  0
   40.0160   27.4830   31.1020 H   0  0  0  0  0  0  0  0  0  0  0  0
   40.8840   26.4810   32.2630 H   0  0  0  0  0  0  0  0  0  0  0  0
   38.9810   27.0560   32.9100 C   0  0  0  0  0  0  0  0  0  0  0  0
   39.4540   26.9070   34.1990 C   0  0  0  0  0  0  0  0  0  0  0  0
   38.6920   27.2480   35.2990 C   0  0  0  0  0  0  0  0  0  0  0  0
   37.4660   27.7370   35.1100 N   0  0  0  0  0  0  0  0  0  0  0  0
   37.0110   27.8800   33.8380 C   0  0  0  0  0  0  0  0  0  0  0  0
   37.7390   27.5520   32.7580 N   0  0  0  0  0  0  0  0  0  0  0  0
   40.4410   26.5150   34.4020 H   0  0  0  0  0  0  0  0  0  0  0  0
   39.0560   27.1340   36.3250 H   0  0  0  0  0  0  0  0  0  0  0  0
   35.6400   28.4250   33.6540 C   0  0  0  0  0  0  0  0  0  0  0  0
   35.2030   28.1300   32.6780 H   0  0  0  0  0  0  0  0  0  0  0  0
   35.0010   27.9460   34.4250 H   0  0  0  0  0  0  0  0  0  0  0  0
   35.6250   29.9160   33.8160 C   0  0  0  0  0  0  0  0  0  0  0  0
   35.9100   30.7880   32.7870 C   0  0  0  0  0  0  0  0  0  0  0  0
   36.1560   30.3850   31.8130 H   0  0  0  0  0  0  0  0  0  0  0  0
   35.8600   32.1410   33.0740 C   0  0  0  0  0  3  0  0  0  0  0  0
   35.5380   32.6170   34.3410 C   0  0  0  0  0  0  0  0  0  0  0  0
   35.4910   33.9250   34.6120 N   0  0  0  0  0  0  0  0  0  0  0  0
   35.1740   34.3360   35.8570 C   0  0  0  0  0  0  0  0  0  0  0  0
   35.1190   35.3880   36.1400 H   0  0  0  0  0  0  0  0  0  0  0  0
   34.8830   33.4620   36.9050 C   0  0  0  0  0  3  0  0  0  0  0  0
   34.9250   32.1240   36.6530 C   0  0  0  0  0  3  0  0  0  0  0  0
   35.2520   31.7220   35.3710 C   0  0  0  0  0  0  0  0  0  0  0  0
   35.3010   30.3900   35.0880 C   0  0  0  0  0  3  0  0  0  0  0  0
   39.4080   25.4490   31.0600 C   0  0  0  0  0  0  0  0  0  0  0  0
   39.6260   25.4890   29.9740 H   0  0  0  0  0  0  0  0  0  0  0  0
   38.3030   25.4020   31.1560 H   0  0  0  0  0  0  0  0  0  0  0  0
   39.8980   24.2530   31.6350 O   0  0  0  0  0  0  0  0  0  0  0  0
   37.3920   21.8420   32.5830 C   0  0  0  0  0  0  0  0  0  0  0  0
   37.4920   21.9090   33.9950 C   0  0  0  0  0  0  0  0  0  0  0  0
   38.4310   22.7920   34.5210 C   0  0  0  0  0  0  0  0  0  0  0  0
   39.1640   23.5100   33.6160 N   0  0  0  0  0  0  0  0  0  0  0  0
   39.0500   23.4300   32.2950 C   0  0  0  0  0  0  0  0  0  0  0  0
   38.1460   22.5790   31.7740 N   0  0  0  0  0  0  0  0  0  0  0  0
   36.6450   21.1380   32.2490 H   0  0  0  0  0  0  0  0  0  0  0  0
   36.9060   21.3330   34.6810 H   0  0  0  0  0  0  0  0  0  0  0  0
   40.6210   21.7980   36.1310 F   0  0  0  0  0  0  0  0  0  0  0  0
   39.6790   22.5440   36.6950 C   0  0  0  0  0  0  0  0  0  0  0  0
   38.6730   22.9930   35.9260 C   0  0  0  0  0  0  0  0  0  0  0  0
   37.7350   23.7700   36.6180 C   0  0  0  0  0  0  0  0  0  0  0  0
   37.8460   24.0380   37.9530 C   0  0  0  0  0  0  0  0  0  0  0  0
   38.8990   23.5520   38.6950 C   0  0  0  0  0  0  0  0  0  0  0  0
   39.8170   22.7970   38.0390 C   0  0  0  0  0  0  0  0  0  0  0  0
   36.8710   24.1990   36.1230 H   0  0  0  0  0  0  0  0  0  0  0  0
   37.1080   24.6470   38.4880 H   0  0  0  0  0  0  0  0  0  0  0  0
   38.9690   23.7740   39.7470 H   0  0  0  0  0  0  0  0  0  0  0  0
   40.6520   22.4060   38.6070 H   0  0  0  0  0  0  0  0  0  0  0  0
  1  3  1  0  0  0  0
  1  4  1  0  0  0  0
  2  1  1  0  0  0  0
  4  5  1  0  0  0  0
  5 10  1  0  0  0  0
  5  6  2  0  0  0  0
  6 11  1  0  0  0  0
  7  6  1  0  0  0  0
  8  7  2  0  0  0  0
  9  4  2  0  0  0  0
  9  8  1  0  0  0  0
 12 15  1  0  0  0  0
 12  8  1  0  0  0  0
 12 14  1  0  0  0  0
 13 12  1  0  0  0  0
 15 26  1  0  0  0  0
 16 18  1  0  0  0  0
 16 15  2  0  0  0  0
 17 16  1  0  0  0  0
 18 19  2  0  0  0  0
 19 20  1  0  0  0  0
 19 25  1  0  0  0  0
 20 21  2  0  0  0  0
 21 22  1  0  0  0  0
 21 23  1  0  0  0  0
 24 23  2  0  0  0  0
 25 24  1  0  0  0  0
 26 25  2  0  0  0  0
 27 29  1  0  0  0  0
 27 30  1  0  0  0  0
 27  1  1  0  0  0  0
 28 27  1  0  0  0  0
 30 35  1  0  0  0  0
 31 32  1  0  0  0  0
 32 33  2  0  0  0  0
 32 38  1  0  0  0  0
 33 41  1  0  0  0  0
 34 33  1  0  0  0  0
 35 34  2  0  0  0  0
 36 35  1  0  0  0  0
 36 31  2  0  0  0  0
 37 31  1  0  0  0  0
 39 40  1  0  0  0  0
 40 45  1  0  0  0  0
 41 42  1  0  0  0  0
 41 40  2  0  0  0  0
 42 43  2  0  0  0  0
 43 47  1  0  0  0  0
 43 44  1  0  0  0  0
 44 48  1  0  0  0  0
 45 49  1  0  0  0  0
 45 44  2  0  0  0  0
 46 42  1  0  0  0  0
M  END
>  <minimizedAffinity>
-6.48733234

$$$$

 OpenBabel03272509593D

 49 53  0  0  0  0  0  0  0  0999 V2000
   38.2400   26.9420   35.4870 C   0  0  0  0  0  0  0  0  0  0  0  0
   38.3670   27.6830   36.2750 H   0  0  0  0  0  0  0  0  0  0  0  0
   39.0590   27.1220   34.7550 H   0  0  0  0  0  0  0  0  0  0  0  0
   38.4660   25.5730   36.0290 C   0  0  0  0  0  0  0  0  0  0  0  0
   37.9760   25.3050   37.2930 C   0  0  0  0  0  0  0  0  0  0  0  0
   38.1320   24.0680   37.8860 C   0  0  0  0  0  0  0  0  0  0  0  0
   38.7730   23.1060   37.2190 N   0  0  0  0  0  0  0  0  0  0  0  0
   39.2490   23.3810   35.9780 C   0  0  0  0  0  0  0  0  0  0  0  0
   39.1060   24.5790   35.3860 N   0  0  0  0  0  0  0  0  0  0  0  0
   37.4510   26.0510   37.8700 H   0  0  0  0  0  0  0  0  0  0  0  0
   37.7500   23.8430   38.8870 H   0  0  0  0  0  0  0  0  0  0  0  0
   39.9600   22.2930   35.2560 C   0  0  0  0  0  0  0  0  0  0  0  0
   41.0060   22.5700   35.0130 H   0  0  0  0  0  0  0  0  0  0  0  0
   40.0330   21.4380   35.9610 H   0  0  0  0  0  0  0  0  0  0  0  0
   39.2150   21.8880   34.0190 C   0  0  0  0  0  0  0  0  0  0  0  0
   39.8070   21.8040   32.7770 C   0  0  0  0  0  0  0  0  0  0  0  0
   40.8590   22.0400   32.6820 H   0  0  0  0  0  0  0  0  0  0  0  0
   39.0020   21.4180   31.7190 C   0  0  0  0  0  3  0  0  0  0  0  0
   37.6530   21.1240   31.8850 C   0  0  0  0  0  0  0  0  0  0  0  0
   36.8800   20.7510   30.8600 N   0  0  0  0  0  0  0  0  0  0  0  0
   35.5780   20.4770   31.0720 C   0  0  0  0  0  0  0  0  0  0  0  0
   34.8970   20.1680   30.2780 H   0  0  0  0  0  0  0  0  0  0  0  0
   34.9690   20.5580   32.3260 C   0  0  0  0  0  3  0  0  0  0  0  0
   35.7350   20.9360   33.3860 C   0  0  0  0  0  3  0  0  0  0  0  0
   37.0690   21.2130   33.1490 C   0  0  0  0  0  0  0  0  0  0  0  0
   37.8610   21.5930   34.1890 C   0  0  0  0  0  3  0  0  0  0  0  0
   36.8960   27.1060   34.8570 C   0  0  0  0  0  0  0  0  0  0  0  0
   36.2250   27.7750   35.4320 H   0  0  0  0  0  0  0  0  0  0  0  0
   36.4020   26.1120   34.8350 H   0  0  0  0  0  0  0  0  0  0  0  0
   36.9960   27.5190   33.5080 O   0  0  0  0  0  0  0  0  0  0  0  0
   35.4980   30.1980   31.6180 C   0  0  0  0  0  0  0  0  0  0  0  0
   34.8980   30.9450   32.6620 C   0  0  0  0  0  0  0  0  0  0  0  0
   35.0570   30.4610   33.9580 C   0  0  0  0  0  0  0  0  0  0  0  0
   35.7810   29.3070   34.0920 N   0  0  0  0  0  0  0  0  0  0  0  0
   36.3350   28.6250   33.0950 C   0  0  0  0  0  0  0  0  0  0  0  0
   36.1880   29.0830   31.8370 N   0  0  0  0  0  0  0  0  0  0  0  0
   35.3340   30.6330   30.6440 H   0  0  0  0  0  0  0  0  0  0  0  0
   34.3360   31.8460   32.5290 H   0  0  0  0  0  0  0  0  0  0  0  0
   32.5900   29.8600   35.3470 F   0  0  0  0  0  0  0  0  0  0  0  0
   33.3800   30.8250   35.8020 C   0  0  0  0  0  0  0  0  0  0  0  0
   34.5200   31.0840   35.1390 C   0  0  0  0  0  0  0  0  0  0  0  0
   35.2800   32.1170   35.7020 C   0  0  0  0  0  0  0  0  0  0  0  0
   34.8850   32.7910   36.8230 C   0  0  0  0  0  0  0  0  0  0  0  0
   33.7050   32.4850   37.4650 C   0  0  0  0  0  0  0  0  0  0  0  0
   32.9580   31.4850   36.9310 C   0  0  0  0  0  0  0  0  0  0  0  0
   36.2240   32.4330   35.2720 H   0  0  0  0  0  0  0  0  0  0  0  0
   35.4850   33.5990   37.2590 H   0  0  0  0  0  0  0  0  0  0  0  0
   33.4120   33.0270   38.3470 H   0  0  0  0  0  0  0  0  0  0  0  0
   32.0270   31.2300   37.4220 H   0  0  0  0  0  0  0  0  0  0  0  0
  1  4  1  0  0  0  0
  1  2  1  0  0  0  0
  3  1  1  0  0  0  0
  4  5  1  0  0  0  0
  5 10  1  0  0  0  0
  5  6  2  0  0  0  0
  6 11  1  0  0  0  0
  7  6  1  0  0  0  0
  8  7  2  0  0  0  0
  9  8  1  0  0  0  0
  9  4  2  0  0  0  0
 12 14  1  0  0  0  0
 12  8  1  0  0  0  0
 13 12  1  0  0  0  0
 15 26  1  0  0  0  0
 15 12  1  0  0  0  0
 16 15  2  0  0  0  0
 17 16  1  0  0  0  0
 18 19  2  0  0  0  0
 18 16  1  0  0  0  0
 19 25  1  0  0  0  0
 20 21  2  0  0  0  0
 20 19  1  0  0  0  0
 21 23  1  0  0  0  0
 22 21  1  0  0  0  0
 23 24  2  0  0  0  0
 25 24  1  0  0  0  0
 25 26  2  0  0  0  0
 27 28  1  0  0  0  0
 27  1  1  0  0  0  0
 29 27  1  0  0  0  0
 30 27  1  0  0  0  0
 31 36  2  0  0  0  0
 31 32  1  0  0  0  0
 32 33  2  0  0  0  0
 33 34  1  0  0  0  0
 33 41  1  0  0  0  0
 35 30  1  0  0  0  0
 35 34  2  0  0  0  0
 36 35  1  0  0  0  0
 37 31  1  0  0  0  0
 38 32  1  0  0  0  0
 39 40  1  0  0  0  0
 40 45  1  0  0  0  0
 41 42  1  0  0  0  0
 41 40  2  0  0  0  0
 42 43  2  0  0  0  0
 43 47  1  0  0  0  0
 43 44  1  0  0  0  0
 44 48  1  0  0  0  0
 45 49  1  0  0  0  0
 45 44  2  0  0  0  0
 46 42  1  0  0  0  0
M  END
>  <minimizedAffinity>
-6.46240044

$$$$

 OpenBabel03272509593D

 49 53  0  0  0  0  0  0  0  0999 V2000
   36.3630   30.8930   30.6750 C   0  0  0  0  0  0  0  0  0  0  0  0
   37.2540   31.4670   30.9270 H   0  0  0  0  0  0  0  0  0  0  0  0
   36.3980   30.7280   29.5750 H   0  0  0  0  0  0  0  0  0  0  0  0
   36.4330   29.5410   31.2960 C   0  0  0  0  0  0  0  0  0  0  0  0
   36.3260   28.4510   30.4540 C   0  0  0  0  0  0  0  0  0  0  0  0
   36.3790   27.1550   30.9300 C   0  0  0  0  0  0  0  0  0  0  0  0
   36.5380   26.9520   32.2380 N   0  0  0  0  0  0  0  0  0  0  0  0
   36.6430   28.0310   33.0560 C   0  0  0  0  0  0  0  0  0  0  0  0
   36.5930   29.2970   32.6100 N   0  0  0  0  0  0  0  0  0  0  0  0
   36.1960   28.5660   29.3880 H   0  0  0  0  0  0  0  0  0  0  0  0
   36.2940   26.2840   30.2730 H   0  0  0  0  0  0  0  0  0  0  0  0
   36.8190   27.7780   34.5110 C   0  0  0  0  0  0  0  0  0  0  0  0
   36.9320   28.7190   35.0860 H   0  0  0  0  0  0  0  0  0  0  0  0
   35.8730   27.3200   34.8710 H   0  0  0  0  0  0  0  0  0  0  0  0
   37.9740   26.8560   34.7640 C   0  0  0  0  0  0  0  0  0  0  0  0
   39.2710   27.1590   34.4080 C   0  0  0  0  0  0  0  0  0  0  0  0
   39.4720   28.1050   33.9230 H   0  0  0  0  0  0  0  0  0  0  0  0
   40.2420   26.2160   34.7000 C   0  0  0  0  0  3  0  0  0  0  0  0
   39.9390   25.0110   35.3250 C   0  0  0  0  0  0  0  0  0  0  0  0
   40.8810   24.1050   35.6050 N   0  0  0  0  0  0  0  0  0  0  0  0
   40.5370   22.9520   36.2120 C   0  0  0  0  0  0  0  0  0  0  0  0
   41.2580   22.1740   36.4660 H   0  0  0  0  0  0  0  0  0  0  0  0
   39.2270   22.6360   36.5770 C   0  0  0  0  0  3  0  0  0  0  0  0
   38.2490   23.5430   36.3020 C   0  0  0  0  0  3  0  0  0  0  0  0
   38.6220   24.7200   35.6790 C   0  0  0  0  0  0  0  0  0  0  0  0
   37.6670   25.6470   35.3920 C   0  0  0  0  0  3  0  0  0  0  0  0
   35.1440   31.6570   31.0770 C   0  0  0  0  0  0  0  0  0  0  0  0
   34.4210   31.0480   31.6550 H   0  0  0  0  0  0  0  0  0  0  0  0
   34.6170   31.9770   30.1540 H   0  0  0  0  0  0  0  0  0  0  0  0
   35.4760   32.8470   31.7660 O   0  0  0  0  0  0  0  0  0  0  0  0
   36.8450   33.2280   35.0790 C   0  0  0  0  0  0  0  0  0  0  0  0
   35.9060   32.4790   35.8320 C   0  0  0  0  0  0  0  0  0  0  0  0
   34.8570   31.8910   35.1300 C   0  0  0  0  0  0  0  0  0  0  0  0
   34.8390   32.0980   33.7770 N   0  0  0  0  0  0  0  0  0  0  0  0
   35.7330   32.8040   33.0930 C   0  0  0  0  0  0  0  0  0  0  0  0
   36.7520   33.3780   33.7610 N   0  0  0  0  0  0  0  0  0  0  0  0
   37.6280   33.6520   35.6870 H   0  0  0  0  0  0  0  0  0  0  0  0
   35.9440   32.3340   36.8910 H   0  0  0  0  0  0  0  0  0  0  0  0
   33.4660   32.3290   37.6290 F   0  0  0  0  0  0  0  0  0  0  0  0
   33.1530   31.2790   36.8810 C   0  0  0  0  0  0  0  0  0  0  0  0
   33.8130   31.0980   35.7240 C   0  0  0  0  0  0  0  0  0  0  0  0
   33.4070   29.9630   35.0120 C   0  0  0  0  0  0  0  0  0  0  0  0
   32.4270   29.1250   35.4640 C   0  0  0  0  0  0  0  0  0  0  0  0
   31.7810   29.3570   36.6580 C   0  0  0  0  0  0  0  0  0  0  0  0
   32.1630   30.4540   37.3600 C   0  0  0  0  0  0  0  0  0  0  0  0
   33.8540   29.6940   34.0610 H   0  0  0  0  0  0  0  0  0  0  0  0
   32.1130   28.2380   34.9000 H   0  0  0  0  0  0  0  0  0  0  0  0
   31.0100   28.6850   36.9970 H   0  0  0  0  0  0  0  0  0  0  0  0
   31.6660   30.6530   38.3010 H   0  0  0  0  0  0  0  0  0  0  0  0
  1  2  1  0  0  0  0
  1 27  1  0  0  0  0
  1  4  1  0  0  0  0
  3  1  1  0  0  0  0
  4  9  1  0  0  0  0
  5  6  1  0  0  0  0
  5  4  2  0  0  0  0
  6  7  2  0  0  0  0
  7  8  1  0  0  0  0
  8 12  1  0  0  0  0
  9  8  2  0  0  0  0
 10  5  1  0  0  0  0
 11  6  1  0  0  0  0
 12 15  1  0  0  0  0
 12 14  1  0  0  0  0
 12 13  1  0  0  0  0
 15 26  1  0  0  0  0
 16 18  1  0  0  0  0
 16 15  2  0  0  0  0
 17 16  1  0  0  0  0
 18 19  2  0  0  0  0
 19 20  1  0  0  0  0
 19 25  1  0  0  0  0
 20 21  2  0  0  0  0
 21 22  1  0  0  0  0
 21 23  1  0  0  0  0
 24 23  2  0  0  0  0
 25 24  1  0  0  0  0
 26 25  2  0  0  0  0
 27 28  1  0  0  0  0
 27 30  1  0  0  0  0
 29 27  1  0  0  0  0
 30 35  1  0  0  0  0
 31 37  1  0  0  0  0
 31 32  1  0  0  0  0
 32 38  1  0  0  0  0
 33 41  1  0  0  0  0
 33 32  2  0  0  0  0
 34 33  1  0  0  0  0
 35 36  1  0  0  0  0
 35 34  2  0  0  0  0
 36 31  2  0  0  0  0
 40 45  1  0  0  0  0
 40 39  1  0  0  0  0
 41 40  2  0  0  0  0
 42 43  2  0  0  0  0
 42 41  1  0  0  0  0
 43 44  1  0  0  0  0
 44 48  1  0  0  0  0
 44 45  2  0  0  0  0
 45 49  1  0  0  0  0
 46 42  1  0  0  0  0
 47 43  1  0  0  0  0
M  END
>  <minimizedAffinity>
-6.45939445

$$$$

 OpenBabel03272509593D

 49 53  0  0  0  0  0  0  0  0999 V2000
   37.6510   26.0220   35.3350 C   0  0  0  0  0  0  0  0  0  0  0  0
   37.4770   26.7910   36.0860 H   0  0  0  0  0  0  0  0  0  0  0  0
   37.0040   25.1610   35.6140 H   0  0  0  0  0  0  0  0  0  0  0  0
   37.1670   26.4860   34.0050 C   0  0  0  0  0  0  0  0  0  0  0  0
   37.2000   25.5750   32.9660 C   0  0  0  0  0  0  0  0  0  0  0  0
   36.7740   25.9050   31.6950 C   0  0  0  0  0  0  0  0  0  0  0  0
   36.3180   27.1370   31.4650 N   0  0  0  0  0  0  0  0  0  0  0  0
   36.2890   28.0230   32.4920 C   0  0  0  0  0  0  0  0  0  0  0  0
   36.7000   27.7190   33.7350 N   0  0  0  0  0  0  0  0  0  0  0  0
   37.5610   24.5660   33.1050 H   0  0  0  0  0  0  0  0  0  0  0  0
   36.7960   25.1930   30.8640 H   0  0  0  0  0  0  0  0  0  0  0  0
   35.7780   29.3910   32.2090 C   0  0  0  0  0  0  0  0  0  0  0  0
   36.6000   30.1130   32.0300 H   0  0  0  0  0  0  0  0  0  0  0  0
   35.2190   29.3290   31.2520 H   0  0  0  0  0  0  0  0  0  0  0  0
   34.8780   29.8690   33.3090 C   0  0  0  0  0  0  0  0  0  0  0  0
   33.5540   29.5010   33.4140 C   0  0  0  0  0  0  0  0  0  0  0  0
   33.1370   28.8340   32.6700 H   0  0  0  0  0  0  0  0  0  0  0  0
   32.8370   30.0170   34.4790 C   0  0  0  0  0  3  0  0  0  0  0  0
   33.4120   30.8720   35.4130 C   0  0  0  0  0  0  0  0  0  0  0  0
   32.7150   31.3670   36.4410 N   0  0  0  0  0  0  0  0  0  0  0  0
   33.3190   32.1920   37.3190 C   0  0  0  0  0  0  0  0  0  0  0  0
   32.8050   32.6280   38.1770 H   0  0  0  0  0  0  0  0  0  0  0  0
   34.6590   32.5710   37.2240 C   0  0  0  0  0  3  0  0  0  0  0  0
   35.3900   32.0800   36.1850 C   0  0  0  0  0  3  0  0  0  0  0  0
   34.7540   31.2350   35.2940 C   0  0  0  0  0  0  0  0  0  0  0  0
   35.4590   30.7270   34.2460 C   0  0  0  0  0  3  0  0  0  0  0  0
   39.0960   25.6450   35.3310 C   0  0  0  0  0  0  0  0  0  0  0  0
   39.7360   26.3690   35.8740 H   0  0  0  0  0  0  0  0  0  0  0  0
   39.4490   25.6430   34.2780 H   0  0  0  0  0  0  0  0  0  0  0  0
   39.2950   24.3290   35.8090 O   0  0  0  0  0  0  0  0  0  0  0  0
   40.8730   21.8190   33.7580 C   0  0  0  0  0  0  0  0  0  0  0  0
   39.7450   21.2990   33.0760 C   0  0  0  0  0  0  0  0  0  0  0  0
   38.5070   21.8600   33.3800 C   0  0  0  0  0  0  0  0  0  0  0  0
   38.5070   22.8620   34.3120 N   0  0  0  0  0  0  0  0  0  0  0  0
   39.5800   23.3350   34.9360 C   0  0  0  0  0  0  0  0  0  0  0  0
   40.7830   22.7990   34.6510 N   0  0  0  0  0  0  0  0  0  0  0  0
   41.7950   21.3380   33.4710 H   0  0  0  0  0  0  0  0  0  0  0  0
   39.7740   20.5110   32.3520 H   0  0  0  0  0  0  0  0  0  0  0  0
   37.4380   22.5580   30.7830 F   0  0  0  0  0  0  0  0  0  0  0  0
   36.7380   21.7700   31.5890 C   0  0  0  0  0  0  0  0  0  0  0  0
   37.2570   21.4600   32.7900 C   0  0  0  0  0  0  0  0  0  0  0  0
   36.4400   20.6240   33.5610 C   0  0  0  0  0  0  0  0  0  0  0  0
   35.2280   20.1720   33.1190 C   0  0  0  0  0  0  0  0  0  0  0  0
   34.7430   20.5190   31.8790 C   0  0  0  0  0  0  0  0  0  0  0  0
   35.5240   21.3290   31.1190 C   0  0  0  0  0  0  0  0  0  0  0  0
   36.7320   20.2930   34.5510 H   0  0  0  0  0  0  0  0  0  0  0  0
   34.5940   19.5160   33.7290 H   0  0  0  0  0  0  0  0  0  0  0  0
   33.7860   20.1520   31.5490 H   0  0  0  0  0  0  0  0  0  0  0  0
   35.1580   21.6140   30.1400 H   0  0  0  0  0  0  0  0  0  0  0  0
  1  3  1  0  0  0  0
  1  2  1  0  0  0  0
  4  1  1  0  0  0  0
  5 10  1  0  0  0  0
  5  4  2  0  0  0  0
  6  5  1  0  0  0  0
  7  6  2  0  0  0  0
  7  8  1  0  0  0  0
  8  9  2  0  0  0  0
  9  4  1  0  0  0  0
 11  6  1  0  0  0  0
 12  8  1  0  0  0  0
 12 15  1  0  0  0  0
 13 12  1  0  0  0  0
 14 12  1  0  0  0  0
 15 16  2  0  0  0  0
 15 26  1  0  0  0  0
 16 18  1  0  0  0  0
 17 16  1  0  0  0  0
 18 19  2  0  0  0  0
 19 20  1  0  0  0  0
 20 21  2  0  0  0  0
 21 22  1  0  0  0  0
 23 21  1  0  0  0  0
 24 23  2  0  0  0  0
 25 19  1  0  0  0  0
 25 24  1  0  0  0  0
 26 25  2  0  0  0  0
 27  1  1  0  0  0  0
 27 30  1  0  0  0  0
 27 28  1  0  0  0  0
 29 27  1  0  0  0  0
 31 36  1  0  0  0  0
 32 33  1  0  0  0  0
 32 31  2  0  0  0  0
 33 34  2  0  0  0  0
 34 35  1  0  0  0  0
 35 30  1  0  0  0  0
 36 35  2  0  0  0  0
 37 31  1  0  0  0  0
 38 32  1  0  0  0  0
 39 40  1  0  0  0  0
 40 41  1  0  0  0  0
 41 33  1  0  0  0  0
 41 42  2  0  0  0  0
 42 46  1  0  0  0  0
 43 42  1  0  0  0  0
 43 47  1  0  0  0  0
 44 43  2  0  0  0  0
 45 40  2  0  0  0  0
 45 44  1  0  0  0  0
 48 44  1  0  0  0  0
 49 45  1  0  0  0  0
M  END
>  <minimizedAffinity>
-6.44823027

$$$$

 OpenBabel03272509593D

 49 53  0  0  0  0  0  0  0  0999 V2000
   43.7540   23.9560   35.3790 C   0  0  0  0  0  0  0  0  0  0  0  0
   44.6650   23.4120   35.6230 H   0  0  0  0  0  0  0  0  0  0  0  0
   43.6550   23.9200   34.2710 H   0  0  0  0  0  0  0  0  0  0  0  0
   42.5670   23.2380   35.9220 C   0  0  0  0  0  0  0  0  0  0  0  0
   42.7930   22.0310   36.5560 C   0  0  0  0  0  0  0  0  0  0  0  0
   41.7610   21.2870   37.0930 C   0  0  0  0  0  0  0  0  0  0  0  0
   40.5130   21.7480   36.9980 N   0  0  0  0  0  0  0  0  0  0  0  0
   40.3030   22.9350   36.3740 C   0  0  0  0  0  0  0  0  0  0  0  0
   41.2950   23.6710   35.8450 N   0  0  0  0  0  0  0  0  0  0  0  0
   43.7860   21.6190   36.6570 H   0  0  0  0  0  0  0  0  0  0  0  0
   41.9280   20.3300   37.5970 H   0  0  0  0  0  0  0  0  0  0  0  0
   38.9020   23.4260   36.2800 C   0  0  0  0  0  0  0  0  0  0  0  0
   38.2820   23.0780   37.1310 H   0  0  0  0  0  0  0  0  0  0  0  0
   38.9460   24.5310   36.3730 H   0  0  0  0  0  0  0  0  0  0  0  0
   38.2800   23.0360   34.9730 C   0  0  0  0  0  0  0  0  0  0  0  0
   38.5530   23.6820   33.7860 C   0  0  0  0  0  0  0  0  0  0  0  0
   39.2500   24.5100   33.7910 H   0  0  0  0  0  0  0  0  0  0  0  0
   37.9080   23.2200   32.6520 C   0  0  0  0  0  3  0  0  0  0  0  0
   37.0190   22.1510   32.6910 C   0  0  0  0  0  0  0  0  0  0  0  0
   36.3980   21.7080   31.5930 N   0  0  0  0  0  0  0  0  0  0  0  0
   35.5450   20.6690   31.6830 C   0  0  0  0  0  0  0  0  0  0  0  0
   35.0090   20.2620   30.8250 H   0  0  0  0  0  0  0  0  0  0  0  0
   35.2610   20.0070   32.8790 C   0  0  0  0  0  3  0  0  0  0  0  0
   35.8810   20.4400   34.0120 C   0  0  0  0  0  3  0  0  0  0  0  0
   36.7530   21.5070   33.9000 C   0  0  0  0  0  0  0  0  0  0  0  0
   37.3880   21.9630   35.0150 C   0  0  0  0  0  3  0  0  0  0  0  0
   43.8620   25.3610   35.8740 C   0  0  0  0  0  0  0  0  0  0  0  0
   44.4870   25.4540   36.7850 H   0  0  0  0  0  0  0  0  0  0  0  0
   42.8460   25.7070   36.1560 H   0  0  0  0  0  0  0  0  0  0  0  0
   44.3040   26.2420   34.8590 O   0  0  0  0  0  0  0  0  0  0  0  0
   42.9170   26.8820   31.5940 C   0  0  0  0  0  0  0  0  0  0  0  0
   41.5480   27.0380   31.9230 C   0  0  0  0  0  0  0  0  0  0  0  0
   41.2010   26.9080   33.2660 C   0  0  0  0  0  0  0  0  0  0  0  0
   42.2240   26.6420   34.1350 N   0  0  0  0  0  0  0  0  0  0  0  0
   43.5020   26.5010   33.8010 C   0  0  0  0  0  0  0  0  0  0  0  0
   43.8500   26.6240   32.5060 N   0  0  0  0  0  0  0  0  0  0  0  0
   43.1110   26.9960   30.5390 H   0  0  0  0  0  0  0  0  0  0  0  0
   40.7670   27.2450   31.2210 H   0  0  0  0  0  0  0  0  0  0  0  0
   38.7280   27.2530   31.8030 F   0  0  0  0  0  0  0  0  0  0  0  0
   38.7020   27.1950   33.1280 C   0  0  0  0  0  0  0  0  0  0  0  0
   39.8640   27.0340   33.7840 C   0  0  0  0  0  0  0  0  0  0  0  0
   39.7260   26.9840   35.1770 C   0  0  0  0  0  0  0  0  0  0  0  0
   38.5130   27.0900   35.7980 C   0  0  0  0  0  0  0  0  0  0  0  0
   37.3510   27.2540   35.0770 C   0  0  0  0  0  0  0  0  0  0  0  0
   37.4690   27.3040   33.7260 C   0  0  0  0  0  0  0  0  0  0  0  0
   40.5800   26.8570   35.8320 H   0  0  0  0  0  0  0  0  0  0  0  0
   38.4130   27.0500   36.8900 H   0  0  0  0  0  0  0  0  0  0  0  0
   36.4050   27.3350   35.5850 H   0  0  0  0  0  0  0  0  0  0  0  0
   36.5660   27.4320   33.1430 H   0  0  0  0  0  0  0  0  0  0  0  0
  1  2  1  0  0  0  0
  1 27  1  0  0  0  0
  1  4  1  0  0  0  0
  3  1  1  0  0  0  0
  4  5  1  0  0  0  0
  5 10  1  0  0  0  0
  5  6  2  0  0  0  0
  6 11  1  0  0  0  0
  7  6  1  0  0  0  0
  8  7  2  0  0  0  0
  9  4  2  0  0  0  0
  9  8  1  0  0  0  0
 12 14  1  0  0  0  0
 12  8  1  0  0  0  0
 12 13  1  0  0  0  0
 15 26  1  0  0  0  0
 15 12  1  0  0  0  0
 16 17  1  0  0  0  0
 16 15  2  0  0  0  0
 18 19  2  0  0  0  0
 18 16  1  0  0  0  0
 19 25  1  0  0  0  0
 20 21  2  0  0  0  0
 20 19  1  0  0  0  0
 21 23  1  0  0  0  0
 22 21  1  0  0  0  0
 23 24  2  0  0  0  0
 25 24  1  0  0  0  0
 25 26  2  0  0  0  0
 27 29  1  0  0  0  0
 27 28  1  0  0  0  0
 30 27  1  0  0  0  0
 31 32  2  0  0  0  0
 31 36  1  0  0  0  0
 32 33  1  0  0  0  0
 33 41  1  0  0  0  0
 33 34  2  0  0  0  0
 35 34  1  0  0  0  0
 35 30  1  0  0  0  0
 36 35  2  0  0  0  0
 37 31  1  0  0  0  0
 38 32  1  0  0  0  0
 39 40  1  0  0  0  0
 40 45  2  0  0  0  0
 40 41  1  0  0  0  0
 41 42  2  0  0  0  0
 42 43  1  0  0  0  0
 42 46  1  0  0  0  0
 43 47  1  0  0  0  0
 44 48  1  0  0  0  0
 44 43  2  0  0  0  0
 45 44  1  0  0  0  0
 49 45  1  0  0  0  0
M  END
>  <minimizedAffinity>
-6.41647387

$$$$

 OpenBabel03272509593D

 49 53  0  0  0  0  0  0  0  0999 V2000
   43.2200   22.9230   36.6010 C   0  0  0  0  0  0  0  0  0  0  0  0
   44.1570   22.3910   36.4410 H   0  0  0  0  0  0  0  0  0  0  0  0
   43.2880   23.3790   37.6130 H   0  0  0  0  0  0  0  0  0  0  0  0
   43.1060   24.0590   35.6440 C   0  0  0  0  0  0  0  0  0  0  0  0
   44.0830   25.0340   35.7010 C   0  0  0  0  0  0  0  0  0  0  0  0
   44.0690   26.1280   34.8590 C   0  0  0  0  0  0  0  0  0  0  0  0
   43.0860   26.2460   33.9660 N   0  0  0  0  0  0  0  0  0  0  0  0
   42.1320   25.2810   33.9190 C   0  0  0  0  0  0  0  0  0  0  0  0
   42.1290   24.2110   34.7310 N   0  0  0  0  0  0  0  0  0  0  0  0
   44.8990   24.9820   36.4070 H   0  0  0  0  0  0  0  0  0  0  0  0
   44.8380   26.9080   34.8940 H   0  0  0  0  0  0  0  0  0  0  0  0
   41.0440   25.4360   32.9150 C   0  0  0  0  0  0  0  0  0  0  0  0
   41.4000   25.9350   31.9910 H   0  0  0  0  0  0  0  0  0  0  0  0
   40.7490   24.4110   32.6070 H   0  0  0  0  0  0  0  0  0  0  0  0
   39.8710   26.1650   33.4970 C   0  0  0  0  0  0  0  0  0  0  0  0
   39.6410   26.2610   34.8530 C   0  0  0  0  0  0  0  0  0  0  0  0
   40.3370   25.7910   35.5360 H   0  0  0  0  0  0  0  0  0  0  0  0
   38.5180   26.9640   35.2550 C   0  0  0  0  0  3  0  0  0  0  0  0
   37.6490   27.5540   34.3430 C   0  0  0  0  0  0  0  0  0  0  0  0
   36.5660   28.2320   34.7360 N   0  0  0  0  0  0  0  0  0  0  0  0
   35.7540   28.7840   33.8130 C   0  0  0  0  0  0  0  0  0  0  0  0
   34.8570   29.3480   34.0700 H   0  0  0  0  0  0  0  0  0  0  0  0
   35.9780   28.6930   32.4380 C   0  0  0  0  0  3  0  0  0  0  0  0
   37.0750   28.0070   32.0120 C   0  0  0  0  0  3  0  0  0  0  0  0
   37.8950   27.4470   32.9740 C   0  0  0  0  0  0  0  0  0  0  0  0
   39.0000   26.7550   32.5790 C   0  0  0  0  0  3  0  0  0  0  0  0
   42.0790   21.9640   36.5050 C   0  0  0  0  0  0  0  0  0  0  0  0
   42.4020   20.9220   36.3100 H   0  0  0  0  0  0  0  0  0  0  0  0
   41.4480   22.2630   35.6410 H   0  0  0  0  0  0  0  0  0  0  0  0
   41.2380   22.0340   37.6400 O   0  0  0  0  0  0  0  0  0  0  0  0
   38.0810   23.7010   38.1360 C   0  0  0  0  0  0  0  0  0  0  0  0
   37.4550   23.4400   36.8920 C   0  0  0  0  0  0  0  0  0  0  0  0
   38.1800   22.6990   35.9620 C   0  0  0  0  0  0  0  0  0  0  0  0
   39.4290   22.2960   36.3470 N   0  0  0  0  0  0  0  0  0  0  0  0
   39.9940   22.5530   37.5220 C   0  0  0  0  0  0  0  0  0  0  0  0
   39.3030   23.2690   38.4290 N   0  0  0  0  0  0  0  0  0  0  0  0
   37.4610   24.2780   38.8040 H   0  0  0  0  0  0  0  0  0  0  0  0
   36.4740   23.7690   36.6160 H   0  0  0  0  0  0  0  0  0  0  0  0
   36.0990   20.8170   35.2530 F   0  0  0  0  0  0  0  0  0  0  0  0
   36.7460   21.4700   34.2950 C   0  0  0  0  0  0  0  0  0  0  0  0
   37.7070   22.3390   34.6510 C   0  0  0  0  0  0  0  0  0  0  0  0
   38.3250   22.9740   33.5670 C   0  0  0  0  0  0  0  0  0  0  0  0
   37.9720   22.7230   32.2710 C   0  0  0  0  0  0  0  0  0  0  0  0
   36.9780   21.8220   31.9610 C   0  0  0  0  0  0  0  0  0  0  0  0
   36.3690   21.1980   33.0020 C   0  0  0  0  0  0  0  0  0  0  0  0
   39.1180   23.7000   33.7050 H   0  0  0  0  0  0  0  0  0  0  0  0
   38.4610   23.2250   31.4270 H   0  0  0  0  0  0  0  0  0  0  0  0
   36.7140   21.6390   30.9340 H   0  0  0  0  0  0  0  0  0  0  0  0
   35.5850   20.4860   32.7770 H   0  0  0  0  0  0  0  0  0  0  0  0
  1  3  1  0  0  0  0
  2  1  1  0  0  0  0
  4  5  1  0  0  0  0
  4  1  1  0  0  0  0
  5 10  1  0  0  0  0
  6 11  1  0  0  0  0
  6  5  2  0  0  0  0
  7  6  1  0  0  0  0
  8  7  2  0  0  0  0
  8  9  1  0  0  0  0
  9  4  2  0  0  0  0
 12 15  1  0  0  0  0
 12  8  1  0  0  0  0
 13 12  1  0  0  0  0
 14 12  1  0  0  0  0
 15 16  1  0  0  0  0
 16 18  2  0  0  0  0
 16 17  1  0  0  0  0
 19 20  1  0  0  0  0
 19 18  1  0  0  0  0
 21 22  1  0  0  0  0
 21 20  2  0  0  0  0
 23 21  1  0  0  0  0
 24 23  2  0  0  0  0
 24 25  1  0  0  0  0
 25 19  2  0  0  0  0
 26 25  1  0  0  0  0
 26 15  2  0  0  0  0
 27  1  1  0  0  0  0
 27 30  1  0  0  0  0
 28 27  1  0  0  0  0
 29 27  1  0  0  0  0
 31 36  1  0  0  0  0
 31 37  1  0  0  0  0
 32 31  2  0  0  0  0
 33 34  2  0  0  0  0
 33 32  1  0  0  0  0
 34 35  1  0  0  0  0
 35 30  1  0  0  0  0
 35 36  2  0  0  0  0
 38 32  1  0  0  0  0
 40 41  1  0  0  0  0
 40 39  1  0  0  0  0
 41 33  1  0  0  0  0
 42 46  1  0  0  0  0
 42 41  2  0  0  0  0
 43 42  1  0  0  0  0
 44 43  2  0  0  0  0
 44 45  1  0  0  0  0
 45 40  2  0  0  0  0
 47 43  1  0  0  0  0
 48 44  1  0  0  0  0
 49 45  1  0  0  0  0
M  END
>  <minimizedAffinity>
-6.37944126

$$$$
