
 OpenBabel03272508553D

 41 45  0  0  1  0  0  0  0  0999 V2000
   39.0830   31.5330   43.3820 C   0  0  0  0  0  0  0  0  0  0  0  0
   40.0620   30.5850   43.5090 C   0  0  0  0  0  0  0  0  0  0  0  0
   40.7900   30.2260   42.3820 C   0  0  0  0  0  0  0  0  0  0  0  0
   40.4840   30.8470   41.2110 C   0  0  0  0  0  0  0  0  0  0  0  0
   39.5000   31.8090   41.0670 C   0  0  0  0  0  0  0  0  0  0  0  0
   38.8400   32.1000   42.2020 N   0  0  0  0  0  0  0  0  0  0  0  0
   40.3330   30.0680   44.4280 H   0  0  0  0  0  0  0  0  0  0  0  0
   41.5730   29.4750   42.4520 H   0  0  0  0  0  0  0  0  0  0  0  0
   41.0560   30.5600   40.3410 H   0  0  0  0  0  0  0  0  0  0  0  0
   39.1690   32.4760   39.8160 C   0  0  0  0  0  0  0  0  0  0  0  0
   38.3230   33.5590   39.7490 C   0  0  0  0  0  0  0  0  0  0  0  0
   37.8630   33.9630   40.6390 H   0  0  0  0  0  0  0  0  0  0  0  0
   37.9890   34.2130   38.5830 C   0  0  0  0  0  3  0  0  0  0  0  0
   38.5680   33.7160   37.4110 C   0  0  0  0  0  0  0  0  0  0  0  0
   38.3210   34.2700   36.2000 N   0  0  0  0  0  0  0  0  0  0  0  0
   38.8630   33.8110   35.0620 C   0  0  0  0  0  0  0  0  0  0  0  0
   38.5960   34.3350   34.1350 H   0  0  0  0  0  0  0  0  0  0  0  0
   39.7270   32.7200   35.0660 C   0  0  0  0  0  3  0  0  0  0  0  0
   40.0020   32.1280   36.2830 C   0  0  0  0  0  3  0  0  0  0  0  0
   39.4280   32.6230   37.4340 C   0  0  0  0  0  0  0  0  0  0  0  0
   39.7270   32.0050   38.6470 C   0  0  0  0  0  3  0  0  0  0  0  0
   38.3110   31.8950   44.5790 C   0  0  0  0  0  0  0  0  0  0  0  0
   37.1340   32.3570   44.4850 O   0  0  0  0  0  0  0  0  0  0  0  0
   38.9170   31.7140   45.8690 N   0  0  0  0  0  0  0  0  0  0  0  0
   39.9280   31.4920   46.0110 H   0  0  0  0  0  0  0  0  0  0  0  0
   38.4380   31.1820   48.2560 C   0  0  2  0  0  0  0  0  0  0  0  0
   38.7340   32.6210   48.2020 C   0  0  0  0  0  0  0  0  0  0  0  0
   38.0620   31.8490   47.0370 C   0  0  1  0  0  0  0  0  0  0  0  0
   39.3710   30.5540   48.3020 H   0  0  0  0  0  0  0  0  0  0  0  0
   39.7500   32.9780   48.0350 H   0  0  0  0  0  0  0  0  0  0  0  0
   38.0540   33.2730   48.8040 H   0  0  0  0  0  0  0  0  0  0  0  0
   36.9990   32.1290   46.8620 H   0  0  0  0  0  0  0  0  0  0  0  0
   35.1270   30.1970   49.5530 C   0  0  0  0  0  0  0  0  0  0  0  0
   35.4600   29.5380   50.7800 C   0  0  0  0  0  0  0  0  0  0  0  0
   36.8620   29.4610   51.1300 C   0  0  0  0  0  0  0  0  0  0  0  0
   37.7870   30.0060   50.2970 N   0  0  0  0  0  0  0  0  0  0  0  0
   37.3860   30.6190   49.1440 C   0  0  0  0  0  0  0  0  0  0  0  0
   36.0690   30.7310   48.7430 N   0  0  0  0  0  0  0  0  0  0  0  0
   34.0940   30.2620   49.2800 H   0  0  0  0  0  0  0  0  0  0  0  0
   34.6990   29.1230   51.4050 H   0  0  0  0  0  0  0  0  0  0  0  0
   37.1030   28.9690   52.0430 H   0  0  0  0  0  0  0  0  0  0  0  0
  1  2  1  0  0  0  0
  1 22  1  0  0  0  0
  2  7  1  0  0  0  0
  3  8  1  0  0  0  0
  3  2  2  0  0  0  0
  4  3  1  0  0  0  0
  5  4  2  0  0  0  0
  5  6  1  0  0  0  0
  6  1  2  0  0  0  0
  9  4  1  0  0  0  0
 10  5  1  0  0  0  0
 11 10  1  0  0  0  0
 11 12  1  0  0  0  0
 13 11  2  0  0  0  0
 14 20  1  0  0  0  0
 14 13  1  0  0  0  0
 15 14  2  0  0  0  0
 16 18  2  0  0  0  0
 16 15  1  0  0  0  0
 17 16  1  0  0  0  0
 18 19  1  0  0  0  0
 19 20  2  0  0  0  0
 20 21  1  0  0  0  0
 21 10  2  0  0  0  0
 22 24  1  0  0  0  0
 23 22  2  0  0  0  0
 24 25  1  0  0  0  0
 24 28  1  0  0  0  0
 26 29  1  6  0  0  0
 26 37  1  0  0  0  0
 27 26  1  0  0  0  0
 27 31  1  0  0  0  0
 28 32  1  6  0  0  0
 28 27  1  0  0  0  0
 28 26  1  0  0  0  0
 30 27  1  0  0  0  0
 33 34  1  0  0  0  0
 34 35  2  0  0  0  0
 34 40  1  0  0  0  0
 35 41  1  0  0  0  0
 36 35  1  0  0  0  0
 37 36  2  0  0  0  0
 38 37  1  0  0  0  0
 38 33  2  0  0  0  0
 39 33  1  0  0  0  0
M  END
>  <minimizedAffinity>
-5.32170677

>  <minimizedRMSD>
0.714946151

$$$$
