
     RDKit          3D

 38 41  0  0  0  0  0  0  0  0999 V2000
   38.4696   30.7960   49.8426 Cl  0  0  0  0  0  0  0  0  0  0  0  0
   37.0946   30.3465   48.8911 C   0  0  0  0  0  0  0  0  0  0  0  0
   37.1019   30.6206   47.5381 C   0  0  0  0  0  0  0  0  0  0  0  0
   36.0372   30.2911   46.7344 C   0  0  0  0  0  0  0  0  0  0  0  0
   34.9277   29.6748   47.2598 C   0  0  0  0  0  0  0  0  0  0  0  0
   34.8915   29.3873   48.6146 C   0  0  0  0  0  0  0  0  0  0  0  0
   33.5207   28.6173   49.3903 Cl  0  0  0  0  0  0  0  0  0  0  0  0
   35.9958   29.7392   49.3981 C   0  0  0  0  0  0  0  0  0  0  0  0
   39.5933   33.1683   46.6508 C   0  0  0  0  0  0  0  0  0  0  0  0
   40.4579   32.4774   45.7881 C   0  0  0  0  0  0  0  0  0  0  0  0
   40.1574   31.1186   45.5270 C   0  0  0  0  0  0  0  0  0  0  0  0
   39.0626   30.5840   46.1244 N   0  0  0  0  0  0  0  0  0  0  0  0
   38.2529   31.2713   46.9463 C   0  0  0  0  0  0  0  0  0  0  0  0
   38.5417   32.5630   47.1927 N   0  0  0  0  0  0  0  0  0  0  0  0
   35.9442   29.4545   50.8538 C   0  0  0  0  0  0  0  0  0  0  0  0
   35.9834   30.4796   45.6695 H   0  0  0  0  0  0  0  0  0  0  0  0
   34.0582   29.3886   46.6881 H   0  0  0  0  0  0  0  0  0  0  0  0
   39.8787   34.2019   46.8091 H   0  0  0  0  0  0  0  0  0  0  0  0
   41.3396   32.8504   45.2863 H   0  0  0  0  0  0  0  0  0  0  0  0
   40.7154   30.4456   44.8909 H   0  0  0  0  0  0  0  0  0  0  0  0
   36.2323   30.4274   51.3454 H   0  0  0  0  0  0  0  0  0  0  0  0
   34.8549   29.3532   51.1484 H   0  0  0  0  0  0  0  0  0  0  0  0
   36.7508   28.3340   51.3250 C   0  0  0  0  0  0  0  0  0  0  0  0
   36.8168   27.1437   50.6320 C   0  0  0  0  0  0  0  0  0  0  0  0
   36.2994   26.9684   49.7002 H   0  0  0  0  0  0  0  0  0  0  0  0
   37.5375   26.0311   51.0209 C   0  0  0  0  0  0  0  0  0  0  0  0
   38.2631   26.0768   52.1925 C   0  0  0  0  0  0  0  0  0  0  0  0
   38.9796   25.0202   52.6115 N   0  0  0  0  0  0  0  0  0  0  0  0
   39.6937   25.0457   53.7513 C   0  0  0  0  0  0  0  0  0  0  0  0
   40.2670   24.1872   54.0773 H   0  0  0  0  0  0  0  0  0  0  0  0
   39.7052   26.1877   54.5346 C   0  0  0  0  0  0  0  0  0  0  0  0
   38.9699   27.2734   54.1057 C   0  0  0  0  0  0  0  0  0  0  0  0
   38.2441   27.2354   52.9387 C   0  0  0  0  0  0  0  0  0  0  0  0
   37.5038   28.2918   52.4821 C   0  0  0  0  0  0  0  0  0  0  0  0
   37.5892   25.1089   50.4849 H   0  0  0  0  0  0  0  0  0  0  0  0
   40.2569   26.2839   55.4659 H   0  0  0  0  0  0  0  0  0  0  0  0
   38.9706   28.1657   54.7050 H   0  0  0  0  0  0  0  0  0  0  0  0
   37.5330   29.1529   53.1346 H   0  0  0  0  0  0  0  0  0  0  0  0
  2  8  2  0
  2  1  1  0
  3  2  1  0
  4  5  1  0
  4  3  2  0
  5  6  2  0
  6  8  1  0
  6  7  1  0
  8 15  1  0
  9 14  2  0
 10  9  1  0
 11 10  2  0
 11 12  1  0
 12 13  2  0
 13 14  1  0
 13  3  1  0
  4 16  1  0
  5 17  1  0
  9 18  1  0
 10 19  1  0
 11 20  1  0
 15 21  1  0
 15 22  1  0
 23 24  2  0
 24 25  1  0
 24 26  1  0
 26 27  2  0
 27 28  1  0
 28 29  2  0
 29 30  1  0
 29 31  1  0
 31 32  2  0
 32 33  1  0
 33 34  2  0
 34 23  1  0
 33 27  1  0
 26 35  1  0
 31 36  1  0
 32 37  1  0
 34 38  1  0
 15 23  1  0
M  ISO  8  16  14  17  14  18  14  19  14  20  14  21   8  22   8  25  16
M  ISO  1  30  16
M  END
>  <DihAtoms>  (1) 
7,14,22,23

>  <DihDeg>  (1) 
-72.22609225663366

$$$$
