REMARK  Name = 
REMARK  3 active torsions:
REMARK  status: ('A' for Active; 'I' for Inactive)
REMARK    1  A    between atoms: C_5  and  C_7
REMARK    2  A    between atoms: C_9  and  S_10
REMARK    3  A    between atoms: S_10  and  C_18
REMARK                            x       y       z     vdW  Elec       q    Type
REMARK                         _______ _______ _______ _____ _____    ______ ____
ROOT
ATOM      1  C   UNL     1      35.919  30.151  48.637  0.00  0.00    +0.000 C 
ATOM      2  C   UNL     1      34.956  30.075  49.733  0.00  0.00    +0.000 C 
ATOM      3  C   UNL     1      36.077  29.076  49.661  0.00  0.00    +0.000 C 
ATOM      4  H   UNL     1      35.567  29.841  47.613  0.00  0.00    +0.000 HD
ATOM      5  H   UNL     1      33.933  29.720  49.567  0.00  0.00    +0.000 HD
ATOM      6  H   UNL     1      35.033  30.866  50.529  0.00  0.00    +0.000 HD
ATOM      7  H   UNL     1      35.823  28.046  49.314  0.00  0.00    +0.000 HD
ENDROOT
BRANCH   1  12
ATOM      8  C   UNL     1      38.002  33.148  49.410  0.00  0.00    +0.000 A 
ATOM      9  C   UNL     1      38.994  33.061  48.427  0.00  0.00    +0.000 A 
ATOM     10  C   UNL     1      38.939  31.981  47.514  0.00  0.00    +0.000 A 
ATOM     11  N   UNL     1      37.941  31.069  47.610  0.00  0.00    +0.000 NA
ATOM     12  C   UNL     1      36.994  31.186  48.580  0.00  0.00    +0.000 A 
ATOM     13  N   UNL     1      37.012  32.208  49.475  0.00  0.00    +0.000 NA
ATOM     14  H   UNL     1      38.026  33.965  50.116  0.00  0.00    +0.000 HD
ATOM     15  H   UNL     1      39.792  33.768  48.331  0.00  0.00    +0.000 HD
ATOM     16  H   UNL     1      39.695  31.885  46.740  0.00  0.00    +0.000 HD
ENDBRANCH   1  12
BRANCH   3  17
ATOM     17  S   UNL     1      37.465  29.255  50.822  0.00  0.00    +0.000 S 
BRANCH  17  18
ATOM     18  C   UNL     1      37.505  27.899  51.964  0.00  0.00    +0.000 A 
ATOM     19  C   UNL     1      38.685  27.238  52.283  0.00  0.00    +0.000 A 
ATOM     20  H   UNL     1      39.586  27.603  51.788  0.00  0.00    +0.000 HD
ATOM     21  C   UNL     1      38.691  26.187  53.173  0.00  0.00    +0.000 A 
ATOM     22  C   UNL     1      37.506  25.781  53.760  0.00  0.00    +0.000 A 
ATOM     23  N   UNL     1      37.534  24.756  54.624  0.00  0.00    +0.000 NA
ATOM     24  C   UNL     1      36.414  24.316  55.227  0.00  0.00    +0.000 A 
ATOM     25  H   UNL     1      36.537  23.488  55.904  0.00  0.00    +0.000 HD
ATOM     26  C   UNL     1      35.219  24.945  54.939  0.00  0.00    +0.000 A 
ATOM     27  C   UNL     1      35.154  26.003  54.055  0.00  0.00    +0.000 A 
ATOM     28  C   UNL     1      36.314  26.441  53.445  0.00  0.00    +0.000 A 
ATOM     29  C   UNL     1      36.329  27.486  52.556  0.00  0.00    +0.000 A 
ENDBRANCH  17  18
ENDBRANCH   3  17
TORSDOF 3
