
 OpenBabel03272507553D

 26 28  0  0  0  0  0  0  0  0999 V2000
   34.9410   28.9240   50.2190 C   0  0  0  0  0  0  0  0  0  0  0  0
   36.0690   29.7240   49.8990 C   0  0  0  0  0  0  0  0  0  0  0  0
   36.0950   30.3920   48.6860 C   0  0  0  0  0  0  0  0  0  0  0  0
   35.0070   30.2390   47.8460 N   0  0  0  0  0  0  0  0  0  0  0  0
   33.9530   29.4760   48.1760 C   0  0  0  0  0  0  0  0  0  0  0  0
   33.9160   28.8300   49.3380 N   0  0  0  0  0  0  0  0  0  0  0  0
   32.9310   29.4460   47.2000 N   0  0  0  0  0  0  0  0  0  0  0  0
   34.9640   28.4240   51.1710 H   0  0  0  0  0  0  0  0  0  0  0  0
   32.3900   28.5580   46.9860 H   0  0  0  0  0  0  0  0  0  0  0  0
   32.6370   30.2580   46.6330 H   0  0  0  0  0  0  0  0  0  0  0  0
   37.1590   31.2080   48.1460 C   0  0  0  0  0  0  0  0  0  0  0  0
   37.8070   32.3680   48.4670 C   0  0  0  0  0  0  0  0  0  0  0  0
   37.4050   32.8750   49.3100 H   0  0  0  0  0  0  0  0  0  0  0  0
   38.8630   32.8770   47.7540 C   0  0  0  0  0  3  0  0  0  0  0  0
   39.3650   32.2530   46.6340 C   0  0  0  0  0  0  0  0  0  0  0  0
   40.3870   32.8390   46.0250 N   0  0  0  0  0  0  0  0  0  0  0  0
   40.9240   32.2660   44.9110 C   0  0  0  0  0  0  0  0  0  0  0  0
   41.7600   32.6630   44.3400 H   0  0  0  0  0  0  0  0  0  0  0  0
   40.3440   31.0840   44.4920 C   0  0  0  0  0  3  0  0  0  0  0  0
   39.2740   30.4800   45.1380 C   0  0  0  0  0  3  0  0  0  0  0  0
   38.7470   31.0800   46.2630 C   0  0  0  0  0  0  0  0  0  0  0  0
   37.6840   30.5860   47.0010 C   0  0  0  0  0  3  0  0  0  0  0  0
   37.1930   29.8030   50.8690 C   0  0  0  0  0  0  0  0  0  0  0  0
   38.4160   29.5370   50.2710 F   0  0  0  0  0  0  0  0  0  0  0  0
   37.2160   31.0510   51.4110 F   0  0  0  0  0  0  0  0  0  0  0  0
   37.0490   28.8900   51.9060 F   0  0  0  0  0  0  0  0  0  0  0  0
  1  8  1  0  0  0  0
  2  1  1  0  0  0  0
  2 23  1  0  0  0  0
  3  2  2  0  0  0  0
  4  5  2  0  0  0  0
  4  3  1  0  0  0  0
  5  6  1  0  0  0  0
  6  1  2  0  0  0  0
  7  5  1  0  0  0  0
  9  7  1  0  0  0  0
 10  7  1  0  0  0  0
 11 12  1  0  0  0  0
 11  3  1  0  0  0  0
 12 13  1  0  0  0  0
 14 12  2  0  0  0  0
 15 14  1  0  0  0  0
 16 15  2  0  0  0  0
 17 16  1  0  0  0  0
 18 17  1  0  0  0  0
 19 17  2  0  0  0  0
 19 20  1  0  0  0  0
 20 21  2  0  0  0  0
 21 15  1  0  0  0  0
 21 22  1  0  0  0  0
 22 11  2  0  0  0  0
 23 25  1  0  0  0  0
 23 26  1  0  0  0  0
 24 23  1  0  0  0  0
M  END
>  <minimizedAffinity>
-7.1183176

>  <minimizedRMSD>
1.26080716

$$$$
