
 OpenBabel03262521193D

 32 34  0  0  0  0  0  0  0  0999 V2000
   38.9030   31.9370   46.2320 C   0  0  0  0  0  0  0  0  0  0  0  0
   40.1550   31.3630   46.0690 C   0  0  0  0  0  0  0  0  0  0  0  0
   40.7350   31.2850   44.7890 C   0  0  0  0  0  0  0  0  0  0  0  0
   39.9960   31.8010   43.7620 N   0  0  0  0  0  0  0  0  0  0  0  0
   38.7640   32.3610   43.9600 C   0  0  0  0  0  0  0  0  0  0  0  0
   38.2370   32.4230   45.1720 N   0  0  0  0  0  0  0  0  0  0  0  0
   40.7820   30.9390   46.8510 H   0  0  0  0  0  0  0  0  0  0  0  0
   41.7070   30.8490   44.6060 H   0  0  0  0  0  0  0  0  0  0  0  0
   38.0510   32.8850   42.7960 C   0  0  0  0  0  0  0  0  0  0  0  0
   38.7150   33.4320   41.7370 C   0  0  0  0  0  0  0  0  0  0  0  0
   39.8000   33.4530   41.8100 H   0  0  0  0  0  0  0  0  0  0  0  0
   38.1440   33.9480   40.6040 C   0  0  0  0  0  0  0  0  0  0  0  0
   36.7660   33.8960   40.5610 C   0  0  0  0  0  0  0  0  0  0  0  0
   36.1500   34.3980   39.4550 N   0  0  0  0  0  0  0  0  0  0  0  0
   34.8170   34.3790   39.3480 C   0  0  0  0  0  0  0  0  0  0  0  0
   34.4080   34.7950   38.4420 H   0  0  0  0  0  0  0  0  0  0  0  0
   34.0060   33.8520   40.3510 C   0  0  0  0  0  0  0  0  0  0  0  0
   34.6650   33.3540   41.4550 C   0  0  0  0  0  0  0  0  0  0  0  0
   36.0360   33.3570   41.5980 C   0  0  0  0  0  0  0  0  0  0  0  0
   36.6770   32.8490   42.7190 C   0  0  0  0  0  0  0  0  0  0  0  0
   38.5030   31.9220   47.5490 O   0  0  0  0  0  0  0  0  0  0  0  0
   37.3110   31.3000   47.8440 C   0  0  0  0  0  0  0  0  0  0  0  0
   36.7480   30.9000   46.9740 H   0  0  0  0  0  0  0  0  0  0  0  0
   36.6330   32.0940   48.2710 H   0  0  0  0  0  0  0  0  0  0  0  0
   37.7670   30.4030   48.7430 C   0  0  0  0  0  0  0  0  0  0  0  0
   38.6430   29.7840   48.4170 H   0  0  0  0  0  0  0  0  0  0  0  0
   37.0000   29.5810   48.8940 H   0  0  0  0  0  0  0  0  0  0  0  0
   38.1210   30.9070   50.1050 C   0  0  0  0  0  0  0  0  0  0  0  0
   39.2240   30.9850   50.2700 H   0  0  0  0  0  0  0  0  0  0  0  0
   37.7700   31.9740   50.1640 H   0  0  0  0  0  0  0  0  0  0  0  0
   37.2860   30.0110   51.4140 S   0  0  0  0  0  0  0  0  0  0  0  0
   35.8930   30.1010   51.1620 H   0  0  0  0  0  0  0  0  0  0  0  0
  1 21  1  0  0  0  0
  2  1  1  0  0  0  0
  2  7  1  0  0  0  0
  3  2  2  0  0  0  0
  4  5  2  0  0  0  0
  4  3  1  0  0  0  0
  5  6  1  0  0  0  0
  6  1  2  0  0  0  0
  8  3  1  0  0  0  0
  9  5  1  0  0  0  0
 10 11  1  0  0  0  0
 10  9  2  0  0  0  0
 12 10  1  0  0  0  0
 13 12  2  0  0  0  0
 13 19  1  0  0  0  0
 14 13  1  0  0  0  0
 15 14  2  0  0  0  0
 15 17  1  0  0  0  0
 16 15  1  0  0  0  0
 17 18  2  0  0  0  0
 18 19  1  0  0  0  0
 19 20  2  0  0  0  0
 20  9  1  0  0  0  0
 21 22  1  0  0  0  0
 22 24  1  0  0  0  0
 22 25  1  0  0  0  0
 23 22  1  0  0  0  0
 25 27  1  0  0  0  0
 25 28  1  0  0  0  0
 26 25  1  0  0  0  0
 28 30  1  0  0  0  0
 28 29  1  0  0  0  0
 28 31  1  0  0  0  0
 32 31  1  0  0  0  0
M  END
>  <minimizedAffinity>
-4.71257496

>  <minimizedRMSD>
1.58326364

$$$$
