
     RDKit          3D

 48 52  0  0  0  0  0  0  0  0999 V2000
   39.4797   32.6840   46.2078 C   0  0  0  0  0  0  0  0  0  0  0  0
   40.4283   31.8313   45.6539 C   0  0  0  0  0  0  0  0  0  0  0  0
   40.0282   30.5638   45.2658 C   0  0  0  0  0  0  0  0  0  0  0  0
   38.7328   30.2014   45.4399 N   0  0  0  0  0  0  0  0  0  0  0  0
   37.8365   30.9952   45.9595 C   0  0  0  0  0  0  0  0  0  0  0  0
   38.2719   32.1772   46.3050 N   0  0  0  0  0  0  0  0  0  0  0  0
   36.4991   30.5816   46.1168 N   0  0  0  0  0  0  0  0  0  0  0  0
   35.6720   30.1432   44.9868 C   0  0  0  0  0  0  0  0  0  0  0  0
   34.4077   29.7000   45.5865 C   0  0  0  0  0  0  0  0  0  0  0  0
   34.7285   29.5175   47.0711 C   0  0  0  0  0  0  0  0  0  0  0  0
   35.6994   30.5604   47.3507 C   0  0  1  0  0  0  0  0  0  0  0  0
   36.2979   29.4901   49.5576 C   0  0  0  0  0  0  0  0  0  0  0  0
   36.4069   30.5042   48.5962 C   0  0  0  0  0  0  0  0  0  0  0  0
   37.3844   31.4251   48.9458 C   0  0  0  0  0  0  0  0  0  0  0  0
   38.1717   31.3783   50.0771 C   0  0  0  0  0  0  0  0  0  0  0  0
   37.9791   30.3120   50.9756 C   0  0  0  0  0  0  0  0  0  0  0  0
   37.0250   29.3337   50.7325 C   0  0  0  0  0  0  0  0  0  0  0  0
   34.4364   27.7357   49.2545 N   0  0  0  0  0  0  0  0  0  0  0  0
   35.2505   28.5075   49.3768 C   0  0  0  0  0  0  0  0  0  0  0  0
   39.7206   33.6728   46.5272 H   0  0  0  0  0  0  0  0  0  0  0  0
   41.4579   32.1479   45.5274 H   0  0  0  0  0  0  0  0  0  0  0  0
   40.7929   29.9173   44.8340 H   0  0  0  0  0  0  0  0  0  0  0  0
   35.5290   31.0409   44.3502 H   0  0  0  0  0  0  0  0  0  0  0  0
   36.2010   29.3960   44.3659 H   0  0  0  0  0  0  0  0  0  0  0  0
   33.6223   30.4879   45.4191 H   0  0  0  0  0  0  0  0  0  0  0  0
   34.0062   28.8033   45.1035 H   0  0  0  0  0  0  0  0  0  0  0  0
   35.2605   28.5624   46.9350 H   0  0  0  0  0  0  0  0  0  0  0  0
   33.7434   29.5899   47.4714 H   0  0  0  0  0  0  0  0  0  0  0  0
   35.2870   31.6141   47.2639 H   0  0  0  0  0  0  0  0  0  0  0  0
   37.6395   32.3389   48.4724 H   0  0  0  0  0  0  0  0  0  0  0  0
   38.9354   32.0253   50.4186 H   0  0  0  0  0  0  0  0  0  0  0  0
   38.5481   30.1795   51.9013 H   0  0  0  0  0  0  0  0  0  0  0  0
   36.8347   28.2390   51.6647 C   0  0  0  0  0  0  0  0  0  0  0  0
   35.4778   27.9897   51.9016 C   0  0  0  0  0  0  0  0  0  0  0  0
   34.6428   28.5301   51.4575 H   0  0  0  0  0  0  0  0  0  0  0  0
   35.0657   26.9893   52.7599 C   0  0  0  0  0  0  0  0  0  0  0  0
   36.0246   26.2251   53.3921 C   0  0  0  0  0  0  0  0  0  0  0  0
   35.6591   25.2365   54.2395 N   0  0  0  0  0  0  0  0  0  0  0  0
   36.5639   24.4687   54.8758 C   0  0  0  0  0  0  0  0  0  0  0  0
   36.1335   23.7297   55.5121 H   0  0  0  0  0  0  0  0  0  0  0  0
   37.9202   24.7162   54.6404 C   0  0  0  0  0  0  0  0  0  0  0  0
   38.3073   25.7303   53.7710 C   0  0  0  0  0  0  0  0  0  0  0  0
   37.3525   26.4976   53.1360 C   0  0  0  0  0  0  0  0  0  0  0  0
   37.7914   27.4899   52.2842 C   0  0  0  0  0  0  0  0  0  0  0  0
   34.0292   26.7636   52.9710 H   0  0  0  0  0  0  0  0  0  0  0  0
   38.5868   24.0751   55.1732 H   0  0  0  0  0  0  0  0  0  0  0  0
   39.3524   25.8967   53.6102 H   0  0  0  0  0  0  0  0  0  0  0  0
   38.7990   27.7352   52.0583 H   0  0  0  0  0  0  0  0  0  0  0  0
  1  6  2  0
  2  1  1  0
  3  4  1  0
  3  2  2  0
  4  5  2  0
  5  7  1  0
  5  6  1  0
  7 11  1  0
  8  9  1  0
  8  7  1  0
  9 10  1  0
 10 11  1  0
 11 13  1  0
 12 17  2  0
 13 14  2  0
 13 12  1  0
 14 15  1  0
 15 16  2  0
 17 16  1  0
 18 19  3  0
 19 12  1  0
  1 20  1  0
  2 21  1  0
  3 22  1  0
  8 23  1  0
  8 24  1  0
  9 25  1  0
  9 26  1  0
 10 27  1  0
 10 28  1  0
 11 29  1  1
 14 30  1  0
 15 31  1  0
 16 32  1  0
 33 34  2  0
 34 35  1  0
 34 36  1  0
 36 37  2  0
 37 38  1  0
 38 39  2  0
 39 40  1  0
 39 41  1  0
 41 42  2  0
 42 43  1  0
 43 44  2  0
 44 33  1  0
 43 37  1  0
 36 45  1  0
 41 46  1  0
 42 47  1  0
 44 48  1  0
 17 33  1  0
M  ISO  8  20  14  21  14  22  14  23  13  24  13  25  13  26  13  27  13
M  ISO  7  28  13  29  13  30  14  31  14  32  14  35  16  40  16
M  END
>  <DihAtoms>  (1) 
11,16,32,33

>  <DihDeg>  (1) 
-134.30550056999522

$$$$
