
 OpenBabel03272505313D

 43 47  0  0  0  0  0  0  0  0999 V2000
   37.4080   31.0590   47.1340 N   0  0  0  0  0  0  0  0  0  0  0  0
   36.8470   30.6830   45.9530 C   0  0  0  0  0  0  0  0  0  0  0  0
   37.3230   31.1350   44.7380 C   0  0  0  0  0  0  0  0  0  0  0  0
   38.4210   32.0090   44.7700 C   0  0  0  0  0  0  0  0  0  0  0  0
   38.8940   32.4520   43.6890 O   0  0  0  0  0  0  0  0  0  0  0  0
   38.9830   32.3840   45.9580 N   0  0  0  0  0  0  0  0  0  0  0  0
   38.4320   31.8790   47.0520 C   0  0  0  0  0  0  0  0  0  0  0  0
   38.9720   32.2440   48.1230 O   0  0  0  0  0  0  0  0  0  0  0  0
   36.0050   30.0120   45.9450 H   0  0  0  0  0  0  0  0  0  0  0  0
   37.2410   29.4850   50.5020 C   0  0  0  0  0  0  0  0  0  0  0  0
   37.7250   29.9620   49.2770 C   0  0  0  0  0  0  0  0  0  0  0  0
   36.9100   30.5870   48.3550 C   0  0  0  0  0  0  0  0  0  0  0  0
   35.6210   30.7170   48.6860 N   0  0  0  0  0  0  0  0  0  0  0  0
   35.1080   30.2690   49.8640 C   0  0  0  0  0  0  0  0  0  0  0  0
   35.9310   29.6550   50.7610 N   0  0  0  0  0  0  0  0  0  0  0  0
   37.8800   28.9960   51.2240 H   0  0  0  0  0  0  0  0  0  0  0  0
   38.7660   29.8110   49.1050 H   0  0  0  0  0  0  0  0  0  0  0  0
   34.0610   30.3840   50.1140 H   0  0  0  0  0  0  0  0  0  0  0  0
   36.7670   30.7700   43.4430 C   0  0  0  0  0  0  0  0  0  0  0  0
   37.1760   29.6780   42.7330 C   0  0  0  0  0  0  0  0  0  0  0  0
   36.6650   29.3100   41.5050 C   0  0  0  0  0  0  0  0  0  0  0  0
   35.6600   30.1100   40.9480 C   0  0  0  0  0  0  0  0  0  0  0  0
   35.2760   31.2050   41.6990 C   0  0  0  0  0  0  0  0  0  0  0  0
   35.8120   31.5000   42.8780 N   0  0  0  0  0  0  0  0  0  0  0  0
   37.9490   29.0280   43.1210 H   0  0  0  0  0  0  0  0  0  0  0  0
   36.9990   28.4390   40.9500 H   0  0  0  0  0  0  0  0  0  0  0  0
   35.2460   29.8520   40.0020 H   0  0  0  0  0  0  0  0  0  0  0  0
   34.2350   32.1000   41.2050 C   0  0  0  0  0  0  0  0  0  0  0  0
   33.2750   31.6280   40.3230 C   0  0  0  0  0  0  0  0  0  0  0  0
   33.3060   30.5820   40.0050 H   0  0  0  0  0  0  0  0  0  0  0  0
   32.2380   32.3590   39.7790 C   0  0  0  0  0  3  0  0  0  0  0  0
   32.1460   33.6870   40.1440 C   0  0  0  0  0  0  0  0  0  0  0  0
   31.1650   34.4670   39.6570 N   0  0  0  0  0  0  0  0  0  0  0  0
   31.0470   35.7700   39.9950 C   0  0  0  0  0  0  0  0  0  0  0  0
   30.2530   36.3910   39.5970 H   0  0  0  0  0  0  0  0  0  0  0  0
   31.9960   36.2830   40.8810 C   0  0  0  0  0  3  0  0  0  0  0  0
   33.0280   35.5300   41.4160 C   0  0  0  0  0  3  0  0  0  0  0  0
   33.0770   34.2090   41.0200 C   0  0  0  0  0  0  0  0  0  0  0  0
   34.0960   33.4320   41.5360 C   0  0  0  0  0  3  0  0  0  0  0  0
   40.1080   33.2800   45.9770 C   0  0  0  0  0  0  0  0  0  0  0  0
   39.9700   34.2470   45.0470 F   0  0  0  0  0  0  0  0  0  0  0  0
   41.3210   32.6530   45.6900 F   0  0  0  0  0  0  0  0  0  0  0  0
   40.1850   33.8850   47.2260 F   0  0  0  0  0  0  0  0  0  0  0  0
  1 12  1  0  0  0  0
  2  1  1  0  0  0  0
  3  4  1  0  0  0  0
  3  2  2  0  0  0  0
  4  6  1  0  0  0  0
  5  4  2  0  0  0  0
  6 40  1  0  0  0  0
  6  7  1  0  0  0  0
  7  1  1  0  0  0  0
  7  8  2  0  0  0  0
  9  2  1  0  0  0  0
 10 15  1  0  0  0  0
 10 16  1  0  0  0  0
 11 10  2  0  0  0  0
 12 13  2  0  0  0  0
 12 11  1  0  0  0  0
 13 14  1  0  0  0  0
 14 18  1  0  0  0  0
 14 15  2  0  0  0  0
 17 11  1  0  0  0  0
 19  3  1  0  0  0  0
 20 25  1  0  0  0  0
 20 19  2  0  0  0  0
 21 20  1  0  0  0  0
 22 21  2  0  0  0  0
 22 23  1  0  0  0  0
 23 24  2  0  0  0  0
 24 19  1  0  0  0  0
 26 21  1  0  0  0  0
 27 22  1  0  0  0  0
 28 39  1  0  0  0  0
 28 23  1  0  0  0  0
 29 28  2  0  0  0  0
 30 29  1  0  0  0  0
 31 32  2  0  0  0  0
 31 29  1  0  0  0  0
 32 38  1  0  0  0  0
 33 34  2  0  0  0  0
 33 32  1  0  0  0  0
 34 36  1  0  0  0  0
 35 34  1  0  0  0  0
 36 37  2  0  0  0  0
 38 37  1  0  0  0  0
 38 39  2  0  0  0  0
 40 43  1  0  0  0  0
 41 40  1  0  0  0  0
 42 40  1  0  0  0  0
M  END
>  <minimizedAffinity>
-6.75588799

>  <minimizedRMSD>
0.232999861

$$$$
