
     RDKit          3D

 38 41  0  0  0  0  0  0  0  0999 V2000
   38.4696   30.7960   49.8426 Cl  0  0  0  0  0  0  0  0  0  0  0  0
   37.0946   30.3465   48.8911 C   0  0  0  0  0  0  0  0  0  0  0  0
   37.1019   30.6206   47.5381 C   0  0  0  0  0  0  0  0  0  0  0  0
   36.0372   30.2911   46.7344 C   0  0  0  0  0  0  0  0  0  0  0  0
   34.9277   29.6748   47.2598 C   0  0  0  0  0  0  0  0  0  0  0  0
   34.8915   29.3873   48.6146 C   0  0  0  0  0  0  0  0  0  0  0  0
   33.5207   28.6173   49.3903 Cl  0  0  0  0  0  0  0  0  0  0  0  0
   35.9958   29.7392   49.3981 C   0  0  0  0  0  0  0  0  0  0  0  0
   39.5933   33.1683   46.6508 C   0  0  0  0  0  0  0  0  0  0  0  0
   40.4579   32.4774   45.7881 C   0  0  0  0  0  0  0  0  0  0  0  0
   40.1574   31.1186   45.5270 C   0  0  0  0  0  0  0  0  0  0  0  0
   39.0626   30.5840   46.1244 N   0  0  0  0  0  0  0  0  0  0  0  0
   38.2529   31.2713   46.9463 C   0  0  0  0  0  0  0  0  0  0  0  0
   38.5417   32.5630   47.1927 N   0  0  0  0  0  0  0  0  0  0  0  0
   35.9442   29.4545   50.8538 C   0  0  0  0  0  0  0  0  0  0  0  0
   35.9834   30.4796   45.6695 H   0  0  0  0  0  0  0  0  0  0  0  0
   34.0582   29.3886   46.6881 H   0  0  0  0  0  0  0  0  0  0  0  0
   39.8787   34.2019   46.8091 H   0  0  0  0  0  0  0  0  0  0  0  0
   41.3396   32.8504   45.2863 H   0  0  0  0  0  0  0  0  0  0  0  0
   40.7154   30.4456   44.8909 H   0  0  0  0  0  0  0  0  0  0  0  0
   36.2323   30.4274   51.3454 H   0  0  0  0  0  0  0  0  0  0  0  0
   34.8549   29.3532   51.1484 H   0  0  0  0  0  0  0  0  0  0  0  0
   36.7508   28.3340   51.3250 C   0  0  0  0  0  0  0  0  0  0  0  0
   36.5268   27.7413   52.5497 C   0  0  0  0  0  0  0  0  0  0  0  0
   35.7414   28.0488   53.2246 H   0  0  0  0  0  0  0  0  0  0  0  0
   37.2573   26.6938   53.0767 C   0  0  0  0  0  0  0  0  0  0  0  0
   38.3040   26.1713   52.3470 C   0  0  0  0  0  0  0  0  0  0  0  0
   39.0428   25.1524   52.8175 N   0  0  0  0  0  0  0  0  0  0  0  0
   40.0677   24.6292   52.1207 C   0  0  0  0  0  0  0  0  0  0  0  0
   40.6549   23.8079   52.5114 H   0  0  0  0  0  0  0  0  0  0  0  0
   40.3900   25.1418   50.8752 C   0  0  0  0  0  0  0  0  0  0  0  0
   39.6324   26.1881   50.3908 C   0  0  0  0  0  0  0  0  0  0  0  0
   38.5872   26.7143   51.1123 C   0  0  0  0  0  0  0  0  0  0  0  0
   37.8143   27.7509   50.6643 C   0  0  0  0  0  0  0  0  0  0  0  0
   37.0846   26.2343   54.0250 H   0  0  0  0  0  0  0  0  0  0  0  0
   41.2018   24.7724   50.2542 H   0  0  0  0  0  0  0  0  0  0  0  0
   39.8728   26.5948   49.4252 H   0  0  0  0  0  0  0  0  0  0  0  0
   38.1143   28.1252   49.6958 H   0  0  0  0  0  0  0  0  0  0  0  0
  2  8  2  0
  2  1  1  0
  3  2  1  0
  4  5  1  0
  4  3  2  0
  5  6  2  0
  6  8  1  0
  6  7  1  0
  8 15  1  0
  9 14  2  0
 10  9  1  0
 11 10  2  0
 11 12  1  0
 12 13  2  0
 13 14  1  0
 13  3  1  0
  4 16  1  0
  5 17  1  0
  9 18  1  0
 10 19  1  0
 11 20  1  0
 15 21  1  0
 15 22  1  0
 23 24  2  0
 24 25  1  0
 24 26  1  0
 26 27  2  0
 27 28  1  0
 28 29  2  0
 29 30  1  0
 29 31  1  0
 31 32  2  0
 32 33  1  0
 33 34  2  0
 34 23  1  0
 33 27  1  0
 26 35  1  0
 31 36  1  0
 32 37  1  0
 34 38  1  0
 15 23  1  0
M  ISO  8  16  14  17  14  18  14  19  14  20  14  21   8  22   8  25  16
M  ISO  1  30  16
M  END
>  <DihAtoms>  (1) 
7,14,22,23

>  <DihDeg>  (1) 
-72.22609225663366

$$$$
