
 OpenBabel03272505313D

 43 47  0  0  0  0  0  0  0  0999 V2000
   37.3430   31.1630   47.0940 N   0  0  0  0  0  0  0  0  0  0  0  0
   36.6910   30.9460   45.9190 C   0  0  0  0  0  0  0  0  0  0  0  0
   37.1340   31.4770   44.7250 C   0  0  0  0  0  0  0  0  0  0  0  0
   38.2970   32.2610   44.7690 C   0  0  0  0  0  0  0  0  0  0  0  0
   38.7450   32.7710   43.7070 O   0  0  0  0  0  0  0  0  0  0  0  0
   38.9510   32.4770   45.9510 N   0  0  0  0  0  0  0  0  0  0  0  0
   38.4220   31.9100   47.0250 C   0  0  0  0  0  0  0  0  0  0  0  0
   39.0460   32.1290   48.0900 O   0  0  0  0  0  0  0  0  0  0  0  0
   35.7980   30.3420   45.9010 H   0  0  0  0  0  0  0  0  0  0  0  0
   37.2660   29.4020   50.3710 C   0  0  0  0  0  0  0  0  0  0  0  0
   37.7200   29.9580   49.1670 C   0  0  0  0  0  0  0  0  0  0  0  0
   36.8750   30.6130   48.2930 C   0  0  0  0  0  0  0  0  0  0  0  0
   35.5890   30.6950   48.6510 N   0  0  0  0  0  0  0  0  0  0  0  0
   35.1060   30.1710   49.8110 C   0  0  0  0  0  0  0  0  0  0  0  0
   35.9570   29.5270   50.6600 N   0  0  0  0  0  0  0  0  0  0  0  0
   37.9280   28.8890   51.0550 H   0  0  0  0  0  0  0  0  0  0  0  0
   38.7600   29.8410   48.9710 H   0  0  0  0  0  0  0  0  0  0  0  0
   34.0610   30.2480   50.0830 H   0  0  0  0  0  0  0  0  0  0  0  0
   36.4810   31.2800   43.4380 C   0  0  0  0  0  0  0  0  0  0  0  0
   36.6300   30.1490   42.6880 C   0  0  0  0  0  0  0  0  0  0  0  0
   36.0230   29.9390   41.4670 C   0  0  0  0  0  0  0  0  0  0  0  0
   35.2000   30.9520   40.9610 C   0  0  0  0  0  0  0  0  0  0  0  0
   35.0770   32.0790   41.7520 C   0  0  0  0  0  0  0  0  0  0  0  0
   35.6920   32.2160   42.9210 N   0  0  0  0  0  0  0  0  0  0  0  0
   37.2550   29.3380   43.0350 H   0  0  0  0  0  0  0  0  0  0  0  0
   36.1490   29.0340   40.8790 H   0  0  0  0  0  0  0  0  0  0  0  0
   34.7170   30.8190   40.0220 H   0  0  0  0  0  0  0  0  0  0  0  0
   34.2400   33.1920   41.3130 C   0  0  0  0  0  0  0  0  0  0  0  0
   34.6830   34.0370   40.3070 C   0  0  0  0  0  0  0  0  0  0  0  0
   35.6610   33.8620   39.8500 H   0  0  0  0  0  0  0  0  0  0  0  0
   34.0010   35.1220   39.7950 C   0  0  0  0  0  3  0  0  0  0  0  0
   32.7600   35.3940   40.3350 C   0  0  0  0  0  0  0  0  0  0  0  0
   32.0310   36.4350   39.8910 N   0  0  0  0  0  0  0  0  0  0  0  0
   30.8130   36.7280   40.3970 C   0  0  0  0  0  0  0  0  0  0  0  0
   30.2340   37.5690   40.0330 H   0  0  0  0  0  0  0  0  0  0  0  0
   30.3330   35.8990   41.4130 C   0  0  0  0  0  3  0  0  0  0  0  0
   31.0360   34.8150   41.9110 C   0  0  0  0  0  3  0  0  0  0  0  0
   32.2710   34.5840   41.3390 C   0  0  0  0  0  0  0  0  0  0  0  0
   32.9950   33.5100   41.8150 C   0  0  0  0  0  3  0  0  0  0  0  0
   40.1430   33.2820   45.9830 C   0  0  0  0  0  0  0  0  0  0  0  0
   40.0950   34.2510   45.0460 F   0  0  0  0  0  0  0  0  0  0  0  0
   41.3070   32.5600   45.7190 F   0  0  0  0  0  0  0  0  0  0  0  0
   40.2470   33.8870   47.2300 F   0  0  0  0  0  0  0  0  0  0  0  0
  1 12  1  0  0  0  0
  2  1  1  0  0  0  0
  3  4  1  0  0  0  0
  3  2  2  0  0  0  0
  4  6  1  0  0  0  0
  5  4  2  0  0  0  0
  6 40  1  0  0  0  0
  6  7  1  0  0  0  0
  7  1  1  0  0  0  0
  7  8  2  0  0  0  0
  9  2  1  0  0  0  0
 10 15  1  0  0  0  0
 10 16  1  0  0  0  0
 11 10  2  0  0  0  0
 12 13  2  0  0  0  0
 12 11  1  0  0  0  0
 13 14  1  0  0  0  0
 14 18  1  0  0  0  0
 14 15  2  0  0  0  0
 17 11  1  0  0  0  0
 19  3  1  0  0  0  0
 20 25  1  0  0  0  0
 20 19  2  0  0  0  0
 21 20  1  0  0  0  0
 22 21  2  0  0  0  0
 22 23  1  0  0  0  0
 23 24  2  0  0  0  0
 24 19  1  0  0  0  0
 26 21  1  0  0  0  0
 27 22  1  0  0  0  0
 28 23  1  0  0  0  0
 28 39  1  0  0  0  0
 29 28  2  0  0  0  0
 30 29  1  0  0  0  0
 31 29  1  0  0  0  0
 31 32  2  0  0  0  0
 32 38  1  0  0  0  0
 33 32  1  0  0  0  0
 33 34  2  0  0  0  0
 34 36  1  0  0  0  0
 35 34  1  0  0  0  0
 36 37  2  0  0  0  0
 38 39  2  0  0  0  0
 38 37  1  0  0  0  0
 40 43  1  0  0  0  0
 41 40  1  0  0  0  0
 42 40  1  0  0  0  0
M  END
>  <minimizedAffinity>
-7.138309

>  <minimizedRMSD>
0.808875322

$$$$
