
 OpenBabel03272510023D

 24 26  0  0  0  0  0  0  0  0999 V2000
   38.3180   31.2210   50.3940 C   0  0  0  0  0  0  0  0  0  0  0  0
   38.4810   31.5120   49.0300 C   0  0  0  0  0  0  0  0  0  0  0  0
   37.5040   31.0740   48.1490 C   0  0  0  0  0  0  0  0  0  0  0  0
   36.4500   30.3890   48.6540 N   0  0  0  0  0  0  0  0  0  0  0  0
   36.3190   30.1220   49.9760 C   0  0  0  0  0  0  0  0  0  0  0  0
   37.2480   30.5350   50.8440 N   0  0  0  0  0  0  0  0  0  0  0  0
   39.0900   31.5750   51.0400 H   0  0  0  0  0  0  0  0  0  0  0  0
   39.3300   32.0600   48.6470 H   0  0  0  0  0  0  0  0  0  0  0  0
   37.5390   31.2990   46.7310 C   0  0  0  0  0  0  0  0  0  0  0  0
   38.3850   32.2580   46.2320 C   0  0  0  0  0  0  0  0  0  0  0  0
   39.0240   32.8470   46.8710 H   0  0  0  0  0  0  0  0  0  0  0  0
   38.4970   32.5560   44.8800 C   0  0  0  0  0  3  0  0  0  0  0  0
   37.6960   31.8280   43.9950 C   0  0  0  0  0  0  0  0  0  0  0  0
   37.8250   32.1390   42.6820 N   0  0  0  0  0  0  0  0  0  0  0  0
   37.0500   31.4380   41.8080 C   0  0  0  0  0  0  0  0  0  0  0  0
   37.0310   31.5620   40.7220 H   0  0  0  0  0  0  0  0  0  0  0  0
   36.1730   30.4570   42.2410 C   0  0  0  0  0  3  0  0  0  0  0  0
   36.0510   30.1490   43.5820 C   0  0  0  0  0  3  0  0  0  0  0  0
   36.8410   30.8660   44.4570 C   0  0  0  0  0  0  0  0  0  0  0  0
   36.7750   30.6160   45.8110 C   0  0  0  0  0  3  0  0  0  0  0  0
   35.1220   29.3650   50.3990 C   0  0  0  0  0  0  0  0  0  0  0  0
   35.1430   29.0590   51.7520 F   0  0  0  0  0  0  0  0  0  0  0  0
   33.9520   30.0750   50.1850 F   0  0  0  0  0  0  0  0  0  0  0  0
   34.9750   28.1600   49.7380 F   0  0  0  0  0  0  0  0  0  0  0  0
  1  6  1  0  0  0  0
  1  7  1  0  0  0  0
  2  1  2  0  0  0  0
  3  4  2  0  0  0  0
  3  2  1  0  0  0  0
  4  5  1  0  0  0  0
  5 21  1  0  0  0  0
  5  6  2  0  0  0  0
  8  2  1  0  0  0  0
  9  3  1  0  0  0  0
 10  9  1  0  0  0  0
 10 11  1  0  0  0  0
 12 10  2  0  0  0  0
 13 19  1  0  0  0  0
 13 12  1  0  0  0  0
 14 13  2  0  0  0  0
 15 17  2  0  0  0  0
 15 14  1  0  0  0  0
 16 15  1  0  0  0  0
 17 18  1  0  0  0  0
 18 19  2  0  0  0  0
 19 20  1  0  0  0  0
 20  9  2  0  0  0  0
 21 22  1  0  0  0  0
 23 21  1  0  0  0  0
 24 21  1  0  0  0  0
M  END
>  <minimizedAffinity>
-5.96682739

>  <minimizedRMSD>
0.6216048

$$$$
