
 OpenBabel03272502183D

 36 39  0  0  1  0  0  0  0  0999 V2000
   37.3100   30.4870   49.1450 C   0  0  0  0  0  0  0  0  0  0  0  0
   37.6110   31.6000   49.9580 C   0  0  0  0  0  0  0  0  0  0  0  0
   38.4400   32.5890   49.4390 C   0  0  0  0  0  0  0  0  0  0  0  0
   38.9120   32.4100   48.1640 N   0  0  0  0  0  0  0  0  0  0  0  0
   38.6120   31.3490   47.4190 C   0  0  0  0  0  0  0  0  0  0  0  0
   37.8160   30.4010   47.9180 N   0  0  0  0  0  0  0  0  0  0  0  0
   37.2480   31.7520   50.9580 H   0  0  0  0  0  0  0  0  0  0  0  0
   38.7110   33.4610   49.9960 H   0  0  0  0  0  0  0  0  0  0  0  0
   39.1540   31.2320   46.0670 C   0  0  0  0  0  0  0  0  0  0  0  0
   39.9520   32.2200   45.5270 C   0  0  0  0  0  0  0  0  0  0  0  0
   40.1790   33.1110   46.1310 H   0  0  0  0  0  0  0  0  0  0  0  0
   40.4900   32.1540   44.2500 C   0  0  0  0  0  0  0  0  0  0  0  0
   40.1880   31.0180   43.5040 C   0  0  0  0  0  0  0  0  0  0  0  0
   40.7060   30.9370   42.2540 N   0  0  0  0  0  0  0  0  0  0  0  0
   40.4800   29.8810   41.4400 C   0  0  0  0  0  0  0  0  0  0  0  0
   40.8930   29.8160   40.4430 H   0  0  0  0  0  0  0  0  0  0  0  0
   39.6850   28.8690   41.9460 C   0  0  0  0  0  0  0  0  0  0  0  0
   39.1410   28.9180   43.2150 C   0  0  0  0  0  0  0  0  0  0  0  0
   39.3810   30.0060   44.0380 C   0  0  0  0  0  0  0  0  0  0  0  0
   38.8600   30.1040   45.3160 C   0  0  0  0  0  0  0  0  0  0  0  0
   36.2410   29.3180   49.9540 S   0  0  0  0  0  0  0  0  0  0  0  0
   33.8120   28.3400   49.2850 N   0  0  0  0  0  0  0  0  0  0  0  0
   34.4850   29.6050   49.4950 C   0  0  2  0  0  0  0  0  0  0  0  0
   34.4450   30.3890   48.2170 C   0  0  0  0  0  0  0  0  0  0  0  0
   33.4670   29.8790   47.3310 O   0  0  0  0  0  0  0  0  0  0  0  0
   33.9650   28.6310   46.9240 C   0  0  0  0  0  0  0  0  0  0  0  0
   34.3440   27.7490   48.0730 C   0  0  2  0  0  0  0  0  0  0  0  0
   34.0430   27.7070   50.0800 H   0  0  0  0  0  0  0  0  0  0  0  0
   33.9900   30.1520   50.3490 H   0  0  0  0  0  0  0  0  0  0  0  0
   34.0670   31.4190   48.4590 H   0  0  0  0  0  0  0  0  0  0  0  0
   35.4360   30.4270   47.7330 H   0  0  0  0  0  0  0  0  0  0  0  0
   33.2460   28.1230   46.2630 H   0  0  0  0  0  0  0  0  0  0  0  0
   34.8870   28.8710   46.3290 H   0  0  0  0  0  0  0  0  0  0  0  0
   35.4590   27.6290   48.1270 H   0  0  0  0  0  0  0  0  0  0  0  0
   33.7630   26.4650   47.9380 O   0  0  0  0  0  0  0  0  0  0  0  0
   34.2200   25.8690   48.5830 H   0  0  0  0  0  0  0  0  0  0  0  0
  1 21  1  0  0  0  0
  1  2  1  0  0  0  0
  2  7  1  0  0  0  0
  3  2  2  0  0  0  0
  3  8  1  0  0  0  0
  4  3  1  0  0  0  0
  5  6  1  0  0  0  0
  5  4  2  0  0  0  0
  6  1  2  0  0  0  0
  9  5  1  0  0  0  0
 10  9  1  0  0  0  0
 10 11  1  0  0  0  0
 12 10  2  0  0  0  0
 13 19  1  0  0  0  0
 13 12  1  0  0  0  0
 14 13  2  0  0  0  0
 15 17  2  0  0  0  0
 15 14  1  0  0  0  0
 16 15  1  0  0  0  0
 17 18  1  0  0  0  0
 18 19  2  0  0  0  0
 19 20  1  0  0  0  0
 20  9  2  0  0  0  0
 22 23  1  0  0  0  0
 22 28  1  0  0  0  0
 23 21  1  0  0  0  0
 23 29  1  1  0  0  0
 24 30  1  0  0  0  0
 24 23  1  0  0  0  0
 25 24  1  0  0  0  0
 26 25  1  0  0  0  0
 26 27  1  0  0  0  0
 27 34  1  1  0  0  0
 27 22  1  0  0  0  0
 31 24  1  0  0  0  0
 32 26  1  0  0  0  0
 33 26  1  0  0  0  0
 35 27  1  0  0  0  0
 35 36  1  0  0  0  0
M  END
>  <minimizedAffinity>
-6.46738625

>  <minimizedRMSD>
1.15032518

$$$$
