
     RDKit          3D

 53 57  0  0  0  0  0  0  0  0999 V2000
   37.3366   30.1753   51.5119 C   0  0  0  0  0  0  0  0  0  0  0  0
   38.0719   30.8676   50.5176 C   0  0  0  0  0  0  0  0  0  0  0  0
   37.7001   30.6550   49.1930 C   0  0  0  0  0  0  0  0  0  0  0  0
   36.6565   29.7944   48.9848 N   0  0  0  0  0  0  0  0  0  0  0  0
   35.9821   29.1566   49.9356 C   0  0  0  0  0  0  0  0  0  0  0  0
   36.3328   29.3543   51.2207 N   0  0  0  0  0  0  0  0  0  0  0  0
   38.9386   33.2645   49.0123 F   0  0  0  0  0  0  0  0  0  0  0  0
   38.9110   32.4765   47.9445 C   0  0  0  0  0  0  0  0  0  0  0  0
   38.3301   31.2698   48.0544 C   0  0  0  0  0  0  0  0  0  0  0  0
   38.3550   30.5195   46.8723 C   0  0  0  0  0  0  0  0  0  0  0  0
   38.9223   30.9858   45.7192 C   0  0  0  0  0  0  0  0  0  0  0  0
   39.5049   32.2317   45.6612 C   0  0  0  0  0  0  0  0  0  0  0  0
   39.4888   32.9708   46.7986 C   0  0  0  0  0  0  0  0  0  0  0  0
   34.9967   28.3656   49.4519 O   0  0  0  0  0  0  0  0  0  0  0  0
   34.4494   28.6315   48.1754 C   0  0  0  0  0  0  0  0  0  0  0  0
   33.5583   27.5240   47.7145 C   0  0  0  0  0  0  0  0  0  0  0  0
   32.1142   27.8893   47.7447 C   0  0  0  0  0  0  0  0  0  0  0  0
   31.3782   27.4708   48.8371 C   0  0  0  0  0  0  0  0  0  0  0  0
   30.0331   27.7572   48.9612 C   0  0  0  0  0  0  0  0  0  0  0  0
   29.4291   28.4569   47.9997 N   0  0  0  0  0  0  0  0  0  0  0  0
   30.1620   28.8625   46.9317 C   0  0  0  0  0  0  0  0  0  0  0  0
   31.4705   28.5931   46.7946 N   0  0  0  0  0  0  0  0  0  0  0  0
   29.4649   29.6413   45.8732 C   0  0  0  0  0  0  0  0  0  0  0  0
   37.6802   30.3886   52.5120 H   0  0  0  0  0  0  0  0  0  0  0  0
   38.8856   31.5364   50.7086 H   0  0  0  0  0  0  0  0  0  0  0  0
   37.9229   29.5272   46.8149 H   0  0  0  0  0  0  0  0  0  0  0  0
   38.9382   30.3925   44.7965 H   0  0  0  0  0  0  0  0  0  0  0  0
   39.9466   32.5813   44.7435 H   0  0  0  0  0  0  0  0  0  0  0  0
   39.9428   33.9542   46.7716 H   0  0  0  0  0  0  0  0  0  0  0  0
   33.9579   29.6244   48.1479 H   0  0  0  0  0  0  0  0  0  0  0  0
   35.3134   28.6896   47.4800 H   0  0  0  0  0  0  0  0  0  0  0  0
   33.7333   26.6378   48.3240 H   0  0  0  0  0  0  0  0  0  0  0  0
   33.7785   27.2297   46.6650 H   0  0  0  0  0  0  0  0  0  0  0  0
   31.8241   26.9021   49.6398 H   0  0  0  0  0  0  0  0  0  0  0  0
   29.4395   27.4315   49.8212 H   0  0  0  0  0  0  0  0  0  0  0  0
   28.6781   30.3011   46.2922 H   0  0  0  0  0  0  0  0  0  0  0  0
   30.2206   30.3216   45.4289 H   0  0  0  0  0  0  0  0  0  0  0  0
   28.8972   28.7354   44.8215 C   0  0  0  0  0  0  0  0  0  0  0  0
   29.6014   27.6836   44.2742 C   0  0  0  0  0  0  0  0  0  0  0  0
   30.6113   27.4969   44.6145 H   0  0  0  0  0  0  0  0  0  0  0  0
   28.9568   26.9264   43.3111 C   0  0  0  0  0  0  0  0  0  0  0  0
   27.6567   27.2010   42.9022 C   0  0  0  0  0  0  0  0  0  0  0  0
   27.0387   26.4662   41.9712 N   0  0  0  0  0  0  0  0  0  0  0  0
   25.7768   26.7732   41.6088 C   0  0  0  0  0  0  0  0  0  0  0  0
   25.2211   26.2125   40.8568 H   0  0  0  0  0  0  0  0  0  0  0  0
   25.0558   27.8353   42.1566 C   0  0  0  0  0  0  0  0  0  0  0  0
   25.6638   28.5991   43.1072 C   0  0  0  0  0  0  0  0  0  0  0  0
   26.9580   28.2686   43.4656 C   0  0  0  0  0  0  0  0  0  0  0  0
   27.5920   29.0138   44.4133 C   0  0  0  0  0  0  0  0  0  0  0  0
   29.4778   26.0973   42.8628 H   0  0  0  0  0  0  0  0  0  0  0  0
   24.0515   28.0719   41.8615 H   0  0  0  0  0  0  0  0  0  0  0  0
   25.1491   29.4426   43.5708 H   0  0  0  0  0  0  0  0  0  0  0  0
   27.0492   29.8555   44.8615 H   0  0  0  0  0  0  0  0  0  0  0  0
  2  1  2  0
  3  2  1  0
  4  3  2  0
  4  5  1  0
  5  6  2  0
  6  1  1  0
  8  9  2  0
  8  7  1  0
  9  3  1  0
 10  9  1  0
 11 10  2  0
 12 11  1  0
 12 13  2  0
 13  8  1  0
 14  5  1  0
 15 14  1  0
 16 17  1  0
 16 15  1  0
 17 18  2  0
 18 19  1  0
 20 19  2  0
 21 20  1  0
 22 21  2  0
 22 17  1  0
 23 21  1  0
  1 24  1  0
  2 25  1  0
 10 26  1  0
 11 27  1  0
 12 28  1  0
 13 29  1  0
 15 30  1  0
 15 31  1  0
 16 32  1  0
 16 33  1  0
 18 34  1  0
 19 35  1  0
 23 36  1  0
 23 37  1  0
 38 39  2  0
 39 40  1  0
 39 41  1  0
 41 42  2  0
 42 43  1  0
 43 44  2  0
 44 45  1  0
 44 46  1  0
 46 47  2  0
 47 48  1  0
 48 49  2  0
 49 38  1  0
 48 42  1  0
 41 50  1  0
 46 51  1  0
 47 52  1  0
 49 53  1  0
 23 38  1  0
M  ISO  8  24  14  25  14  26  14  27  14  28  14  29  14  30   8  31   8
M  ISO  8  32   8  33   8  34  14  35  14  36   8  37   8  40  16  45  16
M  END
>  <DihAtoms>  (1) 
20,22,37,38

>  <DihDeg>  (1) 
89.9991007608347

$$$$
