
 OpenBabel03272501583D

 34 37  0  0  0  0  0  0  0  0999 V2000
   32.9510   27.4830   48.0470 C   0  0  0  0  0  0  0  0  0  0  0  0
   32.3740   26.2750   47.7500 C   0  0  0  0  0  0  0  0  0  0  0  0
   31.0410   26.4490   47.4160 C   0  0  0  0  0  0  0  0  0  0  0  0
   30.8470   27.7770   47.5200 N   0  0  0  0  0  0  0  0  0  0  0  0
   31.9560   28.3900   47.8880 N   0  0  0  0  0  0  0  0  0  0  0  0
   32.8190   25.2770   47.7520 H   0  0  0  0  0  0  0  0  0  0  0  0
   30.2380   25.7850   47.1230 H   0  0  0  0  0  0  0  0  0  0  0  0
   29.7180   28.6210   47.3190 C   0  0  0  0  0  0  0  0  0  0  0  0
   28.6860   28.7330   48.2250 C   0  0  0  0  0  0  0  0  0  0  0  0
   28.7390   28.1530   49.1260 H   0  0  0  0  0  0  0  0  0  0  0  0
   27.6450   29.5940   47.9040 C   0  0  0  0  0  3  0  0  0  0  0  0
   27.6440   30.3070   46.7280 C   0  0  0  0  0  0  0  0  0  0  0  0
   26.6200   31.1280   46.4550 N   0  0  0  0  0  0  0  0  0  0  0  0
   26.5990   31.8380   45.3050 C   0  0  0  0  0  0  0  0  0  0  0  0
   25.7440   32.5040   45.1120 H   0  0  0  0  0  0  0  0  0  0  0  0
   27.6200   31.7490   44.3750 C   0  0  0  0  0  3  0  0  0  0  0  0
   28.6850   30.9120   44.6300 C   0  0  0  0  0  3  0  0  0  0  0  0
   28.6710   30.2060   45.8110 C   0  0  0  0  0  0  0  0  0  0  0  0
   29.7120   29.3430   46.1350 C   0  0  0  0  0  3  0  0  0  0  0  0
   34.3860   27.6930   48.4540 C   0  0  0  0  0  0  0  0  0  0  0  0
   34.8970   26.7110   48.5980 H   0  0  0  0  0  0  0  0  0  0  0  0
   34.8530   28.2360   47.6100 H   0  0  0  0  0  0  0  0  0  0  0  0
   34.3640   28.4510   49.7400 C   0  0  0  0  0  0  0  0  0  0  0  0
   34.2200   27.7880   50.6170 H   0  0  0  0  0  0  0  0  0  0  0  0
   33.5560   29.2070   49.7490 H   0  0  0  0  0  0  0  0  0  0  0  0
   37.2870   30.1230   51.3010 C   0  0  0  0  0  0  0  0  0  0  0  0
   38.0180   30.5440   50.1710 C   0  0  0  0  0  0  0  0  0  0  0  0
   37.5030   30.2510   48.8880 C   0  0  0  0  0  0  0  0  0  0  0  0
   36.3280   29.5780   48.8060 N   0  0  0  0  0  0  0  0  0  0  0  0
   35.6550   29.1900   49.9200 C   0  0  0  0  0  0  0  0  0  0  0  0
   36.1330   29.4610   51.1260 N   0  0  0  0  0  0  0  0  0  0  0  0
   37.6750   30.3430   52.2850 H   0  0  0  0  0  0  0  0  0  0  0  0
   38.9390   31.0710   50.2280 H   0  0  0  0  0  0  0  0  0  0  0  0
   37.9990   30.5370   47.9710 H   0  0  0  0  0  0  0  0  0  0  0  0
  1 20  1  0  0  0  0
  2  6  1  0  0  0  0
  2  1  1  0  0  0  0
  3  4  1  0  0  0  0
  3  2  2  0  0  0  0
  4  5  1  0  0  0  0
  5  1  2  0  0  0  0
  7  3  1  0  0  0  0
  8  4  1  0  0  0  0
  8  9  1  0  0  0  0
  9 10  1  0  0  0  0
 11  9  2  0  0  0  0
 12 11  1  0  0  0  0
 13 12  1  0  0  0  0
 14 13  2  0  0  0  0
 15 14  1  0  0  0  0
 16 17  2  0  0  0  0
 16 14  1  0  0  0  0
 17 18  1  0  0  0  0
 18 19  1  0  0  0  0
 18 12  2  0  0  0  0
 19  8  2  0  0  0  0
 20 21  1  0  0  0  0
 20 23  1  0  0  0  0
 22 20  1  0  0  0  0
 23 25  1  0  0  0  0
 23 30  1  0  0  0  0
 23 24  1  0  0  0  0
 26 32  1  0  0  0  0
 27 33  1  0  0  0  0
 27 26  2  0  0  0  0
 28 27  1  0  0  0  0
 29 28  2  0  0  0  0
 29 30  1  0  0  0  0
 30 31  2  0  0  0  0
 31 26  1  0  0  0  0
 34 28  1  0  0  0  0
M  END
>  <minimizedAffinity>
-5.5733366

>  <minimizedRMSD>
1.92349684

$$$$
