
 OpenBabel03272503133D

 49 54  0  0  0  0  0  0  0  0999 V2000
   39.1030   32.1870   42.5770 C   0  0  0  0  0  0  0  0  0  0  0  0
   39.6820   31.4990   43.6310 C   0  0  0  0  0  0  0  0  0  0  0  0
   40.5970   30.5100   43.4600 C   0  0  0  0  0  0  0  0  0  0  0  0
   40.9940   30.1480   42.1760 C   0  0  0  0  0  0  0  0  0  0  0  0
   41.8520   29.2390   41.7190 N   0  0  0  0  0  0  0  0  0  0  0  0
   41.8410   29.3240   40.3840 C   0  0  0  0  0  0  0  0  0  0  0  0
   40.9790   30.2850   40.0060 N   0  0  0  0  0  0  0  0  0  0  0  0
   40.4200   30.8320   41.1190 C   0  0  0  0  0  0  0  0  0  0  0  0
   39.4850   31.8430   41.2720 C   0  0  0  0  0  0  0  0  0  0  0  0
   38.3860   32.9620   42.7120 H   0  0  0  0  0  0  0  0  0  0  0  0
   41.0300   29.9920   44.2980 H   0  0  0  0  0  0  0  0  0  0  0  0
   42.4470   28.5620   42.2510 H   0  0  0  0  0  0  0  0  0  0  0  0
   42.3580   28.8030   39.6090 H   0  0  0  0  0  0  0  0  0  0  0  0
   39.2350   31.9120   44.9480 C   0  0  0  0  0  0  0  0  0  0  0  0
   38.1490   32.5610   45.0820 O   0  0  0  0  0  0  0  0  0  0  0  0
   39.9460   31.6390   46.1610 N   0  0  0  0  0  0  0  0  0  0  0  0
   40.8230   31.1160   46.1020 H   0  0  0  0  0  0  0  0  0  0  0  0
   38.1140   30.1520   47.5000 F   0  0  0  0  0  0  0  0  0  0  0  0
   38.3800   31.4020   47.9940 C   0  0  0  0  0  0  0  0  0  0  0  0
   37.7220   31.8290   49.1130 C   0  0  0  0  0  0  0  0  0  0  0  0
   38.0300   33.0840   49.5580 C   0  0  0  0  0  0  0  0  0  0  0  0
   38.9450   33.8910   48.9330 C   0  0  0  0  0  0  0  0  0  0  0  0
   39.6010   33.4340   47.7950 C   0  0  0  0  0  0  0  0  0  0  0  0
   39.2980   32.1600   47.3300 C   0  0  0  0  0  0  0  0  0  0  0  0
   37.5170   33.4470   50.4520 H   0  0  0  0  0  0  0  0  0  0  0  0
   39.1950   34.8730   49.2670 H   0  0  0  0  0  0  0  0  0  0  0  0
   40.3420   33.9720   47.2120 H   0  0  0  0  0  0  0  0  0  0  0  0
   36.0800   29.3540   51.4580 C   0  0  0  0  0  0  0  0  0  0  0  0
   37.0510   30.2110   50.8780 C   0  0  0  0  0  0  0  0  0  0  0  0
   36.7570   30.9360   49.7440 C   0  0  0  0  0  0  0  0  0  0  0  0
   35.4950   30.7850   49.2120 N   0  0  0  0  0  0  0  0  0  0  0  0
   34.5850   29.9680   49.7740 C   0  0  0  0  0  0  0  0  0  0  0  0
   34.8730   29.2720   50.8700 N   0  0  0  0  0  0  0  0  0  0  0  0
   36.3020   28.7830   52.3480 H   0  0  0  0  0  0  0  0  0  0  0  0
   38.0330   30.3030   51.3260 H   0  0  0  0  0  0  0  0  0  0  0  0
   33.6590   29.9930   49.2050 H   0  0  0  0  0  0  0  0  0  0  0  0
   38.9200   32.5170   40.2140 O   0  0  0  0  0  0  0  0  0  0  0  0
   37.5910   32.6590   39.9370 C   0  0  0  0  0  0  0  0  0  0  0  0
   36.8630   31.5570   39.4860 C   0  0  0  0  0  0  0  0  0  0  0  0
   37.3550   30.5850   39.3550 H   0  0  0  0  0  0  0  0  0  0  0  0
   35.5240   31.6430   39.1930 C   0  0  0  0  0  3  0  0  0  0  0  0
   34.8320   32.8290   39.3310 C   0  0  0  0  0  0  0  0  0  0  0  0
   33.5300   32.9650   39.0590 N   0  0  0  0  0  0  0  0  0  0  0  0
   32.8640   34.1200   39.1960 C   0  0  0  0  0  0  0  0  0  0  0  0
   31.7980   34.2220   38.9710 H   0  0  0  0  0  0  0  0  0  0  0  0
   33.5080   35.2720   39.6400 C   0  0  0  0  0  3  0  0  0  0  0  0
   34.8600   35.1560   39.9280 C   0  0  0  0  0  3  0  0  0  0  0  0
   35.5210   33.9590   39.7800 C   0  0  0  0  0  0  0  0  0  0  0  0
   36.8710   33.8100   40.0600 C   0  0  0  0  0  3  0  0  0  0  0  0
  1 10  1  0  0  0  0
  1  2  1  0  0  0  0
  2 14  1  0  0  0  0
  3  2  2  0  0  0  0
  3 11  1  0  0  0  0
  4  3  1  0  0  0  0
  5  4  1  0  0  0  0
  5 12  1  0  0  0  0
  6  5  1  0  0  0  0
  7  6  2  0  0  0  0
  7  8  1  0  0  0  0
  8  9  1  0  0  0  0
  8  4  2  0  0  0  0
  9  1  2  0  0  0  0
 13  6  1  0  0  0  0
 14 15  2  0  0  0  0
 14 16  1  0  0  0  0
 16 24  1  0  0  0  0
 17 16  1  0  0  0  0
 18 19  1  0  0  0  0
 19 20  1  0  0  0  0
 20 21  2  0  0  0  0
 20 30  1  0  0  0  0
 21 25  1  0  0  0  0
 22 26  1  0  0  0  0
 22 21  1  0  0  0  0
 23 22  2  0  0  0  0
 24 23  1  0  0  0  0
 24 19  2  0  0  0  0
 27 23  1  0  0  0  0
 28 34  1  0  0  0  0
 29 35  1  0  0  0  0
 29 28  1  0  0  0  0
 30 29  2  0  0  0  0
 31 30  1  0  0  0  0
 31 32  2  0  0  0  0
 32 33  1  0  0  0  0
 33 28  2  0  0  0  0
 36 32  1  0  0  0  0
 37  9  1  0  0  0  0
 38 49  1  0  0  0  0
 38 37  1  0  0  0  0
 39 38  2  0  0  0  0
 40 39  1  0  0  0  0
 41 42  2  0  0  0  0
 41 39  1  0  0  0  0
 42 48  1  0  0  0  0
 43 44  2  0  0  0  0
 43 42  1  0  0  0  0
 44 46  1  0  0  0  0
 45 44  1  0  0  0  0
 46 47  2  0  0  0  0
 48 47  1  0  0  0  0
 48 49  2  0  0  0  0
M  END
>  <minimizedAffinity>
-7.52355766

>  <minimizedRMSD>
1.9031111

$$$$
