
 OpenBabel03272500203D

 37 40  0  0  0  0  0  0  0  0999 V2000
   35.3740   28.2190   31.9460 C   0  0  0  0  0  0  0  0  0  0  0  0
   36.3560   27.2740   32.3210 C   0  0  0  0  0  0  0  0  0  0  0  0
   36.9550   27.3980   33.5650 C   0  0  0  0  0  0  0  0  0  0  0  0
   36.5540   28.4370   34.3610 N   0  0  0  0  0  0  0  0  0  0  0  0
   35.6310   29.3140   33.9940 C   0  0  0  0  0  0  0  0  0  0  0  0
   35.0470   29.2100   32.8010 N   0  0  0  0  0  0  0  0  0  0  0  0
   34.9190   28.1170   30.9890 H   0  0  0  0  0  0  0  0  0  0  0  0
   37.9320   26.5520   34.1780 C   0  0  0  0  0  0  0  0  0  0  0  0
   39.2450   26.2190   33.9720 C   0  0  0  0  0  0  0  0  0  0  0  0
   39.7230   26.7740   33.1830 H   0  0  0  0  0  0  0  0  0  0  0  0
   39.9530   25.2990   34.7030 C   0  0  0  0  0  3  0  0  0  0  0  0
   39.3580   24.6220   35.7440 C   0  0  0  0  0  0  0  0  0  0  0  0
   40.1390   23.7450   36.3930 N   0  0  0  0  0  0  0  0  0  0  0  0
   39.6070   23.0430   37.4340 C   0  0  0  0  0  0  0  0  0  0  0  0
   40.2090   22.3330   37.9740 H   0  0  0  0  0  0  0  0  0  0  0  0
   38.2770   23.2870   37.7550 C   0  0  0  0  0  3  0  0  0  0  0  0
   37.4870   24.2030   37.0640 C   0  0  0  0  0  3  0  0  0  0  0  0
   38.0410   24.9030   36.0150 C   0  0  0  0  0  0  0  0  0  0  0  0
   37.3690   25.8340   35.2520 C   0  0  0  0  0  3  0  0  0  0  0  0
   32.8370   29.1910   35.1470 Cl  0  0  0  0  0  0  0  0  0  0  0  0
   34.0130   30.4470   35.5020 C   0  0  0  0  0  0  0  0  0  0  0  0
   35.2700   30.4010   34.9140 C   0  0  0  0  0  0  0  0  0  0  0  0
   36.2390   31.3730   35.1680 C   0  0  0  0  0  0  0  0  0  0  0  0
   35.8770   32.3960   36.0430 C   0  0  0  0  0  0  0  0  0  0  0  0
   34.6520   32.4640   36.6330 C   0  0  0  0  0  0  0  0  0  0  0  0
   34.3150   33.7930   37.7130 Cl  0  0  0  0  0  0  0  0  0  0  0  0
   33.7200   31.4790   36.3540 C   0  0  0  0  0  0  0  0  0  0  0  0
   37.2170   31.3340   34.7090 H   0  0  0  0  0  0  0  0  0  0  0  0
   36.6200   33.1420   36.2380 H   0  0  0  0  0  0  0  0  0  0  0  0
   32.3660   31.5290   36.9860 C   0  0  0  0  0  0  0  0  0  0  0  0
   32.1460   32.8060   37.5200 F   0  0  0  0  0  0  0  0  0  0  0  0
   32.1840   30.5640   37.9150 F   0  0  0  0  0  0  0  0  0  0  0  0
   31.3930   31.3800   35.9970 F   0  0  0  0  0  0  0  0  0  0  0  0
   36.6990   26.1660   31.3930 C   0  0  0  0  0  0  0  0  0  0  0  0
   36.7340   24.9470   32.0370 F   0  0  0  0  0  0  0  0  0  0  0  0
   35.7620   26.1210   30.3710 F   0  0  0  0  0  0  0  0  0  0  0  0
   37.9320   26.3590   30.7890 F   0  0  0  0  0  0  0  0  0  0  0  0
  1  2  2  0  0  0  0
  1  6  1  0  0  0  0
  2  3  1  0  0  0  0
  3  8  1  0  0  0  0
  3  4  2  0  0  0  0
  5  4  1  0  0  0  0
  5 22  1  0  0  0  0
  6  5  2  0  0  0  0
  7  1  1  0  0  0  0
  8 19  1  0  0  0  0
  9  8  2  0  0  0  0
  9 11  1  0  0  0  0
 10  9  1  0  0  0  0
 11 12  2  0  0  0  0
 12 18  1  0  0  0  0
 12 13  1  0  0  0  0
 13 14  2  0  0  0  0
 14 16  1  0  0  0  0
 14 15  1  0  0  0  0
 17 16  2  0  0  0  0
 18 17  1  0  0  0  0
 19 18  2  0  0  0  0
 20 21  1  0  0  0  0
 21 27  1  0  0  0  0
 22 23  1  0  0  0  0
 22 21  2  0  0  0  0
 23 24  2  0  0  0  0
 24 29  1  0  0  0  0
 24 25  1  0  0  0  0
 25 26  1  0  0  0  0
 27 25  2  0  0  0  0
 27 30  1  0  0  0  0
 28 23  1  0  0  0  0
 30 31  1  0  0  0  0
 30 32  1  0  0  0  0
 33 30  1  0  0  0  0
 34 35  1  0  0  0  0
 34  2  1  0  0  0  0
 36 34  1  0  0  0  0
 37 34  1  0  0  0  0
M  END
>  <minimizedAffinity>
-7.2508626

$$$$

 OpenBabel03272500203D

 37 40  0  0  0  0  0  0  0  0999 V2000
   37.2180   28.7430   30.3190 C   0  0  0  0  0  0  0  0  0  0  0  0
   36.3050   29.4890   31.0990 C   0  0  0  0  0  0  0  0  0  0  0  0
   35.7300   28.8840   32.2060 C   0  0  0  0  0  0  0  0  0  0  0  0
   36.0850   27.5900   32.4780 N   0  0  0  0  0  0  0  0  0  0  0  0
   36.9430   26.9050   31.7360 C   0  0  0  0  0  0  0  0  0  0  0  0
   37.5040   27.4720   30.6680 N   0  0  0  0  0  0  0  0  0  0  0  0
   37.6550   29.2140   29.4710 H   0  0  0  0  0  0  0  0  0  0  0  0
   34.8220   29.4400   33.1610 C   0  0  0  0  0  0  0  0  0  0  0  0
   33.4670   29.4840   33.3530 C   0  0  0  0  0  0  0  0  0  0  0  0
   32.9020   28.8960   32.6500 H   0  0  0  0  0  0  0  0  0  0  0  0
   32.8300   30.1640   34.3600 C   0  0  0  0  0  3  0  0  0  0  0  0
   33.5530   30.8780   35.2900 C   0  0  0  0  0  0  0  0  0  0  0  0
   32.8330   31.5060   36.2330 N   0  0  0  0  0  0  0  0  0  0  0  0
   33.4910   32.2300   37.1820 C   0  0  0  0  0  0  0  0  0  0  0  0
   32.9410   32.7440   37.9510 H   0  0  0  0  0  0  0  0  0  0  0  0
   34.8790   32.2690   37.1080 C   0  0  0  0  0  3  0  0  0  0  0  0
   35.6030   31.6080   36.1170 C   0  0  0  0  0  3  0  0  0  0  0  0
   34.9210   30.8810   35.1660 C   0  0  0  0  0  0  0  0  0  0  0  0
   35.5160   30.1850   34.1360 C   0  0  0  0  0  3  0  0  0  0  0  0
   34.9180   24.8240   30.8880 Cl  0  0  0  0  0  0  0  0  0  0  0  0
   36.4010   24.4800   31.7660 C   0  0  0  0  0  0  0  0  0  0  0  0
   37.2590   25.5180   32.1020 C   0  0  0  0  0  0  0  0  0  0  0  0
   38.4490   25.2950   32.7970 C   0  0  0  0  0  0  0  0  0  0  0  0
   38.7310   23.9730   33.1360 C   0  0  0  0  0  0  0  0  0  0  0  0
   37.9070   22.9370   32.8180 C   0  0  0  0  0  0  0  0  0  0  0  0
   38.3660   21.3230   33.2960 Cl  0  0  0  0  0  0  0  0  0  0  0  0
   36.7360   23.2020   32.1290 C   0  0  0  0  0  0  0  0  0  0  0  0
   39.1170   26.1050   33.0560 H   0  0  0  0  0  0  0  0  0  0  0  0
   39.6440   23.8010   33.6680 H   0  0  0  0  0  0  0  0  0  0  0  0
   35.8100   22.0850   31.7680 C   0  0  0  0  0  0  0  0  0  0  0  0
   35.2600   22.3240   30.5010 F   0  0  0  0  0  0  0  0  0  0  0  0
   34.8490   21.8780   32.6960 F   0  0  0  0  0  0  0  0  0  0  0  0
   36.5460   20.9080   31.6230 F   0  0  0  0  0  0  0  0  0  0  0  0
   36.0090   30.8970   30.7330 C   0  0  0  0  0  0  0  0  0  0  0  0
   36.5930   31.7900   31.6080 F   0  0  0  0  0  0  0  0  0  0  0  0
   36.4700   31.1420   29.4480 F   0  0  0  0  0  0  0  0  0  0  0  0
   34.6460   31.1530   30.7190 F   0  0  0  0  0  0  0  0  0  0  0  0
  1  6  2  0  0  0  0
  1  2  1  0  0  0  0
  2  3  2  0  0  0  0
  3  4  1  0  0  0  0
  3  8  1  0  0  0  0
  5 22  1  0  0  0  0
  5  4  2  0  0  0  0
  6  5  1  0  0  0  0
  7  1  1  0  0  0  0
  8  9  2  0  0  0  0
  8 19  1  0  0  0  0
  9 11  1  0  0  0  0
 10  9  1  0  0  0  0
 11 12  2  0  0  0  0
 12 13  1  0  0  0  0
 13 14  2  0  0  0  0
 14 15  1  0  0  0  0
 16 14  1  0  0  0  0
 17 16  2  0  0  0  0
 18 12  1  0  0  0  0
 18 17  1  0  0  0  0
 19 18  2  0  0  0  0
 20 21  1  0  0  0  0
 21 22  2  0  0  0  0
 21 27  1  0  0  0  0
 22 23  1  0  0  0  0
 23 28  1  0  0  0  0
 23 24  2  0  0  0  0
 24 29  1  0  0  0  0
 25 24  1  0  0  0  0
 25 26  1  0  0  0  0
 27 25  2  0  0  0  0
 30 27  1  0  0  0  0
 30 32  1  0  0  0  0
 31 30  1  0  0  0  0
 33 30  1  0  0  0  0
 34  2  1  0  0  0  0
 34 35  1  0  0  0  0
 36 34  1  0  0  0  0
 37 34  1  0  0  0  0
M  END
>  <minimizedAffinity>
-7.18545866

$$$$

 OpenBabel03272500203D

 37 40  0  0  0  0  0  0  0  0999 V2000
   36.8670   29.6080   31.2800 C   0  0  0  0  0  0  0  0  0  0  0  0
   37.4820   28.3700   31.5760 C   0  0  0  0  0  0  0  0  0  0  0  0
   36.9800   27.6140   32.6240 C   0  0  0  0  0  0  0  0  0  0  0  0
   35.9100   28.1180   33.3140 N   0  0  0  0  0  0  0  0  0  0  0  0
   35.3460   29.2810   33.0230 C   0  0  0  0  0  0  0  0  0  0  0  0
   35.8170   30.0200   32.0190 N   0  0  0  0  0  0  0  0  0  0  0  0
   37.2590   30.1820   30.4740 H   0  0  0  0  0  0  0  0  0  0  0  0
   37.4000   26.3260   33.0820 C   0  0  0  0  0  0  0  0  0  0  0  0
   37.6220   25.0880   32.5380 C   0  0  0  0  0  0  0  0  0  0  0  0
   37.5280   25.0540   31.4660 H   0  0  0  0  0  0  0  0  0  0  0  0
   37.9780   23.9650   33.2410 C   0  0  0  0  0  3  0  0  0  0  0  0
   38.1450   24.0170   34.6070 C   0  0  0  0  0  0  0  0  0  0  0  0
   38.4940   22.8630   35.1970 N   0  0  0  0  0  0  0  0  0  0  0  0
   38.6740   22.8500   36.5490 C   0  0  0  0  0  0  0  0  0  0  0  0
   38.9540   21.9400   37.0500 H   0  0  0  0  0  0  0  0  0  0  0  0
   38.4830   24.0460   37.2310 C   0  0  0  0  0  3  0  0  0  0  0  0
   38.1200   25.2310   36.5930 C   0  0  0  0  0  3  0  0  0  0  0  0
   37.9410   25.2260   35.2270 C   0  0  0  0  0  0  0  0  0  0  0  0
   37.5830   26.3270   34.4790 C   0  0  0  0  0  3  0  0  0  0  0  0
   36.0340   30.8650   35.5070 Cl  0  0  0  0  0  0  0  0  0  0  0  0
   34.4020   30.4780   34.9850 C   0  0  0  0  0  0  0  0  0  0  0  0
   34.2050   29.7440   33.8240 C   0  0  0  0  0  0  0  0  0  0  0  0
   32.9270   29.4140   33.3680 C   0  0  0  0  0  0  0  0  0  0  0  0
   31.8580   29.8620   34.1410 C   0  0  0  0  0  0  0  0  0  0  0  0
   32.0230   30.5830   35.2840 C   0  0  0  0  0  0  0  0  0  0  0  0
   30.6060   31.0890   36.1690 Cl  0  0  0  0  0  0  0  0  0  0  0  0
   33.3070   30.8880   35.7010 C   0  0  0  0  0  0  0  0  0  0  0  0
   32.7770   28.8430   32.4620 H   0  0  0  0  0  0  0  0  0  0  0  0
   30.8770   29.6100   33.7920 H   0  0  0  0  0  0  0  0  0  0  0  0
   33.5200   31.6780   36.9520 C   0  0  0  0  0  0  0  0  0  0  0  0
   32.8910   32.9250   36.8320 F   0  0  0  0  0  0  0  0  0  0  0  0
   34.8270   31.8110   37.2740 F   0  0  0  0  0  0  0  0  0  0  0  0
   32.8660   31.0470   38.0110 F   0  0  0  0  0  0  0  0  0  0  0  0
   38.6200   27.9000   30.7460 C   0  0  0  0  0  0  0  0  0  0  0  0
   38.2780   26.8140   29.9690 F   0  0  0  0  0  0  0  0  0  0  0  0
   39.0480   28.9360   29.9290 F   0  0  0  0  0  0  0  0  0  0  0  0
   39.7100   27.5350   31.5220 F   0  0  0  0  0  0  0  0  0  0  0  0
  1  2  2  0  0  0  0
  1  6  1  0  0  0  0
  2  3  1  0  0  0  0
  3  8  1  0  0  0  0
  3  4  2  0  0  0  0
  5  4  1  0  0  0  0
  5 22  1  0  0  0  0
  6  5  2  0  0  0  0
  7  1  1  0  0  0  0
  8 19  1  0  0  0  0
  9  8  2  0  0  0  0
  9 11  1  0  0  0  0
 10  9  1  0  0  0  0
 11 12  2  0  0  0  0
 12 13  1  0  0  0  0
 12 18  1  0  0  0  0
 13 14  2  0  0  0  0
 14 15  1  0  0  0  0
 14 16  1  0  0  0  0
 17 16  2  0  0  0  0
 18 17  1  0  0  0  0
 19 18  2  0  0  0  0
 21 20  1  0  0  0  0
 21 27  1  0  0  0  0
 22 21  2  0  0  0  0
 23 22  1  0  0  0  0
 23 24  2  0  0  0  0
 24 25  1  0  0  0  0
 25 27  2  0  0  0  0
 25 26  1  0  0  0  0
 27 30  1  0  0  0  0
 28 23  1  0  0  0  0
 29 24  1  0  0  0  0
 30 32  1  0  0  0  0
 30 33  1  0  0  0  0
 31 30  1  0  0  0  0
 34 37  1  0  0  0  0
 34  2  1  0  0  0  0
 35 34  1  0  0  0  0
 36 34  1  0  0  0  0
M  END
>  <minimizedAffinity>
-7.1622529

$$$$

 OpenBabel03272500203D

 37 40  0  0  0  0  0  0  0  0999 V2000
   37.5330   28.6910   30.9460 C   0  0  0  0  0  0  0  0  0  0  0  0
   36.5390   29.5290   31.4990 C   0  0  0  0  0  0  0  0  0  0  0  0
   35.8830   29.1100   32.6470 C   0  0  0  0  0  0  0  0  0  0  0  0
   36.2420   27.9000   33.1770 N   0  0  0  0  0  0  0  0  0  0  0  0
   37.1770   27.1270   32.6440 C   0  0  0  0  0  0  0  0  0  0  0  0
   37.8160   27.5140   31.5410 N   0  0  0  0  0  0  0  0  0  0  0  0
   38.0320   29.0200   30.0650 H   0  0  0  0  0  0  0  0  0  0  0  0
   34.8820   29.7930   33.4080 C   0  0  0  0  0  0  0  0  0  0  0  0
   33.5310   30.0040   33.3310 C   0  0  0  0  0  0  0  0  0  0  0  0
   33.0450   29.4720   32.5320 H   0  0  0  0  0  0  0  0  0  0  0  0
   32.7990   30.7780   34.1960 C   0  0  0  0  0  3  0  0  0  0  0  0
   33.4110   31.4220   35.2490 C   0  0  0  0  0  0  0  0  0  0  0  0
   32.6040   32.1530   36.0350 N   0  0  0  0  0  0  0  0  0  0  0  0
   33.1500   32.8140   37.0950 C   0  0  0  0  0  0  0  0  0  0  0  0
   32.5290   33.4080   37.7420 H   0  0  0  0  0  0  0  0  0  0  0  0
   34.5200   32.6850   37.2920 C   0  0  0  0  0  3  0  0  0  0  0  0
   35.3350   31.9190   36.4600 C   0  0  0  0  0  3  0  0  0  0  0  0
   34.7670   31.2580   35.3940 C   0  0  0  0  0  0  0  0  0  0  0  0
   35.4600   30.4710   34.5000 C   0  0  0  0  0  3  0  0  0  0  0  0
   37.7220   27.2270   35.6180 Cl  0  0  0  0  0  0  0  0  0  0  0  0
   37.7590   25.7670   34.6410 C   0  0  0  0  0  0  0  0  0  0  0  0
   37.4910   25.8410   33.2810 C   0  0  0  0  0  0  0  0  0  0  0  0
   37.5050   24.7090   32.4640 C   0  0  0  0  0  0  0  0  0  0  0  0
   37.8050   23.4980   33.0870 C   0  0  0  0  0  0  0  0  0  0  0  0
   38.0720   23.3990   34.4180 C   0  0  0  0  0  0  0  0  0  0  0  0
   38.4340   21.8270   35.0850 Cl  0  0  0  0  0  0  0  0  0  0  0  0
   38.0470   24.5460   35.1920 C   0  0  0  0  0  0  0  0  0  0  0  0
   37.2940   24.7690   31.4050 H   0  0  0  0  0  0  0  0  0  0  0  0
   37.8160   22.6300   32.4610 H   0  0  0  0  0  0  0  0  0  0  0  0
   38.3370   24.4680   36.6570 C   0  0  0  0  0  0  0  0  0  0  0  0
   37.4050   23.6220   37.2740 F   0  0  0  0  0  0  0  0  0  0  0  0
   38.3760   25.6820   37.2500 F   0  0  0  0  0  0  0  0  0  0  0  0
   39.5700   23.8430   36.8470 F   0  0  0  0  0  0  0  0  0  0  0  0
   36.2440   30.8370   30.8620 C   0  0  0  0  0  0  0  0  0  0  0  0
   34.8960   31.0030   30.6260 F   0  0  0  0  0  0  0  0  0  0  0  0
   36.6980   31.8580   31.6830 F   0  0  0  0  0  0  0  0  0  0  0  0
   36.9040   30.9830   29.6510 F   0  0  0  0  0  0  0  0  0  0  0  0
  1  2  2  0  0  0  0
  1  6  1  0  0  0  0
  2  3  1  0  0  0  0
  3  4  2  0  0  0  0
  3  8  1  0  0  0  0
  5  4  1  0  0  0  0
  5 22  1  0  0  0  0
  6  5  2  0  0  0  0
  7  1  1  0  0  0  0
  8 19  1  0  0  0  0
  9  8  2  0  0  0  0
  9 11  1  0  0  0  0
 10  9  1  0  0  0  0
 11 12  2  0  0  0  0
 12 18  1  0  0  0  0
 12 13  1  0  0  0  0
 13 14  2  0  0  0  0
 14 16  1  0  0  0  0
 14 15  1  0  0  0  0
 17 16  2  0  0  0  0
 18 17  1  0  0  0  0
 19 18  2  0  0  0  0
 21 27  1  0  0  0  0
 21 20  1  0  0  0  0
 22 21  2  0  0  0  0
 23 24  2  0  0  0  0
 23 22  1  0  0  0  0
 24 25  1  0  0  0  0
 25 26  1  0  0  0  0
 25 27  2  0  0  0  0
 27 30  1  0  0  0  0
 28 23  1  0  0  0  0
 29 24  1  0  0  0  0
 30 33  1  0  0  0  0
 30 32  1  0  0  0  0
 30 31  1  0  0  0  0
 34  2  1  0  0  0  0
 34 36  1  0  0  0  0
 35 34  1  0  0  0  0
 37 34  1  0  0  0  0
M  END
>  <minimizedAffinity>
-7.05188942

$$$$

 OpenBabel03272500203D

 37 40  0  0  0  0  0  0  0  0999 V2000
   35.4360   25.0690   31.0120 C   0  0  0  0  0  0  0  0  0  0  0  0
   36.4080   24.3360   31.7300 C   0  0  0  0  0  0  0  0  0  0  0  0
   37.2810   25.0260   32.5560 C   0  0  0  0  0  0  0  0  0  0  0  0
   37.1480   26.3870   32.6260 N   0  0  0  0  0  0  0  0  0  0  0  0
   36.2300   27.0580   31.9450 C   0  0  0  0  0  0  0  0  0  0  0  0
   35.3830   26.4100   31.1460 N   0  0  0  0  0  0  0  0  0  0  0  0
   34.7690   24.5320   30.3790 H   0  0  0  0  0  0  0  0  0  0  0  0
   38.3100   24.5080   33.4050 C   0  0  0  0  0  0  0  0  0  0  0  0
   39.5910   24.0440   33.2640 C   0  0  0  0  0  0  0  0  0  0  0  0
   39.9890   24.1400   32.2700 H   0  0  0  0  0  0  0  0  0  0  0  0
   40.3640   23.5310   34.2760 C   0  0  0  0  0  3  0  0  0  0  0  0
   39.8740   23.4510   35.5610 C   0  0  0  0  0  0  0  0  0  0  0  0
   40.7110   22.9340   36.4730 N   0  0  0  0  0  0  0  0  0  0  0  0
   40.2840   22.8290   37.7640 C   0  0  0  0  0  0  0  0  0  0  0  0
   40.9330   22.4180   38.5190 H   0  0  0  0  0  0  0  0  0  0  0  0
   38.9970   23.2680   38.0500 C   0  0  0  0  0  3  0  0  0  0  0  0
   38.1470   23.8010   37.0820 C   0  0  0  0  0  3  0  0  0  0  0  0
   38.5950   23.9000   35.7830 C   0  0  0  0  0  0  0  0  0  0  0  0
   37.8560   24.4050   34.7350 C   0  0  0  0  0  3  0  0  0  0  0  0
   35.7710   28.1060   34.7450 Cl  0  0  0  0  0  0  0  0  0  0  0  0
   35.9580   29.1120   33.3170 C   0  0  0  0  0  0  0  0  0  0  0  0
   36.1660   28.5190   32.0790 C   0  0  0  0  0  0  0  0  0  0  0  0
   36.3240   29.2760   30.9170 C   0  0  0  0  0  0  0  0  0  0  0  0
   36.2600   30.6610   31.0650 C   0  0  0  0  0  0  0  0  0  0  0  0
   36.0570   31.2670   32.2670 C   0  0  0  0  0  0  0  0  0  0  0  0
   35.9970   33.0100   32.3270 Cl  0  0  0  0  0  0  0  0  0  0  0  0
   35.9060   30.4790   33.3950 C   0  0  0  0  0  0  0  0  0  0  0  0
   36.4870   28.8120   29.9540 H   0  0  0  0  0  0  0  0  0  0  0  0
   36.3810   31.2420   30.1730 H   0  0  0  0  0  0  0  0  0  0  0  0
   35.6800   31.1160   34.7280 C   0  0  0  0  0  0  0  0  0  0  0  0
   34.3430   30.9430   35.1090 F   0  0  0  0  0  0  0  0  0  0  0  0
   36.0410   32.4190   34.7560 F   0  0  0  0  0  0  0  0  0  0  0  0
   36.4200   30.4330   35.6940 F   0  0  0  0  0  0  0  0  0  0  0  0
   36.4500   22.8570   31.6050 C   0  0  0  0  0  0  0  0  0  0  0  0
   36.3120   22.2330   32.8270 F   0  0  0  0  0  0  0  0  0  0  0  0
   35.4340   22.4410   30.7570 F   0  0  0  0  0  0  0  0  0  0  0  0
   37.6390   22.4180   31.0410 F   0  0  0  0  0  0  0  0  0  0  0  0
  1  6  2  0  0  0  0
  1  2  1  0  0  0  0
  2  3  2  0  0  0  0
  3  4  1  0  0  0  0
  3  8  1  0  0  0  0
  5 22  1  0  0  0  0
  5  4  2  0  0  0  0
  6  5  1  0  0  0  0
  7  1  1  0  0  0  0
  8 19  1  0  0  0  0
  9  8  2  0  0  0  0
  9 11  1  0  0  0  0
 10  9  1  0  0  0  0
 11 12  2  0  0  0  0
 12 18  1  0  0  0  0
 12 13  1  0  0  0  0
 13 14  2  0  0  0  0
 14 16  1  0  0  0  0
 14 15  1  0  0  0  0
 17 16  2  0  0  0  0
 18 17  1  0  0  0  0
 19 18  2  0  0  0  0
 21 27  1  0  0  0  0
 21 20  1  0  0  0  0
 22 21  2  0  0  0  0
 23 24  2  0  0  0  0
 23 22  1  0  0  0  0
 24 25  1  0  0  0  0
 25 26  1  0  0  0  0
 25 27  2  0  0  0  0
 27 30  1  0  0  0  0
 28 23  1  0  0  0  0
 29 24  1  0  0  0  0
 30 32  1  0  0  0  0
 30 31  1  0  0  0  0
 30 33  1  0  0  0  0
 34  2  1  0  0  0  0
 34 35  1  0  0  0  0
 36 34  1  0  0  0  0
 37 34  1  0  0  0  0
M  END
>  <minimizedAffinity>
-7.03680325

$$$$

 OpenBabel03272500203D

 37 40  0  0  0  0  0  0  0  0999 V2000
   35.3870   24.9370   31.0290 C   0  0  0  0  0  0  0  0  0  0  0  0
   36.3630   24.1900   31.7260 C   0  0  0  0  0  0  0  0  0  0  0  0
   37.2550   24.8650   32.5440 C   0  0  0  0  0  0  0  0  0  0  0  0
   37.1340   26.2270   32.6270 N   0  0  0  0  0  0  0  0  0  0  0  0
   36.2120   26.9110   31.9670 C   0  0  0  0  0  0  0  0  0  0  0  0
   35.3480   26.2770   31.1750 N   0  0  0  0  0  0  0  0  0  0  0  0
   34.7050   24.4110   30.4030 H   0  0  0  0  0  0  0  0  0  0  0  0
   38.2920   24.3320   33.3730 C   0  0  0  0  0  0  0  0  0  0  0  0
   39.5480   23.8120   33.2020 C   0  0  0  0  0  0  0  0  0  0  0  0
   39.9140   23.8640   32.1920 H   0  0  0  0  0  0  0  0  0  0  0  0
   40.3360   23.2990   34.2010 C   0  0  0  0  0  3  0  0  0  0  0  0
   39.8890   23.2760   35.5040 C   0  0  0  0  0  0  0  0  0  0  0  0
   40.7380   22.7520   36.4030 N   0  0  0  0  0  0  0  0  0  0  0  0
   40.3530   22.7010   37.7100 C   0  0  0  0  0  0  0  0  0  0  0  0
   41.0120   22.2870   38.4540 H   0  0  0  0  0  0  0  0  0  0  0  0
   39.0950   23.2000   38.0260 C   0  0  0  0  0  3  0  0  0  0  0  0
   38.2330   23.7380   37.0720 C   0  0  0  0  0  3  0  0  0  0  0  0
   38.6370   23.7810   35.7560 C   0  0  0  0  0  0  0  0  0  0  0  0
   37.8820   24.2860   34.7200 C   0  0  0  0  0  3  0  0  0  0  0  0
   37.3980   28.5070   29.6860 Cl  0  0  0  0  0  0  0  0  0  0  0  0
   36.6790   29.2040   31.1300 C   0  0  0  0  0  0  0  0  0  0  0  0
   36.1630   28.3720   32.1140 C   0  0  0  0  0  0  0  0  0  0  0  0
   35.5800   28.8790   33.2760 C   0  0  0  0  0  0  0  0  0  0  0  0
   35.5420   30.2670   33.3980 C   0  0  0  0  0  0  0  0  0  0  0  0
   36.0410   31.1050   32.4480 C   0  0  0  0  0  0  0  0  0  0  0  0
   35.9370   32.8270   32.7120 Cl  0  0  0  0  0  0  0  0  0  0  0  0
   36.6120   30.5610   31.3100 C   0  0  0  0  0  0  0  0  0  0  0  0
   35.1780   28.2280   34.0410 H   0  0  0  0  0  0  0  0  0  0  0  0
   35.0950   30.6560   34.2900 H   0  0  0  0  0  0  0  0  0  0  0  0
   37.1680   31.4570   30.2510 C   0  0  0  0  0  0  0  0  0  0  0  0
   37.5790   32.6660   30.8280 F   0  0  0  0  0  0  0  0  0  0  0  0
   36.3070   31.6610   29.2290 F   0  0  0  0  0  0  0  0  0  0  0  0
   38.3350   30.8900   29.7380 F   0  0  0  0  0  0  0  0  0  0  0  0
   36.3910   22.7120   31.5880 C   0  0  0  0  0  0  0  0  0  0  0  0
   36.2720   22.0780   32.8070 F   0  0  0  0  0  0  0  0  0  0  0  0
   35.3550   22.3110   30.7570 F   0  0  0  0  0  0  0  0  0  0  0  0
   37.5640   22.2680   30.9970 F   0  0  0  0  0  0  0  0  0  0  0  0
  1  6  2  0  0  0  0
  1  2  1  0  0  0  0
  2  3  2  0  0  0  0
  3  4  1  0  0  0  0
  3  8  1  0  0  0  0
  5 22  1  0  0  0  0
  5  4  2  0  0  0  0
  6  5  1  0  0  0  0
  7  1  1  0  0  0  0
  8 19  1  0  0  0  0
  9  8  2  0  0  0  0
  9 11  1  0  0  0  0
 10  9  1  0  0  0  0
 11 12  2  0  0  0  0
 12 18  1  0  0  0  0
 12 13  1  0  0  0  0
 13 14  2  0  0  0  0
 14 16  1  0  0  0  0
 14 15  1  0  0  0  0
 17 16  2  0  0  0  0
 18 17  1  0  0  0  0
 19 18  2  0  0  0  0
 20 21  1  0  0  0  0
 21 27  2  0  0  0  0
 21 22  1  0  0  0  0
 22 23  2  0  0  0  0
 23 24  1  0  0  0  0
 23 28  1  0  0  0  0
 24 29  1  0  0  0  0
 25 26  1  0  0  0  0
 25 24  2  0  0  0  0
 27 25  1  0  0  0  0
 30 31  1  0  0  0  0
 30 27  1  0  0  0  0
 32 30  1  0  0  0  0
 33 30  1  0  0  0  0
 34  2  1  0  0  0  0
 34 35  1  0  0  0  0
 36 34  1  0  0  0  0
 37 34  1  0  0  0  0
M  END
>  <minimizedAffinity>
-6.97550821

$$$$

 OpenBabel03272500203D

 37 40  0  0  0  0  0  0  0  0999 V2000
   37.7520   28.3010   31.2310 C   0  0  0  0  0  0  0  0  0  0  0  0
   36.7090   29.0980   31.7560 C   0  0  0  0  0  0  0  0  0  0  0  0
   36.1370   28.7280   32.9630 C   0  0  0  0  0  0  0  0  0  0  0  0
   36.6210   27.6040   33.5780 N   0  0  0  0  0  0  0  0  0  0  0  0
   37.6000   26.8690   33.0700 C   0  0  0  0  0  0  0  0  0  0  0  0
   38.1600   27.2100   31.9100 N   0  0  0  0  0  0  0  0  0  0  0  0
   38.1860   28.5910   30.3030 H   0  0  0  0  0  0  0  0  0  0  0  0
   35.1100   29.3890   33.7090 C   0  0  0  0  0  0  0  0  0  0  0  0
   33.7410   29.4160   33.7270 C   0  0  0  0  0  0  0  0  0  0  0  0
   33.2760   28.7130   33.0580 H   0  0  0  0  0  0  0  0  0  0  0  0
   32.9740   30.2150   34.5370 C   0  0  0  0  0  3  0  0  0  0  0  0
   33.5660   31.0820   35.4290 C   0  0  0  0  0  0  0  0  0  0  0  0
   32.7260   31.8170   36.1740 N   0  0  0  0  0  0  0  0  0  0  0  0
   33.2510   32.6940   37.0760 C   0  0  0  0  0  0  0  0  0  0  0  0
   32.6020   33.2980   37.6870 H   0  0  0  0  0  0  0  0  0  0  0  0
   34.6360   32.7680   37.1640 C   0  0  0  0  0  3  0  0  0  0  0  0
   35.4870   31.9920   36.3780 C   0  0  0  0  0  3  0  0  0  0  0  0
   34.9390   31.1120   35.4710 C   0  0  0  0  0  0  0  0  0  0  0  0
   35.6660   30.2910   34.6370 C   0  0  0  0  0  3  0  0  0  0  0  0
   36.5370   24.2260   32.0530 Cl  0  0  0  0  0  0  0  0  0  0  0  0
   37.6240   24.4090   33.4210 C   0  0  0  0  0  0  0  0  0  0  0  0
   38.0490   25.6750   33.7990 C   0  0  0  0  0  0  0  0  0  0  0  0
   38.9150   25.8710   34.8760 C   0  0  0  0  0  0  0  0  0  0  0  0
   39.3310   24.7270   35.5550 C   0  0  0  0  0  0  0  0  0  0  0  0
   38.9290   23.4740   35.2050 C   0  0  0  0  0  0  0  0  0  0  0  0
   39.5160   22.1160   36.1310 Cl  0  0  0  0  0  0  0  0  0  0  0  0
   38.0690   23.3240   34.1300 C   0  0  0  0  0  0  0  0  0  0  0  0
   39.2460   26.8590   35.1670 H   0  0  0  0  0  0  0  0  0  0  0  0
   39.9950   24.8770   36.3810 H   0  0  0  0  0  0  0  0  0  0  0  0
   37.6100   21.9610   33.7240 C   0  0  0  0  0  0  0  0  0  0  0  0
   36.9450   21.3510   34.7970 F   0  0  0  0  0  0  0  0  0  0  0  0
   38.6140   21.1850   33.2570 F   0  0  0  0  0  0  0  0  0  0  0  0
   36.6430   22.0810   32.7250 F   0  0  0  0  0  0  0  0  0  0  0  0
   36.2770   30.3150   31.0240 C   0  0  0  0  0  0  0  0  0  0  0  0
   36.5970   31.4690   31.7080 F   0  0  0  0  0  0  0  0  0  0  0  0
   36.8810   30.3360   29.7760 F   0  0  0  0  0  0  0  0  0  0  0  0
   34.9080   30.3250   30.7990 F   0  0  0  0  0  0  0  0  0  0  0  0
  1  2  2  0  0  0  0
  1  6  1  0  0  0  0
  2  3  1  0  0  0  0
  3  4  2  0  0  0  0
  3  8  1  0  0  0  0
  5  4  1  0  0  0  0
  5 22  1  0  0  0  0
  6  5  2  0  0  0  0
  7  1  1  0  0  0  0
  8  9  2  0  0  0  0
  8 19  1  0  0  0  0
  9 11  1  0  0  0  0
 10  9  1  0  0  0  0
 11 12  2  0  0  0  0
 12 18  1  0  0  0  0
 12 13  1  0  0  0  0
 13 14  2  0  0  0  0
 14 16  1  0  0  0  0
 14 15  1  0  0  0  0
 17 16  2  0  0  0  0
 18 17  1  0  0  0  0
 19 18  2  0  0  0  0
 20 21  1  0  0  0  0
 21 22  2  0  0  0  0
 21 27  1  0  0  0  0
 22 23  1  0  0  0  0
 23 28  1  0  0  0  0
 23 24  2  0  0  0  0
 24 29  1  0  0  0  0
 25 24  1  0  0  0  0
 25 26  1  0  0  0  0
 27 25  2  0  0  0  0
 30 27  1  0  0  0  0
 30 31  1  0  0  0  0
 32 30  1  0  0  0  0
 33 30  1  0  0  0  0
 34 35  1  0  0  0  0
 34  2  1  0  0  0  0
 36 34  1  0  0  0  0
 37 34  1  0  0  0  0
M  END
>  <minimizedAffinity>
-6.97212267

$$$$

 OpenBabel03272500203D

 37 40  0  0  0  0  0  0  0  0999 V2000
   36.7590   29.9590   31.2140 C   0  0  0  0  0  0  0  0  0  0  0  0
   37.3120   28.6660   31.3590 C   0  0  0  0  0  0  0  0  0  0  0  0
   36.7600   27.8100   32.2990 C   0  0  0  0  0  0  0  0  0  0  0  0
   35.7030   28.2740   33.0360 N   0  0  0  0  0  0  0  0  0  0  0  0
   35.1970   29.4890   32.8870 C   0  0  0  0  0  0  0  0  0  0  0  0
   35.7170   30.3240   31.9890 N   0  0  0  0  0  0  0  0  0  0  0  0
   37.1880   30.6100   30.4900 H   0  0  0  0  0  0  0  0  0  0  0  0
   37.1150   26.4570   32.5960 C   0  0  0  0  0  0  0  0  0  0  0  0
   38.0490   25.8070   33.3590 C   0  0  0  0  0  0  0  0  0  0  0  0
   38.6570   26.4570   33.9630 H   0  0  0  0  0  0  0  0  0  0  0  0
   38.2130   24.4460   33.4220 C   0  0  0  0  0  3  0  0  0  0  0  0
   37.4050   23.6080   32.6850 C   0  0  0  0  0  0  0  0  0  0  0  0
   37.6500   22.2950   32.8200 N   0  0  0  0  0  0  0  0  0  0  0  0
   36.8830   21.4130   32.1170 C   0  0  0  0  0  0  0  0  0  0  0  0
   37.0560   20.3540   32.2040 H   0  0  0  0  0  0  0  0  0  0  0  0
   35.8900   21.9400   31.3000 C   0  0  0  0  0  3  0  0  0  0  0  0
   35.6570   23.3090   31.1790 C   0  0  0  0  0  3  0  0  0  0  0  0
   36.4410   24.1850   31.8960 C   0  0  0  0  0  0  0  0  0  0  0  0
   36.3150   25.5570   31.8640 C   0  0  0  0  0  3  0  0  0  0  0  0
   35.9150   30.8980   35.4660 Cl  0  0  0  0  0  0  0  0  0  0  0  0
   34.2760   30.5540   34.9350 C   0  0  0  0  0  0  0  0  0  0  0  0
   34.0650   29.9000   33.7290 C   0  0  0  0  0  0  0  0  0  0  0  0
   32.7820   29.6080   33.2630 C   0  0  0  0  0  0  0  0  0  0  0  0
   31.7220   30.0060   34.0750 C   0  0  0  0  0  0  0  0  0  0  0  0
   31.9010   30.6480   35.2620 C   0  0  0  0  0  0  0  0  0  0  0  0
   30.4950   31.0970   36.1930 Cl  0  0  0  0  0  0  0  0  0  0  0  0
   33.1900   30.9190   35.6870 C   0  0  0  0  0  0  0  0  0  0  0  0
   32.6210   29.1000   32.3220 H   0  0  0  0  0  0  0  0  0  0  0  0
   30.7370   29.7820   33.7180 H   0  0  0  0  0  0  0  0  0  0  0  0
   33.4180   31.6210   36.9870 C   0  0  0  0  0  0  0  0  0  0  0  0
   32.7730   32.8650   36.9660 F   0  0  0  0  0  0  0  0  0  0  0  0
   34.7290   31.7460   37.2940 F   0  0  0  0  0  0  0  0  0  0  0  0
   32.7910   30.9090   38.0100 F   0  0  0  0  0  0  0  0  0  0  0  0
   38.4420   28.2520   30.4880 C   0  0  0  0  0  0  0  0  0  0  0  0
   38.1070   27.1810   29.6860 F   0  0  0  0  0  0  0  0  0  0  0  0
   38.8230   29.3220   29.6930 F   0  0  0  0  0  0  0  0  0  0  0  0
   39.5590   27.8910   31.2260 F   0  0  0  0  0  0  0  0  0  0  0  0
  1  2  2  0  0  0  0
  1  6  1  0  0  0  0
  2  3  1  0  0  0  0
  3  8  1  0  0  0  0
  3  4  2  0  0  0  0
  5  4  1  0  0  0  0
  5 22  1  0  0  0  0
  6  5  2  0  0  0  0
  7  1  1  0  0  0  0
  8  9  1  0  0  0  0
  9 11  2  0  0  0  0
  9 10  1  0  0  0  0
 12 13  1  0  0  0  0
 12 11  1  0  0  0  0
 14 15  1  0  0  0  0
 14 13  2  0  0  0  0
 16 14  1  0  0  0  0
 17 16  2  0  0  0  0
 17 18  1  0  0  0  0
 18 12  2  0  0  0  0
 19 18  1  0  0  0  0
 19  8  2  0  0  0  0
 21 20  1  0  0  0  0
 21 27  1  0  0  0  0
 22 21  2  0  0  0  0
 23 22  1  0  0  0  0
 23 24  2  0  0  0  0
 24 25  1  0  0  0  0
 25 27  2  0  0  0  0
 25 26  1  0  0  0  0
 27 30  1  0  0  0  0
 28 23  1  0  0  0  0
 29 24  1  0  0  0  0
 30 32  1  0  0  0  0
 30 33  1  0  0  0  0
 31 30  1  0  0  0  0
 34 37  1  0  0  0  0
 34  2  1  0  0  0  0
 35 34  1  0  0  0  0
 36 34  1  0  0  0  0
M  END
>  <minimizedAffinity>
-6.90019274

$$$$

 OpenBabel03272500203D

 37 40  0  0  0  0  0  0  0  0999 V2000
   37.5600   28.2660   31.5100 C   0  0  0  0  0  0  0  0  0  0  0  0
   36.5090   29.0160   32.0870 C   0  0  0  0  0  0  0  0  0  0  0  0
   36.1420   28.7440   33.3950 C   0  0  0  0  0  0  0  0  0  0  0  0
   36.8240   27.7570   34.0540 N   0  0  0  0  0  0  0  0  0  0  0  0
   37.8070   27.0640   33.4980 C   0  0  0  0  0  0  0  0  0  0  0  0
   38.1720   27.3120   32.2410 N   0  0  0  0  0  0  0  0  0  0  0  0
   37.8360   28.4810   30.5050 H   0  0  0  0  0  0  0  0  0  0  0  0
   35.1500   29.3880   34.2000 C   0  0  0  0  0  0  0  0  0  0  0  0
   33.8090   29.2500   34.4460 C   0  0  0  0  0  0  0  0  0  0  0  0
   33.3600   28.3940   33.9730 H   0  0  0  0  0  0  0  0  0  0  0  0
   33.0620   30.0720   35.2510 C   0  0  0  0  0  3  0  0  0  0  0  0
   33.6450   31.1400   35.8960 C   0  0  0  0  0  0  0  0  0  0  0  0
   32.8240   31.8800   36.6580 N   0  0  0  0  0  0  0  0  0  0  0  0
   33.3420   32.9520   37.3230 C   0  0  0  0  0  0  0  0  0  0  0  0
   32.7090   33.5640   37.9420 H   0  0  0  0  0  0  0  0  0  0  0  0
   34.6990   33.2080   37.1640 C   0  0  0  0  0  3  0  0  0  0  0  0
   35.5290   32.4230   36.3660 C   0  0  0  0  0  3  0  0  0  0  0  0
   34.9890   31.3440   35.7010 C   0  0  0  0  0  0  0  0  0  0  0  0
   35.6980   30.4930   34.8820 C   0  0  0  0  0  3  0  0  0  0  0  0
   40.8270   27.0180   33.3220 Cl  0  0  0  0  0  0  0  0  0  0  0  0
   39.8620   25.9020   34.2760 C   0  0  0  0  0  0  0  0  0  0  0  0
   38.4790   26.0190   34.2820 C   0  0  0  0  0  0  0  0  0  0  0  0
   37.6700   25.1580   35.0260 C   0  0  0  0  0  0  0  0  0  0  0  0
   38.3250   24.1730   35.7640 C   0  0  0  0  0  0  0  0  0  0  0  0
   39.6800   24.0370   35.7740 C   0  0  0  0  0  0  0  0  0  0  0  0
   40.3870   22.7650   36.7370 Cl  0  0  0  0  0  0  0  0  0  0  0  0
   40.4450   24.9120   35.0220 C   0  0  0  0  0  0  0  0  0  0  0  0
   36.5920   25.2520   35.0310 H   0  0  0  0  0  0  0  0  0  0  0  0
   37.7050   23.5130   36.3350 H   0  0  0  0  0  0  0  0  0  0  0  0
   41.9340   24.7860   35.0130 C   0  0  0  0  0  0  0  0  0  0  0  0
   42.3630   24.3810   33.7420 F   0  0  0  0  0  0  0  0  0  0  0  0
   42.3980   23.9620   35.9800 F   0  0  0  0  0  0  0  0  0  0  0  0
   42.5020   26.0470   35.1980 F   0  0  0  0  0  0  0  0  0  0  0  0
   35.8520   30.0860   31.2940 C   0  0  0  0  0  0  0  0  0  0  0  0
   36.1980   31.3440   31.7400 F   0  0  0  0  0  0  0  0  0  0  0  0
   36.2120   29.9530   29.9610 F   0  0  0  0  0  0  0  0  0  0  0  0
   34.4690   29.9890   31.3400 F   0  0  0  0  0  0  0  0  0  0  0  0
  1  2  2  0  0  0  0
  1  6  1  0  0  0  0
  2  3  1  0  0  0  0
  3  4  2  0  0  0  0
  3  8  1  0  0  0  0
  5  4  1  0  0  0  0
  5 22  1  0  0  0  0
  6  5  2  0  0  0  0
  7  1  1  0  0  0  0
  8  9  2  0  0  0  0
  8 19  1  0  0  0  0
  9 11  1  0  0  0  0
 10  9  1  0  0  0  0
 11 12  2  0  0  0  0
 12 13  1  0  0  0  0
 13 14  2  0  0  0  0
 14 15  1  0  0  0  0
 16 14  1  0  0  0  0
 17 16  2  0  0  0  0
 18 12  1  0  0  0  0
 18 17  1  0  0  0  0
 19 18  2  0  0  0  0
 20 21  1  0  0  0  0
 21 22  2  0  0  0  0
 21 27  1  0  0  0  0
 22 23  1  0  0  0  0
 23 28  1  0  0  0  0
 23 24  2  0  0  0  0
 24 25  1  0  0  0  0
 24 29  1  0  0  0  0
 25 26  1  0  0  0  0
 27 25  2  0  0  0  0
 30 27  1  0  0  0  0
 30 33  1  0  0  0  0
 30 32  1  0  0  0  0
 31 30  1  0  0  0  0
 34 37  1  0  0  0  0
 34 35  1  0  0  0  0
 34  2  1  0  0  0  0
 36 34  1  0  0  0  0
M  END
>  <minimizedAffinity>
-6.88234138

$$$$
