
 OpenBabel03262522103D

 32 35  0  0  0  0  0  0  0  0999 V2000
   35.8560   28.7040   33.1140 C   0  0  0  0  0  0  0  0  0  0  0  0
   36.3220   29.1190   31.8900 C   0  0  0  0  0  0  0  0  0  0  0  0
   37.4660   28.5440   31.3700 C   0  0  0  0  0  0  0  0  0  0  0  0
   38.0640   27.5570   32.1670 C   0  0  0  0  0  0  0  0  0  0  0  0
   37.5810   27.1610   33.3860 C   0  0  0  0  0  0  0  0  0  0  0  0
   36.4590   27.7500   33.8570 N   0  0  0  0  0  0  0  0  0  0  0  0
   35.8300   29.8850   31.3050 H   0  0  0  0  0  0  0  0  0  0  0  0
   37.8720   28.8280   30.4240 H   0  0  0  0  0  0  0  0  0  0  0  0
   38.9570   27.1240   31.7370 H   0  0  0  0  0  0  0  0  0  0  0  0
   38.2300   26.1320   34.1850 C   0  0  0  0  0  0  0  0  0  0  0  0
   39.3140   25.3910   33.7630 C   0  0  0  0  0  0  0  0  0  0  0  0
   39.7250   25.5600   32.7980 H   0  0  0  0  0  0  0  0  0  0  0  0
   39.9350   24.4190   34.5080 C   0  0  0  0  0  3  0  0  0  0  0  0
   39.4390   24.1540   35.7830 C   0  0  0  0  0  0  0  0  0  0  0  0
   39.9910   23.2140   36.5770 N   0  0  0  0  0  0  0  0  0  0  0  0
   39.4670   22.9930   37.8190 C   0  0  0  0  0  0  0  0  0  0  0  0
   39.9880   22.2290   38.3490 H   0  0  0  0  0  0  0  0  0  0  0  0
   38.3830   23.7050   38.2910 C   0  0  0  0  0  3  0  0  0  0  0  0
   37.8020   24.6800   37.4790 C   0  0  0  0  0  3  0  0  0  0  0  0
   38.3700   24.8600   36.2410 C   0  0  0  0  0  0  0  0  0  0  0  0
   37.7730   25.8360   35.4510 C   0  0  0  0  0  3  0  0  0  0  0  0
   34.6360   29.3510   33.6160 C   0  0  0  0  0  0  0  0  0  0  0  0
   33.5340   29.1470   33.1130 O   0  0  0  0  0  0  0  0  0  0  0  0
   33.5250   30.5260   35.5010 C   0  0  0  0  0  0  0  0  0  0  0  0
   34.6780   30.2790   34.7510 C   0  0  0  0  0  0  0  0  0  0  0  0
   35.8380   30.9490   35.1360 C   0  0  0  0  0  0  0  0  0  0  0  0
   35.7910   31.7980   36.2060 N   0  0  0  0  0  0  0  0  0  0  0  0
   34.6520   32.0030   36.8990 C   0  0  0  0  0  0  0  0  0  0  0  0
   33.5360   31.3790   36.5540 N   0  0  0  0  0  0  0  0  0  0  0  0
   32.6370   29.9870   35.1730 H   0  0  0  0  0  0  0  0  0  0  0  0
   36.7490   30.7840   34.5810 H   0  0  0  0  0  0  0  0  0  0  0  0
   34.5760   32.6640   37.7470 H   0  0  0  0  0  0  0  0  0  0  0  0
  1 22  1  0  0  0  0
  1  6  1  0  0  0  0
  2  1  2  0  0  0  0
  3  2  1  0  0  0  0
  3  4  2  0  0  0  0
  4  5  1  0  0  0  0
  5  6  2  0  0  0  0
  5 10  1  0  0  0  0
  7  2  1  0  0  0  0
  8  3  1  0  0  0  0
  9  4  1  0  0  0  0
 10 21  1  0  0  0  0
 11 10  2  0  0  0  0
 11 13  1  0  0  0  0
 12 11  1  0  0  0  0
 13 14  2  0  0  0  0
 14 20  1  0  0  0  0
 14 15  1  0  0  0  0
 15 16  2  0  0  0  0
 16 18  1  0  0  0  0
 16 17  1  0  0  0  0
 19 18  2  0  0  0  0
 20 19  1  0  0  0  0
 21 20  2  0  0  0  0
 22 25  1  0  0  0  0
 23 22  2  0  0  0  0
 24 29  1  0  0  0  0
 25 26  1  0  0  0  0
 25 24  2  0  0  0  0
 26 27  2  0  0  0  0
 27 28  1  0  0  0  0
 28 32  1  0  0  0  0
 29 28  2  0  0  0  0
 30 24  1  0  0  0  0
 31 26  1  0  0  0  0
M  END
>  <minimizedAffinity>
-6.24380589

$$$$

 OpenBabel03262522103D

 32 35  0  0  0  0  0  0  0  0999 V2000
   37.9650   27.2280   34.0030 C   0  0  0  0  0  0  0  0  0  0  0  0
   38.1380   27.1590   32.6430 C   0  0  0  0  0  0  0  0  0  0  0  0
   37.3230   27.9120   31.8170 C   0  0  0  0  0  0  0  0  0  0  0  0
   36.3650   28.7020   32.4690 C   0  0  0  0  0  0  0  0  0  0  0  0
   36.2120   28.7540   33.8300 C   0  0  0  0  0  0  0  0  0  0  0  0
   37.0300   28.0010   34.5990 N   0  0  0  0  0  0  0  0  0  0  0  0
   38.8900   26.5360   32.1780 H   0  0  0  0  0  0  0  0  0  0  0  0
   37.4130   27.8960   30.7540 H   0  0  0  0  0  0  0  0  0  0  0  0
   35.7410   29.2800   31.8010 H   0  0  0  0  0  0  0  0  0  0  0  0
   35.2050   29.5870   34.4690 C   0  0  0  0  0  0  0  0  0  0  0  0
   33.8450   29.4030   34.3350 C   0  0  0  0  0  0  0  0  0  0  0  0
   33.4780   28.6090   33.7330 H   0  0  0  0  0  0  0  0  0  0  0  0
   32.8870   30.1830   34.9330 C   0  0  0  0  0  3  0  0  0  0  0  0
   33.3100   31.2410   35.7350 C   0  0  0  0  0  0  0  0  0  0  0  0
   32.4330   32.0540   36.3570 N   0  0  0  0  0  0  0  0  0  0  0  0
   32.9000   33.0770   37.1330 C   0  0  0  0  0  0  0  0  0  0  0  0
   32.1130   33.6470   37.5700 H   0  0  0  0  0  0  0  0  0  0  0  0
   34.2510   33.3080   37.3010 C   0  0  0  0  0  3  0  0  0  0  0  0
   35.1690   32.4740   36.6630 C   0  0  0  0  0  3  0  0  0  0  0  0
   34.6440   31.4620   35.8970 C   0  0  0  0  0  0  0  0  0  0  0  0
   35.5780   30.6450   35.2700 C   0  0  0  0  0  3  0  0  0  0  0  0
   38.8600   26.4070   34.8300 C   0  0  0  0  0  0  0  0  0  0  0  0
   39.9890   26.7800   35.1420 O   0  0  0  0  0  0  0  0  0  0  0  0
   38.4720   23.9790   34.4810 C   0  0  0  0  0  0  0  0  0  0  0  0
   38.4440   25.0910   35.3270 C   0  0  0  0  0  0  0  0  0  0  0  0
   38.0070   24.8810   36.6330 C   0  0  0  0  0  0  0  0  0  0  0  0
   37.6360   23.6220   37.0150 N   0  0  0  0  0  0  0  0  0  0  0  0
   37.6810   22.5800   36.1610 C   0  0  0  0  0  0  0  0  0  0  0  0
   38.0930   22.7530   34.9130 N   0  0  0  0  0  0  0  0  0  0  0  0
   38.8180   24.1790   33.4670 H   0  0  0  0  0  0  0  0  0  0  0  0
   37.9720   25.7160   37.3160 H   0  0  0  0  0  0  0  0  0  0  0  0
   37.3970   21.5740   36.4250 H   0  0  0  0  0  0  0  0  0  0  0  0
  1  6  1  0  0  0  0
  1 22  1  0  0  0  0
  2  1  2  0  0  0  0
  3  4  2  0  0  0  0
  3  2  1  0  0  0  0
  4  5  1  0  0  0  0
  5 10  1  0  0  0  0
  5  6  2  0  0  0  0
  7  2  1  0  0  0  0
  8  3  1  0  0  0  0
  9  4  1  0  0  0  0
 10 21  1  0  0  0  0
 11 10  2  0  0  0  0
 11 13  1  0  0  0  0
 12 11  1  0  0  0  0
 13 14  2  0  0  0  0
 14 20  1  0  0  0  0
 14 15  1  0  0  0  0
 15 16  2  0  0  0  0
 16 18  1  0  0  0  0
 16 17  1  0  0  0  0
 19 18  2  0  0  0  0
 20 19  1  0  0  0  0
 21 20  2  0  0  0  0
 22 23  2  0  0  0  0
 22 25  1  0  0  0  0
 24 29  2  0  0  0  0
 24 25  1  0  0  0  0
 25 26  2  0  0  0  0
 26 27  1  0  0  0  0
 26 31  1  0  0  0  0
 28 32  1  0  0  0  0
 28 27  2  0  0  0  0
 29 28  1  0  0  0  0
 30 24  1  0  0  0  0
M  END
>  <minimizedAffinity>
-6.12596178

$$$$

 OpenBabel03262522103D

 32 35  0  0  0  0  0  0  0  0999 V2000
   35.9150   29.0240   33.5460 C   0  0  0  0  0  0  0  0  0  0  0  0
   36.1680   29.3230   32.2300 C   0  0  0  0  0  0  0  0  0  0  0  0
   37.1130   28.5880   31.5370 C   0  0  0  0  0  0  0  0  0  0  0  0
   37.7450   27.5720   32.2690 C   0  0  0  0  0  0  0  0  0  0  0  0
   37.4750   27.2930   33.5830 C   0  0  0  0  0  0  0  0  0  0  0  0
   36.5440   28.0370   34.2220 N   0  0  0  0  0  0  0  0  0  0  0  0
   35.6580   30.1160   31.7000 H   0  0  0  0  0  0  0  0  0  0  0  0
   37.3490   28.7770   30.5140 H   0  0  0  0  0  0  0  0  0  0  0  0
   38.4780   27.0130   31.7050 H   0  0  0  0  0  0  0  0  0  0  0  0
   38.1520   26.2290   34.3080 C   0  0  0  0  0  0  0  0  0  0  0  0
   39.2210   25.5110   33.8150 C   0  0  0  0  0  0  0  0  0  0  0  0
   39.5970   25.7270   32.8450 H   0  0  0  0  0  0  0  0  0  0  0  0
   39.8680   24.5060   34.4900 C   0  0  0  0  0  3  0  0  0  0  0  0
   39.4170   24.1800   35.7680 C   0  0  0  0  0  0  0  0  0  0  0  0
   39.9970   23.2050   36.4970 N   0  0  0  0  0  0  0  0  0  0  0  0
   39.5170   22.9250   37.7450 C   0  0  0  0  0  0  0  0  0  0  0  0
   40.0560   22.1370   38.2190 H   0  0  0  0  0  0  0  0  0  0  0  0
   38.4490   23.6110   38.2870 C   0  0  0  0  0  3  0  0  0  0  0  0
   37.8410   24.6220   37.5430 C   0  0  0  0  0  3  0  0  0  0  0  0
   38.3640   24.8620   36.2960 C   0  0  0  0  0  0  0  0  0  0  0  0
   37.7400   25.8730   35.5740 C   0  0  0  0  0  3  0  0  0  0  0  0
   34.9010   29.8380   34.2300 C   0  0  0  0  0  0  0  0  0  0  0  0
   35.1840   30.8800   34.8160 O   0  0  0  0  0  0  0  0  0  0  0  0
   32.8280   29.2430   35.4620 C   0  0  0  0  0  0  0  0  0  0  0  0
   33.4890   29.4390   34.2470 C   0  0  0  0  0  0  0  0  0  0  0  0
   32.7490   29.2380   33.0840 C   0  0  0  0  0  0  0  0  0  0  0  0
   31.4370   28.8650   33.1880 N   0  0  0  0  0  0  0  0  0  0  0  0
   30.8430   28.6890   34.3860 C   0  0  0  0  0  0  0  0  0  0  0  0
   31.5250   28.8750   35.5070 N   0  0  0  0  0  0  0  0  0  0  0  0
   33.4370   29.4090   36.3510 H   0  0  0  0  0  0  0  0  0  0  0  0
   33.2240   29.3790   32.1260 H   0  0  0  0  0  0  0  0  0  0  0  0
   29.8120   28.3970   34.5080 H   0  0  0  0  0  0  0  0  0  0  0  0
  1  6  1  0  0  0  0
  1 22  1  0  0  0  0
  2  1  2  0  0  0  0
  3  2  1  0  0  0  0
  3  4  2  0  0  0  0
  4  5  1  0  0  0  0
  5  6  2  0  0  0  0
  5 10  1  0  0  0  0
  7  2  1  0  0  0  0
  8  3  1  0  0  0  0
  9  4  1  0  0  0  0
 10 21  1  0  0  0  0
 11 10  2  0  0  0  0
 11 13  1  0  0  0  0
 12 11  1  0  0  0  0
 13 14  2  0  0  0  0
 14 20  1  0  0  0  0
 14 15  1  0  0  0  0
 15 16  2  0  0  0  0
 16 17  1  0  0  0  0
 16 18  1  0  0  0  0
 19 18  2  0  0  0  0
 20 19  1  0  0  0  0
 21 20  2  0  0  0  0
 22 25  1  0  0  0  0
 22 23  2  0  0  0  0
 24 29  1  0  0  0  0
 24 30  1  0  0  0  0
 25 24  2  0  0  0  0
 26 27  2  0  0  0  0
 26 25  1  0  0  0  0
 27 28  1  0  0  0  0
 28 32  1  0  0  0  0
 28 29  2  0  0  0  0
 31 26  1  0  0  0  0
M  END
>  <minimizedAffinity>
-6.06895208

$$$$

 OpenBabel03262522103D

 32 35  0  0  0  0  0  0  0  0999 V2000
   37.2430   26.5000   33.3720 C   0  0  0  0  0  0  0  0  0  0  0  0
   36.9930   27.7120   33.9670 C   0  0  0  0  0  0  0  0  0  0  0  0
   37.4360   27.9390   35.2570 C   0  0  0  0  0  0  0  0  0  0  0  0
   38.1230   26.8730   35.8570 C   0  0  0  0  0  0  0  0  0  0  0  0
   38.3600   25.6720   35.2420 C   0  0  0  0  0  0  0  0  0  0  0  0
   37.9080   25.4940   33.9800 N   0  0  0  0  0  0  0  0  0  0  0  0
   36.4580   28.5110   33.4690 H   0  0  0  0  0  0  0  0  0  0  0  0
   37.2700   28.8620   35.7670 H   0  0  0  0  0  0  0  0  0  0  0  0
   38.4580   27.0770   36.8640 H   0  0  0  0  0  0  0  0  0  0  0  0
   39.0770   24.5900   35.8980 C   0  0  0  0  0  0  0  0  0  0  0  0
   38.6470   23.9560   37.0450 C   0  0  0  0  0  0  0  0  0  0  0  0
   37.7360   24.2540   37.5020 H   0  0  0  0  0  0  0  0  0  0  0  0
   39.3160   22.9340   37.6730 C   0  0  0  0  0  3  0  0  0  0  0  0
   40.5180   22.5000   37.1180 C   0  0  0  0  0  0  0  0  0  0  0  0
   41.2360   21.5040   37.6730 N   0  0  0  0  0  0  0  0  0  0  0  0
   42.4090   21.1150   37.0900 C   0  0  0  0  0  0  0  0  0  0  0  0
   42.8830   20.3210   37.6200 H   0  0  0  0  0  0  0  0  0  0  0  0
   42.8870   21.7160   35.9420 C   0  0  0  0  0  3  0  0  0  0  0  0
   42.1540   22.7490   35.3580 C   0  0  0  0  0  3  0  0  0  0  0  0
   40.9830   23.0970   35.9860 C   0  0  0  0  0  0  0  0  0  0  0  0
   40.2710   24.1290   35.3860 C   0  0  0  0  0  3  0  0  0  0  0  0
   36.7480   26.3170   32.0010 C   0  0  0  0  0  0  0  0  0  0  0  0
   35.8400   25.5350   31.7320 O   0  0  0  0  0  0  0  0  0  0  0  0
   38.5960   26.7480   30.3980 C   0  0  0  0  0  0  0  0  0  0  0  0
   37.3230   27.0660   30.8780 C   0  0  0  0  0  0  0  0  0  0  0  0
   36.6510   28.1090   30.2440 C   0  0  0  0  0  0  0  0  0  0  0  0
   37.2590   28.7570   29.2040 N   0  0  0  0  0  0  0  0  0  0  0  0
   38.4910   28.4110   28.7770 C   0  0  0  0  0  0  0  0  0  0  0  0
   39.1510   27.4230   29.3630 N   0  0  0  0  0  0  0  0  0  0  0  0
   39.0940   25.9280   30.9170 H   0  0  0  0  0  0  0  0  0  0  0  0
   35.6650   28.3840   30.5860 H   0  0  0  0  0  0  0  0  0  0  0  0
   39.0020   28.8980   27.9620 H   0  0  0  0  0  0  0  0  0  0  0  0
  1  2  2  0  0  0  0
  1  6  1  0  0  0  0
  2  3  1  0  0  0  0
  3  8  1  0  0  0  0
  3  4  2  0  0  0  0
  4  9  1  0  0  0  0
  5  4  1  0  0  0  0
  5 10  1  0  0  0  0
  6  5  2  0  0  0  0
  7  2  1  0  0  0  0
 10 11  1  0  0  0  0
 11 12  1  0  0  0  0
 11 13  2  0  0  0  0
 14 13  1  0  0  0  0
 14 15  1  0  0  0  0
 16 17  1  0  0  0  0
 16 15  2  0  0  0  0
 18 16  1  0  0  0  0
 19 18  2  0  0  0  0
 19 20  1  0  0  0  0
 20 14  2  0  0  0  0
 21 10  2  0  0  0  0
 21 20  1  0  0  0  0
 22  1  1  0  0  0  0
 23 22  2  0  0  0  0
 24 25  1  0  0  0  0
 24 30  1  0  0  0  0
 25 22  1  0  0  0  0
 26 31  1  0  0  0  0
 26 25  2  0  0  0  0
 27 26  1  0  0  0  0
 28 27  2  0  0  0  0
 28 29  1  0  0  0  0
 29 24  2  0  0  0  0
 32 28  1  0  0  0  0
M  END
>  <minimizedAffinity>
-5.99690199

$$$$

 OpenBabel03262522103D

 32 35  0  0  0  0  0  0  0  0999 V2000
   40.0540   23.1380   37.0470 C   0  0  0  0  0  0  0  0  0  0  0  0
   39.3050   23.0430   38.1940 C   0  0  0  0  0  0  0  0  0  0  0  0
   38.1330   23.7710   38.3000 C   0  0  0  0  0  0  0  0  0  0  0  0
   37.8090   24.5630   37.1890 C   0  0  0  0  0  0  0  0  0  0  0  0
   38.5740   24.6410   36.0550 C   0  0  0  0  0  0  0  0  0  0  0  0
   39.7120   23.9130   35.9940 N   0  0  0  0  0  0  0  0  0  0  0  0
   39.5890   22.4190   39.0300 H   0  0  0  0  0  0  0  0  0  0  0  0
   37.5130   23.7350   39.1680 H   0  0  0  0  0  0  0  0  0  0  0  0
   36.8900   25.1210   37.2990 H   0  0  0  0  0  0  0  0  0  0  0  0
   38.2040   25.4750   34.9220 C   0  0  0  0  0  0  0  0  0  0  0  0
   38.6120   25.2490   33.6250 C   0  0  0  0  0  0  0  0  0  0  0  0
   39.2370   24.4180   33.4060 H   0  0  0  0  0  0  0  0  0  0  0  0
   38.2690   26.0290   32.5480 C   0  0  0  0  0  3  0  0  0  0  0  0
   37.4500   27.1330   32.7750 C   0  0  0  0  0  0  0  0  0  0  0  0
   37.0680   27.9500   31.7730 N   0  0  0  0  0  0  0  0  0  0  0  0
   36.2640   29.0200   32.0480 C   0  0  0  0  0  0  0  0  0  0  0  0
   36.0320   29.5880   31.1760 H   0  0  0  0  0  0  0  0  0  0  0  0
   35.8270   29.2940   33.3280 C   0  0  0  0  0  3  0  0  0  0  0  0
   36.2150   28.4570   34.3740 C   0  0  0  0  0  3  0  0  0  0  0  0
   37.0230   27.3970   34.0400 C   0  0  0  0  0  0  0  0  0  0  0  0
   37.3970   26.5780   35.0990 C   0  0  0  0  0  3  0  0  0  0  0  0
   41.2880   22.3420   36.9900 C   0  0  0  0  0  0  0  0  0  0  0  0
   41.4360   21.3160   37.6490 O   0  0  0  0  0  0  0  0  0  0  0  0
   42.6130   22.1180   34.9020 C   0  0  0  0  0  0  0  0  0  0  0  0
   42.4120   22.7410   36.1360 C   0  0  0  0  0  0  0  0  0  0  0  0
   43.3190   23.7350   36.4980 C   0  0  0  0  0  0  0  0  0  0  0  0
   44.3410   24.0450   35.6440 N   0  0  0  0  0  0  0  0  0  0  0  0
   44.4920   23.4140   34.4620 C   0  0  0  0  0  0  0  0  0  0  0  0
   43.6430   22.4660   34.0940 N   0  0  0  0  0  0  0  0  0  0  0  0
   41.8860   21.3450   34.6510 H   0  0  0  0  0  0  0  0  0  0  0  0
   43.1970   24.2390   37.4440 H   0  0  0  0  0  0  0  0  0  0  0  0
   45.2830   23.6310   33.7620 H   0  0  0  0  0  0  0  0  0  0  0  0
  1  2  1  0  0  0  0
  2  3  2  0  0  0  0
  2  7  1  0  0  0  0
  3  8  1  0  0  0  0
  4  9  1  0  0  0  0
  4  3  1  0  0  0  0
  5  4  2  0  0  0  0
  6  5  1  0  0  0  0
  6  1  2  0  0  0  0
 10 21  1  0  0  0  0
 10  5  1  0  0  0  0
 11 10  2  0  0  0  0
 12 11  1  0  0  0  0
 13 14  2  0  0  0  0
 13 11  1  0  0  0  0
 14 20  1  0  0  0  0
 15 16  2  0  0  0  0
 15 14  1  0  0  0  0
 16 18  1  0  0  0  0
 17 16  1  0  0  0  0
 18 19  2  0  0  0  0
 20 19  1  0  0  0  0
 20 21  2  0  0  0  0
 22  1  1  0  0  0  0
 22 23  2  0  0  0  0
 24 25  1  0  0  0  0
 25 26  2  0  0  0  0
 25 22  1  0  0  0  0
 26 31  1  0  0  0  0
 27 26  1  0  0  0  0
 28 27  2  0  0  0  0
 29 28  1  0  0  0  0
 29 24  2  0  0  0  0
 30 24  1  0  0  0  0
 32 28  1  0  0  0  0
M  END
>  <minimizedAffinity>
-5.93525934

$$$$

 OpenBabel03262522103D

 32 35  0  0  0  0  0  0  0  0999 V2000
   36.6650   28.2400   32.9300 C   0  0  0  0  0  0  0  0  0  0  0  0
   37.3390   28.3350   31.7370 C   0  0  0  0  0  0  0  0  0  0  0  0
   38.4220   27.5060   31.5040 C   0  0  0  0  0  0  0  0  0  0  0  0
   38.7400   26.6180   32.5420 C   0  0  0  0  0  0  0  0  0  0  0  0
   38.0510   26.5440   33.7240 C   0  0  0  0  0  0  0  0  0  0  0  0
   36.9990   27.3730   33.9100 N   0  0  0  0  0  0  0  0  0  0  0  0
   37.0620   29.0340   30.9600 H   0  0  0  0  0  0  0  0  0  0  0  0
   38.9810   27.5370   30.5950 H   0  0  0  0  0  0  0  0  0  0  0  0
   39.5900   25.9830   32.3330 H   0  0  0  0  0  0  0  0  0  0  0  0
   38.4130   25.6080   34.7770 C   0  0  0  0  0  0  0  0  0  0  0  0
   37.6800   25.4150   35.9300 C   0  0  0  0  0  0  0  0  0  0  0  0
   36.7880   25.9710   36.0860 H   0  0  0  0  0  0  0  0  0  0  0  0
   38.0110   24.5350   36.9300 C   0  0  0  0  0  3  0  0  0  0  0  0
   39.1720   23.7780   36.7790 C   0  0  0  0  0  0  0  0  0  0  0  0
   39.5680   22.8920   37.7150 N   0  0  0  0  0  0  0  0  0  0  0  0
   40.7140   22.1750   37.5180 C   0  0  0  0  0  0  0  0  0  0  0  0
   40.9200   21.5100   38.3250 H   0  0  0  0  0  0  0  0  0  0  0  0
   41.4850   22.3290   36.3840 C   0  0  0  0  0  3  0  0  0  0  0  0
   41.0870   23.2420   35.4080 C   0  0  0  0  0  3  0  0  0  0  0  0
   39.9270   23.9350   35.6580 C   0  0  0  0  0  0  0  0  0  0  0  0
   39.5520   24.8400   34.6710 C   0  0  0  0  0  3  0  0  0  0  0  0
   35.5230   29.1450   33.1220 C   0  0  0  0  0  0  0  0  0  0  0  0
   34.3950   28.8680   32.7230 O   0  0  0  0  0  0  0  0  0  0  0  0
   35.8130   30.4810   35.1950 C   0  0  0  0  0  0  0  0  0  0  0  0
   35.6790   30.4330   33.8050 C   0  0  0  0  0  0  0  0  0  0  0  0
   35.7010   31.6500   33.1260 C   0  0  0  0  0  0  0  0  0  0  0  0
   35.8490   32.8070   33.8400 N   0  0  0  0  0  0  0  0  0  0  0  0
   35.9750   32.8000   35.1820 C   0  0  0  0  0  0  0  0  0  0  0  0
   35.9570   31.6570   35.8520 N   0  0  0  0  0  0  0  0  0  0  0  0
   35.7910   29.5120   35.6950 H   0  0  0  0  0  0  0  0  0  0  0  0
   35.6000   31.6540   32.0520 H   0  0  0  0  0  0  0  0  0  0  0  0
   36.0930   33.6910   35.7790 H   0  0  0  0  0  0  0  0  0  0  0  0
  1 22  1  0  0  0  0
  1  6  1  0  0  0  0
  2  1  2  0  0  0  0
  3  2  1  0  0  0  0
  3  4  2  0  0  0  0
  4  5  1  0  0  0  0
  5  6  2  0  0  0  0
  5 10  1  0  0  0  0
  7  2  1  0  0  0  0
  8  3  1  0  0  0  0
  9  4  1  0  0  0  0
 10 11  1  0  0  0  0
 11 12  1  0  0  0  0
 11 13  2  0  0  0  0
 14 13  1  0  0  0  0
 14 15  1  0  0  0  0
 16 15  2  0  0  0  0
 16 17  1  0  0  0  0
 18 16  1  0  0  0  0
 19 20  1  0  0  0  0
 19 18  2  0  0  0  0
 20 14  2  0  0  0  0
 21 10  2  0  0  0  0
 21 20  1  0  0  0  0
 22 25  1  0  0  0  0
 23 22  2  0  0  0  0
 24 30  1  0  0  0  0
 24 29  1  0  0  0  0
 25 24  2  0  0  0  0
 26 25  1  0  0  0  0
 26 27  2  0  0  0  0
 27 28  1  0  0  0  0
 28 32  1  0  0  0  0
 28 29  2  0  0  0  0
 31 26  1  0  0  0  0
M  END
>  <minimizedAffinity>
-5.77959681

$$$$

 OpenBabel03262522103D

 32 35  0  0  0  0  0  0  0  0999 V2000
   37.3150   27.2590   32.0370 C   0  0  0  0  0  0  0  0  0  0  0  0
   37.5810   27.7920   30.8000 C   0  0  0  0  0  0  0  0  0  0  0  0
   37.0030   28.9970   30.4430 C   0  0  0  0  0  0  0  0  0  0  0  0
   36.1720   29.5800   31.4110 C   0  0  0  0  0  0  0  0  0  0  0  0
   35.9220   29.0280   32.6390 C   0  0  0  0  0  0  0  0  0  0  0  0
   36.5080   27.8480   32.9460 N   0  0  0  0  0  0  0  0  0  0  0  0
   38.2290   27.3100   30.0810 H   0  0  0  0  0  0  0  0  0  0  0  0
   37.1750   29.4560   29.4950 H   0  0  0  0  0  0  0  0  0  0  0  0
   35.7340   30.5200   31.1060 H   0  0  0  0  0  0  0  0  0  0  0  0
   35.0530   29.6650   33.6170 C   0  0  0  0  0  0  0  0  0  0  0  0
   33.6970   29.4350   33.7170 C   0  0  0  0  0  0  0  0  0  0  0  0
   33.2280   28.7540   33.0510 H   0  0  0  0  0  0  0  0  0  0  0  0
   32.8680   30.0310   34.6350 C   0  0  0  0  0  3  0  0  0  0  0  0
   33.4290   30.9350   35.5340 C   0  0  0  0  0  0  0  0  0  0  0  0
   32.6840   31.5630   36.4660 N   0  0  0  0  0  0  0  0  0  0  0  0
   33.2820   32.4400   37.3250 C   0  0  0  0  0  0  0  0  0  0  0  0
   32.5910   32.8700   38.0130 H   0  0  0  0  0  0  0  0  0  0  0  0
   34.6360   32.7080   37.2690 C   0  0  0  0  0  3  0  0  0  0  0  0
   35.4180   32.0650   36.3100 C   0  0  0  0  0  3  0  0  0  0  0  0
   34.7640   31.1930   35.4730 C   0  0  0  0  0  0  0  0  0  0  0  0
   35.5640   30.5660   34.5250 C   0  0  0  0  0  3  0  0  0  0  0  0
   37.9570   25.9780   32.3620 C   0  0  0  0  0  0  0  0  0  0  0  0
   39.1200   25.9090   32.7530 O   0  0  0  0  0  0  0  0  0  0  0  0
   37.6920   23.5650   32.8900 C   0  0  0  0  0  0  0  0  0  0  0  0
   37.2320   24.7090   32.2320 C   0  0  0  0  0  0  0  0  0  0  0  0
   36.0770   24.5750   31.4650 C   0  0  0  0  0  0  0  0  0  0  0  0
   35.4630   23.3550   31.3960 N   0  0  0  0  0  0  0  0  0  0  0  0
   35.9460   22.2800   32.0510 C   0  0  0  0  0  0  0  0  0  0  0  0
   37.0440   22.3810   32.7870 N   0  0  0  0  0  0  0  0  0  0  0  0
   38.5980   23.7050   33.4810 H   0  0  0  0  0  0  0  0  0  0  0  0
   35.6910   25.4350   30.9410 H   0  0  0  0  0  0  0  0  0  0  0  0
   35.4910   21.3030   32.0210 H   0  0  0  0  0  0  0  0  0  0  0  0
  1 22  1  0  0  0  0
  1  6  1  0  0  0  0
  2  1  2  0  0  0  0
  3  2  1  0  0  0  0
  3  4  2  0  0  0  0
  4  5  1  0  0  0  0
  5  6  2  0  0  0  0
  5 10  1  0  0  0  0
  7  2  1  0  0  0  0
  8  3  1  0  0  0  0
  9  4  1  0  0  0  0
 10 11  2  0  0  0  0
 10 21  1  0  0  0  0
 11 13  1  0  0  0  0
 12 11  1  0  0  0  0
 13 14  2  0  0  0  0
 14 15  1  0  0  0  0
 15 16  2  0  0  0  0
 16 17  1  0  0  0  0
 18 16  1  0  0  0  0
 19 18  2  0  0  0  0
 20 14  1  0  0  0  0
 20 19  1  0  0  0  0
 21 20  2  0  0  0  0
 22 23  2  0  0  0  0
 24 30  1  0  0  0  0
 25 22  1  0  0  0  0
 25 24  2  0  0  0  0
 26 25  1  0  0  0  0
 27 26  2  0  0  0  0
 27 28  1  0  0  0  0
 28 29  2  0  0  0  0
 29 24  1  0  0  0  0
 31 26  1  0  0  0  0
 32 28  1  0  0  0  0
M  END
>  <minimizedAffinity>
-5.76330614

$$$$

 OpenBabel03262522103D

 32 35  0  0  0  0  0  0  0  0999 V2000
   38.3970   24.4370   35.2860 C   0  0  0  0  0  0  0  0  0  0  0  0
   38.4500   25.0280   36.5240 C   0  0  0  0  0  0  0  0  0  0  0  0
   38.2580   26.3940   36.6320 C   0  0  0  0  0  0  0  0  0  0  0  0
   38.0190   27.0690   35.4260 C   0  0  0  0  0  0  0  0  0  0  0  0
   37.9720   26.4560   34.2020 C   0  0  0  0  0  0  0  0  0  0  0  0
   38.1650   25.1190   34.1420 N   0  0  0  0  0  0  0  0  0  0  0  0
   38.6370   24.4710   37.4320 H   0  0  0  0  0  0  0  0  0  0  0  0
   38.2890   26.9050   37.5680 H   0  0  0  0  0  0  0  0  0  0  0  0
   37.8730   28.1340   35.5390 H   0  0  0  0  0  0  0  0  0  0  0  0
   37.7210   27.1910   32.9720 C   0  0  0  0  0  0  0  0  0  0  0  0
   36.6580   28.0500   32.7830 C   0  0  0  0  0  0  0  0  0  0  0  0
   35.9610   28.2050   33.5700 H   0  0  0  0  0  0  0  0  0  0  0  0
   36.4120   28.7490   31.6280 C   0  0  0  0  0  3  0  0  0  0  0  0
   37.2940   28.5850   30.5620 C   0  0  0  0  0  0  0  0  0  0  0  0
   37.1230   29.2340   29.3930 N   0  0  0  0  0  0  0  0  0  0  0  0
   38.0170   29.0380   28.3790 C   0  0  0  0  0  0  0  0  0  0  0  0
   37.7750   29.6040   27.5090 H   0  0  0  0  0  0  0  0  0  0  0  0
   39.0980   28.1890   28.5130 C   0  0  0  0  0  3  0  0  0  0  0  0
   39.2860   27.5110   29.7170 C   0  0  0  0  0  3  0  0  0  0  0  0
   38.3570   27.7470   30.7020 C   0  0  0  0  0  0  0  0  0  0  0  0
   38.5660   27.0590   31.8920 C   0  0  0  0  0  3  0  0  0  0  0  0
   38.6080   22.9840   35.2320 C   0  0  0  0  0  0  0  0  0  0  0  0
   39.6770   22.4660   35.5440 O   0  0  0  0  0  0  0  0  0  0  0  0
   37.4210   21.7240   33.4510 C   0  0  0  0  0  0  0  0  0  0  0  0
   37.5410   22.0760   34.7980 C   0  0  0  0  0  0  0  0  0  0  0  0
   36.6110   21.5280   35.6800 C   0  0  0  0  0  0  0  0  0  0  0  0
   35.6460   20.6900   35.1920 N   0  0  0  0  0  0  0  0  0  0  0  0
   35.5730   20.3800   33.8820 C   0  0  0  0  0  0  0  0  0  0  0  0
   36.4450   20.8880   33.0230 N   0  0  0  0  0  0  0  0  0  0  0  0
   38.1640   22.1700   32.7900 H   0  0  0  0  0  0  0  0  0  0  0  0
   36.6710   21.7760   36.7280 H   0  0  0  0  0  0  0  0  0  0  0  0
   34.8290   19.7240   33.4610 H   0  0  0  0  0  0  0  0  0  0  0  0
  1  2  1  0  0  0  0
  2  3  2  0  0  0  0
  2  7  1  0  0  0  0
  3  8  1  0  0  0  0
  4  9  1  0  0  0  0
  4  3  1  0  0  0  0
  5  4  2  0  0  0  0
  6  5  1  0  0  0  0
  6  1  2  0  0  0  0
 10  5  1  0  0  0  0
 11 10  1  0  0  0  0
 11 12  1  0  0  0  0
 13 11  2  0  0  0  0
 14 20  1  0  0  0  0
 14 13  1  0  0  0  0
 15 14  2  0  0  0  0
 16 18  2  0  0  0  0
 16 15  1  0  0  0  0
 17 16  1  0  0  0  0
 18 19  1  0  0  0  0
 19 20  2  0  0  0  0
 20 21  1  0  0  0  0
 21 10  2  0  0  0  0
 22  1  1  0  0  0  0
 22 23  2  0  0  0  0
 24 25  1  0  0  0  0
 25 22  1  0  0  0  0
 25 26  2  0  0  0  0
 26 31  1  0  0  0  0
 27 26  1  0  0  0  0
 28 27  2  0  0  0  0
 29 24  2  0  0  0  0
 29 28  1  0  0  0  0
 30 24  1  0  0  0  0
 32 28  1  0  0  0  0
M  END
>  <minimizedAffinity>
-5.75487185

$$$$

 OpenBabel03262522103D

 32 35  0  0  0  0  0  0  0  0999 V2000
   35.4470   29.5550   32.8200 C   0  0  0  0  0  0  0  0  0  0  0  0
   35.8490   29.6980   31.5150 C   0  0  0  0  0  0  0  0  0  0  0  0
   36.8210   28.8540   31.0090 C   0  0  0  0  0  0  0  0  0  0  0  0
   37.3200   27.8990   31.9070 C   0  0  0  0  0  0  0  0  0  0  0  0
   36.9030   27.7770   33.2050 C   0  0  0  0  0  0  0  0  0  0  0  0
   35.9510   28.6230   33.6590 N   0  0  0  0  0  0  0  0  0  0  0  0
   35.4370   30.4480   30.8530 H   0  0  0  0  0  0  0  0  0  0  0  0
   37.1700   28.9200   30.0030 H   0  0  0  0  0  0  0  0  0  0  0  0
   38.0780   27.2530   31.4860 H   0  0  0  0  0  0  0  0  0  0  0  0
   37.4460   26.7720   34.1070 C   0  0  0  0  0  0  0  0  0  0  0  0
   37.8080   27.0170   35.4150 C   0  0  0  0  0  0  0  0  0  0  0  0
   37.6940   27.9920   35.8200 H   0  0  0  0  0  0  0  0  0  0  0  0
   38.3220   26.0770   36.2740 C   0  0  0  0  0  3  0  0  0  0  0  0
   38.4950   24.7790   35.7970 C   0  0  0  0  0  0  0  0  0  0  0  0
   38.9930   23.7980   36.5760 N   0  0  0  0  0  0  0  0  0  0  0  0
   39.1420   22.5410   36.0600 C   0  0  0  0  0  0  0  0  0  0  0  0
   39.5450   21.8570   36.7710 H   0  0  0  0  0  0  0  0  0  0  0  0
   38.7970   22.2420   34.7580 C   0  0  0  0  0  3  0  0  0  0  0  0
   38.2800   23.2480   33.9410 C   0  0  0  0  0  3  0  0  0  0  0  0
   38.1510   24.4910   34.5120 C   0  0  0  0  0  0  0  0  0  0  0  0
   37.6350   25.4760   33.6780 C   0  0  0  0  0  3  0  0  0  0  0  0
   34.4110   30.4790   33.3020 C   0  0  0  0  0  0  0  0  0  0  0  0
   33.4130   30.7470   32.6380 O   0  0  0  0  0  0  0  0  0  0  0  0
   35.5870   31.9960   34.8780 C   0  0  0  0  0  0  0  0  0  0  0  0
   34.5230   31.1310   34.6110 C   0  0  0  0  0  0  0  0  0  0  0  0
   33.6000   30.9290   35.6360 C   0  0  0  0  0  0  0  0  0  0  0  0
   33.7780   31.5760   36.8280 N   0  0  0  0  0  0  0  0  0  0  0  0
   34.8230   32.4020   37.0360 C   0  0  0  0  0  0  0  0  0  0  0  0
   35.7150   32.6110   36.0780 N   0  0  0  0  0  0  0  0  0  0  0  0
   36.2900   32.1310   34.0550 H   0  0  0  0  0  0  0  0  0  0  0  0
   32.7640   30.2680   35.4680 H   0  0  0  0  0  0  0  0  0  0  0  0
   34.9970   32.9290   37.9600 H   0  0  0  0  0  0  0  0  0  0  0  0
  1 22  1  0  0  0  0
  1  6  1  0  0  0  0
  2  1  2  0  0  0  0
  3  2  1  0  0  0  0
  3  4  2  0  0  0  0
  4  5  1  0  0  0  0
  5  6  2  0  0  0  0
  5 10  1  0  0  0  0
  7  2  1  0  0  0  0
  8  3  1  0  0  0  0
  9  4  1  0  0  0  0
 10 11  1  0  0  0  0
 11 12  1  0  0  0  0
 11 13  2  0  0  0  0
 14 13  1  0  0  0  0
 14 15  1  0  0  0  0
 16 15  2  0  0  0  0
 16 17  1  0  0  0  0
 18 16  1  0  0  0  0
 19 20  1  0  0  0  0
 19 18  2  0  0  0  0
 20 14  2  0  0  0  0
 21 10  2  0  0  0  0
 21 20  1  0  0  0  0
 22 25  1  0  0  0  0
 23 22  2  0  0  0  0
 24 29  1  0  0  0  0
 25 24  2  0  0  0  0
 25 26  1  0  0  0  0
 26 27  2  0  0  0  0
 27 28  1  0  0  0  0
 28 32  1  0  0  0  0
 29 28  2  0  0  0  0
 30 24  1  0  0  0  0
 31 26  1  0  0  0  0
M  END
>  <minimizedAffinity>
-5.74608135

$$$$
