REMARK  Name = 
REMARK  5 active torsions:
REMARK  status: ('A' for Active; 'I' for Inactive)
REMARK    1  A    between atoms: C_3  and  C_10
REMARK    2  A    between atoms: C_7  and  N_16
REMARK    3  A    between atoms: C_14  and  C_18
REMARK    4  A    between atoms: C_25  and  O_26
REMARK    5  A    between atoms: O_26  and  C_38
REMARK                            x       y       z     vdW  Elec       q    Type
REMARK                         _______ _______ _______ _____ _____    ______ ____
ROOT
ATOM      1  C   UNL     1      39.189  32.196  42.557  0.00  0.00    +0.000 A 
ATOM      2  C   UNL     1      39.721  31.480  43.617  0.00  0.00    +0.000 A 
ATOM      3  C   UNL     1      40.603  30.459  43.456  0.00  0.00    +0.000 A 
ATOM      4  C   UNL     1      41.012  30.092  42.178  0.00  0.00    +0.000 A 
ATOM      5  N   UNL     1      41.845  29.155  41.731  0.00  0.00    +0.000 N 
ATOM      6  C   UNL     1      41.864  29.250  40.396  0.00  0.00    +0.000 A 
ATOM      7  N   UNL     1      41.045  30.244  40.009  0.00  0.00    +0.000 NA
ATOM      8  C   UNL     1      40.484  30.804  41.115  0.00  0.00    +0.000 A 
ATOM      9  C   UNL     1      39.584  31.847  41.257  0.00  0.00    +0.000 A 
ATOM     10  H   UNL     1      38.498  32.996  42.684  0.00  0.00    +0.000 HD
ATOM     11  H   UNL     1      41.000  29.920  44.299  0.00  0.00    +0.000 HD
ATOM     12  H   UNL     1      42.404  28.453  42.269  0.00  0.00    +0.000 HD
ATOM     13  H   UNL     1      42.377  28.715  39.628  0.00  0.00    +0.000 HD
ENDROOT
BRANCH   2  14
ATOM     14  C   UNL     1      39.264  31.900  44.928  0.00  0.00    +0.000 C 
ATOM     15  O   UNL     1      38.181  32.557  45.049  0.00  0.00    +0.000 OA
ATOM     16  N   UNL     1      39.960  31.625  46.149  0.00  0.00    +0.000 N 
ATOM     17  H   UNL     1      40.834  31.096  46.101  0.00  0.00    +0.000 HD
BRANCH  16  24
ATOM     18  F   UNL     1      38.126  30.143  47.491  0.00  0.00    +0.000 F 
ATOM     19  C   UNL     1      38.385  31.399  47.975  0.00  0.00    +0.000 A 
ATOM     20  C   UNL     1      37.719  31.833  49.087  0.00  0.00    +0.000 A 
ATOM     21  C   UNL     1      38.020  33.093  49.522  0.00  0.00    +0.000 A 
ATOM     22  C   UNL     1      38.935  33.898  48.895  0.00  0.00    +0.000 A 
ATOM     23  C   UNL     1      39.599  33.433  47.765  0.00  0.00    +0.000 A 
ATOM     24  C   UNL     1      39.304  32.154  47.310  0.00  0.00    +0.000 A 
ATOM     25  H   UNL     1      37.500  33.462  50.410  0.00  0.00    +0.000 HD
ATOM     26  H   UNL     1      39.180  34.884  49.222  0.00  0.00    +0.000 HD
ATOM     27  H   UNL     1      40.341  33.969  47.181  0.00  0.00    +0.000 HD
BRANCH  20  30
ATOM     28  C   UNL     1      36.076  29.368  51.441  0.00  0.00    +0.000 A 
ATOM     29  C   UNL     1      37.047  30.223  50.859  0.00  0.00    +0.000 A 
ATOM     30  C   UNL     1      36.754  30.942  49.721  0.00  0.00    +0.000 A 
ATOM     31  N   UNL     1      35.493  30.787  49.187  0.00  0.00    +0.000 NA
ATOM     32  C   UNL     1      34.583  29.972  49.751  0.00  0.00    +0.000 A 
ATOM     33  N   UNL     1      34.870  29.281  50.851  0.00  0.00    +0.000 NA
ATOM     34  H   UNL     1      36.297  28.801  52.334  0.00  0.00    +0.000 HD
ATOM     35  H   UNL     1      38.028  30.318  51.308  0.00  0.00    +0.000 HD
ATOM     36  H   UNL     1      33.658  29.993  49.181  0.00  0.00    +0.000 HD
ENDBRANCH  20  30
ENDBRANCH  16  24
ENDBRANCH   2  14
BRANCH   9  37
ATOM     37  O   UNL     1      39.065  32.549  40.193  0.00  0.00    +0.000 OA
BRANCH  37  38
ATOM     38  C   UNL     1      38.327  32.056  39.157  0.00  0.00    +0.000 A 
ATOM     39  C   UNL     1      37.764  30.784  39.261  0.00  0.00    +0.000 A 
ATOM     40  H   UNL     1      37.914  30.184  40.168  0.00  0.00    +0.000 HD
ATOM     41  C   UNL     1      37.012  30.238  38.249  0.00  0.00    +0.000 A 
ATOM     42  C   UNL     1      36.776  30.926  37.076  0.00  0.00    +0.000 A 
ATOM     43  N   UNL     1      36.052  30.440  36.062  0.00  0.00    +0.000 NA
ATOM     44  C   UNL     1      35.828  31.114  34.926  0.00  0.00    +0.000 A 
ATOM     45  H   UNL     1      35.233  30.708  34.101  0.00  0.00    +0.000 HD
ATOM     46  C   UNL     1      36.349  32.391  34.734  0.00  0.00    +0.000 A 
ATOM     47  C   UNL     1      37.104  32.916  35.772  0.00  0.00    +0.000 A 
ATOM     48  C   UNL     1      37.321  32.205  36.928  0.00  0.00    +0.000 A 
ATOM     49  C   UNL     1      38.071  32.701  37.985  0.00  0.00    +0.000 A 
ENDBRANCH  37  38
ENDBRANCH   9  37
TORSDOF 5
