
 OpenBabel03272501583D

 34 37  0  0  0  0  0  0  0  0999 V2000
   32.8730   27.7430   47.9420 C   0  0  0  0  0  0  0  0  0  0  0  0
   32.2470   26.5250   47.9640 C   0  0  0  0  0  0  0  0  0  0  0  0
   30.9000   26.6720   47.6740 C   0  0  0  0  0  0  0  0  0  0  0  0
   30.7490   27.9960   47.4810 N   0  0  0  0  0  0  0  0  0  0  0  0
   31.8950   28.6310   47.6350 N   0  0  0  0  0  0  0  0  0  0  0  0
   32.6640   25.5360   48.1700 H   0  0  0  0  0  0  0  0  0  0  0  0
   30.0620   25.9920   47.5880 H   0  0  0  0  0  0  0  0  0  0  0  0
   29.6320   28.8170   47.1550 C   0  0  0  0  0  0  0  0  0  0  0  0
   28.5210   28.9400   47.9630 C   0  0  0  0  0  0  0  0  0  0  0  0
   28.5020   28.3890   48.8830 H   0  0  0  0  0  0  0  0  0  0  0  0
   27.5030   29.7750   47.5230 C   0  0  0  0  0  3  0  0  0  0  0  0
   27.5980   30.4510   46.3310 C   0  0  0  0  0  0  0  0  0  0  0  0
   26.5920   31.2480   45.9420 N   0  0  0  0  0  0  0  0  0  0  0  0
   26.6640   31.9220   44.7730 C   0  0  0  0  0  0  0  0  0  0  0  0
   25.8210   32.5690   44.4830 H   0  0  0  0  0  0  0  0  0  0  0  0
   27.7640   31.8200   43.9400 C   0  0  0  0  0  3  0  0  0  0  0  0
   28.8120   31.0080   44.3140 C   0  0  0  0  0  3  0  0  0  0  0  0
   28.7030   30.3380   45.5110 C   0  0  0  0  0  0  0  0  0  0  0  0
   29.7220   29.5010   45.9530 C   0  0  0  0  0  3  0  0  0  0  0  0
   34.3360   27.9820   48.2080 C   0  0  0  0  0  0  0  0  0  0  0  0
   34.9250   27.0560   48.0050 H   0  0  0  0  0  0  0  0  0  0  0  0
   34.6370   28.7770   47.4980 H   0  0  0  0  0  0  0  0  0  0  0  0
   34.4590   28.3600   49.6470 C   0  0  0  0  0  0  0  0  0  0  0  0
   34.4900   27.4740   50.3140 H   0  0  0  0  0  0  0  0  0  0  0  0
   33.6130   28.9980   49.9690 H   0  0  0  0  0  0  0  0  0  0  0  0
   37.2700   30.1420   51.2900 C   0  0  0  0  0  0  0  0  0  0  0  0
   38.0050   30.6070   50.1810 C   0  0  0  0  0  0  0  0  0  0  0  0
   37.5320   30.3070   48.8850 C   0  0  0  0  0  0  0  0  0  0  0  0
   36.3900   29.5840   48.7690 N   0  0  0  0  0  0  0  0  0  0  0  0
   35.7110   29.1540   49.8640 C   0  0  0  0  0  0  0  0  0  0  0  0
   36.1500   29.4320   51.0830 N   0  0  0  0  0  0  0  0  0  0  0  0
   37.6260   30.3670   52.2850 H   0  0  0  0  0  0  0  0  0  0  0  0
   38.9000   31.1740   50.2650 H   0  0  0  0  0  0  0  0  0  0  0  0
   38.0350   30.6250   47.9820 H   0  0  0  0  0  0  0  0  0  0  0  0
  1  2  1  0  0  0  0
  1 20  1  0  0  0  0
  2  6  1  0  0  0  0
  3  2  2  0  0  0  0
  4  5  1  0  0  0  0
  4  3  1  0  0  0  0
  5  1  2  0  0  0  0
  7  3  1  0  0  0  0
  8  4  1  0  0  0  0
  8  9  1  0  0  0  0
  9 10  1  0  0  0  0
 11  9  2  0  0  0  0
 12 11  1  0  0  0  0
 13 12  1  0  0  0  0
 14 13  2  0  0  0  0
 15 14  1  0  0  0  0
 16 17  2  0  0  0  0
 16 14  1  0  0  0  0
 17 18  1  0  0  0  0
 18 19  1  0  0  0  0
 18 12  2  0  0  0  0
 19  8  2  0  0  0  0
 20 23  1  0  0  0  0
 21 20  1  0  0  0  0
 22 20  1  0  0  0  0
 23 30  1  0  0  0  0
 23 25  1  0  0  0  0
 23 24  1  0  0  0  0
 26 32  1  0  0  0  0
 27 33  1  0  0  0  0
 27 26  2  0  0  0  0
 28 27  1  0  0  0  0
 29 28  2  0  0  0  0
 29 30  1  0  0  0  0
 30 31  2  0  0  0  0
 31 26  1  0  0  0  0
 34 28  1  0  0  0  0
M  END
>  <minimizedAffinity>
-5.55286407

>  <minimizedRMSD>
1.50656676

$$$$
