
 OpenBabel03272501363D

 39 43  0  0  1  0  0  0  0  0999 V2000
   37.6990   30.8630   50.6380 C   0  0  0  0  0  0  0  0  0  0  0  0
   38.4300   31.5310   49.6820 C   0  0  0  0  0  0  0  0  0  0  0  0
   38.0520   31.5660   48.3230 C   0  0  0  0  0  0  0  0  0  0  0  0
   36.9560   30.9230   48.0170 N   0  0  0  0  0  0  0  0  0  0  0  0
   36.2340   30.2590   48.9780 C   0  0  0  0  0  0  0  0  0  0  0  0
   36.5750   30.2170   50.2550 N   0  0  0  0  0  0  0  0  0  0  0  0
   38.0340   30.8690   51.6630 H   0  0  0  0  0  0  0  0  0  0  0  0
   39.3280   32.0480   49.9920 H   0  0  0  0  0  0  0  0  0  0  0  0
   35.0190   29.5670   48.5310 C   0  0  0  0  0  0  0  0  0  0  0  0
   34.5840   28.3950   49.1130 C   0  0  0  0  0  0  0  0  0  0  0  0
   35.1730   27.9760   49.9340 H   0  0  0  0  0  0  0  0  0  0  0  0
   33.4420   27.7470   48.6900 C   0  0  0  0  0  0  0  0  0  0  0  0
   32.6830   28.2550   47.6560 C   0  0  0  0  0  0  0  0  0  0  0  0
   31.5640   27.6700   47.2030 N   0  0  0  0  0  0  0  0  0  0  0  0
   30.8100   28.1480   46.1960 C   0  0  0  0  0  0  0  0  0  0  0  0
   29.9120   27.6480   45.8580 H   0  0  0  0  0  0  0  0  0  0  0  0
   31.2470   29.3220   45.6170 C   0  0  0  0  0  0  0  0  0  0  0  0
   32.3820   30.0170   45.9950 C   0  0  0  0  0  0  0  0  0  0  0  0
   33.1010   29.4430   47.0490 C   0  0  0  0  0  0  0  0  0  0  0  0
   34.2620   30.0800   47.4960 C   0  0  0  0  0  0  0  0  0  0  0  0
   38.8940   32.2620   47.3950 C   0  0  1  0  0  0  0  0  0  0  0  0
   39.5640   33.3250   47.6850 O   0  0  0  0  0  0  0  0  0  0  0  0
   39.0000   31.6990   45.9960 C   0  0  2  0  0  0  0  0  0  0  0  0
   40.5050   31.2110   45.7990 C   0  0  0  0  0  0  0  0  0  0  0  0
   39.8370   32.3180   45.0250 C   0  0  1  0  0  0  0  0  0  0  0  0
   38.3250   30.8310   45.8320 H   0  0  0  0  0  0  0  0  0  0  0  0
   40.5820   30.2100   45.3540 H   0  0  0  0  0  0  0  0  0  0  0  0
   41.2220   31.4520   46.5710 H   0  0  0  0  0  0  0  0  0  0  0  0
   40.2560   33.3380   45.2920 H   0  0  0  0  0  0  0  0  0  0  0  0
   39.7670   32.1180   43.5740 C   0  0  0  0  0  0  0  0  0  0  0  0
   39.0410   33.0380   42.8290 C   0  0  0  0  0  0  0  0  0  0  0  0
   38.9790   32.8340   41.4760 C   0  0  0  0  0  0  0  0  0  0  0  0
   39.6050   31.7630   40.8540 C   0  0  0  0  0  0  0  0  0  0  0  0
   40.3110   30.8770   41.6290 C   0  0  0  0  0  0  0  0  0  0  0  0
   40.3810   31.0640   42.9550 N   0  0  0  0  0  0  0  0  0  0  0  0
   38.5450   33.8790   43.2840 H   0  0  0  0  0  0  0  0  0  0  0  0
   38.4160   33.5430   40.8840 H   0  0  0  0  0  0  0  0  0  0  0  0
   39.5510   31.6090   39.7930 H   0  0  0  0  0  0  0  0  0  0  0  0
   40.8000   30.0460   41.1570 H   0  0  0  0  0  0  0  0  0  0  0  0
  1  7  1  0  0  0  0
  2  8  1  0  0  0  0
  2  1  2  0  0  0  0
  3  2  1  0  0  0  0
  4  3  2  0  0  0  0
  4  5  1  0  0  0  0
  5  6  2  0  0  0  0
  6  1  1  0  0  0  0
  9  5  1  0  0  0  0
  9 10  1  0  0  0  0
 10 11  1  0  0  0  0
 12 10  2  0  0  0  0
 13 12  1  0  0  0  0
 14 13  1  0  0  0  0
 15 14  2  0  0  0  0
 16 15  1  0  0  0  0
 17 18  2  0  0  0  0
 17 15  1  0  0  0  0
 18 19  1  0  0  0  0
 19 20  1  0  0  0  0
 19 13  2  0  0  0  0
 20  9  2  0  0  0  0
 21 22  1  1  0  0  0
 21  3  1  0  0  0  0
 23 26  1  6  0  0  0
 23 21  1  0  0  0  0
 24 23  1  0  0  0  0
 24 28  1  0  0  0  0
 25 29  1  1  0  0  0
 25 24  1  0  0  0  0
 25 23  1  0  0  0  0
 27 24  1  0  0  0  0
 30 25  1  0  0  0  0
 31 36  1  0  0  0  0
 31 30  2  0  0  0  0
 32 31  1  0  0  0  0
 33 32  2  0  0  0  0
 33 34  1  0  0  0  0
 34 35  2  0  0  0  0
 35 30  1  0  0  0  0
 37 32  1  0  0  0  0
 38 33  1  0  0  0  0
 39 34  1  0  0  0  0
M  END
>  <minimizedAffinity>
-6.9027319

>  <minimizedRMSD>
1.89586484

$$$$
