
 OpenBabel03272500363D

 24 26  0  0  0  0  0  0  0  0999 V2000
   38.4200   23.8600   36.9880 C   0  0  0  0  0  0  0  0  0  0  0  0
   39.0700   22.7920   36.3550 C   0  0  0  0  0  0  0  0  0  0  0  0
   39.2240   22.8470   34.9630 C   0  0  0  0  0  0  0  0  0  0  0  0
   38.7280   23.9440   34.3080 N   0  0  0  0  0  0  0  0  0  0  0  0
   38.1110   24.9470   34.9610 C   0  0  0  0  0  0  0  0  0  0  0  0
   37.9560   24.9080   36.2930 N   0  0  0  0  0  0  0  0  0  0  0  0
   39.4420   21.9520   36.9050 H   0  0  0  0  0  0  0  0  0  0  0  0
   39.7170   22.0550   34.4150 H   0  0  0  0  0  0  0  0  0  0  0  0
   37.5970   26.1010   34.2190 C   0  0  0  0  0  0  0  0  0  0  0  0
   36.9660   27.1290   34.9130 C   0  0  0  0  0  0  0  0  0  0  0  0
   36.8530   27.0800   35.9990 H   0  0  0  0  0  0  0  0  0  0  0  0
   36.4690   28.2350   34.2410 C   0  0  0  0  0  3  0  0  0  0  0  0
   36.5940   28.3310   32.8730 C   0  0  0  0  0  0  0  0  0  0  0  0
   36.1270   29.3810   32.1950 N   0  0  0  0  0  0  0  0  0  0  0  0
   36.2490   29.4740   30.8610 C   0  0  0  0  0  0  0  0  0  0  0  0
   35.8270   30.3750   30.4470 H   0  0  0  0  0  0  0  0  0  0  0  0
   36.8620   28.4960   30.0930 C   0  0  0  0  0  3  0  0  0  0  0  0
   37.3410   27.4160   30.8000 C   0  0  0  0  0  3  0  0  0  0  0  0
   37.2250   27.3020   32.1700 C   0  0  0  0  0  0  0  0  0  0  0  0
   37.7110   26.2160   32.8540 C   0  0  0  0  0  3  0  0  0  0  0  0
   38.2560   23.7950   38.4850 C   0  0  0  0  0  0  0  0  0  0  0  0
   37.9320   25.0500   38.9620 F   0  0  0  0  0  0  0  0  0  0  0  0
   37.3170   22.8470   38.7530 F   0  0  0  0  0  0  0  0  0  0  0  0
   39.4950   23.4740   39.0190 F   0  0  0  0  0  0  0  0  0  0  0  0
  1 21  1  0  0  0  0
  2  7  1  0  0  0  0
  2  1  1  0  0  0  0
  3  2  2  0  0  0  0
  4  5  2  0  0  0  0
  4  3  1  0  0  0  0
  5  6  1  0  0  0  0
  6  1  2  0  0  0  0
  8  3  1  0  0  0  0
  9 10  1  0  0  0  0
  9  5  1  0  0  0  0
 10 11  1  0  0  0  0
 12 10  2  0  0  0  0
 13 12  1  0  0  0  0
 14 13  1  0  0  0  0
 15 14  2  0  0  0  0
 16 15  1  0  0  0  0
 17 18  2  0  0  0  0
 17 15  1  0  0  0  0
 18 19  1  0  0  0  0
 19 20  1  0  0  0  0
 19 13  2  0  0  0  0
 20  9  2  0  0  0  0
 21 23  1  0  0  0  0
 21 22  1  0  0  0  0
 21 24  1  0  0  0  0
M  END
>  <minimizedAffinity>
-6.16007566

$$$$

 OpenBabel03272500363D

 24 26  0  0  0  0  0  0  0  0999 V2000
   38.4480   23.8230   36.9960 C   0  0  0  0  0  0  0  0  0  0  0  0
   39.0580   22.6990   36.4240 C   0  0  0  0  0  0  0  0  0  0  0  0
   39.2420   22.6860   35.0350 C   0  0  0  0  0  0  0  0  0  0  0  0
   38.8140   23.7760   34.3230 N   0  0  0  0  0  0  0  0  0  0  0  0
   38.2330   24.8350   34.9190 C   0  0  0  0  0  0  0  0  0  0  0  0
   38.0500   24.8610   36.2480 N   0  0  0  0  0  0  0  0  0  0  0  0
   39.3770   21.8670   37.0170 H   0  0  0  0  0  0  0  0  0  0  0  0
   39.7060   21.8480   34.5320 H   0  0  0  0  0  0  0  0  0  0  0  0
   37.7920   25.9800   34.1170 C   0  0  0  0  0  0  0  0  0  0  0  0
   38.1540   26.0480   32.7750 C   0  0  0  0  0  0  0  0  0  0  0  0
   38.7600   25.2610   32.3200 H   0  0  0  0  0  0  0  0  0  0  0  0
   37.7520   27.1170   31.9890 C   0  0  0  0  0  3  0  0  0  0  0  0
   36.9880   28.1280   32.5280 C   0  0  0  0  0  0  0  0  0  0  0  0
   36.5850   29.1710   31.8000 N   0  0  0  0  0  0  0  0  0  0  0  0
   35.8390   30.1560   32.3260 C   0  0  0  0  0  0  0  0  0  0  0  0
   35.5870   30.9330   31.6240 H   0  0  0  0  0  0  0  0  0  0  0  0
   35.4360   30.1660   33.6530 C   0  0  0  0  0  3  0  0  0  0  0  0
   35.8560   29.0860   34.3960 C   0  0  0  0  0  3  0  0  0  0  0  0
   36.6220   28.0650   33.8740 C   0  0  0  0  0  0  0  0  0  0  0  0
   37.0300   26.9980   34.6350 C   0  0  0  0  0  3  0  0  0  0  0  0
   38.2510   23.8320   38.4910 C   0  0  0  0  0  0  0  0  0  0  0  0
   37.9270   25.1110   38.9000 F   0  0  0  0  0  0  0  0  0  0  0  0
   37.2980   22.9050   38.7830 F   0  0  0  0  0  0  0  0  0  0  0  0
   39.4750   23.5260   39.0670 F   0  0  0  0  0  0  0  0  0  0  0  0
  1 21  1  0  0  0  0
  2  1  1  0  0  0  0
  2  7  1  0  0  0  0
  3  2  2  0  0  0  0
  4  5  2  0  0  0  0
  4  3  1  0  0  0  0
  5  6  1  0  0  0  0
  6  1  2  0  0  0  0
  8  3  1  0  0  0  0
  9 20  1  0  0  0  0
  9  5  1  0  0  0  0
 10  9  2  0  0  0  0
 11 10  1  0  0  0  0
 12 13  2  0  0  0  0
 12 10  1  0  0  0  0
 13 19  1  0  0  0  0
 14 15  2  0  0  0  0
 14 13  1  0  0  0  0
 15 17  1  0  0  0  0
 16 15  1  0  0  0  0
 17 18  2  0  0  0  0
 19 18  1  0  0  0  0
 19 20  2  0  0  0  0
 21 23  1  0  0  0  0
 21 22  1  0  0  0  0
 21 24  1  0  0  0  0
M  END
>  <minimizedAffinity>
-6.11487246

$$$$

 OpenBabel03272500363D

 24 26  0  0  0  0  0  0  0  0999 V2000
   35.9530   29.0090   33.9250 C   0  0  0  0  0  0  0  0  0  0  0  0
   35.5530   28.8560   32.5910 C   0  0  0  0  0  0  0  0  0  0  0  0
   35.9500   27.6940   31.9150 C   0  0  0  0  0  0  0  0  0  0  0  0
   36.7040   26.7800   32.6040 N   0  0  0  0  0  0  0  0  0  0  0  0
   37.0640   26.9720   33.8870 C   0  0  0  0  0  0  0  0  0  0  0  0
   36.6910   28.0800   34.5470 N   0  0  0  0  0  0  0  0  0  0  0  0
   34.9630   29.5950   32.0890 H   0  0  0  0  0  0  0  0  0  0  0  0
   35.6740   27.5150   30.8840 H   0  0  0  0  0  0  0  0  0  0  0  0
   37.8710   25.9670   34.5830 C   0  0  0  0  0  0  0  0  0  0  0  0
   38.9410   25.3770   33.9190 C   0  0  0  0  0  0  0  0  0  0  0  0
   39.1810   25.6560   32.8900 H   0  0  0  0  0  0  0  0  0  0  0  0
   39.7250   24.4230   34.5490 C   0  0  0  0  0  3  0  0  0  0  0  0
   39.4530   24.0460   35.8460 C   0  0  0  0  0  0  0  0  0  0  0  0
   40.1870   23.1310   36.4820 N   0  0  0  0  0  0  0  0  0  0  0  0
   39.9220   22.7640   37.7460 C   0  0  0  0  0  0  0  0  0  0  0  0
   40.5950   22.0170   38.1330 H   0  0  0  0  0  0  0  0  0  0  0  0
   38.8750   23.3020   38.4790 C   0  0  0  0  0  3  0  0  0  0  0  0
   38.1230   24.2450   37.8160 C   0  0  0  0  0  3  0  0  0  0  0  0
   38.3800   24.6340   36.5180 C   0  0  0  0  0  0  0  0  0  0  0  0
   37.6160   25.5770   35.8760 C   0  0  0  0  0  3  0  0  0  0  0  0
   35.5230   30.2610   34.6480 C   0  0  0  0  0  0  0  0  0  0  0  0
   35.6870   31.3480   33.8110 F   0  0  0  0  0  0  0  0  0  0  0  0
   34.2390   30.0750   35.0600 F   0  0  0  0  0  0  0  0  0  0  0  0
   36.3960   30.4400   35.7110 F   0  0  0  0  0  0  0  0  0  0  0  0
  1  6  1  0  0  0  0
  1 21  1  0  0  0  0
  2  1  2  0  0  0  0
  3  2  1  0  0  0  0
  3  4  2  0  0  0  0
  4  5  1  0  0  0  0
  5  6  2  0  0  0  0
  5  9  1  0  0  0  0
  7  2  1  0  0  0  0
  8  3  1  0  0  0  0
  9 20  1  0  0  0  0
 10 12  1  0  0  0  0
 10  9  2  0  0  0  0
 11 10  1  0  0  0  0
 12 13  2  0  0  0  0
 13 14  1  0  0  0  0
 13 19  1  0  0  0  0
 14 15  2  0  0  0  0
 15 16  1  0  0  0  0
 15 17  1  0  0  0  0
 18 17  2  0  0  0  0
 19 18  1  0  0  0  0
 20 19  2  0  0  0  0
 21 23  1  0  0  0  0
 21 24  1  0  0  0  0
 22 21  1  0  0  0  0
M  END
>  <minimizedAffinity>
-5.86958885

$$$$

 OpenBabel03272500363D

 24 26  0  0  0  0  0  0  0  0999 V2000
   40.0060   23.0500   37.0470 C   0  0  0  0  0  0  0  0  0  0  0  0
   39.3470   23.0190   38.2830 C   0  0  0  0  0  0  0  0  0  0  0  0
   38.1810   23.7830   38.4270 C   0  0  0  0  0  0  0  0  0  0  0  0
   37.7590   24.5130   37.3460 N   0  0  0  0  0  0  0  0  0  0  0  0
   38.4260   24.5100   36.1770 C   0  0  0  0  0  0  0  0  0  0  0  0
   39.5440   23.7830   36.0250 N   0  0  0  0  0  0  0  0  0  0  0  0
   39.7120   22.4350   39.1030 H   0  0  0  0  0  0  0  0  0  0  0  0
   37.6270   23.8030   39.3560 H   0  0  0  0  0  0  0  0  0  0  0  0
   37.9360   25.3060   35.0480 C   0  0  0  0  0  0  0  0  0  0  0  0
   38.0830   24.8120   33.7560 C   0  0  0  0  0  0  0  0  0  0  0  0
   38.5570   23.8440   33.5790 H   0  0  0  0  0  0  0  0  0  0  0  0
   37.6290   25.5400   32.6660 C   0  0  0  0  0  3  0  0  0  0  0  0
   37.0260   26.7640   32.8490 C   0  0  0  0  0  0  0  0  0  0  0  0
   36.5790   27.4900   31.8240 N   0  0  0  0  0  0  0  0  0  0  0  0
   35.9910   28.6840   32.0030 C   0  0  0  0  0  0  0  0  0  0  0  0
   35.6800   29.1580   31.0870 H   0  0  0  0  0  0  0  0  0  0  0  0
   35.8070   29.2480   33.2560 C   0  0  0  0  0  3  0  0  0  0  0  0
   36.2700   28.4930   34.3090 C   0  0  0  0  0  3  0  0  0  0  0  0
   36.8770   27.2650   34.1440 C   0  0  0  0  0  0  0  0  0  0  0  0
   37.3320   26.5290   35.2100 C   0  0  0  0  0  3  0  0  0  0  0  0
   41.2600   22.2260   36.8980 C   0  0  0  0  0  0  0  0  0  0  0  0
   42.3510   23.0680   36.8150 F   0  0  0  0  0  0  0  0  0  0  0  0
   41.3110   21.3650   37.9510 F   0  0  0  0  0  0  0  0  0  0  0  0
   41.1730   21.5640   35.6820 F   0  0  0  0  0  0  0  0  0  0  0  0
  1  2  1  0  0  0  0
  2  3  2  0  0  0  0
  2  7  1  0  0  0  0
  3  8  1  0  0  0  0
  4  3  1  0  0  0  0
  5  4  2  0  0  0  0
  6  5  1  0  0  0  0
  6  1  2  0  0  0  0
  9 20  1  0  0  0  0
  9  5  1  0  0  0  0
 10  9  2  0  0  0  0
 11 10  1  0  0  0  0
 12 13  2  0  0  0  0
 12 10  1  0  0  0  0
 13 19  1  0  0  0  0
 14 15  2  0  0  0  0
 14 13  1  0  0  0  0
 15 17  1  0  0  0  0
 16 15  1  0  0  0  0
 17 18  2  0  0  0  0
 19 18  1  0  0  0  0
 19 20  2  0  0  0  0
 21  1  1  0  0  0  0
 21 23  1  0  0  0  0
 22 21  1  0  0  0  0
 24 21  1  0  0  0  0
M  END
>  <minimizedAffinity>
-5.80280972

$$$$

 OpenBabel03272500363D

 24 26  0  0  0  0  0  0  0  0999 V2000
   38.1980   24.0550   36.9050 C   0  0  0  0  0  0  0  0  0  0  0  0
   38.3040   25.3730   36.4380 C   0  0  0  0  0  0  0  0  0  0  0  0
   38.2400   25.5870   35.0540 C   0  0  0  0  0  0  0  0  0  0  0  0
   38.0780   24.4920   34.2450 N   0  0  0  0  0  0  0  0  0  0  0  0
   37.9800   23.2450   34.7410 C   0  0  0  0  0  0  0  0  0  0  0  0
   38.0400   23.0240   36.0630 N   0  0  0  0  0  0  0  0  0  0  0  0
   38.4310   26.2000   37.1040 H   0  0  0  0  0  0  0  0  0  0  0  0
   38.3150   26.5790   34.6290 H   0  0  0  0  0  0  0  0  0  0  0  0
   37.8070   22.1050   33.8370 C   0  0  0  0  0  0  0  0  0  0  0  0
   38.8090   21.8070   32.9190 C   0  0  0  0  0  0  0  0  0  0  0  0
   39.7170   22.4130   32.8700 H   0  0  0  0  0  0  0  0  0  0  0  0
   38.6760   20.7350   32.0500 C   0  0  0  0  0  3  0  0  0  0  0  0
   37.5460   19.9480   32.0840 C   0  0  0  0  0  0  0  0  0  0  0  0
   37.3860   18.9100   31.2630 N   0  0  0  0  0  0  0  0  0  0  0  0
   36.2850   18.1430   31.2960 C   0  0  0  0  0  0  0  0  0  0  0  0
   36.2900   17.3410   30.5770 H   0  0  0  0  0  0  0  0  0  0  0  0
   35.2390   18.3700   32.1780 C   0  0  0  0  0  3  0  0  0  0  0  0
   35.4120   19.4430   33.0230 C   0  0  0  0  0  3  0  0  0  0  0  0
   36.5370   20.2430   33.0030 C   0  0  0  0  0  0  0  0  0  0  0  0
   36.6880   21.3080   33.8550 C   0  0  0  0  0  3  0  0  0  0  0  0
   38.2680   23.8300   38.3940 C   0  0  0  0  0  0  0  0  0  0  0  0
   38.1110   25.0380   39.0440 F   0  0  0  0  0  0  0  0  0  0  0  0
   37.3180   22.9090   38.7130 F   0  0  0  0  0  0  0  0  0  0  0  0
   39.5500   23.3850   38.6810 F   0  0  0  0  0  0  0  0  0  0  0  0
  1 21  1  0  0  0  0
  2  1  1  0  0  0  0
  2  7  1  0  0  0  0
  3  2  2  0  0  0  0
  4  5  2  0  0  0  0
  4  3  1  0  0  0  0
  5  6  1  0  0  0  0
  6  1  2  0  0  0  0
  8  3  1  0  0  0  0
  9 20  1  0  0  0  0
  9  5  1  0  0  0  0
 10  9  2  0  0  0  0
 11 10  1  0  0  0  0
 12 13  2  0  0  0  0
 12 10  1  0  0  0  0
 13 19  1  0  0  0  0
 14 15  2  0  0  0  0
 14 13  1  0  0  0  0
 15 17  1  0  0  0  0
 16 15  1  0  0  0  0
 17 18  2  0  0  0  0
 19 18  1  0  0  0  0
 19 20  2  0  0  0  0
 21 24  1  0  0  0  0
 21 23  1  0  0  0  0
 21 22  1  0  0  0  0
M  END
>  <minimizedAffinity>
-5.7304492

$$$$

 OpenBabel03272500363D

 24 26  0  0  0  0  0  0  0  0999 V2000
   36.8530   28.6130   31.9700 C   0  0  0  0  0  0  0  0  0  0  0  0
   35.9210   29.4140   32.6450 C   0  0  0  0  0  0  0  0  0  0  0  0
   35.6940   29.1550   34.0040 C   0  0  0  0  0  0  0  0  0  0  0  0
   36.3980   28.1330   34.5860 N   0  0  0  0  0  0  0  0  0  0  0  0
   37.2840   27.3910   33.8950 C   0  0  0  0  0  0  0  0  0  0  0  0
   37.5120   27.6280   32.5940 N   0  0  0  0  0  0  0  0  0  0  0  0
   35.3920   30.2020   32.1520 H   0  0  0  0  0  0  0  0  0  0  0  0
   34.9880   29.7360   34.5820 H   0  0  0  0  0  0  0  0  0  0  0  0
   38.0150   26.3090   34.5600 C   0  0  0  0  0  0  0  0  0  0  0  0
   39.0930   25.7180   33.9090 C   0  0  0  0  0  0  0  0  0  0  0  0
   39.3960   26.0540   32.9140 H   0  0  0  0  0  0  0  0  0  0  0  0
   39.8060   24.6930   34.5110 C   0  0  0  0  0  3  0  0  0  0  0  0
   39.4550   24.2440   35.7650 C   0  0  0  0  0  0  0  0  0  0  0  0
   40.1190   23.2590   36.3720 N   0  0  0  0  0  0  0  0  0  0  0  0
   39.7760   22.8220   37.5940 C   0  0  0  0  0  0  0  0  0  0  0  0
   40.3980   22.0230   37.9620 H   0  0  0  0  0  0  0  0  0  0  0  0
   38.7140   23.3540   38.3110 C   0  0  0  0  0  3  0  0  0  0  0  0
   38.0350   24.3700   37.6780 C   0  0  0  0  0  3  0  0  0  0  0  0
   38.3730   24.8320   36.4220 C   0  0  0  0  0  0  0  0  0  0  0  0
   37.6800   25.8470   35.8100 C   0  0  0  0  0  3  0  0  0  0  0  0
   37.0940   28.8960   30.5090 C   0  0  0  0  0  0  0  0  0  0  0  0
   36.4110   30.0420   30.1490 F   0  0  0  0  0  0  0  0  0  0  0  0
   38.4400   28.9800   30.3250 F   0  0  0  0  0  0  0  0  0  0  0  0
   36.5290   27.8520   29.7910 F   0  0  0  0  0  0  0  0  0  0  0  0
  1  6  2  0  0  0  0
  1  2  1  0  0  0  0
  2  3  2  0  0  0  0
  3  8  1  0  0  0  0
  3  4  1  0  0  0  0
  5  9  1  0  0  0  0
  5  4  2  0  0  0  0
  6  5  1  0  0  0  0
  7  2  1  0  0  0  0
  9 20  1  0  0  0  0
 10 12  1  0  0  0  0
 10  9  2  0  0  0  0
 11 10  1  0  0  0  0
 12 13  2  0  0  0  0
 13 14  1  0  0  0  0
 13 19  1  0  0  0  0
 14 15  2  0  0  0  0
 15 16  1  0  0  0  0
 15 17  1  0  0  0  0
 18 17  2  0  0  0  0
 19 18  1  0  0  0  0
 20 19  2  0  0  0  0
 21  1  1  0  0  0  0
 22 21  1  0  0  0  0
 23 21  1  0  0  0  0
 24 21  1  0  0  0  0
M  END
>  <minimizedAffinity>
-5.49709654

$$$$

 OpenBabel03272500363D

 24 26  0  0  0  0  0  0  0  0999 V2000
   40.0040   23.1190   36.9440 C   0  0  0  0  0  0  0  0  0  0  0  0
   39.1910   22.9770   38.0760 C   0  0  0  0  0  0  0  0  0  0  0  0
   38.0320   23.7620   38.1560 C   0  0  0  0  0  0  0  0  0  0  0  0
   37.7680   24.6190   37.1200 N   0  0  0  0  0  0  0  0  0  0  0  0
   38.5800   24.7200   36.0510 C   0  0  0  0  0  0  0  0  0  0  0  0
   39.6930   23.9750   35.9610 N   0  0  0  0  0  0  0  0  0  0  0  0
   39.4340   22.2960   38.8650 H   0  0  0  0  0  0  0  0  0  0  0  0
   37.3620   23.7000   39.0040 H   0  0  0  0  0  0  0  0  0  0  0  0
   38.2570   25.6500   34.9660 C   0  0  0  0  0  0  0  0  0  0  0  0
   37.2900   26.6280   35.1760 C   0  0  0  0  0  0  0  0  0  0  0  0
   36.7760   26.7060   36.1370 H   0  0  0  0  0  0  0  0  0  0  0  0
   36.9610   27.5240   34.1710 C   0  0  0  0  0  3  0  0  0  0  0  0
   37.5890   27.4570   32.9470 C   0  0  0  0  0  0  0  0  0  0  0  0
   37.2960   28.3030   31.9580 N   0  0  0  0  0  0  0  0  0  0  0  0
   37.9090   28.2370   30.7650 C   0  0  0  0  0  0  0  0  0  0  0  0
   37.5740   28.9810   30.0620 H   0  0  0  0  0  0  0  0  0  0  0  0
   38.8820   27.2930   30.4720 C   0  0  0  0  0  3  0  0  0  0  0  0
   39.1780   26.4250   31.4980 C   0  0  0  0  0  3  0  0  0  0  0  0
   38.5590   26.4770   32.7300 C   0  0  0  0  0  0  0  0  0  0  0  0
   38.8710   25.6000   33.7380 C   0  0  0  0  0  3  0  0  0  0  0  0
   41.2490   22.2730   36.8630 C   0  0  0  0  0  0  0  0  0  0  0  0
   41.2910   21.4190   37.9470 F   0  0  0  0  0  0  0  0  0  0  0  0
   41.2310   21.6330   35.6610 F   0  0  0  0  0  0  0  0  0  0  0  0
   42.3340   23.1290   36.9860 F   0  0  0  0  0  0  0  0  0  0  0  0
  1  2  1  0  0  0  0
  2  3  2  0  0  0  0
  2  7  1  0  0  0  0
  3  8  1  0  0  0  0
  4  3  1  0  0  0  0
  5  4  2  0  0  0  0
  6  5  1  0  0  0  0
  6  1  2  0  0  0  0
  9 10  1  0  0  0  0
  9  5  1  0  0  0  0
 10 11  1  0  0  0  0
 12 10  2  0  0  0  0
 13 12  1  0  0  0  0
 14 13  2  0  0  0  0
 15 14  1  0  0  0  0
 16 15  1  0  0  0  0
 17 15  2  0  0  0  0
 17 18  1  0  0  0  0
 18 19  2  0  0  0  0
 19 13  1  0  0  0  0
 19 20  1  0  0  0  0
 20  9  2  0  0  0  0
 21  1  1  0  0  0  0
 21 24  1  0  0  0  0
 21 22  1  0  0  0  0
 23 21  1  0  0  0  0
M  END
>  <minimizedAffinity>
-5.47331047

$$$$

 OpenBabel03272500363D

 24 26  0  0  0  0  0  0  0  0999 V2000
   36.6600   26.6160   32.6470 C   0  0  0  0  0  0  0  0  0  0  0  0
   36.3070   27.8700   33.1650 C   0  0  0  0  0  0  0  0  0  0  0  0
   36.6620   28.1570   34.4910 C   0  0  0  0  0  0  0  0  0  0  0  0
   37.3330   27.1920   35.1960 N   0  0  0  0  0  0  0  0  0  0  0  0
   37.6510   26.0020   34.6530 C   0  0  0  0  0  0  0  0  0  0  0  0
   37.3180   25.7120   33.3860 N   0  0  0  0  0  0  0  0  0  0  0  0
   35.7820   28.5950   32.5800 H   0  0  0  0  0  0  0  0  0  0  0  0
   36.4190   29.1060   34.9500 H   0  0  0  0  0  0  0  0  0  0  0  0
   38.3710   25.0000   35.4460 C   0  0  0  0  0  0  0  0  0  0  0  0
   37.8500   24.6050   36.6740 C   0  0  0  0  0  0  0  0  0  0  0  0
   36.9160   25.0330   37.0470 H   0  0  0  0  0  0  0  0  0  0  0  0
   38.5060   23.6600   37.4480 C   0  0  0  0  0  3  0  0  0  0  0  0
   39.6850   23.0990   37.0090 C   0  0  0  0  0  0  0  0  0  0  0  0
   40.3410   22.1870   37.7290 N   0  0  0  0  0  0  0  0  0  0  0  0
   41.4900   21.6400   37.3010 C   0  0  0  0  0  0  0  0  0  0  0  0
   41.9100   20.9190   37.9830 H   0  0  0  0  0  0  0  0  0  0  0  0
   42.0770   21.9780   36.0910 C   0  0  0  0  0  3  0  0  0  0  0  0
   41.3940   22.9190   35.3550 C   0  0  0  0  0  3  0  0  0  0  0  0
   40.2120   23.4920   35.7780 C   0  0  0  0  0  0  0  0  0  0  0  0
   39.5480   24.4290   35.0270 C   0  0  0  0  0  3  0  0  0  0  0  0
   36.2760   26.3120   31.2210 C   0  0  0  0  0  0  0  0  0  0  0  0
   34.9270   26.0240   31.1650 F   0  0  0  0  0  0  0  0  0  0  0  0
   36.6400   27.3830   30.4630 F   0  0  0  0  0  0  0  0  0  0  0  0
   36.9480   25.1560   30.8540 F   0  0  0  0  0  0  0  0  0  0  0  0
  1  2  2  0  0  0  0
  1  6  1  0  0  0  0
  2  3  1  0  0  0  0
  3  8  1  0  0  0  0
  3  4  2  0  0  0  0
  5  4  1  0  0  0  0
  5  9  1  0  0  0  0
  6  5  2  0  0  0  0
  7  2  1  0  0  0  0
  9 10  1  0  0  0  0
 10 11  1  0  0  0  0
 10 12  2  0  0  0  0
 13 12  1  0  0  0  0
 13 14  1  0  0  0  0
 15 14  2  0  0  0  0
 15 16  1  0  0  0  0
 17 15  1  0  0  0  0
 18 19  1  0  0  0  0
 18 17  2  0  0  0  0
 19 13  2  0  0  0  0
 20  9  2  0  0  0  0
 20 19  1  0  0  0  0
 21  1  1  0  0  0  0
 22 21  1  0  0  0  0
 23 21  1  0  0  0  0
 24 21  1  0  0  0  0
M  END
>  <minimizedAffinity>
-5.40316868

$$$$

 OpenBabel03272500363D

 24 26  0  0  0  0  0  0  0  0999 V2000
   36.4420   28.3030   33.7860 C   0  0  0  0  0  0  0  0  0  0  0  0
   36.6500   28.2200   32.4030 C   0  0  0  0  0  0  0  0  0  0  0  0
   37.4300   27.1600   31.9170 C   0  0  0  0  0  0  0  0  0  0  0  0
   37.9380   26.2720   32.8290 N   0  0  0  0  0  0  0  0  0  0  0  0
   37.7090   26.3930   34.1500 C   0  0  0  0  0  0  0  0  0  0  0  0
   36.9660   27.4020   34.6290 N   0  0  0  0  0  0  0  0  0  0  0  0
   36.2350   28.9360   31.7250 H   0  0  0  0  0  0  0  0  0  0  0  0
   37.6280   27.0400   30.8610 H   0  0  0  0  0  0  0  0  0  0  0  0
   38.2730   25.4180   35.0870 C   0  0  0  0  0  0  0  0  0  0  0  0
   37.7010   25.2780   36.3470 C   0  0  0  0  0  0  0  0  0  0  0  0
   36.8420   25.8860   36.6400 H   0  0  0  0  0  0  0  0  0  0  0  0
   38.2110   24.3650   37.2570 C   0  0  0  0  0  3  0  0  0  0  0  0
   39.2930   23.5810   36.9240 C   0  0  0  0  0  0  0  0  0  0  0  0
   39.8080   22.6930   37.7750 N   0  0  0  0  0  0  0  0  0  0  0  0
   40.8630   21.9280   37.4500 C   0  0  0  0  0  0  0  0  0  0  0  0
   41.1720   21.2560   38.2330 H   0  0  0  0  0  0  0  0  0  0  0  0
   41.4930   22.0050   36.2160 C   0  0  0  0  0  3  0  0  0  0  0  0
   40.9550   22.9230   35.3440 C   0  0  0  0  0  3  0  0  0  0  0  0
   39.8720   23.7170   35.6610 C   0  0  0  0  0  0  0  0  0  0  0  0
   39.3520   24.6270   34.7740 C   0  0  0  0  0  3  0  0  0  0  0  0
   35.6040   29.4440   34.3030 C   0  0  0  0  0  0  0  0  0  0  0  0
   34.3580   28.9680   34.6620 F   0  0  0  0  0  0  0  0  0  0  0  0
   36.2860   30.0210   35.3300 F   0  0  0  0  0  0  0  0  0  0  0  0
   35.4070   30.3200   33.2450 F   0  0  0  0  0  0  0  0  0  0  0  0
  1 21  1  0  0  0  0
  1  6  1  0  0  0  0
  2  1  2  0  0  0  0
  3  2  1  0  0  0  0
  3  4  2  0  0  0  0
  4  5  1  0  0  0  0
  5  6  2  0  0  0  0
  5  9  1  0  0  0  0
  7  2  1  0  0  0  0
  8  3  1  0  0  0  0
  9 10  1  0  0  0  0
 10 11  1  0  0  0  0
 10 12  2  0  0  0  0
 13 12  1  0  0  0  0
 13 14  1  0  0  0  0
 15 14  2  0  0  0  0
 15 16  1  0  0  0  0
 17 15  1  0  0  0  0
 18 19  1  0  0  0  0
 18 17  2  0  0  0  0
 19 13  2  0  0  0  0
 20  9  2  0  0  0  0
 20 19  1  0  0  0  0
 21 22  1  0  0  0  0
 21 23  1  0  0  0  0
 24 21  1  0  0  0  0
M  END
>  <minimizedAffinity>
-5.36010408

$$$$
