
 OpenBabel03262521203D

 32 34  0  0  0  0  0  0  0  0999 V2000
   35.8800   29.0290   33.9800 C   0  0  0  0  0  0  0  0  0  0  0  0
   36.0310   29.2100   32.6130 C   0  0  0  0  0  0  0  0  0  0  0  0
   36.8830   28.3640   31.8790 C   0  0  0  0  0  0  0  0  0  0  0  0
   37.5230   27.3890   32.5910 N   0  0  0  0  0  0  0  0  0  0  0  0
   37.3490   27.2400   33.9390 C   0  0  0  0  0  0  0  0  0  0  0  0
   36.5430   28.0470   34.6110 N   0  0  0  0  0  0  0  0  0  0  0  0
   35.5470   29.9690   32.0010 H   0  0  0  0  0  0  0  0  0  0  0  0
   37.0370   28.4610   30.8130 H   0  0  0  0  0  0  0  0  0  0  0  0
   38.0780   26.1660   34.6120 C   0  0  0  0  0  0  0  0  0  0  0  0
   39.1290   25.5320   34.0160 C   0  0  0  0  0  0  0  0  0  0  0  0
   39.3910   25.8730   33.0160 H   0  0  0  0  0  0  0  0  0  0  0  0
   39.8750   24.5190   34.5580 C   0  0  0  0  0  3  0  0  0  0  0  0
   39.5030   24.1250   35.8270 C   0  0  0  0  0  0  0  0  0  0  0  0
   40.2140   23.1210   36.4090 N   0  0  0  0  0  0  0  0  0  0  0  0
   39.9070   22.6900   37.6380 C   0  0  0  0  0  0  0  0  0  0  0  0
   40.5170   21.8910   38.0270 H   0  0  0  0  0  0  0  0  0  0  0  0
   38.8570   23.2410   38.3690 C   0  0  0  0  0  3  0  0  0  0  0  0
   38.1610   24.2550   37.7470 C   0  0  0  0  0  3  0  0  0  0  0  0
   38.4500   24.7240   36.4830 C   0  0  0  0  0  0  0  0  0  0  0  0
   37.7340   25.7480   35.8780 C   0  0  0  0  0  3  0  0  0  0  0  0
   35.0110   29.9480   34.5230 O   0  0  0  0  0  0  0  0  0  0  0  0
   35.4210   31.2610   34.5660 C   0  0  0  0  0  0  0  0  0  0  0  0
   34.6900   32.0070   34.1870 H   0  0  0  0  0  0  0  0  0  0  0  0
   36.2950   31.3470   33.8570 H   0  0  0  0  0  0  0  0  0  0  0  0
   35.7460   31.3310   35.8730 C   0  0  0  0  0  0  0  0  0  0  0  0
   36.8360   31.4720   36.1000 H   0  0  0  0  0  0  0  0  0  0  0  0
   35.5770   30.3250   36.3690 H   0  0  0  0  0  0  0  0  0  0  0  0
   35.0310   32.3420   36.7110 C   0  0  0  0  0  0  0  0  0  0  0  0
   35.6340   32.6890   37.5860 H   0  0  0  0  0  0  0  0  0  0  0  0
   34.9180   33.2690   36.0850 H   0  0  0  0  0  0  0  0  0  0  0  0
   33.3810   31.8180   37.1710 S   0  0  0  0  0  0  0  0  0  0  0  0
   32.6800   31.5350   35.9700 H   0  0  0  0  0  0  0  0  0  0  0  0
  1 21  1  0  0  0  0
  1  6  1  0  0  0  0
  2  1  2  0  0  0  0
  3  4  2  0  0  0  0
  3  2  1  0  0  0  0
  4  5  1  0  0  0  0
  5  6  2  0  0  0  0
  5  9  1  0  0  0  0
  7  2  1  0  0  0  0
  8  3  1  0  0  0  0
  9 20  1  0  0  0  0
 10 12  1  0  0  0  0
 10  9  2  0  0  0  0
 11 10  1  0  0  0  0
 12 13  2  0  0  0  0
 13 14  1  0  0  0  0
 13 19  1  0  0  0  0
 14 15  2  0  0  0  0
 15 16  1  0  0  0  0
 15 17  1  0  0  0  0
 18 17  2  0  0  0  0
 19 18  1  0  0  0  0
 20 19  2  0  0  0  0
 21 22  1  0  0  0  0
 22 25  1  0  0  0  0
 23 22  1  0  0  0  0
 24 22  1  0  0  0  0
 25 26  1  0  0  0  0
 25 27  1  0  0  0  0
 25 28  1  0  0  0  0
 28 31  1  0  0  0  0
 28 29  1  0  0  0  0
 30 28  1  0  0  0  0
 32 31  1  0  0  0  0
M  END
>  <minimizedAffinity>
-5.39262867

$$$$

 OpenBabel03262521203D

 32 34  0  0  0  0  0  0  0  0999 V2000
   39.5640   22.8830   36.8630 C   0  0  0  0  0  0  0  0  0  0  0  0
   39.0450   23.1080   38.1300 C   0  0  0  0  0  0  0  0  0  0  0  0
   38.2090   24.2150   38.3630 C   0  0  0  0  0  0  0  0  0  0  0  0
   37.9590   25.0190   37.2860 N   0  0  0  0  0  0  0  0  0  0  0  0
   38.4890   24.7650   36.0510 C   0  0  0  0  0  0  0  0  0  0  0  0
   39.2730   23.7180   35.8530 N   0  0  0  0  0  0  0  0  0  0  0  0
   39.2130   22.5010   39.0170 H   0  0  0  0  0  0  0  0  0  0  0  0
   37.7780   24.4370   39.3290 H   0  0  0  0  0  0  0  0  0  0  0  0
   38.1620   25.6840   34.9610 C   0  0  0  0  0  0  0  0  0  0  0  0
   38.7370   25.5680   33.7300 C   0  0  0  0  0  0  0  0  0  0  0  0
   39.4500   24.7540   33.6080 H   0  0  0  0  0  0  0  0  0  0  0  0
   38.5010   26.3730   32.6480 C   0  0  0  0  0  3  0  0  0  0  0  0
   37.5900   27.3880   32.8550 C   0  0  0  0  0  0  0  0  0  0  0  0
   37.3210   28.2170   31.8080 N   0  0  0  0  0  0  0  0  0  0  0  0
   36.4480   29.2220   31.9400 C   0  0  0  0  0  0  0  0  0  0  0  0
   36.2910   29.8320   31.0650 H   0  0  0  0  0  0  0  0  0  0  0  0
   35.7820   29.4660   33.1400 C   0  0  0  0  0  3  0  0  0  0  0  0
   36.0810   28.6060   34.1760 C   0  0  0  0  0  3  0  0  0  0  0  0
   36.9740   27.5610   34.0750 C   0  0  0  0  0  0  0  0  0  0  0  0
   37.2580   26.7080   35.1320 C   0  0  0  0  0  3  0  0  0  0  0  0
   40.3560   21.7580   36.8290 O   0  0  0  0  0  0  0  0  0  0  0  0
   41.6750   21.8980   37.1950 C   0  0  0  0  0  0  0  0  0  0  0  0
   41.9860   21.3390   38.1030 H   0  0  0  0  0  0  0  0  0  0  0  0
   41.8150   22.9820   37.4770 H   0  0  0  0  0  0  0  0  0  0  0  0
   42.2510   21.5400   36.0280 C   0  0  0  0  0  0  0  0  0  0  0  0
   41.5480   21.2380   35.2090 H   0  0  0  0  0  0  0  0  0  0  0  0
   42.8190   20.5680   36.1590 H   0  0  0  0  0  0  0  0  0  0  0  0
   43.2020   22.5070   35.4010 C   0  0  0  0  0  0  0  0  0  0  0  0
   44.0980   22.0100   34.9520 H   0  0  0  0  0  0  0  0  0  0  0  0
   42.6790   22.9580   34.5140 H   0  0  0  0  0  0  0  0  0  0  0  0
   43.6360   23.8600   36.4930 S   0  0  0  0  0  0  0  0  0  0  0  0
   42.4260   24.4880   36.8850 H   0  0  0  0  0  0  0  0  0  0  0  0
  1  2  1  0  0  0  0
  2  3  2  0  0  0  0
  2  7  1  0  0  0  0
  3  8  1  0  0  0  0
  4  3  1  0  0  0  0
  5  4  2  0  0  0  0
  6  5  1  0  0  0  0
  6  1  2  0  0  0  0
  9 20  1  0  0  0  0
  9  5  1  0  0  0  0
 10  9  2  0  0  0  0
 11 10  1  0  0  0  0
 12 13  2  0  0  0  0
 12 10  1  0  0  0  0
 13 19  1  0  0  0  0
 14 15  2  0  0  0  0
 14 13  1  0  0  0  0
 15 17  1  0  0  0  0
 16 15  1  0  0  0  0
 17 18  2  0  0  0  0
 19 18  1  0  0  0  0
 19 20  2  0  0  0  0
 21  1  1  0  0  0  0
 21 22  1  0  0  0  0
 22 24  1  0  0  0  0
 22 23  1  0  0  0  0
 25 27  1  0  0  0  0
 25 22  1  0  0  0  0
 26 25  1  0  0  0  0
 28 25  1  0  0  0  0
 28 31  1  0  0  0  0
 29 28  1  0  0  0  0
 30 28  1  0  0  0  0
 31 32  1  0  0  0  0
M  END
>  <minimizedAffinity>
-4.96201944

$$$$

 OpenBabel03262521203D

 32 34  0  0  0  0  0  0  0  0999 V2000
   37.2900   27.0050   33.8090 C   0  0  0  0  0  0  0  0  0  0  0  0
   37.5760   27.2210   32.4690 C   0  0  0  0  0  0  0  0  0  0  0  0
   37.0150   28.3220   31.7950 C   0  0  0  0  0  0  0  0  0  0  0  0
   36.1990   29.1290   32.5380 N   0  0  0  0  0  0  0  0  0  0  0  0
   35.9400   28.8850   33.8580 C   0  0  0  0  0  0  0  0  0  0  0  0
   36.4780   27.8440   34.4720 N   0  0  0  0  0  0  0  0  0  0  0  0
   38.2170   26.6100   31.8350 H   0  0  0  0  0  0  0  0  0  0  0  0
   37.2050   28.5360   30.7530 H   0  0  0  0  0  0  0  0  0  0  0  0
   35.0540   29.8080   34.5660 C   0  0  0  0  0  0  0  0  0  0  0  0
   33.6970   29.6860   34.5030 C   0  0  0  0  0  0  0  0  0  0  0  0
   33.3160   28.8660   33.8980 H   0  0  0  0  0  0  0  0  0  0  0  0
   32.7830   30.4950   35.1260 C   0  0  0  0  0  3  0  0  0  0  0  0
   33.3170   31.5180   35.8810 C   0  0  0  0  0  0  0  0  0  0  0  0
   32.4490   32.3500   36.5200 N   0  0  0  0  0  0  0  0  0  0  0  0
   32.9000   33.3630   37.2690 C   0  0  0  0  0  0  0  0  0  0  0  0
   32.1490   33.9740   37.7410 H   0  0  0  0  0  0  0  0  0  0  0  0
   34.2620   33.6120   37.4270 C   0  0  0  0  0  3  0  0  0  0  0  0
   35.1090   32.7490   36.7640 C   0  0  0  0  0  3  0  0  0  0  0  0
   34.6790   31.6960   35.9850 C   0  0  0  0  0  0  0  0  0  0  0  0
   35.5530   30.8400   35.3280 C   0  0  0  0  0  3  0  0  0  0  0  0
   37.9280   25.8850   34.2920 O   0  0  0  0  0  0  0  0  0  0  0  0
   38.8590   26.0650   35.2890 C   0  0  0  0  0  0  0  0  0  0  0  0
   39.2050   27.1090   35.4440 H   0  0  0  0  0  0  0  0  0  0  0  0
   39.7870   25.5110   34.9640 H   0  0  0  0  0  0  0  0  0  0  0  0
   38.1840   25.4870   36.3050 C   0  0  0  0  0  0  0  0  0  0  0  0
   37.0700   25.6120   36.2870 H   0  0  0  0  0  0  0  0  0  0  0  0
   38.4200   26.0190   37.2790 H   0  0  0  0  0  0  0  0  0  0  0  0
   38.4170   24.0310   36.5500 C   0  0  0  0  0  0  0  0  0  0  0  0
   37.8430   23.3720   35.8530 H   0  0  0  0  0  0  0  0  0  0  0  0
   39.4900   23.8190   36.2890 H   0  0  0  0  0  0  0  0  0  0  0  0
   38.2010   23.5750   38.2700 S   0  0  0  0  0  0  0  0  0  0  0  0
   39.0780   24.3870   39.0340 H   0  0  0  0  0  0  0  0  0  0  0  0
  1 21  1  0  0  0  0
  1  6  1  0  0  0  0
  2  1  2  0  0  0  0
  3  2  1  0  0  0  0
  3  4  2  0  0  0  0
  4  5  1  0  0  0  0
  5  6  2  0  0  0  0
  5  9  1  0  0  0  0
  7  2  1  0  0  0  0
  8  3  1  0  0  0  0
  9 20  1  0  0  0  0
 10  9  2  0  0  0  0
 10 12  1  0  0  0  0
 11 10  1  0  0  0  0
 12 13  2  0  0  0  0
 13 19  1  0  0  0  0
 13 14  1  0  0  0  0
 14 15  2  0  0  0  0
 15 17  1  0  0  0  0
 15 16  1  0  0  0  0
 18 17  2  0  0  0  0
 19 18  1  0  0  0  0
 20 19  2  0  0  0  0
 21 22  1  0  0  0  0
 22 23  1  0  0  0  0
 22 25  1  0  0  0  0
 24 22  1  0  0  0  0
 25 28  1  0  0  0  0
 25 27  1  0  0  0  0
 26 25  1  0  0  0  0
 28 31  1  0  0  0  0
 29 28  1  0  0  0  0
 30 28  1  0  0  0  0
 31 32  1  0  0  0  0
M  END
>  <minimizedAffinity>
-4.95316505

$$$$

 OpenBabel03262521203D

 32 34  0  0  0  0  0  0  0  0999 V2000
   36.7810   27.9300   31.6500 C   0  0  0  0  0  0  0  0  0  0  0  0
   35.9660   28.8520   32.2910 C   0  0  0  0  0  0  0  0  0  0  0  0
   35.8320   28.8220   33.6910 C   0  0  0  0  0  0  0  0  0  0  0  0
   36.5420   27.8530   34.3430 N   0  0  0  0  0  0  0  0  0  0  0  0
   37.3370   26.9610   33.6780 C   0  0  0  0  0  0  0  0  0  0  0  0
   37.4490   27.0060   32.3600 N   0  0  0  0  0  0  0  0  0  0  0  0
   35.3820   29.6390   31.8190 H   0  0  0  0  0  0  0  0  0  0  0  0
   35.2100   29.5160   34.2400 H   0  0  0  0  0  0  0  0  0  0  0  0
   38.0570   25.9610   34.4660 C   0  0  0  0  0  0  0  0  0  0  0  0
   39.1330   25.2930   33.9620 C   0  0  0  0  0  0  0  0  0  0  0  0
   39.4240   25.5480   32.9450 H   0  0  0  0  0  0  0  0  0  0  0  0
   39.8730   24.3420   34.6150 C   0  0  0  0  0  3  0  0  0  0  0  0
   39.4640   24.0570   35.9010 C   0  0  0  0  0  0  0  0  0  0  0  0
   40.1670   23.1170   36.5920 N   0  0  0  0  0  0  0  0  0  0  0  0
   39.8250   22.7930   37.8440 C   0  0  0  0  0  0  0  0  0  0  0  0
   40.4320   22.0400   38.3210 H   0  0  0  0  0  0  0  0  0  0  0  0
   38.7460   23.3910   38.4900 C   0  0  0  0  0  3  0  0  0  0  0  0
   38.0590   24.3360   37.7590 C   0  0  0  0  0  3  0  0  0  0  0  0
   38.3840   24.6960   36.4680 C   0  0  0  0  0  0  0  0  0  0  0  0
   37.6760   25.6510   35.7520 C   0  0  0  0  0  3  0  0  0  0  0  0
   36.7860   28.1150   30.2860 O   0  0  0  0  0  0  0  0  0  0  0  0
   37.0420   29.3830   29.8180 C   0  0  0  0  0  0  0  0  0  0  0  0
   36.8170   30.2120   30.5220 H   0  0  0  0  0  0  0  0  0  0  0  0
   36.3360   29.5540   28.9540 H   0  0  0  0  0  0  0  0  0  0  0  0
   38.3340   29.2130   29.4660 C   0  0  0  0  0  0  0  0  0  0  0  0
   38.8610   28.3440   29.9410 H   0  0  0  0  0  0  0  0  0  0  0  0
   38.9630   30.0640   29.8750 H   0  0  0  0  0  0  0  0  0  0  0  0
   38.6460   29.1180   28.0070 C   0  0  0  0  0  0  0  0  0  0  0  0
   37.7450   29.2440   27.3580 H   0  0  0  0  0  0  0  0  0  0  0  0
   39.2840   30.0060   27.7470 H   0  0  0  0  0  0  0  0  0  0  0  0
   39.5970   27.6560   27.5960 S   0  0  0  0  0  0  0  0  0  0  0  0
   40.7730   27.6830   28.3880 H   0  0  0  0  0  0  0  0  0  0  0  0
  1  2  2  0  0  0  0
  1  6  1  0  0  0  0
  2  3  1  0  0  0  0
  3  8  1  0  0  0  0
  3  4  2  0  0  0  0
  5  4  1  0  0  0  0
  5  9  1  0  0  0  0
  6  5  2  0  0  0  0
  7  2  1  0  0  0  0
  9 20  1  0  0  0  0
 10  9  2  0  0  0  0
 10 12  1  0  0  0  0
 11 10  1  0  0  0  0
 12 13  2  0  0  0  0
 13 19  1  0  0  0  0
 13 14  1  0  0  0  0
 14 15  2  0  0  0  0
 15 16  1  0  0  0  0
 15 17  1  0  0  0  0
 18 17  2  0  0  0  0
 19 18  1  0  0  0  0
 20 19  2  0  0  0  0
 21  1  1  0  0  0  0
 22 21  1  0  0  0  0
 22 23  1  0  0  0  0
 24 22  1  0  0  0  0
 25 22  1  0  0  0  0
 25 27  1  0  0  0  0
 25 26  1  0  0  0  0
 28 25  1  0  0  0  0
 29 28  1  0  0  0  0
 30 28  1  0  0  0  0
 31 28  1  0  0  0  0
 31 32  1  0  0  0  0
M  END
>  <minimizedAffinity>
-4.91908121

$$$$

 OpenBabel03262521203D

 32 34  0  0  0  0  0  0  0  0999 V2000
   35.7100   29.0620   33.9420 C   0  0  0  0  0  0  0  0  0  0  0  0
   35.9540   29.3340   32.6030 C   0  0  0  0  0  0  0  0  0  0  0  0
   36.9040   28.5790   31.8910 C   0  0  0  0  0  0  0  0  0  0  0  0
   37.5410   27.5960   32.5950 N   0  0  0  0  0  0  0  0  0  0  0  0
   37.2750   27.3570   33.9150 C   0  0  0  0  0  0  0  0  0  0  0  0
   36.3780   28.0790   34.5660 N   0  0  0  0  0  0  0  0  0  0  0  0
   35.4750   30.1030   32.0000 H   0  0  0  0  0  0  0  0  0  0  0  0
   37.1320   28.7490   30.8480 H   0  0  0  0  0  0  0  0  0  0  0  0
   38.0110   26.2820   34.5800 C   0  0  0  0  0  0  0  0  0  0  0  0
   39.0760   25.6710   33.9880 C   0  0  0  0  0  0  0  0  0  0  0  0
   39.3450   26.0290   32.9960 H   0  0  0  0  0  0  0  0  0  0  0  0
   39.8290   24.6590   34.5230 C   0  0  0  0  0  3  0  0  0  0  0  0
   39.4470   24.2420   35.7810 C   0  0  0  0  0  0  0  0  0  0  0  0
   40.1650   23.2380   36.3570 N   0  0  0  0  0  0  0  0  0  0  0  0
   39.8490   22.7860   37.5760 C   0  0  0  0  0  0  0  0  0  0  0  0
   40.4650   21.9890   37.9610 H   0  0  0  0  0  0  0  0  0  0  0  0
   38.7840   23.3130   38.3030 C   0  0  0  0  0  3  0  0  0  0  0  0
   38.0820   24.3270   37.6880 C   0  0  0  0  0  3  0  0  0  0  0  0
   38.3800   24.8180   36.4340 C   0  0  0  0  0  0  0  0  0  0  0  0
   37.6580   25.8410   35.8350 C   0  0  0  0  0  3  0  0  0  0  0  0
   34.7530   29.9010   34.4660 O   0  0  0  0  0  0  0  0  0  0  0  0
   33.7320   30.2990   33.6340 C   0  0  0  0  0  0  0  0  0  0  0  0
   33.5980   29.6930   32.7120 H   0  0  0  0  0  0  0  0  0  0  0  0
   34.0110   31.3240   33.2530 H   0  0  0  0  0  0  0  0  0  0  0  0
   32.7220   30.2850   34.5280 C   0  0  0  0  0  0  0  0  0  0  0  0
   31.9950   31.1360   34.4590 H   0  0  0  0  0  0  0  0  0  0  0  0
   33.1260   30.4650   35.5720 H   0  0  0  0  0  0  0  0  0  0  0  0
   31.8820   29.0510   34.6050 C   0  0  0  0  0  0  0  0  0  0  0  0
   30.9180   29.1420   34.0470 H   0  0  0  0  0  0  0  0  0  0  0  0
   32.4320   28.2420   34.0500 H   0  0  0  0  0  0  0  0  0  0  0  0
   31.6570   28.4700   36.2850 S   0  0  0  0  0  0  0  0  0  0  0  0
   32.9490   28.2660   36.8360 H   0  0  0  0  0  0  0  0  0  0  0  0
  1 21  1  0  0  0  0
  1  6  1  0  0  0  0
  2  1  2  0  0  0  0
  3  4  2  0  0  0  0
  3  2  1  0  0  0  0
  4  5  1  0  0  0  0
  5  6  2  0  0  0  0
  5  9  1  0  0  0  0
  7  2  1  0  0  0  0
  8  3  1  0  0  0  0
  9 20  1  0  0  0  0
 10 12  1  0  0  0  0
 10  9  2  0  0  0  0
 11 10  1  0  0  0  0
 12 13  2  0  0  0  0
 13 14  1  0  0  0  0
 13 19  1  0  0  0  0
 14 15  2  0  0  0  0
 15 16  1  0  0  0  0
 15 17  1  0  0  0  0
 18 17  2  0  0  0  0
 19 18  1  0  0  0  0
 20 19  2  0  0  0  0
 22 21  1  0  0  0  0
 22 25  1  0  0  0  0
 23 22  1  0  0  0  0
 24 22  1  0  0  0  0
 25 28  1  0  0  0  0
 25 27  1  0  0  0  0
 26 25  1  0  0  0  0
 28 31  1  0  0  0  0
 29 28  1  0  0  0  0
 30 28  1  0  0  0  0
 31 32  1  0  0  0  0
M  END
>  <minimizedAffinity>
-4.90829229

$$$$

 OpenBabel03262521203D

 32 34  0  0  0  0  0  0  0  0999 V2000
   37.1450   26.9320   33.9760 C   0  0  0  0  0  0  0  0  0  0  0  0
   37.1680   26.9890   32.5900 C   0  0  0  0  0  0  0  0  0  0  0  0
   36.5550   28.0630   31.9180 C   0  0  0  0  0  0  0  0  0  0  0  0
   35.9600   29.0060   32.7090 N   0  0  0  0  0  0  0  0  0  0  0  0
   35.9580   28.9170   34.0730 C   0  0  0  0  0  0  0  0  0  0  0  0
   36.5400   27.8980   34.6850 N   0  0  0  0  0  0  0  0  0  0  0  0
   37.6260   26.2670   31.9180 H   0  0  0  0  0  0  0  0  0  0  0  0
   36.5430   28.1570   30.8420 H   0  0  0  0  0  0  0  0  0  0  0  0
   35.2950   29.9770   34.8310 C   0  0  0  0  0  0  0  0  0  0  0  0
   36.0050   30.9370   35.4910 C   0  0  0  0  0  0  0  0  0  0  0  0
   37.0880   30.8660   35.4200 H   0  0  0  0  0  0  0  0  0  0  0  0
   35.4820   31.9680   36.2250 C   0  0  0  0  0  3  0  0  0  0  0  0
   34.1040   32.0120   36.2830 C   0  0  0  0  0  0  0  0  0  0  0  0
   33.5360   33.0190   37.0020 N   0  0  0  0  0  0  0  0  0  0  0  0
   32.2050   33.1220   37.0990 C   0  0  0  0  0  0  0  0  0  0  0  0
   31.8350   33.9460   37.6870 H   0  0  0  0  0  0  0  0  0  0  0  0
   31.3500   32.2140   36.4790 C   0  0  0  0  0  3  0  0  0  0  0  0
   31.9620   31.2090   35.7610 C   0  0  0  0  0  3  0  0  0  0  0  0
   33.3290   31.0730   35.6390 C   0  0  0  0  0  0  0  0  0  0  0  0
   33.9220   30.0520   34.9100 C   0  0  0  0  0  3  0  0  0  0  0  0
   37.7930   25.8130   34.4510 O   0  0  0  0  0  0  0  0  0  0  0  0
   38.2840   25.8610   35.7350 C   0  0  0  0  0  0  0  0  0  0  0  0
   37.5940   26.2760   36.5000 H   0  0  0  0  0  0  0  0  0  0  0  0
   39.1490   26.5870   35.7200 H   0  0  0  0  0  0  0  0  0  0  0  0
   38.6370   24.5660   35.8670 C   0  0  0  0  0  0  0  0  0  0  0  0
   39.6890   24.3770   36.2090 H   0  0  0  0  0  0  0  0  0  0  0  0
   38.6760   24.0690   34.8480 H   0  0  0  0  0  0  0  0  0  0  0  0
   37.7780   23.6980   36.7290 C   0  0  0  0  0  0  0  0  0  0  0  0
   36.7000   23.7160   36.4310 H   0  0  0  0  0  0  0  0  0  0  0  0
   38.0860   22.6340   36.5400 H   0  0  0  0  0  0  0  0  0  0  0  0
   38.0170   24.0070   38.4780 S   0  0  0  0  0  0  0  0  0  0  0  0
   39.3970   23.8230   38.7520 H   0  0  0  0  0  0  0  0  0  0  0  0
  1 21  1  0  0  0  0
  1  6  1  0  0  0  0
  2  1  2  0  0  0  0
  3  2  1  0  0  0  0
  3  4  2  0  0  0  0
  4  5  1  0  0  0  0
  5  6  2  0  0  0  0
  5  9  1  0  0  0  0
  7  2  1  0  0  0  0
  8  3  1  0  0  0  0
  9 20  2  0  0  0  0
  9 10  1  0  0  0  0
 10 12  2  0  0  0  0
 11 10  1  0  0  0  0
 12 13  1  0  0  0  0
 13 14  1  0  0  0  0
 14 15  2  0  0  0  0
 15 16  1  0  0  0  0
 17 15  1  0  0  0  0
 18 17  2  0  0  0  0
 19 18  1  0  0  0  0
 19 13  2  0  0  0  0
 20 19  1  0  0  0  0
 21 22  1  0  0  0  0
 22 25  1  0  0  0  0
 22 23  1  0  0  0  0
 24 22  1  0  0  0  0
 25 26  1  0  0  0  0
 25 28  1  0  0  0  0
 27 25  1  0  0  0  0
 28 31  1  0  0  0  0
 29 28  1  0  0  0  0
 30 28  1  0  0  0  0
 31 32  1  0  0  0  0
M  END
>  <minimizedAffinity>
-4.85956526

$$$$

 OpenBabel03262521203D

 32 34  0  0  0  0  0  0  0  0999 V2000
   36.6500   28.1540   33.0720 C   0  0  0  0  0  0  0  0  0  0  0  0
   37.3340   28.2510   31.8680 C   0  0  0  0  0  0  0  0  0  0  0  0
   38.4410   27.4200   31.6160 C   0  0  0  0  0  0  0  0  0  0  0  0
   38.7740   26.5440   32.6120 N   0  0  0  0  0  0  0  0  0  0  0  0
   38.0760   26.4760   33.7860 C   0  0  0  0  0  0  0  0  0  0  0  0
   37.0380   27.2680   34.0020 N   0  0  0  0  0  0  0  0  0  0  0  0
   37.1090   28.9290   31.0470 H   0  0  0  0  0  0  0  0  0  0  0  0
   39.0080   27.4540   30.6970 H   0  0  0  0  0  0  0  0  0  0  0  0
   38.5110   25.5060   34.7890 C   0  0  0  0  0  0  0  0  0  0  0  0
   37.7750   25.2550   35.9090 C   0  0  0  0  0  0  0  0  0  0  0  0
   36.8480   25.8170   36.0100 H   0  0  0  0  0  0  0  0  0  0  0  0
   38.0930   24.3700   36.9050 C   0  0  0  0  0  3  0  0  0  0  0  0
   39.2760   23.6830   36.7280 C   0  0  0  0  0  0  0  0  0  0  0  0
   39.6370   22.7910   37.6920 N   0  0  0  0  0  0  0  0  0  0  0  0
   40.7720   22.0910   37.5830 C   0  0  0  0  0  0  0  0  0  0  0  0
   40.9850   21.4060   38.3880 H   0  0  0  0  0  0  0  0  0  0  0  0
   41.6270   22.2410   36.4950 C   0  0  0  0  0  3  0  0  0  0  0  0
   41.2290   23.1520   35.5410 C   0  0  0  0  0  3  0  0  0  0  0  0
   40.0660   23.8900   35.6200 C   0  0  0  0  0  0  0  0  0  0  0  0
   39.6860   24.8020   34.6450 C   0  0  0  0  0  3  0  0  0  0  0  0
   35.6020   29.0440   33.1350 O   0  0  0  0  0  0  0  0  0  0  0  0
   35.1290   29.3810   34.3830 C   0  0  0  0  0  0  0  0  0  0  0  0
   35.5150   28.7680   35.2260 H   0  0  0  0  0  0  0  0  0  0  0  0
   34.0200   29.1710   34.3730 H   0  0  0  0  0  0  0  0  0  0  0  0
   35.4550   30.6900   34.3790 C   0  0  0  0  0  0  0  0  0  0  0  0
   34.6700   31.3890   33.9880 H   0  0  0  0  0  0  0  0  0  0  0  0
   36.2760   30.8830   33.6200 H   0  0  0  0  0  0  0  0  0  0  0  0
   35.9180   31.2920   35.6660 C   0  0  0  0  0  0  0  0  0  0  0  0
   35.2170   31.1020   36.5150 H   0  0  0  0  0  0  0  0  0  0  0  0
   36.8530   30.7470   35.9690 H   0  0  0  0  0  0  0  0  0  0  0  0
   36.3550   33.0230   35.5030 S   0  0  0  0  0  0  0  0  0  0  0  0
   37.3450   33.1130   34.4910 H   0  0  0  0  0  0  0  0  0  0  0  0
  1 21  1  0  0  0  0
  1  6  1  0  0  0  0
  2  1  2  0  0  0  0
  3  2  1  0  0  0  0
  3  4  2  0  0  0  0
  4  5  1  0  0  0  0
  5  6  2  0  0  0  0
  5  9  1  0  0  0  0
  7  2  1  0  0  0  0
  8  3  1  0  0  0  0
  9 10  1  0  0  0  0
 10 11  1  0  0  0  0
 10 12  2  0  0  0  0
 13 12  1  0  0  0  0
 13 14  1  0  0  0  0
 15 14  2  0  0  0  0
 15 16  1  0  0  0  0
 17 15  1  0  0  0  0
 18 19  1  0  0  0  0
 18 17  2  0  0  0  0
 19 13  2  0  0  0  0
 20  9  2  0  0  0  0
 20 19  1  0  0  0  0
 21 22  1  0  0  0  0
 22 23  1  0  0  0  0
 24 22  1  0  0  0  0
 25 22  1  0  0  0  0
 25 28  1  0  0  0  0
 26 25  1  0  0  0  0
 27 25  1  0  0  0  0
 28 30  1  0  0  0  0
 28 29  1  0  0  0  0
 31 28  1  0  0  0  0
 32 31  1  0  0  0  0
M  END
>  <minimizedAffinity>
-4.83401442

$$$$

 OpenBabel03262521203D

 32 34  0  0  0  0  0  0  0  0999 V2000
   38.0190   24.9480   35.6170 C   0  0  0  0  0  0  0  0  0  0  0  0
   38.2060   23.9520   34.6700 C   0  0  0  0  0  0  0  0  0  0  0  0
   37.9100   24.2000   33.3170 C   0  0  0  0  0  0  0  0  0  0  0  0
   37.4430   25.4510   33.0230 N   0  0  0  0  0  0  0  0  0  0  0  0
   37.2730   26.4090   33.9840 C   0  0  0  0  0  0  0  0  0  0  0  0
   37.5570   26.1540   35.2510 N   0  0  0  0  0  0  0  0  0  0  0  0
   38.5730   22.9440   34.8510 H   0  0  0  0  0  0  0  0  0  0  0  0
   38.0360   23.4610   32.5390 H   0  0  0  0  0  0  0  0  0  0  0  0
   36.7680   27.7170   33.5690 C   0  0  0  0  0  0  0  0  0  0  0  0
   36.0970   28.5320   34.4320 C   0  0  0  0  0  0  0  0  0  0  0  0
   35.9600   28.1520   35.4430 H   0  0  0  0  0  0  0  0  0  0  0  0
   35.5860   29.7690   34.1440 C   0  0  0  0  0  3  0  0  0  0  0  0
   35.7860   30.2040   32.8500 C   0  0  0  0  0  0  0  0  0  0  0  0
   35.2960   31.4290   32.5140 N   0  0  0  0  0  0  0  0  0  0  0  0
   35.4550   31.9120   31.2760 C   0  0  0  0  0  0  0  0  0  0  0  0
   35.0370   32.8880   31.0910 H   0  0  0  0  0  0  0  0  0  0  0  0
   36.1190   31.1920   30.2860 C   0  0  0  0  0  3  0  0  0  0  0  0
   36.6000   29.9570   30.6630 C   0  0  0  0  0  3  0  0  0  0  0  0
   36.4550   29.4290   31.9290 C   0  0  0  0  0  0  0  0  0  0  0  0
   36.9490   28.1820   32.2860 C   0  0  0  0  0  3  0  0  0  0  0  0
   38.3610   24.5200   36.8800 O   0  0  0  0  0  0  0  0  0  0  0  0
   38.3840   23.1630   37.1060 C   0  0  0  0  0  0  0  0  0  0  0  0
   38.4340   22.5230   36.2000 H   0  0  0  0  0  0  0  0  0  0  0  0
   37.3910   22.9000   37.5760 H   0  0  0  0  0  0  0  0  0  0  0  0
   39.4370   23.1140   37.9490 C   0  0  0  0  0  0  0  0  0  0  0  0
   39.2020   22.8330   39.0100 H   0  0  0  0  0  0  0  0  0  0  0  0
   39.8490   24.1570   38.1150 H   0  0  0  0  0  0  0  0  0  0  0  0
   40.5970   22.2570   37.5580 C   0  0  0  0  0  0  0  0  0  0  0  0
   41.2030   21.9150   38.4330 H   0  0  0  0  0  0  0  0  0  0  0  0
   40.1770   21.3020   37.1390 H   0  0  0  0  0  0  0  0  0  0  0  0
   41.5990   22.9950   36.2680 S   0  0  0  0  0  0  0  0  0  0  0  0
   40.7420   23.2590   35.1690 H   0  0  0  0  0  0  0  0  0  0  0  0
  1 21  1  0  0  0  0
  2  7  1  0  0  0  0
  2  1  2  0  0  0  0
  3  2  1  0  0  0  0
  4  3  2  0  0  0  0
  4  5  1  0  0  0  0
  5  6  2  0  0  0  0
  6  1  1  0  0  0  0
  8  3  1  0  0  0  0
  9  5  1  0  0  0  0
  9 10  1  0  0  0  0
 10 11  1  0  0  0  0
 12 10  2  0  0  0  0
 13 12  1  0  0  0  0
 14 13  1  0  0  0  0
 15 14  2  0  0  0  0
 16 15  1  0  0  0  0
 17 18  2  0  0  0  0
 17 15  1  0  0  0  0
 18 19  1  0  0  0  0
 19 20  1  0  0  0  0
 19 13  2  0  0  0  0
 20  9  2  0  0  0  0
 21 22  1  0  0  0  0
 22 24  1  0  0  0  0
 22 25  1  0  0  0  0
 23 22  1  0  0  0  0
 25 27  1  0  0  0  0
 25 26  1  0  0  0  0
 28 25  1  0  0  0  0
 28 29  1  0  0  0  0
 30 28  1  0  0  0  0
 31 28  1  0  0  0  0
 32 31  1  0  0  0  0
M  END
>  <minimizedAffinity>
-4.82461596

$$$$

 OpenBabel03262521203D

 32 34  0  0  0  0  0  0  0  0999 V2000
   37.2250   25.7120   33.4840 C   0  0  0  0  0  0  0  0  0  0  0  0
   36.7260   25.1680   32.3090 C   0  0  0  0  0  0  0  0  0  0  0  0
   35.9760   25.9650   31.4250 C   0  0  0  0  0  0  0  0  0  0  0  0
   35.7870   27.2660   31.8000 N   0  0  0  0  0  0  0  0  0  0  0  0
   36.2950   27.7680   32.9660 C   0  0  0  0  0  0  0  0  0  0  0  0
   36.9970   27.0010   33.7840 N   0  0  0  0  0  0  0  0  0  0  0  0
   36.8470   24.1420   31.9660 H   0  0  0  0  0  0  0  0  0  0  0  0
   35.5640   25.5920   30.4980 H   0  0  0  0  0  0  0  0  0  0  0  0
   36.0380   29.1730   33.2790 C   0  0  0  0  0  0  0  0  0  0  0  0
   35.9200   30.1140   32.2990 C   0  0  0  0  0  0  0  0  0  0  0  0
   36.0270   29.7590   31.2770 H   0  0  0  0  0  0  0  0  0  0  0  0
   35.6810   31.4500   32.4860 C   0  0  0  0  0  3  0  0  0  0  0  0
   35.5520   31.8490   33.8000 C   0  0  0  0  0  0  0  0  0  0  0  0
   35.3140   33.1680   34.0380 N   0  0  0  0  0  0  0  0  0  0  0  0
   35.1790   33.6230   35.2890 C   0  0  0  0  0  0  0  0  0  0  0  0
   34.9920   34.6800   35.3920 H   0  0  0  0  0  0  0  0  0  0  0  0
   35.2750   32.7790   36.3930 C   0  0  0  0  0  3  0  0  0  0  0  0
   35.5170   31.4510   36.1130 C   0  0  0  0  0  3  0  0  0  0  0  0
   35.6620   30.9480   34.8360 C   0  0  0  0  0  0  0  0  0  0  0  0
   35.9040   29.6060   34.5790 C   0  0  0  0  0  3  0  0  0  0  0  0
   37.9290   24.7840   34.2170 O   0  0  0  0  0  0  0  0  0  0  0  0
   39.0250   25.2290   34.9200 C   0  0  0  0  0  0  0  0  0  0  0  0
   38.8850   26.1780   35.4810 H   0  0  0  0  0  0  0  0  0  0  0  0
   39.8180   25.4740   34.1550 H   0  0  0  0  0  0  0  0  0  0  0  0
   39.2660   24.1180   35.6470 C   0  0  0  0  0  0  0  0  0  0  0  0
   40.0750   24.2040   36.4200 H   0  0  0  0  0  0  0  0  0  0  0  0
   39.7190   23.3140   34.9880 H   0  0  0  0  0  0  0  0  0  0  0  0
   38.1080   23.4870   36.3510 C   0  0  0  0  0  0  0  0  0  0  0  0
   37.1330   23.6610   35.8320 H   0  0  0  0  0  0  0  0  0  0  0  0
   38.2480   22.3730   36.2840 H   0  0  0  0  0  0  0  0  0  0  0  0
   38.0490   23.9010   38.0940 S   0  0  0  0  0  0  0  0  0  0  0  0
   39.2890   23.5100   38.6610 H   0  0  0  0  0  0  0  0  0  0  0  0
  1  6  1  0  0  0  0
  1 21  1  0  0  0  0
  2  1  2  0  0  0  0
  3  4  2  0  0  0  0
  3  2  1  0  0  0  0
  4  5  1  0  0  0  0
  5  9  1  0  0  0  0
  5  6  2  0  0  0  0
  7  2  1  0  0  0  0
  8  3  1  0  0  0  0
  9 20  1  0  0  0  0
 10 12  1  0  0  0  0
 10  9  2  0  0  0  0
 11 10  1  0  0  0  0
 12 13  2  0  0  0  0
 13 14  1  0  0  0  0
 13 19  1  0  0  0  0
 14 15  2  0  0  0  0
 15 16  1  0  0  0  0
 15 17  1  0  0  0  0
 18 17  2  0  0  0  0
 19 18  1  0  0  0  0
 20 19  2  0  0  0  0
 21 22  1  0  0  0  0
 22 23  1  0  0  0  0
 22 25  1  0  0  0  0
 24 22  1  0  0  0  0
 25 28  1  0  0  0  0
 25 26  1  0  0  0  0
 27 25  1  0  0  0  0
 28 31  1  0  0  0  0
 29 28  1  0  0  0  0
 30 28  1  0  0  0  0
 31 32  1  0  0  0  0
M  END
>  <minimizedAffinity>
-4.82120275

$$$$
