
 OpenBabel03272507563D

 26 28  0  0  0  0  0  0  0  0999 V2000
   35.8610   30.2590   50.5700 C   0  0  0  0  0  0  0  0  0  0  0  0
   36.4330   30.8120   49.3950 C   0  0  0  0  0  0  0  0  0  0  0  0
   36.2040   30.1870   48.1790 C   0  0  0  0  0  0  0  0  0  0  0  0
   35.4210   29.0470   48.1810 N   0  0  0  0  0  0  0  0  0  0  0  0
   34.8930   28.5470   49.3100 C   0  0  0  0  0  0  0  0  0  0  0  0
   35.1050   29.1380   50.4820 N   0  0  0  0  0  0  0  0  0  0  0  0
   34.1130   27.3840   49.1190 N   0  0  0  0  0  0  0  0  0  0  0  0
   36.0650   30.7770   51.4900 H   0  0  0  0  0  0  0  0  0  0  0  0
   34.1280   26.5820   49.8140 H   0  0  0  0  0  0  0  0  0  0  0  0
   33.4860   27.2230   48.3130 H   0  0  0  0  0  0  0  0  0  0  0  0
   36.7300   30.5510   46.8830 C   0  0  0  0  0  0  0  0  0  0  0  0
   36.2420   30.8900   45.6520 C   0  0  0  0  0  0  0  0  0  0  0  0
   35.1850   30.8170   45.5640 H   0  0  0  0  0  0  0  0  0  0  0  0
   37.0300   31.2530   44.5890 C   0  0  0  0  0  3  0  0  0  0  0  0
   38.4040   31.3070   44.6750 C   0  0  0  0  0  0  0  0  0  0  0  0
   39.0620   31.6720   43.5850 N   0  0  0  0  0  0  0  0  0  0  0  0
   40.4230   31.7420   43.6120 C   0  0  0  0  0  0  0  0  0  0  0  0
   41.0550   32.0290   42.7740 H   0  0  0  0  0  0  0  0  0  0  0  0
   41.0280   31.4180   44.8120 C   0  0  0  0  0  3  0  0  0  0  0  0
   40.3270   31.0370   45.9470 C   0  0  0  0  0  3  0  0  0  0  0  0
   38.9510   30.9730   45.8950 C   0  0  0  0  0  0  0  0  0  0  0  0
   38.1320   30.6110   46.9520 C   0  0  0  0  0  3  0  0  0  0  0  0
   37.2740   32.0320   49.5100 C   0  0  0  0  0  0  0  0  0  0  0  0
   38.5530   31.7420   49.9630 F   0  0  0  0  0  0  0  0  0  0  0  0
   37.3510   32.6270   48.2880 F   0  0  0  0  0  0  0  0  0  0  0  0
   36.7360   32.9520   50.3990 F   0  0  0  0  0  0  0  0  0  0  0  0
  1  8  1  0  0  0  0
  2 23  1  0  0  0  0
  2  1  2  0  0  0  0
  3  4  2  0  0  0  0
  3  2  1  0  0  0  0
  4  5  1  0  0  0  0
  5  6  2  0  0  0  0
  6  1  1  0  0  0  0
  7  5  1  0  0  0  0
  7  9  1  0  0  0  0
 10  7  1  0  0  0  0
 11 22  1  0  0  0  0
 11  3  1  0  0  0  0
 12 11  2  0  0  0  0
 13 12  1  0  0  0  0
 14 15  2  0  0  0  0
 14 12  1  0  0  0  0
 15 21  1  0  0  0  0
 16 17  2  0  0  0  0
 16 15  1  0  0  0  0
 17 19  1  0  0  0  0
 18 17  1  0  0  0  0
 19 20  2  0  0  0  0
 21 20  1  0  0  0  0
 21 22  2  0  0  0  0
 23 24  1  0  0  0  0
 23 26  1  0  0  0  0
 25 23  1  0  0  0  0
M  END
>  <minimizedAffinity>
-5.86951113

>  <minimizedRMSD>
1.8907932

$$$$
