
 OpenBabel03272510213D

 39 43  0  0  0  0  0  0  0  0999 V2000
   32.7960   29.3530   46.8590 C   0  0  0  0  0  0  0  0  0  0  0  0
   31.8770   28.3380   46.7260 C   0  0  0  0  0  0  0  0  0  0  0  0
   30.8170   28.3850   45.8290 C   0  0  0  0  0  0  0  0  0  0  0  0
   30.6700   29.4680   45.0450 N   0  0  0  0  0  0  0  0  0  0  0  0
   31.5610   30.4580   45.1690 C   0  0  0  0  0  0  0  0  0  0  0  0
   32.5700   30.3930   46.0370 N   0  0  0  0  0  0  0  0  0  0  0  0
   32.0020   27.4520   47.3710 H   0  0  0  0  0  0  0  0  0  0  0  0
   30.1580   27.5190   45.8200 H   0  0  0  0  0  0  0  0  0  0  0  0
   31.4170   31.6410   44.3270 C   0  0  0  0  0  0  0  0  0  0  0  0
   30.1560   32.1470   44.0260 C   0  0  0  0  0  0  0  0  0  0  0  0
   29.2920   31.6370   44.4350 H   0  0  0  0  0  0  0  0  0  0  0  0
   29.9170   33.2460   43.2510 C   0  0  0  0  0  3  0  0  0  0  0  0
   31.0150   33.8960   42.7280 C   0  0  0  0  0  0  0  0  0  0  0  0
   30.8070   34.9820   41.9600 N   0  0  0  0  0  0  0  0  0  0  0  0
   31.8130   35.6860   41.4050 C   0  0  0  0  0  0  0  0  0  0  0  0
   31.6100   36.5430   40.8000 H   0  0  0  0  0  0  0  0  0  0  0  0
   33.1080   35.2480   41.6540 C   0  0  0  0  0  3  0  0  0  0  0  0
   33.3710   34.1300   42.4440 C   0  0  0  0  0  3  0  0  0  0  0  0
   32.3020   33.4470   42.9870 C   0  0  0  0  0  0  0  0  0  0  0  0
   32.4670   32.3230   43.7850 C   0  0  0  0  0  3  0  0  0  0  0  0
   37.4680   29.1900   50.8360 Br  0  0  0  0  0  0  0  0  0  0  0  0
   36.0350   29.2750   49.5830 C   0  0  0  0  0  0  0  0  0  0  0  0
   36.0000   30.2770   48.6060 C   0  0  0  0  0  0  0  0  0  0  0  0
   34.9450   30.2870   47.7350 C   0  0  0  0  0  0  0  0  0  0  0  0
   33.9180   29.3480   47.7800 C   0  0  0  0  0  0  0  0  0  0  0  0
   33.9750   28.3830   48.7400 C   0  0  0  0  0  0  0  0  0  0  0  0
   35.0280   28.3600   49.6250 C   0  0  0  0  0  0  0  0  0  0  0  0
   34.8530   31.0370   46.9500 H   0  0  0  0  0  0  0  0  0  0  0  0
   33.2350   27.6050   48.8710 H   0  0  0  0  0  0  0  0  0  0  0  0
   35.0870   27.5910   50.4000 H   0  0  0  0  0  0  0  0  0  0  0  0
   38.0170   33.1980   49.4380 C   0  0  0  0  0  0  0  0  0  0  0  0
   39.0340   33.1980   48.4360 C   0  0  0  0  0  0  0  0  0  0  0  0
   38.9970   32.1870   47.4970 C   0  0  0  0  0  0  0  0  0  0  0  0
   38.0070   31.2410   47.5600 N   0  0  0  0  0  0  0  0  0  0  0  0
   37.0550   31.2720   48.5280 C   0  0  0  0  0  0  0  0  0  0  0  0
   37.0730   32.2570   49.4590 N   0  0  0  0  0  0  0  0  0  0  0  0
   38.0820   34.0160   50.1620 H   0  0  0  0  0  0  0  0  0  0  0  0
   39.8210   33.9030   48.3420 H   0  0  0  0  0  0  0  0  0  0  0  0
   39.6950   32.0690   46.6960 H   0  0  0  0  0  0  0  0  0  0  0  0
  1 25  1  0  0  0  0
  2  1  1  0  0  0  0
  2  7  1  0  0  0  0
  3  2  2  0  0  0  0
  4  5  2  0  0  0  0
  4  3  1  0  0  0  0
  5  6  1  0  0  0  0
  6  1  2  0  0  0  0
  8  3  1  0  0  0  0
  9  5  1  0  0  0  0
 10  9  1  0  0  0  0
 10 11  1  0  0  0  0
 12 10  2  0  0  0  0
 13 19  1  0  0  0  0
 13 12  1  0  0  0  0
 14 13  2  0  0  0  0
 15 17  2  0  0  0  0
 15 14  1  0  0  0  0
 16 15  1  0  0  0  0
 17 18  1  0  0  0  0
 18 19  2  0  0  0  0
 19 20  1  0  0  0  0
 20  9  2  0  0  0  0
 22 27  1  0  0  0  0
 22 21  1  0  0  0  0
 23 22  2  0  0  0  0
 24 25  2  0  0  0  0
 24 23  1  0  0  0  0
 25 26  1  0  0  0  0
 26 29  1  0  0  0  0
 26 27  2  0  0  0  0
 27 30  1  0  0  0  0
 28 24  1  0  0  0  0
 31 36  1  0  0  0  0
 31 37  1  0  0  0  0
 32 31  2  0  0  0  0
 33 34  2  0  0  0  0
 33 32  1  0  0  0  0
 34 35  1  0  0  0  0
 35 23  1  0  0  0  0
 35 36  2  0  0  0  0
 38 32  1  0  0  0  0
 39 33  1  0  0  0  0
M  END
>  <minimizedAffinity>
-7.1419034

>  <minimizedRMSD>
0.732028604

$$$$
