REMARK  Name = 
REMARK  6 active torsions:
REMARK  status: ('A' for Active; 'I' for Inactive)
REMARK    1  A    between atoms: C_1  and  O_14
REMARK    2  A    between atoms: C_2  and  C_8
REMARK    3  A    between atoms: C_6  and  O_15
REMARK    4  A    between atoms: C_9  and  C_13
REMARK    5  A    between atoms: O_15  and  C_17
REMARK    6  A    between atoms: C_24  and  C_38
REMARK                            x       y       z     vdW  Elec       q    Type
REMARK                         _______ _______ _______ _____ _____    ______ ____
ROOT
ATOM      1  C   UNL     1      40.572  31.183  44.416  0.00  0.00    +0.000 A 
ATOM      2  C   UNL     1      39.861  31.984  45.287  0.00  0.00    +0.000 A 
ATOM      3  C   UNL     1      38.783  32.732  44.798  0.00  0.00    +0.000 A 
ATOM      4  C   UNL     1      38.433  32.668  43.449  0.00  0.00    +0.000 A 
ATOM      5  N   UNL     1      37.488  33.235  42.681  0.00  0.00    +0.000 N 
ATOM      6  C   UNL     1      37.594  32.822  41.411  0.00  0.00    +0.000 A 
ATOM      7  N   UNL     1      38.648  31.956  41.369  0.00  0.00    +0.000 NA
ATOM      8  C   UNL     1      39.164  31.858  42.609  0.00  0.00    +0.000 A 
ATOM      9  C   UNL     1      40.230  31.114  43.078  0.00  0.00    +0.000 A 
ATOM     10  H   UNL     1      41.374  30.660  44.909  0.00  0.00    +0.000 HD
ATOM     11  H   UNL     1      38.141  33.397  45.358  0.00  0.00    +0.000 HD
ATOM     12  H   UNL     1      36.764  33.916  43.044  0.00  0.00    +0.000 HD
ATOM     13  H   UNL     1      36.945  33.148  40.635  0.00  0.00    +0.000 HD
ENDROOT
BRANCH   9  14
ATOM     14  C   UNL     1      41.047  30.237  42.242  0.00  0.00    +0.000 A 
ATOM     15  C   UNL     1      41.974  30.805  41.376  0.00  0.00    +0.000 A 
ATOM     16  H   UNL     1      42.113  31.882  41.298  0.00  0.00    +0.000 HD
ATOM     17  C   UNL     1      42.768  29.991  40.565  0.00  0.00    +0.000 A 
ATOM     18  C   UNL     1      42.658  28.617  40.599  0.00  0.00    +0.000 A 
ATOM     19  N   UNL     1      43.408  27.802  39.829  0.00  0.00    +0.000 NA
ATOM     20  C   UNL     1      43.314  26.459  39.849  0.00  0.00    +0.000 A 
ATOM     21  H   UNL     1      43.962  25.903  39.194  0.00  0.00    +0.000 HD
ATOM     22  C   UNL     1      42.395  25.868  40.707  0.00  0.00    +0.000 A 
ATOM     23  C   UNL     1      41.602  26.686  41.517  0.00  0.00    +0.000 A 
ATOM     24  C   UNL     1      41.734  28.078  41.463  0.00  0.00    +0.000 A 
ATOM     25  C   UNL     1      40.941  28.845  42.271  0.00  0.00    +0.000 A 
ENDBRANCH   9  14
BRANCH   2  26
ATOM     26  O   UNL     1      40.021  32.202  46.634  0.00  0.00    +0.000 OA
BRANCH  26  32
ATOM     27  C   UNL     1      38.087  31.306  47.773  0.00  0.00    +0.000 A 
ATOM     28  C   UNL     1      37.089  31.295  48.729  0.00  0.00    +0.000 A 
ATOM     29  C   UNL     1      37.128  32.410  49.597  0.00  0.00    +0.000 A 
ATOM     30  C   UNL     1      38.097  33.410  49.473  0.00  0.00    +0.000 A 
ATOM     31  C   UNL     1      39.070  33.307  48.450  0.00  0.00    +0.000 A 
ATOM     32  C   UNL     1      39.047  32.222  47.591  0.00  0.00    +0.000 A 
ATOM     33  H   UNL     1      36.370  32.466  50.374  0.00  0.00    +0.000 HD
ATOM     34  H   UNL     1      38.131  34.249  50.123  0.00  0.00    +0.000 HD
ATOM     35  H   UNL     1      39.804  34.093  48.379  0.00  0.00    +0.000 HD
BRANCH  28  37
ATOM     36  C   UNL     1      34.959  30.311  48.048  0.00  0.00    +0.000 A 
ATOM     37  C   UNL     1      36.102  30.285  48.862  0.00  0.00    +0.000 A 
ATOM     38  C   UNL     1      36.208  29.241  49.780  0.00  0.00    +0.000 A 
ATOM     39  N   UNL     1      35.224  28.323  49.840  0.00  0.00    +0.000 NA
ATOM     40  C   UNL     1      34.131  28.377  49.039  0.00  0.00    +0.000 A 
ATOM     41  N   UNL     1      34.013  29.372  48.152  0.00  0.00    +0.000 NA
ATOM     42  H   UNL     1      34.882  31.118  47.342  0.00  0.00    +0.000 HD
ATOM     43  H   UNL     1      33.388  27.593  49.158  0.00  0.00    +0.000 HD
BRANCH  38  44
ATOM     44  C   UNL     1      37.401  29.155  50.677  0.00  0.00    +0.000 C 
ATOM     45  H   UNL     1      37.452  30.033  51.361  0.00  0.00    +0.000 HD
ATOM     46  H   UNL     1      38.314  29.198  50.040  0.00  0.00    +0.000 HD
ATOM     47  H   UNL     1      37.337  28.206  51.239  0.00  0.00    +0.000 HD
ENDBRANCH  38  44
ENDBRANCH  28  37
BRANCH  27  48
ATOM     48  O   UNL     1      38.126  30.237  46.868  0.00  0.00    +0.000 OA
ATOM     49  H   UNL     1      37.253  29.801  46.572  0.00  0.00    +0.000 HD
ENDBRANCH  27  48
ENDBRANCH  26  32
ENDBRANCH   2  26
TORSDOF 6
