
 OpenBabel03272501593D

 34 37  0  0  0  0  0  0  0  0999 V2000
   35.9570   28.7570   33.9580 C   0  0  0  0  0  0  0  0  0  0  0  0
   36.2100   28.4470   32.6480 C   0  0  0  0  0  0  0  0  0  0  0  0
   37.0670   27.3610   32.5680 C   0  0  0  0  0  0  0  0  0  0  0  0
   37.3110   27.0400   33.8530 N   0  0  0  0  0  0  0  0  0  0  0  0
   36.6670   27.8490   34.6730 N   0  0  0  0  0  0  0  0  0  0  0  0
   35.8390   28.9270   31.7390 H   0  0  0  0  0  0  0  0  0  0  0  0
   37.5130   26.8030   31.7540 H   0  0  0  0  0  0  0  0  0  0  0  0
   38.1000   26.0340   34.4780 C   0  0  0  0  0  0  0  0  0  0  0  0
   39.1910   25.4440   33.8750 C   0  0  0  0  0  0  0  0  0  0  0  0
   39.4540   25.7620   32.8850 H   0  0  0  0  0  0  0  0  0  0  0  0
   39.8730   24.4750   34.5990 C   0  0  0  0  0  3  0  0  0  0  0  0
   39.4760   24.1180   35.8650 C   0  0  0  0  0  0  0  0  0  0  0  0
   40.1620   23.1770   36.5310 N   0  0  0  0  0  0  0  0  0  0  0  0
   39.7900   22.8100   37.7770 C   0  0  0  0  0  0  0  0  0  0  0  0
   40.3750   22.0350   38.2960 H   0  0  0  0  0  0  0  0  0  0  0  0
   38.7000   23.3830   38.4100 C   0  0  0  0  0  3  0  0  0  0  0  0
   37.9770   24.3520   37.7490 C   0  0  0  0  0  3  0  0  0  0  0  0
   38.3860   24.6990   36.4820 C   0  0  0  0  0  0  0  0  0  0  0  0
   37.7050   25.6690   35.7560 C   0  0  0  0  0  3  0  0  0  0  0  0
   35.0710   29.8760   34.4400 C   0  0  0  0  0  0  0  0  0  0  0  0
   34.7020   30.4780   33.5760 H   0  0  0  0  0  0  0  0  0  0  0  0
   34.2170   29.3780   34.9390 H   0  0  0  0  0  0  0  0  0  0  0  0
   35.9020   30.7290   35.3400 C   0  0  0  0  0  0  0  0  0  0  0  0
   36.6540   31.3230   34.7820 H   0  0  0  0  0  0  0  0  0  0  0  0
   36.4400   30.1180   36.0900 H   0  0  0  0  0  0  0  0  0  0  0  0
   34.6570   33.7630   37.0800 C   0  0  0  0  0  0  0  0  0  0  0  0
   33.3700   33.3560   37.4850 C   0  0  0  0  0  0  0  0  0  0  0  0
   32.9420   32.0500   37.1590 C   0  0  0  0  0  0  0  0  0  0  0  0
   33.7920   31.2480   36.4710 N   0  0  0  0  0  0  0  0  0  0  0  0
   35.0250   31.6790   36.0980 C   0  0  0  0  0  0  0  0  0  0  0  0
   35.4320   32.9030   36.4010 N   0  0  0  0  0  0  0  0  0  0  0  0
   34.9910   34.7600   37.3250 H   0  0  0  0  0  0  0  0  0  0  0  0
   32.6980   33.9790   38.0240 H   0  0  0  0  0  0  0  0  0  0  0  0
   31.9700   31.6590   37.4320 H   0  0  0  0  0  0  0  0  0  0  0  0
  1 20  1  0  0  0  0
  1  5  2  0  0  0  0
  2  1  1  0  0  0  0
  3  2  2  0  0  0  0
  3  4  1  0  0  0  0
  4  8  1  0  0  0  0
  4  5  1  0  0  0  0
  6  2  1  0  0  0  0
  7  3  1  0  0  0  0
  8 19  1  0  0  0  0
  9  8  2  0  0  0  0
  9 11  1  0  0  0  0
 10  9  1  0  0  0  0
 11 12  2  0  0  0  0
 12 18  1  0  0  0  0
 12 13  1  0  0  0  0
 13 14  2  0  0  0  0
 14 15  1  0  0  0  0
 14 16  1  0  0  0  0
 17 16  2  0  0  0  0
 18 17  1  0  0  0  0
 19 18  2  0  0  0  0
 20 22  1  0  0  0  0
 20 23  1  0  0  0  0
 21 20  1  0  0  0  0
 23 25  1  0  0  0  0
 23 30  1  0  0  0  0
 24 23  1  0  0  0  0
 26 32  1  0  0  0  0
 26 27  1  0  0  0  0
 27 33  1  0  0  0  0
 28 34  1  0  0  0  0
 28 27  2  0  0  0  0
 29 28  1  0  0  0  0
 30 31  1  0  0  0  0
 30 29  2  0  0  0  0
 31 26  2  0  0  0  0
M  END
>  <minimizedAffinity>
-6.08594179

$$$$

 OpenBabel03272501593D

 34 37  0  0  0  0  0  0  0  0999 V2000
   37.7400   27.1310   33.7270 C   0  0  0  0  0  0  0  0  0  0  0  0
   37.4700   27.3720   32.4050 C   0  0  0  0  0  0  0  0  0  0  0  0
   36.4400   28.2910   32.2860 C   0  0  0  0  0  0  0  0  0  0  0  0
   36.1140   28.5840   33.5590 N   0  0  0  0  0  0  0  0  0  0  0  0
   36.8670   27.9120   34.4080 N   0  0  0  0  0  0  0  0  0  0  0  0
   37.9410   26.9490   31.5140 H   0  0  0  0  0  0  0  0  0  0  0  0
   35.9240   28.7510   31.4530 H   0  0  0  0  0  0  0  0  0  0  0  0
   35.1470   29.4480   34.1480 C   0  0  0  0  0  0  0  0  0  0  0  0
   33.8000   29.3840   33.8620 C   0  0  0  0  0  0  0  0  0  0  0  0
   33.4680   28.6450   33.1590 H   0  0  0  0  0  0  0  0  0  0  0  0
   32.9670   30.2870   34.5090 C   0  0  0  0  0  3  0  0  0  0  0  0
   33.4650   31.2080   35.3990 C   0  0  0  0  0  0  0  0  0  0  0  0
   32.6260   32.0620   36.0030 N   0  0  0  0  0  0  0  0  0  0  0  0
   33.0940   32.9760   36.8820 C   0  0  0  0  0  0  0  0  0  0  0  0
   32.3790   33.6620   37.3610 H   0  0  0  0  0  0  0  0  0  0  0  0
   34.4410   33.0660   37.1920 C   0  0  0  0  0  3  0  0  0  0  0  0
   35.3240   32.2000   36.5860 C   0  0  0  0  0  3  0  0  0  0  0  0
   34.8110   31.2840   35.6970 C   0  0  0  0  0  0  0  0  0  0  0  0
   35.6430   30.3790   35.0480 C   0  0  0  0  0  3  0  0  0  0  0  0
   38.7950   26.1890   34.2480 C   0  0  0  0  0  0  0  0  0  0  0  0
   39.6480   26.1270   33.5320 H   0  0  0  0  0  0  0  0  0  0  0  0
   39.1410   26.6360   35.2010 H   0  0  0  0  0  0  0  0  0  0  0  0
   38.1490   24.8520   34.3920 C   0  0  0  0  0  0  0  0  0  0  0  0
   38.4980   24.1310   33.6250 H   0  0  0  0  0  0  0  0  0  0  0  0
   37.0470   24.9260   34.3120 H   0  0  0  0  0  0  0  0  0  0  0  0
   39.6560   22.8250   37.1130 C   0  0  0  0  0  0  0  0  0  0  0  0
   38.9460   23.2830   38.2410 C   0  0  0  0  0  0  0  0  0  0  0  0
   37.9600   24.2780   38.0600 C   0  0  0  0  0  0  0  0  0  0  0  0
   37.7440   24.7470   36.8060 N   0  0  0  0  0  0  0  0  0  0  0  0
   38.4500   24.2790   35.7440 C   0  0  0  0  0  0  0  0  0  0  0  0
   39.3770   23.3460   35.9080 N   0  0  0  0  0  0  0  0  0  0  0  0
   40.4110   22.0650   37.2440 H   0  0  0  0  0  0  0  0  0  0  0  0
   39.1100   22.9200   39.2270 H   0  0  0  0  0  0  0  0  0  0  0  0
   37.3710   24.6840   38.8710 H   0  0  0  0  0  0  0  0  0  0  0  0
  1 20  1  0  0  0  0
  1  5  2  0  0  0  0
  2  1  1  0  0  0  0
  3  2  2  0  0  0  0
  3  4  1  0  0  0  0
  4  8  1  0  0  0  0
  4  5  1  0  0  0  0
  6  2  1  0  0  0  0
  7  3  1  0  0  0  0
  8 19  1  0  0  0  0
  9  8  2  0  0  0  0
  9 11  1  0  0  0  0
 10  9  1  0  0  0  0
 11 12  2  0  0  0  0
 12 18  1  0  0  0  0
 12 13  1  0  0  0  0
 13 14  2  0  0  0  0
 14 16  1  0  0  0  0
 14 15  1  0  0  0  0
 17 16  2  0  0  0  0
 18 17  1  0  0  0  0
 19 18  2  0  0  0  0
 20 23  1  0  0  0  0
 20 22  1  0  0  0  0
 21 20  1  0  0  0  0
 23 30  1  0  0  0  0
 24 23  1  0  0  0  0
 25 23  1  0  0  0  0
 26 32  1  0  0  0  0
 26 27  1  0  0  0  0
 27 33  1  0  0  0  0
 28 27  2  0  0  0  0
 28 34  1  0  0  0  0
 29 28  1  0  0  0  0
 30 31  1  0  0  0  0
 30 29  2  0  0  0  0
 31 26  2  0  0  0  0
M  END
>  <minimizedAffinity>
-5.76242781

$$$$

 OpenBabel03272501593D

 34 37  0  0  0  0  0  0  0  0999 V2000
   36.0640   28.6580   33.8380 C   0  0  0  0  0  0  0  0  0  0  0  0
   36.0770   28.1460   32.5680 C   0  0  0  0  0  0  0  0  0  0  0  0
   36.8260   26.9810   32.5280 C   0  0  0  0  0  0  0  0  0  0  0  0
   37.2510   26.8210   33.7960 N   0  0  0  0  0  0  0  0  0  0  0  0
   36.8110   27.7950   34.5690 N   0  0  0  0  0  0  0  0  0  0  0  0
   35.5990   28.5280   31.6620 H   0  0  0  0  0  0  0  0  0  0  0  0
   37.0920   26.2740   31.7520 H   0  0  0  0  0  0  0  0  0  0  0  0
   38.0540   25.8390   34.4430 C   0  0  0  0  0  0  0  0  0  0  0  0
   39.1180   25.2100   33.8330 C   0  0  0  0  0  0  0  0  0  0  0  0
   39.3490   25.4760   32.8190 H   0  0  0  0  0  0  0  0  0  0  0  0
   39.8190   24.2720   34.5790 C   0  0  0  0  0  3  0  0  0  0  0  0
   39.4640   23.9820   35.8750 C   0  0  0  0  0  0  0  0  0  0  0  0
   40.1670   23.0700   36.5630 N   0  0  0  0  0  0  0  0  0  0  0  0
   39.8360   22.7690   37.8380 C   0  0  0  0  0  0  0  0  0  0  0  0
   40.4330   22.0150   38.3740 H   0  0  0  0  0  0  0  0  0  0  0  0
   38.7740   23.3820   38.4800 C   0  0  0  0  0  3  0  0  0  0  0  0
   38.0350   24.3240   37.7960 C   0  0  0  0  0  3  0  0  0  0  0  0
   38.4020   24.6040   36.5000 C   0  0  0  0  0  0  0  0  0  0  0  0
   37.7020   25.5430   35.7500 C   0  0  0  0  0  3  0  0  0  0  0  0
   35.3540   29.9150   34.2700 C   0  0  0  0  0  0  0  0  0  0  0  0
   35.3160   29.9780   35.3830 H   0  0  0  0  0  0  0  0  0  0  0  0
   35.9650   30.7480   33.8700 H   0  0  0  0  0  0  0  0  0  0  0  0
   33.9700   29.8420   33.7140 C   0  0  0  0  0  0  0  0  0  0  0  0
   33.8190   28.9470   33.0770 H   0  0  0  0  0  0  0  0  0  0  0  0
   33.7330   30.7360   33.1050 H   0  0  0  0  0  0  0  0  0  0  0  0
   31.0250   28.9330   35.7820 C   0  0  0  0  0  0  0  0  0  0  0  0
   31.1900   29.7690   36.9040 C   0  0  0  0  0  0  0  0  0  0  0  0
   32.3060   30.6350   36.9420 C   0  0  0  0  0  0  0  0  0  0  0  0
   33.1670   30.6190   35.8940 N   0  0  0  0  0  0  0  0  0  0  0  0
   32.9710   29.7970   34.8300 C   0  0  0  0  0  0  0  0  0  0  0  0
   31.9270   28.9820   34.7900 N   0  0  0  0  0  0  0  0  0  0  0  0
   30.1750   28.2680   35.7470 H   0  0  0  0  0  0  0  0  0  0  0  0
   30.5200   29.7860   37.7290 H   0  0  0  0  0  0  0  0  0  0  0  0
   32.5070   31.3080   37.7650 H   0  0  0  0  0  0  0  0  0  0  0  0
  1 20  1  0  0  0  0
  1  5  2  0  0  0  0
  2  1  1  0  0  0  0
  3  2  2  0  0  0  0
  3  4  1  0  0  0  0
  4  8  1  0  0  0  0
  4  5  1  0  0  0  0
  6  2  1  0  0  0  0
  7  3  1  0  0  0  0
  8 19  1  0  0  0  0
  9  8  2  0  0  0  0
  9 11  1  0  0  0  0
 10  9  1  0  0  0  0
 11 12  2  0  0  0  0
 12 18  1  0  0  0  0
 12 13  1  0  0  0  0
 13 14  2  0  0  0  0
 14 15  1  0  0  0  0
 14 16  1  0  0  0  0
 17 16  2  0  0  0  0
 18 17  1  0  0  0  0
 19 18  2  0  0  0  0
 20 21  1  0  0  0  0
 22 20  1  0  0  0  0
 23 20  1  0  0  0  0
 23 30  1  0  0  0  0
 24 23  1  0  0  0  0
 25 23  1  0  0  0  0
 26 27  1  0  0  0  0
 27 28  2  0  0  0  0
 27 33  1  0  0  0  0
 28 34  1  0  0  0  0
 29 28  1  0  0  0  0
 30 29  2  0  0  0  0
 31 30  1  0  0  0  0
 31 26  2  0  0  0  0
 32 26  1  0  0  0  0
M  END
>  <minimizedAffinity>
-5.7273941

$$$$

 OpenBabel03272501593D

 34 37  0  0  0  0  0  0  0  0999 V2000
   37.0880   26.7330   32.8790 C   0  0  0  0  0  0  0  0  0  0  0  0
   36.8270   27.6760   33.8380 C   0  0  0  0  0  0  0  0  0  0  0  0
   37.2620   27.2340   35.0770 C   0  0  0  0  0  0  0  0  0  0  0  0
   37.7820   26.0180   34.8270 N   0  0  0  0  0  0  0  0  0  0  0  0
   37.6860   25.7150   33.5470 N   0  0  0  0  0  0  0  0  0  0  0  0
   36.3520   28.6540   33.7340 H   0  0  0  0  0  0  0  0  0  0  0  0
   37.2540   27.6480   36.0770 H   0  0  0  0  0  0  0  0  0  0  0  0
   38.3950   25.0280   35.6470 C   0  0  0  0  0  0  0  0  0  0  0  0
   37.8590   24.5960   36.8410 C   0  0  0  0  0  0  0  0  0  0  0  0
   36.9330   25.0310   37.1660 H   0  0  0  0  0  0  0  0  0  0  0  0
   38.5600   23.6230   37.5410 C   0  0  0  0  0  3  0  0  0  0  0  0
   39.7420   23.1110   37.0620 C   0  0  0  0  0  0  0  0  0  0  0  0
   40.3890   22.1720   37.7680 N   0  0  0  0  0  0  0  0  0  0  0  0
   41.5530   21.6550   37.3160 C   0  0  0  0  0  0  0  0  0  0  0  0
   42.0580   20.8860   37.9200 H   0  0  0  0  0  0  0  0  0  0  0  0
   42.1180   22.0670   36.1210 C   0  0  0  0  0  3  0  0  0  0  0  0
   41.4740   23.0300   35.3750 C   0  0  0  0  0  3  0  0  0  0  0  0
   40.2920   23.5330   35.8680 C   0  0  0  0  0  0  0  0  0  0  0  0
   39.5870   24.5070   35.1690 C   0  0  0  0  0  3  0  0  0  0  0  0
   36.7590   26.8570   31.4140 C   0  0  0  0  0  0  0  0  0  0  0  0
   36.4360   27.8980   31.1760 H   0  0  0  0  0  0  0  0  0  0  0  0
   37.7030   26.6290   30.8820 H   0  0  0  0  0  0  0  0  0  0  0  0
   35.6480   25.9000   31.1370 C   0  0  0  0  0  0  0  0  0  0  0  0
   35.1440   26.1080   30.1720 H   0  0  0  0  0  0  0  0  0  0  0  0
   34.8800   25.9310   31.9350 H   0  0  0  0  0  0  0  0  0  0  0  0
   35.9480   22.2240   31.5610 C   0  0  0  0  0  0  0  0  0  0  0  0
   37.2070   21.9680   30.9830 C   0  0  0  0  0  0  0  0  0  0  0  0
   37.9400   23.0540   30.4550 C   0  0  0  0  0  0  0  0  0  0  0  0
   37.3950   24.2940   30.5300 N   0  0  0  0  0  0  0  0  0  0  0  0
   36.1770   24.4980   31.0950 C   0  0  0  0  0  0  0  0  0  0  0  0
   35.4850   23.4830   31.5920 N   0  0  0  0  0  0  0  0  0  0  0  0
   35.3820   21.3980   31.9660 H   0  0  0  0  0  0  0  0  0  0  0  0
   37.6400   21.0000   30.9200 H   0  0  0  0  0  0  0  0  0  0  0  0
   38.9130   22.9450   29.9940 H   0  0  0  0  0  0  0  0  0  0  0  0
  1  5  2  0  0  0  0
  1  2  1  0  0  0  0
  2  3  2  0  0  0  0
  3  7  1  0  0  0  0
  4  3  1  0  0  0  0
  4  8  1  0  0  0  0
  5  4  1  0  0  0  0
  6  2  1  0  0  0  0
  8  9  1  0  0  0  0
  9 10  1  0  0  0  0
  9 11  2  0  0  0  0
 12 11  1  0  0  0  0
 12 13  1  0  0  0  0
 14 13  2  0  0  0  0
 14 15  1  0  0  0  0
 16 14  1  0  0  0  0
 17 18  1  0  0  0  0
 17 16  2  0  0  0  0
 18 12  2  0  0  0  0
 19  8  2  0  0  0  0
 19 18  1  0  0  0  0
 20  1  1  0  0  0  0
 21 20  1  0  0  0  0
 22 20  1  0  0  0  0
 23 20  1  0  0  0  0
 23 25  1  0  0  0  0
 24 23  1  0  0  0  0
 26 31  1  0  0  0  0
 26 32  1  0  0  0  0
 27 26  2  0  0  0  0
 28 29  2  0  0  0  0
 28 27  1  0  0  0  0
 29 30  1  0  0  0  0
 30 23  1  0  0  0  0
 30 31  2  0  0  0  0
 33 27  1  0  0  0  0
 34 28  1  0  0  0  0
M  END
>  <minimizedAffinity>
-5.65828753

$$$$

 OpenBabel03272501593D

 34 37  0  0  0  0  0  0  0  0999 V2000
   37.7280   25.9150   33.4180 C   0  0  0  0  0  0  0  0  0  0  0  0
   36.9610   25.5300   32.3500 C   0  0  0  0  0  0  0  0  0  0  0  0
   36.0890   26.5470   31.9950 C   0  0  0  0  0  0  0  0  0  0  0  0
   36.3590   27.5320   32.8720 N   0  0  0  0  0  0  0  0  0  0  0  0
   37.3150   27.1730   33.7070 N   0  0  0  0  0  0  0  0  0  0  0  0
   36.9660   24.5870   31.7990 H   0  0  0  0  0  0  0  0  0  0  0  0
   35.3290   26.6650   31.2320 H   0  0  0  0  0  0  0  0  0  0  0  0
   35.8330   28.8400   33.0670 C   0  0  0  0  0  0  0  0  0  0  0  0
   35.1250   29.5230   32.1010 C   0  0  0  0  0  0  0  0  0  0  0  0
   34.9660   29.0420   31.1560 H   0  0  0  0  0  0  0  0  0  0  0  0
   34.6680   30.7940   32.4240 C   0  0  0  0  0  3  0  0  0  0  0  0
   34.9110   31.3480   33.6580 C   0  0  0  0  0  0  0  0  0  0  0  0
   34.4510   32.5780   33.9310 N   0  0  0  0  0  0  0  0  0  0  0  0
   34.6780   33.1430   35.1380 C   0  0  0  0  0  0  0  0  0  0  0  0
   34.2870   34.1540   35.3300 H   0  0  0  0  0  0  0  0  0  0  0  0
   35.3850   32.4840   36.1290 C   0  0  0  0  0  3  0  0  0  0  0  0
   35.8680   31.2180   35.8760 C   0  0  0  0  0  3  0  0  0  0  0  0
   35.6170   30.6770   34.6360 C   0  0  0  0  0  0  0  0  0  0  0  0
   36.0740   29.4050   34.3100 C   0  0  0  0  0  3  0  0  0  0  0  0
   38.7880   25.0760   34.0840 C   0  0  0  0  0  0  0  0  0  0  0  0
   39.5810   24.7970   33.3500 H   0  0  0  0  0  0  0  0  0  0  0  0
   39.2210   25.7230   34.8720 H   0  0  0  0  0  0  0  0  0  0  0  0
   38.1100   23.8490   34.5960 C   0  0  0  0  0  0  0  0  0  0  0  0
   38.4500   22.9310   34.0730 H   0  0  0  0  0  0  0  0  0  0  0  0
   37.0110   23.9180   34.4820 H   0  0  0  0  0  0  0  0  0  0  0  0
   37.8200   24.0560   38.2910 C   0  0  0  0  0  0  0  0  0  0  0  0
   38.9580   23.3380   38.7110 C   0  0  0  0  0  0  0  0  0  0  0  0
   39.8120   22.7920   37.7270 C   0  0  0  0  0  0  0  0  0  0  0  0
   39.4950   22.9850   36.4220 N   0  0  0  0  0  0  0  0  0  0  0  0
   38.3870   23.6830   36.0590 C   0  0  0  0  0  0  0  0  0  0  0  0
   37.5820   24.1970   36.9780 N   0  0  0  0  0  0  0  0  0  0  0  0
   37.1620   24.4750   39.0380 H   0  0  0  0  0  0  0  0  0  0  0  0
   39.2120   23.1830   39.7310 H   0  0  0  0  0  0  0  0  0  0  0  0
   40.7040   22.2280   37.9640 H   0  0  0  0  0  0  0  0  0  0  0  0
  1  5  2  0  0  0  0
  1 20  1  0  0  0  0
  2  1  1  0  0  0  0
  3  2  2  0  0  0  0
  3  4  1  0  0  0  0
  4  8  1  0  0  0  0
  4  5  1  0  0  0  0
  6  2  1  0  0  0  0
  7  3  1  0  0  0  0
  8 19  1  0  0  0  0
  9 11  1  0  0  0  0
  9  8  2  0  0  0  0
 10  9  1  0  0  0  0
 11 12  2  0  0  0  0
 12 13  1  0  0  0  0
 12 18  1  0  0  0  0
 13 14  2  0  0  0  0
 14 15  1  0  0  0  0
 14 16  1  0  0  0  0
 17 16  2  0  0  0  0
 18 17  1  0  0  0  0
 19 18  2  0  0  0  0
 20 23  1  0  0  0  0
 20 22  1  0  0  0  0
 21 20  1  0  0  0  0
 23 30  1  0  0  0  0
 24 23  1  0  0  0  0
 25 23  1  0  0  0  0
 26 27  1  0  0  0  0
 26 32  1  0  0  0  0
 27 33  1  0  0  0  0
 28 34  1  0  0  0  0
 28 27  2  0  0  0  0
 29 28  1  0  0  0  0
 30 29  2  0  0  0  0
 30 31  1  0  0  0  0
 31 26  2  0  0  0  0
M  END
>  <minimizedAffinity>
-5.58287477

$$$$

 OpenBabel03272501593D

 34 37  0  0  0  0  0  0  0  0999 V2000
   35.8940   28.8650   34.0410 C   0  0  0  0  0  0  0  0  0  0  0  0
   36.0720   28.5290   32.7240 C   0  0  0  0  0  0  0  0  0  0  0  0
   36.9090   27.4290   32.6190 C   0  0  0  0  0  0  0  0  0  0  0  0
   37.2160   27.1280   33.8940 N   0  0  0  0  0  0  0  0  0  0  0  0
   36.6290   27.9600   34.7330 N   0  0  0  0  0  0  0  0  0  0  0  0
   35.6590   28.9980   31.8280 H   0  0  0  0  0  0  0  0  0  0  0  0
   37.3030   26.8510   31.7930 H   0  0  0  0  0  0  0  0  0  0  0  0
   38.0240   26.1210   34.4950 C   0  0  0  0  0  0  0  0  0  0  0  0
   39.1240   25.5650   33.8780 C   0  0  0  0  0  0  0  0  0  0  0  0
   39.3800   25.9100   32.8950 H   0  0  0  0  0  0  0  0  0  0  0  0
   39.8240   24.5910   34.5770 C   0  0  0  0  0  3  0  0  0  0  0  0
   39.4360   24.1980   35.8360 C   0  0  0  0  0  0  0  0  0  0  0  0
   40.1410   23.2550   36.4790 N   0  0  0  0  0  0  0  0  0  0  0  0
   39.7770   22.8520   37.7170 C   0  0  0  0  0  0  0  0  0  0  0  0
   40.3760   22.0760   38.2170 H   0  0  0  0  0  0  0  0  0  0  0  0
   38.6780   23.3910   38.3650 C   0  0  0  0  0  3  0  0  0  0  0  0
   37.9380   24.3630   37.7270 C   0  0  0  0  0  3  0  0  0  0  0  0
   38.3380   24.7460   36.4680 C   0  0  0  0  0  0  0  0  0  0  0  0
   37.6380   25.7200   35.7650 C   0  0  0  0  0  3  0  0  0  0  0  0
   35.0500   30.0050   34.5480 C   0  0  0  0  0  0  0  0  0  0  0  0
   34.7010   30.6380   33.6980 H   0  0  0  0  0  0  0  0  0  0  0  0
   34.1790   29.5280   35.0390 H   0  0  0  0  0  0  0  0  0  0  0  0
   35.9130   30.8080   35.4630 C   0  0  0  0  0  0  0  0  0  0  0  0
   36.8850   30.3150   35.6660 H   0  0  0  0  0  0  0  0  0  0  0  0
   35.4130   30.9850   36.4360 H   0  0  0  0  0  0  0  0  0  0  0  0
   36.2400   33.5840   33.0200 C   0  0  0  0  0  0  0  0  0  0  0  0
   36.7070   34.6340   33.8360 C   0  0  0  0  0  0  0  0  0  0  0  0
   36.9040   34.3820   35.2120 C   0  0  0  0  0  0  0  0  0  0  0  0
   36.6350   33.1380   35.6830 N   0  0  0  0  0  0  0  0  0  0  0  0
   36.1860   32.1530   34.8620 C   0  0  0  0  0  0  0  0  0  0  0  0
   35.9990   32.3840   33.5710 N   0  0  0  0  0  0  0  0  0  0  0  0
   36.0860   33.7690   31.9670 H   0  0  0  0  0  0  0  0  0  0  0  0
   36.9200   35.6100   33.4750 H   0  0  0  0  0  0  0  0  0  0  0  0
   37.2590   35.1310   35.9070 H   0  0  0  0  0  0  0  0  0  0  0  0
  1 20  1  0  0  0  0
  1  5  2  0  0  0  0
  2  1  1  0  0  0  0
  3  2  2  0  0  0  0
  3  4  1  0  0  0  0
  4  8  1  0  0  0  0
  4  5  1  0  0  0  0
  6  2  1  0  0  0  0
  7  3  1  0  0  0  0
  8 19  1  0  0  0  0
  9  8  2  0  0  0  0
  9 11  1  0  0  0  0
 10  9  1  0  0  0  0
 11 12  2  0  0  0  0
 12 18  1  0  0  0  0
 12 13  1  0  0  0  0
 13 14  2  0  0  0  0
 14 15  1  0  0  0  0
 14 16  1  0  0  0  0
 17 16  2  0  0  0  0
 18 17  1  0  0  0  0
 19 18  2  0  0  0  0
 20 22  1  0  0  0  0
 20 23  1  0  0  0  0
 21 20  1  0  0  0  0
 23 24  1  0  0  0  0
 23 25  1  0  0  0  0
 26 31  2  0  0  0  0
 26 27  1  0  0  0  0
 27 28  2  0  0  0  0
 28 29  1  0  0  0  0
 28 34  1  0  0  0  0
 30 23  1  0  0  0  0
 30 29  2  0  0  0  0
 31 30  1  0  0  0  0
 32 26  1  0  0  0  0
 33 27  1  0  0  0  0
M  END
>  <minimizedAffinity>
-5.54506254

$$$$

 OpenBabel03272501593D

 34 37  0  0  0  0  0  0  0  0999 V2000
   36.5010   28.0000   33.7420 C   0  0  0  0  0  0  0  0  0  0  0  0
   37.3580   27.7310   32.7070 C   0  0  0  0  0  0  0  0  0  0  0  0
   38.2210   26.7040   33.0520 C   0  0  0  0  0  0  0  0  0  0  0  0
   37.8550   26.3760   34.3060 N   0  0  0  0  0  0  0  0  0  0  0  0
   36.8510   27.1270   34.7180 N   0  0  0  0  0  0  0  0  0  0  0  0
   37.4240   28.2040   31.7240 H   0  0  0  0  0  0  0  0  0  0  0  0
   39.0310   26.1910   32.5500 H   0  0  0  0  0  0  0  0  0  0  0  0
   38.3230   25.4110   35.2420 C   0  0  0  0  0  0  0  0  0  0  0  0
   37.6710   25.1220   36.4220 C   0  0  0  0  0  0  0  0  0  0  0  0
   36.7670   25.6550   36.6420 H   0  0  0  0  0  0  0  0  0  0  0  0
   38.2370   24.1570   37.2440 C   0  0  0  0  0  3  0  0  0  0  0  0
   39.4010   23.5150   36.8950 C   0  0  0  0  0  0  0  0  0  0  0  0
   39.9150   22.5880   37.7170 N   0  0  0  0  0  0  0  0  0  0  0  0
   41.0580   21.9430   37.3940 C   0  0  0  0  0  0  0  0  0  0  0  0
   41.4530   21.1880   38.0910 H   0  0  0  0  0  0  0  0  0  0  0  0
   41.7370   22.2090   36.2170 C   0  0  0  0  0  3  0  0  0  0  0  0
   41.2300   23.1560   35.3540 C   0  0  0  0  0  3  0  0  0  0  0  0
   40.0650   23.7920   35.7170 C   0  0  0  0  0  0  0  0  0  0  0  0
   39.4960   24.7580   34.8950 C   0  0  0  0  0  3  0  0  0  0  0  0
   35.4220   29.0520   33.7370 C   0  0  0  0  0  0  0  0  0  0  0  0
   35.1890   29.3640   32.6920 H   0  0  0  0  0  0  0  0  0  0  0  0
   34.5360   28.5630   34.1860 H   0  0  0  0  0  0  0  0  0  0  0  0
   35.9460   30.2130   34.5140 C   0  0  0  0  0  0  0  0  0  0  0  0
   36.2710   31.0470   33.8580 H   0  0  0  0  0  0  0  0  0  0  0  0
   36.8090   29.9210   35.1430 H   0  0  0  0  0  0  0  0  0  0  0  0
   34.2100   32.1500   37.1620 C   0  0  0  0  0  0  0  0  0  0  0  0
   32.9030   31.6270   37.0930 C   0  0  0  0  0  0  0  0  0  0  0  0
   32.6300   30.6180   36.1420 C   0  0  0  0  0  0  0  0  0  0  0  0
   33.6410   30.2000   35.3400 N   0  0  0  0  0  0  0  0  0  0  0  0
   34.8870   30.7320   35.4390 C   0  0  0  0  0  0  0  0  0  0  0  0
   35.1490   31.6780   36.3280 N   0  0  0  0  0  0  0  0  0  0  0  0
   34.4260   32.9220   37.8860 H   0  0  0  0  0  0  0  0  0  0  0  0
   32.1060   31.9490   37.7180 H   0  0  0  0  0  0  0  0  0  0  0  0
   31.6550   30.1640   36.0240 H   0  0  0  0  0  0  0  0  0  0  0  0
  1  5  2  0  0  0  0
  2  3  2  0  0  0  0
  2  1  1  0  0  0  0
  3  4  1  0  0  0  0
  4  5  1  0  0  0  0
  4  8  1  0  0  0  0
  6  2  1  0  0  0  0
  7  3  1  0  0  0  0
  8  9  1  0  0  0  0
  9 10  1  0  0  0  0
  9 11  2  0  0  0  0
 12 11  1  0  0  0  0
 12 13  1  0  0  0  0
 14 13  2  0  0  0  0
 14 15  1  0  0  0  0
 16 14  1  0  0  0  0
 17 18  1  0  0  0  0
 17 16  2  0  0  0  0
 18 12  2  0  0  0  0
 19  8  2  0  0  0  0
 19 18  1  0  0  0  0
 20  1  1  0  0  0  0
 20 22  1  0  0  0  0
 20 23  1  0  0  0  0
 21 20  1  0  0  0  0
 23 25  1  0  0  0  0
 23 30  1  0  0  0  0
 24 23  1  0  0  0  0
 26 32  1  0  0  0  0
 27 26  1  0  0  0  0
 27 33  1  0  0  0  0
 28 27  2  0  0  0  0
 29 30  2  0  0  0  0
 29 28  1  0  0  0  0
 30 31  1  0  0  0  0
 31 26  2  0  0  0  0
 34 28  1  0  0  0  0
M  END
>  <minimizedAffinity>
-5.54325581

$$$$

 OpenBabel03272501593D

 34 37  0  0  0  0  0  0  0  0999 V2000
   37.2600   24.0350   32.6920 C   0  0  0  0  0  0  0  0  0  0  0  0
   36.3750   23.7340   31.6900 C   0  0  0  0  0  0  0  0  0  0  0  0
   35.8290   24.8950   31.1670 C   0  0  0  0  0  0  0  0  0  0  0  0
   36.4100   25.8800   31.8780 N   0  0  0  0  0  0  0  0  0  0  0  0
   37.2480   25.3880   32.7710 N   0  0  0  0  0  0  0  0  0  0  0  0
   36.0800   22.7580   31.2980 H   0  0  0  0  0  0  0  0  0  0  0  0
   35.1110   25.1130   30.3870 H   0  0  0  0  0  0  0  0  0  0  0  0
   36.3010   27.2990   31.8550 C   0  0  0  0  0  0  0  0  0  0  0  0
   36.4350   28.0500   30.7070 C   0  0  0  0  0  0  0  0  0  0  0  0
   36.6310   27.5350   29.7860 H   0  0  0  0  0  0  0  0  0  0  0  0
   36.3050   29.4270   30.8260 C   0  0  0  0  0  3  0  0  0  0  0  0
   36.0530   30.0180   32.0410 C   0  0  0  0  0  0  0  0  0  0  0  0
   35.9330   31.3520   32.1140 N   0  0  0  0  0  0  0  0  0  0  0  0
   35.6860   31.9550   33.2990 C   0  0  0  0  0  0  0  0  0  0  0  0
   35.5940   33.0510   33.3240 H   0  0  0  0  0  0  0  0  0  0  0  0
   35.5460   31.2290   34.4700 C   0  0  0  0  0  3  0  0  0  0  0  0
   35.6640   29.8570   34.4230 C   0  0  0  0  0  3  0  0  0  0  0  0
   35.9160   29.2800   33.2000 C   0  0  0  0  0  0  0  0  0  0  0  0
   36.0470   27.9010   33.0780 C   0  0  0  0  0  3  0  0  0  0  0  0
   38.0480   23.0340   33.4960 C   0  0  0  0  0  0  0  0  0  0  0  0
   37.3920   22.5380   34.2500 H   0  0  0  0  0  0  0  0  0  0  0  0
   38.4040   22.2850   32.7620 H   0  0  0  0  0  0  0  0  0  0  0  0
   39.1360   23.7900   34.1830 C   0  0  0  0  0  0  0  0  0  0  0  0
   39.1310   24.8680   33.9190 H   0  0  0  0  0  0  0  0  0  0  0  0
   40.1330   23.3830   33.9280 H   0  0  0  0  0  0  0  0  0  0  0  0
   37.8630   24.2020   37.6460 C   0  0  0  0  0  0  0  0  0  0  0  0
   38.7670   23.4090   38.3820 C   0  0  0  0  0  0  0  0  0  0  0  0
   39.8010   22.7440   37.6870 C   0  0  0  0  0  0  0  0  0  0  0  0
   39.8750   22.8990   36.3410 N   0  0  0  0  0  0  0  0  0  0  0  0
   38.9830   23.6720   35.6690 C   0  0  0  0  0  0  0  0  0  0  0  0
   38.0100   24.2990   36.3160 N   0  0  0  0  0  0  0  0  0  0  0  0
   37.0700   24.7130   38.1700 H   0  0  0  0  0  0  0  0  0  0  0  0
   38.7150   23.2830   39.4360 H   0  0  0  0  0  0  0  0  0  0  0  0
   40.5350   22.1170   38.1750 H   0  0  0  0  0  0  0  0  0  0  0  0
  1  5  2  0  0  0  0
  1 20  1  0  0  0  0
  2  1  1  0  0  0  0
  3  2  2  0  0  0  0
  3  4  1  0  0  0  0
  4  5  1  0  0  0  0
  6  2  1  0  0  0  0
  7  3  1  0  0  0  0
  8  4  1  0  0  0  0
  8 19  1  0  0  0  0
  9 11  1  0  0  0  0
  9  8  2  0  0  0  0
 10  9  1  0  0  0  0
 11 12  2  0  0  0  0
 12 13  1  0  0  0  0
 12 18  1  0  0  0  0
 13 14  2  0  0  0  0
 14 15  1  0  0  0  0
 14 16  1  0  0  0  0
 17 16  2  0  0  0  0
 18 17  1  0  0  0  0
 19 18  2  0  0  0  0
 20 23  1  0  0  0  0
 20 21  1  0  0  0  0
 22 20  1  0  0  0  0
 23 30  1  0  0  0  0
 24 23  1  0  0  0  0
 25 23  1  0  0  0  0
 26 32  1  0  0  0  0
 26 27  1  0  0  0  0
 27 33  1  0  0  0  0
 28 34  1  0  0  0  0
 28 27  2  0  0  0  0
 29 28  1  0  0  0  0
 30 31  1  0  0  0  0
 30 29  2  0  0  0  0
 31 26  2  0  0  0  0
M  END
>  <minimizedAffinity>
-5.53363132

$$$$

 OpenBabel03272501593D

 34 37  0  0  0  0  0  0  0  0999 V2000
   37.9910   25.3140   35.9670 C   0  0  0  0  0  0  0  0  0  0  0  0
   38.3840   26.4920   36.5450 C   0  0  0  0  0  0  0  0  0  0  0  0
   38.3230   27.5230   35.6210 C   0  0  0  0  0  0  0  0  0  0  0  0
   37.8880   26.9290   34.4940 N   0  0  0  0  0  0  0  0  0  0  0  0
   37.6910   25.6380   34.6850 N   0  0  0  0  0  0  0  0  0  0  0  0
   38.7120   26.6850   37.5690 H   0  0  0  0  0  0  0  0  0  0  0  0
   38.5390   28.5840   35.6510 H   0  0  0  0  0  0  0  0  0  0  0  0
   37.6090   27.4040   33.1810 C   0  0  0  0  0  0  0  0  0  0  0  0
   36.3770   27.8900   32.7980 C   0  0  0  0  0  0  0  0  0  0  0  0
   35.5920   27.9080   33.5290 H   0  0  0  0  0  0  0  0  0  0  0  0
   36.2420   28.3220   31.4860 C   0  0  0  0  0  3  0  0  0  0  0  0
   37.2940   28.2680   30.6040 C   0  0  0  0  0  0  0  0  0  0  0  0
   37.1220   28.6960   29.3440 N   0  0  0  0  0  0  0  0  0  0  0  0
   38.1440   28.6520   28.4600 C   0  0  0  0  0  0  0  0  0  0  0  0
   37.9690   29.0110   27.4340 H   0  0  0  0  0  0  0  0  0  0  0  0
   39.3930   28.1700   28.8130 C   0  0  0  0  0  3  0  0  0  0  0  0
   39.5970   27.7240   30.1010 C   0  0  0  0  0  3  0  0  0  0  0  0
   38.5340   27.7850   30.9720 C   0  0  0  0  0  0  0  0  0  0  0  0
   38.6670   27.3520   32.2870 C   0  0  0  0  0  3  0  0  0  0  0  0
   37.9260   23.9770   36.6590 C   0  0  0  0  0  0  0  0  0  0  0  0
   38.4770   24.0140   37.6280 H   0  0  0  0  0  0  0  0  0  0  0  0
   36.8500   23.7990   36.8490 H   0  0  0  0  0  0  0  0  0  0  0  0
   38.5640   22.9850   35.7450 C   0  0  0  0  0  0  0  0  0  0  0  0
   39.2980   22.3400   36.2700 H   0  0  0  0  0  0  0  0  0  0  0  0
   39.0900   23.4870   34.9090 H   0  0  0  0  0  0  0  0  0  0  0  0
   35.6590   20.7100   35.3440 C   0  0  0  0  0  0  0  0  0  0  0  0
   35.6400   20.5070   33.9500 C   0  0  0  0  0  0  0  0  0  0  0  0
   36.6210   21.1490   33.1620 C   0  0  0  0  0  0  0  0  0  0  0  0
   37.5360   21.9320   33.7870 N   0  0  0  0  0  0  0  0  0  0  0  0
   37.5180   22.1030   35.1350 C   0  0  0  0  0  0  0  0  0  0  0  0
   36.6000   21.5030   35.8790 N   0  0  0  0  0  0  0  0  0  0  0  0
   34.9110   20.2230   35.9530 H   0  0  0  0  0  0  0  0  0  0  0  0
   34.9270   19.8950   33.4540 H   0  0  0  0  0  0  0  0  0  0  0  0
   36.6780   21.0460   32.0870 H   0  0  0  0  0  0  0  0  0  0  0  0
  1  2  1  0  0  0  0
  1 20  1  0  0  0  0
  2  6  1  0  0  0  0
  3  7  1  0  0  0  0
  3  2  2  0  0  0  0
  4  5  1  0  0  0  0
  4  3  1  0  0  0  0
  5  1  2  0  0  0  0
  8  4  1  0  0  0  0
  9  8  1  0  0  0  0
  9 10  1  0  0  0  0
 11  9  2  0  0  0  0
 12 18  1  0  0  0  0
 12 11  1  0  0  0  0
 13 12  2  0  0  0  0
 14 16  2  0  0  0  0
 14 13  1  0  0  0  0
 15 14  1  0  0  0  0
 16 17  1  0  0  0  0
 17 18  2  0  0  0  0
 18 19  1  0  0  0  0
 19  8  2  0  0  0  0
 20 22  1  0  0  0  0
 20 21  1  0  0  0  0
 23 24  1  0  0  0  0
 23 20  1  0  0  0  0
 25 23  1  0  0  0  0
 26 31  1  0  0  0  0
 26 32  1  0  0  0  0
 27 26  2  0  0  0  0
 28 29  2  0  0  0  0
 28 27  1  0  0  0  0
 29 30  1  0  0  0  0
 30 23  1  0  0  0  0
 30 31  2  0  0  0  0
 33 27  1  0  0  0  0
 34 28  1  0  0  0  0
M  END
>  <minimizedAffinity>
-5.51150179

$$$$
