
     RDKit          3D

 45 49  0  0  0  0  0  0  0  0999 V2000
   38.4144   31.1190   48.2194 C   0  0  2  0  0  0  0  0  0  0  0  0
   38.6762   32.5597   48.0889 C   0  0  0  0  0  0  0  0  0  0  0  0
   38.0468   31.7065   46.9567 C   0  0  1  0  0  0  0  0  0  0  0  0
   35.0931   30.2223   49.5539 C   0  0  0  0  0  0  0  0  0  0  0  0
   35.4237   29.5405   50.7704 C   0  0  0  0  0  0  0  0  0  0  0  0
   36.8265   29.4176   51.0989 C   0  0  0  0  0  0  0  0  0  0  0  0
   37.7574   29.9432   50.2577 N   0  0  0  0  0  0  0  0  0  0  0  0
   37.3580   30.5792   49.1159 C   0  0  0  0  0  0  0  0  0  0  0  0
   36.0401   30.7355   48.7361 N   0  0  0  0  0  0  0  0  0  0  0  0
   38.4035   31.8450   44.5163 C   0  0  0  0  0  0  0  0  0  0  0  0
   37.2954   32.4492   44.4044 O   0  0  0  0  0  0  0  0  0  0  0  0
   38.9289   31.5281   45.8152 N   0  0  0  0  0  0  0  0  0  0  0  0
   39.1787   31.4535   43.3301 C   0  0  0  0  0  0  0  0  0  0  0  0
   40.1428   30.4926   43.4776 C   0  0  0  0  0  0  0  0  0  0  0  0
   40.8735   30.1056   42.3625 C   0  0  0  0  0  0  0  0  0  0  0  0
   40.5829   30.7129   41.1788 C   0  0  0  0  0  0  0  0  0  0  0  0
   39.6135   31.6856   41.0130 C   0  0  0  0  0  0  0  0  0  0  0  0
   38.9507   32.0039   42.1393 N   0  0  0  0  0  0  0  0  0  0  0  0
   39.3610   30.5187   48.3184 H   0  0  0  0  0  0  0  0  0  0  0  0
   39.6863   32.9327   47.9215 H   0  0  0  0  0  0  0  0  0  0  0  0
   37.9673   33.2261   48.6396 H   0  0  0  0  0  0  0  0  0  0  0  0
   36.9815   31.9486   46.7462 H   0  0  0  0  0  0  0  0  0  0  0  0
   34.0592   30.3209   49.2975 H   0  0  0  0  0  0  0  0  0  0  0  0
   34.6586   29.1428   51.4018 H   0  0  0  0  0  0  0  0  0  0  0  0
   37.0657   28.9101   52.0038 H   0  0  0  0  0  0  0  0  0  0  0  0
   39.8996   31.1804   45.9815 H   0  0  0  0  0  0  0  0  0  0  0  0
   40.4011   29.9873   44.4074 H   0  0  0  0  0  0  0  0  0  0  0  0
   41.6450   29.3451   42.4478 H   0  0  0  0  0  0  0  0  0  0  0  0
   41.1570   30.4044   40.3169 H   0  0  0  0  0  0  0  0  0  0  0  0
   39.3006   32.3376   39.7502 C   0  0  0  0  0  0  0  0  0  0  0  0
   39.7236   31.8510   38.5338 C   0  0  0  0  0  0  0  0  0  0  0  0
   40.3151   30.9494   38.4699 H   0  0  0  0  0  0  0  0  0  0  0  0
   39.4451   32.4433   37.3206 C   0  0  0  0  0  0  0  0  0  0  0  0
   38.6803   33.6138   37.3688 C   0  0  0  0  0  0  0  0  0  0  0  0
   38.3386   34.2911   36.2468 N   0  0  0  0  0  0  0  0  0  0  0  0
   37.6069   35.4147   36.2660 C   0  0  0  0  0  0  0  0  0  0  0  0
   37.3863   35.8849   35.2981 H   0  0  0  0  0  0  0  0  0  0  0  0
   37.1506   35.9549   37.4645 C   0  0  0  0  0  0  0  0  0  0  0  0
   37.4794   35.2916   38.6300 C   0  0  0  0  0  0  0  0  0  0  0  0
   38.2327   34.1397   38.5762 C   0  0  0  0  0  0  0  0  0  0  0  0
   38.5486   33.4920   39.7703 C   0  0  0  0  0  0  0  0  0  0  0  0
   39.7727   32.0681   36.3668 H   0  0  0  0  0  0  0  0  0  0  0  0
   36.5607   36.8633   37.4600 H   0  0  0  0  0  0  0  0  0  0  0  0
   37.1303   35.7012   39.5751 H   0  0  0  0  0  0  0  0  0  0  0  0
   38.2155   33.8763   40.7213 H   0  0  0  0  0  0  0  0  0  0  0  0
  1  8  1  0
  2  1  1  0
  3  2  1  0
  3  1  1  0
  4  5  2  0
  5  6  1  0
  7  6  2  0
  8  7  1  0
  9  8  2  0
  9  4  1  0
 10 12  1  0
 11 10  2  0
 12  3  1  0
 13 14  2  0
 13 10  1  0
 15 14  1  0
 16 15  2  0
 17 16  1  0
 17 18  2  0
 18 13  1  0
  1 19  1  6
  2 20  1  0
  2 21  1  0
  3 22  1  6
  4 23  1  0
  5 24  1  0
  6 25  1  0
 12 26  1  0
 14 27  1  0
 15 28  1  0
 16 29  1  0
 30 31  2  0
 31 32  1  0
 31 33  1  0
 33 34  2  0
 34 35  1  0
 35 36  2  0
 36 37  1  0
 36 38  1  0
 38 39  2  0
 39 40  1  0
 40 41  2  0
 41 30  1  0
 40 34  1  0
 33 42  1  0
 38 43  1  0
 39 44  1  0
 41 45  1  0
 17 30  1  0
M  ISO  8  19  13  20  13  21  13  22  13  23  14  24  14  25  14  27  14
M  ISO  4  28  14  29  14  32  16  37  16
M  END
>  <DihAtoms>  (1) 
15,16,29,30

>  <DihDeg>  (1) 
0.0010288045277293792

$$$$
