
 OpenBabel03262522573D

 28 31  0  0  0  0  0  0  0  0999 V2000
   35.7000   29.9510   48.7030 C   0  0  0  0  0  0  0  0  0  0  0  0
   35.7520   28.8520   49.5280 C   0  0  0  0  0  0  0  0  0  0  0  0
   34.5930   28.1390   49.3740 C   0  0  0  0  0  0  0  0  0  0  0  0
   33.8460   28.8030   48.4620 N   0  0  0  0  0  0  0  0  0  0  0  0
   34.5240   29.8830   48.0720 N   0  0  0  0  0  0  0  0  0  0  0  0
   36.5610   28.5750   50.1950 H   0  0  0  0  0  0  0  0  0  0  0  0
   34.3390   27.2170   49.8940 H   0  0  0  0  0  0  0  0  0  0  0  0
   32.5640   28.3440   48.0530 C   0  0  0  0  0  0  0  0  0  0  0  0
   31.6810   27.6270   48.8380 C   0  0  0  0  0  0  0  0  0  0  0  0
   31.9950   27.3980   49.8470 H   0  0  0  0  0  0  0  0  0  0  0  0
   30.4590   27.2540   48.2790 C   0  0  0  0  0  0  0  0  0  0  0  0
   30.1350   27.5880   46.9800 C   0  0  0  0  0  0  0  0  0  0  0  0
   28.9350   27.1810   46.5400 N   0  0  0  0  0  0  0  0  0  0  0  0
   28.5570   27.4750   45.2800 C   0  0  0  0  0  0  0  0  0  0  0  0
   27.6150   27.2080   44.7930 H   0  0  0  0  0  0  0  0  0  0  0  0
   29.4220   28.1900   44.4760 C   0  0  0  0  0  0  0  0  0  0  0  0
   30.6670   28.6220   44.9080 C   0  0  0  0  0  0  0  0  0  0  0  0
   31.0310   28.3070   46.2050 C   0  0  0  0  0  0  0  0  0  0  0  0
   32.2290   28.6750   46.7500 C   0  0  0  0  0  0  0  0  0  0  0  0
   37.9740   32.7520   49.4040 C   0  0  0  0  0  0  0  0  0  0  0  0
   38.6620   32.8830   48.1620 C   0  0  0  0  0  0  0  0  0  0  0  0
   38.3300   32.0050   47.1080 C   0  0  0  0  0  0  0  0  0  0  0  0
   37.3650   31.0880   47.3580 N   0  0  0  0  0  0  0  0  0  0  0  0
   36.7260   30.9830   48.5490 C   0  0  0  0  0  0  0  0  0  0  0  0
   37.0340   31.8060   49.5470 N   0  0  0  0  0  0  0  0  0  0  0  0
   38.2510   33.4400   50.1930 H   0  0  0  0  0  0  0  0  0  0  0  0
   39.4290   33.6200   47.9760 H   0  0  0  0  0  0  0  0  0  0  0  0
   38.8280   32.0750   46.1570 H   0  0  0  0  0  0  0  0  0  0  0  0
  1  2  1  0  0  0  0
  2  6  1  0  0  0  0
  3  2  2  0  0  0  0
  3  7  1  0  0  0  0
  4  3  1  0  0  0  0
  5  4  1  0  0  0  0
  5  1  2  0  0  0  0
  8  4  1  0  0  0  0
  8  9  1  0  0  0  0
  9 10  1  0  0  0  0
 11  9  2  0  0  0  0
 12 11  1  0  0  0  0
 13 12  1  0  0  0  0
 14 13  2  0  0  0  0
 15 14  1  0  0  0  0
 16 17  2  0  0  0  0
 16 14  1  0  0  0  0
 17 18  1  0  0  0  0
 18 19  1  0  0  0  0
 18 12  2  0  0  0  0
 19  8  2  0  0  0  0
 20 25  1  0  0  0  0
 20 26  1  0  0  0  0
 21 20  2  0  0  0  0
 22 23  2  0  0  0  0
 22 21  1  0  0  0  0
 23 24  1  0  0  0  0
 24  1  1  0  0  0  0
 24 25  2  0  0  0  0
 27 21  1  0  0  0  0
 28 22  1  0  0  0  0
M  END
>  <minimizedAffinity>
-5.26436186

>  <minimizedRMSD>
3.97801089

$$$$
