
 OpenBabel03272503113D

 48 53  0  0  0  0  0  0  0  0999 V2000
   36.6800   27.8880   34.5660 C   0  0  0  0  0  0  0  0  0  0  0  0
   37.6560   27.0700   34.0130 C   0  0  0  0  0  0  0  0  0  0  0  0
   38.0140   27.1300   32.6900 C   0  0  0  0  0  0  0  0  0  0  0  0
   37.3760   28.0390   31.8670 C   0  0  0  0  0  0  0  0  0  0  0  0
   37.5130   28.3190   30.5560 N   0  0  0  0  0  0  0  0  0  0  0  0
   36.6390   29.2980   30.2730 C   0  0  0  0  0  0  0  0  0  0  0  0
   35.9590   29.6330   31.3900 N   0  0  0  0  0  0  0  0  0  0  0  0
   36.4090   28.8490   32.4120 C   0  0  0  0  0  0  0  0  0  0  0  0
   36.0410   28.8020   33.7360 C   0  0  0  0  0  0  0  0  0  0  0  0
   36.4160   27.8270   35.5920 H   0  0  0  0  0  0  0  0  0  0  0  0
   38.7760   26.4900   32.2610 H   0  0  0  0  0  0  0  0  0  0  0  0
   38.1830   27.8500   29.8930 H   0  0  0  0  0  0  0  0  0  0  0  0
   36.5500   29.7050   29.2810 H   0  0  0  0  0  0  0  0  0  0  0  0
   35.0140   29.6610   34.3170 C   0  0  0  0  0  0  0  0  0  0  0  0
   33.6590   29.6010   34.0650 C   0  0  0  0  0  0  0  0  0  0  0  0
   33.3450   28.8320   33.3610 H   0  0  0  0  0  0  0  0  0  0  0  0
   32.7770   30.4700   34.6750 C   0  0  0  0  0  3  0  0  0  0  0  0
   33.2860   31.4180   35.5600 C   0  0  0  0  0  0  0  0  0  0  0  0
   32.4250   32.2710   36.1600 N   0  0  0  0  0  0  0  0  0  0  0  0
   32.8710   33.2090   37.0260 C   0  0  0  0  0  0  0  0  0  0  0  0
   32.2000   33.8960   37.5130 H   0  0  0  0  0  0  0  0  0  0  0  0
   34.2070   33.3280   37.3260 C   0  0  0  0  0  3  0  0  0  0  0  0
   35.1130   32.4670   36.7260 C   0  0  0  0  0  3  0  0  0  0  0  0
   34.6460   31.5140   35.8420 C   0  0  0  0  0  0  0  0  0  0  0  0
   35.4890   30.6250   35.2090 C   0  0  0  0  0  3  0  0  0  0  0  0
   38.2910   26.1380   34.9140 C   0  0  0  0  0  0  0  0  0  0  0  0
   38.9600   26.5860   35.9020 O   0  0  0  0  0  0  0  0  0  0  0  0
   38.2390   24.7200   34.8010 N   0  0  0  0  0  0  0  0  0  0  0  0
   37.6970   24.3400   34.0140 H   0  0  0  0  0  0  0  0  0  0  0  0
   40.8440   24.0400   34.4120 F   0  0  0  0  0  0  0  0  0  0  0  0
   40.2910   23.6960   35.6040 C   0  0  0  0  0  0  0  0  0  0  0  0
   41.0440   23.0400   36.5370 C   0  0  0  0  0  0  0  0  0  0  0  0
   40.4330   22.7220   37.7090 C   0  0  0  0  0  0  0  0  0  0  0  0
   39.1270   23.0260   37.9870 C   0  0  0  0  0  0  0  0  0  0  0  0
   38.3890   23.6920   37.0210 C   0  0  0  0  0  0  0  0  0  0  0  0
   38.9680   24.0310   35.8250 C   0  0  0  0  0  0  0  0  0  0  0  0
   41.0210   22.1980   38.4630 H   0  0  0  0  0  0  0  0  0  0  0  0
   38.6600   22.7630   38.9300 H   0  0  0  0  0  0  0  0  0  0  0  0
   37.3510   23.9700   37.1620 H   0  0  0  0  0  0  0  0  0  0  0  0
   44.8040   23.2800   36.1440 C   0  0  0  0  0  0  0  0  0  0  0  0
   43.4760   23.5950   36.4680 C   0  0  0  0  0  0  0  0  0  0  0  0
   42.4390   22.7290   36.2060 C   0  0  0  0  0  0  0  0  0  0  0  0
   42.7710   21.5440   35.6110 N   0  0  0  0  0  0  0  0  0  0  0  0
   44.0400   21.2450   35.3010 C   0  0  0  0  0  0  0  0  0  0  0  0
   45.0330   22.0920   35.5610 N   0  0  0  0  0  0  0  0  0  0  0  0
   45.5630   24.0090   36.3810 H   0  0  0  0  0  0  0  0  0  0  0  0
   43.2020   24.5300   36.9390 H   0  0  0  0  0  0  0  0  0  0  0  0
   44.2350   20.2890   34.8310 H   0  0  0  0  0  0  0  0  0  0  0  0
  1 10  1  0  0  0  0
  2  1  1  0  0  0  0
  2 26  1  0  0  0  0
  3  2  2  0  0  0  0
  4  8  2  0  0  0  0
  4  3  1  0  0  0  0
  5  4  1  0  0  0  0
  6  5  1  0  0  0  0
  6  7  2  0  0  0  0
  7  8  1  0  0  0  0
  8  9  1  0  0  0  0
  9 14  1  0  0  0  0
  9  1  2  0  0  0  0
 11  3  1  0  0  0  0
 12  5  1  0  0  0  0
 13  6  1  0  0  0  0
 14 25  1  0  0  0  0
 15 14  2  0  0  0  0
 15 17  1  0  0  0  0
 16 15  1  0  0  0  0
 17 18  2  0  0  0  0
 18 24  1  0  0  0  0
 18 19  1  0  0  0  0
 19 20  2  0  0  0  0
 20 22  1  0  0  0  0
 20 21  1  0  0  0  0
 23 22  2  0  0  0  0
 24 23  1  0  0  0  0
 25 24  2  0  0  0  0
 26 27  2  0  0  0  0
 28 26  1  0  0  0  0
 28 36  1  0  0  0  0
 29 28  1  0  0  0  0
 30 31  1  0  0  0  0
 31 36  2  0  0  0  0
 31 32  1  0  0  0  0
 32 33  2  0  0  0  0
 33 34  1  0  0  0  0
 33 37  1  0  0  0  0
 34 38  1  0  0  0  0
 35 39  1  0  0  0  0
 35 34  2  0  0  0  0
 36 35  1  0  0  0  0
 40 46  1  0  0  0  0
 40 41  1  0  0  0  0
 41 47  1  0  0  0  0
 42 41  2  0  0  0  0
 42 32  1  0  0  0  0
 43 42  1  0  0  0  0
 44 45  1  0  0  0  0
 44 43  2  0  0  0  0
 45 40  2  0  0  0  0
 48 44  1  0  0  0  0
M  END
>  <minimizedAffinity>
-8.10437298

$$$$

 OpenBabel03272503113D

 48 53  0  0  0  0  0  0  0  0999 V2000
   36.6570   28.3880   35.0180 C   0  0  0  0  0  0  0  0  0  0  0  0
   37.3540   27.3770   34.3700 C   0  0  0  0  0  0  0  0  0  0  0  0
   37.4520   27.2990   33.0030 C   0  0  0  0  0  0  0  0  0  0  0  0
   36.8320   28.2660   32.2350 C   0  0  0  0  0  0  0  0  0  0  0  0
   36.7570   28.4450   30.9010 N   0  0  0  0  0  0  0  0  0  0  0  0
   36.0250   29.5520   30.6980 C   0  0  0  0  0  0  0  0  0  0  0  0
   35.6410   30.0650   31.8860 N   0  0  0  0  0  0  0  0  0  0  0  0
   36.1420   29.2670   32.8730 C   0  0  0  0  0  0  0  0  0  0  0  0
   36.0340   29.3590   34.2410 C   0  0  0  0  0  0  0  0  0  0  0  0
   36.5920   28.4310   36.0760 H   0  0  0  0  0  0  0  0  0  0  0  0
   37.9960   26.5080   32.5010 H   0  0  0  0  0  0  0  0  0  0  0  0
   37.1950   27.8260   30.1700 H   0  0  0  0  0  0  0  0  0  0  0  0
   35.8150   29.9160   29.7070 H   0  0  0  0  0  0  0  0  0  0  0  0
   35.3020   30.4210   34.9220 C   0  0  0  0  0  0  0  0  0  0  0  0
   35.8380   31.5770   35.4510 C   0  0  0  0  0  0  0  0  0  0  0  0
   36.9150   31.6890   35.3390 H   0  0  0  0  0  0  0  0  0  0  0  0
   35.0440   32.5160   36.0770 C   0  0  0  0  0  3  0  0  0  0  0  0
   33.6750   32.2720   36.1660 C   0  0  0  0  0  0  0  0  0  0  0  0
   32.8930   33.1900   36.7780 N   0  0  0  0  0  0  0  0  0  0  0  0
   31.5590   32.9980   36.8900 C   0  0  0  0  0  0  0  0  0  0  0  0
   30.9210   33.7180   37.3740 H   0  0  0  0  0  0  0  0  0  0  0  0
   30.9540   31.8710   36.3870 C   0  0  0  0  0  3  0  0  0  0  0  0
   31.7300   30.9130   35.7540 C   0  0  0  0  0  3  0  0  0  0  0  0
   33.0910   31.1190   35.6470 C   0  0  0  0  0  0  0  0  0  0  0  0
   33.9250   30.2100   35.0310 C   0  0  0  0  0  3  0  0  0  0  0  0
   37.9820   26.3930   35.2190 C   0  0  0  0  0  0  0  0  0  0  0  0
   38.7590   26.7820   36.1500 O   0  0  0  0  0  0  0  0  0  0  0  0
   37.8120   24.9840   35.1100 N   0  0  0  0  0  0  0  0  0  0  0  0
   37.1830   24.6520   34.3680 H   0  0  0  0  0  0  0  0  0  0  0  0
   40.2630   23.9910   34.4700 F   0  0  0  0  0  0  0  0  0  0  0  0
   39.8070   23.7400   35.7240 C   0  0  0  0  0  0  0  0  0  0  0  0
   40.5760   23.0180   36.5940 C   0  0  0  0  0  0  0  0  0  0  0  0
   40.0640   22.7990   37.8350 C   0  0  0  0  0  0  0  0  0  0  0  0
   38.8400   23.2630   38.2390 C   0  0  0  0  0  0  0  0  0  0  0  0
   38.0830   23.9920   37.3340 C   0  0  0  0  0  0  0  0  0  0  0  0
   38.5640   24.2340   36.0740 C   0  0  0  0  0  0  0  0  0  0  0  0
   40.6650   22.2260   38.5390 H   0  0  0  0  0  0  0  0  0  0  0  0
   38.4520   23.0770   39.2340 H   0  0  0  0  0  0  0  0  0  0  0  0
   37.1060   24.3940   37.5750 H   0  0  0  0  0  0  0  0  0  0  0  0
   44.3020   22.6840   36.0000 C   0  0  0  0  0  0  0  0  0  0  0  0
   43.0630   23.1580   36.4560 C   0  0  0  0  0  0  0  0  0  0  0  0
   41.8810   22.5370   36.1280 C   0  0  0  0  0  0  0  0  0  0  0  0
   41.9760   21.4300   35.3310 N   0  0  0  0  0  0  0  0  0  0  0  0
   43.1590   20.9770   34.8970 C   0  0  0  0  0  0  0  0  0  0  0  0
   44.2960   21.5890   35.2220 N   0  0  0  0  0  0  0  0  0  0  0  0
   45.1860   23.2240   36.3010 H   0  0  0  0  0  0  0  0  0  0  0  0
   42.9770   24.0340   37.0870 H   0  0  0  0  0  0  0  0  0  0  0  0
   43.1650   20.0940   34.2690 H   0  0  0  0  0  0  0  0  0  0  0  0
  1 10  1  0  0  0  0
  2  1  1  0  0  0  0
  2 26  1  0  0  0  0
  3  2  2  0  0  0  0
  4  8  2  0  0  0  0
  4  3  1  0  0  0  0
  5  4  1  0  0  0  0
  6  5  1  0  0  0  0
  6  7  2  0  0  0  0
  7  8  1  0  0  0  0
  8  9  1  0  0  0  0
  9 14  1  0  0  0  0
  9  1  2  0  0  0  0
 11  3  1  0  0  0  0
 12  5  1  0  0  0  0
 13  6  1  0  0  0  0
 14 25  2  0  0  0  0
 14 15  1  0  0  0  0
 15 17  2  0  0  0  0
 16 15  1  0  0  0  0
 17 18  1  0  0  0  0
 18 19  1  0  0  0  0
 19 20  2  0  0  0  0
 20 21  1  0  0  0  0
 22 20  1  0  0  0  0
 23 22  2  0  0  0  0
 24 23  1  0  0  0  0
 24 18  2  0  0  0  0
 25 24  1  0  0  0  0
 26 27  2  0  0  0  0
 28 26  1  0  0  0  0
 28 36  1  0  0  0  0
 29 28  1  0  0  0  0
 30 31  1  0  0  0  0
 31 36  2  0  0  0  0
 31 32  1  0  0  0  0
 32 33  2  0  0  0  0
 33 34  1  0  0  0  0
 33 37  1  0  0  0  0
 34 38  1  0  0  0  0
 35 39  1  0  0  0  0
 35 34  2  0  0  0  0
 36 35  1  0  0  0  0
 40 46  1  0  0  0  0
 40 41  1  0  0  0  0
 41 47  1  0  0  0  0
 42 41  2  0  0  0  0
 42 32  1  0  0  0  0
 43 42  1  0  0  0  0
 44 45  1  0  0  0  0
 44 43  2  0  0  0  0
 45 40  2  0  0  0  0
 48 44  1  0  0  0  0
M  END
>  <minimizedAffinity>
-7.82956934

$$$$

 OpenBabel03272503113D

 48 53  0  0  0  0  0  0  0  0999 V2000
   36.5700   28.0990   32.1020 C   0  0  0  0  0  0  0  0  0  0  0  0
   36.2540   29.4480   32.1810 C   0  0  0  0  0  0  0  0  0  0  0  0
   36.5160   30.3340   31.1660 C   0  0  0  0  0  0  0  0  0  0  0  0
   37.1210   29.8680   30.0140 C   0  0  0  0  0  0  0  0  0  0  0  0
   37.4920   30.4890   28.8760 N   0  0  0  0  0  0  0  0  0  0  0  0
   38.0370   29.5530   28.0830 C   0  0  0  0  0  0  0  0  0  0  0  0
   38.0110   28.3570   28.7090 N   0  0  0  0  0  0  0  0  0  0  0  0
   37.4350   28.5330   29.9340 C   0  0  0  0  0  0  0  0  0  0  0  0
   37.1790   27.6330   30.9420 C   0  0  0  0  0  0  0  0  0  0  0  0
   36.3600   27.4290   32.8980 H   0  0  0  0  0  0  0  0  0  0  0  0
   36.2680   31.3870   31.2300 H   0  0  0  0  0  0  0  0  0  0  0  0
   37.3710   31.5130   28.6660 H   0  0  0  0  0  0  0  0  0  0  0  0
   38.4170   29.7940   27.1050 H   0  0  0  0  0  0  0  0  0  0  0  0
   37.5120   26.2150   30.8590 C   0  0  0  0  0  0  0  0  0  0  0  0
   38.7490   25.6800   30.5660 C   0  0  0  0  0  0  0  0  0  0  0  0
   39.5420   26.4040   30.3800 H   0  0  0  0  0  0  0  0  0  0  0  0
   38.9470   24.3160   30.5140 C   0  0  0  0  0  3  0  0  0  0  0  0
   37.8630   23.4790   30.7670 C   0  0  0  0  0  0  0  0  0  0  0  0
   38.0530   22.1410   30.7190 N   0  0  0  0  0  0  0  0  0  0  0  0
   37.0310   21.2880   30.9560 C   0  0  0  0  0  0  0  0  0  0  0  0
   37.1650   20.2190   30.9220 H   0  0  0  0  0  0  0  0  0  0  0  0
   35.7710   21.7470   31.2560 C   0  0  0  0  0  3  0  0  0  0  0  0
   35.5460   23.1130   31.3130 C   0  0  0  0  0  3  0  0  0  0  0  0
   36.5970   23.9750   31.0670 C   0  0  0  0  0  0  0  0  0  0  0  0
   36.4460   25.3450   31.1070 C   0  0  0  0  0  3  0  0  0  0  0  0
   35.6240   29.8840   33.4050 C   0  0  0  0  0  0  0  0  0  0  0  0
   35.8030   29.2080   34.4690 O   0  0  0  0  0  0  0  0  0  0  0  0
   34.7940   31.0330   33.5390 N   0  0  0  0  0  0  0  0  0  0  0  0
   34.6450   31.5950   32.6910 H   0  0  0  0  0  0  0  0  0  0  0  0
   32.4670   29.8520   34.3070 F   0  0  0  0  0  0  0  0  0  0  0  0
   33.1020   30.6180   35.2320 C   0  0  0  0  0  0  0  0  0  0  0  0
   32.5630   30.7610   36.4800 C   0  0  0  0  0  0  0  0  0  0  0  0
   33.2450   31.5410   37.3610 C   0  0  0  0  0  0  0  0  0  0  0  0
   34.4220   32.1710   37.0560 C   0  0  0  0  0  0  0  0  0  0  0  0
   34.9450   32.0070   35.7830 C   0  0  0  0  0  0  0  0  0  0  0  0
   34.2870   31.2280   34.8660 C   0  0  0  0  0  0  0  0  0  0  0  0
   32.8270   31.6650   38.3590 H   0  0  0  0  0  0  0  0  0  0  0  0
   34.9500   32.7880   37.7750 H   0  0  0  0  0  0  0  0  0  0  0  0
   35.8710   32.4700   35.4620 H   0  0  0  0  0  0  0  0  0  0  0  0
   30.0340   28.1640   37.5770 C   0  0  0  0  0  0  0  0  0  0  0  0
   31.2510   28.8060   37.3060 C   0  0  0  0  0  0  0  0  0  0  0  0
   31.3010   30.0730   36.7710 C   0  0  0  0  0  0  0  0  0  0  0  0
   30.0990   30.6740   36.5170 N   0  0  0  0  0  0  0  0  0  0  0  0
   28.9380   30.0590   36.7770 C   0  0  0  0  0  0  0  0  0  0  0  0
   28.9050   28.8330   37.2940 N   0  0  0  0  0  0  0  0  0  0  0  0
   30.0750   27.1710   37.9970 H   0  0  0  0  0  0  0  0  0  0  0  0
   32.2070   28.3390   37.5030 H   0  0  0  0  0  0  0  0  0  0  0  0
   28.0220   30.5910   36.5520 H   0  0  0  0  0  0  0  0  0  0  0  0
  1  2  1  0  0  0  0
  1 10  1  0  0  0  0
  2 26  1  0  0  0  0
  3 11  1  0  0  0  0
  3  2  2  0  0  0  0
  4  3  1  0  0  0  0
  5  4  1  0  0  0  0
  6  7  2  0  0  0  0
  6  5  1  0  0  0  0
  7  8  1  0  0  0  0
  8  4  2  0  0  0  0
  8  9  1  0  0  0  0
  9  1  2  0  0  0  0
 12  5  1  0  0  0  0
 13  6  1  0  0  0  0
 14  9  1  0  0  0  0
 14 25  1  0  0  0  0
 15 14  2  0  0  0  0
 16 15  1  0  0  0  0
 17 15  1  0  0  0  0
 17 18  2  0  0  0  0
 18 24  1  0  0  0  0
 19 18  1  0  0  0  0
 19 20  2  0  0  0  0
 20 22  1  0  0  0  0
 21 20  1  0  0  0  0
 22 23  2  0  0  0  0
 24 25  2  0  0  0  0
 24 23  1  0  0  0  0
 26 28  1  0  0  0  0
 26 27  2  0  0  0  0
 28 36  1  0  0  0  0
 29 28  1  0  0  0  0
 30 31  1  0  0  0  0
 31 32  1  0  0  0  0
 32 42  1  0  0  0  0
 32 33  2  0  0  0  0
 33 37  1  0  0  0  0
 34 33  1  0  0  0  0
 34 38  1  0  0  0  0
 35 34  2  0  0  0  0
 36 31  2  0  0  0  0
 36 35  1  0  0  0  0
 39 35  1  0  0  0  0
 40 46  1  0  0  0  0
 41 47  1  0  0  0  0
 41 40  1  0  0  0  0
 42 41  2  0  0  0  0
 43 42  1  0  0  0  0
 43 44  2  0  0  0  0
 44 45  1  0  0  0  0
 45 40  2  0  0  0  0
 48 44  1  0  0  0  0
M  END
>  <minimizedAffinity>
-7.55546284

$$$$

 OpenBabel03272503113D

 48 53  0  0  0  0  0  0  0  0999 V2000
   37.8510   27.3270   32.9030 C   0  0  0  0  0  0  0  0  0  0  0  0
   37.3120   27.3460   34.1820 C   0  0  0  0  0  0  0  0  0  0  0  0
   36.3010   28.1970   34.5500 C   0  0  0  0  0  0  0  0  0  0  0  0
   35.7940   29.0750   33.6110 C   0  0  0  0  0  0  0  0  0  0  0  0
   34.8220   30.0070   33.6810 N   0  0  0  0  0  0  0  0  0  0  0  0
   34.7400   30.5750   32.4680 C   0  0  0  0  0  0  0  0  0  0  0  0
   35.6470   30.0110   31.6420 N   0  0  0  0  0  0  0  0  0  0  0  0
   36.3250   29.0580   32.3440 C   0  0  0  0  0  0  0  0  0  0  0  0
   37.3380   28.2120   31.9600 C   0  0  0  0  0  0  0  0  0  0  0  0
   38.6340   26.6610   32.6360 H   0  0  0  0  0  0  0  0  0  0  0  0
   35.8830   28.2100   35.5500 H   0  0  0  0  0  0  0  0  0  0  0  0
   34.2460   30.2340   34.5330 H   0  0  0  0  0  0  0  0  0  0  0  0
   34.0320   31.3580   32.2580 H   0  0  0  0  0  0  0  0  0  0  0  0
   37.9050   28.1920   30.6160 C   0  0  0  0  0  0  0  0  0  0  0  0
   37.5360   29.0000   29.5600 C   0  0  0  0  0  0  0  0  0  0  0  0
   36.7430   29.7160   29.7710 H   0  0  0  0  0  0  0  0  0  0  0  0
   38.1450   28.8910   28.3270 C   0  0  0  0  0  3  0  0  0  0  0  0
   39.1500   27.9390   28.1660 C   0  0  0  0  0  0  0  0  0  0  0  0
   39.7490   27.8300   26.9580 N   0  0  0  0  0  0  0  0  0  0  0  0
   40.7290   26.9210   26.7520 C   0  0  0  0  0  0  0  0  0  0  0  0
   41.2170   26.8200   25.7970 H   0  0  0  0  0  0  0  0  0  0  0  0
   41.1490   26.0820   27.7570 C   0  0  0  0  0  3  0  0  0  0  0  0
   40.5530   26.1720   29.0050 C   0  0  0  0  0  3  0  0  0  0  0  0
   39.5530   27.1030   29.2030 C   0  0  0  0  0  0  0  0  0  0  0  0
   38.9160   27.2480   30.4170 C   0  0  0  0  0  3  0  0  0  0  0  0
   37.8770   26.4100   35.1250 C   0  0  0  0  0  0  0  0  0  0  0  0
   38.5570   26.8520   36.1070 O   0  0  0  0  0  0  0  0  0  0  0  0
   37.7430   24.9940   35.0580 N   0  0  0  0  0  0  0  0  0  0  0  0
   37.1910   24.6200   34.2760 H   0  0  0  0  0  0  0  0  0  0  0  0
   40.2300   23.9630   34.6630 F   0  0  0  0  0  0  0  0  0  0  0  0
   39.6780   23.7840   35.8920 C   0  0  0  0  0  0  0  0  0  0  0  0
   40.3750   23.1120   36.8570 C   0  0  0  0  0  0  0  0  0  0  0  0
   39.7690   22.9650   38.0660 C   0  0  0  0  0  0  0  0  0  0  0  0
   38.5210   23.4530   38.3490 C   0  0  0  0  0  0  0  0  0  0  0  0
   37.8390   24.1300   37.3500 C   0  0  0  0  0  0  0  0  0  0  0  0
   38.4160   24.2990   36.1170 C   0  0  0  0  0  0  0  0  0  0  0  0
   40.3120   22.4310   38.8450 H   0  0  0  0  0  0  0  0  0  0  0  0
   38.0580   23.3240   39.3200 H   0  0  0  0  0  0  0  0  0  0  0  0
   36.8490   24.5470   37.4920 H   0  0  0  0  0  0  0  0  0  0  0  0
   44.0990   22.8930   36.2010 C   0  0  0  0  0  0  0  0  0  0  0  0
   42.8320   23.3970   36.5270 C   0  0  0  0  0  0  0  0  0  0  0  0
   41.7080   22.6030   36.5190 C   0  0  0  0  0  0  0  0  0  0  0  0
   41.8930   21.2930   36.1740 N   0  0  0  0  0  0  0  0  0  0  0  0
   43.1030   20.8120   35.8630 C   0  0  0  0  0  0  0  0  0  0  0  0
   44.1810   21.5920   35.8750 N   0  0  0  0  0  0  0  0  0  0  0  0
   44.9330   23.5770   36.2300 H   0  0  0  0  0  0  0  0  0  0  0  0
   42.6760   24.4330   36.8010 H   0  0  0  0  0  0  0  0  0  0  0  0
   43.1800   19.7640   35.5990 H   0  0  0  0  0  0  0  0  0  0  0  0
  1  2  1  0  0  0  0
  2  3  2  0  0  0  0
  2 26  1  0  0  0  0
  3 11  1  0  0  0  0
  4  5  1  0  0  0  0
  4  3  1  0  0  0  0
  5 12  1  0  0  0  0
  6  5  1  0  0  0  0
  7  8  1  0  0  0  0
  7  6  2  0  0  0  0
  8  4  2  0  0  0  0
  9  8  1  0  0  0  0
  9  1  2  0  0  0  0
 10  1  1  0  0  0  0
 13  6  1  0  0  0  0
 14  9  1  0  0  0  0
 15 16  1  0  0  0  0
 15 14  2  0  0  0  0
 17 15  1  0  0  0  0
 18 17  2  0  0  0  0
 18 24  1  0  0  0  0
 19 18  1  0  0  0  0
 20 19  2  0  0  0  0
 20 22  1  0  0  0  0
 21 20  1  0  0  0  0
 22 23  2  0  0  0  0
 23 24  1  0  0  0  0
 24 25  2  0  0  0  0
 25 14  1  0  0  0  0
 26 27  2  0  0  0  0
 28 26  1  0  0  0  0
 28 36  1  0  0  0  0
 29 28  1  0  0  0  0
 30 31  1  0  0  0  0
 31 36  2  0  0  0  0
 31 32  1  0  0  0  0
 32 33  2  0  0  0  0
 33 34  1  0  0  0  0
 33 37  1  0  0  0  0
 34 38  1  0  0  0  0
 35 39  1  0  0  0  0
 35 34  2  0  0  0  0
 36 35  1  0  0  0  0
 40 46  1  0  0  0  0
 40 41  1  0  0  0  0
 41 47  1  0  0  0  0
 42 41  2  0  0  0  0
 42 32  1  0  0  0  0
 43 42  1  0  0  0  0
 44 45  1  0  0  0  0
 44 43  2  0  0  0  0
 45 40  2  0  0  0  0
 48 44  1  0  0  0  0
M  END
>  <minimizedAffinity>
-7.46011257

$$$$

 OpenBabel03272503113D

 48 53  0  0  0  0  0  0  0  0999 V2000
   37.7170   24.3570   32.6300 C   0  0  0  0  0  0  0  0  0  0  0  0
   36.5520   24.7830   32.0060 C   0  0  0  0  0  0  0  0  0  0  0  0
   35.6890   23.9240   31.3740 C   0  0  0  0  0  0  0  0  0  0  0  0
   35.9870   22.5750   31.3540 C   0  0  0  0  0  0  0  0  0  0  0  0
   35.3430   21.5170   30.8230 N   0  0  0  0  0  0  0  0  0  0  0  0
   36.0810   20.4310   31.1010 C   0  0  0  0  0  0  0  0  0  0  0  0
   37.1780   20.7960   31.7980 N   0  0  0  0  0  0  0  0  0  0  0  0
   37.1390   22.1490   31.9710 C   0  0  0  0  0  0  0  0  0  0  0  0
   38.0130   22.9980   32.6080 C   0  0  0  0  0  0  0  0  0  0  0  0
   38.3730   25.0360   33.1130 H   0  0  0  0  0  0  0  0  0  0  0  0
   34.7810   24.2600   30.8870 H   0  0  0  0  0  0  0  0  0  0  0  0
   34.4340   21.5520   30.2930 H   0  0  0  0  0  0  0  0  0  0  0  0
   35.7820   19.4480   30.7820 H   0  0  0  0  0  0  0  0  0  0  0  0
   39.2380   22.5490   33.2630 C   0  0  0  0  0  0  0  0  0  0  0  0
   40.3950   22.1330   32.6390 C   0  0  0  0  0  0  0  0  0  0  0  0
   40.3730   22.1490   31.5500 H   0  0  0  0  0  0  0  0  0  0  0  0
   41.4960   21.7280   33.3650 C   0  0  0  0  0  3  0  0  0  0  0  0
   41.4160   21.7470   34.7550 C   0  0  0  0  0  0  0  0  0  0  0  0
   42.4940   21.3500   35.4700 N   0  0  0  0  0  0  0  0  0  0  0  0
   42.4650   21.3500   36.8230 C   0  0  0  0  0  0  0  0  0  0  0  0
   43.3130   21.0380   37.4080 H   0  0  0  0  0  0  0  0  0  0  0  0
   41.3460   21.7510   37.5140 C   0  0  0  0  0  3  0  0  0  0  0  0
   40.2280   22.1630   36.8070 C   0  0  0  0  0  3  0  0  0  0  0  0
   40.2680   22.1580   35.4270 C   0  0  0  0  0  0  0  0  0  0  0  0
   39.1930   22.5540   34.6600 C   0  0  0  0  0  3  0  0  0  0  0  0
   36.2870   26.2020   32.0550 C   0  0  0  0  0  0  0  0  0  0  0  0
   35.1990   26.6470   31.5630 O   0  0  0  0  0  0  0  0  0  0  0  0
   37.1540   27.1810   32.6170 N   0  0  0  0  0  0  0  0  0  0  0  0
   38.0330   26.8390   33.0240 H   0  0  0  0  0  0  0  0  0  0  0  0
   35.9100   28.3360   34.7430 F   0  0  0  0  0  0  0  0  0  0  0  0
   36.0230   29.0850   33.6160 C   0  0  0  0  0  0  0  0  0  0  0  0
   35.5220   30.3570   33.5930 C   0  0  0  0  0  0  0  0  0  0  0  0
   35.6640   31.0560   32.4360 C   0  0  0  0  0  0  0  0  0  0  0  0
   36.2770   30.5510   31.3200 C   0  0  0  0  0  0  0  0  0  0  0  0
   36.7760   29.2590   31.3730 C   0  0  0  0  0  0  0  0  0  0  0  0
   36.6510   28.5210   32.5220 C   0  0  0  0  0  0  0  0  0  0  0  0
   35.2700   32.0710   32.4030 H   0  0  0  0  0  0  0  0  0  0  0  0
   36.3810   31.1270   30.4070 H   0  0  0  0  0  0  0  0  0  0  0  0
   37.2740   28.7860   30.5340 H   0  0  0  0  0  0  0  0  0  0  0  0
   34.9000   32.0890   36.9040 C   0  0  0  0  0  0  0  0  0  0  0  0
   35.5380   31.6110   35.7500 C   0  0  0  0  0  0  0  0  0  0  0  0
   34.8710   30.8650   34.8060 C   0  0  0  0  0  0  0  0  0  0  0  0
   33.5510   30.6120   35.0530 N   0  0  0  0  0  0  0  0  0  0  0  0
   32.9420   31.0680   36.1550 C   0  0  0  0  0  0  0  0  0  0  0  0
   33.5990   31.7890   37.0600 N   0  0  0  0  0  0  0  0  0  0  0  0
   35.4880   32.6680   37.5980 H   0  0  0  0  0  0  0  0  0  0  0  0
   36.5830   31.8060   35.5460 H   0  0  0  0  0  0  0  0  0  0  0  0
   31.8930   30.8310   36.2900 H   0  0  0  0  0  0  0  0  0  0  0  0
  1 10  1  0  0  0  0
  2 26  1  0  0  0  0
  2  1  2  0  0  0  0
  3  2  1  0  0  0  0
  4  3  2  0  0  0  0
  4  8  1  0  0  0  0
  5  6  1  0  0  0  0
  5  4  1  0  0  0  0
  6  7  2  0  0  0  0
  7  8  1  0  0  0  0
  8  9  2  0  0  0  0
  9  1  1  0  0  0  0
  9 14  1  0  0  0  0
 11  3  1  0  0  0  0
 12  5  1  0  0  0  0
 13  6  1  0  0  0  0
 14 25  1  0  0  0  0
 15 14  2  0  0  0  0
 15 17  1  0  0  0  0
 16 15  1  0  0  0  0
 17 18  2  0  0  0  0
 18 24  1  0  0  0  0
 18 19  1  0  0  0  0
 19 20  2  0  0  0  0
 20 21  1  0  0  0  0
 20 22  1  0  0  0  0
 23 22  2  0  0  0  0
 24 23  1  0  0  0  0
 25 24  2  0  0  0  0
 26 28  1  0  0  0  0
 27 26  2  0  0  0  0
 28 29  1  0  0  0  0
 31 30  1  0  0  0  0
 32 31  1  0  0  0  0
 32 42  1  0  0  0  0
 33 32  2  0  0  0  0
 34 35  2  0  0  0  0
 34 33  1  0  0  0  0
 35 36  1  0  0  0  0
 36 28  1  0  0  0  0
 36 31  2  0  0  0  0
 37 33  1  0  0  0  0
 38 34  1  0  0  0  0
 39 35  1  0  0  0  0
 40 45  1  0  0  0  0
 40 46  1  0  0  0  0
 41 40  2  0  0  0  0
 42 43  2  0  0  0  0
 42 41  1  0  0  0  0
 43 44  1  0  0  0  0
 44 48  1  0  0  0  0
 44 45  2  0  0  0  0
 47 41  1  0  0  0  0
M  END
>  <minimizedAffinity>
-7.36905813

$$$$

 OpenBabel03272503113D

 48 53  0  0  0  0  0  0  0  0999 V2000
   37.1930   27.3920   33.4250 C   0  0  0  0  0  0  0  0  0  0  0  0
   36.5740   28.2600   32.5350 C   0  0  0  0  0  0  0  0  0  0  0  0
   36.9060   28.3210   31.2050 C   0  0  0  0  0  0  0  0  0  0  0  0
   37.8970   27.4860   30.7250 C   0  0  0  0  0  0  0  0  0  0  0  0
   38.4240   27.3260   29.4950 N   0  0  0  0  0  0  0  0  0  0  0  0
   39.3630   26.3730   29.5950 C   0  0  0  0  0  0  0  0  0  0  0  0
   39.4310   25.9360   30.8700 N   0  0  0  0  0  0  0  0  0  0  0  0
   38.5110   26.6270   31.6040 C   0  0  0  0  0  0  0  0  0  0  0  0
   38.1900   26.5530   32.9390 C   0  0  0  0  0  0  0  0  0  0  0  0
   36.9240   27.3590   34.4510 H   0  0  0  0  0  0  0  0  0  0  0  0
   36.4210   29.0000   30.5120 H   0  0  0  0  0  0  0  0  0  0  0  0
   38.1410   27.8560   28.6300 H   0  0  0  0  0  0  0  0  0  0  0  0
   39.9390   26.0560   28.7420 H   0  0  0  0  0  0  0  0  0  0  0  0
   38.8410   25.6420   33.8750 C   0  0  0  0  0  0  0  0  0  0  0  0
   40.0650   25.0300   33.7040 C   0  0  0  0  0  0  0  0  0  0  0  0
   40.5810   25.2620   32.7730 H   0  0  0  0  0  0  0  0  0  0  0  0
   40.5830   24.1820   34.6610 C   0  0  0  0  0  3  0  0  0  0  0  0
   39.8390   23.9530   35.8160 C   0  0  0  0  0  0  0  0  0  0  0  0
   40.3440   23.1230   36.7570 N   0  0  0  0  0  0  0  0  0  0  0  0
   39.6580   22.8690   37.8950 C   0  0  0  0  0  0  0  0  0  0  0  0
   40.0450   22.2110   38.6550 H   0  0  0  0  0  0  0  0  0  0  0  0
   38.4330   23.4430   38.1350 C   0  0  0  0  0  3  0  0  0  0  0  0
   37.8910   24.2980   37.1890 C   0  0  0  0  0  3  0  0  0  0  0  0
   38.5990   24.5490   36.0300 C   0  0  0  0  0  0  0  0  0  0  0  0
   38.1210   25.3880   35.0460 C   0  0  0  0  0  3  0  0  0  0  0  0
   35.5460   29.1100   33.0860 C   0  0  0  0  0  0  0  0  0  0  0  0
   35.0190   30.0040   32.3470 O   0  0  0  0  0  0  0  0  0  0  0  0
   35.0500   29.0430   34.4190 N   0  0  0  0  0  0  0  0  0  0  0  0
   35.4600   28.3230   35.0270 H   0  0  0  0  0  0  0  0  0  0  0  0
   35.6940   31.3690   35.6760 F   0  0  0  0  0  0  0  0  0  0  0  0
   34.3880   31.1890   35.3480 C   0  0  0  0  0  0  0  0  0  0  0  0
   33.4720   32.1560   35.6520 C   0  0  0  0  0  0  0  0  0  0  0  0
   32.1810   31.9170   35.2990 C   0  0  0  0  0  0  0  0  0  0  0  0
   31.7720   30.7750   34.6640 C   0  0  0  0  0  0  0  0  0  0  0  0
   32.7240   29.8110   34.3680 C   0  0  0  0  0  0  0  0  0  0  0  0
   34.0360   30.0150   34.7080 C   0  0  0  0  0  0  0  0  0  0  0  0
   31.4390   32.6800   35.5350 H   0  0  0  0  0  0  0  0  0  0  0  0
   30.7360   30.6050   34.3900 H   0  0  0  0  0  0  0  0  0  0  0  0
   32.4820   28.8810   33.8670 H   0  0  0  0  0  0  0  0  0  0  0  0
   34.1230   34.8000   38.2860 C   0  0  0  0  0  0  0  0  0  0  0  0
   33.6620   33.6370   37.6520 C   0  0  0  0  0  0  0  0  0  0  0  0
   33.9450   33.3660   36.3330 C   0  0  0  0  0  0  0  0  0  0  0  0
   34.7010   34.2940   35.6710 N   0  0  0  0  0  0  0  0  0  0  0  0
   35.1410   35.4040   36.2770 C   0  0  0  0  0  0  0  0  0  0  0  0
   34.8590   35.6530   37.5540 N   0  0  0  0  0  0  0  0  0  0  0  0
   33.8610   34.9420   39.3230 H   0  0  0  0  0  0  0  0  0  0  0  0
   33.0640   32.8960   38.1670 H   0  0  0  0  0  0  0  0  0  0  0  0
   35.7350   36.0980   35.6950 H   0  0  0  0  0  0  0  0  0  0  0  0
  1 10  1  0  0  0  0
  2 26  1  0  0  0  0
  2  1  2  0  0  0  0
  3  2  1  0  0  0  0
  4  3  2  0  0  0  0
  4  8  1  0  0  0  0
  5  6  1  0  0  0  0
  5  4  1  0  0  0  0
  6  7  2  0  0  0  0
  7  8  1  0  0  0  0
  8  9  2  0  0  0  0
  9  1  1  0  0  0  0
  9 14  1  0  0  0  0
 11  3  1  0  0  0  0
 12  5  1  0  0  0  0
 13  6  1  0  0  0  0
 14 25  1  0  0  0  0
 15 14  2  0  0  0  0
 15 17  1  0  0  0  0
 16 15  1  0  0  0  0
 17 18  2  0  0  0  0
 18 24  1  0  0  0  0
 18 19  1  0  0  0  0
 19 20  2  0  0  0  0
 20 22  1  0  0  0  0
 20 21  1  0  0  0  0
 23 22  2  0  0  0  0
 24 23  1  0  0  0  0
 25 24  2  0  0  0  0
 26 28  1  0  0  0  0
 27 26  2  0  0  0  0
 28 36  1  0  0  0  0
 28 29  1  0  0  0  0
 31 32  1  0  0  0  0
 31 30  1  0  0  0  0
 32 42  1  0  0  0  0
 33 37  1  0  0  0  0
 33 32  2  0  0  0  0
 34 33  1  0  0  0  0
 35 34  2  0  0  0  0
 35 36  1  0  0  0  0
 36 31  2  0  0  0  0
 38 34  1  0  0  0  0
 39 35  1  0  0  0  0
 40 46  1  0  0  0  0
 41 47  1  0  0  0  0
 41 40  1  0  0  0  0
 42 41  2  0  0  0  0
 43 44  2  0  0  0  0
 43 42  1  0  0  0  0
 44 45  1  0  0  0  0
 45 40  2  0  0  0  0
 48 44  1  0  0  0  0
M  END
>  <minimizedAffinity>
-7.3283391

$$$$

 OpenBabel03272503113D

 48 53  0  0  0  0  0  0  0  0999 V2000
   37.7560   24.9510   33.5320 C   0  0  0  0  0  0  0  0  0  0  0  0
   36.9370   25.4340   32.5200 C   0  0  0  0  0  0  0  0  0  0  0  0
   36.2640   24.6120   31.6520 C   0  0  0  0  0  0  0  0  0  0  0  0
   36.4040   23.2440   31.7860 C   0  0  0  0  0  0  0  0  0  0  0  0
   35.8780   22.2120   31.0960 N   0  0  0  0  0  0  0  0  0  0  0  0
   36.3520   21.0880   31.6550 C   0  0  0  0  0  0  0  0  0  0  0  0
   37.1660   21.4030   32.6850 N   0  0  0  0  0  0  0  0  0  0  0  0
   37.2140   22.7630   32.7860 C   0  0  0  0  0  0  0  0  0  0  0  0
   37.8950   23.5740   33.6640 C   0  0  0  0  0  0  0  0  0  0  0  0
   38.2690   25.6030   34.1940 H   0  0  0  0  0  0  0  0  0  0  0  0
   35.6260   24.9920   30.8630 H   0  0  0  0  0  0  0  0  0  0  0  0
   35.2220   22.2900   30.2760 H   0  0  0  0  0  0  0  0  0  0  0  0
   36.0800   20.1150   31.2850 H   0  0  0  0  0  0  0  0  0  0  0  0
   38.7560   23.0660   34.7270 C   0  0  0  0  0  0  0  0  0  0  0  0
   38.4950   23.1060   36.0810 C   0  0  0  0  0  0  0  0  0  0  0  0
   37.5490   23.5650   36.3640 H   0  0  0  0  0  0  0  0  0  0  0  0
   39.3890   22.5930   36.9980 C   0  0  0  0  0  3  0  0  0  0  0  0
   40.5710   22.0270   36.5270 C   0  0  0  0  0  0  0  0  0  0  0  0
   41.4490   21.5230   37.4230 N   0  0  0  0  0  0  0  0  0  0  0  0
   42.6110   20.9640   37.0150 C   0  0  0  0  0  0  0  0  0  0  0  0
   43.3220   20.5570   37.7150 H   0  0  0  0  0  0  0  0  0  0  0  0
   42.9390   20.8880   35.6820 C   0  0  0  0  0  3  0  0  0  0  0  0
   42.0580   21.3970   34.7410 C   0  0  0  0  0  3  0  0  0  0  0  0
   40.8750   21.9660   35.1690 C   0  0  0  0  0  0  0  0  0  0  0  0
   39.9530   22.4920   34.2900 C   0  0  0  0  0  3  0  0  0  0  0  0
   36.8250   26.8700   32.4230 C   0  0  0  0  0  0  0  0  0  0  0  0
   37.7630   27.5980   32.8850 O   0  0  0  0  0  0  0  0  0  0  0  0
   35.7310   27.5720   31.8430 N   0  0  0  0  0  0  0  0  0  0  0  0
   34.9680   27.0000   31.4590 H   0  0  0  0  0  0  0  0  0  0  0  0
   34.8520   28.9690   34.0060 F   0  0  0  0  0  0  0  0  0  0  0  0
   35.4150   29.6860   32.9990 C   0  0  0  0  0  0  0  0  0  0  0  0
   35.5170   31.0450   33.1080 C   0  0  0  0  0  0  0  0  0  0  0  0
   36.0890   31.7060   32.0660 C   0  0  0  0  0  0  0  0  0  0  0  0
   36.5580   31.0810   30.9420 C   0  0  0  0  0  0  0  0  0  0  0  0
   36.4410   29.7020   30.8600 C   0  0  0  0  0  0  0  0  0  0  0  0
   35.8700   28.9990   31.8890 C   0  0  0  0  0  0  0  0  0  0  0  0
   36.1770   32.7900   32.1390 H   0  0  0  0  0  0  0  0  0  0  0  0
   37.0120   31.6290   30.1230 H   0  0  0  0  0  0  0  0  0  0  0  0
   36.7870   29.1320   30.0060 H   0  0  0  0  0  0  0  0  0  0  0  0
   35.2030   32.3180   36.6620 C   0  0  0  0  0  0  0  0  0  0  0  0
   35.7100   31.7050   35.5070 C   0  0  0  0  0  0  0  0  0  0  0  0
   35.0040   31.6810   34.3260 C   0  0  0  0  0  0  0  0  0  0  0  0
   33.7790   32.2880   34.3380 N   0  0  0  0  0  0  0  0  0  0  0  0
   33.2960   32.8740   35.4420 C   0  0  0  0  0  0  0  0  0  0  0  0
   33.9900   32.8880   36.5770 N   0  0  0  0  0  0  0  0  0  0  0  0
   35.8160   32.2960   37.5500 H   0  0  0  0  0  0  0  0  0  0  0  0
   36.6790   31.2220   35.4870 H   0  0  0  0  0  0  0  0  0  0  0  0
   32.3180   33.3360   35.3830 H   0  0  0  0  0  0  0  0  0  0  0  0
  1  9  1  0  0  0  0
  1 10  1  0  0  0  0
  2  1  2  0  0  0  0
  3  4  2  0  0  0  0
  3  2  1  0  0  0  0
  4  8  1  0  0  0  0
  5  6  1  0  0  0  0
  5  4  1  0  0  0  0
  6  7  2  0  0  0  0
  7  8  1  0  0  0  0
  8  9  2  0  0  0  0
  9 14  1  0  0  0  0
 11  3  1  0  0  0  0
 12  5  1  0  0  0  0
 13  6  1  0  0  0  0
 14 15  1  0  0  0  0
 15 16  1  0  0  0  0
 15 17  2  0  0  0  0
 18 17  1  0  0  0  0
 18 19  1  0  0  0  0
 20 19  2  0  0  0  0
 20 21  1  0  0  0  0
 22 20  1  0  0  0  0
 23 24  1  0  0  0  0
 23 22  2  0  0  0  0
 24 18  2  0  0  0  0
 25 14  2  0  0  0  0
 25 24  1  0  0  0  0
 26  2  1  0  0  0  0
 26 27  2  0  0  0  0
 28 36  1  0  0  0  0
 28 26  1  0  0  0  0
 29 28  1  0  0  0  0
 31 32  1  0  0  0  0
 31 30  1  0  0  0  0
 32 42  1  0  0  0  0
 33 37  1  0  0  0  0
 33 32  2  0  0  0  0
 34 33  1  0  0  0  0
 35 34  2  0  0  0  0
 35 36  1  0  0  0  0
 36 31  2  0  0  0  0
 38 34  1  0  0  0  0
 39 35  1  0  0  0  0
 40 46  1  0  0  0  0
 41 40  2  0  0  0  0
 42 43  2  0  0  0  0
 42 41  1  0  0  0  0
 43 44  1  0  0  0  0
 44 45  2  0  0  0  0
 45 40  1  0  0  0  0
 47 41  1  0  0  0  0
 48 44  1  0  0  0  0
M  END
>  <minimizedAffinity>
-7.25479078

$$$$

 OpenBabel03272503113D

 48 53  0  0  0  0  0  0  0  0999 V2000
   36.3830   28.0230   32.0960 C   0  0  0  0  0  0  0  0  0  0  0  0
   37.2420   27.6180   31.0840 C   0  0  0  0  0  0  0  0  0  0  0  0
   37.6020   28.4360   30.0430 C   0  0  0  0  0  0  0  0  0  0  0  0
   37.0900   29.7190   29.9950 C   0  0  0  0  0  0  0  0  0  0  0  0
   37.2610   30.7250   29.1150 N   0  0  0  0  0  0  0  0  0  0  0  0
   36.5240   31.7570   29.5550 C   0  0  0  0  0  0  0  0  0  0  0  0
   35.8950   31.4080   30.6980 N   0  0  0  0  0  0  0  0  0  0  0  0
   36.2390   30.1220   30.9960 C   0  0  0  0  0  0  0  0  0  0  0  0
   35.8690   29.3140   32.0450 C   0  0  0  0  0  0  0  0  0  0  0  0
   36.1150   27.3760   32.8930 H   0  0  0  0  0  0  0  0  0  0  0  0
   38.2730   28.1170   29.2540 H   0  0  0  0  0  0  0  0  0  0  0  0
   37.8620   30.6930   28.2510 H   0  0  0  0  0  0  0  0  0  0  0  0
   36.4880   32.6920   29.0240 H   0  0  0  0  0  0  0  0  0  0  0  0
   34.9650   29.7400   33.1090 C   0  0  0  0  0  0  0  0  0  0  0  0
   33.6220   29.4430   33.2090 C   0  0  0  0  0  0  0  0  0  0  0  0
   33.2150   28.8300   32.4060 H   0  0  0  0  0  0  0  0  0  0  0  0
   32.8620   29.9030   34.2650 C   0  0  0  0  0  3  0  0  0  0  0  0
   33.4840   30.6810   35.2380 C   0  0  0  0  0  0  0  0  0  0  0  0
   32.7430   31.1340   36.2750 N   0  0  0  0  0  0  0  0  0  0  0  0
   33.3010   31.8930   37.2450 C   0  0  0  0  0  0  0  0  0  0  0  0
   32.7260   32.2620   38.0780 H   0  0  0  0  0  0  0  0  0  0  0  0
   34.6330   32.2290   37.2130 C   0  0  0  0  0  3  0  0  0  0  0  0
   35.4170   31.7790   36.1630 C   0  0  0  0  0  3  0  0  0  0  0  0
   34.8370   31.0060   35.1770 C   0  0  0  0  0  0  0  0  0  0  0  0
   35.5550   30.5240   34.1030 C   0  0  0  0  0  3  0  0  0  0  0  0
   37.7490   26.2700   31.1810 C   0  0  0  0  0  0  0  0  0  0  0  0
   38.1880   25.8510   32.3010 O   0  0  0  0  0  0  0  0  0  0  0  0
   37.8070   25.3340   30.1090 N   0  0  0  0  0  0  0  0  0  0  0  0
   37.4500   25.6530   29.2000 H   0  0  0  0  0  0  0  0  0  0  0  0
   36.2070   23.3430   31.0460 F   0  0  0  0  0  0  0  0  0  0  0  0
   37.5350   23.0710   30.9510 C   0  0  0  0  0  0  0  0  0  0  0  0
   38.0040   21.8410   31.3190 C   0  0  0  0  0  0  0  0  0  0  0  0
   39.3420   21.6310   31.2020 C   0  0  0  0  0  0  0  0  0  0  0  0
   40.2170   22.5770   30.7400 C   0  0  0  0  0  0  0  0  0  0  0  0
   39.7120   23.8150   30.3750 C   0  0  0  0  0  0  0  0  0  0  0  0
   38.3690   24.0670   30.4780 C   0  0  0  0  0  0  0  0  0  0  0  0
   39.7310   20.6550   31.4920 H   0  0  0  0  0  0  0  0  0  0  0  0
   41.2810   22.3870   30.6550 H   0  0  0  0  0  0  0  0  0  0  0  0
   40.3370   24.6180   30.0000 H   0  0  0  0  0  0  0  0  0  0  0  0
   35.7120   18.8340   31.5480 C   0  0  0  0  0  0  0  0  0  0  0  0
   36.6360   19.7690   31.0620 C   0  0  0  0  0  0  0  0  0  0  0  0
   37.0380   20.8520   31.8100 C   0  0  0  0  0  0  0  0  0  0  0  0
   36.4870   20.9680   33.0560 N   0  0  0  0  0  0  0  0  0  0  0  0
   35.6040   20.0740   33.5190 C   0  0  0  0  0  0  0  0  0  0  0  0
   35.2240   19.0320   32.7840 N   0  0  0  0  0  0  0  0  0  0  0  0
   35.4460   18.0110   30.9030 H   0  0  0  0  0  0  0  0  0  0  0  0
   37.0790   19.6870   30.0770 H   0  0  0  0  0  0  0  0  0  0  0  0
   35.2050   20.2240   34.5150 H   0  0  0  0  0  0  0  0  0  0  0  0
  1 10  1  0  0  0  0
  2 26  1  0  0  0  0
  2  1  2  0  0  0  0
  3  2  1  0  0  0  0
  4  3  2  0  0  0  0
  4  8  1  0  0  0  0
  5  6  1  0  0  0  0
  5  4  1  0  0  0  0
  6  7  2  0  0  0  0
  7  8  1  0  0  0  0
  8  9  2  0  0  0  0
  9  1  1  0  0  0  0
  9 14  1  0  0  0  0
 11  3  1  0  0  0  0
 12  5  1  0  0  0  0
 13  6  1  0  0  0  0
 14 15  2  0  0  0  0
 14 25  1  0  0  0  0
 15 17  1  0  0  0  0
 16 15  1  0  0  0  0
 17 18  2  0  0  0  0
 18 19  1  0  0  0  0
 19 20  2  0  0  0  0
 20 21  1  0  0  0  0
 22 20  1  0  0  0  0
 23 22  2  0  0  0  0
 24 18  1  0  0  0  0
 24 23  1  0  0  0  0
 25 24  2  0  0  0  0
 26 27  2  0  0  0  0
 28 36  1  0  0  0  0
 28 26  1  0  0  0  0
 29 28  1  0  0  0  0
 31 30  1  0  0  0  0
 31 32  1  0  0  0  0
 32 42  1  0  0  0  0
 33 32  2  0  0  0  0
 33 37  1  0  0  0  0
 34 33  1  0  0  0  0
 35 36  1  0  0  0  0
 35 34  2  0  0  0  0
 36 31  2  0  0  0  0
 38 34  1  0  0  0  0
 39 35  1  0  0  0  0
 40 45  1  0  0  0  0
 41 40  2  0  0  0  0
 41 42  1  0  0  0  0
 42 43  2  0  0  0  0
 43 44  1  0  0  0  0
 44 48  1  0  0  0  0
 45 44  2  0  0  0  0
 46 40  1  0  0  0  0
 47 41  1  0  0  0  0
M  END
>  <minimizedAffinity>
-7.2292881

$$$$

 OpenBabel03272503113D

 48 53  0  0  0  0  0  0  0  0999 V2000
   37.0260   27.2350   34.4950 C   0  0  0  0  0  0  0  0  0  0  0  0
   36.4550   28.0460   33.5240 C   0  0  0  0  0  0  0  0  0  0  0  0
   36.2880   27.6430   32.2230 C   0  0  0  0  0  0  0  0  0  0  0  0
   36.7050   26.3770   31.8580 C   0  0  0  0  0  0  0  0  0  0  0  0
   36.6710   25.7210   30.6810 N   0  0  0  0  0  0  0  0  0  0  0  0
   37.2120   24.5110   30.8940 C   0  0  0  0  0  0  0  0  0  0  0  0
   37.5830   24.4030   32.1870 N   0  0  0  0  0  0  0  0  0  0  0  0
   37.2710   25.5730   32.8170 C   0  0  0  0  0  0  0  0  0  0  0  0
   37.4450   25.9610   34.1240 C   0  0  0  0  0  0  0  0  0  0  0  0
   37.1480   27.5640   35.4960 H   0  0  0  0  0  0  0  0  0  0  0  0
   35.8410   28.2790   31.4670 H   0  0  0  0  0  0  0  0  0  0  0  0
   36.2890   26.1000   29.7760 H   0  0  0  0  0  0  0  0  0  0  0  0
   37.3030   23.7870   30.1030 H   0  0  0  0  0  0  0  0  0  0  0  0
   38.0470   25.1090   35.1450 C   0  0  0  0  0  0  0  0  0  0  0  0
   37.5200   24.8230   36.3870 C   0  0  0  0  0  0  0  0  0  0  0  0
   36.5600   25.2880   36.6090 H   0  0  0  0  0  0  0  0  0  0  0  0
   38.1820   24.0000   37.2750 C   0  0  0  0  0  3  0  0  0  0  0  0
   39.4060   23.4580   36.8890 C   0  0  0  0  0  0  0  0  0  0  0  0
   40.0580   22.6500   37.7560 N   0  0  0  0  0  0  0  0  0  0  0  0
   41.2490   22.1000   37.4270 C   0  0  0  0  0  0  0  0  0  0  0  0
   41.7820   21.4550   38.1060 H   0  0  0  0  0  0  0  0  0  0  0  0
   41.8350   22.3400   36.2080 C   0  0  0  0  0  3  0  0  0  0  0  0
   41.1900   23.1630   35.2990 C   0  0  0  0  0  3  0  0  0  0  0  0
   39.9750   23.7200   35.6450 C   0  0  0  0  0  0  0  0  0  0  0  0
   39.2770   24.5490   34.7920 C   0  0  0  0  0  3  0  0  0  0  0  0
   36.0360   29.3580   33.9560 C   0  0  0  0  0  0  0  0  0  0  0  0
   35.7400   30.2350   33.0810 O   0  0  0  0  0  0  0  0  0  0  0  0
   35.9200   29.7790   35.3110 N   0  0  0  0  0  0  0  0  0  0  0  0
   36.1480   29.0820   36.0310 H   0  0  0  0  0  0  0  0  0  0  0  0
   33.2710   30.4020   35.2800 F   0  0  0  0  0  0  0  0  0  0  0  0
   34.1420   31.4310   35.4400 C   0  0  0  0  0  0  0  0  0  0  0  0
   33.6690   32.7060   35.5760 C   0  0  0  0  0  0  0  0  0  0  0  0
   34.5910   33.6940   35.7320 C   0  0  0  0  0  0  0  0  0  0  0  0
   35.9410   33.4680   35.7590 C   0  0  0  0  0  0  0  0  0  0  0  0
   36.3920   32.1640   35.6180 C   0  0  0  0  0  0  0  0  0  0  0  0
   35.4940   31.1410   35.4590 C   0  0  0  0  0  0  0  0  0  0  0  0
   34.2280   34.7150   35.8410 H   0  0  0  0  0  0  0  0  0  0  0  0
   36.6590   34.2710   35.8850 H   0  0  0  0  0  0  0  0  0  0  0  0
   37.4430   31.9010   35.6290 H   0  0  0  0  0  0  0  0  0  0  0  0
   30.0610   33.1780   36.6290 C   0  0  0  0  0  0  0  0  0  0  0  0
   31.4480   32.9810   36.6810 C   0  0  0  0  0  0  0  0  0  0  0  0
   32.2170   32.9110   35.5420 C   0  0  0  0  0  0  0  0  0  0  0  0
   31.5540   33.0430   34.3530 N   0  0  0  0  0  0  0  0  0  0  0  0
   30.2290   33.2310   34.3040 C   0  0  0  0  0  0  0  0  0  0  0  0
   29.4990   33.2960   35.4150 N   0  0  0  0  0  0  0  0  0  0  0  0
   29.5260   33.2230   37.5650 H   0  0  0  0  0  0  0  0  0  0  0  0
   31.9820   32.8760   37.6170 H   0  0  0  0  0  0  0  0  0  0  0  0
   29.7670   33.3280   33.3300 H   0  0  0  0  0  0  0  0  0  0  0  0
  1 10  1  0  0  0  0
  2 26  1  0  0  0  0
  2  1  2  0  0  0  0
  3  2  1  0  0  0  0
  4  3  2  0  0  0  0
  4  8  1  0  0  0  0
  5  6  1  0  0  0  0
  5  4  1  0  0  0  0
  6  7  2  0  0  0  0
  7  8  1  0  0  0  0
  8  9  2  0  0  0  0
  9  1  1  0  0  0  0
  9 14  1  0  0  0  0
 11  3  1  0  0  0  0
 12  5  1  0  0  0  0
 13  6  1  0  0  0  0
 14 15  1  0  0  0  0
 15 16  1  0  0  0  0
 15 17  2  0  0  0  0
 18 17  1  0  0  0  0
 18 19  1  0  0  0  0
 20 19  2  0  0  0  0
 20 21  1  0  0  0  0
 22 20  1  0  0  0  0
 23 24  1  0  0  0  0
 23 22  2  0  0  0  0
 24 18  2  0  0  0  0
 25 14  2  0  0  0  0
 25 24  1  0  0  0  0
 26 28  1  0  0  0  0
 27 26  2  0  0  0  0
 28 36  1  0  0  0  0
 28 29  1  0  0  0  0
 30 31  1  0  0  0  0
 31 36  2  0  0  0  0
 31 32  1  0  0  0  0
 32 33  2  0  0  0  0
 33 34  1  0  0  0  0
 33 37  1  0  0  0  0
 34 38  1  0  0  0  0
 35 39  1  0  0  0  0
 35 34  2  0  0  0  0
 36 35  1  0  0  0  0
 40 41  1  0  0  0  0
 40 46  1  0  0  0  0
 41 47  1  0  0  0  0
 42 32  1  0  0  0  0
 42 41  2  0  0  0  0
 43 42  1  0  0  0  0
 44 43  2  0  0  0  0
 44 45  1  0  0  0  0
 45 40  2  0  0  0  0
 48 44  1  0  0  0  0
M  END
>  <minimizedAffinity>
-7.16701365

$$$$
