
 OpenBabel03262520543D

 29 32  0  0  1  0  0  0  0  0999 V2000
   36.0930   29.2870   49.9150 C   0  0  2  0  0  0  0  0  0  0  0  0
   35.6690   29.2600   51.3120 C   0  0  0  0  0  0  0  0  0  0  0  0
   36.6730   28.2550   50.8240 C   0  0  2  0  0  0  0  0  0  0  0  0
   35.3540   28.9370   49.1400 H   0  0  0  0  0  0  0  0  0  0  0  0
   34.6730   28.9030   51.5970 H   0  0  0  0  0  0  0  0  0  0  0  0
   36.0570   30.0830   51.9740 H   0  0  0  0  0  0  0  0  0  0  0  0
   36.3120   27.2120   50.6530 H   0  0  0  0  0  0  0  0  0  0  0  0
   38.2200   32.3380   49.6170 C   0  0  0  0  0  0  0  0  0  0  0  0
   38.7720   32.1710   48.3420 C   0  0  0  0  0  0  0  0  0  0  0  0
   38.4120   31.0200   47.6020 C   0  0  0  0  0  0  0  0  0  0  0  0
   37.5520   30.1190   48.1350 N   0  0  0  0  0  0  0  0  0  0  0  0
   37.0350   30.3140   49.3790 C   0  0  0  0  0  0  0  0  0  0  0  0
   37.3560   31.4060   50.1210 N   0  0  0  0  0  0  0  0  0  0  0  0
   38.4820   33.2100   50.1980 H   0  0  0  0  0  0  0  0  0  0  0  0
   39.4530   32.8680   47.8990 H   0  0  0  0  0  0  0  0  0  0  0  0
   38.8240   30.8620   46.6090 H   0  0  0  0  0  0  0  0  0  0  0  0
   38.4140   28.4750   51.3010 S   0  0  0  0  0  0  0  0  0  0  0  0
   39.1480   26.9190   51.7300 C   0  0  0  0  0  0  0  0  0  0  0  0
   39.2740   26.5040   53.0510 C   0  0  0  0  0  0  0  0  0  0  0  0
   38.8940   27.1920   53.8070 H   0  0  0  0  0  0  0  0  0  0  0  0
   39.8470   25.2900   53.3610 C   0  0  0  0  0  3  0  0  0  0  0  0
   40.3060   24.4710   52.3450 C   0  0  0  0  0  0  0  0  0  0  0  0
   40.8600   23.2940   52.6680 N   0  0  0  0  0  0  0  0  0  0  0  0
   41.3250   22.4540   51.7240 C   0  0  0  0  0  0  0  0  0  0  0  0
   41.7530   21.5340   52.0810 H   0  0  0  0  0  0  0  0  0  0  0  0
   41.2200   22.8280   50.4000 C   0  0  0  0  0  3  0  0  0  0  0  0
   40.6540   24.0320   50.0310 C   0  0  0  0  0  3  0  0  0  0  0  0
   40.1830   24.8820   51.0130 C   0  0  0  0  0  0  0  0  0  0  0  0
   39.6080   26.0940   50.7250 C   0  0  0  0  0  3  0  0  0  0  0  0
  1  4  1  6  0  0  0
  1  3  1  0  0  0  0
  1  2  1  0  0  0  0
  2  5  1  0  0  0  0
  2  6  1  0  0  0  0
  3  7  1  6  0  0  0
  3 17  1  0  0  0  0
  3  2  1  0  0  0  0
  8 13  1  0  0  0  0
  8 14  1  0  0  0  0
  9  8  2  0  0  0  0
 10 11  2  0  0  0  0
 10  9  1  0  0  0  0
 11 12  1  0  0  0  0
 12  1  1  0  0  0  0
 12 13  2  0  0  0  0
 15  9  1  0  0  0  0
 16 10  1  0  0  0  0
 17 18  1  0  0  0  0
 18 19  1  0  0  0  0
 19 21  2  0  0  0  0
 19 20  1  0  0  0  0
 22 23  1  0  0  0  0
 22 21  1  0  0  0  0
 24 25  1  0  0  0  0
 24 23  2  0  0  0  0
 26 24  1  0  0  0  0
 27 26  2  0  0  0  0
 27 28  1  0  0  0  0
 28 22  2  0  0  0  0
 29 28  1  0  0  0  0
 29 18  2  0  0  0  0
M  END
>  <minimizedAffinity>
-1.27227187

>  <minimizedRMSD>
2.60872984

$$$$
