
 OpenBabel03272510203D

 39 43  0  0  0  0  0  0  0  0999 V2000
   32.7700   29.3690   46.8410 C   0  0  0  0  0  0  0  0  0  0  0  0
   31.8700   28.3420   46.6800 C   0  0  0  0  0  0  0  0  0  0  0  0
   30.8080   28.3970   45.7870 C   0  0  0  0  0  0  0  0  0  0  0  0
   30.6380   29.5000   45.0370 N   0  0  0  0  0  0  0  0  0  0  0  0
   31.5100   30.5020   45.1880 C   0  0  0  0  0  0  0  0  0  0  0  0
   32.5230   30.4290   46.0510 N   0  0  0  0  0  0  0  0  0  0  0  0
   32.0130   27.4390   47.2970 H   0  0  0  0  0  0  0  0  0  0  0  0
   30.1650   27.5190   45.7530 H   0  0  0  0  0  0  0  0  0  0  0  0
   31.3420   31.7070   44.3830 C   0  0  0  0  0  0  0  0  0  0  0  0
   32.4110   32.5730   44.1730 C   0  0  0  0  0  0  0  0  0  0  0  0
   33.3650   32.3240   44.6240 H   0  0  0  0  0  0  0  0  0  0  0  0
   32.3580   33.7220   43.4370 C   0  0  0  0  0  3  0  0  0  0  0  0
   31.1450   34.0420   42.8620 C   0  0  0  0  0  0  0  0  0  0  0  0
   31.0650   35.1700   42.1310 N   0  0  0  0  0  0  0  0  0  0  0  0
   29.9280   35.5680   41.5290 C   0  0  0  0  0  0  0  0  0  0  0  0
   29.9000   36.4710   40.9560 H   0  0  0  0  0  0  0  0  0  0  0  0
   28.8080   34.7600   41.6870 C   0  0  0  0  0  3  0  0  0  0  0  0
   28.8450   33.5840   42.4330 C   0  0  0  0  0  3  0  0  0  0  0  0
   30.0370   33.2250   43.0290 C   0  0  0  0  0  0  0  0  0  0  0  0
   30.1690   32.0710   43.7900 C   0  0  0  0  0  3  0  0  0  0  0  0
   37.4530   29.1770   50.8050 Br  0  0  0  0  0  0  0  0  0  0  0  0
   36.0170   29.2720   49.5560 C   0  0  0  0  0  0  0  0  0  0  0  0
   35.9820   30.2790   48.5840 C   0  0  0  0  0  0  0  0  0  0  0  0
   34.9240   30.2950   47.7150 C   0  0  0  0  0  0  0  0  0  0  0  0
   33.8960   29.3580   47.7600 C   0  0  0  0  0  0  0  0  0  0  0  0
   33.9530   28.3880   48.7150 C   0  0  0  0  0  0  0  0  0  0  0  0
   35.0080   28.3580   49.5960 C   0  0  0  0  0  0  0  0  0  0  0  0
   34.8320   31.0480   46.9350 H   0  0  0  0  0  0  0  0  0  0  0  0
   33.2110   27.6110   48.8440 H   0  0  0  0  0  0  0  0  0  0  0  0
   35.0680   27.5860   50.3680 H   0  0  0  0  0  0  0  0  0  0  0  0
   38.0200   33.1790   49.4360 C   0  0  0  0  0  0  0  0  0  0  0  0
   39.0220   33.1930   48.4210 C   0  0  0  0  0  0  0  0  0  0  0  0
   38.9690   32.1970   47.4660 C   0  0  0  0  0  0  0  0  0  0  0  0
   37.9760   31.2540   47.5260 N   0  0  0  0  0  0  0  0  0  0  0  0
   37.0380   31.2710   48.5080 C   0  0  0  0  0  0  0  0  0  0  0  0
   37.0730   32.2400   49.4550 N   0  0  0  0  0  0  0  0  0  0  0  0
   38.0970   33.9840   50.1730 H   0  0  0  0  0  0  0  0  0  0  0  0
   39.8100   33.8970   48.3270 H   0  0  0  0  0  0  0  0  0  0  0  0
   39.6550   32.0910   46.6530 H   0  0  0  0  0  0  0  0  0  0  0  0
  1 25  1  0  0  0  0
  2  1  1  0  0  0  0
  2  7  1  0  0  0  0
  3  2  2  0  0  0  0
  4  5  2  0  0  0  0
  4  3  1  0  0  0  0
  5  6  1  0  0  0  0
  6  1  2  0  0  0  0
  8  3  1  0  0  0  0
  9  5  1  0  0  0  0
 10  9  1  0  0  0  0
 10 11  1  0  0  0  0
 12 10  2  0  0  0  0
 13 19  1  0  0  0  0
 13 12  1  0  0  0  0
 14 13  2  0  0  0  0
 15 17  2  0  0  0  0
 15 14  1  0  0  0  0
 16 15  1  0  0  0  0
 17 18  1  0  0  0  0
 18 19  2  0  0  0  0
 19 20  1  0  0  0  0
 20  9  2  0  0  0  0
 22 27  1  0  0  0  0
 22 21  1  0  0  0  0
 23 22  2  0  0  0  0
 24 25  2  0  0  0  0
 24 23  1  0  0  0  0
 25 26  1  0  0  0  0
 26 29  1  0  0  0  0
 26 27  2  0  0  0  0
 27 30  1  0  0  0  0
 28 24  1  0  0  0  0
 31 36  1  0  0  0  0
 31 37  1  0  0  0  0
 32 31  2  0  0  0  0
 33 34  2  0  0  0  0
 33 32  1  0  0  0  0
 34 35  1  0  0  0  0
 35 23  1  0  0  0  0
 35 36  2  0  0  0  0
 38 32  1  0  0  0  0
 39 33  1  0  0  0  0
M  END
>  <minimizedAffinity>
-7.08303308

>  <minimizedRMSD>
0.61121738

$$$$
