
 OpenBabel03272508553D

 41 45  0  0  1  0  0  0  0  0999 V2000
   39.1680   31.4460   43.3550 C   0  0  0  0  0  0  0  0  0  0  0  0
   40.1460   30.5000   43.5040 C   0  0  0  0  0  0  0  0  0  0  0  0
   40.8720   30.1120   42.3860 C   0  0  0  0  0  0  0  0  0  0  0  0
   40.5650   30.7040   41.2000 C   0  0  0  0  0  0  0  0  0  0  0  0
   39.5820   31.6620   41.0320 C   0  0  0  0  0  0  0  0  0  0  0  0
   38.9240   31.9820   42.1600 N   0  0  0  0  0  0  0  0  0  0  0  0
   40.4180   30.0060   44.4360 H   0  0  0  0  0  0  0  0  0  0  0  0
   41.6550   29.3620   42.4730 H   0  0  0  0  0  0  0  0  0  0  0  0
   41.1370   30.3940   40.3360 H   0  0  0  0  0  0  0  0  0  0  0  0
   39.2510   32.2980   39.7660 C   0  0  0  0  0  0  0  0  0  0  0  0
   39.8960   31.9970   38.5870 C   0  0  0  0  0  0  0  0  0  0  0  0
   40.6890   31.2620   38.5580 H   0  0  0  0  0  0  0  0  0  0  0  0
   39.6070   32.5790   37.3720 C   0  0  0  0  0  0  0  0  0  0  0  0
   38.5860   33.5340   37.3760 C   0  0  0  0  0  0  0  0  0  0  0  0
   38.2070   34.1800   36.2470 N   0  0  0  0  0  0  0  0  0  0  0  0
   37.2310   35.1000   36.2230 C   0  0  0  0  0  0  0  0  0  0  0  0
   37.0030   35.5620   35.2540 H   0  0  0  0  0  0  0  0  0  0  0  0
   36.5420   35.4460   37.3820 C   0  0  0  0  0  0  0  0  0  0  0  0
   36.9020   34.8090   38.5530 C   0  0  0  0  0  0  0  0  0  0  0  0
   37.9080   33.8690   38.5430 C   0  0  0  0  0  0  0  0  0  0  0  0
   38.2480   33.2420   39.7420 C   0  0  0  0  0  0  0  0  0  0  0  0
   38.3970   31.8380   44.5430 C   0  0  0  0  0  0  0  0  0  0  0  0
   37.2890   32.4440   44.4340 O   0  0  0  0  0  0  0  0  0  0  0  0
   38.9250   31.5200   45.8400 N   0  0  0  0  0  0  0  0  0  0  0  0
   39.8960   31.1710   46.0030 H   0  0  0  0  0  0  0  0  0  0  0  0
   38.4140   31.1070   48.2440 C   0  0  2  0  0  0  0  0  0  0  0  0
   38.6820   32.5470   48.1180 C   0  0  0  0  0  0  0  0  0  0  0  0
   38.0470   31.6990   46.9850 C   0  0  1  0  0  0  0  0  0  0  0  0
   39.3580   30.5030   48.3400 H   0  0  0  0  0  0  0  0  0  0  0  0
   39.6940   32.9160   47.9490 H   0  0  0  0  0  0  0  0  0  0  0  0
   37.9780   33.2150   48.6720 H   0  0  0  0  0  0  0  0  0  0  0  0
   36.9810   31.9480   46.7770 H   0  0  0  0  0  0  0  0  0  0  0  0
   35.0950   30.1750   49.5600 C   0  0  0  0  0  0  0  0  0  0  0  0
   35.4230   29.5370   50.8000 C   0  0  0  0  0  0  0  0  0  0  0  0
   36.8240   29.4550   51.1510 C   0  0  0  0  0  0  0  0  0  0  0  0
   37.7540   29.9760   50.3080 N   0  0  0  0  0  0  0  0  0  0  0  0
   37.3570   30.5700   49.1420 C   0  0  0  0  0  0  0  0  0  0  0  0
   36.0420   30.6850   48.7400 N   0  0  0  0  0  0  0  0  0  0  0  0
   34.0630   30.2430   49.2860 H   0  0  0  0  0  0  0  0  0  0  0  0
   34.6580   29.1400   51.4330 H   0  0  0  0  0  0  0  0  0  0  0  0
   37.0610   28.9790   52.0740 H   0  0  0  0  0  0  0  0  0  0  0  0
  1  2  1  0  0  0  0
  1 22  1  0  0  0  0
  2  7  1  0  0  0  0
  3  8  1  0  0  0  0
  3  2  2  0  0  0  0
  4  3  1  0  0  0  0
  5  4  2  0  0  0  0
  5  6  1  0  0  0  0
  6  1  2  0  0  0  0
  9  4  1  0  0  0  0
 10  5  1  0  0  0  0
 11 10  2  0  0  0  0
 12 11  1  0  0  0  0
 13 14  2  0  0  0  0
 13 11  1  0  0  0  0
 14 20  1  0  0  0  0
 15 14  1  0  0  0  0
 16 15  2  0  0  0  0
 16 18  1  0  0  0  0
 17 16  1  0  0  0  0
 18 19  2  0  0  0  0
 20 19  1  0  0  0  0
 20 21  2  0  0  0  0
 21 10  1  0  0  0  0
 22 24  1  0  0  0  0
 23 22  2  0  0  0  0
 24 25  1  0  0  0  0
 24 28  1  0  0  0  0
 26 29  1  6  0  0  0
 26 37  1  0  0  0  0
 27 26  1  0  0  0  0
 27 31  1  0  0  0  0
 28 32  1  6  0  0  0
 28 27  1  0  0  0  0
 28 26  1  0  0  0  0
 30 27  1  0  0  0  0
 33 34  1  0  0  0  0
 34 35  2  0  0  0  0
 34 40  1  0  0  0  0
 35 41  1  0  0  0  0
 36 35  1  0  0  0  0
 37 36  2  0  0  0  0
 38 37  1  0  0  0  0
 38 33  2  0  0  0  0
 39 33  1  0  0  0  0
M  END
>  <minimizedAffinity>
-5.45199728

>  <minimizedRMSD>
1.37062407

$$$$
