
 OpenBabel03262523523D

 39 42  0  0  1  0  0  0  0  0999 V2000
   39.8170   23.8020   35.2450 N   0  0  0  0  0  0  0  0  0  0  0  0
   40.9330   22.9250   35.4620 C   0  0  0  0  0  0  0  0  0  0  0  0
   40.6690   21.9490   36.5410 C   0  0  0  0  0  0  0  0  0  0  0  0
   40.1350   22.6910   37.7270 C   0  0  0  0  0  0  0  0  0  0  0  0
   38.7910   23.2340   37.4270 C   0  0  0  0  0  0  0  0  0  0  0  0
   38.6470   23.4710   35.9510 C   0  0  2  0  0  0  0  0  0  0  0  0
   41.1470   22.3520   34.5280 H   0  0  0  0  0  0  0  0  0  0  0  0
   41.8470   23.5220   35.6850 H   0  0  0  0  0  0  0  0  0  0  0  0
   40.1540   21.0230   36.2720 H   0  0  0  0  0  0  0  0  0  0  0  0
   41.6940   21.5910   36.8780 H   0  0  0  0  0  0  0  0  0  0  0  0
   40.8490   23.5460   37.8900 H   0  0  0  0  0  0  0  0  0  0  0  0
   40.1960   22.1090   38.6680 H   0  0  0  0  0  0  0  0  0  0  0  0
   38.7330   24.2050   38.0170 H   0  0  0  0  0  0  0  0  0  0  0  0
   38.0170   22.6280   37.8860 H   0  0  0  0  0  0  0  0  0  0  0  0
   38.0630   24.4540   35.9150 H   0  0  0  0  0  0  0  0  0  0  0  0
   37.7500   22.5430   35.2620 C   0  0  0  0  0  0  0  0  0  0  0  0
   36.8610   21.7010   35.8910 C   0  0  0  0  0  0  0  0  0  0  0  0
   36.7900   21.6660   36.9660 H   0  0  0  0  0  0  0  0  0  0  0  0
   35.9980   20.8280   35.2640 C   0  0  0  0  0  3  0  0  0  0  0  0
   35.9890   20.7610   33.8880 C   0  0  0  0  0  0  0  0  0  0  0  0
   35.1520   19.9140   33.2690 N   0  0  0  0  0  0  0  0  0  0  0  0
   35.1290   19.8320   31.9270 C   0  0  0  0  0  0  0  0  0  0  0  0
   34.4000   19.1020   31.5600 H   0  0  0  0  0  0  0  0  0  0  0  0
   35.9680   20.6190   31.1710 C   0  0  0  0  0  3  0  0  0  0  0  0
   36.8170   21.4790   31.8230 C   0  0  0  0  0  3  0  0  0  0  0  0
   36.8520   21.5720   33.1840 C   0  0  0  0  0  0  0  0  0  0  0  0
   37.6840   22.4180   33.8850 C   0  0  0  0  0  3  0  0  0  0  0  0
   40.1820   25.1790   35.1620 C   0  0  0  0  0  0  0  0  0  0  0  0
   41.0350   25.2800   34.4870 H   0  0  0  0  0  0  0  0  0  0  0  0
   40.5370   25.4850   36.1700 H   0  0  0  0  0  0  0  0  0  0  0  0
   39.0620   26.0380   34.7800 C   0  0  0  0  0  0  0  0  0  0  0  0
   38.6620   27.0060   35.6840 C   0  0  0  0  0  0  0  0  0  0  0  0
   37.6100   27.8790   35.4130 C   0  0  0  0  0  0  0  0  0  0  0  0
   36.9980   27.7240   34.2120 N   0  0  0  0  0  0  0  0  0  0  0  0
   37.3740   26.7930   33.3310 C   0  0  0  0  0  0  0  0  0  0  0  0
   38.3960   25.9650   33.6220 N   0  0  0  0  0  0  0  0  0  0  0  0
   39.1590   27.1130   36.6330 H   0  0  0  0  0  0  0  0  0  0  0  0
   37.3390   28.6190   36.1600 H   0  0  0  0  0  0  0  0  0  0  0  0
   36.8740   26.6860   32.3790 H   0  0  0  0  0  0  0  0  0  0  0  0
  1  2  1  0  0  0  0
  1  6  1  0  0  0  0
  2  8  1  0  0  0  0
  2  3  1  0  0  0  0
  3 10  1  0  0  0  0
  3  4  1  0  0  0  0
  4 11  1  0  0  0  0
  4 12  1  0  0  0  0
  5  4  1  0  0  0  0
  5 14  1  0  0  0  0
  5 13  1  0  0  0  0
  6 15  1  6  0  0  0
  6  5  1  0  0  0  0
  7  2  1  0  0  0  0
  9  3  1  0  0  0  0
 16 17  1  0  0  0  0
 16  6  1  0  0  0  0
 17 18  1  0  0  0  0
 19 17  2  0  0  0  0
 20 19  1  0  0  0  0
 21 20  1  0  0  0  0
 22 21  2  0  0  0  0
 23 22  1  0  0  0  0
 24 25  2  0  0  0  0
 24 22  1  0  0  0  0
 25 26  1  0  0  0  0
 26 27  1  0  0  0  0
 26 20  2  0  0  0  0
 27 16  2  0  0  0  0
 28  1  1  0  0  0  0
 28 30  1  0  0  0  0
 29 28  1  0  0  0  0
 31 28  1  0  0  0  0
 31 32  1  0  0  0  0
 32 37  1  0  0  0  0
 33 32  2  0  0  0  0
 33 38  1  0  0  0  0
 34 33  1  0  0  0  0
 35 36  1  0  0  0  0
 35 34  2  0  0  0  0
 36 31  2  0  0  0  0
 39 35  1  0  0  0  0
M  END
>  <minimizedAffinity>
-5.82872963

$$$$

 OpenBabel03262523523D

 39 42  0  0  1  0  0  0  0  0999 V2000
   39.6640   25.6640   34.1650 N   0  0  0  0  0  0  0  0  0  0  0  0
   40.7930   26.4610   34.5560 C   0  0  0  0  0  0  0  0  0  0  0  0
   41.1970   27.4080   33.4950 C   0  0  0  0  0  0  0  0  0  0  0  0
   41.2980   26.6550   32.2050 C   0  0  0  0  0  0  0  0  0  0  0  0
   39.9570   26.2100   31.7660 C   0  0  0  0  0  0  0  0  0  0  0  0
   39.0550   26.0390   32.9550 C   0  0  2  0  0  0  0  0  0  0  0  0
   40.5370   27.0550   35.4650 H   0  0  0  0  0  0  0  0  0  0  0  0
   41.6440   25.7990   34.8390 H   0  0  0  0  0  0  0  0  0  0  0  0
   40.6860   28.3740   33.4570 H   0  0  0  0  0  0  0  0  0  0  0  0
   42.2710   27.6890   33.7360 H   0  0  0  0  0  0  0  0  0  0  0  0
   41.9290   25.7520   32.4350 H   0  0  0  0  0  0  0  0  0  0  0  0
   41.8790   27.1950   31.4310 H   0  0  0  0  0  0  0  0  0  0  0  0
   40.1400   25.2210   31.2320 H   0  0  0  0  0  0  0  0  0  0  0  0
   39.5780   26.8440   30.9720 H   0  0  0  0  0  0  0  0  0  0  0  0
   38.4660   25.0960   32.6840 H   0  0  0  0  0  0  0  0  0  0  0  0
   38.0020   27.0480   33.0790 C   0  0  0  0  0  0  0  0  0  0  0  0
   37.3310   27.3400   34.2440 C   0  0  0  0  0  0  0  0  0  0  0  0
   37.5390   26.8080   35.1570 H   0  0  0  0  0  0  0  0  0  0  0  0
   36.3460   28.2940   34.3880 C   0  0  0  0  0  3  0  0  0  0  0  0
   35.9690   29.0440   33.2950 C   0  0  0  0  0  0  0  0  0  0  0  0
   35.0110   29.9750   33.4250 N   0  0  0  0  0  0  0  0  0  0  0  0
   34.6290   30.7170   32.3710 C   0  0  0  0  0  0  0  0  0  0  0  0
   33.8410   31.4350   32.6230 H   0  0  0  0  0  0  0  0  0  0  0  0
   35.2190   30.5290   31.1420 C   0  0  0  0  0  3  0  0  0  0  0  0
   36.1970   29.5730   31.0290 C   0  0  0  0  0  3  0  0  0  0  0  0
   36.5940   28.8120   32.0900 C   0  0  0  0  0  0  0  0  0  0  0  0
   37.5710   27.8400   32.0280 C   0  0  0  0  0  3  0  0  0  0  0  0
   39.8320   24.2710   34.4260 C   0  0  0  0  0  0  0  0  0  0  0  0
   40.8510   23.9800   34.1640 H   0  0  0  0  0  0  0  0  0  0  0  0
   39.1570   23.7250   33.7330 H   0  0  0  0  0  0  0  0  0  0  0  0
   39.4840   23.9090   35.8000 C   0  0  0  0  0  0  0  0  0  0  0  0
   38.2990   24.4100   36.3110 C   0  0  0  0  0  0  0  0  0  0  0  0
   37.8740   24.1180   37.6060 C   0  0  0  0  0  0  0  0  0  0  0  0
   38.6880   23.3160   38.3370 N   0  0  0  0  0  0  0  0  0  0  0  0
   39.8330   22.8280   37.8560 C   0  0  0  0  0  0  0  0  0  0  0  0
   40.2170   23.1270   36.6000 N   0  0  0  0  0  0  0  0  0  0  0  0
   37.6670   25.0450   35.7160 H   0  0  0  0  0  0  0  0  0  0  0  0
   36.9360   24.5390   37.9550 H   0  0  0  0  0  0  0  0  0  0  0  0
   40.4690   22.1900   38.4550 H   0  0  0  0  0  0  0  0  0  0  0  0
  1 28  1  0  0  0  0
  1  2  1  0  0  0  0
  2  8  1  0  0  0  0
  2  7  1  0  0  0  0
  3 10  1  0  0  0  0
  3  2  1  0  0  0  0
  4 11  1  0  0  0  0
  4  3  1  0  0  0  0
  5  4  1  0  0  0  0
  5  6  1  0  0  0  0
  6 15  1  6  0  0  0
  6 16  1  0  0  0  0
  6  1  1  0  0  0  0
  9  3  1  0  0  0  0
 12  4  1  0  0  0  0
 13  5  1  0  0  0  0
 14  5  1  0  0  0  0
 16 17  1  0  0  0  0
 17 19  2  0  0  0  0
 17 18  1  0  0  0  0
 20 21  1  0  0  0  0
 20 19  1  0  0  0  0
 22 23  1  0  0  0  0
 22 21  2  0  0  0  0
 24 22  1  0  0  0  0
 25 24  2  0  0  0  0
 25 26  1  0  0  0  0
 26 20  2  0  0  0  0
 27 26  1  0  0  0  0
 27 16  2  0  0  0  0
 28 31  1  0  0  0  0
 29 28  1  0  0  0  0
 30 28  1  0  0  0  0
 31 32  2  0  0  0  0
 31 36  1  0  0  0  0
 32 33  1  0  0  0  0
 33 38  1  0  0  0  0
 33 34  2  0  0  0  0
 35 34  1  0  0  0  0
 35 39  1  0  0  0  0
 36 35  2  0  0  0  0
 37 32  1  0  0  0  0
M  END
>  <minimizedAffinity>
-5.70873928

$$$$

 OpenBabel03262523523D

 39 42  0  0  1  0  0  0  0  0999 V2000
   39.0300   25.6410   34.1250 N   0  0  0  0  0  0  0  0  0  0  0  0
   40.1020   26.3030   34.8150 C   0  0  0  0  0  0  0  0  0  0  0  0
   40.9090   27.1450   33.9060 C   0  0  0  0  0  0  0  0  0  0  0  0
   41.2630   26.3310   32.7000 C   0  0  0  0  0  0  0  0  0  0  0  0
   40.0500   26.0430   31.9030 C   0  0  0  0  0  0  0  0  0  0  0  0
   38.8380   26.0400   32.7900 C   0  0  2  0  0  0  0  0  0  0  0  0
   39.6840   26.9630   35.6110 H   0  0  0  0  0  0  0  0  0  0  0  0
   40.7430   25.5510   35.3290 H   0  0  0  0  0  0  0  0  0  0  0  0
   40.5640   28.1660   33.7210 H   0  0  0  0  0  0  0  0  0  0  0  0
   41.9010   27.2960   34.4390 H   0  0  0  0  0  0  0  0  0  0  0  0
   41.6770   25.3660   33.1030 H   0  0  0  0  0  0  0  0  0  0  0  0
   42.1040   26.7590   32.1180 H   0  0  0  0  0  0  0  0  0  0  0  0
   40.2390   25.0170   31.4470 H   0  0  0  0  0  0  0  0  0  0  0  0
   39.9960   26.6850   31.0310 H   0  0  0  0  0  0  0  0  0  0  0  0
   38.2260   25.1690   32.3690 H   0  0  0  0  0  0  0  0  0  0  0  0
   37.9380   27.1790   32.6070 C   0  0  0  0  0  0  0  0  0  0  0  0
   37.8570   27.9360   31.4610 C   0  0  0  0  0  0  0  0  0  0  0  0
   38.4900   27.7360   30.6130 H   0  0  0  0  0  0  0  0  0  0  0  0
   37.0090   29.0050   31.2610 C   0  0  0  0  0  3  0  0  0  0  0  0
   36.1500   29.3820   32.2700 C   0  0  0  0  0  0  0  0  0  0  0  0
   35.3200   30.4200   32.0840 N   0  0  0  0  0  0  0  0  0  0  0  0
   34.4740   30.8040   33.0570 C   0  0  0  0  0  0  0  0  0  0  0  0
   33.8590   31.6630   32.7670 H   0  0  0  0  0  0  0  0  0  0  0  0
   34.4500   30.1330   34.2570 C   0  0  0  0  0  3  0  0  0  0  0  0
   35.3060   29.0730   34.4290 C   0  0  0  0  0  3  0  0  0  0  0  0
   36.1700   28.6730   33.4510 C   0  0  0  0  0  0  0  0  0  0  0  0
   37.0480   27.6160   33.5730 C   0  0  0  0  0  3  0  0  0  0  0  0
   38.9280   24.2510   34.4300 C   0  0  0  0  0  0  0  0  0  0  0  0
   39.7650   23.7240   33.9650 H   0  0  0  0  0  0  0  0  0  0  0  0
   38.0050   23.8750   33.9400 H   0  0  0  0  0  0  0  0  0  0  0  0
   38.8340   23.9940   35.8660 C   0  0  0  0  0  0  0  0  0  0  0  0
   39.7870   23.1630   36.4300 C   0  0  0  0  0  0  0  0  0  0  0  0
   39.7880   22.8610   37.7910 C   0  0  0  0  0  0  0  0  0  0  0  0
   38.8010   23.4270   38.5310 N   0  0  0  0  0  0  0  0  0  0  0  0
   37.8760   24.2280   37.9980 C   0  0  0  0  0  0  0  0  0  0  0  0
   37.9010   24.5020   36.6800 N   0  0  0  0  0  0  0  0  0  0  0  0
   40.5610   22.7240   35.8270 H   0  0  0  0  0  0  0  0  0  0  0  0
   40.5590   22.2030   38.1790 H   0  0  0  0  0  0  0  0  0  0  0  0
   37.0970   24.6690   38.6050 H   0  0  0  0  0  0  0  0  0  0  0  0
  1 28  1  0  0  0  0
  1  2  1  0  0  0  0
  2  8  1  0  0  0  0
  2  7  1  0  0  0  0
  3 10  1  0  0  0  0
  3  2  1  0  0  0  0
  4 11  1  0  0  0  0
  4  3  1  0  0  0  0
  5  4  1  0  0  0  0
  5  6  1  0  0  0  0
  6 15  1  6  0  0  0
  6  1  1  0  0  0  0
  9  3  1  0  0  0  0
 12  4  1  0  0  0  0
 13  5  1  0  0  0  0
 14  5  1  0  0  0  0
 16  6  1  0  0  0  0
 16 27  1  0  0  0  0
 17 16  2  0  0  0  0
 18 17  1  0  0  0  0
 19 17  1  0  0  0  0
 19 20  2  0  0  0  0
 20 26  1  0  0  0  0
 21 20  1  0  0  0  0
 21 22  2  0  0  0  0
 22 24  1  0  0  0  0
 23 22  1  0  0  0  0
 24 25  2  0  0  0  0
 26 27  2  0  0  0  0
 26 25  1  0  0  0  0
 28 31  1  0  0  0  0
 29 28  1  0  0  0  0
 30 28  1  0  0  0  0
 31 32  2  0  0  0  0
 31 36  1  0  0  0  0
 32 33  1  0  0  0  0
 33 38  1  0  0  0  0
 33 34  2  0  0  0  0
 35 34  1  0  0  0  0
 35 39  1  0  0  0  0
 36 35  2  0  0  0  0
 37 32  1  0  0  0  0
M  END
>  <minimizedAffinity>
-5.67651415

$$$$

 OpenBabel03262523523D

 39 42  0  0  1  0  0  0  0  0999 V2000
   38.2270   25.3860   33.7360 N   0  0  0  0  0  0  0  0  0  0  0  0
   38.1500   25.5430   35.1620 C   0  0  0  0  0  0  0  0  0  0  0  0
   38.8030   26.7890   35.6180 C   0  0  0  0  0  0  0  0  0  0  0  0
   40.1590   26.8680   34.9880 C   0  0  0  0  0  0  0  0  0  0  0  0
   40.0320   27.0690   33.5270 C   0  0  0  0  0  0  0  0  0  0  0  0
   38.7340   26.4950   33.0370 C   0  0  2  0  0  0  0  0  0  0  0  0
   37.0800   25.5820   35.4780 H   0  0  0  0  0  0  0  0  0  0  0  0
   38.5980   24.6560   35.6650 H   0  0  0  0  0  0  0  0  0  0  0  0
   38.2070   27.7060   35.6100 H   0  0  0  0  0  0  0  0  0  0  0  0
   39.0200   26.6270   36.7210 H   0  0  0  0  0  0  0  0  0  0  0  0
   40.6370   25.8680   35.1820 H   0  0  0  0  0  0  0  0  0  0  0  0
   40.8320   27.5880   35.4950 H   0  0  0  0  0  0  0  0  0  0  0  0
   40.9280   26.5260   33.0820 H   0  0  0  0  0  0  0  0  0  0  0  0
   40.2230   28.1030   33.2600 H   0  0  0  0  0  0  0  0  0  0  0  0
   39.0340   26.0270   32.0360 H   0  0  0  0  0  0  0  0  0  0  0  0
   37.7350   27.4860   32.6380 C   0  0  0  0  0  0  0  0  0  0  0  0
   37.6420   28.0430   31.3830 C   0  0  0  0  0  0  0  0  0  0  0  0
   38.3400   27.7840   30.6040 H   0  0  0  0  0  0  0  0  0  0  0  0
   36.7020   28.9670   30.9800 C   0  0  0  0  0  3  0  0  0  0  0  0
   35.7520   29.3990   31.8790 C   0  0  0  0  0  0  0  0  0  0  0  0
   34.8320   30.2980   31.4960 N   0  0  0  0  0  0  0  0  0  0  0  0
   33.8970   30.7320   32.3600 C   0  0  0  0  0  0  0  0  0  0  0  0
   33.2150   31.4620   31.9110 H   0  0  0  0  0  0  0  0  0  0  0  0
   33.8730   30.2570   33.6500 C   0  0  0  0  0  3  0  0  0  0  0  0
   34.8210   29.3370   34.0240 C   0  0  0  0  0  3  0  0  0  0  0  0
   35.7770   28.8880   33.1590 C   0  0  0  0  0  0  0  0  0  0  0  0
   36.7500   27.9670   33.4840 C   0  0  0  0  0  3  0  0  0  0  0  0
   38.6510   24.0860   33.3280 C   0  0  0  0  0  0  0  0  0  0  0  0
   39.2880   23.6600   34.1060 H   0  0  0  0  0  0  0  0  0  0  0  0
   39.2900   24.2180   32.4290 H   0  0  0  0  0  0  0  0  0  0  0  0
   37.5310   23.2110   32.9820 C   0  0  0  0  0  0  0  0  0  0  0  0
   36.6970   23.6180   31.9550 C   0  0  0  0  0  0  0  0  0  0  0  0
   35.6070   22.8530   31.5440 C   0  0  0  0  0  0  0  0  0  0  0  0
   35.4100   21.6860   32.2090 N   0  0  0  0  0  0  0  0  0  0  0  0
   36.2060   21.2840   33.2010 C   0  0  0  0  0  0  0  0  0  0  0  0
   37.2530   22.0450   33.5750 N   0  0  0  0  0  0  0  0  0  0  0  0
   36.8700   24.5460   31.4400 H   0  0  0  0  0  0  0  0  0  0  0  0
   34.9860   23.2210   30.7330 H   0  0  0  0  0  0  0  0  0  0  0  0
   36.0320   20.3510   33.7190 H   0  0  0  0  0  0  0  0  0  0  0  0
  1  2  1  0  0  0  0
  2  7  1  0  0  0  0
  2  3  1  0  0  0  0
  2  8  1  0  0  0  0
  3 10  1  0  0  0  0
  4 11  1  0  0  0  0
  4 12  1  0  0  0  0
  4  3  1  0  0  0  0
  5  4  1  0  0  0  0
  6 15  1  6  0  0  0
  6  5  1  0  0  0  0
  6  1  1  0  0  0  0
  9  3  1  0  0  0  0
 13  5  1  0  0  0  0
 14  5  1  0  0  0  0
 16  6  1  0  0  0  0
 16 27  1  0  0  0  0
 17 16  2  0  0  0  0
 18 17  1  0  0  0  0
 19 17  1  0  0  0  0
 19 20  2  0  0  0  0
 20 26  1  0  0  0  0
 21 20  1  0  0  0  0
 21 22  2  0  0  0  0
 22 24  1  0  0  0  0
 23 22  1  0  0  0  0
 24 25  2  0  0  0  0
 26 27  2  0  0  0  0
 26 25  1  0  0  0  0
 28  1  1  0  0  0  0
 28 29  1  0  0  0  0
 30 28  1  0  0  0  0
 31 28  1  0  0  0  0
 31 36  1  0  0  0  0
 32 31  2  0  0  0  0
 33 32  1  0  0  0  0
 33 34  2  0  0  0  0
 34 35  1  0  0  0  0
 35 36  2  0  0  0  0
 35 39  1  0  0  0  0
 37 32  1  0  0  0  0
 38 33  1  0  0  0  0
M  END
>  <minimizedAffinity>
-5.65943718

$$$$

 OpenBabel03262523523D

 39 42  0  0  1  0  0  0  0  0999 V2000
   38.7100   25.1450   33.9440 N   0  0  0  0  0  0  0  0  0  0  0  0
   39.6290   26.2330   33.7540 C   0  0  0  0  0  0  0  0  0  0  0  0
   39.9740   26.8950   35.0310 C   0  0  0  0  0  0  0  0  0  0  0  0
   38.7050   27.1860   35.7700 C   0  0  0  0  0  0  0  0  0  0  0  0
   38.0680   25.9230   36.2070 C   0  0  0  0  0  0  0  0  0  0  0  0
   38.4540   24.8030   35.2840 C   0  0  2  0  0  0  0  0  0  0  0  0
   40.5740   25.8520   33.3000 H   0  0  0  0  0  0  0  0  0  0  0  0
   39.2020   26.9670   33.0320 H   0  0  0  0  0  0  0  0  0  0  0  0
   40.7940   26.4700   35.6170 H   0  0  0  0  0  0  0  0  0  0  0  0
   40.3650   27.9220   34.7390 H   0  0  0  0  0  0  0  0  0  0  0  0
   38.0350   27.6960   35.0240 H   0  0  0  0  0  0  0  0  0  0  0  0
   38.8320   27.9380   36.5730 H   0  0  0  0  0  0  0  0  0  0  0  0
   36.9500   26.1340   36.1690 H   0  0  0  0  0  0  0  0  0  0  0  0
   38.2420   25.7460   37.2630 H   0  0  0  0  0  0  0  0  0  0  0  0
   37.4780   24.2110   35.1940 H   0  0  0  0  0  0  0  0  0  0  0  0
   39.3720   23.8190   35.8590 C   0  0  0  0  0  0  0  0  0  0  0  0
   39.4100   23.4670   37.1880 C   0  0  0  0  0  0  0  0  0  0  0  0
   38.7540   23.9290   37.9080 H   0  0  0  0  0  0  0  0  0  0  0  0
   40.2560   22.5350   37.7500 C   0  0  0  0  0  3  0  0  0  0  0  0
   41.1580   21.8720   36.9460 C   0  0  0  0  0  0  0  0  0  0  0  0
   41.9850   20.9630   37.4840 N   0  0  0  0  0  0  0  0  0  0  0  0
   42.8730   20.3060   36.7170 C   0  0  0  0  0  0  0  0  0  0  0  0
   43.4810   19.5960   37.2880 H   0  0  0  0  0  0  0  0  0  0  0  0
   42.9430   20.5610   35.3670 C   0  0  0  0  0  3  0  0  0  0  0  0
   42.0880   21.4940   34.8350 C   0  0  0  0  0  3  0  0  0  0  0  0
   41.1830   22.1690   35.6020 C   0  0  0  0  0  0  0  0  0  0  0  0
   40.3040   23.1150   35.1170 C   0  0  0  0  0  3  0  0  0  0  0  0
   37.6100   25.1620   33.0350 C   0  0  0  0  0  0  0  0  0  0  0  0
   36.6960   24.9190   33.5800 H   0  0  0  0  0  0  0  0  0  0  0  0
   37.7750   24.3390   32.3070 H   0  0  0  0  0  0  0  0  0  0  0  0
   37.5060   26.4220   32.3000 C   0  0  0  0  0  0  0  0  0  0  0  0
   36.6890   27.4050   32.8320 C   0  0  0  0  0  0  0  0  0  0  0  0
   36.5270   28.6430   32.2120 C   0  0  0  0  0  0  0  0  0  0  0  0
   37.2140   28.8290   31.0570 N   0  0  0  0  0  0  0  0  0  0  0  0
   38.0040   27.8880   30.5340 C   0  0  0  0  0  0  0  0  0  0  0  0
   38.1410   26.7020   31.1570 N   0  0  0  0  0  0  0  0  0  0  0  0
   36.1510   27.2390   33.7480 H   0  0  0  0  0  0  0  0  0  0  0  0
   35.8730   29.3770   32.6730 H   0  0  0  0  0  0  0  0  0  0  0  0
   38.5430   28.0560   29.6120 H   0  0  0  0  0  0  0  0  0  0  0  0
  1  6  1  0  0  0  0
  2  1  1  0  0  0  0
  2  3  1  0  0  0  0
  3  9  1  0  0  0  0
  3  4  1  0  0  0  0
  4  5  1  0  0  0  0
  4 12  1  0  0  0  0
  5 14  1  0  0  0  0
  6 15  1  6  0  0  0
  6 16  1  0  0  0  0
  6  5  1  0  0  0  0
  7  2  1  0  0  0  0
  8  2  1  0  0  0  0
 10  3  1  0  0  0  0
 11  4  1  0  0  0  0
 13  5  1  0  0  0  0
 16 17  1  0  0  0  0
 17 19  2  0  0  0  0
 17 18  1  0  0  0  0
 20 21  1  0  0  0  0
 20 19  1  0  0  0  0
 22 23  1  0  0  0  0
 22 21  2  0  0  0  0
 24 22  1  0  0  0  0
 25 24  2  0  0  0  0
 25 26  1  0  0  0  0
 26 20  2  0  0  0  0
 27 26  1  0  0  0  0
 27 16  2  0  0  0  0
 28 29  1  0  0  0  0
 28  1  1  0  0  0  0
 30 28  1  0  0  0  0
 31 32  1  0  0  0  0
 31 28  1  0  0  0  0
 32 37  1  0  0  0  0
 33 38  1  0  0  0  0
 33 32  2  0  0  0  0
 34 33  1  0  0  0  0
 35 34  2  0  0  0  0
 35 36  1  0  0  0  0
 36 31  2  0  0  0  0
 39 35  1  0  0  0  0
M  END
>  <minimizedAffinity>
-5.63004351

$$$$

 OpenBabel03262523523D

 39 42  0  0  1  0  0  0  0  0999 V2000
   38.3010   23.0500   35.9560 N   0  0  0  0  0  0  0  0  0  0  0  0
   37.5260   24.0270   36.6680 C   0  0  0  0  0  0  0  0  0  0  0  0
   38.2290   24.5240   37.8700 C   0  0  0  0  0  0  0  0  0  0  0  0
   38.7310   23.3440   38.6440 C   0  0  0  0  0  0  0  0  0  0  0  0
   39.8000   22.6550   37.8880 C   0  0  0  0  0  0  0  0  0  0  0  0
   39.6190   22.8800   36.4150 C   0  0  2  0  0  0  0  0  0  0  0  0
   37.3230   24.9010   36.0050 H   0  0  0  0  0  0  0  0  0  0  0  0
   36.5340   23.5980   36.9410 H   0  0  0  0  0  0  0  0  0  0  0  0
   38.9280   25.3550   37.7410 H   0  0  0  0  0  0  0  0  0  0  0  0
   37.4170   24.9640   38.5320 H   0  0  0  0  0  0  0  0  0  0  0  0
   37.8470   22.6550   38.7430 H   0  0  0  0  0  0  0  0  0  0  0  0
   38.9950   23.5920   39.6920 H   0  0  0  0  0  0  0  0  0  0  0  0
   39.6870   21.5560   38.1630 H   0  0  0  0  0  0  0  0  0  0  0  0
   40.7790   22.9010   38.2880 H   0  0  0  0  0  0  0  0  0  0  0  0
   39.8940   21.8600   35.9740 H   0  0  0  0  0  0  0  0  0  0  0  0
   40.6080   23.7670   35.8020 C   0  0  0  0  0  0  0  0  0  0  0  0
   41.9710   23.6330   35.9350 C   0  0  0  0  0  0  0  0  0  0  0  0
   42.3980   22.8490   36.5380 H   0  0  0  0  0  0  0  0  0  0  0  0
   42.9210   24.4470   35.3580 C   0  0  0  0  0  3  0  0  0  0  0  0
   42.5150   25.5010   34.5670 C   0  0  0  0  0  0  0  0  0  0  0  0
   43.4330   26.2990   34.0000 N   0  0  0  0  0  0  0  0  0  0  0  0
   43.0570   27.3330   33.2260 C   0  0  0  0  0  0  0  0  0  0  0  0
   43.9090   27.8970   32.8310 H   0  0  0  0  0  0  0  0  0  0  0  0
   41.7220   27.5840   33.0070 C   0  0  0  0  0  3  0  0  0  0  0  0
   40.7980   26.7560   33.5950 C   0  0  0  0  0  3  0  0  0  0  0  0
   41.1650   25.7040   34.3840 C   0  0  0  0  0  0  0  0  0  0  0  0
   40.2780   24.8440   34.9970 C   0  0  0  0  0  3  0  0  0  0  0  0
   37.5600   21.8840   35.6000 C   0  0  0  0  0  0  0  0  0  0  0  0
   36.6880   21.8040   36.2520 H   0  0  0  0  0  0  0  0  0  0  0  0
   38.2050   21.0060   35.8220 H   0  0  0  0  0  0  0  0  0  0  0  0
   37.2030   21.8540   34.1820 C   0  0  0  0  0  0  0  0  0  0  0  0
   36.1820   21.0010   33.7980 C   0  0  0  0  0  0  0  0  0  0  0  0
   35.7620   20.9040   32.4730 C   0  0  0  0  0  0  0  0  0  0  0  0
   36.4120   21.6930   31.5800 N   0  0  0  0  0  0  0  0  0  0  0  0
   37.3980   22.5180   31.9370 C   0  0  0  0  0  0  0  0  0  0  0  0
   37.7810   22.5910   33.2260 N   0  0  0  0  0  0  0  0  0  0  0  0
   35.6800   20.3830   34.5210 H   0  0  0  0  0  0  0  0  0  0  0  0
   34.9570   20.2180   32.2290 H   0  0  0  0  0  0  0  0  0  0  0  0
   37.9030   23.1390   31.2100 H   0  0  0  0  0  0  0  0  0  0  0  0
  1  6  1  0  0  0  0
  1  2  1  0  0  0  0
  2  8  1  0  0  0  0
  2  3  1  0  0  0  0
  3 10  1  0  0  0  0
  3  4  1  0  0  0  0
  4 11  1  0  0  0  0
  4 12  1  0  0  0  0
  5 13  1  0  0  0  0
  5 14  1  0  0  0  0
  5  4  1  0  0  0  0
  6 15  1  6  0  0  0
  6  5  1  0  0  0  0
  7  2  1  0  0  0  0
  9  3  1  0  0  0  0
 16 17  1  0  0  0  0
 16  6  1  0  0  0  0
 17 18  1  0  0  0  0
 19 17  2  0  0  0  0
 20 19  1  0  0  0  0
 21 20  2  0  0  0  0
 22 21  1  0  0  0  0
 23 22  1  0  0  0  0
 24 22  2  0  0  0  0
 24 25  1  0  0  0  0
 25 26  2  0  0  0  0
 26 20  1  0  0  0  0
 26 27  1  0  0  0  0
 27 16  2  0  0  0  0
 28 30  1  0  0  0  0
 28  1  1  0  0  0  0
 28 29  1  0  0  0  0
 31 28  1  0  0  0  0
 32 31  1  0  0  0  0
 32 37  1  0  0  0  0
 33 32  2  0  0  0  0
 34 35  2  0  0  0  0
 34 33  1  0  0  0  0
 35 36  1  0  0  0  0
 36 31  2  0  0  0  0
 38 33  1  0  0  0  0
 39 35  1  0  0  0  0
M  END
>  <minimizedAffinity>
-5.56575775

$$$$

 OpenBabel03262523523D

 39 42  0  0  1  0  0  0  0  0999 V2000
   38.6240   25.1510   33.7780 N   0  0  0  0  0  0  0  0  0  0  0  0
   39.5130   26.2720   33.6520 C   0  0  0  0  0  0  0  0  0  0  0  0
   39.7270   26.9580   34.9450 C   0  0  0  0  0  0  0  0  0  0  0  0
   38.3910   27.2040   35.5740 C   0  0  0  0  0  0  0  0  0  0  0  0
   37.7690   25.9210   35.9720 C   0  0  0  0  0  0  0  0  0  0  0  0
   38.2720   24.8100   35.0960 C   0  0  2  0  0  0  0  0  0  0  0  0
   40.5060   25.9240   33.2810 H   0  0  0  0  0  0  0  0  0  0  0  0
   39.1200   26.9830   32.8890 H   0  0  0  0  0  0  0  0  0  0  0  0
   40.5110   26.5700   35.6000 H   0  0  0  0  0  0  0  0  0  0  0  0
   40.1010   27.9960   34.6750 H   0  0  0  0  0  0  0  0  0  0  0  0
   37.7660   27.6820   34.7700 H   0  0  0  0  0  0  0  0  0  0  0  0
   38.4230   27.9680   36.3770 H   0  0  0  0  0  0  0  0  0  0  0  0
   36.6510   26.0880   35.8400 H   0  0  0  0  0  0  0  0  0  0  0  0
   37.8620   25.7600   37.0410 H   0  0  0  0  0  0  0  0  0  0  0  0
   37.3300   24.1790   34.9340 H   0  0  0  0  0  0  0  0  0  0  0  0
   39.1760   23.8670   35.7550 C   0  0  0  0  0  0  0  0  0  0  0  0
   39.1510   23.5660   37.0970 C   0  0  0  0  0  0  0  0  0  0  0  0
   38.4500   24.0410   37.7640 H   0  0  0  0  0  0  0  0  0  0  0  0
   39.9830   22.6730   37.7380 C   0  0  0  0  0  3  0  0  0  0  0  0
   40.9390   22.0000   37.0080 C   0  0  0  0  0  0  0  0  0  0  0  0
   41.7530   21.1280   37.6230 N   0  0  0  0  0  0  0  0  0  0  0  0
   42.6930   20.4620   36.9290 C   0  0  0  0  0  0  0  0  0  0  0  0
   43.2830   19.7860   37.5570 H   0  0  0  0  0  0  0  0  0  0  0  0
   42.8290   20.6670   35.5750 C   0  0  0  0  0  3  0  0  0  0  0  0
   41.9860   21.5620   34.9640 C   0  0  0  0  0  3  0  0  0  0  0  0
   41.0290   22.2460   35.6560 C   0  0  0  0  0  0  0  0  0  0  0  0
   40.1590   23.1550   35.0900 C   0  0  0  0  0  3  0  0  0  0  0  0
   37.6030   25.1170   32.7820 C   0  0  0  0  0  0  0  0  0  0  0  0
   37.8120   25.8860   32.0340 H   0  0  0  0  0  0  0  0  0  0  0  0
   36.6520   25.4070   33.2780 H   0  0  0  0  0  0  0  0  0  0  0  0
   37.4370   23.7910   32.1890 C   0  0  0  0  0  0  0  0  0  0  0  0
   36.1550   23.4060   31.8350 C   0  0  0  0  0  0  0  0  0  0  0  0
   35.8910   22.1650   31.2580 C   0  0  0  0  0  0  0  0  0  0  0  0
   36.9630   21.3560   31.0630 N   0  0  0  0  0  0  0  0  0  0  0  0
   38.2030   21.7150   31.4010 C   0  0  0  0  0  0  0  0  0  0  0  0
   38.4260   22.9220   31.9570 N   0  0  0  0  0  0  0  0  0  0  0  0
   35.3180   24.0620   31.9990 H   0  0  0  0  0  0  0  0  0  0  0  0
   34.8660   21.9160   31.0010 H   0  0  0  0  0  0  0  0  0  0  0  0
   39.0440   21.0550   31.2380 H   0  0  0  0  0  0  0  0  0  0  0  0
  1  6  1  0  0  0  0
  2  1  1  0  0  0  0
  2  3  1  0  0  0  0
  3  4  1  0  0  0  0
  3  9  1  0  0  0  0
  4  5  1  0  0  0  0
  4 12  1  0  0  0  0
  5 14  1  0  0  0  0
  6 15  1  6  0  0  0
  6 16  1  0  0  0  0
  6  5  1  0  0  0  0
  7  2  1  0  0  0  0
  8  2  1  0  0  0  0
 10  3  1  0  0  0  0
 11  4  1  0  0  0  0
 13  5  1  0  0  0  0
 16 17  1  0  0  0  0
 17 19  2  0  0  0  0
 17 18  1  0  0  0  0
 20 21  1  0  0  0  0
 20 19  1  0  0  0  0
 22 23  1  0  0  0  0
 22 21  2  0  0  0  0
 24 22  1  0  0  0  0
 25 24  2  0  0  0  0
 25 26  1  0  0  0  0
 26 20  2  0  0  0  0
 27 26  1  0  0  0  0
 27 16  2  0  0  0  0
 28 30  1  0  0  0  0
 28  1  1  0  0  0  0
 29 28  1  0  0  0  0
 31 28  1  0  0  0  0
 32 37  1  0  0  0  0
 32 31  2  0  0  0  0
 33 32  1  0  0  0  0
 34 33  2  0  0  0  0
 34 35  1  0  0  0  0
 35 36  2  0  0  0  0
 36 31  1  0  0  0  0
 38 33  1  0  0  0  0
 39 35  1  0  0  0  0
M  END
>  <minimizedAffinity>
-5.56269503

$$$$

 OpenBabel03262523523D

 39 42  0  0  1  0  0  0  0  0999 V2000
   37.8350   22.8840   35.1100 N   0  0  0  0  0  0  0  0  0  0  0  0
   37.4730   22.6610   36.4820 C   0  0  0  0  0  0  0  0  0  0  0  0
   38.2890   23.4730   37.4090 C   0  0  0  0  0  0  0  0  0  0  0  0
   39.7300   23.3050   37.0400 C   0  0  0  0  0  0  0  0  0  0  0  0
   39.9960   23.9260   35.7240 C   0  0  0  0  0  0  0  0  0  0  0  0
   38.7460   23.9320   34.8920 C   0  0  2  0  0  0  0  0  0  0  0  0
   36.4030   22.9360   36.6370 H   0  0  0  0  0  0  0  0  0  0  0  0
   37.5610   21.5770   36.7250 H   0  0  0  0  0  0  0  0  0  0  0  0
   37.9550   24.4940   37.6170 H   0  0  0  0  0  0  0  0  0  0  0  0
   38.1990   22.9580   38.4170 H   0  0  0  0  0  0  0  0  0  0  0  0
   39.8900   22.1940   36.9620 H   0  0  0  0  0  0  0  0  0  0  0  0
   40.4240   23.6180   37.8450 H   0  0  0  0  0  0  0  0  0  0  0  0
   40.8090   23.2790   35.2570 H   0  0  0  0  0  0  0  0  0  0  0  0
   40.4920   24.8840   35.8400 H   0  0  0  0  0  0  0  0  0  0  0  0
   39.1440   23.6870   33.8470 H   0  0  0  0  0  0  0  0  0  0  0  0
   38.1400   25.2500   34.7010 C   0  0  0  0  0  0  0  0  0  0  0  0
   38.2110   26.2830   35.6070 C   0  0  0  0  0  0  0  0  0  0  0  0
   38.7190   26.1660   36.5500 H   0  0  0  0  0  0  0  0  0  0  0  0
   37.6590   27.5360   35.4440 C   0  0  0  0  0  3  0  0  0  0  0  0
   36.9690   27.8230   34.2860 C   0  0  0  0  0  0  0  0  0  0  0  0
   36.4290   29.0400   34.1180 N   0  0  0  0  0  0  0  0  0  0  0  0
   35.7500   29.3400   32.9970 C   0  0  0  0  0  0  0  0  0  0  0  0
   35.3660   30.3650   32.9960 H   0  0  0  0  0  0  0  0  0  0  0  0
   35.6020   28.3980   32.0050 C   0  0  0  0  0  3  0  0  0  0  0  0
   36.1620   27.1580   32.1950 C   0  0  0  0  0  3  0  0  0  0  0  0
   36.8520   26.8400   33.3290 C   0  0  0  0  0  0  0  0  0  0  0  0
   37.4330   25.6120   33.5680 C   0  0  0  0  0  3  0  0  0  0  0  0
   38.0080   21.6800   34.3630 C   0  0  0  0  0  0  0  0  0  0  0  0
   37.9500   20.8280   35.0440 H   0  0  0  0  0  0  0  0  0  0  0  0
   39.0430   21.6930   33.9580 H   0  0  0  0  0  0  0  0  0  0  0  0
   37.0700   21.5680   33.2470 C   0  0  0  0  0  0  0  0  0  0  0  0
   35.9570   20.7650   33.4260 C   0  0  0  0  0  0  0  0  0  0  0  0
   35.0000   20.5980   32.4270 C   0  0  0  0  0  0  0  0  0  0  0  0
   35.2220   21.2670   31.2670 N   0  0  0  0  0  0  0  0  0  0  0  0
   36.2910   22.0440   31.0820 C   0  0  0  0  0  0  0  0  0  0  0  0
   37.1990   22.1870   32.0680 N   0  0  0  0  0  0  0  0  0  0  0  0
   35.7990   20.2410   34.3530 H   0  0  0  0  0  0  0  0  0  0  0  0
   34.1480   19.9550   32.6220 H   0  0  0  0  0  0  0  0  0  0  0  0
   36.4510   22.5690   30.1510 H   0  0  0  0  0  0  0  0  0  0  0  0
  1  2  1  0  0  0  0
  2  7  1  0  0  0  0
  2  8  1  0  0  0  0
  2  3  1  0  0  0  0
  3  9  1  0  0  0  0
  3 10  1  0  0  0  0
  4  3  1  0  0  0  0
  4 12  1  0  0  0  0
  5 14  1  0  0  0  0
  5  4  1  0  0  0  0
  6 15  1  6  0  0  0
  6  1  1  0  0  0  0
  6  5  1  0  0  0  0
 11  4  1  0  0  0  0
 13  5  1  0  0  0  0
 16  6  1  0  0  0  0
 16 17  1  0  0  0  0
 17 18  1  0  0  0  0
 19 17  2  0  0  0  0
 20 19  1  0  0  0  0
 21 20  1  0  0  0  0
 22 21  2  0  0  0  0
 23 22  1  0  0  0  0
 24 25  2  0  0  0  0
 24 22  1  0  0  0  0
 25 26  1  0  0  0  0
 26 27  1  0  0  0  0
 26 20  2  0  0  0  0
 27 16  2  0  0  0  0
 28 29  1  0  0  0  0
 28  1  1  0  0  0  0
 30 28  1  0  0  0  0
 31 32  1  0  0  0  0
 31 28  1  0  0  0  0
 32 37  1  0  0  0  0
 33 38  1  0  0  0  0
 33 32  2  0  0  0  0
 34 33  1  0  0  0  0
 35 34  2  0  0  0  0
 35 36  1  0  0  0  0
 36 31  2  0  0  0  0
 39 35  1  0  0  0  0
M  END
>  <minimizedAffinity>
-5.50544548

$$$$

 OpenBabel03262523523D

 39 42  0  0  1  0  0  0  0  0999 V2000
   37.3170   25.7250   32.2490 N   0  0  0  0  0  0  0  0  0  0  0  0
   36.2430   24.8750   31.8170 C   0  0  0  0  0  0  0  0  0  0  0  0
   36.7230   23.5340   31.4210 C   0  0  0  0  0  0  0  0  0  0  0  0
   37.8840   23.7040   30.4910 C   0  0  0  0  0  0  0  0  0  0  0  0
   39.0400   24.2750   31.2180 C   0  0  0  0  0  0  0  0  0  0  0  0
   38.5650   25.0920   32.3840 C   0  0  2  0  0  0  0  0  0  0  0  0
   35.5100   24.7440   32.6480 H   0  0  0  0  0  0  0  0  0  0  0  0
   35.6900   25.3590   30.9800 H   0  0  0  0  0  0  0  0  0  0  0  0
   36.8340   22.7820   32.2080 H   0  0  0  0  0  0  0  0  0  0  0  0
   35.9030   23.1040   30.7620 H   0  0  0  0  0  0  0  0  0  0  0  0
   37.5380   24.4400   29.7140 H   0  0  0  0  0  0  0  0  0  0  0  0
   38.1130   22.7890   29.9090 H   0  0  0  0  0  0  0  0  0  0  0  0
   39.5790   24.9160   30.4460 H   0  0  0  0  0  0  0  0  0  0  0  0
   39.7730   23.5080   31.4440 H   0  0  0  0  0  0  0  0  0  0  0  0
   39.2840   25.9830   32.3700 H   0  0  0  0  0  0  0  0  0  0  0  0
   38.8200   24.4980   33.6970 C   0  0  0  0  0  0  0  0  0  0  0  0
   39.6950   23.4620   33.9310 C   0  0  0  0  0  0  0  0  0  0  0  0
   40.2440   23.0020   33.1260 H   0  0  0  0  0  0  0  0  0  0  0  0
   39.9610   22.8950   35.1590 C   0  0  0  0  0  3  0  0  0  0  0  0
   39.3180   23.3780   36.2780 C   0  0  0  0  0  0  0  0  0  0  0  0
   39.5710   22.8330   37.4780 N   0  0  0  0  0  0  0  0  0  0  0  0
   38.9540   23.2900   38.5820 C   0  0  0  0  0  0  0  0  0  0  0  0
   39.2560   22.7530   39.4870 H   0  0  0  0  0  0  0  0  0  0  0  0
   38.0530   24.3250   38.4920 C   0  0  0  0  0  3  0  0  0  0  0  0
   37.8070   24.8710   37.2560 C   0  0  0  0  0  3  0  0  0  0  0  0
   38.4260   24.4170   36.1270 C   0  0  0  0  0  0  0  0  0  0  0  0
   38.2140   24.9290   34.8650 C   0  0  0  0  0  3  0  0  0  0  0  0
   37.2850   27.0260   31.6650 C   0  0  0  0  0  0  0  0  0  0  0  0
   37.0200   26.9350   30.6090 H   0  0  0  0  0  0  0  0  0  0  0  0
   38.3210   27.4260   31.6990 H   0  0  0  0  0  0  0  0  0  0  0  0
   36.4050   27.9460   32.3840 C   0  0  0  0  0  0  0  0  0  0  0  0
   36.5880   28.0680   33.7500 C   0  0  0  0  0  0  0  0  0  0  0  0
   35.8060   28.9220   34.5260 C   0  0  0  0  0  0  0  0  0  0  0  0
   34.8540   29.6270   33.8640 N   0  0  0  0  0  0  0  0  0  0  0  0
   34.6670   29.5180   32.5470 C   0  0  0  0  0  0  0  0  0  0  0  0
   35.4400   28.6840   31.8240 N   0  0  0  0  0  0  0  0  0  0  0  0
   37.3480   27.4990   34.2570 H   0  0  0  0  0  0  0  0  0  0  0  0
   35.9930   28.9770   35.5930 H   0  0  0  0  0  0  0  0  0  0  0  0
   33.9030   30.0890   32.0380 H   0  0  0  0  0  0  0  0  0  0  0  0
  1  6  1  0  0  0  0
  2  1  1  0  0  0  0
  2  7  1  0  0  0  0
  3  2  1  0  0  0  0
  3  9  1  0  0  0  0
  4  5  1  0  0  0  0
  4  3  1  0  0  0  0
  5 14  1  0  0  0  0
  5  6  1  0  0  0  0
  6 15  1  6  0  0  0
  6 16  1  0  0  0  0
  8  2  1  0  0  0  0
 10  3  1  0  0  0  0
 11  4  1  0  0  0  0
 12  4  1  0  0  0  0
 13  5  1  0  0  0  0
 16 17  2  0  0  0  0
 16 27  1  0  0  0  0
 17 19  1  0  0  0  0
 18 17  1  0  0  0  0
 19 20  2  0  0  0  0
 20 21  1  0  0  0  0
 21 22  2  0  0  0  0
 22 23  1  0  0  0  0
 24 22  1  0  0  0  0
 25 24  2  0  0  0  0
 26 20  1  0  0  0  0
 26 25  1  0  0  0  0
 27 26  2  0  0  0  0
 28 30  1  0  0  0  0
 28  1  1  0  0  0  0
 28 31  1  0  0  0  0
 29 28  1  0  0  0  0
 31 32  1  0  0  0  0
 32 37  1  0  0  0  0
 32 33  2  0  0  0  0
 33 38  1  0  0  0  0
 34 33  1  0  0  0  0
 35 34  2  0  0  0  0
 36 31  2  0  0  0  0
 36 35  1  0  0  0  0
 39 35  1  0  0  0  0
M  END
>  <minimizedAffinity>
-5.50192451

$$$$
