
 OpenBabel03272507153D

 43 48  0  0  0  0  0  0  0  0999 V2000
   36.9610   27.7170   30.9700 C   0  0  0  0  0  0  0  0  0  0  0  0
   36.6300   28.4730   30.0190 O   0  0  0  0  0  0  0  0  0  0  0  0
   37.6090   26.4440   30.7830 C   0  0  0  0  0  0  0  0  0  0  0  0
   38.8960   26.4590   30.2500 C   0  0  0  0  0  0  0  0  0  0  0  0
   39.5520   25.2440   30.0560 C   0  0  0  0  0  0  0  0  0  0  0  0
   38.8840   24.1060   30.4040 N   0  0  0  0  0  0  0  0  0  0  0  0
   37.6540   24.1170   30.9130 C   0  0  0  0  0  0  0  0  0  0  0  0
   37.0220   25.2840   31.1000 N   0  0  0  0  0  0  0  0  0  0  0  0
   39.4540   27.3400   29.9620 H   0  0  0  0  0  0  0  0  0  0  0  0
   40.5540   25.2240   29.6420 H   0  0  0  0  0  0  0  0  0  0  0  0
   36.9760   22.8780   31.2730 C   0  0  0  0  0  0  0  0  0  0  0  0
   35.6650   22.8760   31.6790 C   0  0  0  0  0  0  0  0  0  0  0  0
   35.1640   23.8400   31.7170 H   0  0  0  0  0  0  0  0  0  0  0  0
   34.9500   21.7570   32.0370 C   0  0  0  0  0  3  0  0  0  0  0  0
   35.6100   20.5480   31.9810 C   0  0  0  0  0  0  0  0  0  0  0  0
   34.8930   19.4670   32.3350 N   0  0  0  0  0  0  0  0  0  0  0  0
   35.4490   18.2470   32.3120 C   0  0  0  0  0  0  0  0  0  0  0  0
   34.8590   17.3790   32.6000 H   0  0  0  0  0  0  0  0  0  0  0  0
   36.7740   18.1340   31.9160 C   0  0  0  0  0  3  0  0  0  0  0  0
   37.5170   19.2450   31.5500 C   0  0  0  0  0  3  0  0  0  0  0  0
   36.9470   20.5010   31.5730 C   0  0  0  0  0  0  0  0  0  0  0  0
   37.6250   21.6620   31.2220 C   0  0  0  0  0  3  0  0  0  0  0  0
   36.6770   28.1380   32.3270 C   0  0  0  0  0  0  0  0  0  0  0  0
   37.1550   27.4800   33.4060 C   0  0  0  0  0  0  0  0  0  0  0  0
   36.6950   28.1490   34.5470 C   0  0  0  0  0  0  0  0  0  0  0  0
   35.9360   29.2130   34.0680 C   0  0  0  0  0  0  0  0  0  0  0  0
   35.9700   29.1450   32.7630 O   0  0  0  0  0  0  0  0  0  0  0  0
   37.7850   26.5910   33.4310 H   0  0  0  0  0  0  0  0  0  0  0  0
   36.9360   27.8240   35.5520 H   0  0  0  0  0  0  0  0  0  0  0  0
   35.9380   31.1050   35.6900 C   0  0  0  0  0  0  0  0  0  0  0  0
   35.2650   30.1750   34.9440 C   0  0  0  0  0  0  0  0  0  0  0  0
   33.8820   30.0800   34.9680 C   0  0  0  0  0  0  0  0  0  0  0  0
   33.1940   30.9650   35.7790 C   0  0  0  0  0  0  0  0  0  0  0  0
   31.8750   31.1110   36.0050 N   0  0  0  0  0  0  0  0  0  0  0  0
   31.7280   32.1150   36.8770 N   0  0  0  0  0  0  0  0  0  0  0  0
   32.9520   32.5980   37.1980 C   0  0  0  0  0  0  0  0  0  0  0  0
   33.9090   31.8900   36.5170 C   0  0  0  0  0  0  0  0  0  0  0  0
   35.2820   31.9870   36.4960 C   0  0  0  0  0  0  0  0  0  0  0  0
   37.0280   31.1290   35.6270 H   0  0  0  0  0  0  0  0  0  0  0  0
   33.2740   29.3670   34.4030 H   0  0  0  0  0  0  0  0  0  0  0  0
   31.0930   30.5530   35.5860 H   0  0  0  0  0  0  0  0  0  0  0  0
   33.1690   33.4260   37.8900 H   0  0  0  0  0  0  0  0  0  0  0  0
   35.8390   32.7080   37.0700 H   0  0  0  0  0  0  0  0  0  0  0  0
  1 23  1  0  0  0  0
  2  1  2  0  0  0  0
  3  1  1  0  0  0  0
  3  8  1  0  0  0  0
  4  3  2  0  0  0  0
  5  4  1  0  0  0  0
  5  6  2  0  0  0  0
  6  7  1  0  0  0  0
  7  8  2  0  0  0  0
  7 11  1  0  0  0  0
  9  4  1  0  0  0  0
 10  5  1  0  0  0  0
 11 12  1  0  0  0  0
 12 13  1  0  0  0  0
 12 14  2  0  0  0  0
 15 14  1  0  0  0  0
 15 16  1  0  0  0  0
 17 16  2  0  0  0  0
 17 18  1  0  0  0  0
 19 17  1  0  0  0  0
 20 21  1  0  0  0  0
 20 19  2  0  0  0  0
 21 15  2  0  0  0  0
 22 11  2  0  0  0  0
 22 21  1  0  0  0  0
 23 27  1  0  0  0  0
 23 24  2  0  0  0  0
 24 28  1  0  0  0  0
 24 25  1  0  0  0  0
 25 29  1  0  0  0  0
 26 25  2  0  0  0  0
 26 31  1  0  0  0  0
 27 26  1  0  0  0  0
 30 38  1  0  0  0  0
 31 32  1  0  0  0  0
 31 30  2  0  0  0  0
 32 33  2  0  0  0  0
 33 34  1  0  0  0  0
 33 37  1  0  0  0  0
 34 35  1  0  0  0  0
 35 36  2  0  0  0  0
 36 42  1  0  0  0  0
 37 36  1  0  0  0  0
 38 37  2  0  0  0  0
 38 43  1  0  0  0  0
 39 30  1  0  0  0  0
 40 32  1  0  0  0  0
 41 34  1  0  0  0  0
M  END
>  <minimizedAffinity>
-7.38347721

$$$$

 OpenBabel03272507153D

 43 48  0  0  0  0  0  0  0  0999 V2000
   35.4300   25.6480   31.0530 C   0  0  0  0  0  0  0  0  0  0  0  0
   34.4680   25.2600   30.3400 O   0  0  0  0  0  0  0  0  0  0  0  0
   35.7290   27.0350   31.2960 C   0  0  0  0  0  0  0  0  0  0  0  0
   36.6420   27.6480   30.4410 C   0  0  0  0  0  0  0  0  0  0  0  0
   36.9540   28.9920   30.6490 C   0  0  0  0  0  0  0  0  0  0  0  0
   36.3380   29.6260   31.6880 N   0  0  0  0  0  0  0  0  0  0  0  0
   35.4670   29.0200   32.4920 C   0  0  0  0  0  0  0  0  0  0  0  0
   35.1670   27.7290   32.2940 N   0  0  0  0  0  0  0  0  0  0  0  0
   37.1500   27.1760   29.6100 H   0  0  0  0  0  0  0  0  0  0  0  0
   37.6620   29.4940   30.0000 H   0  0  0  0  0  0  0  0  0  0  0  0
   34.8300   29.7350   33.5910 C   0  0  0  0  0  0  0  0  0  0  0  0
   33.5230   29.4950   33.9330 C   0  0  0  0  0  0  0  0  0  0  0  0
   32.9940   28.7480   33.3460 H   0  0  0  0  0  0  0  0  0  0  0  0
   32.8450   30.1230   34.9520 C   0  0  0  0  0  3  0  0  0  0  0  0
   33.5400   31.0650   35.6780 C   0  0  0  0  0  0  0  0  0  0  0  0
   32.8580   31.6670   36.6690 N   0  0  0  0  0  0  0  0  0  0  0  0
   33.4500   32.5980   37.4310 C   0  0  0  0  0  0  0  0  0  0  0  0
   32.8890   33.0780   38.2310 H   0  0  0  0  0  0  0  0  0  0  0  0
   34.7740   32.9190   37.1700 C   0  0  0  0  0  3  0  0  0  0  0  0
   35.4800   32.3020   36.1510 C   0  0  0  0  0  3  0  0  0  0  0  0
   34.8740   31.3440   35.3650 C   0  0  0  0  0  0  0  0  0  0  0  0
   35.5140   30.6810   34.3250 C   0  0  0  0  0  3  0  0  0  0  0  0
   36.2890   24.6540   31.6650 C   0  0  0  0  0  0  0  0  0  0  0  0
   36.2480   23.3480   31.3200 C   0  0  0  0  0  0  0  0  0  0  0  0
   37.2000   22.6760   32.0970 C   0  0  0  0  0  0  0  0  0  0  0  0
   37.7810   23.6570   32.8960 C   0  0  0  0  0  0  0  0  0  0  0  0
   37.2010   24.7870   32.5900 O   0  0  0  0  0  0  0  0  0  0  0  0
   35.6100   22.8640   30.5820 H   0  0  0  0  0  0  0  0  0  0  0  0
   37.3710   21.6090   32.0170 H   0  0  0  0  0  0  0  0  0  0  0  0
   40.1680   23.3410   33.5390 C   0  0  0  0  0  0  0  0  0  0  0  0
   38.8390   23.3740   33.8680 C   0  0  0  0  0  0  0  0  0  0  0  0
   38.3990   23.1380   35.1610 C   0  0  0  0  0  0  0  0  0  0  0  0
   39.3560   22.8650   36.1220 C   0  0  0  0  0  0  0  0  0  0  0  0
   39.2350   22.6000   37.4360 N   0  0  0  0  0  0  0  0  0  0  0  0
   40.4670   22.4060   37.9200 N   0  0  0  0  0  0  0  0  0  0  0  0
   41.3600   22.5480   36.9110 C   0  0  0  0  0  0  0  0  0  0  0  0
   40.6880   22.8410   35.7520 C   0  0  0  0  0  0  0  0  0  0  0  0
   41.1290   23.0740   34.4700 C   0  0  0  0  0  0  0  0  0  0  0  0
   40.4500   23.5350   32.5030 H   0  0  0  0  0  0  0  0  0  0  0  0
   37.3590   23.1470   35.5010 H   0  0  0  0  0  0  0  0  0  0  0  0
   38.3500   22.5520   37.9960 H   0  0  0  0  0  0  0  0  0  0  0  0
   42.4530   22.4500   36.9860 H   0  0  0  0  0  0  0  0  0  0  0  0
   42.1660   23.0560   34.1810 H   0  0  0  0  0  0  0  0  0  0  0  0
  1  3  1  0  0  0  0
  1 23  1  0  0  0  0
  2  1  2  0  0  0  0
  3  8  1  0  0  0  0
  4  5  1  0  0  0  0
  4  3  2  0  0  0  0
  5  6  2  0  0  0  0
  6  7  1  0  0  0  0
  7 11  1  0  0  0  0
  8  7  2  0  0  0  0
  9  4  1  0  0  0  0
 10  5  1  0  0  0  0
 11 12  2  0  0  0  0
 11 22  1  0  0  0  0
 12 14  1  0  0  0  0
 13 12  1  0  0  0  0
 14 15  2  0  0  0  0
 15 16  1  0  0  0  0
 16 17  2  0  0  0  0
 17 18  1  0  0  0  0
 19 17  1  0  0  0  0
 20 19  2  0  0  0  0
 21 15  1  0  0  0  0
 21 20  1  0  0  0  0
 22 21  2  0  0  0  0
 23 27  1  0  0  0  0
 24 23  2  0  0  0  0
 24 25  1  0  0  0  0
 25 26  2  0  0  0  0
 26 31  1  0  0  0  0
 27 26  1  0  0  0  0
 28 24  1  0  0  0  0
 29 25  1  0  0  0  0
 30 31  2  0  0  0  0
 30 38  1  0  0  0  0
 31 32  1  0  0  0  0
 32 40  1  0  0  0  0
 32 33  2  0  0  0  0
 33 34  1  0  0  0  0
 34 35  1  0  0  0  0
 34 41  1  0  0  0  0
 36 42  1  0  0  0  0
 36 35  2  0  0  0  0
 37 33  1  0  0  0  0
 37 36  1  0  0  0  0
 38 37  2  0  0  0  0
 39 30  1  0  0  0  0
 43 38  1  0  0  0  0
M  END
>  <minimizedAffinity>
-7.32720137

$$$$

 OpenBabel03272507153D

 43 48  0  0  0  0  0  0  0  0999 V2000
   37.1010   27.9980   30.8300 C   0  0  0  0  0  0  0  0  0  0  0  0
   36.6960   28.7160   29.8780 O   0  0  0  0  0  0  0  0  0  0  0  0
   37.9830   26.8730   30.6550 C   0  0  0  0  0  0  0  0  0  0  0  0
   39.3140   27.1490   30.3520 C   0  0  0  0  0  0  0  0  0  0  0  0
   40.1940   26.0810   30.1760 C   0  0  0  0  0  0  0  0  0  0  0  0
   39.6890   24.8210   30.3140 N   0  0  0  0  0  0  0  0  0  0  0  0
   38.4120   24.5810   30.6050 C   0  0  0  0  0  0  0  0  0  0  0  0
   37.5650   25.6060   30.7740 N   0  0  0  0  0  0  0  0  0  0  0  0
   39.7470   28.1340   30.2350 H   0  0  0  0  0  0  0  0  0  0  0  0
   41.2360   26.2660   29.9400 H   0  0  0  0  0  0  0  0  0  0  0  0
   37.9140   23.2190   30.7440 C   0  0  0  0  0  0  0  0  0  0  0  0
   38.6150   22.1500   30.2460 C   0  0  0  0  0  0  0  0  0  0  0  0
   39.5550   22.3720   29.7470 H   0  0  0  0  0  0  0  0  0  0  0  0
   38.2200   20.8350   30.3330 C   0  0  0  0  0  3  0  0  0  0  0  0
   37.0240   20.5830   30.9710 C   0  0  0  0  0  0  0  0  0  0  0  0
   36.6560   19.2910   31.0440 N   0  0  0  0  0  0  0  0  0  0  0  0
   35.5090   18.9460   31.6460 C   0  0  0  0  0  0  0  0  0  0  0  0
   35.2210   17.8970   31.7000 H   0  0  0  0  0  0  0  0  0  0  0  0
   34.7200   19.9510   32.1860 C   0  0  0  0  0  3  0  0  0  0  0  0
   35.0950   21.2830   32.1130 C   0  0  0  0  0  3  0  0  0  0  0  0
   36.2740   21.6410   31.4940 C   0  0  0  0  0  0  0  0  0  0  0  0
   36.7190   22.9520   31.3800 C   0  0  0  0  0  3  0  0  0  0  0  0
   36.6630   28.3110   32.1750 C   0  0  0  0  0  0  0  0  0  0  0  0
   37.1430   27.6680   33.2630 C   0  0  0  0  0  0  0  0  0  0  0  0
   36.5120   28.2140   34.3880 C   0  0  0  0  0  0  0  0  0  0  0  0
   35.6560   29.1910   33.8910 C   0  0  0  0  0  0  0  0  0  0  0  0
   35.7950   29.1930   32.5920 O   0  0  0  0  0  0  0  0  0  0  0  0
   37.8830   26.8700   33.3040 H   0  0  0  0  0  0  0  0  0  0  0  0
   36.7190   27.8740   35.3960 H   0  0  0  0  0  0  0  0  0  0  0  0
   33.4560   29.7830   34.9030 C   0  0  0  0  0  0  0  0  0  0  0  0
   34.7970   30.0130   34.7470 C   0  0  0  0  0  0  0  0  0  0  0  0
   35.4420   31.0520   35.3990 C   0  0  0  0  0  0  0  0  0  0  0  0
   34.6790   31.8630   36.2210 C   0  0  0  0  0  0  0  0  0  0  0  0
   35.0180   32.9290   36.9690 N   0  0  0  0  0  0  0  0  0  0  0  0
   33.9090   33.3580   37.5810 N   0  0  0  0  0  0  0  0  0  0  0  0
   32.8740   32.5620   37.2180 C   0  0  0  0  0  0  0  0  0  0  0  0
   33.3280   31.5990   36.3530 C   0  0  0  0  0  0  0  0  0  0  0  0
   32.6840   30.5680   35.7080 C   0  0  0  0  0  0  0  0  0  0  0  0
   33.0070   28.9470   34.3620 H   0  0  0  0  0  0  0  0  0  0  0  0
   36.5050   31.2990   35.3260 H   0  0  0  0  0  0  0  0  0  0  0  0
   35.9690   33.3590   37.0680 H   0  0  0  0  0  0  0  0  0  0  0  0
   31.8290   32.6530   37.5510 H   0  0  0  0  0  0  0  0  0  0  0  0
   31.6330   30.3620   35.8110 H   0  0  0  0  0  0  0  0  0  0  0  0
  1 23  1  0  0  0  0
  2  1  2  0  0  0  0
  3  8  1  0  0  0  0
  3  1  1  0  0  0  0
  4  3  2  0  0  0  0
  5  6  2  0  0  0  0
  5  4  1  0  0  0  0
  6  7  1  0  0  0  0
  7 11  1  0  0  0  0
  7  8  2  0  0  0  0
  9  4  1  0  0  0  0
 10  5  1  0  0  0  0
 11 22  1  0  0  0  0
 12 14  1  0  0  0  0
 12 11  2  0  0  0  0
 13 12  1  0  0  0  0
 14 15  2  0  0  0  0
 15 16  1  0  0  0  0
 15 21  1  0  0  0  0
 16 17  2  0  0  0  0
 17 18  1  0  0  0  0
 17 19  1  0  0  0  0
 20 19  2  0  0  0  0
 21 20  1  0  0  0  0
 22 21  2  0  0  0  0
 23 27  1  0  0  0  0
 23 24  2  0  0  0  0
 24 28  1  0  0  0  0
 24 25  1  0  0  0  0
 25 29  1  0  0  0  0
 26 25  2  0  0  0  0
 26 31  1  0  0  0  0
 27 26  1  0  0  0  0
 30 38  1  0  0  0  0
 31 30  2  0  0  0  0
 31 32  1  0  0  0  0
 32 33  2  0  0  0  0
 33 37  1  0  0  0  0
 33 34  1  0  0  0  0
 34 41  1  0  0  0  0
 34 35  1  0  0  0  0
 36 42  1  0  0  0  0
 36 35  2  0  0  0  0
 37 36  1  0  0  0  0
 38 43  1  0  0  0  0
 38 37  2  0  0  0  0
 39 30  1  0  0  0  0
 40 32  1  0  0  0  0
M  END
>  <minimizedAffinity>
-7.11618185

$$$$

 OpenBabel03272507153D

 43 48  0  0  0  0  0  0  0  0999 V2000
   38.1800   27.1290   30.4600 C   0  0  0  0  0  0  0  0  0  0  0  0
   39.0080   26.9170   29.5350 O   0  0  0  0  0  0  0  0  0  0  0  0
   37.4680   28.3710   30.6180 C   0  0  0  0  0  0  0  0  0  0  0  0
   37.5930   29.3100   29.5970 C   0  0  0  0  0  0  0  0  0  0  0  0
   36.9170   30.5230   29.7190 C   0  0  0  0  0  0  0  0  0  0  0  0
   36.1680   30.7150   30.8430 N   0  0  0  0  0  0  0  0  0  0  0  0
   36.0630   29.8020   31.8070 C   0  0  0  0  0  0  0  0  0  0  0  0
   36.7120   28.6360   31.6910 N   0  0  0  0  0  0  0  0  0  0  0  0
   38.1780   29.1920   28.6940 H   0  0  0  0  0  0  0  0  0  0  0  0
   36.9960   31.2730   28.9400 H   0  0  0  0  0  0  0  0  0  0  0  0
   35.2500   30.0470   32.9920 C   0  0  0  0  0  0  0  0  0  0  0  0
   34.0510   29.4070   33.1770 C   0  0  0  0  0  0  0  0  0  0  0  0
   33.7420   28.7130   32.3980 H   0  0  0  0  0  0  0  0  0  0  0  0
   33.2230   29.5780   34.2610 C   0  0  0  0  0  3  0  0  0  0  0  0
   33.6390   30.4630   35.2330 C   0  0  0  0  0  0  0  0  0  0  0  0
   32.8140   30.6160   36.2840 N   0  0  0  0  0  0  0  0  0  0  0  0
   33.1330   31.4550   37.2800 C   0  0  0  0  0  0  0  0  0  0  0  0
   32.4590   31.5700   38.1270 H   0  0  0  0  0  0  0  0  0  0  0  0
   34.3270   32.1560   37.1940 C   0  0  0  0  0  3  0  0  0  0  0  0
   35.1800   32.0020   36.1130 C   0  0  0  0  0  3  0  0  0  0  0  0
   34.8540   31.1390   35.0870 C   0  0  0  0  0  0  0  0  0  0  0  0
   35.6540   30.9310   33.9710 C   0  0  0  0  0  3  0  0  0  0  0  0
   37.9250   26.0760   31.4220 C   0  0  0  0  0  0  0  0  0  0  0  0
   37.0500   25.0740   31.1850 C   0  0  0  0  0  0  0  0  0  0  0  0
   37.0480   24.2400   32.3110 C   0  0  0  0  0  0  0  0  0  0  0  0
   37.9580   24.8130   33.1940 C   0  0  0  0  0  0  0  0  0  0  0  0
   38.4320   25.8820   32.6090 O   0  0  0  0  0  0  0  0  0  0  0  0
   36.4390   24.9060   30.2990 H   0  0  0  0  0  0  0  0  0  0  0  0
   36.4270   23.3550   32.3810 H   0  0  0  0  0  0  0  0  0  0  0  0
   38.8550   23.0270   34.6820 C   0  0  0  0  0  0  0  0  0  0  0  0
   38.2600   24.2480   34.5100 C   0  0  0  0  0  0  0  0  0  0  0  0
   37.8980   25.0440   35.5860 C   0  0  0  0  0  0  0  0  0  0  0  0
   38.1590   24.5590   36.8560 C   0  0  0  0  0  0  0  0  0  0  0  0
   37.9260   25.0940   38.0690 N   0  0  0  0  0  0  0  0  0  0  0  0
   38.3670   24.2220   38.9820 N   0  0  0  0  0  0  0  0  0  0  0  0
   38.8770   23.1420   38.3440 C   0  0  0  0  0  0  0  0  0  0  0  0
   38.7610   23.3220   36.9890 C   0  0  0  0  0  0  0  0  0  0  0  0
   39.1220   22.5300   35.9240 C   0  0  0  0  0  0  0  0  0  0  0  0
   39.1160   22.4490   33.7940 H   0  0  0  0  0  0  0  0  0  0  0  0
   37.4210   26.0270   35.5310 H   0  0  0  0  0  0  0  0  0  0  0  0
   37.4820   26.0200   38.2800 H   0  0  0  0  0  0  0  0  0  0  0  0
   39.3190   22.2510   38.8150 H   0  0  0  0  0  0  0  0  0  0  0  0
   39.5920   21.5660   36.0270 H   0  0  0  0  0  0  0  0  0  0  0  0
  1  3  1  0  0  0  0
  1 23  1  0  0  0  0
  2  1  2  0  0  0  0
  3  8  1  0  0  0  0
  4  5  1  0  0  0  0
  4  3  2  0  0  0  0
  5  6  2  0  0  0  0
  6  7  1  0  0  0  0
  7 11  1  0  0  0  0
  8  7  2  0  0  0  0
  9  4  1  0  0  0  0
 10  5  1  0  0  0  0
 11 12  2  0  0  0  0
 11 22  1  0  0  0  0
 12 14  1  0  0  0  0
 13 12  1  0  0  0  0
 14 15  2  0  0  0  0
 15 16  1  0  0  0  0
 16 17  2  0  0  0  0
 17 18  1  0  0  0  0
 19 17  1  0  0  0  0
 20 19  2  0  0  0  0
 21 15  1  0  0  0  0
 21 20  1  0  0  0  0
 22 21  2  0  0  0  0
 23 27  1  0  0  0  0
 24 23  2  0  0  0  0
 24 25  1  0  0  0  0
 25 29  1  0  0  0  0
 25 26  2  0  0  0  0
 26 31  1  0  0  0  0
 27 26  1  0  0  0  0
 28 24  1  0  0  0  0
 30 38  1  0  0  0  0
 31 30  2  0  0  0  0
 31 32  1  0  0  0  0
 32 33  2  0  0  0  0
 33 37  1  0  0  0  0
 33 34  1  0  0  0  0
 34 41  1  0  0  0  0
 34 35  1  0  0  0  0
 36 42  1  0  0  0  0
 36 35  2  0  0  0  0
 37 36  1  0  0  0  0
 38 43  1  0  0  0  0
 38 37  2  0  0  0  0
 39 30  1  0  0  0  0
 40 32  1  0  0  0  0
M  END
>  <minimizedAffinity>
-7.06333303

$$$$

 OpenBabel03272507153D

 43 48  0  0  0  0  0  0  0  0999 V2000
   37.3320   27.7000   30.7970 C   0  0  0  0  0  0  0  0  0  0  0  0
   38.1040   27.9200   29.8270 O   0  0  0  0  0  0  0  0  0  0  0  0
   37.0190   26.3800   31.2800 C   0  0  0  0  0  0  0  0  0  0  0  0
   35.8540   25.7870   30.8010 C   0  0  0  0  0  0  0  0  0  0  0  0
   35.5220   24.5090   31.2490 C   0  0  0  0  0  0  0  0  0  0  0  0
   36.3700   23.9140   32.1370 N   0  0  0  0  0  0  0  0  0  0  0  0
   37.4790   24.5000   32.5810 C   0  0  0  0  0  0  0  0  0  0  0  0
   37.8000   25.7290   32.1520 N   0  0  0  0  0  0  0  0  0  0  0  0
   35.1590   26.2290   30.0980 H   0  0  0  0  0  0  0  0  0  0  0  0
   34.6200   24.0230   30.8930 H   0  0  0  0  0  0  0  0  0  0  0  0
   38.3590   23.8290   33.5300 C   0  0  0  0  0  0  0  0  0  0  0  0
   39.3580   22.9910   33.1030 C   0  0  0  0  0  0  0  0  0  0  0  0
   39.4580   22.8570   32.0290 H   0  0  0  0  0  0  0  0  0  0  0  0
   40.2310   22.3180   33.9270 C   0  0  0  0  0  3  0  0  0  0  0  0
   40.0820   22.5070   35.2840 C   0  0  0  0  0  0  0  0  0  0  0  0
   40.9450   21.8410   36.0710 N   0  0  0  0  0  0  0  0  0  0  0  0
   40.8780   21.9600   37.4040 C   0  0  0  0  0  0  0  0  0  0  0  0
   41.5830   21.4170   38.0320 H   0  0  0  0  0  0  0  0  0  0  0  0
   39.9020   22.7850   37.9440 C   0  0  0  0  0  3  0  0  0  0  0  0
   39.0110   23.4730   37.1380 C   0  0  0  0  0  3  0  0  0  0  0  0
   39.0770   23.3520   35.7650 C   0  0  0  0  0  0  0  0  0  0  0  0
   38.2200   24.0080   34.8900 C   0  0  0  0  0  3  0  0  0  0  0  0
   36.7200   28.8280   31.4700 C   0  0  0  0  0  0  0  0  0  0  0  0
   36.5090   30.0130   30.8540 C   0  0  0  0  0  0  0  0  0  0  0  0
   35.9060   30.8700   31.7840 C   0  0  0  0  0  0  0  0  0  0  0  0
   35.7850   30.1210   32.9500 C   0  0  0  0  0  0  0  0  0  0  0  0
   36.2800   28.9390   32.6940 O   0  0  0  0  0  0  0  0  0  0  0  0
   36.7470   30.2930   29.8290 H   0  0  0  0  0  0  0  0  0  0  0  0
   35.6300   31.8900   31.5440 H   0  0  0  0  0  0  0  0  0  0  0  0
   35.8910   31.4310   35.0680 C   0  0  0  0  0  0  0  0  0  0  0  0
   35.1980   30.6490   34.1830 C   0  0  0  0  0  0  0  0  0  0  0  0
   33.8730   30.3000   34.3970 C   0  0  0  0  0  0  0  0  0  0  0  0
   33.2660   30.7710   35.5480 C   0  0  0  0  0  0  0  0  0  0  0  0
   32.0160   30.6020   36.0180 N   0  0  0  0  0  0  0  0  0  0  0  0
   31.9310   31.2660   37.1760 N   0  0  0  0  0  0  0  0  0  0  0  0
   33.1250   31.8520   37.4320 C   0  0  0  0  0  0  0  0  0  0  0  0
   33.9990   31.5580   36.4170 C   0  0  0  0  0  0  0  0  0  0  0  0
   35.3140   31.9060   36.2080 C   0  0  0  0  0  0  0  0  0  0  0  0
   36.9320   31.6700   34.8410 H   0  0  0  0  0  0  0  0  0  0  0  0
   33.2540   29.6820   33.7400 H   0  0  0  0  0  0  0  0  0  0  0  0
   31.2390   30.0560   35.5740 H   0  0  0  0  0  0  0  0  0  0  0  0
   33.3780   32.4690   38.3080 H   0  0  0  0  0  0  0  0  0  0  0  0
   35.8850   32.5190   36.8840 H   0  0  0  0  0  0  0  0  0  0  0  0
  1  3  1  0  0  0  0
  1 23  1  0  0  0  0
  2  1  2  0  0  0  0
  3  8  1  0  0  0  0
  4  5  1  0  0  0  0
  4  3  2  0  0  0  0
  5  6  2  0  0  0  0
  6  7  1  0  0  0  0
  7 11  1  0  0  0  0
  8  7  2  0  0  0  0
  9  4  1  0  0  0  0
 10  5  1  0  0  0  0
 11 22  1  0  0  0  0
 12 11  2  0  0  0  0
 12 14  1  0  0  0  0
 13 12  1  0  0  0  0
 14 15  2  0  0  0  0
 15 21  1  0  0  0  0
 15 16  1  0  0  0  0
 16 17  2  0  0  0  0
 17 19  1  0  0  0  0
 17 18  1  0  0  0  0
 20 19  2  0  0  0  0
 21 20  1  0  0  0  0
 22 21  2  0  0  0  0
 23 27  1  0  0  0  0
 24 23  2  0  0  0  0
 24 25  1  0  0  0  0
 25 26  2  0  0  0  0
 26 31  1  0  0  0  0
 27 26  1  0  0  0  0
 28 24  1  0  0  0  0
 29 25  1  0  0  0  0
 30 38  1  0  0  0  0
 31 32  1  0  0  0  0
 31 30  2  0  0  0  0
 32 33  2  0  0  0  0
 33 34  1  0  0  0  0
 33 37  1  0  0  0  0
 34 35  1  0  0  0  0
 35 36  2  0  0  0  0
 36 42  1  0  0  0  0
 37 36  1  0  0  0  0
 38 37  2  0  0  0  0
 38 43  1  0  0  0  0
 39 30  1  0  0  0  0
 40 32  1  0  0  0  0
 41 34  1  0  0  0  0
M  END
>  <minimizedAffinity>
-7.04133797

$$$$

 OpenBabel03272507153D

 43 48  0  0  0  0  0  0  0  0999 V2000
   37.5110   28.7190   30.2430 C   0  0  0  0  0  0  0  0  0  0  0  0
   37.2220   28.6220   29.0210 O   0  0  0  0  0  0  0  0  0  0  0  0
   38.5330   27.9300   30.8820 C   0  0  0  0  0  0  0  0  0  0  0  0
   39.7580   27.8250   30.2270 C   0  0  0  0  0  0  0  0  0  0  0  0
   40.7680   27.0680   30.8190 C   0  0  0  0  0  0  0  0  0  0  0  0
   40.4900   26.4720   32.0140 N   0  0  0  0  0  0  0  0  0  0  0  0
   39.3100   26.5870   32.6210 C   0  0  0  0  0  0  0  0  0  0  0  0
   38.3380   27.3140   32.0540 N   0  0  0  0  0  0  0  0  0  0  0  0
   40.0130   28.2830   29.2800 H   0  0  0  0  0  0  0  0  0  0  0  0
   41.7320   26.9690   30.3320 H   0  0  0  0  0  0  0  0  0  0  0  0
   39.0540   25.9340   33.9000 C   0  0  0  0  0  0  0  0  0  0  0  0
   37.9930   26.3040   34.6870 C   0  0  0  0  0  0  0  0  0  0  0  0
   37.3590   27.1030   34.3100 H   0  0  0  0  0  0  0  0  0  0  0  0
   37.6780   25.7440   35.9030 C   0  0  0  0  0  3  0  0  0  0  0  0
   38.4990   24.7340   36.3580 C   0  0  0  0  0  0  0  0  0  0  0  0
   38.1740   24.2000   37.5490 N   0  0  0  0  0  0  0  0  0  0  0  0
   38.9120   23.2120   38.0730 C   0  0  0  0  0  0  0  0  0  0  0  0
   38.6390   22.7870   39.0380 H   0  0  0  0  0  0  0  0  0  0  0  0
   40.0120   22.7600   37.3580 C   0  0  0  0  0  3  0  0  0  0  0  0
   40.3510   23.3060   36.1320 C   0  0  0  0  0  3  0  0  0  0  0  0
   39.5930   24.3230   35.5890 C   0  0  0  0  0  0  0  0  0  0  0  0
   39.8670   24.9220   34.3660 C   0  0  0  0  0  3  0  0  0  0  0  0
   36.7830   29.6700   31.0580 C   0  0  0  0  0  0  0  0  0  0  0  0
   36.3890   30.8750   30.5900 C   0  0  0  0  0  0  0  0  0  0  0  0
   35.7180   31.5330   31.6290 C   0  0  0  0  0  0  0  0  0  0  0  0
   35.7490   30.6500   32.7030 C   0  0  0  0  0  0  0  0  0  0  0  0
   36.3860   29.5830   32.2980 O   0  0  0  0  0  0  0  0  0  0  0  0
   36.5430   31.2980   29.5980 H   0  0  0  0  0  0  0  0  0  0  0  0
   35.2980   32.5250   31.5160 H   0  0  0  0  0  0  0  0  0  0  0  0
   35.8690   31.4340   35.0660 C   0  0  0  0  0  0  0  0  0  0  0  0
   35.1500   30.9520   34.0050 C   0  0  0  0  0  0  0  0  0  0  0  0
   33.7880   30.7150   34.0920 C   0  0  0  0  0  0  0  0  0  0  0  0
   33.1680   30.9820   35.3000 C   0  0  0  0  0  0  0  0  0  0  0  0
   31.8830   30.8530   35.6800 N   0  0  0  0  0  0  0  0  0  0  0  0
   31.8010   31.2480   36.9550 N   0  0  0  0  0  0  0  0  0  0  0  0
   33.0330   31.6240   37.3760 C   0  0  0  0  0  0  0  0  0  0  0  0
   33.9280   31.4680   36.3480 C   0  0  0  0  0  0  0  0  0  0  0  0
   35.2810   31.7050   36.2660 C   0  0  0  0  0  0  0  0  0  0  0  0
   36.9400   31.6000   34.9330 H   0  0  0  0  0  0  0  0  0  0  0  0
   33.1460   30.3320   33.2920 H   0  0  0  0  0  0  0  0  0  0  0  0
   31.0800   30.5110   35.0990 H   0  0  0  0  0  0  0  0  0  0  0  0
   33.2970   31.9980   38.3770 H   0  0  0  0  0  0  0  0  0  0  0  0
   35.8730   32.0840   37.0810 H   0  0  0  0  0  0  0  0  0  0  0  0
  1  3  1  0  0  0  0
  1 23  1  0  0  0  0
  2  1  2  0  0  0  0
  3  8  1  0  0  0  0
  4  5  1  0  0  0  0
  4  3  2  0  0  0  0
  5  6  2  0  0  0  0
  6  7  1  0  0  0  0
  7 11  1  0  0  0  0
  8  7  2  0  0  0  0
  9  4  1  0  0  0  0
 10  5  1  0  0  0  0
 11 22  2  0  0  0  0
 11 12  1  0  0  0  0
 12 14  2  0  0  0  0
 13 12  1  0  0  0  0
 14 15  1  0  0  0  0
 15 16  1  0  0  0  0
 16 17  2  0  0  0  0
 17 18  1  0  0  0  0
 19 17  1  0  0  0  0
 20 19  2  0  0  0  0
 21 20  1  0  0  0  0
 21 15  2  0  0  0  0
 22 21  1  0  0  0  0
 23 27  1  0  0  0  0
 24 23  2  0  0  0  0
 24 25  1  0  0  0  0
 25 26  2  0  0  0  0
 26 31  1  0  0  0  0
 27 26  1  0  0  0  0
 28 24  1  0  0  0  0
 29 25  1  0  0  0  0
 30 38  1  0  0  0  0
 31 32  1  0  0  0  0
 31 30  2  0  0  0  0
 32 33  2  0  0  0  0
 33 34  1  0  0  0  0
 33 37  1  0  0  0  0
 34 35  1  0  0  0  0
 35 36  2  0  0  0  0
 36 42  1  0  0  0  0
 37 36  1  0  0  0  0
 38 37  2  0  0  0  0
 38 43  1  0  0  0  0
 39 30  1  0  0  0  0
 40 32  1  0  0  0  0
 41 34  1  0  0  0  0
M  END
>  <minimizedAffinity>
-7.03182936

$$$$

 OpenBabel03272507153D

 43 48  0  0  0  0  0  0  0  0999 V2000
   38.4890   26.6000   34.8590 C   0  0  0  0  0  0  0  0  0  0  0  0
   39.3960   27.0440   35.6110 O   0  0  0  0  0  0  0  0  0  0  0  0
   37.6140   27.4450   34.0870 C   0  0  0  0  0  0  0  0  0  0  0  0
   37.7130   27.3640   32.7000 C   0  0  0  0  0  0  0  0  0  0  0  0
   36.8800   28.1690   31.9230 C   0  0  0  0  0  0  0  0  0  0  0  0
   36.0130   28.9940   32.5780 N   0  0  0  0  0  0  0  0  0  0  0  0
   35.9360   29.0540   33.9060 C   0  0  0  0  0  0  0  0  0  0  0  0
   36.7350   28.2810   34.6540 N   0  0  0  0  0  0  0  0  0  0  0  0
   38.3880   26.7240   32.1480 H   0  0  0  0  0  0  0  0  0  0  0  0
   36.9350   28.1280   30.8410 H   0  0  0  0  0  0  0  0  0  0  0  0
   34.9940   29.9490   34.5670 C   0  0  0  0  0  0  0  0  0  0  0  0
   33.6440   29.8530   34.3400 C   0  0  0  0  0  0  0  0  0  0  0  0
   33.3180   29.0820   33.6480 H   0  0  0  0  0  0  0  0  0  0  0  0
   32.6870   30.6540   34.9190 C   0  0  0  0  0  3  0  0  0  0  0  0
   33.1290   31.6250   35.7930 C   0  0  0  0  0  0  0  0  0  0  0  0
   32.1770   32.3970   36.3480 N   0  0  0  0  0  0  0  0  0  0  0  0
   32.5090   33.3680   37.2100 C   0  0  0  0  0  0  0  0  0  0  0  0
   31.7300   33.9860   37.6540 H   0  0  0  0  0  0  0  0  0  0  0  0
   33.8510   33.5510   37.5110 C   0  0  0  0  0  3  0  0  0  0  0  0
   34.8340   32.7590   36.9430 C   0  0  0  0  0  3  0  0  0  0  0  0
   34.4960   31.7590   36.0550 C   0  0  0  0  0  0  0  0  0  0  0  0
   35.4220   30.9240   35.4430 C   0  0  0  0  0  3  0  0  0  0  0  0
   38.3060   25.1670   34.7580 C   0  0  0  0  0  0  0  0  0  0  0  0
   38.5680   24.3270   35.7840 C   0  0  0  0  0  0  0  0  0  0  0  0
   38.2840   23.0270   35.3490 C   0  0  0  0  0  0  0  0  0  0  0  0
   37.8510   23.1650   34.0340 C   0  0  0  0  0  0  0  0  0  0  0  0
   37.8890   24.4420   33.7560 O   0  0  0  0  0  0  0  0  0  0  0  0
   38.9320   24.5720   36.7810 H   0  0  0  0  0  0  0  0  0  0  0  0
   38.4100   22.1580   35.9840 H   0  0  0  0  0  0  0  0  0  0  0  0
   37.9210   21.8310   31.9300 C   0  0  0  0  0  0  0  0  0  0  0  0
   37.4490   22.0310   33.2000 C   0  0  0  0  0  0  0  0  0  0  0  0
   36.5470   21.1600   33.7910 C   0  0  0  0  0  0  0  0  0  0  0  0
   36.1310   20.0690   33.0480 C   0  0  0  0  0  0  0  0  0  0  0  0
   35.2780   19.0710   33.3480 N   0  0  0  0  0  0  0  0  0  0  0  0
   35.2190   18.2630   32.2840 N   0  0  0  0  0  0  0  0  0  0  0  0
   36.0330   18.7520   31.3180 C   0  0  0  0  0  0  0  0  0  0  0  0
   36.6300   19.9010   31.7700 C   0  0  0  0  0  0  0  0  0  0  0  0
   37.5260   20.7630   31.1800 C   0  0  0  0  0  0  0  0  0  0  0  0
   38.6300   22.5530   31.5220 H   0  0  0  0  0  0  0  0  0  0  0  0
   36.1250   21.2510   34.7970 H   0  0  0  0  0  0  0  0  0  0  0  0
   34.7500   18.9350   34.2430 H   0  0  0  0  0  0  0  0  0  0  0  0
   36.2040   18.3150   30.3230 H   0  0  0  0  0  0  0  0  0  0  0  0
   37.9150   20.6330   30.1840 H   0  0  0  0  0  0  0  0  0  0  0  0
  1  2  2  0  0  0  0
  3  8  1  0  0  0  0
  3  1  1  0  0  0  0
  4  3  2  0  0  0  0
  5  6  2  0  0  0  0
  5  4  1  0  0  0  0
  6  7  1  0  0  0  0
  7 11  1  0  0  0  0
  7  8  2  0  0  0  0
  9  4  1  0  0  0  0
 10  5  1  0  0  0  0
 11 22  1  0  0  0  0
 12 11  2  0  0  0  0
 12 14  1  0  0  0  0
 13 12  1  0  0  0  0
 14 15  2  0  0  0  0
 15 21  1  0  0  0  0
 15 16  1  0  0  0  0
 16 17  2  0  0  0  0
 17 19  1  0  0  0  0
 17 18  1  0  0  0  0
 20 19  2  0  0  0  0
 21 20  1  0  0  0  0
 22 21  2  0  0  0  0
 23  1  1  0  0  0  0
 23 24  2  0  0  0  0
 24 28  1  0  0  0  0
 25 24  1  0  0  0  0
 25 29  1  0  0  0  0
 26 25  2  0  0  0  0
 27 26  1  0  0  0  0
 27 23  1  0  0  0  0
 30 31  1  0  0  0  0
 31 32  2  0  0  0  0
 31 26  1  0  0  0  0
 32 40  1  0  0  0  0
 33 34  1  0  0  0  0
 33 32  1  0  0  0  0
 34 41  1  0  0  0  0
 35 34  1  0  0  0  0
 36 37  1  0  0  0  0
 36 35  2  0  0  0  0
 37 33  2  0  0  0  0
 38 37  1  0  0  0  0
 38 30  2  0  0  0  0
 39 30  1  0  0  0  0
 42 36  1  0  0  0  0
 43 38  1  0  0  0  0
M  END
>  <minimizedAffinity>
-6.99382448

$$$$

 OpenBabel03272507153D

 43 48  0  0  0  0  0  0  0  0999 V2000
   38.9750   26.1280   34.8700 C   0  0  0  0  0  0  0  0  0  0  0  0
   40.1750   26.5050   34.9290 O   0  0  0  0  0  0  0  0  0  0  0  0
   38.5430   24.7990   35.2190 C   0  0  0  0  0  0  0  0  0  0  0  0
   38.5280   24.4700   36.5720 C   0  0  0  0  0  0  0  0  0  0  0  0
   38.1140   23.1910   36.9440 C   0  0  0  0  0  0  0  0  0  0  0  0
   37.7470   22.3350   35.9470 N   0  0  0  0  0  0  0  0  0  0  0  0
   37.7690   22.6720   34.6590 C   0  0  0  0  0  0  0  0  0  0  0  0
   38.1660   23.9010   34.3000 N   0  0  0  0  0  0  0  0  0  0  0  0
   38.8130   25.1230   37.3870 H   0  0  0  0  0  0  0  0  0  0  0  0
   38.0930   22.9070   37.9900 H   0  0  0  0  0  0  0  0  0  0  0  0
   37.3670   21.7270   33.6250 C   0  0  0  0  0  0  0  0  0  0  0  0
   36.2560   20.9360   33.7770 C   0  0  0  0  0  0  0  0  0  0  0  0
   35.6970   21.0520   34.7020 H   0  0  0  0  0  0  0  0  0  0  0  0
   35.8060   20.0200   32.8550 C   0  0  0  0  0  3  0  0  0  0  0  0
   36.5340   19.8930   31.6920 C   0  0  0  0  0  0  0  0  0  0  0  0
   36.0770   18.9920   30.8050 N   0  0  0  0  0  0  0  0  0  0  0  0
   36.7190   18.7980   29.6440 C   0  0  0  0  0  0  0  0  0  0  0  0
   36.3400   18.0660   28.9320 H   0  0  0  0  0  0  0  0  0  0  0  0
   37.8580   19.5470   29.3870 C   0  0  0  0  0  3  0  0  0  0  0  0
   38.3330   20.4760   30.2980 C   0  0  0  0  0  3  0  0  0  0  0  0
   37.6750   20.6780   31.4930 C   0  0  0  0  0  0  0  0  0  0  0  0
   38.0870   21.5900   32.4570 C   0  0  0  0  0  3  0  0  0  0  0  0
   37.9690   27.0730   34.4280 C   0  0  0  0  0  0  0  0  0  0  0  0
   37.6210   27.2070   33.1300 C   0  0  0  0  0  0  0  0  0  0  0  0
   36.6310   28.1960   33.0590 C   0  0  0  0  0  0  0  0  0  0  0  0
   36.4350   28.6150   34.3710 C   0  0  0  0  0  0  0  0  0  0  0  0
   37.2490   27.9160   35.1170 O   0  0  0  0  0  0  0  0  0  0  0  0
   38.0100   26.6690   32.2670 H   0  0  0  0  0  0  0  0  0  0  0  0
   36.1760   28.5000   32.1240 H   0  0  0  0  0  0  0  0  0  0  0  0
   34.1950   29.7010   34.2500 C   0  0  0  0  0  0  0  0  0  0  0  0
   35.4710   29.6520   34.7440 C   0  0  0  0  0  0  0  0  0  0  0  0
   35.9440   30.5940   35.6450 C   0  0  0  0  0  0  0  0  0  0  0  0
   35.0760   31.5990   36.0340 C   0  0  0  0  0  0  0  0  0  0  0  0
   35.2460   32.6340   36.8770 N   0  0  0  0  0  0  0  0  0  0  0  0
   34.0970   33.3170   36.9090 N   0  0  0  0  0  0  0  0  0  0  0  0
   33.2060   32.7120   36.0870 C   0  0  0  0  0  0  0  0  0  0  0  0
   33.7950   31.6150   35.5120 C   0  0  0  0  0  0  0  0  0  0  0  0
   33.3220   30.6820   34.6180 C   0  0  0  0  0  0  0  0  0  0  0  0
   33.8830   28.9300   33.5430 H   0  0  0  0  0  0  0  0  0  0  0  0
   36.9460   30.6220   36.0840 H   0  0  0  0  0  0  0  0  0  0  0  0
   36.1100   32.8760   37.4190 H   0  0  0  0  0  0  0  0  0  0  0  0
   32.1710   33.0320   35.8940 H   0  0  0  0  0  0  0  0  0  0  0  0
   32.3250   30.6940   34.2120 H   0  0  0  0  0  0  0  0  0  0  0  0
  1  2  2  0  0  0  0
  1  3  1  0  0  0  0
  3  4  1  0  0  0  0
  4  5  2  0  0  0  0
  4  9  1  0  0  0  0
  5 10  1  0  0  0  0
  6  5  1  0  0  0  0
  7  6  2  0  0  0  0
  8  7  1  0  0  0  0
  8  3  2  0  0  0  0
 11 12  1  0  0  0  0
 11  7  1  0  0  0  0
 12 13  1  0  0  0  0
 14 12  2  0  0  0  0
 15 14  1  0  0  0  0
 16 15  2  0  0  0  0
 17 16  1  0  0  0  0
 18 17  1  0  0  0  0
 19 17  2  0  0  0  0
 19 20  1  0  0  0  0
 20 21  2  0  0  0  0
 21 15  1  0  0  0  0
 21 22  1  0  0  0  0
 22 11  2  0  0  0  0
 23  1  1  0  0  0  0
 23 27  1  0  0  0  0
 24 23  2  0  0  0  0
 25 24  1  0  0  0  0
 25 26  2  0  0  0  0
 26 31  1  0  0  0  0
 26 27  1  0  0  0  0
 28 24  1  0  0  0  0
 29 25  1  0  0  0  0
 30 38  2  0  0  0  0
 30 31  1  0  0  0  0
 31 32  2  0  0  0  0
 32 33  1  0  0  0  0
 32 40  1  0  0  0  0
 33 34  1  0  0  0  0
 34 35  1  0  0  0  0
 34 41  1  0  0  0  0
 36 35  2  0  0  0  0
 37 33  2  0  0  0  0
 37 36  1  0  0  0  0
 38 37  1  0  0  0  0
 39 30  1  0  0  0  0
 42 36  1  0  0  0  0
 43 38  1  0  0  0  0
M  END
>  <minimizedAffinity>
-6.98644447

$$$$

 OpenBabel03272507153D

 43 48  0  0  0  0  0  0  0  0999 V2000
   38.6910   26.5590   35.0950 C   0  0  0  0  0  0  0  0  0  0  0  0
   39.8160   27.0750   35.3250 O   0  0  0  0  0  0  0  0  0  0  0  0
   38.3320   25.2260   35.5060 C   0  0  0  0  0  0  0  0  0  0  0  0
   38.1180   25.0160   36.8670 C   0  0  0  0  0  0  0  0  0  0  0  0
   37.7680   23.7360   37.2980 C   0  0  0  0  0  0  0  0  0  0  0  0
   37.6570   22.7620   36.3500 N   0  0  0  0  0  0  0  0  0  0  0  0
   37.8660   22.9860   35.0540 C   0  0  0  0  0  0  0  0  0  0  0  0
   38.2020   24.2150   34.6380 N   0  0  0  0  0  0  0  0  0  0  0  0
   38.1980   25.7640   37.6450 H   0  0  0  0  0  0  0  0  0  0  0  0
   37.5960   23.5440   38.3510 H   0  0  0  0  0  0  0  0  0  0  0  0
   37.7350   21.9170   34.0720 C   0  0  0  0  0  0  0  0  0  0  0  0
   38.7600   21.6100   33.2130 C   0  0  0  0  0  0  0  0  0  0  0  0
   39.6670   22.2030   33.3030 H   0  0  0  0  0  0  0  0  0  0  0  0
   38.7230   20.6200   32.2590 C   0  0  0  0  0  3  0  0  0  0  0  0
   37.5600   19.8850   32.1660 C   0  0  0  0  0  0  0  0  0  0  0  0
   37.5440   18.9220   31.2270 N   0  0  0  0  0  0  0  0  0  0  0  0
   36.4580   18.1550   31.0620 C   0  0  0  0  0  0  0  0  0  0  0  0
   36.4560   17.3780   30.2990 H   0  0  0  0  0  0  0  0  0  0  0  0
   35.3610   18.3800   31.8800 C   0  0  0  0  0  3  0  0  0  0  0  0
   35.3720   19.3700   32.8490 C   0  0  0  0  0  3  0  0  0  0  0  0
   36.4890   20.1610   33.0210 C   0  0  0  0  0  0  0  0  0  0  0  0
   36.5780   21.1730   33.9690 C   0  0  0  0  0  3  0  0  0  0  0  0
   37.7000   27.3360   34.3800 C   0  0  0  0  0  0  0  0  0  0  0  0
   37.6530   27.3870   33.0310 C   0  0  0  0  0  0  0  0  0  0  0  0
   36.5840   28.2200   32.6770 C   0  0  0  0  0  0  0  0  0  0  0  0
   36.0280   28.6380   33.8820 C   0  0  0  0  0  0  0  0  0  0  0  0
   36.7300   28.0830   34.8350 O   0  0  0  0  0  0  0  0  0  0  0  0
   38.3040   26.8900   32.3130 H   0  0  0  0  0  0  0  0  0  0  0  0
   36.3250   28.4320   31.6460 H   0  0  0  0  0  0  0  0  0  0  0  0
   34.7320   30.4870   34.9360 C   0  0  0  0  0  0  0  0  0  0  0  0
   34.8730   29.5340   33.9640 C   0  0  0  0  0  0  0  0  0  0  0  0
   33.9180   29.3490   32.9760 C   0  0  0  0  0  0  0  0  0  0  0  0
   32.8030   30.1680   33.0030 C   0  0  0  0  0  0  0  0  0  0  0  0
   31.7300   30.2230   32.1930 N   0  0  0  0  0  0  0  0  0  0  0  0
   30.9320   31.1940   32.6510 N   0  0  0  0  0  0  0  0  0  0  0  0
   31.5040   31.7480   33.7470 C   0  0  0  0  0  0  0  0  0  0  0  0
   32.6960   31.1190   34.0010 C   0  0  0  0  0  0  0  0  0  0  0  0
   33.6420   31.3060   34.9830 C   0  0  0  0  0  0  0  0  0  0  0  0
   35.5190   30.5830   35.6860 H   0  0  0  0  0  0  0  0  0  0  0  0
   33.9590   28.6120   32.1680 H   0  0  0  0  0  0  0  0  0  0  0  0
   31.5360   29.6260   31.3530 H   0  0  0  0  0  0  0  0  0  0  0  0
   31.0970   32.5710   34.3540 H   0  0  0  0  0  0  0  0  0  0  0  0
   33.5600   32.0470   35.7590 H   0  0  0  0  0  0  0  0  0  0  0  0
  1  2  2  0  0  0  0
  1  3  1  0  0  0  0
  3  4  1  0  0  0  0
  4  5  2  0  0  0  0
  4  9  1  0  0  0  0
  5 10  1  0  0  0  0
  6  5  1  0  0  0  0
  7  6  2  0  0  0  0
  8  7  1  0  0  0  0
  8  3  2  0  0  0  0
 11  7  1  0  0  0  0
 12 13  1  0  0  0  0
 12 11  2  0  0  0  0
 14 12  1  0  0  0  0
 15 14  2  0  0  0  0
 15 21  1  0  0  0  0
 16 15  1  0  0  0  0
 17 16  2  0  0  0  0
 17 19  1  0  0  0  0
 18 17  1  0  0  0  0
 19 20  2  0  0  0  0
 20 21  1  0  0  0  0
 21 22  2  0  0  0  0
 22 11  1  0  0  0  0
 23 27  1  0  0  0  0
 23  1  1  0  0  0  0
 24 23  2  0  0  0  0
 25 24  1  0  0  0  0
 25 26  2  0  0  0  0
 26 31  1  0  0  0  0
 26 27  1  0  0  0  0
 28 24  1  0  0  0  0
 29 25  1  0  0  0  0
 30 38  1  0  0  0  0
 30 39  1  0  0  0  0
 31 30  2  0  0  0  0
 32 33  2  0  0  0  0
 32 31  1  0  0  0  0
 33 37  1  0  0  0  0
 34 35  1  0  0  0  0
 34 33  1  0  0  0  0
 35 36  2  0  0  0  0
 36 37  1  0  0  0  0
 36 42  1  0  0  0  0
 37 38  2  0  0  0  0
 38 43  1  0  0  0  0
 40 32  1  0  0  0  0
 41 34  1  0  0  0  0
M  END
>  <minimizedAffinity>
-6.94802427

$$$$
