
 OpenBabel03272505383D

 34 37  0  0  0  0  0  0  0  0999 V2000
   34.3990   30.0810   46.2110 C   0  0  0  0  0  0  0  0  0  0  0  0
   33.0210   29.9960   46.1320 C   0  0  0  0  0  0  0  0  0  0  0  0
   32.3650   30.2090   44.9400 C   0  0  0  0  0  0  0  0  0  0  0  0
   33.0400   30.5170   43.7630 C   0  0  0  0  0  0  0  0  0  0  0  0
   34.4130   30.6050   43.8320 C   0  0  0  0  0  0  0  0  0  0  0  0
   35.0410   30.3880   45.0350 C   0  0  0  0  0  0  0  0  0  0  0  0
   32.4740   29.7570   47.0370 H   0  0  0  0  0  0  0  0  0  0  0  0
   31.2690   30.1270   44.9400 H   0  0  0  0  0  0  0  0  0  0  0  0
   32.4010   30.6600   42.8960 H   0  0  0  0  0  0  0  0  0  0  0  0
   34.9140   30.8450   42.9060 H   0  0  0  0  0  0  0  0  0  0  0  0
   36.4860   30.5290   44.9620 C   0  0  0  0  0  0  0  0  0  0  0  0
   37.2570   29.4910   44.4230 C   0  0  0  0  0  0  0  0  0  0  0  0
   36.7570   28.5960   44.0700 H   0  0  0  0  0  0  0  0  0  0  0  0
   38.6270   29.6240   44.3520 C   0  0  0  0  0  0  0  0  0  0  0  0
   39.2850   30.7530   44.7940 C   0  0  0  0  0  0  0  0  0  0  0  0
   40.6230   30.7750   44.6760 N   0  0  0  0  0  0  0  0  0  0  0  0
   41.3300   31.8350   45.0820 C   0  0  0  0  0  0  0  0  0  0  0  0
   42.3950   32.0320   45.0670 H   0  0  0  0  0  0  0  0  0  0  0  0
   40.6010   32.8920   45.6250 C   0  0  0  0  0  0  0  0  0  0  0  0
   39.2340   32.8840   45.7530 C   0  0  0  0  0  0  0  0  0  0  0  0
   38.5260   31.7640   45.3200 C   0  0  0  0  0  0  0  0  0  0  0  0
   37.1370   31.6550   45.4040 C   0  0  0  0  0  0  0  0  0  0  0  0
   36.6020   30.5150   49.1050 C   0  0  0  0  0  0  0  0  0  0  0  0
   36.3560   29.3660   49.8480 C   0  0  0  0  0  0  0  0  0  0  0  0
   35.4320   28.4450   49.3480 C   0  0  0  0  0  0  0  0  0  0  0  0
   34.8390   28.7410   48.1660 N   0  0  0  0  0  0  0  0  0  0  0  0
   35.0850   29.8510   47.4640 C   0  0  0  0  0  0  0  0  0  0  0  0
   35.9710   30.7410   47.9370 N   0  0  0  0  0  0  0  0  0  0  0  0
   36.8820   29.2100   50.7930 H   0  0  0  0  0  0  0  0  0  0  0  0
   35.2190   27.5340   49.9100 H   0  0  0  0  0  0  0  0  0  0  0  0
   37.5990   31.5150   49.6340 C   0  0  0  0  0  0  0  0  0  0  0  0
   38.6360   31.6770   48.7320 F   0  0  0  0  0  0  0  0  0  0  0  0
   36.9290   32.6730   49.8830 F   0  0  0  0  0  0  0  0  0  0  0  0
   38.1480   30.9770   50.7840 F   0  0  0  0  0  0  0  0  0  0  0  0
  1 27  1  0  0  0  0
  2  1  1  0  0  0  0
  2  7  1  0  0  0  0
  3  8  1  0  0  0  0
  3  2  2  0  0  0  0
  4  5  2  0  0  0  0
  4  3  1  0  0  0  0
  5  6  1  0  0  0  0
  6  1  2  0  0  0  0
  9  4  1  0  0  0  0
 10  5  1  0  0  0  0
 11  6  1  0  0  0  0
 11 22  1  0  0  0  0
 12 11  2  0  0  0  0
 13 12  1  0  0  0  0
 14 12  1  0  0  0  0
 14 15  2  0  0  0  0
 15 21  1  0  0  0  0
 16 15  1  0  0  0  0
 16 17  2  0  0  0  0
 17 19  1  0  0  0  0
 18 17  1  0  0  0  0
 19 20  2  0  0  0  0
 21 22  2  0  0  0  0
 21 20  1  0  0  0  0
 23 31  1  0  0  0  0
 23 24  1  0  0  0  0
 24 29  1  0  0  0  0
 25 24  2  0  0  0  0
 25 30  1  0  0  0  0
 26 25  1  0  0  0  0
 27 28  1  0  0  0  0
 27 26  2  0  0  0  0
 28 23  2  0  0  0  0
 31 33  1  0  0  0  0
 31 34  1  0  0  0  0
 32 31  1  0  0  0  0
M  END
>  <minimizedAffinity>
-6.0684433

>  <minimizedRMSD>
2.77674341

$$$$
