
     RDKit          3D

 38 41  0  0  0  0  0  0  0  0999 V2000
   37.4097   29.9375   50.5659 C   0  0  0  0  0  0  0  0  0  0  0  0
   37.8648   30.4016   49.3246 C   0  0  0  0  0  0  0  0  0  0  0  0
   36.9983   30.6658   48.2941 C   0  0  0  0  0  0  0  0  0  0  0  0
   35.6760   30.4610   48.5157 N   0  0  0  0  0  0  0  0  0  0  0  0
   35.2016   30.0102   49.7099 C   0  0  0  0  0  0  0  0  0  0  0  0
   36.0657   29.7482   50.7357 N   0  0  0  0  0  0  0  0  0  0  0  0
   37.4412   31.1352   47.0544 N   0  0  0  0  0  0  0  0  0  0  0  0
   36.8061   30.8083   45.8960 C   0  0  0  0  0  0  0  0  0  0  0  0
   37.2315   31.2661   44.6597 C   0  0  0  0  0  0  0  0  0  0  0  0
   38.3673   32.0982   44.6427 C   0  0  0  0  0  0  0  0  0  0  0  0
   38.7868   32.5337   43.5483 O   0  0  0  0  0  0  0  0  0  0  0  0
   39.0051   32.4272   45.8007 N   0  0  0  0  0  0  0  0  0  0  0  0
   38.4958   31.9215   46.9297 C   0  0  0  0  0  0  0  0  0  0  0  0
   39.1080   32.2477   47.9726 O   0  0  0  0  0  0  0  0  0  0  0  0
   40.1722   33.2800   45.7759 C   0  0  0  0  0  0  0  0  0  0  0  0
   40.0345   34.2228   44.7994 F   0  0  0  0  0  0  0  0  0  0  0  0
   41.3446   32.5889   45.5087 F   0  0  0  0  0  0  0  0  0  0  0  0
   40.2698   33.9389   46.9950 F   0  0  0  0  0  0  0  0  0  0  0  0
   38.0402   29.7126   51.4142 H   0  0  0  0  0  0  0  0  0  0  0  0
   38.9225   30.4900   49.3336 H   0  0  0  0  0  0  0  0  0  0  0  0
   34.1330   29.8790   49.7869 H   0  0  0  0  0  0  0  0  0  0  0  0
   35.9461   30.1794   45.8973 H   0  0  0  0  0  0  0  0  0  0  0  0
   36.5473   30.9138   43.4177 C   0  0  0  0  0  0  0  0  0  0  0  0
   37.0098   29.7537   42.7887 C   0  0  0  0  0  0  0  0  0  0  0  0
   37.8172   29.1394   43.1727 H   0  0  0  0  0  0  0  0  0  0  0  0
   36.4525   29.2983   41.6003 C   0  0  0  0  0  0  0  0  0  0  0  0
   35.4180   30.0170   41.0366 C   0  0  0  0  0  0  0  0  0  0  0  0
   34.8330   29.6172   39.8713 N   0  0  0  0  0  0  0  0  0  0  0  0
   33.8236   30.3197   39.3226 C   0  0  0  0  0  0  0  0  0  0  0  0
   33.4649   29.8721   38.3955 H   0  0  0  0  0  0  0  0  0  0  0  0
   33.3523   31.4704   39.9304 C   0  0  0  0  0  0  0  0  0  0  0  0
   33.9276   31.8970   41.1117 C   0  0  0  0  0  0  0  0  0  0  0  0
   34.9609   31.1746   41.6698 C   0  0  0  0  0  0  0  0  0  0  0  0
   35.5102   31.6334   42.8516 C   0  0  0  0  0  0  0  0  0  0  0  0
   36.8157   28.3932   41.1126 H   0  0  0  0  0  0  0  0  0  0  0  0
   32.5475   31.9735   39.4334 H   0  0  0  0  0  0  0  0  0  0  0  0
   33.5418   32.8081   41.5767 H   0  0  0  0  0  0  0  0  0  0  0  0
   35.1915   32.5165   43.3730 H   0  0  0  0  0  0  0  0  0  0  0  0
  1  6  2  0
  2  1  1  0
  3  4  1  0
  3  2  2  0
  4  5  2  0
  5  6  1  0
  7  3  1  0
  8  7  1  0
  9  8  2  0
 10  9  1  0
 10 12  1  0
 11 10  2  0
 12 13  1  0
 13  7  1  0
 13 14  2  0
 15 12  1  0
 15 18  1  0
 16 15  1  0
 17 15  1  0
  1 19  1  0
  2 20  1  0
  5 21  1  0
  8 22  1  0
 23 24  2  0
 24 25  1  0
 24 26  1  0
 26 27  2  0
 27 28  1  0
 28 29  2  0
 29 30  1  0
 29 31  1  0
 31 32  2  0
 32 33  1  0
 33 34  2  0
 34 23  1  0
 33 27  1  0
 26 35  1  0
 31 36  1  0
 32 37  1  0
 34 38  1  0
  9 23  1  0
M  ISO  6  19  14  20  14  21  14  22  14  25  16  30  16
M  END
>  <DihAtoms>  (1) 
7,8,22,23

>  <DihDeg>  (1) 
134.99535661518675

$$$$
