
 OpenBabel03272507553D

 26 28  0  0  0  0  0  0  0  0999 V2000
   35.0670   28.8340   50.2990 C   0  0  0  0  0  0  0  0  0  0  0  0
   36.1690   29.6690   49.9760 C   0  0  0  0  0  0  0  0  0  0  0  0
   36.1510   30.3710   48.7820 C   0  0  0  0  0  0  0  0  0  0  0  0
   35.0470   30.2180   47.9640 N   0  0  0  0  0  0  0  0  0  0  0  0
   34.0190   29.4210   48.2960 C   0  0  0  0  0  0  0  0  0  0  0  0
   34.0250   28.7420   49.4390 N   0  0  0  0  0  0  0  0  0  0  0  0
   32.9750   29.3950   47.3440 N   0  0  0  0  0  0  0  0  0  0  0  0
   35.1240   28.3080   51.2350 H   0  0  0  0  0  0  0  0  0  0  0  0
   32.4490   28.5020   47.1170 H   0  0  0  0  0  0  0  0  0  0  0  0
   32.6490   30.2160   46.8080 H   0  0  0  0  0  0  0  0  0  0  0  0
   37.1830   31.2270   48.2420 C   0  0  0  0  0  0  0  0  0  0  0  0
   37.7770   32.4190   48.5530 C   0  0  0  0  0  0  0  0  0  0  0  0
   37.3440   32.9180   49.3870 H   0  0  0  0  0  0  0  0  0  0  0  0
   38.8150   32.9650   47.8440 C   0  0  0  0  0  3  0  0  0  0  0  0
   39.3560   32.3500   46.7370 C   0  0  0  0  0  0  0  0  0  0  0  0
   40.3560   32.9730   46.1290 N   0  0  0  0  0  0  0  0  0  0  0  0
   40.9290   32.4100   45.0280 C   0  0  0  0  0  0  0  0  0  0  0  0
   41.7520   32.8370   44.4600 H   0  0  0  0  0  0  0  0  0  0  0  0
   40.4050   31.1990   44.6180 C   0  0  0  0  0  3  0  0  0  0  0  0
   39.3570   30.5560   45.2630 C   0  0  0  0  0  3  0  0  0  0  0  0
   38.7940   31.1460   46.3750 C   0  0  0  0  0  0  0  0  0  0  0  0
   37.7470   30.6150   47.1090 C   0  0  0  0  0  3  0  0  0  0  0  0
   37.3140   29.7460   50.9220 C   0  0  0  0  0  0  0  0  0  0  0  0
   38.5340   29.6210   50.2730 F   0  0  0  0  0  0  0  0  0  0  0  0
   37.2670   30.9420   51.5680 F   0  0  0  0  0  0  0  0  0  0  0  0
   37.2660   28.7410   51.8780 F   0  0  0  0  0  0  0  0  0  0  0  0
  1  8  1  0  0  0  0
  2  1  1  0  0  0  0
  2 23  1  0  0  0  0
  3  2  2  0  0  0  0
  4  5  2  0  0  0  0
  4  3  1  0  0  0  0
  5  6  1  0  0  0  0
  6  1  2  0  0  0  0
  7  5  1  0  0  0  0
  9  7  1  0  0  0  0
 10  7  1  0  0  0  0
 11 12  1  0  0  0  0
 11  3  1  0  0  0  0
 12 13  1  0  0  0  0
 14 12  2  0  0  0  0
 15 14  1  0  0  0  0
 16 15  2  0  0  0  0
 17 16  1  0  0  0  0
 18 17  1  0  0  0  0
 19 17  2  0  0  0  0
 19 20  1  0  0  0  0
 20 21  2  0  0  0  0
 21 15  1  0  0  0  0
 21 22  1  0  0  0  0
 22 11  2  0  0  0  0
 23 25  1  0  0  0  0
 23 26  1  0  0  0  0
 24 23  1  0  0  0  0
M  END
>  <minimizedAffinity>
-7.13728571

>  <minimizedRMSD>
1.2794652

$$$$
