
     RDKit          3D

 30 32  0  0  0  0  0  0  0  0999 V2000
   35.6090   29.0233   50.1859 C   0  0  0  0  0  0  0  0  0  0  0  0
   36.2803   30.1553   49.6554 C   0  0  0  0  0  0  0  0  0  0  0  0
   36.0528   30.5119   48.3361 C   0  0  0  0  0  0  0  0  0  0  0  0
   35.1742   29.7350   47.6027 N   0  0  0  0  0  0  0  0  0  0  0  0
   34.5529   28.6692   48.1332 C   0  0  0  0  0  0  0  0  0  0  0  0
   34.7628   28.3169   49.3976 N   0  0  0  0  0  0  0  0  0  0  0  0
   33.6845   28.0017   47.2399 N   0  0  0  0  0  0  0  0  0  0  0  0
   37.2187   30.9093   50.5269 C   0  0  0  0  0  0  0  0  0  0  0  0
   38.5335   30.7980   50.0964 F   0  0  0  0  0  0  0  0  0  0  0  0
   36.8541   32.2199   50.5315 F   0  0  0  0  0  0  0  0  0  0  0  0
   37.1901   30.4525   51.8382 F   0  0  0  0  0  0  0  0  0  0  0  0
   35.8159   28.7832   51.2136 H   0  0  0  0  0  0  0  0  0  0  0  0
   33.5972   26.9440   47.2317 H   0  0  0  0  0  0  0  0  0  0  0  0
   33.0829   28.4726   46.5443 H   0  0  0  0  0  0  0  0  0  0  0  0
   36.6673   31.5871   47.5895 C   0  0  0  0  0  0  0  0  0  0  0  0
   37.3985   32.7121   47.8513 C   0  0  0  0  0  0  0  0  0  0  0  0
   37.5180   32.9255   48.8862 H   0  0  0  0  0  0  0  0  0  0  0  0
   37.9091   33.5358   46.8811 C   0  0  0  0  0  0  0  0  0  0  0  0
   37.7239   33.2961   45.5385 C   0  0  0  0  0  0  0  0  0  0  0  0
   38.2633   34.1609   44.6908 N   0  0  0  0  0  0  0  0  0  0  0  0
   38.1115   33.9737   43.3491 C   0  0  0  0  0  0  0  0  0  0  0  0
   38.5126   34.6217   42.5743 H   0  0  0  0  0  0  0  0  0  0  0  0
   37.3841   32.8621   42.9667 C   0  0  0  0  0  0  0  0  0  0  0  0
   36.8239   31.9635   43.8638 C   0  0  0  0  0  0  0  0  0  0  0  0
   36.9915   32.1747   45.2161 C   0  0  0  0  0  0  0  0  0  0  0  0
   36.4875   31.3587   46.2150 C   0  0  0  0  0  0  0  0  0  0  0  0
   38.4660   34.3843   47.2486 H   0  0  0  0  0  0  0  0  0  0  0  0
   37.2416   32.6796   41.8962 H   0  0  0  0  0  0  0  0  0  0  0  0
   36.2563   31.0963   43.5576 H   0  0  0  0  0  0  0  0  0  0  0  0
   35.9407   30.5292   45.7658 H   0  0  0  0  0  0  0  0  0  0  0  0
  2  1  2  0
  2  8  1  0
  3  2  1  0
  4  5  1  0
  4  3  2  0
  5  6  2  0
  6  1  1  0
  7  5  1  0
  8 11  1  0
  9  8  1  0
 10  8  1  0
  1 12  1  0
  7 13  1  0
  7 14  1  0
 15 16  2  0
 16 17  1  0
 16 18  1  0
 18 19  2  0
 19 20  1  0
 20 21  2  0
 21 22  1  0
 21 23  1  0
 23 24  2  0
 24 25  1  0
 25 26  2  0
 26 15  1  0
 25 19  1  0
 18 27  1  0
 23 28  1  0
 24 29  1  0
 26 30  1  0
  3 15  1  0
M  ISO  3  12  14  17  16  22  16
M  END
>  <DihAtoms>  (1) 
1,2,14,15

>  <DihDeg>  (1) 
-60.22557734225758

$$$$
