
 OpenBabel03272507553D

 26 28  0  0  0  0  0  0  0  0999 V2000
   34.8930   28.8920   50.1560 C   0  0  0  0  0  0  0  0  0  0  0  0
   36.0230   29.6970   49.8580 C   0  0  0  0  0  0  0  0  0  0  0  0
   36.0660   30.3730   48.6500 C   0  0  0  0  0  0  0  0  0  0  0  0
   34.9910   30.2210   47.7910 N   0  0  0  0  0  0  0  0  0  0  0  0
   33.9350   29.4520   48.1010 C   0  0  0  0  0  0  0  0  0  0  0  0
   33.8830   28.7990   49.2580 N   0  0  0  0  0  0  0  0  0  0  0  0
   32.9290   29.4240   47.1090 N   0  0  0  0  0  0  0  0  0  0  0  0
   34.9030   28.3860   51.1050 H   0  0  0  0  0  0  0  0  0  0  0  0
   32.3940   28.5360   46.8810 H   0  0  0  0  0  0  0  0  0  0  0  0
   32.6410   30.2380   46.5420 H   0  0  0  0  0  0  0  0  0  0  0  0
   37.1340   31.1960   48.1310 C   0  0  0  0  0  0  0  0  0  0  0  0
   37.7750   32.3560   48.4700 C   0  0  0  0  0  0  0  0  0  0  0  0
   37.3580   32.8560   49.3110 H   0  0  0  0  0  0  0  0  0  0  0  0
   38.8380   32.8740   47.7770 C   0  0  0  0  0  3  0  0  0  0  0  0
   39.3600   32.2590   46.6600 C   0  0  0  0  0  0  0  0  0  0  0  0
   40.3880   32.8520   46.0700 N   0  0  0  0  0  0  0  0  0  0  0  0
   40.9440   32.2890   44.9600 C   0  0  0  0  0  0  0  0  0  0  0  0
   41.7870   32.6930   44.4050 H   0  0  0  0  0  0  0  0  0  0  0  0
   40.3740   31.1080   44.5240 C   0  0  0  0  0  3  0  0  0  0  0  0
   39.2960   30.4970   45.1500 C   0  0  0  0  0  3  0  0  0  0  0  0
   38.7510   31.0860   46.2710 C   0  0  0  0  0  0  0  0  0  0  0  0
   37.6790   30.5840   46.9900 C   0  0  0  0  0  3  0  0  0  0  0  0
   37.1310   29.7750   50.8460 C   0  0  0  0  0  0  0  0  0  0  0  0
   38.3610   29.4850   50.2730 F   0  0  0  0  0  0  0  0  0  0  0  0
   37.1610   31.0300   51.3720 F   0  0  0  0  0  0  0  0  0  0  0  0
   36.9580   28.8790   51.8920 F   0  0  0  0  0  0  0  0  0  0  0  0
  1  8  1  0  0  0  0
  2  1  1  0  0  0  0
  2 23  1  0  0  0  0
  3  2  2  0  0  0  0
  4  5  2  0  0  0  0
  4  3  1  0  0  0  0
  5  6  1  0  0  0  0
  6  1  2  0  0  0  0
  7  5  1  0  0  0  0
  9  7  1  0  0  0  0
 10  7  1  0  0  0  0
 11 12  1  0  0  0  0
 11  3  1  0  0  0  0
 12 13  1  0  0  0  0
 14 12  2  0  0  0  0
 15 14  1  0  0  0  0
 16 15  2  0  0  0  0
 17 16  1  0  0  0  0
 18 17  1  0  0  0  0
 19 17  2  0  0  0  0
 19 20  1  0  0  0  0
 20 21  2  0  0  0  0
 21 15  1  0  0  0  0
 21 22  1  0  0  0  0
 22 11  2  0  0  0  0
 23 25  1  0  0  0  0
 23 26  1  0  0  0  0
 24 23  1  0  0  0  0
M  END
>  <minimizedAffinity>
-7.13084316

>  <minimizedRMSD>
1.33084905

$$$$
