
 OpenBabel03272501583D

 34 37  0  0  0  0  0  0  0  0999 V2000
   32.9140   27.8410   47.8910 C   0  0  0  0  0  0  0  0  0  0  0  0
   32.2960   26.6210   47.9820 C   0  0  0  0  0  0  0  0  0  0  0  0
   30.9420   26.7480   47.7180 C   0  0  0  0  0  0  0  0  0  0  0  0
   30.7780   28.0610   47.4700 N   0  0  0  0  0  0  0  0  0  0  0  0
   31.9240   28.7080   47.5690 N   0  0  0  0  0  0  0  0  0  0  0  0
   32.7250   25.6440   48.2210 H   0  0  0  0  0  0  0  0  0  0  0  0
   30.1070   26.0600   47.6830 H   0  0  0  0  0  0  0  0  0  0  0  0
   29.6490   28.8610   47.1350 C   0  0  0  0  0  0  0  0  0  0  0  0
   28.5280   28.9610   47.9310 C   0  0  0  0  0  0  0  0  0  0  0  0
   28.5100   28.4060   48.8490 H   0  0  0  0  0  0  0  0  0  0  0  0
   27.4980   29.7770   47.4840 C   0  0  0  0  0  3  0  0  0  0  0  0
   27.5910   30.4580   46.2940 C   0  0  0  0  0  0  0  0  0  0  0  0
   26.5740   31.2360   45.8970 N   0  0  0  0  0  0  0  0  0  0  0  0
   26.6450   31.9150   44.7300 C   0  0  0  0  0  0  0  0  0  0  0  0
   25.7920   32.5450   44.4350 H   0  0  0  0  0  0  0  0  0  0  0  0
   27.7550   31.8360   43.9080 C   0  0  0  0  0  3  0  0  0  0  0  0
   28.8150   31.0440   44.2910 C   0  0  0  0  0  3  0  0  0  0  0  0
   28.7060   30.3680   45.4850 C   0  0  0  0  0  0  0  0  0  0  0  0
   29.7370   29.5500   45.9350 C   0  0  0  0  0  3  0  0  0  0  0  0
   34.3820   28.0980   48.1110 C   0  0  0  0  0  0  0  0  0  0  0  0
   34.9870   27.2310   47.7560 H   0  0  0  0  0  0  0  0  0  0  0  0
   34.6170   28.9910   47.5000 H   0  0  0  0  0  0  0  0  0  0  0  0
   34.5720   28.2880   49.5790 C   0  0  0  0  0  0  0  0  0  0  0  0
   34.6940   27.3250   50.1160 H   0  0  0  0  0  0  0  0  0  0  0  0
   33.7150   28.8220   50.0320 H   0  0  0  0  0  0  0  0  0  0  0  0
   37.2670   30.1670   51.3080 C   0  0  0  0  0  0  0  0  0  0  0  0
   38.0240   30.6510   50.2220 C   0  0  0  0  0  0  0  0  0  0  0  0
   37.6060   30.3300   48.9120 C   0  0  0  0  0  0  0  0  0  0  0  0
   36.4920   29.5700   48.7610 N   0  0  0  0  0  0  0  0  0  0  0  0
   35.7900   29.1230   49.8350 C   0  0  0  0  0  0  0  0  0  0  0  0
   36.1790   29.4200   51.0660 N   0  0  0  0  0  0  0  0  0  0  0  0
   37.5820   30.4070   52.3130 H   0  0  0  0  0  0  0  0  0  0  0  0
   38.8980   31.2470   50.3330 H   0  0  0  0  0  0  0  0  0  0  0  0
   38.1290   30.6610   48.0250 H   0  0  0  0  0  0  0  0  0  0  0  0
  1  2  1  0  0  0  0
  1 20  1  0  0  0  0
  2  6  1  0  0  0  0
  3  2  2  0  0  0  0
  4  5  1  0  0  0  0
  4  3  1  0  0  0  0
  5  1  2  0  0  0  0
  7  3  1  0  0  0  0
  8  4  1  0  0  0  0
  8  9  1  0  0  0  0
  9 10  1  0  0  0  0
 11  9  2  0  0  0  0
 12 11  1  0  0  0  0
 13 12  1  0  0  0  0
 14 13  2  0  0  0  0
 15 14  1  0  0  0  0
 16 17  2  0  0  0  0
 16 14  1  0  0  0  0
 17 18  1  0  0  0  0
 18 19  1  0  0  0  0
 18 12  2  0  0  0  0
 19  8  2  0  0  0  0
 20 23  1  0  0  0  0
 21 20  1  0  0  0  0
 22 20  1  0  0  0  0
 23 30  1  0  0  0  0
 23 25  1  0  0  0  0
 23 24  1  0  0  0  0
 26 32  1  0  0  0  0
 27 33  1  0  0  0  0
 27 26  2  0  0  0  0
 28 27  1  0  0  0  0
 29 28  2  0  0  0  0
 29 30  1  0  0  0  0
 30 31  2  0  0  0  0
 31 26  1  0  0  0  0
 34 28  1  0  0  0  0
M  END
>  <minimizedAffinity>
-5.53776979

>  <minimizedRMSD>
1.49675131

$$$$
