
     RDKit          3D

 51 56  0  0  0  0  0  0  0  0999 V2000
   35.8379   28.9209   49.3830 C   0  0  0  0  0  0  0  0  0  0  0  0
   35.8584   30.0891   48.5891 C   0  0  0  0  0  0  0  0  0  0  0  0
   34.7784   30.3079   47.6951 C   0  0  0  0  0  0  0  0  0  0  0  0
   33.7735   29.3999   47.6249 N   0  0  0  0  0  0  0  0  0  0  0  0
   33.8157   28.2891   48.4166 C   0  0  0  0  0  0  0  0  0  0  0  0
   34.8143   28.0526   49.2723 N   0  0  0  0  0  0  0  0  0  0  0  0
   32.7335   27.3402   48.2796 N   0  0  0  0  0  0  0  0  0  0  0  0
   31.3568   27.6396   48.5350 C   0  0  0  0  0  0  0  0  0  0  0  0
   30.6044   26.4617   48.0049 C   0  0  0  0  0  0  0  0  0  0  0  0
   31.6077   25.5996   47.2466 C   0  0  0  0  0  0  0  0  0  0  0  0
   32.9021   25.9379   47.8566 C   0  0  0  0  0  0  0  0  0  0  0  0
   36.8461   31.1087   48.5472 C   0  0  0  0  0  0  0  0  0  0  0  0
   36.7953   32.0079   49.5653 N   0  0  0  0  0  0  0  0  0  0  0  0
   37.6762   33.0219   49.6032 C   0  0  0  0  0  0  0  0  0  0  0  0
   38.6503   33.2295   48.6709 N   0  0  0  0  0  0  0  0  0  0  0  0
   38.7289   32.3560   47.6469 C   0  0  0  0  0  0  0  0  0  0  0  0
   39.6702   32.4870   46.6393 C   0  0  0  0  0  0  0  0  0  0  0  0
   39.7109   31.5699   45.5826 C   0  0  0  0  0  0  0  0  0  0  0  0
   38.7893   30.5171   45.5563 C   0  0  0  0  0  0  0  0  0  0  0  0
   37.8664   30.4290   46.5895 C   0  0  0  0  0  0  0  0  0  0  0  0
   37.8249   31.3205   47.6152 C   0  0  0  0  0  0  0  0  0  0  0  0
   36.6881   28.8223   50.0423 H   0  0  0  0  0  0  0  0  0  0  0  0
   34.7044   31.1650   47.0569 H   0  0  0  0  0  0  0  0  0  0  0  0
   31.2091   27.8086   49.6256 H   0  0  0  0  0  0  0  0  0  0  0  0
   31.0412   28.5519   47.9800 H   0  0  0  0  0  0  0  0  0  0  0  0
   29.7722   26.7674   47.3210 H   0  0  0  0  0  0  0  0  0  0  0  0
   30.1253   25.8422   48.7945 H   0  0  0  0  0  0  0  0  0  0  0  0
   31.6100   25.8404   46.1660 H   0  0  0  0  0  0  0  0  0  0  0  0
   31.3513   24.5324   47.4166 H   0  0  0  0  0  0  0  0  0  0  0  0
   33.8000   25.8406   47.2490 H   0  0  0  0  0  0  0  0  0  0  0  0
   33.1164   25.3676   48.8014 H   0  0  0  0  0  0  0  0  0  0  0  0
   37.6885   33.7753   50.3920 H   0  0  0  0  0  0  0  0  0  0  0  0
   40.3430   33.3280   46.7396 H   0  0  0  0  0  0  0  0  0  0  0  0
   40.4848   31.7791   44.8611 H   0  0  0  0  0  0  0  0  0  0  0  0
   38.9970   29.9410   44.6694 H   0  0  0  0  0  0  0  0  0  0  0  0
   37.1578   29.2106   46.2379 C   0  0  0  0  0  0  0  0  0  0  0  0
   35.9424   28.6674   46.6020 C   0  0  0  0  0  0  0  0  0  0  0  0
   35.4349   29.3450   47.3121 H   0  0  0  0  0  0  0  0  0  0  0  0
   35.4110   27.4750   46.1953 C   0  0  0  0  0  0  0  0  0  0  0  0
   36.1710   26.7320   45.3271 C   0  0  0  0  0  0  0  0  0  0  0  0
   35.6796   25.5536   44.9067 N   0  0  0  0  0  0  0  0  0  0  0  0
   36.3706   24.7628   44.0500 C   0  0  0  0  0  0  0  0  0  0  0  0
   35.9667   23.7976   43.7063 H   0  0  0  0  0  0  0  0  0  0  0  0
   37.6247   25.1695   43.5844 C   0  0  0  0  0  0  0  0  0  0  0  0
   38.1780   26.3772   43.9873 C   0  0  0  0  0  0  0  0  0  0  0  0
   37.4047   27.1048   44.8531 C   0  0  0  0  0  0  0  0  0  0  0  0
   37.8324   28.3348   45.3402 C   0  0  0  0  0  0  0  0  0  0  0  0
   34.4422   27.2123   46.5854 H   0  0  0  0  0  0  0  0  0  0  0  0
   38.1967   24.5504   42.8962 H   0  0  0  0  0  0  0  0  0  0  0  0
   39.1400   26.7517   43.6673 H   0  0  0  0  0  0  0  0  0  0  0  0
   38.8241   28.6464   44.9665 H   0  0  0  0  0  0  0  0  0  0  0  0
  2  1  2  0
  3  2  1  0
  4  3  2  0
  4  5  1  0
  5  6  2  0
  6  1  1  0
  7  5  1  0
  7  8  1  0
  9  8  1  0
 10 11  1  0
 10  9  1  0
 11  7  1  0
 12  2  1  0
 12 13  2  0
 13 14  1  0
 15 14  2  0
 16 15  1  0
 17 16  2  0
 18 17  1  0
 19 18  2  0
 19 20  1  0
 20 21  2  0
 21 16  1  0
 21 12  1  0
  1 22  1  0
  3 23  1  0
  8 24  1  0
  8 25  1  0
  9 26  1  0
  9 27  1  0
 10 28  1  0
 10 29  1  0
 11 30  1  0
 11 31  1  0
 14 32  1  0
 17 33  1  0
 18 34  1  0
 19 35  1  0
 36 37  2  0
 37 38  1  0
 37 39  1  0
 39 40  2  0
 40 41  1  0
 41 42  2  0
 42 43  1  0
 42 44  1  0
 44 45  2  0
 45 46  1  0
 46 47  2  0
 47 36  1  0
 46 40  1  0
 39 48  1  0
 44 49  1  0
 45 50  1  0
 47 51  1  0
 20 36  1  0
M  ISO  8  22  14  23  14  24  13  25  13  26  13  27  13  28  13  29  13
M  ISO  8  30  13  31  13  32  14  33  14  34  14  35  14  38  16  43  16
M  END
>  <DihAtoms>  (1) 
18,19,35,36

>  <DihDeg>  (1) 
108.04480289624584

$$$$
