
 OpenBabel03272510203D

 39 43  0  0  0  0  0  0  0  0999 V2000
   32.7700   29.3680   46.8420 C   0  0  0  0  0  0  0  0  0  0  0  0
   31.8700   28.3400   46.6800 C   0  0  0  0  0  0  0  0  0  0  0  0
   30.8080   28.3950   45.7880 C   0  0  0  0  0  0  0  0  0  0  0  0
   30.6380   29.4980   45.0370 N   0  0  0  0  0  0  0  0  0  0  0  0
   31.5100   30.5000   45.1890 C   0  0  0  0  0  0  0  0  0  0  0  0
   32.5230   30.4280   46.0520 N   0  0  0  0  0  0  0  0  0  0  0  0
   32.0140   27.4380   47.2980 H   0  0  0  0  0  0  0  0  0  0  0  0
   30.1650   27.5180   45.7540 H   0  0  0  0  0  0  0  0  0  0  0  0
   31.3420   31.7050   44.3840 C   0  0  0  0  0  0  0  0  0  0  0  0
   32.4110   32.5710   44.1730 C   0  0  0  0  0  0  0  0  0  0  0  0
   33.3640   32.3230   44.6250 H   0  0  0  0  0  0  0  0  0  0  0  0
   32.3570   33.7210   43.4380 C   0  0  0  0  0  3  0  0  0  0  0  0
   31.1440   34.0400   42.8620 C   0  0  0  0  0  0  0  0  0  0  0  0
   31.0640   35.1680   42.1320 N   0  0  0  0  0  0  0  0  0  0  0  0
   29.9260   35.5660   41.5300 C   0  0  0  0  0  0  0  0  0  0  0  0
   29.8990   36.4690   40.9570 H   0  0  0  0  0  0  0  0  0  0  0  0
   28.8070   34.7580   41.6880 C   0  0  0  0  0  3  0  0  0  0  0  0
   28.8430   33.5820   42.4350 C   0  0  0  0  0  3  0  0  0  0  0  0
   30.0360   33.2230   43.0290 C   0  0  0  0  0  0  0  0  0  0  0  0
   30.1680   32.0700   43.7910 C   0  0  0  0  0  3  0  0  0  0  0  0
   37.4530   29.1770   50.8050 Br  0  0  0  0  0  0  0  0  0  0  0  0
   36.0170   29.2720   49.5560 C   0  0  0  0  0  0  0  0  0  0  0  0
   35.9820   30.2780   48.5840 C   0  0  0  0  0  0  0  0  0  0  0  0
   34.9240   30.2940   47.7160 C   0  0  0  0  0  0  0  0  0  0  0  0
   33.8960   29.3580   47.7600 C   0  0  0  0  0  0  0  0  0  0  0  0
   33.9530   28.3880   48.7150 C   0  0  0  0  0  0  0  0  0  0  0  0
   35.0080   28.3580   49.5970 C   0  0  0  0  0  0  0  0  0  0  0  0
   34.8320   31.0470   46.9350 H   0  0  0  0  0  0  0  0  0  0  0  0
   33.2120   27.6100   48.8450 H   0  0  0  0  0  0  0  0  0  0  0  0
   35.0680   27.5860   50.3680 H   0  0  0  0  0  0  0  0  0  0  0  0
   38.0200   33.1790   49.4360 C   0  0  0  0  0  0  0  0  0  0  0  0
   39.0220   33.1930   48.4200 C   0  0  0  0  0  0  0  0  0  0  0  0
   38.9690   32.1970   47.4650 C   0  0  0  0  0  0  0  0  0  0  0  0
   37.9760   31.2540   47.5260 N   0  0  0  0  0  0  0  0  0  0  0  0
   37.0380   31.2710   48.5080 C   0  0  0  0  0  0  0  0  0  0  0  0
   37.0730   32.2400   49.4540 N   0  0  0  0  0  0  0  0  0  0  0  0
   38.0970   33.9840   50.1730 H   0  0  0  0  0  0  0  0  0  0  0  0
   39.8100   33.8970   48.3270 H   0  0  0  0  0  0  0  0  0  0  0  0
   39.6550   32.0910   46.6520 H   0  0  0  0  0  0  0  0  0  0  0  0
  1 25  1  0  0  0  0
  2  1  1  0  0  0  0
  2  7  1  0  0  0  0
  3  2  2  0  0  0  0
  4  5  2  0  0  0  0
  4  3  1  0  0  0  0
  5  6  1  0  0  0  0
  6  1  2  0  0  0  0
  8  3  1  0  0  0  0
  9  5  1  0  0  0  0
 10  9  1  0  0  0  0
 10 11  1  0  0  0  0
 12 10  2  0  0  0  0
 13 19  1  0  0  0  0
 13 12  1  0  0  0  0
 14 13  2  0  0  0  0
 15 17  2  0  0  0  0
 15 14  1  0  0  0  0
 16 15  1  0  0  0  0
 17 18  1  0  0  0  0
 18 19  2  0  0  0  0
 19 20  1  0  0  0  0
 20  9  2  0  0  0  0
 22 27  1  0  0  0  0
 22 21  1  0  0  0  0
 23 22  2  0  0  0  0
 24 25  2  0  0  0  0
 24 23  1  0  0  0  0
 25 26  1  0  0  0  0
 26 29  1  0  0  0  0
 26 27  2  0  0  0  0
 27 30  1  0  0  0  0
 28 24  1  0  0  0  0
 31 36  1  0  0  0  0
 31 37  1  0  0  0  0
 32 31  2  0  0  0  0
 33 34  2  0  0  0  0
 33 32  1  0  0  0  0
 34 35  1  0  0  0  0
 35 23  1  0  0  0  0
 35 36  2  0  0  0  0
 38 32  1  0  0  0  0
 39 33  1  0  0  0  0
M  END
>  <minimizedAffinity>
-7.0831461

>  <minimizedRMSD>
0.69008255

$$$$
