REMARK  Name = 
REMARK  2 active torsions:
REMARK  status: ('A' for Active; 'I' for Inactive)
REMARK    1  A    between atoms: C_2  and  C_8
REMARK    2  A    between atoms: C_3  and  C_15
REMARK                            x       y       z     vdW  Elec       q    Type
REMARK                         _______ _______ _______ _____ _____    ______ ____
ROOT
ATOM      1  C   UNL     1      35.609  29.023  50.186  0.00  0.00    +0.000 A 
ATOM      2  C   UNL     1      36.280  30.155  49.655  0.00  0.00    +0.000 A 
ATOM      3  C   UNL     1      36.053  30.512  48.336  0.00  0.00    +0.000 A 
ATOM      4  N   UNL     1      35.174  29.735  47.603  0.00  0.00    +0.000 NA
ATOM      5  C   UNL     1      34.553  28.669  48.133  0.00  0.00    +0.000 A 
ATOM      6  N   UNL     1      34.763  28.317  49.398  0.00  0.00    +0.000 NA
ATOM      7  N   UNL     1      33.684  28.002  47.240  0.00  0.00    +0.000 N 
ATOM      8  H   UNL     1      35.816  28.783  51.214  0.00  0.00    +0.000 HD
ATOM      9  H   UNL     1      33.597  26.944  47.232  0.00  0.00    +0.000 HD
ATOM     10  H   UNL     1      33.083  28.473  46.544  0.00  0.00    +0.000 HD
ENDROOT
BRANCH   3  11
ATOM     11  C   UNL     1      36.667  31.587  47.590  0.00  0.00    +0.000 A 
ATOM     12  C   UNL     1      37.398  32.712  47.851  0.00  0.00    +0.000 A 
ATOM     13  H   UNL     1      37.518  32.925  48.886  0.00  0.00    +0.000 HD
ATOM     14  C   UNL     1      37.909  33.536  46.881  0.00  0.00    +0.000 A 
ATOM     15  C   UNL     1      37.724  33.296  45.538  0.00  0.00    +0.000 A 
ATOM     16  N   UNL     1      38.263  34.161  44.691  0.00  0.00    +0.000 NA
ATOM     17  C   UNL     1      38.111  33.974  43.349  0.00  0.00    +0.000 A 
ATOM     18  H   UNL     1      38.513  34.622  42.574  0.00  0.00    +0.000 HD
ATOM     19  C   UNL     1      37.384  32.862  42.967  0.00  0.00    +0.000 A 
ATOM     20  C   UNL     1      36.824  31.963  43.864  0.00  0.00    +0.000 A 
ATOM     21  C   UNL     1      36.992  32.175  45.216  0.00  0.00    +0.000 A 
ATOM     22  C   UNL     1      36.487  31.359  46.215  0.00  0.00    +0.000 A 
ENDBRANCH   3  11
BRANCH   2  23
ATOM     23  C   UNL     1      37.219  30.909  50.527  0.00  0.00    +0.000 C 
ATOM     24  F   UNL     1      38.533  30.798  50.096  0.00  0.00    +0.000 F 
ATOM     25  F   UNL     1      36.854  32.220  50.532  0.00  0.00    +0.000 F 
ATOM     26  F   UNL     1      37.190  30.453  51.838  0.00  0.00    +0.000 F 
ENDBRANCH   2  23
TORSDOF 2
