
 OpenBabel03272505273D

 34 37  0  0  0  0  0  0  0  0999 V2000
   37.4660   31.0670   46.9900 N   0  0  0  0  0  0  0  0  0  0  0  0
   36.9580   30.6540   45.7970 C   0  0  0  0  0  0  0  0  0  0  0  0
   37.4720   31.0790   44.5830 C   0  0  0  0  0  0  0  0  0  0  0  0
   38.5600   31.9710   44.6270 C   0  0  0  0  0  0  0  0  0  0  0  0
   39.0560   32.3810   43.5530 O   0  0  0  0  0  0  0  0  0  0  0  0
   39.0710   32.3870   45.8190 N   0  0  0  0  0  0  0  0  0  0  0  0
   38.4870   31.9050   46.9220 C   0  0  0  0  0  0  0  0  0  0  0  0
   38.9820   32.3110   47.9980 O   0  0  0  0  0  0  0  0  0  0  0  0
   36.1350   29.9780   45.7520 H   0  0  0  0  0  0  0  0  0  0  0  0
   36.9240   30.6340   43.3030 C   0  0  0  0  0  0  0  0  0  0  0  0
   35.8440   31.3820   42.8230 C   0  0  0  0  0  0  0  0  0  0  0  0
   35.4230   32.2370   43.3410 H   0  0  0  0  0  0  0  0  0  0  0  0
   35.2240   31.0740   41.6180 C   0  0  0  0  0  3  0  0  0  0  0  0
   35.6930   30.0010   40.8890 C   0  0  0  0  0  0  0  0  0  0  0  0
   35.1220   29.6520   39.6990 N   0  0  0  0  0  0  0  0  0  0  0  0
   35.5810   28.6050   38.9880 C   0  0  0  0  0  0  0  0  0  0  0  0
   35.0220   28.4560   38.0640 H   0  0  0  0  0  0  0  0  0  0  0  0
   36.6480   27.8530   39.4470 C   0  0  0  0  0  3  0  0  0  0  0  0
   37.2440   28.1850   40.6490 C   0  0  0  0  0  3  0  0  0  0  0  0
   36.7710   29.2580   41.3730 C   0  0  0  0  0  0  0  0  0  0  0  0
   37.3930   29.5580   42.5700 C   0  0  0  0  0  3  0  0  0  0  0  0
   37.1760   29.6230   50.3950 C   0  0  0  0  0  0  0  0  0  0  0  0
   37.7170   30.0520   49.1760 C   0  0  0  0  0  0  0  0  0  0  0  0
   36.9360   30.6300   48.2070 C   0  0  0  0  0  0  0  0  0  0  0  0
   35.6120   30.7720   48.4670 N   0  0  0  0  0  0  0  0  0  0  0  0
   35.0560   30.3650   49.6410 C   0  0  0  0  0  0  0  0  0  0  0  0
   35.8350   29.7910   50.6060 N   0  0  0  0  0  0  0  0  0  0  0  0
   37.7360   29.1630   51.1960 H   0  0  0  0  0  0  0  0  0  0  0  0
   38.7570   29.8500   49.1480 H   0  0  0  0  0  0  0  0  0  0  0  0
   33.9930   30.5220   49.7520 H   0  0  0  0  0  0  0  0  0  0  0  0
   40.1900   33.3010   45.8570 C   0  0  0  0  0  0  0  0  0  0  0  0
   40.0230   34.2750   44.9150 F   0  0  0  0  0  0  0  0  0  0  0  0
   41.4040   32.6860   45.5910 F   0  0  0  0  0  0  0  0  0  0  0  0
   40.2250   33.9140   47.1030 F   0  0  0  0  0  0  0  0  0  0  0  0
  1 24  1  0  0  0  0
  2  1  1  0  0  0  0
  3  4  1  0  0  0  0
  3  2  2  0  0  0  0
  4  6  1  0  0  0  0
  5  4  2  0  0  0  0
  6 31  1  0  0  0  0
  6  7  1  0  0  0  0
  7  1  1  0  0  0  0
  7  8  2  0  0  0  0
  9  2  1  0  0  0  0
 10  3  1  0  0  0  0
 11 10  1  0  0  0  0
 11 12  1  0  0  0  0
 13 11  2  0  0  0  0
 14 20  1  0  0  0  0
 14 13  1  0  0  0  0
 15 14  2  0  0  0  0
 16 18  2  0  0  0  0
 16 15  1  0  0  0  0
 17 16  1  0  0  0  0
 18 19  1  0  0  0  0
 19 20  2  0  0  0  0
 20 21  1  0  0  0  0
 21 10  2  0  0  0  0
 22 27  1  0  0  0  0
 22 28  1  0  0  0  0
 23 22  2  0  0  0  0
 24 25  2  0  0  0  0
 24 23  1  0  0  0  0
 25 26  1  0  0  0  0
 26 30  1  0  0  0  0
 26 27  2  0  0  0  0
 29 23  1  0  0  0  0
 31 34  1  0  0  0  0
 32 31  1  0  0  0  0
 33 31  1  0  0  0  0
M  END
>  <minimizedAffinity>
-6.13559484

>  <minimizedRMSD>
1.04416001

$$$$
