
 OpenBabel03272508553D

 41 45  0  0  1  0  0  0  0  0999 V2000
   39.0780   31.4840   43.2120 C   0  0  0  0  0  0  0  0  0  0  0  0
   40.1880   30.6960   43.3540 C   0  0  0  0  0  0  0  0  0  0  0  0
   40.8810   30.3100   42.2140 C   0  0  0  0  0  0  0  0  0  0  0  0
   40.4090   30.7460   41.0140 C   0  0  0  0  0  0  0  0  0  0  0  0
   39.2910   31.5430   40.8530 C   0  0  0  0  0  0  0  0  0  0  0  0
   38.6760   31.8720   42.0030 N   0  0  0  0  0  0  0  0  0  0  0  0
   40.5930   30.3300   44.2970 H   0  0  0  0  0  0  0  0  0  0  0  0
   41.7660   29.6840   42.2950 H   0  0  0  0  0  0  0  0  0  0  0  0
   40.9560   30.4390   40.1340 H   0  0  0  0  0  0  0  0  0  0  0  0
   38.7830   32.0110   39.5720 C   0  0  0  0  0  0  0  0  0  0  0  0
   39.3820   33.0230   38.8560 C   0  0  0  0  0  0  0  0  0  0  0  0
   40.2690   33.5170   39.2260 H   0  0  0  0  0  0  0  0  0  0  0  0
   38.9280   33.4890   37.6410 C   0  0  0  0  0  3  0  0  0  0  0  0
   37.7800   32.8700   37.1350 C   0  0  0  0  0  0  0  0  0  0  0  0
   37.2340   33.2370   35.9510 N   0  0  0  0  0  0  0  0  0  0  0  0
   36.1350   32.6590   35.4440 C   0  0  0  0  0  0  0  0  0  0  0  0
   35.7750   33.0330   34.4750 H   0  0  0  0  0  0  0  0  0  0  0  0
   35.4840   31.6320   36.1210 C   0  0  0  0  0  3  0  0  0  0  0  0
   36.0130   31.2310   37.3310 C   0  0  0  0  0  3  0  0  0  0  0  0
   37.1440   31.8440   37.8250 C   0  0  0  0  0  0  0  0  0  0  0  0
   37.6540   31.4170   39.0510 C   0  0  0  0  0  3  0  0  0  0  0  0
   38.3460   31.8750   44.4250 C   0  0  0  0  0  0  0  0  0  0  0  0
   37.2370   32.4850   44.3530 O   0  0  0  0  0  0  0  0  0  0  0  0
   38.9130   31.5500   45.7040 N   0  0  0  0  0  0  0  0  0  0  0  0
   39.8870   31.1960   45.8360 H   0  0  0  0  0  0  0  0  0  0  0  0
   38.4400   31.0730   48.1040 C   0  0  2  0  0  0  0  0  0  0  0  0
   38.7730   32.5030   48.0220 C   0  0  0  0  0  0  0  0  0  0  0  0
   38.0710   31.7270   46.8760 C   0  0  1  0  0  0  0  0  0  0  0  0
   39.3570   30.4230   48.1540 H   0  0  0  0  0  0  0  0  0  0  0  0
   39.7960   32.8310   47.8410 H   0  0  0  0  0  0  0  0  0  0  0  0
   38.1140   33.1820   48.6170 H   0  0  0  0  0  0  0  0  0  0  0  0
   37.0140   32.0320   46.7040 H   0  0  0  0  0  0  0  0  0  0  0  0
   35.1130   30.2270   49.4590 C   0  0  0  0  0  0  0  0  0  0  0  0
   35.4410   29.5510   50.6790 C   0  0  0  0  0  0  0  0  0  0  0  0
   36.8430   29.4130   51.0030 C   0  0  0  0  0  0  0  0  0  0  0  0
   37.7760   29.9210   50.1550 N   0  0  0  0  0  0  0  0  0  0  0  0
   37.3810   30.5530   49.0090 C   0  0  0  0  0  0  0  0  0  0  0  0
   36.0630   30.7230   48.6330 N   0  0  0  0  0  0  0  0  0  0  0  0
   34.0800   30.3370   49.2050 H   0  0  0  0  0  0  0  0  0  0  0  0
   34.6730   29.1670   51.3160 H   0  0  0  0  0  0  0  0  0  0  0  0
   37.0800   28.9090   51.9110 H   0  0  0  0  0  0  0  0  0  0  0  0
  1  2  1  0  0  0  0
  1 22  1  0  0  0  0
  2  7  1  0  0  0  0
  3  8  1  0  0  0  0
  3  2  2  0  0  0  0
  4  3  1  0  0  0  0
  5  4  2  0  0  0  0
  5  6  1  0  0  0  0
  6  1  2  0  0  0  0
  9  4  1  0  0  0  0
 10  5  1  0  0  0  0
 11 12  1  0  0  0  0
 11 10  2  0  0  0  0
 13 11  1  0  0  0  0
 14 13  2  0  0  0  0
 14 20  1  0  0  0  0
 15 14  1  0  0  0  0
 16 15  2  0  0  0  0
 16 18  1  0  0  0  0
 17 16  1  0  0  0  0
 18 19  2  0  0  0  0
 19 20  1  0  0  0  0
 20 21  2  0  0  0  0
 21 10  1  0  0  0  0
 22 24  1  0  0  0  0
 23 22  2  0  0  0  0
 24 25  1  0  0  0  0
 24 28  1  0  0  0  0
 26 29  1  6  0  0  0
 26 37  1  0  0  0  0
 27 26  1  0  0  0  0
 27 31  1  0  0  0  0
 28 32  1  6  0  0  0
 28 27  1  0  0  0  0
 28 26  1  0  0  0  0
 30 27  1  0  0  0  0
 33 34  1  0  0  0  0
 34 35  2  0  0  0  0
 34 40  1  0  0  0  0
 35 41  1  0  0  0  0
 36 35  1  0  0  0  0
 37 36  2  0  0  0  0
 38 37  1  0  0  0  0
 38 33  2  0  0  0  0
 39 33  1  0  0  0  0
M  END
>  <minimizedAffinity>
-5.00682211

>  <minimizedRMSD>
0.689237118

$$$$
