
     RDKit          3D

 38 41  0  0  0  0  0  0  0  0999 V2000
   34.6679   28.2861   49.5812 C   0  0  0  0  0  0  0  0  0  0  0  0
   37.2874   30.1889   51.3966 C   0  0  0  0  0  0  0  0  0  0  0  0
   38.0620   30.6989   50.3361 C   0  0  0  0  0  0  0  0  0  0  0  0
   37.6811   30.3872   49.0120 C   0  0  0  0  0  0  0  0  0  0  0  0
   36.5853   29.6101   48.8251 N   0  0  0  0  0  0  0  0  0  0  0  0
   35.8649   29.1380   49.8757 C   0  0  0  0  0  0  0  0  0  0  0  0
   36.2180   29.4274   51.1203 N   0  0  0  0  0  0  0  0  0  0  0  0
   34.4480   28.2075   48.1068 C   0  0  0  0  0  0  0  0  0  0  0  0
   32.9587   28.2570   47.8836 C   0  0  0  0  0  0  0  0  0  0  0  0
   32.0189   27.5903   48.6252 C   0  0  0  0  0  0  0  0  0  0  0  0
   30.7477   27.8616   48.1452 C   0  0  0  0  0  0  0  0  0  0  0  0
   30.9597   28.6976   47.1113 N   0  0  0  0  0  0  0  0  0  0  0  0
   32.2485   28.9352   46.9499 N   0  0  0  0  0  0  0  0  0  0  0  0
   34.8334   27.2881   50.0365 H   0  0  0  0  0  0  0  0  0  0  0  0
   33.8051   28.7536   50.0930 H   0  0  0  0  0  0  0  0  0  0  0  0
   37.5731   30.4234   52.4119 H   0  0  0  0  0  0  0  0  0  0  0  0
   38.9215   31.3083   50.4754 H   0  0  0  0  0  0  0  0  0  0  0  0
   38.2196   30.7374   48.1425 H   0  0  0  0  0  0  0  0  0  0  0  0
   34.8692   27.2544   47.7082 H   0  0  0  0  0  0  0  0  0  0  0  0
   34.8576   29.0628   47.5365 H   0  0  0  0  0  0  0  0  0  0  0  0
   32.1574   26.9251   49.4810 H   0  0  0  0  0  0  0  0  0  0  0  0
   29.7485   27.5556   48.4245 H   0  0  0  0  0  0  0  0  0  0  0  0
   30.0965   29.3538   46.1888 C   0  0  0  0  0  0  0  0  0  0  0  0
   29.0707   30.1910   46.5761 C   0  0  0  0  0  0  0  0  0  0  0  0
   28.9200   30.3523   47.6253 H   0  0  0  0  0  0  0  0  0  0  0  0
   28.3038   30.7667   45.5721 C   0  0  0  0  0  0  0  0  0  0  0  0
   28.5568   30.5126   44.2451 C   0  0  0  0  0  0  0  0  0  0  0  0
   27.7925   31.0889   43.3060 N   0  0  0  0  0  0  0  0  0  0  0  0
   28.0231   30.8533   41.9950 C   0  0  0  0  0  0  0  0  0  0  0  0
   27.3770   31.3423   41.2498 H   0  0  0  0  0  0  0  0  0  0  0  0
   29.0438   30.0189   41.5738 C   0  0  0  0  0  0  0  0  0  0  0  0
   29.8443   29.4138   42.5174 C   0  0  0  0  0  0  0  0  0  0  0  0
   29.5788   29.6778   43.8421 C   0  0  0  0  0  0  0  0  0  0  0  0
   30.3457   29.1022   44.8485 C   0  0  0  0  0  0  0  0  0  0  0  0
   27.5000   31.4233   45.8902 H   0  0  0  0  0  0  0  0  0  0  0  0
   29.2196   29.8373   40.5224 H   0  0  0  0  0  0  0  0  0  0  0  0
   30.6727   28.7400   42.2613 H   0  0  0  0  0  0  0  0  0  0  0  0
   31.1595   28.4381   44.5441 H   0  0  0  0  0  0  0  0  0  0  0  0
  1  6  1  0
  3  2  2  0
  4  3  1  0
  5  4  2  0
  5  6  1  0
  6  7  2  0
  7  2  1  0
  8  1  1  0
  9  8  1  0
  9 10  1  0
 11 10  2  0
 12 11  1  0
 13 12  1  0
 13  9  2  0
  1 14  1  0
  1 15  1  0
  2 16  1  0
  3 17  1  0
  4 18  1  0
  8 19  1  0
  8 20  1  0
 10 21  1  0
 11 22  1  0
 23 24  2  0
 24 25  1  0
 24 26  1  0
 26 27  2  0
 27 28  1  0
 28 29  2  0
 29 30  1  0
 29 31  1  0
 31 32  2  0
 32 33  1  0
 33 34  2  0
 34 23  1  0
 33 27  1  0
 26 35  1  0
 31 36  1  0
 32 37  1  0
 34 38  1  0
 12 23  1  0
M  ISO  8  14   8  15   8  16  14  17  14  18  14  19   8  20   8  21  14
M  ISO  3  22  14  25  16  30  16
M  END
>  <DihAtoms>  (1) 
10,11,22,23

>  <DihDeg>  (1) 
-63.36275992869084

$$$$
