
     RDKit          3D

 47 51  0  0  0  0  0  0  0  0999 V2000
   37.3715   31.0667   47.1433 N   0  0  0  0  0  0  0  0  0  0  0  0
   36.7792   30.7225   45.9672 C   0  0  0  0  0  0  0  0  0  0  0  0
   37.2376   31.1882   44.7509 C   0  0  0  0  0  0  0  0  0  0  0  0
   38.3516   32.0405   44.7745 C   0  0  0  0  0  0  0  0  0  0  0  0
   38.8114   32.4947   43.6923 O   0  0  0  0  0  0  0  0  0  0  0  0
   38.9448   32.3847   45.9580 N   0  0  0  0  0  0  0  0  0  0  0  0
   38.4077   31.8699   47.0545 C   0  0  0  0  0  0  0  0  0  0  0  0
   38.9757   32.2058   48.1197 O   0  0  0  0  0  0  0  0  0  0  0  0
   37.2535   29.4801   50.5073 C   0  0  0  0  0  0  0  0  0  0  0  0
   37.7217   29.9702   49.2802 C   0  0  0  0  0  0  0  0  0  0  0  0
   36.8894   30.5822   48.3650 C   0  0  0  0  0  0  0  0  0  0  0  0
   35.6003   30.6882   48.7049 N   0  0  0  0  0  0  0  0  0  0  0  0
   35.1026   30.2269   49.8847 C   0  0  0  0  0  0  0  0  0  0  0  0
   35.9427   29.6255   50.7745 N   0  0  0  0  0  0  0  0  0  0  0  0
   36.6484   30.8563   43.4619 C   0  0  0  0  0  0  0  0  0  0  0  0
   37.0167   29.7653   42.7278 C   0  0  0  0  0  0  0  0  0  0  0  0
   36.4744   29.4287   41.5045 C   0  0  0  0  0  0  0  0  0  0  0  0
   35.4788   30.2612   40.9788 C   0  0  0  0  0  0  0  0  0  0  0  0
   35.1359   31.3536   41.7532 C   0  0  0  0  0  0  0  0  0  0  0  0
   35.7011   31.6184   42.9261 N   0  0  0  0  0  0  0  0  0  0  0  0
   40.0867   33.2596   45.9686 C   0  0  0  0  0  0  0  0  0  0  0  0
   39.9631   34.2250   45.0346 F   0  0  0  0  0  0  0  0  0  0  0  0
   41.2868   32.6091   45.6797 F   0  0  0  0  0  0  0  0  0  0  0  0
   40.1795   33.8677   47.2149 F   0  0  0  0  0  0  0  0  0  0  0  0
   35.9240   30.0666   45.9650 H   0  0  0  0  0  0  0  0  0  0  0  0
   37.9071   29.0010   51.2229 H   0  0  0  0  0  0  0  0  0  0  0  0
   38.7640   29.8386   49.1011 H   0  0  0  0  0  0  0  0  0  0  0  0
   34.0563   30.3219   50.1419 H   0  0  0  0  0  0  0  0  0  0  0  0
   37.7813   29.0915   43.0907 H   0  0  0  0  0  0  0  0  0  0  0  0
   36.7760   28.5581   40.9303 H   0  0  0  0  0  0  0  0  0  0  0  0
   35.0410   30.0282   40.0371 H   0  0  0  0  0  0  0  0  0  0  0  0
   34.1082   32.2820   41.2924 C   0  0  0  0  0  0  0  0  0  0  0  0
   32.7795   32.0677   41.6262 C   0  0  0  0  0  0  0  0  0  0  0  0
   32.5128   31.1993   42.2356 H   0  0  0  0  0  0  0  0  0  0  0  0
   31.7094   32.8591   41.2616 C   0  0  0  0  0  0  0  0  0  0  0  0
   31.9846   33.9703   40.4914 C   0  0  0  0  0  0  0  0  0  0  0  0
   30.9964   34.7927   40.0946 N   0  0  0  0  0  0  0  0  0  0  0  0
   31.2329   35.8886   39.3401 C   0  0  0  0  0  0  0  0  0  0  0  0
   30.4300   36.5454   39.0251 H   0  0  0  0  0  0  0  0  0  0  0  0
   32.5586   36.1390   38.9831 C   0  0  0  0  0  0  0  0  0  0  0  0
   33.6175   35.3299   39.3608 C   0  0  0  0  0  0  0  0  0  0  0  0
   33.2909   34.2316   40.1300 C   0  0  0  0  0  0  0  0  0  0  0  0
   34.3258   33.4057   40.5225 C   0  0  0  0  0  0  0  0  0  0  0  0
   30.7065   32.6283   41.5590 H   0  0  0  0  0  0  0  0  0  0  0  0
   32.7511   37.0201   38.3761 H   0  0  0  0  0  0  0  0  0  0  0  0
   34.6215   35.6067   39.0331 H   0  0  0  0  0  0  0  0  0  0  0  0
   35.3317   33.6259   40.2316 H   0  0  0  0  0  0  0  0  0  0  0  0
  1 11  1  0
  2  1  1  0
  3  4  1  0
  3  2  2  0
  4  6  1  0
  5  4  2  0
  6 21  1  0
  6  7  1  0
  7  1  1  0
  7  8  2  0
  9 14  2  0
 10  9  1  0
 11 12  1  0
 11 10  2  0
 12 13  2  0
 13 14  1  0
 15  3  1  0
 16 15  2  0
 17 16  1  0
 18 17  2  0
 18 19  1  0
 19 20  2  0
 20 15  1  0
 21 24  1  0
 22 21  1  0
 23 21  1  0
  2 25  1  0
  9 26  1  0
 10 27  1  0
 13 28  1  0
 16 29  1  0
 17 30  1  0
 18 31  1  0
 32 33  2  0
 33 34  1  0
 33 35  1  0
 35 36  2  0
 36 37  1  0
 37 38  2  0
 38 39  1  0
 38 40  1  0
 40 41  2  0
 41 42  1  0
 42 43  2  0
 43 32  1  0
 42 36  1  0
 35 44  1  0
 40 45  1  0
 41 46  1  0
 43 47  1  0
 19 32  1  0
M  ISO  8  25  14  26  14  27  14  28  14  29  14  30  14  31  14  34  16
M  ISO  1  39  16
M  END
>  <DihAtoms>  (1) 
17,18,31,32

>  <DihDeg>  (1) 
179.9995325423338

$$$$
