
 OpenBabel03272505273D

 34 37  0  0  0  0  0  0  0  0999 V2000
   37.3720   31.0680   47.1460 N   0  0  0  0  0  0  0  0  0  0  0  0
   36.7660   30.7630   45.9670 C   0  0  0  0  0  0  0  0  0  0  0  0
   37.2140   31.2530   44.7520 C   0  0  0  0  0  0  0  0  0  0  0  0
   38.3430   32.0940   44.7790 C   0  0  0  0  0  0  0  0  0  0  0  0
   38.7830   32.5590   43.7040 O   0  0  0  0  0  0  0  0  0  0  0  0
   38.9520   32.4010   45.9580 N   0  0  0  0  0  0  0  0  0  0  0  0
   38.4230   31.8660   47.0640 C   0  0  0  0  0  0  0  0  0  0  0  0
   39.0090   32.1730   48.1270 O   0  0  0  0  0  0  0  0  0  0  0  0
   35.9110   30.1270   45.9340 H   0  0  0  0  0  0  0  0  0  0  0  0
   36.5610   30.9240   43.4870 C   0  0  0  0  0  0  0  0  0  0  0  0
   36.9810   29.7320   42.8890 C   0  0  0  0  0  0  0  0  0  0  0  0
   37.7370   29.0790   43.3110 H   0  0  0  0  0  0  0  0  0  0  0  0
   36.4470   29.2940   41.6840 C   0  0  0  0  0  3  0  0  0  0  0  0
   35.4780   30.0620   41.0710 C   0  0  0  0  0  0  0  0  0  0  0  0
   34.9180   29.6810   39.8880 N   0  0  0  0  0  0  0  0  0  0  0  0
   33.9720   30.4330   39.2920 C   0  0  0  0  0  0  0  0  0  0  0  0
   33.6260   29.9950   38.3550 H   0  0  0  0  0  0  0  0  0  0  0  0
   33.5430   31.6160   39.8680 C   0  0  0  0  0  3  0  0  0  0  0  0
   34.0950   32.0250   41.0670 C   0  0  0  0  0  3  0  0  0  0  0  0
   35.0620   31.2520   41.6740 C   0  0  0  0  0  0  0  0  0  0  0  0
   35.5900   31.6930   42.8720 C   0  0  0  0  0  3  0  0  0  0  0  0
   37.2640   29.4650   50.4910 C   0  0  0  0  0  0  0  0  0  0  0  0
   37.7400   29.9580   49.2690 C   0  0  0  0  0  0  0  0  0  0  0  0
   36.9060   30.5670   48.3650 C   0  0  0  0  0  0  0  0  0  0  0  0
   35.5940   30.6750   48.6930 N   0  0  0  0  0  0  0  0  0  0  0  0
   35.1000   30.2050   49.8710 C   0  0  0  0  0  0  0  0  0  0  0  0
   35.9320   29.6000   50.7710 N   0  0  0  0  0  0  0  0  0  0  0  0
   37.8680   28.9780   51.2420 H   0  0  0  0  0  0  0  0  0  0  0  0
   38.7810   29.7740   49.1830 H   0  0  0  0  0  0  0  0  0  0  0  0
   34.0420   30.3390   50.0390 H   0  0  0  0  0  0  0  0  0  0  0  0
   40.1120   33.2640   45.9790 C   0  0  0  0  0  0  0  0  0  0  0  0
   39.9790   34.2410   45.0350 F   0  0  0  0  0  0  0  0  0  0  0  0
   41.2940   32.5930   45.7020 F   0  0  0  0  0  0  0  0  0  0  0  0
   40.1890   33.8790   47.2220 F   0  0  0  0  0  0  0  0  0  0  0  0
  1 24  1  0  0  0  0
  2  1  1  0  0  0  0
  3  4  1  0  0  0  0
  3  2  2  0  0  0  0
  4  6  1  0  0  0  0
  5  4  2  0  0  0  0
  6 31  1  0  0  0  0
  6  7  1  0  0  0  0
  7  1  1  0  0  0  0
  7  8  2  0  0  0  0
  9  2  1  0  0  0  0
 10  3  1  0  0  0  0
 11 12  1  0  0  0  0
 11 10  1  0  0  0  0
 13 11  2  0  0  0  0
 14 20  1  0  0  0  0
 14 13  1  0  0  0  0
 15 14  2  0  0  0  0
 16 18  2  0  0  0  0
 16 15  1  0  0  0  0
 17 16  1  0  0  0  0
 18 19  1  0  0  0  0
 19 20  2  0  0  0  0
 20 21  1  0  0  0  0
 21 10  2  0  0  0  0
 22 27  1  0  0  0  0
 22 28  1  0  0  0  0
 23 22  2  0  0  0  0
 24 25  2  0  0  0  0
 24 23  1  0  0  0  0
 25 26  1  0  0  0  0
 26 30  1  0  0  0  0
 26 27  2  0  0  0  0
 29 23  1  0  0  0  0
 31 34  1  0  0  0  0
 32 31  1  0  0  0  0
 33 31  1  0  0  0  0
M  END
>  <minimizedAffinity>
-6.21829224

>  <minimizedRMSD>
0.539551318

$$$$
