
 OpenBabel03262522133D

 36 39  0  0  0  0  0  0  0  0999 V2000
   38.0770   25.1140   35.3360 C   0  0  0  0  0  0  0  0  0  0  0  0
   38.0660   26.4220   35.8750 C   0  0  0  0  0  0  0  0  0  0  0  0
   37.7910   27.5110   35.0740 C   0  0  0  0  0  0  0  0  0  0  0  0
   37.5350   27.2320   33.7390 C   0  0  0  0  0  0  0  0  0  0  0  0
   37.5520   25.9550   33.2440 C   0  0  0  0  0  0  0  0  0  0  0  0
   37.8210   24.8870   34.0270 N   0  0  0  0  0  0  0  0  0  0  0  0
   38.2720   26.5930   36.9250 H   0  0  0  0  0  0  0  0  0  0  0  0
   37.7720   28.5240   35.4420 H   0  0  0  0  0  0  0  0  0  0  0  0
   37.3150   28.0610   33.0730 H   0  0  0  0  0  0  0  0  0  0  0  0
   38.3710   24.0430   36.2470 C   0  0  0  0  0  0  0  0  0  0  0  0
   37.4980   23.5760   36.9700 O   0  0  0  0  0  0  0  0  0  0  0  0
   39.9250   22.5120   37.3920 C   0  0  0  0  0  0  0  0  0  0  0  0
   39.7040   23.4490   36.3680 C   0  0  0  0  0  0  0  0  0  0  0  0
   40.7590   23.7780   35.5070 C   0  0  0  0  0  0  0  0  0  0  0  0
   41.9700   23.1730   35.6960 N   0  0  0  0  0  0  0  0  0  0  0  0
   42.1490   22.2650   36.7020 C   0  0  0  0  0  0  0  0  0  0  0  0
   41.1480   21.9440   37.5300 N   0  0  0  0  0  0  0  0  0  0  0  0
   39.1420   22.2220   38.0840 H   0  0  0  0  0  0  0  0  0  0  0  0
   40.5400   24.4930   34.7500 H   0  0  0  0  0  0  0  0  0  0  0  0
   43.1240   21.7920   36.8370 H   0  0  0  0  0  0  0  0  0  0  0  0
   37.2000   25.6460   31.5130 S   0  0  0  0  0  0  0  0  0  0  0  0
   35.7400   24.5890   31.4670 C   0  0  0  0  0  0  0  0  0  0  0  0
   35.0080   24.8680   32.2720 H   0  0  0  0  0  0  0  0  0  0  0  0
   35.2670   24.7790   30.4550 H   0  0  0  0  0  0  0  0  0  0  0  0
   36.0170   23.1420   31.5530 C   0  0  0  0  0  0  0  0  0  0  0  0
   37.2930   22.7440   31.1190 C   0  0  0  0  0  0  0  0  0  0  0  0
   38.0110   23.4890   30.7740 H   0  0  0  0  0  0  0  0  0  0  0  0
   37.7550   21.4460   31.0810 C   0  0  0  0  0  3  0  0  0  0  0  0
   36.9010   20.4620   31.5000 C   0  0  0  0  0  0  0  0  0  0  0  0
   37.3310   19.1800   31.4650 N   0  0  0  0  0  0  0  0  0  0  0  0
   36.5610   18.1350   31.8510 C   0  0  0  0  0  0  0  0  0  0  0  0
   36.9560   17.1290   31.8020 H   0  0  0  0  0  0  0  0  0  0  0  0
   35.2990   18.4810   32.2860 C   0  0  0  0  0  3  0  0  0  0  0  0
   34.8380   19.7730   32.3320 C   0  0  0  0  0  3  0  0  0  0  0  0
   35.6460   20.8140   31.9320 C   0  0  0  0  0  0  0  0  0  0  0  0
   35.2020   22.1080   31.9650 C   0  0  0  0  0  3  0  0  0  0  0  0
  1  2  1  0  0  0  0
  1 10  1  0  0  0  0
  2  7  1  0  0  0  0
  3  8  1  0  0  0  0
  3  2  2  0  0  0  0
  4  3  1  0  0  0  0
  5  4  2  0  0  0  0
  5  6  1  0  0  0  0
  6  1  2  0  0  0  0
  9  4  1  0  0  0  0
 10 13  1  0  0  0  0
 10 11  2  0  0  0  0
 12 17  1  0  0  0  0
 12 18  1  0  0  0  0
 13 12  2  0  0  0  0
 14 15  2  0  0  0  0
 14 13  1  0  0  0  0
 15 16  1  0  0  0  0
 16 20  1  0  0  0  0
 16 17  2  0  0  0  0
 19 14  1  0  0  0  0
 21  5  1  0  0  0  0
 22 21  1  0  0  0  0
 22 25  1  0  0  0  0
 22 23  1  0  0  0  0
 24 22  1  0  0  0  0
 25 36  1  0  0  0  0
 26 25  2  0  0  0  0
 27 26  1  0  0  0  0
 28 26  1  0  0  0  0
 28 29  2  0  0  0  0
 29 35  1  0  0  0  0
 30 29  1  0  0  0  0
 30 31  2  0  0  0  0
 31 33  1  0  0  0  0
 32 31  1  0  0  0  0
 33 34  2  0  0  0  0
 35 36  2  0  0  0  0
 35 34  1  0  0  0  0
M  END
>  <minimizedAffinity>
-6.30287886

$$$$

 OpenBabel03262522133D

 36 39  0  0  0  0  0  0  0  0999 V2000
   37.7220   22.1780   35.4770 C   0  0  0  0  0  0  0  0  0  0  0  0
   36.6970   21.6530   36.2970 C   0  0  0  0  0  0  0  0  0  0  0  0
   35.6840   20.8890   35.7550 C   0  0  0  0  0  0  0  0  0  0  0  0
   35.7470   20.6830   34.3850 C   0  0  0  0  0  0  0  0  0  0  0  0
   36.7530   21.2030   33.6150 C   0  0  0  0  0  0  0  0  0  0  0  0
   37.7460   21.9510   34.1430 N   0  0  0  0  0  0  0  0  0  0  0  0
   36.6880   21.8410   37.3640 H   0  0  0  0  0  0  0  0  0  0  0  0
   34.8830   20.4700   36.3430 H   0  0  0  0  0  0  0  0  0  0  0  0
   34.9690   20.0870   33.9180 H   0  0  0  0  0  0  0  0  0  0  0  0
   38.7350   22.9600   36.1290 C   0  0  0  0  0  0  0  0  0  0  0  0
   39.4700   22.4570   36.9730 O   0  0  0  0  0  0  0  0  0  0  0  0
   38.1080   25.3220   36.4410 C   0  0  0  0  0  0  0  0  0  0  0  0
   38.9550   24.3770   35.8350 C   0  0  0  0  0  0  0  0  0  0  0  0
   39.9690   24.8230   34.9780 C   0  0  0  0  0  0  0  0  0  0  0  0
   40.0990   26.1660   34.7620 N   0  0  0  0  0  0  0  0  0  0  0  0
   39.2590   27.0570   35.3680 C   0  0  0  0  0  0  0  0  0  0  0  0
   38.2860   26.6420   36.1880 N   0  0  0  0  0  0  0  0  0  0  0  0
   37.3080   25.0290   37.1120 H   0  0  0  0  0  0  0  0  0  0  0  0
   40.5810   24.0680   34.5460 H   0  0  0  0  0  0  0  0  0  0  0  0
   39.3780   28.1270   35.1830 H   0  0  0  0  0  0  0  0  0  0  0  0
   36.7970   20.8940   31.8480 S   0  0  0  0  0  0  0  0  0  0  0  0
   35.6550   22.0670   31.0920 C   0  0  0  0  0  0  0  0  0  0  0  0
   35.4380   21.7930   30.0250 H   0  0  0  0  0  0  0  0  0  0  0  0
   34.7020   21.9840   31.6980 H   0  0  0  0  0  0  0  0  0  0  0  0
   36.0860   23.4770   31.1480 C   0  0  0  0  0  0  0  0  0  0  0  0
   35.0550   24.4280   31.0570 C   0  0  0  0  0  0  0  0  0  0  0  0
   34.0170   24.1040   30.9800 H   0  0  0  0  0  0  0  0  0  0  0  0
   35.2290   25.7950   31.0550 C   0  0  0  0  0  3  0  0  0  0  0  0
   36.5100   26.2670   31.1490 C   0  0  0  0  0  0  0  0  0  0  0  0
   36.7040   27.6060   31.1420 N   0  0  0  0  0  0  0  0  0  0  0  0
   37.9320   28.1720   31.2230 C   0  0  0  0  0  0  0  0  0  0  0  0
   38.0280   29.2490   31.2130 H   0  0  0  0  0  0  0  0  0  0  0  0
   38.9730   27.2730   31.3140 C   0  0  0  0  0  3  0  0  0  0  0  0
   38.8050   25.9110   31.3230 C   0  0  0  0  0  3  0  0  0  0  0  0
   37.5420   25.3670   31.2390 C   0  0  0  0  0  0  0  0  0  0  0  0
   37.3540   24.0120   31.2410 C   0  0  0  0  0  3  0  0  0  0  0  0
  1 10  1  0  0  0  0
  1  2  1  0  0  0  0
  2  7  1  0  0  0  0
  3  2  2  0  0  0  0
  3  8  1  0  0  0  0
  4  3  1  0  0  0  0
  5  6  1  0  0  0  0
  5  4  2  0  0  0  0
  6  1  2  0  0  0  0
  9  4  1  0  0  0  0
 10 11  2  0  0  0  0
 12 18  1  0  0  0  0
 13 10  1  0  0  0  0
 13 12  2  0  0  0  0
 14 13  1  0  0  0  0
 15 14  2  0  0  0  0
 15 16  1  0  0  0  0
 16 17  2  0  0  0  0
 17 12  1  0  0  0  0
 19 14  1  0  0  0  0
 20 16  1  0  0  0  0
 21  5  1  0  0  0  0
 22 25  1  0  0  0  0
 22 24  1  0  0  0  0
 22 21  1  0  0  0  0
 23 22  1  0  0  0  0
 25 36  1  0  0  0  0
 26 25  2  0  0  0  0
 27 26  1  0  0  0  0
 28 26  1  0  0  0  0
 28 29  2  0  0  0  0
 29 35  1  0  0  0  0
 30 29  1  0  0  0  0
 30 31  2  0  0  0  0
 31 33  1  0  0  0  0
 32 31  1  0  0  0  0
 33 34  2  0  0  0  0
 35 36  2  0  0  0  0
 35 34  1  0  0  0  0
M  END
>  <minimizedAffinity>
-6.15055704

$$$$

 OpenBabel03262522133D

 36 39  0  0  0  0  0  0  0  0999 V2000
   36.1290   28.6190   33.6140 C   0  0  0  0  0  0  0  0  0  0  0  0
   36.7030   28.2870   34.8630 C   0  0  0  0  0  0  0  0  0  0  0  0
   37.4240   27.1210   35.0180 C   0  0  0  0  0  0  0  0  0  0  0  0
   37.5380   26.3240   33.8880 C   0  0  0  0  0  0  0  0  0  0  0  0
   36.9720   26.6710   32.6910 C   0  0  0  0  0  0  0  0  0  0  0  0
   36.2660   27.8120   32.5360 N   0  0  0  0  0  0  0  0  0  0  0  0
   36.5880   28.9400   35.7200 H   0  0  0  0  0  0  0  0  0  0  0  0
   37.8790   26.8280   35.9520 H   0  0  0  0  0  0  0  0  0  0  0  0
   38.0980   25.3970   33.9670 H   0  0  0  0  0  0  0  0  0  0  0  0
   35.3970   29.8530   33.5480 C   0  0  0  0  0  0  0  0  0  0  0  0
   35.1020   30.3510   32.4660 O   0  0  0  0  0  0  0  0  0  0  0  0
   35.8750   31.4560   35.3570 C   0  0  0  0  0  0  0  0  0  0  0  0
   34.9620   30.5820   34.7410 C   0  0  0  0  0  0  0  0  0  0  0  0
   33.6810   30.4420   35.2870 C   0  0  0  0  0  0  0  0  0  0  0  0
   33.3630   31.1630   36.4040 N   0  0  0  0  0  0  0  0  0  0  0  0
   34.2750   32.0040   36.9760 C   0  0  0  0  0  0  0  0  0  0  0  0
   35.5030   32.1460   36.4630 N   0  0  0  0  0  0  0  0  0  0  0  0
   36.8790   31.6010   34.9730 H   0  0  0  0  0  0  0  0  0  0  0  0
   33.0290   29.7680   34.7840 H   0  0  0  0  0  0  0  0  0  0  0  0
   34.0030   32.5720   37.8690 H   0  0  0  0  0  0  0  0  0  0  0  0
   37.1610   25.6120   31.2550 S   0  0  0  0  0  0  0  0  0  0  0  0
   35.7060   24.5480   31.2060 C   0  0  0  0  0  0  0  0  0  0  0  0
   34.9370   24.8750   31.9560 H   0  0  0  0  0  0  0  0  0  0  0  0
   35.2830   24.6730   30.1630 H   0  0  0  0  0  0  0  0  0  0  0  0
   35.9810   23.1110   31.3960 C   0  0  0  0  0  0  0  0  0  0  0  0
   37.2600   22.6820   31.0010 C   0  0  0  0  0  0  0  0  0  0  0  0
   37.9810   23.4000   30.6100 H   0  0  0  0  0  0  0  0  0  0  0  0
   37.7200   21.3850   31.0590 C   0  0  0  0  0  3  0  0  0  0  0  0
   36.8610   20.4340   31.5390 C   0  0  0  0  0  0  0  0  0  0  0  0
   37.2890   19.1520   31.5980 N   0  0  0  0  0  0  0  0  0  0  0  0
   36.5150   18.1370   32.0510 C   0  0  0  0  0  0  0  0  0  0  0  0
   36.9090   17.1300   32.0760 H   0  0  0  0  0  0  0  0  0  0  0  0
   35.2500   18.5140   32.4500 C   0  0  0  0  0  3  0  0  0  0  0  0
   34.7900   19.8060   32.4010 C   0  0  0  0  0  3  0  0  0  0  0  0
   35.6030   20.8160   31.9350 C   0  0  0  0  0  0  0  0  0  0  0  0
   35.1610   22.1090   31.8730 C   0  0  0  0  0  3  0  0  0  0  0  0
  1  2  1  0  0  0  0
  2  3  2  0  0  0  0
  2  7  1  0  0  0  0
  3  8  1  0  0  0  0
  4  9  1  0  0  0  0
  4  3  1  0  0  0  0
  5  4  2  0  0  0  0
  6  5  1  0  0  0  0
  6  1  2  0  0  0  0
 10  1  1  0  0  0  0
 10 13  1  0  0  0  0
 11 10  2  0  0  0  0
 12 17  1  0  0  0  0
 13 14  1  0  0  0  0
 13 12  2  0  0  0  0
 14 15  2  0  0  0  0
 15 16  1  0  0  0  0
 16 20  1  0  0  0  0
 17 16  2  0  0  0  0
 18 12  1  0  0  0  0
 19 14  1  0  0  0  0
 21  5  1  0  0  0  0
 22 21  1  0  0  0  0
 22 25  1  0  0  0  0
 22 23  1  0  0  0  0
 24 22  1  0  0  0  0
 25 36  1  0  0  0  0
 26 28  1  0  0  0  0
 26 25  2  0  0  0  0
 27 26  1  0  0  0  0
 28 29  2  0  0  0  0
 29 30  1  0  0  0  0
 29 35  1  0  0  0  0
 30 31  2  0  0  0  0
 31 32  1  0  0  0  0
 31 33  1  0  0  0  0
 34 33  2  0  0  0  0
 35 34  1  0  0  0  0
 36 35  2  0  0  0  0
M  END
>  <minimizedAffinity>
-6.11464024

$$$$

 OpenBabel03262522133D

 36 39  0  0  0  0  0  0  0  0999 V2000
   36.7670   23.7500   31.4610 C   0  0  0  0  0  0  0  0  0  0  0  0
   35.5890   24.1840   30.8110 C   0  0  0  0  0  0  0  0  0  0  0  0
   35.1080   25.4630   31.0070 C   0  0  0  0  0  0  0  0  0  0  0  0
   35.8470   26.2640   31.8650 C   0  0  0  0  0  0  0  0  0  0  0  0
   36.9860   25.8170   32.4800 C   0  0  0  0  0  0  0  0  0  0  0  0
   37.4590   24.5660   32.2900 N   0  0  0  0  0  0  0  0  0  0  0  0
   35.0430   23.5230   30.1490 H   0  0  0  0  0  0  0  0  0  0  0  0
   34.2130   25.8350   30.5320 H   0  0  0  0  0  0  0  0  0  0  0  0
   35.5030   27.2770   32.0470 H   0  0  0  0  0  0  0  0  0  0  0  0
   37.1930   22.4040   31.1950 C   0  0  0  0  0  0  0  0  0  0  0  0
   38.1410   22.1810   30.4490 O   0  0  0  0  0  0  0  0  0  0  0  0
   36.2950   20.1220   30.9610 C   0  0  0  0  0  0  0  0  0  0  0  0
   36.5390   21.2350   31.7850 C   0  0  0  0  0  0  0  0  0  0  0  0
   36.1490   21.1850   33.1290 C   0  0  0  0  0  0  0  0  0  0  0  0
   35.5440   20.0510   33.5930 N   0  0  0  0  0  0  0  0  0  0  0  0
   35.3240   18.9860   32.7650 C   0  0  0  0  0  0  0  0  0  0  0  0
   35.6910   19.0240   31.4780 N   0  0  0  0  0  0  0  0  0  0  0  0
   36.5770   20.1090   29.9140 H   0  0  0  0  0  0  0  0  0  0  0  0
   36.3560   22.0530   33.7080 H   0  0  0  0  0  0  0  0  0  0  0  0
   34.8380   18.0880   33.1530 H   0  0  0  0  0  0  0  0  0  0  0  0
   37.9140   26.8980   33.5700 S   0  0  0  0  0  0  0  0  0  0  0  0
   37.5600   26.3570   35.2540 C   0  0  0  0  0  0  0  0  0  0  0  0
   37.6340   27.2110   35.9790 H   0  0  0  0  0  0  0  0  0  0  0  0
   36.4910   25.9850   35.2270 H   0  0  0  0  0  0  0  0  0  0  0  0
   38.3980   25.2430   35.7380 C   0  0  0  0  0  0  0  0  0  0  0  0
   37.9220   24.5820   36.8840 C   0  0  0  0  0  0  0  0  0  0  0  0
   36.9790   24.8860   37.3380 H   0  0  0  0  0  0  0  0  0  0  0  0
   38.5550   23.5400   37.5240 C   0  0  0  0  0  3  0  0  0  0  0  0
   39.7460   23.1110   37.0030 C   0  0  0  0  0  0  0  0  0  0  0  0
   40.3890   22.0930   37.6210 N   0  0  0  0  0  0  0  0  0  0  0  0
   41.5740   21.6010   37.1880 C   0  0  0  0  0  0  0  0  0  0  0  0
   42.0430   20.7860   37.7210 H   0  0  0  0  0  0  0  0  0  0  0  0
   42.0770   22.2210   36.0640 C   0  0  0  0  0  3  0  0  0  0  0  0
   41.4470   23.2550   35.4190 C   0  0  0  0  0  3  0  0  0  0  0  0
   40.2410   23.7330   35.8840 C   0  0  0  0  0  0  0  0  0  0  0  0
   39.6000   24.7670   35.2580 C   0  0  0  0  0  3  0  0  0  0  0  0
  1  6  1  0  0  0  0
  2  3  1  0  0  0  0
  2  1  2  0  0  0  0
  3  4  2  0  0  0  0
  4  9  1  0  0  0  0
  4  5  1  0  0  0  0
  5 21  1  0  0  0  0
  6  5  2  0  0  0  0
  7  2  1  0  0  0  0
  8  3  1  0  0  0  0
 10  1  1  0  0  0  0
 10 13  1  0  0  0  0
 11 10  2  0  0  0  0
 12 17  2  0  0  0  0
 12 13  1  0  0  0  0
 13 14  2  0  0  0  0
 14 15  1  0  0  0  0
 14 19  1  0  0  0  0
 16 20  1  0  0  0  0
 16 15  2  0  0  0  0
 17 16  1  0  0  0  0
 18 12  1  0  0  0  0
 21 22  1  0  0  0  0
 22 25  1  0  0  0  0
 22 23  1  0  0  0  0
 24 22  1  0  0  0  0
 25 26  1  0  0  0  0
 26 27  1  0  0  0  0
 26 28  2  0  0  0  0
 29 28  1  0  0  0  0
 29 30  1  0  0  0  0
 31 30  2  0  0  0  0
 31 32  1  0  0  0  0
 33 31  1  0  0  0  0
 34 35  1  0  0  0  0
 34 33  2  0  0  0  0
 35 29  2  0  0  0  0
 36 25  2  0  0  0  0
 36 35  1  0  0  0  0
M  END
>  <minimizedAffinity>
-6.09716558

$$$$

 OpenBabel03262522133D

 36 39  0  0  0  0  0  0  0  0999 V2000
   36.6680   24.0260   32.1220 C   0  0  0  0  0  0  0  0  0  0  0  0
   35.4800   23.9170   31.3640 C   0  0  0  0  0  0  0  0  0  0  0  0
   34.8440   25.0440   30.8850 C   0  0  0  0  0  0  0  0  0  0  0  0
   35.4440   26.2560   31.1950 C   0  0  0  0  0  0  0  0  0  0  0  0
   36.5960   26.3320   31.9310 C   0  0  0  0  0  0  0  0  0  0  0  0
   37.2200   25.2300   32.4010 N   0  0  0  0  0  0  0  0  0  0  0  0
   35.0460   22.9480   31.1460 H   0  0  0  0  0  0  0  0  0  0  0  0
   33.9360   25.0060   30.3040 H   0  0  0  0  0  0  0  0  0  0  0  0
   34.9760   27.1670   30.8370 H   0  0  0  0  0  0  0  0  0  0  0  0
   37.2600   22.7990   32.5770 C   0  0  0  0  0  0  0  0  0  0  0  0
   38.3310   22.8010   33.1740 O   0  0  0  0  0  0  0  0  0  0  0  0
   36.8610   20.8350   31.1430 C   0  0  0  0  0  0  0  0  0  0  0  0
   36.6340   21.4920   32.3660 C   0  0  0  0  0  0  0  0  0  0  0  0
   35.8250   20.8760   33.3280 C   0  0  0  0  0  0  0  0  0  0  0  0
   35.2820   19.6550   33.0430 N   0  0  0  0  0  0  0  0  0  0  0  0
   35.5250   19.0450   31.8440 C   0  0  0  0  0  0  0  0  0  0  0  0
   36.2970   19.6240   30.9170 N   0  0  0  0  0  0  0  0  0  0  0  0
   37.4810   21.2680   30.3650 H   0  0  0  0  0  0  0  0  0  0  0  0
   35.6840   21.4150   34.2350 H   0  0  0  0  0  0  0  0  0  0  0  0
   35.0830   18.0680   31.6340 H   0  0  0  0  0  0  0  0  0  0  0  0
   37.3400   27.9240   32.2930 S   0  0  0  0  0  0  0  0  0  0  0  0
   36.0830   29.1690   31.9450 C   0  0  0  0  0  0  0  0  0  0  0  0
   36.5120   30.0310   31.3660 H   0  0  0  0  0  0  0  0  0  0  0  0
   35.3110   28.6410   31.3060 H   0  0  0  0  0  0  0  0  0  0  0  0
   35.3810   29.6930   33.1330 C   0  0  0  0  0  0  0  0  0  0  0  0
   34.0340   29.3140   33.2550 C   0  0  0  0  0  0  0  0  0  0  0  0
   33.5820   28.6530   32.5140 H   0  0  0  0  0  0  0  0  0  0  0  0
   33.1820   29.7090   34.2630 C   0  0  0  0  0  3  0  0  0  0  0  0
   33.6880   30.5410   35.2240 C   0  0  0  0  0  0  0  0  0  0  0  0
   32.8670   30.9480   36.2190 N   0  0  0  0  0  0  0  0  0  0  0  0
   33.2690   31.7750   37.2140 C   0  0  0  0  0  0  0  0  0  0  0  0
   32.5690   32.0690   37.9840 H   0  0  0  0  0  0  0  0  0  0  0  0
   34.5870   32.1720   37.1320 C   0  0  0  0  0  3  0  0  0  0  0  0
   35.4410   31.7750   36.1350 C   0  0  0  0  0  3  0  0  0  0  0  0
   35.0010   30.9320   35.1370 C   0  0  0  0  0  0  0  0  0  0  0  0
   35.8350   30.5290   34.1310 C   0  0  0  0  0  3  0  0  0  0  0  0
  1  6  1  0  0  0  0
  1 10  1  0  0  0  0
  2  1  2  0  0  0  0
  3  4  2  0  0  0  0
  3  2  1  0  0  0  0
  4  5  1  0  0  0  0
  5 21  1  0  0  0  0
  5  6  2  0  0  0  0
  7  2  1  0  0  0  0
  8  3  1  0  0  0  0
  9  4  1  0  0  0  0
 10 11  2  0  0  0  0
 12 13  1  0  0  0  0
 13 10  1  0  0  0  0
 13 14  2  0  0  0  0
 14 19  1  0  0  0  0
 15 14  1  0  0  0  0
 16 15  2  0  0  0  0
 17 12  2  0  0  0  0
 17 16  1  0  0  0  0
 18 12  1  0  0  0  0
 20 16  1  0  0  0  0
 22 21  1  0  0  0  0
 22 25  1  0  0  0  0
 23 22  1  0  0  0  0
 24 22  1  0  0  0  0
 25 26  2  0  0  0  0
 25 36  1  0  0  0  0
 26 28  1  0  0  0  0
 27 26  1  0  0  0  0
 28 29  2  0  0  0  0
 29 30  1  0  0  0  0
 30 31  2  0  0  0  0
 31 32  1  0  0  0  0
 33 31  1  0  0  0  0
 34 33  2  0  0  0  0
 35 29  1  0  0  0  0
 35 34  1  0  0  0  0
 36 35  2  0  0  0  0
M  END
>  <minimizedAffinity>
-6.09495687

$$$$

 OpenBabel03262522133D

 36 39  0  0  0  0  0  0  0  0999 V2000
   39.0460   24.3460   35.7620 C   0  0  0  0  0  0  0  0  0  0  0  0
   38.0830   25.2230   36.3130 C   0  0  0  0  0  0  0  0  0  0  0  0
   38.1800   26.5860   36.1210 C   0  0  0  0  0  0  0  0  0  0  0  0
   39.2630   27.0160   35.3680 C   0  0  0  0  0  0  0  0  0  0  0  0
   40.1810   26.1440   34.8460 C   0  0  0  0  0  0  0  0  0  0  0  0
   40.0870   24.8090   35.0320 N   0  0  0  0  0  0  0  0  0  0  0  0
   37.2520   24.8420   36.8950 H   0  0  0  0  0  0  0  0  0  0  0  0
   37.4690   27.2900   36.5230 H   0  0  0  0  0  0  0  0  0  0  0  0
   39.3770   28.0810   35.1940 H   0  0  0  0  0  0  0  0  0  0  0  0
   38.8610   22.9440   36.0120 C   0  0  0  0  0  0  0  0  0  0  0  0
   39.6090   22.3380   36.7730 O   0  0  0  0  0  0  0  0  0  0  0  0
   36.7710   21.6560   36.2180 C   0  0  0  0  0  0  0  0  0  0  0  0
   37.7900   22.1630   35.3920 C   0  0  0  0  0  0  0  0  0  0  0  0
   37.7420   21.9030   34.0170 C   0  0  0  0  0  0  0  0  0  0  0  0
   36.7030   21.1630   33.5270 N   0  0  0  0  0  0  0  0  0  0  0  0
   35.7290   20.6870   34.3590 C   0  0  0  0  0  0  0  0  0  0  0  0
   35.7650   20.9290   35.6750 N   0  0  0  0  0  0  0  0  0  0  0  0
   36.7610   21.8290   37.2890 H   0  0  0  0  0  0  0  0  0  0  0  0
   38.5360   22.3080   33.4370 H   0  0  0  0  0  0  0  0  0  0  0  0
   34.9060   20.0970   33.9490 H   0  0  0  0  0  0  0  0  0  0  0  0
   41.5560   26.7500   33.8660 S   0  0  0  0  0  0  0  0  0  0  0  0
   41.1890   26.3320   32.1510 C   0  0  0  0  0  0  0  0  0  0  0  0
   41.6530   27.0710   31.4430 H   0  0  0  0  0  0  0  0  0  0  0  0
   41.6600   25.3150   31.9860 H   0  0  0  0  0  0  0  0  0  0  0  0
   39.7520   26.2040   31.8360 C   0  0  0  0  0  0  0  0  0  0  0  0
   39.0490   27.4150   31.7170 C   0  0  0  0  0  0  0  0  0  0  0  0
   39.5730   28.3650   31.8290 H   0  0  0  0  0  0  0  0  0  0  0  0
   37.7010   27.5330   31.4600 C   0  0  0  0  0  3  0  0  0  0  0  0
   36.9860   26.3750   31.3100 C   0  0  0  0  0  0  0  0  0  0  0  0
   35.6580   26.4680   31.0640 N   0  0  0  0  0  0  0  0  0  0  0  0
   34.8620   25.3830   30.9060 C   0  0  0  0  0  0  0  0  0  0  0  0
   33.8070   25.5160   30.7120 H   0  0  0  0  0  0  0  0  0  0  0  0
   35.5130   24.1730   31.0160 C   0  0  0  0  0  3  0  0  0  0  0  0
   36.8570   24.0510   31.2640 C   0  0  0  0  0  3  0  0  0  0  0  0
   37.6400   25.1740   31.4200 C   0  0  0  0  0  0  0  0  0  0  0  0
   38.9800   25.0730   31.6740 C   0  0  0  0  0  3  0  0  0  0  0  0
  1 10  1  0  0  0  0
  1  2  1  0  0  0  0
  2  7  1  0  0  0  0
  3  2  2  0  0  0  0
  3  8  1  0  0  0  0
  4  3  1  0  0  0  0
  5  6  1  0  0  0  0
  5  4  2  0  0  0  0
  6  1  2  0  0  0  0
  9  4  1  0  0  0  0
 10 11  2  0  0  0  0
 12 18  1  0  0  0  0
 13 10  1  0  0  0  0
 13 12  2  0  0  0  0
 14 13  1  0  0  0  0
 15 14  2  0  0  0  0
 15 16  1  0  0  0  0
 16 17  2  0  0  0  0
 17 12  1  0  0  0  0
 19 14  1  0  0  0  0
 20 16  1  0  0  0  0
 21  5  1  0  0  0  0
 22 21  1  0  0  0  0
 23 22  1  0  0  0  0
 24 22  1  0  0  0  0
 25 22  1  0  0  0  0
 26 27  1  0  0  0  0
 26 25  1  0  0  0  0
 28 26  2  0  0  0  0
 29 35  1  0  0  0  0
 29 28  1  0  0  0  0
 30 29  2  0  0  0  0
 31 33  2  0  0  0  0
 31 30  1  0  0  0  0
 32 31  1  0  0  0  0
 33 34  1  0  0  0  0
 34 35  2  0  0  0  0
 35 36  1  0  0  0  0
 36 25  2  0  0  0  0
M  END
>  <minimizedAffinity>
-6.07843876

$$$$

 OpenBabel03262522133D

 36 39  0  0  0  0  0  0  0  0999 V2000
   37.4180   22.2750   35.6930 C   0  0  0  0  0  0  0  0  0  0  0  0
   36.3890   21.6270   36.4140 C   0  0  0  0  0  0  0  0  0  0  0  0
   35.5240   20.7590   35.7800 C   0  0  0  0  0  0  0  0  0  0  0  0
   35.7360   20.5780   34.4210 C   0  0  0  0  0  0  0  0  0  0  0  0
   36.7410   21.2190   33.7470 C   0  0  0  0  0  0  0  0  0  0  0  0
   37.5890   22.0690   34.3660 N   0  0  0  0  0  0  0  0  0  0  0  0
   36.2610   21.7980   37.4760 H   0  0  0  0  0  0  0  0  0  0  0  0
   34.7260   20.2430   36.2910 H   0  0  0  0  0  0  0  0  0  0  0  0
   35.0770   19.9030   33.8830 H   0  0  0  0  0  0  0  0  0  0  0  0
   38.2700   23.1590   36.4370 C   0  0  0  0  0  0  0  0  0  0  0  0
   37.7970   24.0650   37.1150 O   0  0  0  0  0  0  0  0  0  0  0  0
   40.4690   23.8910   35.6010 C   0  0  0  0  0  0  0  0  0  0  0  0
   39.7290   23.0380   36.4390 C   0  0  0  0  0  0  0  0  0  0  0  0
   40.4110   22.1110   37.2370 C   0  0  0  0  0  0  0  0  0  0  0  0
   41.7750   22.0700   37.1720 N   0  0  0  0  0  0  0  0  0  0  0  0
   42.4620   22.9150   36.3470 C   0  0  0  0  0  0  0  0  0  0  0  0
   41.8220   23.8040   35.5790 N   0  0  0  0  0  0  0  0  0  0  0  0
   39.9910   24.6270   34.9630 H   0  0  0  0  0  0  0  0  0  0  0  0
   39.8050   21.4890   37.8520 H   0  0  0  0  0  0  0  0  0  0  0  0
   43.5530   22.8670   36.3080 H   0  0  0  0  0  0  0  0  0  0  0  0
   36.9810   20.9390   31.9920 S   0  0  0  0  0  0  0  0  0  0  0  0
   35.8180   22.0190   31.1350 C   0  0  0  0  0  0  0  0  0  0  0  0
   35.6810   21.7030   30.0660 H   0  0  0  0  0  0  0  0  0  0  0  0
   34.8370   21.8940   31.6870 H   0  0  0  0  0  0  0  0  0  0  0  0
   36.1590   23.4540   31.1720 C   0  0  0  0  0  0  0  0  0  0  0  0
   35.0650   24.3360   31.1700 C   0  0  0  0  0  0  0  0  0  0  0  0
   34.0470   23.9450   31.1700 H   0  0  0  0  0  0  0  0  0  0  0  0
   35.1490   25.7110   31.1690 C   0  0  0  0  0  3  0  0  0  0  0  0
   36.4000   26.2650   31.1690 C   0  0  0  0  0  0  0  0  0  0  0  0
   36.5060   27.6140   31.1600 N   0  0  0  0  0  0  0  0  0  0  0  0
   37.6970   28.2590   31.1520 C   0  0  0  0  0  0  0  0  0  0  0  0
   37.7220   29.3400   31.1450 H   0  0  0  0  0  0  0  0  0  0  0  0
   38.7990   27.4300   31.1540 C   0  0  0  0  0  3  0  0  0  0  0  0
   38.7200   26.0600   31.1620 C   0  0  0  0  0  3  0  0  0  0  0  0
   37.4930   25.4340   31.1700 C   0  0  0  0  0  0  0  0  0  0  0  0
   37.3940   24.0700   31.1730 C   0  0  0  0  0  3  0  0  0  0  0  0
  1  2  1  0  0  0  0
  1 10  1  0  0  0  0
  2  7  1  0  0  0  0
  3  8  1  0  0  0  0
  3  2  2  0  0  0  0
  4  3  1  0  0  0  0
  5  6  1  0  0  0  0
  5  4  2  0  0  0  0
  6  1  2  0  0  0  0
  9  4  1  0  0  0  0
 10 13  1  0  0  0  0
 10 11  2  0  0  0  0
 12 13  1  0  0  0  0
 13 14  2  0  0  0  0
 14 19  1  0  0  0  0
 15 14  1  0  0  0  0
 16 15  2  0  0  0  0
 17 12  2  0  0  0  0
 17 16  1  0  0  0  0
 18 12  1  0  0  0  0
 20 16  1  0  0  0  0
 21  5  1  0  0  0  0
 22 25  1  0  0  0  0
 22 24  1  0  0  0  0
 22 21  1  0  0  0  0
 23 22  1  0  0  0  0
 25 36  1  0  0  0  0
 26 25  2  0  0  0  0
 27 26  1  0  0  0  0
 28 26  1  0  0  0  0
 29 28  2  0  0  0  0
 29 35  1  0  0  0  0
 30 29  1  0  0  0  0
 31 33  1  0  0  0  0
 31 30  2  0  0  0  0
 32 31  1  0  0  0  0
 33 34  2  0  0  0  0
 34 35  1  0  0  0  0
 35 36  2  0  0  0  0
M  END
>  <minimizedAffinity>
-5.96308422

$$$$

 OpenBabel03262522133D

 36 39  0  0  0  0  0  0  0  0999 V2000
   38.3280   24.6870   35.3650 C   0  0  0  0  0  0  0  0  0  0  0  0
   38.4350   25.4900   36.5230 C   0  0  0  0  0  0  0  0  0  0  0  0
   38.2940   26.8610   36.4450 C   0  0  0  0  0  0  0  0  0  0  0  0
   38.0480   27.3730   35.1800 C   0  0  0  0  0  0  0  0  0  0  0  0
   37.9480   26.5720   34.0750 C   0  0  0  0  0  0  0  0  0  0  0  0
   38.0850   25.2290   34.1490 N   0  0  0  0  0  0  0  0  0  0  0  0
   38.6290   25.0460   37.4920 H   0  0  0  0  0  0  0  0  0  0  0  0
   38.3690   27.5110   37.3030 H   0  0  0  0  0  0  0  0  0  0  0  0
   37.9310   28.4480   35.0740 H   0  0  0  0  0  0  0  0  0  0  0  0
   38.4860   23.2710   35.5430 C   0  0  0  0  0  0  0  0  0  0  0  0
   37.5200   22.5180   35.4830 O   0  0  0  0  0  0  0  0  0  0  0  0
   40.0940   22.2730   37.1210 C   0  0  0  0  0  0  0  0  0  0  0  0
   39.7850   22.6450   35.8010 C   0  0  0  0  0  0  0  0  0  0  0  0
   40.7230   22.4050   34.7890 C   0  0  0  0  0  0  0  0  0  0  0  0
   41.9100   21.8170   35.1240 N   0  0  0  0  0  0  0  0  0  0  0  0
   42.1770   21.4670   36.4180 C   0  0  0  0  0  0  0  0  0  0  0  0
   41.2880   21.6920   37.3930 N   0  0  0  0  0  0  0  0  0  0  0  0
   39.4030   22.4360   37.9410 H   0  0  0  0  0  0  0  0  0  0  0  0
   40.4400   22.7060   33.8090 H   0  0  0  0  0  0  0  0  0  0  0  0
   43.1320   20.9970   36.6660 H   0  0  0  0  0  0  0  0  0  0  0  0
   37.6130   27.2830   32.4620 S   0  0  0  0  0  0  0  0  0  0  0  0
   35.9380   27.9480   32.5320 C   0  0  0  0  0  0  0  0  0  0  0  0
   35.4450   27.9160   31.5230 H   0  0  0  0  0  0  0  0  0  0  0  0
   35.3770   27.2650   33.2400 H   0  0  0  0  0  0  0  0  0  0  0  0
   35.8350   29.3170   33.0730 C   0  0  0  0  0  0  0  0  0  0  0  0
   35.9600   30.3510   32.1300 C   0  0  0  0  0  0  0  0  0  0  0  0
   36.0970   30.1150   31.0740 H   0  0  0  0  0  0  0  0  0  0  0  0
   35.9280   31.6990   32.4140 C   0  0  0  0  0  3  0  0  0  0  0  0
   35.7610   32.0620   33.7230 C   0  0  0  0  0  0  0  0  0  0  0  0
   35.7340   33.3800   34.0250 N   0  0  0  0  0  0  0  0  0  0  0  0
   35.5790   33.8420   35.2890 C   0  0  0  0  0  0  0  0  0  0  0  0
   35.5650   34.9080   35.4740 H   0  0  0  0  0  0  0  0  0  0  0  0
   35.4520   32.8590   36.2480 C   0  0  0  0  0  3  0  0  0  0  0  0
   35.4760   31.5160   35.9690 C   0  0  0  0  0  3  0  0  0  0  0  0
   35.6340   31.0790   34.6720 C   0  0  0  0  0  0  0  0  0  0  0  0
   35.6670   29.7440   34.3740 C   0  0  0  0  0  3  0  0  0  0  0  0
  1 10  1  0  0  0  0
  1  2  1  0  0  0  0
  2  7  1  0  0  0  0
  3  2  2  0  0  0  0
  3  8  1  0  0  0  0
  4  3  1  0  0  0  0
  5  6  1  0  0  0  0
  5  4  2  0  0  0  0
  6  1  2  0  0  0  0
  9  4  1  0  0  0  0
 10 13  1  0  0  0  0
 11 10  2  0  0  0  0
 12 17  1  0  0  0  0
 12 18  1  0  0  0  0
 13 12  2  0  0  0  0
 14 15  2  0  0  0  0
 14 13  1  0  0  0  0
 15 16  1  0  0  0  0
 16 20  1  0  0  0  0
 16 17  2  0  0  0  0
 19 14  1  0  0  0  0
 21 22  1  0  0  0  0
 21  5  1  0  0  0  0
 22 25  1  0  0  0  0
 22 24  1  0  0  0  0
 23 22  1  0  0  0  0
 25 36  1  0  0  0  0
 26 28  1  0  0  0  0
 26 25  2  0  0  0  0
 27 26  1  0  0  0  0
 28 29  2  0  0  0  0
 29 30  1  0  0  0  0
 29 35  1  0  0  0  0
 30 31  2  0  0  0  0
 31 32  1  0  0  0  0
 31 33  1  0  0  0  0
 34 33  2  0  0  0  0
 35 34  1  0  0  0  0
 36 35  2  0  0  0  0
M  END
>  <minimizedAffinity>
-5.90139151

$$$$

 OpenBabel03262522133D

 36 39  0  0  0  0  0  0  0  0999 V2000
   35.5890   29.1380   33.6070 C   0  0  0  0  0  0  0  0  0  0  0  0
   35.5040   28.5200   32.3380 C   0  0  0  0  0  0  0  0  0  0  0  0
   36.2770   27.4170   32.0390 C   0  0  0  0  0  0  0  0  0  0  0  0
   37.1180   26.9740   33.0500 C   0  0  0  0  0  0  0  0  0  0  0  0
   37.1790   27.5920   34.2700 C   0  0  0  0  0  0  0  0  0  0  0  0
   36.4230   28.6720   34.5650 N   0  0  0  0  0  0  0  0  0  0  0  0
   34.8330   28.9010   31.5780 H   0  0  0  0  0  0  0  0  0  0  0  0
   36.2440   26.9150   31.0850 H   0  0  0  0  0  0  0  0  0  0  0  0
   37.7430   26.1080   32.8560 H   0  0  0  0  0  0  0  0  0  0  0  0
   34.7460   30.2800   33.8270 C   0  0  0  0  0  0  0  0  0  0  0  0
   34.7020   31.1950   33.0110 O   0  0  0  0  0  0  0  0  0  0  0  0
   34.2260   31.4210   35.9480 C   0  0  0  0  0  0  0  0  0  0  0  0
   33.9000   30.4220   35.0130 C   0  0  0  0  0  0  0  0  0  0  0  0
   32.7860   29.6070   35.2500 C   0  0  0  0  0  0  0  0  0  0  0  0
   32.0540   29.8130   36.3860 N   0  0  0  0  0  0  0  0  0  0  0  0
   32.3990   30.7940   37.2720 C   0  0  0  0  0  0  0  0  0  0  0  0
   33.4620   31.5790   37.0560 N   0  0  0  0  0  0  0  0  0  0  0  0
   35.0770   32.0790   35.8120 H   0  0  0  0  0  0  0  0  0  0  0  0
   32.5830   28.8670   34.5130 H   0  0  0  0  0  0  0  0  0  0  0  0
   31.8020   30.9440   38.1750 H   0  0  0  0  0  0  0  0  0  0  0  0
   38.2730   26.9710   35.5490 S   0  0  0  0  0  0  0  0  0  0  0  0
   37.6490   25.3440   36.0140 C   0  0  0  0  0  0  0  0  0  0  0  0
   36.9700   25.4080   36.9060 H   0  0  0  0  0  0  0  0  0  0  0  0
   37.0520   24.9880   35.1190 H   0  0  0  0  0  0  0  0  0  0  0  0
   38.6890   24.3300   36.2750 C   0  0  0  0  0  0  0  0  0  0  0  0
   38.6770   23.7690   37.5640 C   0  0  0  0  0  0  0  0  0  0  0  0
   37.9160   24.0700   38.2840 H   0  0  0  0  0  0  0  0  0  0  0  0
   39.5710   22.8330   38.0350 C   0  0  0  0  0  3  0  0  0  0  0  0
   40.5530   22.4140   37.1780 C   0  0  0  0  0  0  0  0  0  0  0  0
   41.4470   21.5010   37.6230 N   0  0  0  0  0  0  0  0  0  0  0  0
   42.4580   21.0270   36.8560 C   0  0  0  0  0  0  0  0  0  0  0  0
   43.1440   20.2970   37.2640 H   0  0  0  0  0  0  0  0  0  0  0  0
   42.5070   21.5520   35.5820 C   0  0  0  0  0  3  0  0  0  0  0  0
   41.6140   22.4800   35.1060 C   0  0  0  0  0  3  0  0  0  0  0  0
   40.5960   22.9410   35.9110 C   0  0  0  0  0  0  0  0  0  0  0  0
   39.7000   23.8690   35.4570 C   0  0  0  0  0  3  0  0  0  0  0  0
  1 10  1  0  0  0  0
  1  6  1  0  0  0  0
  2  1  2  0  0  0  0
  3  2  1  0  0  0  0
  3  4  2  0  0  0  0
  4  5  1  0  0  0  0
  5  6  2  0  0  0  0
  5 21  1  0  0  0  0
  7  2  1  0  0  0  0
  8  3  1  0  0  0  0
  9  4  1  0  0  0  0
 10 13  1  0  0  0  0
 11 10  2  0  0  0  0
 12 17  1  0  0  0  0
 13 14  1  0  0  0  0
 13 12  2  0  0  0  0
 14 15  2  0  0  0  0
 15 16  1  0  0  0  0
 16 20  1  0  0  0  0
 17 16  2  0  0  0  0
 18 12  1  0  0  0  0
 19 14  1  0  0  0  0
 21 22  1  0  0  0  0
 22 25  1  0  0  0  0
 22 23  1  0  0  0  0
 24 22  1  0  0  0  0
 25 26  1  0  0  0  0
 26 28  2  0  0  0  0
 26 27  1  0  0  0  0
 29 30  1  0  0  0  0
 29 28  1  0  0  0  0
 31 32  1  0  0  0  0
 31 30  2  0  0  0  0
 33 31  1  0  0  0  0
 34 33  2  0  0  0  0
 34 35  1  0  0  0  0
 35 29  2  0  0  0  0
 36 35  1  0  0  0  0
 36 25  2  0  0  0  0
M  END
>  <minimizedAffinity>
-5.85049915

$$$$
