
 OpenBabel03272507553D

 26 28  0  0  0  0  0  0  0  0999 V2000
   35.8610   30.2590   50.5700 C   0  0  0  0  0  0  0  0  0  0  0  0
   36.4330   30.8120   49.3950 C   0  0  0  0  0  0  0  0  0  0  0  0
   36.2040   30.1880   48.1800 C   0  0  0  0  0  0  0  0  0  0  0  0
   35.4220   29.0470   48.1820 N   0  0  0  0  0  0  0  0  0  0  0  0
   34.8930   28.5470   49.3100 C   0  0  0  0  0  0  0  0  0  0  0  0
   35.1060   29.1380   50.4820 N   0  0  0  0  0  0  0  0  0  0  0  0
   34.1140   27.3840   49.1190 N   0  0  0  0  0  0  0  0  0  0  0  0
   36.0660   30.7770   51.4910 H   0  0  0  0  0  0  0  0  0  0  0  0
   34.1290   26.5810   49.8140 H   0  0  0  0  0  0  0  0  0  0  0  0
   33.4870   27.2230   48.3130 H   0  0  0  0  0  0  0  0  0  0  0  0
   36.7300   30.5510   46.8830 C   0  0  0  0  0  0  0  0  0  0  0  0
   36.2420   30.8890   45.6520 C   0  0  0  0  0  0  0  0  0  0  0  0
   35.1850   30.8180   45.5650 H   0  0  0  0  0  0  0  0  0  0  0  0
   37.0310   31.2540   44.5900 C   0  0  0  0  0  3  0  0  0  0  0  0
   38.4030   31.3080   44.6760 C   0  0  0  0  0  0  0  0  0  0  0  0
   39.0630   31.6720   43.5850 N   0  0  0  0  0  0  0  0  0  0  0  0
   40.4230   31.7430   43.6120 C   0  0  0  0  0  0  0  0  0  0  0  0
   41.0550   32.0300   42.7750 H   0  0  0  0  0  0  0  0  0  0  0  0
   41.0280   31.4180   44.8120 C   0  0  0  0  0  3  0  0  0  0  0  0
   40.3270   31.0370   45.9470 C   0  0  0  0  0  3  0  0  0  0  0  0
   38.9510   30.9740   45.8960 C   0  0  0  0  0  0  0  0  0  0  0  0
   38.1320   30.6110   46.9520 C   0  0  0  0  0  3  0  0  0  0  0  0
   37.2740   32.0320   49.5100 C   0  0  0  0  0  0  0  0  0  0  0  0
   38.5530   31.7430   49.9630 F   0  0  0  0  0  0  0  0  0  0  0  0
   37.3510   32.6270   48.2890 F   0  0  0  0  0  0  0  0  0  0  0  0
   36.7360   32.9520   50.4000 F   0  0  0  0  0  0  0  0  0  0  0  0
  1  8  1  0  0  0  0
  2 23  1  0  0  0  0
  2  1  2  0  0  0  0
  3  4  2  0  0  0  0
  3  2  1  0  0  0  0
  4  5  1  0  0  0  0
  5  6  2  0  0  0  0
  6  1  1  0  0  0  0
  7  5  1  0  0  0  0
  7  9  1  0  0  0  0
 10  7  1  0  0  0  0
 11 22  1  0  0  0  0
 11  3  1  0  0  0  0
 12 11  2  0  0  0  0
 13 12  1  0  0  0  0
 14 15  2  0  0  0  0
 14 12  1  0  0  0  0
 15 21  1  0  0  0  0
 16 17  2  0  0  0  0
 16 15  1  0  0  0  0
 17 19  1  0  0  0  0
 18 17  1  0  0  0  0
 19 20  2  0  0  0  0
 21 20  1  0  0  0  0
 21 22  2  0  0  0  0
 23 24  1  0  0  0  0
 23 26  1  0  0  0  0
 25 23  1  0  0  0  0
M  END
>  <minimizedAffinity>
-5.86857367

>  <minimizedRMSD>
2.01849604

$$$$
