
 OpenBabel03262522303D

 49 53  0  0  0  0  0  0  0  0999 V2000
   38.9490   27.5270   31.2640 C   0  0  0  0  0  0  0  0  0  0  0  0
   39.7530   28.0540   30.7400 H   0  0  0  0  0  0  0  0  0  0  0  0
   39.2190   27.1990   32.2860 H   0  0  0  0  0  0  0  0  0  0  0  0
   37.1900   27.2350   33.3590 F   0  0  0  0  0  0  0  0  0  0  0  0
   36.9190   28.1660   32.4000 C   0  0  0  0  0  0  0  0  0  0  0  0
   37.7350   28.4040   31.2940 C   0  0  0  0  0  0  0  0  0  0  0  0
   37.4200   29.3480   30.3610 C   0  0  0  0  0  0  0  0  0  0  0  0
   36.2580   30.1130   30.4880 C   0  0  0  0  0  0  0  0  0  0  0  0
   35.4290   29.8940   31.5840 C   0  0  0  0  0  0  0  0  0  0  0  0
   35.7670   28.9320   32.5160 C   0  0  0  0  0  0  0  0  0  0  0  0
   38.1010   29.4690   29.5390 H   0  0  0  0  0  0  0  0  0  0  0  0
   36.0230   30.8560   29.7400 H   0  0  0  0  0  0  0  0  0  0  0  0
   34.5460   30.5000   31.6470 H   0  0  0  0  0  0  0  0  0  0  0  0
   34.9070   28.7600   33.5810 O   0  0  0  0  0  0  0  0  0  0  0  0
   34.7230   29.8170   34.4580 C   0  0  0  0  0  0  0  0  0  0  0  0
   35.9300   30.2620   34.9800 C   0  0  0  0  0  0  0  0  0  0  0  0
   36.9150   29.8600   34.7570 H   0  0  0  0  0  0  0  0  0  0  0  0
   35.9890   31.3130   35.8780 C   0  0  0  0  0  3  0  0  0  0  0  0
   34.8210   31.9370   36.2690 C   0  0  0  0  0  0  0  0  0  0  0  0
   34.8170   32.9670   37.1440 N   0  0  0  0  0  0  0  0  0  0  0  0
   33.6240   33.5250   37.4730 C   0  0  0  0  0  0  0  0  0  0  0  0
   33.7320   34.3380   38.1760 H   0  0  0  0  0  0  0  0  0  0  0  0
   32.3720   33.1320   36.9900 C   0  0  0  0  0  3  0  0  0  0  0  0
   32.4270   32.0780   36.1010 C   0  0  0  0  0  3  0  0  0  0  0  0
   33.6240   31.4930   35.7490 C   0  0  0  0  0  0  0  0  0  0  0  0
   33.5590   30.4470   34.8530 C   0  0  0  0  0  3  0  0  0  0  0  0
   38.4950   26.0360   30.3370 S   0  0  0  0  0  0  0  0  0  0  0  0
   37.3990   23.0030   32.7490 C   0  0  0  0  0  0  0  0  0  0  0  0
   38.5100   22.9000   33.5820 C   0  0  0  0  0  0  0  0  0  0  0  0
   39.5490   23.7750   33.3600 C   0  0  0  0  0  0  0  0  0  0  0  0
   39.4250   24.6770   32.3490 N   0  0  0  0  0  0  0  0  0  0  0  0
   38.3690   24.7440   31.5890 C   0  0  0  0  0  0  0  0  0  0  0  0
   37.2920   23.9000   31.7530 N   0  0  0  0  0  0  0  0  0  0  0  0
   36.5190   22.3590   32.8360 H   0  0  0  0  0  0  0  0  0  0  0  0
   40.4250   23.7120   33.9980 H   0  0  0  0  0  0  0  0  0  0  0  0
   38.4970   21.9520   34.5510 O   0  0  0  0  0  0  0  0  0  0  0  0
   39.1110   22.2200   35.7770 C   0  0  0  0  0  0  0  0  0  0  0  0
   40.3350   21.7710   36.2330 C   0  0  0  0  0  0  0  0  0  0  0  0
   40.7530   22.1480   37.4620 C   0  0  0  0  0  0  0  0  0  0  0  0
   39.9640   22.9540   38.2150 C   0  0  0  0  0  0  0  0  0  0  0  0
   38.7250   23.4030   37.7430 C   0  0  0  0  0  0  0  0  0  0  0  0
   38.3350   23.0090   36.5110 N   0  0  0  0  0  0  0  0  0  0  0  0
   40.8550   21.1320   35.5160 H   0  0  0  0  0  0  0  0  0  0  0  0
   41.7270   21.7750   37.7900 H   0  0  0  0  0  0  0  0  0  0  0  0
   40.2960   23.2610   39.2040 H   0  0  0  0  0  0  0  0  0  0  0  0
   37.8580   24.3030   38.6000 C   0  0  0  0  0  0  0  0  0  0  0  0
   37.0270   23.6660   39.0080 H   0  0  0  0  0  0  0  0  0  0  0  0
   38.4790   24.6470   39.4350 H   0  0  0  0  0  0  0  0  0  0  0  0
   37.4280   25.1370   38.0040 H   0  0  0  0  0  0  0  0  0  0  0  0
  1  6  1  0  0  0  0
  1  3  1  0  0  0  0
  2  1  1  0  0  0  0
  5 10  1  0  0  0  0
  5  4  1  0  0  0  0
  6  5  2  0  0  0  0
  7  8  2  0  0  0  0
  7  6  1  0  0  0  0
  8  9  1  0  0  0  0
  9 13  1  0  0  0  0
  9 10  2  0  0  0  0
 10 14  1  0  0  0  0
 11  7  1  0  0  0  0
 12  8  1  0  0  0  0
 14 15  1  0  0  0  0
 15 26  2  0  0  0  0
 15 16  1  0  0  0  0
 16 18  2  0  0  0  0
 17 16  1  0  0  0  0
 18 19  1  0  0  0  0
 19 20  1  0  0  0  0
 20 21  2  0  0  0  0
 21 22  1  0  0  0  0
 23 21  1  0  0  0  0
 24 23  2  0  0  0  0
 25 24  1  0  0  0  0
 25 19  2  0  0  0  0
 26 25  1  0  0  0  0
 27  1  1  0  0  0  0
 27 32  1  0  0  0  0
 28 34  1  0  0  0  0
 28 29  1  0  0  0  0
 29 36  1  0  0  0  0
 30 29  2  0  0  0  0
 30 35  1  0  0  0  0
 31 30  1  0  0  0  0
 32 33  1  0  0  0  0
 32 31  2  0  0  0  0
 33 28  2  0  0  0  0
 36 37  1  0  0  0  0
 37 38  2  0  0  0  0
 37 42  1  0  0  0  0
 38 39  1  0  0  0  0
 39 44  1  0  0  0  0
 39 40  2  0  0  0  0
 40 45  1  0  0  0  0
 41 40  1  0  0  0  0
 41 46  1  0  0  0  0
 42 41  2  0  0  0  0
 43 38  1  0  0  0  0
 46 47  1  0  0  0  0
 46 48  1  0  0  0  0
 49 46  1  0  0  0  0
M  END
>  <minimizedAffinity>
-6.69112635

$$$$

 OpenBabel03262522303D

 49 53  0  0  0  0  0  0  0  0999 V2000
   39.3700   27.1030   34.5490 C   0  0  0  0  0  0  0  0  0  0  0  0
   38.6070   27.3770   35.2860 H   0  0  0  0  0  0  0  0  0  0  0  0
   40.1730   27.8550   34.4330 H   0  0  0  0  0  0  0  0  0  0  0  0
   37.6500   25.1600   35.4630 F   0  0  0  0  0  0  0  0  0  0  0  0
   38.9790   24.8690   35.3700 C   0  0  0  0  0  0  0  0  0  0  0  0
   39.9440   25.7700   34.9220 C   0  0  0  0  0  0  0  0  0  0  0  0
   41.2630   25.4290   34.8470 C   0  0  0  0  0  0  0  0  0  0  0  0
   41.6900   24.1530   35.2210 C   0  0  0  0  0  0  0  0  0  0  0  0
   40.7440   23.2360   35.6720 C   0  0  0  0  0  0  0  0  0  0  0  0
   39.4140   23.6030   35.7400 C   0  0  0  0  0  0  0  0  0  0  0  0
   41.9430   26.1820   34.4920 H   0  0  0  0  0  0  0  0  0  0  0  0
   42.7380   23.9000   35.1570 H   0  0  0  0  0  0  0  0  0  0  0  0
   41.1100   22.2670   35.9500 H   0  0  0  0  0  0  0  0  0  0  0  0
   38.5230   22.6520   36.1930 O   0  0  0  0  0  0  0  0  0  0  0  0
   37.7260   22.0000   35.2660 C   0  0  0  0  0  0  0  0  0  0  0  0
   36.5940   21.4570   35.8560 C   0  0  0  0  0  0  0  0  0  0  0  0
   36.3280   21.5130   36.9090 H   0  0  0  0  0  0  0  0  0  0  0  0
   35.6530   20.7600   35.1200 C   0  0  0  0  0  3  0  0  0  0  0  0
   35.8410   20.5970   33.7620 C   0  0  0  0  0  0  0  0  0  0  0  0
   34.9570   19.9250   32.9910 N   0  0  0  0  0  0  0  0  0  0  0  0
   35.2180   19.8120   31.6640 C   0  0  0  0  0  0  0  0  0  0  0  0
   34.4510   19.2590   31.1420 H   0  0  0  0  0  0  0  0  0  0  0  0
   36.3340   20.3290   30.9990 C   0  0  0  0  0  3  0  0  0  0  0  0
   37.2070   21.0060   31.8260 C   0  0  0  0  0  3  0  0  0  0  0  0
   36.9670   21.1370   33.1770 C   0  0  0  0  0  0  0  0  0  0  0  0
   37.9080   21.8330   33.9070 C   0  0  0  0  0  3  0  0  0  0  0  0
   38.5970   26.9030   32.9210 S   0  0  0  0  0  0  0  0  0  0  0  0
   35.0770   28.7550   32.2930 C   0  0  0  0  0  0  0  0  0  0  0  0
   34.7980   29.2520   33.5630 C   0  0  0  0  0  0  0  0  0  0  0  0
   35.7130   28.9920   34.5580 C   0  0  0  0  0  0  0  0  0  0  0  0
   36.8220   28.2710   34.2390 N   0  0  0  0  0  0  0  0  0  0  0  0
   37.0490   27.8220   33.0370 C   0  0  0  0  0  0  0  0  0  0  0  0
   36.1780   28.0440   31.9940 N   0  0  0  0  0  0  0  0  0  0  0  0
   34.4190   28.9020   31.4300 H   0  0  0  0  0  0  0  0  0  0  0  0
   35.5150   29.3690   35.5560 H   0  0  0  0  0  0  0  0  0  0  0  0
   33.6520   29.9550   33.7380 O   0  0  0  0  0  0  0  0  0  0  0  0
   33.0300   29.9470   34.9880 C   0  0  0  0  0  0  0  0  0  0  0  0
   33.0230   30.9450   35.9430 C   0  0  0  0  0  0  0  0  0  0  0  0
   32.3540   30.7380   37.1000 C   0  0  0  0  0  0  0  0  0  0  0  0
   31.7100   29.5600   37.2940 C   0  0  0  0  0  0  0  0  0  0  0  0
   31.7240   28.5560   36.3190 C   0  0  0  0  0  0  0  0  0  0  0  0
   32.4000   28.7930   35.1750 N   0  0  0  0  0  0  0  0  0  0  0  0
   33.5840   31.8330   35.6440 H   0  0  0  0  0  0  0  0  0  0  0  0
   32.3700   31.5500   37.8320 H   0  0  0  0  0  0  0  0  0  0  0  0
   31.1700   29.3890   38.2220 H   0  0  0  0  0  0  0  0  0  0  0  0
   30.9970   27.2470   36.5570 C   0  0  0  0  0  0  0  0  0  0  0  0
   31.7790   26.4770   36.7970 H   0  0  0  0  0  0  0  0  0  0  0  0
   30.3610   27.3880   37.4390 H   0  0  0  0  0  0  0  0  0  0  0  0
   30.4290   26.9310   35.6550 H   0  0  0  0  0  0  0  0  0  0  0  0
  1  6  1  0  0  0  0
  1  2  1  0  0  0  0
  3  1  1  0  0  0  0
  5  4  1  0  0  0  0
  5 10  1  0  0  0  0
  6  5  2  0  0  0  0
  7  6  1  0  0  0  0
  7  8  2  0  0  0  0
  8  9  1  0  0  0  0
  9 10  2  0  0  0  0
  9 13  1  0  0  0  0
 10 14  1  0  0  0  0
 11  7  1  0  0  0  0
 12  8  1  0  0  0  0
 15 16  1  0  0  0  0
 15 14  1  0  0  0  0
 16 17  1  0  0  0  0
 18 16  2  0  0  0  0
 19 18  1  0  0  0  0
 20 19  2  0  0  0  0
 21 20  1  0  0  0  0
 22 21  1  0  0  0  0
 23 21  2  0  0  0  0
 23 24  1  0  0  0  0
 24 25  2  0  0  0  0
 25 19  1  0  0  0  0
 25 26  1  0  0  0  0
 26 15  2  0  0  0  0
 27 32  1  0  0  0  0
 27  1  1  0  0  0  0
 28 29  1  0  0  0  0
 29 36  1  0  0  0  0
 29 30  2  0  0  0  0
 30 35  1  0  0  0  0
 31 30  1  0  0  0  0
 32 31  2  0  0  0  0
 33 28  2  0  0  0  0
 33 32  1  0  0  0  0
 34 28  1  0  0  0  0
 36 37  1  0  0  0  0
 37 42  2  0  0  0  0
 37 38  1  0  0  0  0
 38 39  2  0  0  0  0
 39 40  1  0  0  0  0
 39 44  1  0  0  0  0
 40 45  1  0  0  0  0
 41 46  1  0  0  0  0
 41 40  2  0  0  0  0
 42 41  1  0  0  0  0
 43 38  1  0  0  0  0
 46 47  1  0  0  0  0
 46 48  1  0  0  0  0
 49 46  1  0  0  0  0
M  END
>  <minimizedAffinity>
-6.64711714

$$$$

 OpenBabel03262522303D

 49 53  0  0  0  0  0  0  0  0999 V2000
   40.5970   27.1050   32.0950 C   0  0  0  0  0  0  0  0  0  0  0  0
   40.0460   27.5370   31.2530 H   0  0  0  0  0  0  0  0  0  0  0  0
   41.5630   27.6020   32.3030 H   0  0  0  0  0  0  0  0  0  0  0  0
   37.9700   27.8600   31.7820 F   0  0  0  0  0  0  0  0  0  0  0  0
   38.4120   27.5250   33.0280 C   0  0  0  0  0  0  0  0  0  0  0  0
   39.7190   27.1270   33.3090 C   0  0  0  0  0  0  0  0  0  0  0  0
   40.1120   26.8020   34.5750 C   0  0  0  0  0  0  0  0  0  0  0  0
   39.2070   26.8580   35.6370 C   0  0  0  0  0  0  0  0  0  0  0  0
   37.8970   27.2520   35.3800 C   0  0  0  0  0  0  0  0  0  0  0  0
   37.5200   27.5770   34.0910 C   0  0  0  0  0  0  0  0  0  0  0  0
   41.1360   26.5070   34.7070 H   0  0  0  0  0  0  0  0  0  0  0  0
   39.5340   26.5980   36.6330 H   0  0  0  0  0  0  0  0  0  0  0  0
   37.2310   27.2830   36.2200 H   0  0  0  0  0  0  0  0  0  0  0  0
   36.2090   27.9600   33.8970 O   0  0  0  0  0  0  0  0  0  0  0  0
   35.8870   29.3010   34.0290 C   0  0  0  0  0  0  0  0  0  0  0  0
   35.5210   29.8600   32.8130 C   0  0  0  0  0  0  0  0  0  0  0  0
   35.4800   29.3480   31.8550 H   0  0  0  0  0  0  0  0  0  0  0  0
   35.1570   31.1910   32.7050 C   0  0  0  0  0  3  0  0  0  0  0  0
   35.1570   31.9860   33.8340 C   0  0  0  0  0  0  0  0  0  0  0  0
   34.8120   33.2920   33.7900 N   0  0  0  0  0  0  0  0  0  0  0  0
   34.8370   34.0030   34.9470 C   0  0  0  0  0  0  0  0  0  0  0  0
   34.5450   35.0320   34.8020 H   0  0  0  0  0  0  0  0  0  0  0  0
   35.1940   33.5090   36.2060 C   0  0  0  0  0  3  0  0  0  0  0  0
   35.5370   32.1730   36.2000 C   0  0  0  0  0  3  0  0  0  0  0  0
   35.5200   31.4280   35.0410 C   0  0  0  0  0  0  0  0  0  0  0  0
   35.8830   30.1020   35.1540 C   0  0  0  0  0  3  0  0  0  0  0  0
   40.9660   25.3640   31.7490 S   0  0  0  0  0  0  0  0  0  0  0  0
   37.2960   24.0540   30.7330 C   0  0  0  0  0  0  0  0  0  0  0  0
   36.9980   23.2150   31.8040 C   0  0  0  0  0  0  0  0  0  0  0  0
   37.9470   23.0940   32.7940 C   0  0  0  0  0  0  0  0  0  0  0  0
   39.1050   23.7940   32.6630 N   0  0  0  0  0  0  0  0  0  0  0  0
   39.3500   24.5690   31.6450 C   0  0  0  0  0  0  0  0  0  0  0  0
   38.4470   24.7390   30.6180 N   0  0  0  0  0  0  0  0  0  0  0  0
   36.6150   24.2230   29.8930 H   0  0  0  0  0  0  0  0  0  0  0  0
   37.7350   22.4450   33.6370 H   0  0  0  0  0  0  0  0  0  0  0  0
   35.8020   22.5780   31.8040 O   0  0  0  0  0  0  0  0  0  0  0  0
   35.7690   21.1860   31.9200 C   0  0  0  0  0  0  0  0  0  0  0  0
   35.3530   20.4310   32.9990 C   0  0  0  0  0  0  0  0  0  0  0  0
   35.4010   19.0830   32.9100 C   0  0  0  0  0  0  0  0  0  0  0  0
   35.8550   18.5070   31.7690 C   0  0  0  0  0  0  0  0  0  0  0  0
   36.2740   19.2830   30.6820 C   0  0  0  0  0  0  0  0  0  0  0  0
   36.2140   20.6260   30.8010 N   0  0  0  0  0  0  0  0  0  0  0  0
   35.0150   21.0340   33.8440 H   0  0  0  0  0  0  0  0  0  0  0  0
   35.0630   18.5170   33.7830 H   0  0  0  0  0  0  0  0  0  0  0  0
   35.8950   17.4230   31.6920 H   0  0  0  0  0  0  0  0  0  0  0  0
   36.7780   18.6180   29.4160 C   0  0  0  0  0  0  0  0  0  0  0  0
   37.8970   18.7220   29.4150 H   0  0  0  0  0  0  0  0  0  0  0  0
   36.5240   17.5550   29.4880 H   0  0  0  0  0  0  0  0  0  0  0  0
   36.3590   19.1080   28.5100 H   0  0  0  0  0  0  0  0  0  0  0  0
  1  3  1  0  0  0  0
  1  6  1  0  0  0  0
  2  1  1  0  0  0  0
  4  5  1  0  0  0  0
  5  6  2  0  0  0  0
  5 10  1  0  0  0  0
  6  7  1  0  0  0  0
  7 11  1  0  0  0  0
  7  8  2  0  0  0  0
  8 12  1  0  0  0  0
  9  8  1  0  0  0  0
  9 13  1  0  0  0  0
 10  9  2  0  0  0  0
 14 15  1  0  0  0  0
 14 10  1  0  0  0  0
 15 26  1  0  0  0  0
 16 15  2  0  0  0  0
 17 16  1  0  0  0  0
 18 16  1  0  0  0  0
 18 19  2  0  0  0  0
 19 25  1  0  0  0  0
 20 19  1  0  0  0  0
 20 21  2  0  0  0  0
 21 23  1  0  0  0  0
 22 21  1  0  0  0  0
 24 23  2  0  0  0  0
 25 26  2  0  0  0  0
 25 24  1  0  0  0  0
 27  1  1  0  0  0  0
 28 29  1  0  0  0  0
 29 30  2  0  0  0  0
 30 35  1  0  0  0  0
 31 30  1  0  0  0  0
 32 27  1  0  0  0  0
 32 31  2  0  0  0  0
 33 28  2  0  0  0  0
 33 32  1  0  0  0  0
 34 28  1  0  0  0  0
 36 29  1  0  0  0  0
 36 37  1  0  0  0  0
 37 38  1  0  0  0  0
 38 43  1  0  0  0  0
 39 38  2  0  0  0  0
 39 44  1  0  0  0  0
 40 39  1  0  0  0  0
 41 42  1  0  0  0  0
 41 40  2  0  0  0  0
 42 37  2  0  0  0  0
 45 40  1  0  0  0  0
 46 48  1  0  0  0  0
 46 41  1  0  0  0  0
 47 46  1  0  0  0  0
 49 46  1  0  0  0  0
M  END
>  <minimizedAffinity>
-6.61703205

$$$$

 OpenBabel03262522303D

 49 53  0  0  0  0  0  0  0  0999 V2000
   40.4800   26.9730   33.2080 C   0  0  0  0  0  0  0  0  0  0  0  0
   40.5230   28.0640   33.2920 H   0  0  0  0  0  0  0  0  0  0  0  0
   41.4730   26.4870   33.1580 H   0  0  0  0  0  0  0  0  0  0  0  0
   40.3940   24.2450   33.5520 F   0  0  0  0  0  0  0  0  0  0  0  0
   39.7130   25.0380   34.4270 C   0  0  0  0  0  0  0  0  0  0  0  0
   39.6830   26.4310   34.3540 C   0  0  0  0  0  0  0  0  0  0  0  0
   38.9860   27.1810   35.2560 C   0  0  0  0  0  0  0  0  0  0  0  0
   38.2750   26.5690   36.2910 C   0  0  0  0  0  0  0  0  0  0  0  0
   38.2900   25.1800   36.3840 C   0  0  0  0  0  0  0  0  0  0  0  0
   39.0020   24.4400   35.4590 C   0  0  0  0  0  0  0  0  0  0  0  0
   39.0140   28.2470   35.1300 H   0  0  0  0  0  0  0  0  0  0  0  0
   37.7280   27.1770   36.9960 H   0  0  0  0  0  0  0  0  0  0  0  0
   37.7330   24.7470   37.1910 H   0  0  0  0  0  0  0  0  0  0  0  0
   38.9820   23.0680   35.6030 O   0  0  0  0  0  0  0  0  0  0  0  0
   38.0660   22.3410   34.8590 C   0  0  0  0  0  0  0  0  0  0  0  0
   37.1000   21.7580   35.6680 C   0  0  0  0  0  0  0  0  0  0  0  0
   37.0340   21.8360   36.7500 H   0  0  0  0  0  0  0  0  0  0  0  0
   36.0810   20.9850   35.1410 C   0  0  0  0  0  3  0  0  0  0  0  0
   36.0190   20.7860   33.7760 C   0  0  0  0  0  0  0  0  0  0  0  0
   35.0470   20.0400   33.2040 N   0  0  0  0  0  0  0  0  0  0  0  0
   35.0590   19.8960   31.8540 C   0  0  0  0  0  0  0  0  0  0  0  0
   34.2420   19.2840   31.5000 H   0  0  0  0  0  0  0  0  0  0  0  0
   35.9960   20.4500   30.9770 C   0  0  0  0  0  3  0  0  0  0  0  0
   36.9670   21.2020   31.6060 C   0  0  0  0  0  3  0  0  0  0  0  0
   36.9790   21.3660   32.9740 C   0  0  0  0  0  0  0  0  0  0  0  0
   37.9970   22.1370   33.4950 C   0  0  0  0  0  3  0  0  0  0  0  0
   39.5950   26.5150   31.6920 S   0  0  0  0  0  0  0  0  0  0  0  0
   35.7930   27.6300   32.4120 C   0  0  0  0  0  0  0  0  0  0  0  0
   35.7700   28.9030   31.8500 C   0  0  0  0  0  0  0  0  0  0  0  0
   36.9320   29.3600   31.2730 C   0  0  0  0  0  0  0  0  0  0  0  0
   38.0210   28.5450   31.2890 N   0  0  0  0  0  0  0  0  0  0  0  0
   38.0050   27.3580   31.8240 C   0  0  0  0  0  0  0  0  0  0  0  0
   36.8780   26.8360   32.4190 N   0  0  0  0  0  0  0  0  0  0  0  0
   34.9260   27.1690   32.8970 H   0  0  0  0  0  0  0  0  0  0  0  0
   36.9360   30.3510   30.8300 H   0  0  0  0  0  0  0  0  0  0  0  0
   34.6120   29.6070   31.9070 O   0  0  0  0  0  0  0  0  0  0  0  0
   34.0480   29.8950   33.1520 C   0  0  0  0  0  0  0  0  0  0  0  0
   32.7880   29.5680   33.6140 C   0  0  0  0  0  0  0  0  0  0  0  0
   32.4310   29.9440   34.8620 C   0  0  0  0  0  0  0  0  0  0  0  0
   33.3150   30.6320   35.6280 C   0  0  0  0  0  0  0  0  0  0  0  0
   34.5890   30.9590   35.1490 C   0  0  0  0  0  0  0  0  0  0  0  0
   34.9160   30.5690   33.8990 N   0  0  0  0  0  0  0  0  0  0  0  0
   32.1920   29.0140   32.8860 H   0  0  0  0  0  0  0  0  0  0  0  0
   31.4270   29.6670   35.1940 H   0  0  0  0  0  0  0  0  0  0  0  0
   33.0330   30.9360   36.6330 H   0  0  0  0  0  0  0  0  0  0  0  0
   35.5610   31.7280   36.0220 C   0  0  0  0  0  0  0  0  0  0  0  0
   35.5780   32.7850   35.6390 H   0  0  0  0  0  0  0  0  0  0  0  0
   35.1490   31.7290   37.0370 H   0  0  0  0  0  0  0  0  0  0  0  0
   36.5830   31.2960   35.9650 H   0  0  0  0  0  0  0  0  0  0  0  0
  1  2  1  0  0  0  0
  1  6  1  0  0  0  0
  3  1  1  0  0  0  0
  4  5  1  0  0  0  0
  5 10  1  0  0  0  0
  6  5  2  0  0  0  0
  6  7  1  0  0  0  0
  7  8  2  0  0  0  0
  8  9  1  0  0  0  0
  8 12  1  0  0  0  0
  9 13  1  0  0  0  0
 10 14  1  0  0  0  0
 10  9  2  0  0  0  0
 11  7  1  0  0  0  0
 15 14  1  0  0  0  0
 15 16  1  0  0  0  0
 16 17  1  0  0  0  0
 18 16  2  0  0  0  0
 19 18  1  0  0  0  0
 20 19  1  0  0  0  0
 21 20  2  0  0  0  0
 22 21  1  0  0  0  0
 23 24  2  0  0  0  0
 23 21  1  0  0  0  0
 24 25  1  0  0  0  0
 25 26  1  0  0  0  0
 25 19  2  0  0  0  0
 26 15  2  0  0  0  0
 27 32  1  0  0  0  0
 27  1  1  0  0  0  0
 28 33  1  0  0  0  0
 28 34  1  0  0  0  0
 29 36  1  0  0  0  0
 29 28  2  0  0  0  0
 30 31  2  0  0  0  0
 30 29  1  0  0  0  0
 31 32  1  0  0  0  0
 32 33  2  0  0  0  0
 35 30  1  0  0  0  0
 36 37  1  0  0  0  0
 37 38  2  0  0  0  0
 37 42  1  0  0  0  0
 38 39  1  0  0  0  0
 39 44  1  0  0  0  0
 39 40  2  0  0  0  0
 40 45  1  0  0  0  0
 41 40  1  0  0  0  0
 41 46  1  0  0  0  0
 42 41  2  0  0  0  0
 43 38  1  0  0  0  0
 46 48  1  0  0  0  0
 47 46  1  0  0  0  0
 49 46  1  0  0  0  0
M  END
>  <minimizedAffinity>
-6.48371458

$$$$

 OpenBabel03262522303D

 49 53  0  0  0  0  0  0  0  0999 V2000
   39.7400   27.2090   30.9250 C   0  0  0  0  0  0  0  0  0  0  0  0
   40.7950   27.4240   30.7250 H   0  0  0  0  0  0  0  0  0  0  0  0
   39.5030   27.0850   31.9990 H   0  0  0  0  0  0  0  0  0  0  0  0
   37.2180   27.6200   31.9440 F   0  0  0  0  0  0  0  0  0  0  0  0
   37.6470   28.4090   30.9180 C   0  0  0  0  0  0  0  0  0  0  0  0
   38.9030   28.2950   30.3210 C   0  0  0  0  0  0  0  0  0  0  0  0
   39.2860   29.1100   29.2960 C   0  0  0  0  0  0  0  0  0  0  0  0
   38.4220   30.0930   28.8090 C   0  0  0  0  0  0  0  0  0  0  0  0
   37.1640   30.2260   29.3890 C   0  0  0  0  0  0  0  0  0  0  0  0
   36.7960   29.3900   30.4260 C   0  0  0  0  0  0  0  0  0  0  0  0
   40.2690   28.9570   28.8910 H   0  0  0  0  0  0  0  0  0  0  0  0
   38.7400   30.7300   27.9960 H   0  0  0  0  0  0  0  0  0  0  0  0
   36.5290   30.9920   28.9890 H   0  0  0  0  0  0  0  0  0  0  0  0
   35.5370   29.5690   30.9620 O   0  0  0  0  0  0  0  0  0  0  0  0
   35.4310   30.1630   32.2090 C   0  0  0  0  0  0  0  0  0  0  0  0
   34.6780   29.3880   33.0800 C   0  0  0  0  0  0  0  0  0  0  0  0
   34.2130   28.4320   32.8530 H   0  0  0  0  0  0  0  0  0  0  0  0
   34.4390   29.7850   34.3840 C   0  0  0  0  0  3  0  0  0  0  0  0
   34.9610   30.9810   34.8340 C   0  0  0  0  0  0  0  0  0  0  0  0
   34.7610   31.4200   36.0970 N   0  0  0  0  0  0  0  0  0  0  0  0
   35.3100   32.6080   36.4590 C   0  0  0  0  0  0  0  0  0  0  0  0
   35.0910   32.8650   37.4850 H   0  0  0  0  0  0  0  0  0  0  0  0
   36.0780   33.4410   35.6390 C   0  0  0  0  0  3  0  0  0  0  0  0
   36.2550   32.9510   34.3610 C   0  0  0  0  0  3  0  0  0  0  0  0
   35.7090   31.7490   33.9670 C   0  0  0  0  0  0  0  0  0  0  0  0
   35.9500   31.3580   32.6670 C   0  0  0  0  0  3  0  0  0  0  0  0
   39.2680   25.6640   30.1010 S   0  0  0  0  0  0  0  0  0  0  0  0
   37.8900   22.6660   32.4090 C   0  0  0  0  0  0  0  0  0  0  0  0
   38.0360   23.2110   33.6810 C   0  0  0  0  0  0  0  0  0  0  0  0
   38.5530   24.4830   33.7690 C   0  0  0  0  0  0  0  0  0  0  0  0
   38.8870   25.1210   32.6150 N   0  0  0  0  0  0  0  0  0  0  0  0
   38.7370   24.5790   31.4400 C   0  0  0  0  0  0  0  0  0  0  0  0
   38.2260   23.3100   31.2780 N   0  0  0  0  0  0  0  0  0  0  0  0
   37.4900   21.6640   32.2240 H   0  0  0  0  0  0  0  0  0  0  0  0
   38.6750   24.9270   34.7520 H   0  0  0  0  0  0  0  0  0  0  0  0
   37.6600   22.4590   34.7460 O   0  0  0  0  0  0  0  0  0  0  0  0
   38.2580   22.6870   35.9880 C   0  0  0  0  0  0  0  0  0  0  0  0
   37.7410   23.3750   37.0680 C   0  0  0  0  0  0  0  0  0  0  0  0
   38.4880   23.4850   38.1910 C   0  0  0  0  0  0  0  0  0  0  0  0
   39.7200   22.9190   38.2280 C   0  0  0  0  0  0  0  0  0  0  0  0
   40.2340   22.2250   37.1260 C   0  0  0  0  0  0  0  0  0  0  0  0
   39.4640   22.1330   36.0200 N   0  0  0  0  0  0  0  0  0  0  0  0
   36.7400   23.7730   36.8890 H   0  0  0  0  0  0  0  0  0  0  0  0
   38.0470   24.0350   39.0260 H   0  0  0  0  0  0  0  0  0  0  0  0
   40.3240   23.0040   39.1280 H   0  0  0  0  0  0  0  0  0  0  0  0
   41.6140   21.6010   37.1890 C   0  0  0  0  0  0  0  0  0  0  0  0
   42.2990   22.2620   36.5920 H   0  0  0  0  0  0  0  0  0  0  0  0
   41.9290   21.6250   38.2380 H   0  0  0  0  0  0  0  0  0  0  0  0
   41.6130   20.5780   36.7550 H   0  0  0  0  0  0  0  0  0  0  0  0
  1  3  1  0  0  0  0
  2  1  1  0  0  0  0
  5  4  1  0  0  0  0
  6  5  2  0  0  0  0
  6  1  1  0  0  0  0
  7  6  1  0  0  0  0
  8  7  2  0  0  0  0
  8  9  1  0  0  0  0
  9 10  2  0  0  0  0
 10  5  1  0  0  0  0
 10 14  1  0  0  0  0
 11  7  1  0  0  0  0
 12  8  1  0  0  0  0
 13  9  1  0  0  0  0
 14 15  1  0  0  0  0
 15 26  2  0  0  0  0
 15 16  1  0  0  0  0
 16 18  2  0  0  0  0
 17 16  1  0  0  0  0
 18 19  1  0  0  0  0
 19 20  1  0  0  0  0
 20 21  2  0  0  0  0
 21 22  1  0  0  0  0
 23 21  1  0  0  0  0
 24 23  2  0  0  0  0
 25 24  1  0  0  0  0
 25 19  2  0  0  0  0
 26 25  1  0  0  0  0
 27  1  1  0  0  0  0
 27 32  1  0  0  0  0
 28 29  1  0  0  0  0
 29 30  2  0  0  0  0
 29 36  1  0  0  0  0
 30 35  1  0  0  0  0
 31 30  1  0  0  0  0
 32 31  2  0  0  0  0
 33 32  1  0  0  0  0
 33 28  2  0  0  0  0
 34 28  1  0  0  0  0
 36 37  1  0  0  0  0
 37 42  2  0  0  0  0
 37 38  1  0  0  0  0
 38 39  2  0  0  0  0
 39 40  1  0  0  0  0
 39 44  1  0  0  0  0
 40 45  1  0  0  0  0
 41 46  1  0  0  0  0
 41 40  2  0  0  0  0
 42 41  1  0  0  0  0
 43 38  1  0  0  0  0
 46 48  1  0  0  0  0
 47 46  1  0  0  0  0
 49 46  1  0  0  0  0
M  END
>  <minimizedAffinity>
-6.44583321

$$$$

 OpenBabel03262522303D

 49 53  0  0  0  0  0  0  0  0999 V2000
   36.9510   20.8150   32.0580 C   0  0  0  0  0  0  0  0  0  0  0  0
   37.9240   21.2250   31.7660 H   0  0  0  0  0  0  0  0  0  0  0  0
   36.8190   19.7470   31.8030 H   0  0  0  0  0  0  0  0  0  0  0  0
   38.9780   22.0260   33.4690 F   0  0  0  0  0  0  0  0  0  0  0  0
   37.8470   21.6560   34.1340 C   0  0  0  0  0  0  0  0  0  0  0  0
   36.7550   21.0360   33.5270 C   0  0  0  0  0  0  0  0  0  0  0  0
   35.6440   20.6840   34.2380 C   0  0  0  0  0  0  0  0  0  0  0  0
   35.5680   20.9380   35.6090 C   0  0  0  0  0  0  0  0  0  0  0  0
   36.6450   21.5570   36.2360 C   0  0  0  0  0  0  0  0  0  0  0  0
   37.7600   21.9040   35.4970 C   0  0  0  0  0  0  0  0  0  0  0  0
   34.8470   20.2100   33.6950 H   0  0  0  0  0  0  0  0  0  0  0  0
   34.6820   20.6530   36.1570 H   0  0  0  0  0  0  0  0  0  0  0  0
   36.5500   21.7350   37.2890 H   0  0  0  0  0  0  0  0  0  0  0  0
   38.7960   22.5150   36.1740 O   0  0  0  0  0  0  0  0  0  0  0  0
   39.3780   23.6390   35.6110 C   0  0  0  0  0  0  0  0  0  0  0  0
   38.4500   24.6530   35.4180 C   0  0  0  0  0  0  0  0  0  0  0  0
   37.3920   24.6110   35.6640 H   0  0  0  0  0  0  0  0  0  0  0  0
   38.8070   25.8710   34.8680 C   0  0  0  0  0  3  0  0  0  0  0  0
   40.1200   26.0880   34.5000 C   0  0  0  0  0  0  0  0  0  0  0  0
   40.5270   27.2580   33.9570 N   0  0  0  0  0  0  0  0  0  0  0  0
   41.8360   27.3890   33.6230 C   0  0  0  0  0  0  0  0  0  0  0  0
   42.0560   28.3580   33.1990 H   0  0  0  0  0  0  0  0  0  0  0  0
   42.8270   26.4160   33.7860 C   0  0  0  0  0  3  0  0  0  0  0  0
   42.3640   25.2410   34.3430 C   0  0  0  0  0  3  0  0  0  0  0  0
   41.0410   25.0800   34.6910 C   0  0  0  0  0  0  0  0  0  0  0  0
   40.6890   23.8650   35.2390 C   0  0  0  0  0  3  0  0  0  0  0  0
   35.6300   21.7250   31.2120 S   0  0  0  0  0  0  0  0  0  0  0  0
   37.7110   25.1720   31.2860 C   0  0  0  0  0  0  0  0  0  0  0  0
   36.6900   26.1100   31.1580 C   0  0  0  0  0  0  0  0  0  0  0  0
   35.4030   25.6340   31.0550 C   0  0  0  0  0  0  0  0  0  0  0  0
   35.2120   24.2880   31.0840 N   0  0  0  0  0  0  0  0  0  0  0  0
   36.1920   23.4390   31.2050 C   0  0  0  0  0  0  0  0  0  0  0  0
   37.5050   23.8440   31.3130 N   0  0  0  0  0  0  0  0  0  0  0  0
   38.7680   25.4400   31.3740 H   0  0  0  0  0  0  0  0  0  0  0  0
   34.5930   26.3490   30.9540 H   0  0  0  0  0  0  0  0  0  0  0  0
   37.0270   27.4240   31.1440 O   0  0  0  0  0  0  0  0  0  0  0  0
   36.4070   28.2980   32.0390 C   0  0  0  0  0  0  0  0  0  0  0  0
   36.4280   28.2620   33.4190 C   0  0  0  0  0  0  0  0  0  0  0  0
   35.7550   29.2110   34.1080 C   0  0  0  0  0  0  0  0  0  0  0  0
   35.0770   30.1700   33.4300 C   0  0  0  0  0  0  0  0  0  0  0  0
   35.0610   30.1970   32.0310 C   0  0  0  0  0  0  0  0  0  0  0  0
   35.7430   29.2360   31.3710 N   0  0  0  0  0  0  0  0  0  0  0  0
   37.0150   27.4330   33.8200 H   0  0  0  0  0  0  0  0  0  0  0  0
   35.7950   29.1510   35.2000 H   0  0  0  0  0  0  0  0  0  0  0  0
   34.5340   30.9360   33.9800 H   0  0  0  0  0  0  0  0  0  0  0  0
   34.2970   31.2780   31.2940 C   0  0  0  0  0  0  0  0  0  0  0  0
   33.3560   30.8040   30.9020 H   0  0  0  0  0  0  0  0  0  0  0  0
   34.0240   32.0400   32.0330 H   0  0  0  0  0  0  0  0  0  0  0  0
   34.8900   31.6840   30.4450 H   0  0  0  0  0  0  0  0  0  0  0  0
  1  6  1  0  0  0  0
  2  1  1  0  0  0  0
  3  1  1  0  0  0  0
  4  5  1  0  0  0  0
  5 10  1  0  0  0  0
  6  5  2  0  0  0  0
  6  7  1  0  0  0  0
  7  8  2  0  0  0  0
  8 12  1  0  0  0  0
  8  9  1  0  0  0  0
  9 13  1  0  0  0  0
 10 14  1  0  0  0  0
 10  9  2  0  0  0  0
 11  7  1  0  0  0  0
 15 14  1  0  0  0  0
 16 15  1  0  0  0  0
 16 17  1  0  0  0  0
 18 16  2  0  0  0  0
 19 25  1  0  0  0  0
 19 18  1  0  0  0  0
 20 19  2  0  0  0  0
 21 23  2  0  0  0  0
 21 20  1  0  0  0  0
 22 21  1  0  0  0  0
 23 24  1  0  0  0  0
 24 25  2  0  0  0  0
 25 26  1  0  0  0  0
 26 15  2  0  0  0  0
 27  1  1  0  0  0  0
 28 33  1  0  0  0  0
 28 34  1  0  0  0  0
 29 28  2  0  0  0  0
 30 31  2  0  0  0  0
 30 29  1  0  0  0  0
 31 32  1  0  0  0  0
 32 27  1  0  0  0  0
 32 33  2  0  0  0  0
 35 30  1  0  0  0  0
 36 29  1  0  0  0  0
 36 37  1  0  0  0  0
 37 38  1  0  0  0  0
 38 43  1  0  0  0  0
 38 39  2  0  0  0  0
 39 44  1  0  0  0  0
 40 45  1  0  0  0  0
 40 39  1  0  0  0  0
 41 40  2  0  0  0  0
 42 41  1  0  0  0  0
 42 37  2  0  0  0  0
 46 41  1  0  0  0  0
 46 48  1  0  0  0  0
 47 46  1  0  0  0  0
 49 46  1  0  0  0  0
M  END
>  <minimizedAffinity>
-6.43299437

$$$$

 OpenBabel03262522303D

 49 53  0  0  0  0  0  0  0  0999 V2000
   41.7900   25.9370   34.2130 C   0  0  0  0  0  0  0  0  0  0  0  0
   42.0530   26.9960   34.1200 H   0  0  0  0  0  0  0  0  0  0  0  0
   42.5520   25.3290   34.7360 H   0  0  0  0  0  0  0  0  0  0  0  0
   40.8990   23.4330   34.9220 F   0  0  0  0  0  0  0  0  0  0  0  0
   40.1180   24.5130   35.2110 C   0  0  0  0  0  0  0  0  0  0  0  0
   40.4640   25.8280   34.9020 C   0  0  0  0  0  0  0  0  0  0  0  0
   39.6460   26.8760   35.2130 C   0  0  0  0  0  0  0  0  0  0  0  0
   38.4270   26.6590   35.8580 C   0  0  0  0  0  0  0  0  0  0  0  0
   38.0610   25.3540   36.1770 C   0  0  0  0  0  0  0  0  0  0  0  0
   38.9030   24.3080   35.8520 C   0  0  0  0  0  0  0  0  0  0  0  0
   39.9860   27.8580   34.9400 H   0  0  0  0  0  0  0  0  0  0  0  0
   37.7920   27.4990   36.0970 H   0  0  0  0  0  0  0  0  0  0  0  0
   37.1180   25.2280   36.6720 H   0  0  0  0  0  0  0  0  0  0  0  0
   38.4880   23.0380   36.1950 O   0  0  0  0  0  0  0  0  0  0  0  0
   37.6990   22.3380   35.2960 C   0  0  0  0  0  0  0  0  0  0  0  0
   36.7380   21.5750   35.9450 C   0  0  0  0  0  0  0  0  0  0  0  0
   36.5900   21.5070   37.0200 H   0  0  0  0  0  0  0  0  0  0  0  0
   35.8370   20.7930   35.2460 C   0  0  0  0  0  3  0  0  0  0  0  0
   35.8900   20.7670   33.8670 C   0  0  0  0  0  0  0  0  0  0  0  0
   35.0360   20.0220   33.1300 N   0  0  0  0  0  0  0  0  0  0  0  0
   35.1560   20.0540   31.7790 C   0  0  0  0  0  0  0  0  0  0  0  0
   34.4280   19.4250   31.2870 H   0  0  0  0  0  0  0  0  0  0  0  0
   36.0970   20.7950   31.0550 C   0  0  0  0  0  3  0  0  0  0  0  0
   36.9450   21.5390   31.8490 C   0  0  0  0  0  3  0  0  0  0  0  0
   36.8450   21.5250   33.2230 C   0  0  0  0  0  0  0  0  0  0  0  0
   37.7460   22.3070   33.9160 C   0  0  0  0  0  3  0  0  0  0  0  0
   41.5830   25.2150   32.5630 S   0  0  0  0  0  0  0  0  0  0  0  0
   39.0900   27.8750   30.8540 C   0  0  0  0  0  0  0  0  0  0  0  0
   37.8950   27.1600   30.8380 C   0  0  0  0  0  0  0  0  0  0  0  0
   37.9150   25.8860   31.3580 C   0  0  0  0  0  0  0  0  0  0  0  0
   39.0900   25.4110   31.8500 N   0  0  0  0  0  0  0  0  0  0  0  0
   40.1900   26.1090   31.8470 C   0  0  0  0  0  0  0  0  0  0  0  0
   40.2440   27.3900   31.3430 N   0  0  0  0  0  0  0  0  0  0  0  0
   39.1880   28.8940   30.4660 H   0  0  0  0  0  0  0  0  0  0  0  0
   36.9940   25.3110   31.3550 H   0  0  0  0  0  0  0  0  0  0  0  0
   36.7970   27.7600   30.3160 O   0  0  0  0  0  0  0  0  0  0  0  0
   36.3260   28.9420   30.8920 C   0  0  0  0  0  0  0  0  0  0  0  0
   36.3390   30.2150   30.3580 C   0  0  0  0  0  0  0  0  0  0  0  0
   35.8290   31.2350   31.0840 C   0  0  0  0  0  0  0  0  0  0  0  0
   35.3200   30.9840   32.3160 C   0  0  0  0  0  0  0  0  0  0  0  0
   35.3120   29.6900   32.8480 C   0  0  0  0  0  0  0  0  0  0  0  0
   35.8280   28.6930   32.0980 N   0  0  0  0  0  0  0  0  0  0  0  0
   36.7800   30.2600   29.3600 H   0  0  0  0  0  0  0  0  0  0  0  0
   35.8560   32.2290   30.6290 H   0  0  0  0  0  0  0  0  0  0  0  0
   34.9080   31.8010   32.9040 H   0  0  0  0  0  0  0  0  0  0  0  0
   34.7370   29.4320   34.2270 C   0  0  0  0  0  0  0  0  0  0  0  0
   35.6080   29.2870   34.9220 H   0  0  0  0  0  0  0  0  0  0  0  0
   34.1970   30.3370   34.5250 H   0  0  0  0  0  0  0  0  0  0  0  0
   34.1000   28.5200   34.2350 H   0  0  0  0  0  0  0  0  0  0  0  0
  1  3  1  0  0  0  0
  1  6  1  0  0  0  0
  2  1  1  0  0  0  0
  4  5  1  0  0  0  0
  5 10  1  0  0  0  0
  6  5  2  0  0  0  0
  6  7  1  0  0  0  0
  7  8  2  0  0  0  0
  8 12  1  0  0  0  0
  8  9  1  0  0  0  0
  9 13  1  0  0  0  0
 10  9  2  0  0  0  0
 10 14  1  0  0  0  0
 11  7  1  0  0  0  0
 15 16  1  0  0  0  0
 15 14  1  0  0  0  0
 16 17  1  0  0  0  0
 18 16  2  0  0  0  0
 19 18  1  0  0  0  0
 20 19  2  0  0  0  0
 21 20  1  0  0  0  0
 22 21  1  0  0  0  0
 23 21  2  0  0  0  0
 23 24  1  0  0  0  0
 24 25  2  0  0  0  0
 25 19  1  0  0  0  0
 25 26  1  0  0  0  0
 26 15  2  0  0  0  0
 27  1  1  0  0  0  0
 28 33  1  0  0  0  0
 29 28  2  0  0  0  0
 29 30  1  0  0  0  0
 30 31  2  0  0  0  0
 32 31  1  0  0  0  0
 32 27  1  0  0  0  0
 33 32  2  0  0  0  0
 34 28  1  0  0  0  0
 35 30  1  0  0  0  0
 36 29  1  0  0  0  0
 36 37  1  0  0  0  0
 37 42  1  0  0  0  0
 38 37  2  0  0  0  0
 38 39  1  0  0  0  0
 39 40  2  0  0  0  0
 40 41  1  0  0  0  0
 40 45  1  0  0  0  0
 41 46  1  0  0  0  0
 42 41  2  0  0  0  0
 43 38  1  0  0  0  0
 44 39  1  0  0  0  0
 46 49  1  0  0  0  0
 46 48  1  0  0  0  0
 46 47  1  0  0  0  0
M  END
>  <minimizedAffinity>
-6.39588594

$$$$

 OpenBabel03262522303D

 49 53  0  0  0  0  0  0  0  0999 V2000
   37.8800   27.4430   30.9460 C   0  0  0  0  0  0  0  0  0  0  0  0
   38.4530   27.6910   31.8460 H   0  0  0  0  0  0  0  0  0  0  0  0
   38.4910   27.3800   30.0260 H   0  0  0  0  0  0  0  0  0  0  0  0
   39.2760   25.3240   32.0080 F   0  0  0  0  0  0  0  0  0  0  0  0
   37.9530   25.1590   31.7200 C   0  0  0  0  0  0  0  0  0  0  0  0
   37.1440   26.1590   31.1810 C   0  0  0  0  0  0  0  0  0  0  0  0
   35.8240   25.9440   30.9100 C   0  0  0  0  0  0  0  0  0  0  0  0
   35.2380   24.7040   31.1700 C   0  0  0  0  0  0  0  0  0  0  0  0
   36.0260   23.6910   31.7090 C   0  0  0  0  0  0  0  0  0  0  0  0
   37.3600   23.9300   31.9740 C   0  0  0  0  0  0  0  0  0  0  0  0
   35.2700   26.7660   30.4950 H   0  0  0  0  0  0  0  0  0  0  0  0
   34.1910   24.5500   30.9500 H   0  0  0  0  0  0  0  0  0  0  0  0
   35.5410   22.7520   31.8940 H   0  0  0  0  0  0  0  0  0  0  0  0
   38.0910   22.8880   32.5090 O   0  0  0  0  0  0  0  0  0  0  0  0
   38.4330   22.9440   33.8500 C   0  0  0  0  0  0  0  0  0  0  0  0
   39.6260   22.2810   34.1010 C   0  0  0  0  0  0  0  0  0  0  0  0
   40.2450   21.7700   33.3680 H   0  0  0  0  0  0  0  0  0  0  0  0
   40.1630   22.2070   35.3740 C   0  0  0  0  0  3  0  0  0  0  0  0
   39.4980   22.8070   36.4250 C   0  0  0  0  0  0  0  0  0  0  0  0
   39.9740   22.7680   37.6900 N   0  0  0  0  0  0  0  0  0  0  0  0
   39.2580   23.3840   38.6650 C   0  0  0  0  0  0  0  0  0  0  0  0
   39.7240   23.2940   39.6350 H   0  0  0  0  0  0  0  0  0  0  0  0
   38.0510   24.0690   38.4890 C   0  0  0  0  0  3  0  0  0  0  0  0
   37.6070   24.0830   37.1830 C   0  0  0  0  0  3  0  0  0  0  0  0
   38.3130   23.4650   36.1740 C   0  0  0  0  0  0  0  0  0  0  0  0
   37.7740   23.5410   34.9070 C   0  0  0  0  0  3  0  0  0  0  0  0
   36.6250   28.7200   30.6560 S   0  0  0  0  0  0  0  0  0  0  0  0
   35.9160   29.2380   34.5860 C   0  0  0  0  0  0  0  0  0  0  0  0
   35.5270   30.5750   34.6200 C   0  0  0  0  0  0  0  0  0  0  0  0
   35.5010   31.2560   33.4240 C   0  0  0  0  0  0  0  0  0  0  0  0
   35.8550   30.5860   32.2950 N   0  0  0  0  0  0  0  0  0  0  0  0
   36.2130   29.3330   32.3020 C   0  0  0  0  0  0  0  0  0  0  0  0
   36.2630   28.5900   33.4610 N   0  0  0  0  0  0  0  0  0  0  0  0
   35.9720   28.6040   35.4760 H   0  0  0  0  0  0  0  0  0  0  0  0
   35.2010   32.2990   33.4290 H   0  0  0  0  0  0  0  0  0  0  0  0
   35.2010   31.1160   35.8200 O   0  0  0  0  0  0  0  0  0  0  0  0
   33.8620   31.3970   36.1010 C   0  0  0  0  0  0  0  0  0  0  0  0
   32.7790   30.5440   36.0290 C   0  0  0  0  0  0  0  0  0  0  0  0
   31.5520   31.0160   36.3460 C   0  0  0  0  0  0  0  0  0  0  0  0
   31.4160   32.3120   36.7240 C   0  0  0  0  0  0  0  0  0  0  0  0
   32.5210   33.1680   36.7920 C   0  0  0  0  0  0  0  0  0  0  0  0
   33.7320   32.6660   36.4700 N   0  0  0  0  0  0  0  0  0  0  0  0
   33.0450   29.5340   35.7110 H   0  0  0  0  0  0  0  0  0  0  0  0
   30.7180   30.3120   36.2790 H   0  0  0  0  0  0  0  0  0  0  0  0
   30.4310   32.6960   36.9800 H   0  0  0  0  0  0  0  0  0  0  0  0
   32.3450   34.6130   37.2170 C   0  0  0  0  0  0  0  0  0  0  0  0
   32.4170   35.2380   36.2860 H   0  0  0  0  0  0  0  0  0  0  0  0
   31.3330   34.7070   37.6260 H   0  0  0  0  0  0  0  0  0  0  0  0
   33.1380   34.9210   37.9330 H   0  0  0  0  0  0  0  0  0  0  0  0
  1  6  1  0  0  0  0
  1  2  1  0  0  0  0
  3  1  1  0  0  0  0
  5 10  1  0  0  0  0
  5  4  1  0  0  0  0
  6  5  2  0  0  0  0
  7  8  2  0  0  0  0
  7  6  1  0  0  0  0
  8  9  1  0  0  0  0
  9 13  1  0  0  0  0
  9 10  2  0  0  0  0
 10 14  1  0  0  0  0
 11  7  1  0  0  0  0
 12  8  1  0  0  0  0
 14 15  1  0  0  0  0
 15 16  2  0  0  0  0
 15 26  1  0  0  0  0
 16 18  1  0  0  0  0
 17 16  1  0  0  0  0
 18 19  2  0  0  0  0
 19 20  1  0  0  0  0
 20 21  2  0  0  0  0
 21 22  1  0  0  0  0
 23 21  1  0  0  0  0
 24 23  2  0  0  0  0
 25 19  1  0  0  0  0
 25 24  1  0  0  0  0
 26 25  2  0  0  0  0
 27  1  1  0  0  0  0
 27 32  1  0  0  0  0
 28 29  1  0  0  0  0
 28 34  1  0  0  0  0
 29 36  1  0  0  0  0
 30 35  1  0  0  0  0
 30 29  2  0  0  0  0
 31 32  2  0  0  0  0
 31 30  1  0  0  0  0
 32 33  1  0  0  0  0
 33 28  2  0  0  0  0
 36 37  1  0  0  0  0
 37 42  1  0  0  0  0
 38 37  2  0  0  0  0
 38 39  1  0  0  0  0
 39 40  2  0  0  0  0
 40 41  1  0  0  0  0
 40 45  1  0  0  0  0
 41 46  1  0  0  0  0
 42 41  2  0  0  0  0
 43 38  1  0  0  0  0
 44 39  1  0  0  0  0
 46 48  1  0  0  0  0
 46 49  1  0  0  0  0
 47 46  1  0  0  0  0
M  END
>  <minimizedAffinity>
-6.37740421

$$$$

 OpenBabel03262522303D

 49 53  0  0  0  0  0  0  0  0999 V2000
   35.8940   28.8690   31.3030 C   0  0  0  0  0  0  0  0  0  0  0  0
   35.5930   28.0400   31.9520 H   0  0  0  0  0  0  0  0  0  0  0  0
   35.2580   28.9900   30.4050 H   0  0  0  0  0  0  0  0  0  0  0  0
   35.2260   28.7180   33.9670 F   0  0  0  0  0  0  0  0  0  0  0  0
   35.5600   29.9320   33.4420 C   0  0  0  0  0  0  0  0  0  0  0  0
   35.9160   30.1310   32.1090 C   0  0  0  0  0  0  0  0  0  0  0  0
   36.2430   31.3680   31.6320 C   0  0  0  0  0  0  0  0  0  0  0  0
   36.2320   32.4810   32.4760 C   0  0  0  0  0  0  0  0  0  0  0  0
   35.8800   32.3050   33.8110 C   0  0  0  0  0  0  0  0  0  0  0  0
   35.5520   31.0450   34.2720 C   0  0  0  0  0  0  0  0  0  0  0  0
   36.5050   31.4370   30.5930 H   0  0  0  0  0  0  0  0  0  0  0  0
   36.4930   33.4520   32.0830 H   0  0  0  0  0  0  0  0  0  0  0  0
   35.8820   33.1830   34.4280 H   0  0  0  0  0  0  0  0  0  0  0  0
   35.2120   30.9320   35.6050 O   0  0  0  0  0  0  0  0  0  0  0  0
   34.4020   31.9080   36.1630 C   0  0  0  0  0  0  0  0  0  0  0  0
   33.0980   31.8150   35.7000 C   0  0  0  0  0  0  0  0  0  0  0  0
   32.7180   31.0850   34.9890 H   0  0  0  0  0  0  0  0  0  0  0  0
   32.1120   32.6880   36.1230 C   0  0  0  0  0  3  0  0  0  0  0  0
   32.4300   33.6800   37.0300 C   0  0  0  0  0  0  0  0  0  0  0  0
   31.5090   34.5620   37.4800 N   0  0  0  0  0  0  0  0  0  0  0  0
   31.9060   35.5050   38.3720 C   0  0  0  0  0  0  0  0  0  0  0  0
   31.0960   36.1570   38.6650 H   0  0  0  0  0  0  0  0  0  0  0  0
   33.1980   35.6610   38.8830 C   0  0  0  0  0  3  0  0  0  0  0  0
   34.1010   34.7380   38.3960 C   0  0  0  0  0  3  0  0  0  0  0  0
   33.7270   33.7700   37.4900 C   0  0  0  0  0  0  0  0  0  0  0  0
   34.7130   32.9020   37.0710 C   0  0  0  0  0  3  0  0  0  0  0  0
   37.5870   28.5940   30.7130 S   0  0  0  0  0  0  0  0  0  0  0  0
   38.8510   24.7720   30.7670 C   0  0  0  0  0  0  0  0  0  0  0  0
   38.1850   24.2780   31.8850 C   0  0  0  0  0  0  0  0  0  0  0  0
   37.3730   25.1510   32.5730 C   0  0  0  0  0  0  0  0  0  0  0  0
   37.2750   26.4300   32.1200 N   0  0  0  0  0  0  0  0  0  0  0  0
   37.9140   26.8560   31.0680 C   0  0  0  0  0  0  0  0  0  0  0  0
   38.7430   26.0390   30.3320 N   0  0  0  0  0  0  0  0  0  0  0  0
   39.5200   24.1650   30.1480 H   0  0  0  0  0  0  0  0  0  0  0  0
   36.8450   24.7870   33.4490 H   0  0  0  0  0  0  0  0  0  0  0  0
   38.3760   22.9790   32.2230 O   0  0  0  0  0  0  0  0  0  0  0  0
   37.2800   22.1150   32.2650 C   0  0  0  0  0  0  0  0  0  0  0  0
   36.5440   21.6200   31.2060 C   0  0  0  0  0  0  0  0  0  0  0  0
   35.5090   20.7880   31.4610 C   0  0  0  0  0  0  0  0  0  0  0  0
   35.2180   20.4630   32.7460 C   0  0  0  0  0  0  0  0  0  0  0  0
   35.9700   20.9720   33.8110 C   0  0  0  0  0  0  0  0  0  0  0  0
   36.9980   21.7990   33.5240 N   0  0  0  0  0  0  0  0  0  0  0  0
   36.8970   21.9700   30.2340 H   0  0  0  0  0  0  0  0  0  0  0  0
   34.9500   20.4150   30.5990 H   0  0  0  0  0  0  0  0  0  0  0  0
   34.3870   19.7940   32.9560 H   0  0  0  0  0  0  0  0  0  0  0  0
   35.6280   20.5950   35.2390 C   0  0  0  0  0  0  0  0  0  0  0  0
   35.1110   21.4830   35.6960 H   0  0  0  0  0  0  0  0  0  0  0  0
   34.9170   19.7630   35.1900 H   0  0  0  0  0  0  0  0  0  0  0  0
   36.5430   20.3560   35.8230 H   0  0  0  0  0  0  0  0  0  0  0  0
  1  2  1  0  0  0  0
  1  6  1  0  0  0  0
  3  1  1  0  0  0  0
  5  4  1  0  0  0  0
  5 10  1  0  0  0  0
  6  5  2  0  0  0  0
  7  6  1  0  0  0  0
  7  8  2  0  0  0  0
  8  9  1  0  0  0  0
  9 10  2  0  0  0  0
  9 13  1  0  0  0  0
 10 14  1  0  0  0  0
 11  7  1  0  0  0  0
 12  8  1  0  0  0  0
 14 15  1  0  0  0  0
 15 26  1  0  0  0  0
 16 18  1  0  0  0  0
 16 15  2  0  0  0  0
 17 16  1  0  0  0  0
 18 19  2  0  0  0  0
 19 20  1  0  0  0  0
 19 25  1  0  0  0  0
 20 21  2  0  0  0  0
 21 22  1  0  0  0  0
 21 23  1  0  0  0  0
 24 23  2  0  0  0  0
 25 24  1  0  0  0  0
 26 25  2  0  0  0  0
 27 32  1  0  0  0  0
 27  1  1  0  0  0  0
 28 29  1  0  0  0  0
 29 36  1  0  0  0  0
 29 30  2  0  0  0  0
 30 35  1  0  0  0  0
 31 30  1  0  0  0  0
 32 31  2  0  0  0  0
 33 28  2  0  0  0  0
 33 32  1  0  0  0  0
 34 28  1  0  0  0  0
 36 37  1  0  0  0  0
 37 42  1  0  0  0  0
 38 39  1  0  0  0  0
 38 37  2  0  0  0  0
 39 40  2  0  0  0  0
 40 45  1  0  0  0  0
 40 41  1  0  0  0  0
 41 46  1  0  0  0  0
 42 41  2  0  0  0  0
 43 38  1  0  0  0  0
 44 39  1  0  0  0  0
 46 47  1  0  0  0  0
 46 49  1  0  0  0  0
 48 46  1  0  0  0  0
M  END
>  <minimizedAffinity>
-6.28540611

$$$$
