
 OpenBabel03272502573D

 45 49  0  0  0  0  0  0  0  0999 V2000
   38.8320   26.3450   32.9140 C   0  0  0  0  0  0  0  0  0  0  0  0
   40.1080   26.2940   32.3420 C   0  0  0  0  0  0  0  0  0  0  0  0
   41.1050   25.4970   32.8970 C   0  0  0  0  0  0  0  0  0  0  0  0
   40.7490   24.7760   34.0240 C   0  0  0  0  0  0  0  0  0  0  0  0
   39.4870   24.8210   34.5960 C   0  0  0  0  0  0  0  0  0  0  0  0
   38.5540   25.6180   34.0110 N   0  0  0  0  0  0  0  0  0  0  0  0
   39.2360   24.0500   35.7370 N   0  0  0  0  0  0  0  0  0  0  0  0
   40.3510   23.4900   36.4540 C   0  0  0  0  0  0  0  0  0  0  0  0
   39.7980   22.5910   37.5300 C   0  0  0  0  0  0  0  0  0  0  0  0
   38.8970   23.3840   38.4520 C   0  0  0  0  0  0  0  0  0  0  0  0
   37.8720   24.1740   37.7060 C   0  0  0  0  0  0  0  0  0  0  0  0
   37.9080   23.7720   36.2550 C   0  0  0  0  0  0  0  0  0  0  0  0
   40.3060   26.8840   31.4650 H   0  0  0  0  0  0  0  0  0  0  0  0
   42.0670   25.4810   32.4370 H   0  0  0  0  0  0  0  0  0  0  0  0
   41.5860   24.1790   34.3950 H   0  0  0  0  0  0  0  0  0  0  0  0
   40.8880   24.3280   36.9340 H   0  0  0  0  0  0  0  0  0  0  0  0
   40.9930   22.8520   35.8170 H   0  0  0  0  0  0  0  0  0  0  0  0
   40.6580   22.2450   38.1760 H   0  0  0  0  0  0  0  0  0  0  0  0
   39.2960   21.7040   37.1020 H   0  0  0  0  0  0  0  0  0  0  0  0
   38.3360   22.6160   39.0550 H   0  0  0  0  0  0  0  0  0  0  0  0
   39.4850   23.9540   39.1900 H   0  0  0  0  0  0  0  0  0  0  0  0
   36.8680   24.1060   38.1480 H   0  0  0  0  0  0  0  0  0  0  0  0
   38.1660   25.2460   37.7360 H   0  0  0  0  0  0  0  0  0  0  0  0
   37.6910   22.6780   36.2070 H   0  0  0  0  0  0  0  0  0  0  0  0
   37.1150   24.2550   35.6450 H   0  0  0  0  0  0  0  0  0  0  0  0
   36.8000   28.0840   30.4200 C   0  0  0  0  0  0  0  0  0  0  0  0
   35.8990   28.8230   31.2190 C   0  0  0  0  0  0  0  0  0  0  0  0
   36.0110   28.7040   32.5840 C   0  0  0  0  0  0  0  0  0  0  0  0
   36.9850   27.8840   33.0770 N   0  0  0  0  0  0  0  0  0  0  0  0
   37.8320   27.1910   32.3010 C   0  0  0  0  0  0  0  0  0  0  0  0
   37.7250   27.3020   30.9900 N   0  0  0  0  0  0  0  0  0  0  0  0
   36.7520   28.1420   29.3400 H   0  0  0  0  0  0  0  0  0  0  0  0
   35.1640   29.4440   30.7740 H   0  0  0  0  0  0  0  0  0  0  0  0
   35.1480   29.4100   33.5080 C   0  0  0  0  0  0  0  0  0  0  0  0
   33.7790   29.2920   33.5200 C   0  0  0  0  0  0  0  0  0  0  0  0
   33.2870   28.6470   32.8150 H   0  0  0  0  0  0  0  0  0  0  0  0
   33.0240   29.9930   34.4280 C   0  0  0  0  0  3  0  0  0  0  0  0
   33.5710   30.8390   35.3630 C   0  0  0  0  0  0  0  0  0  0  0  0
   32.8130   31.5090   36.2350 N   0  0  0  0  0  0  0  0  0  0  0  0
   33.3030   32.3490   37.1700 C   0  0  0  0  0  0  0  0  0  0  0  0
   32.6690   32.8850   37.8690 H   0  0  0  0  0  0  0  0  0  0  0  0
   34.6710   32.4770   37.1700 C   0  0  0  0  0  3  0  0  0  0  0  0
   35.5240   31.8190   36.3010 C   0  0  0  0  0  3  0  0  0  0  0  0
   34.9540   30.9810   35.3790 C   0  0  0  0  0  0  0  0  0  0  0  0
   35.6770   30.2620   34.4520 C   0  0  0  0  0  3  0  0  0  0  0  0
  1  6  1  0  0  0  0
  2  3  1  0  0  0  0
  2  1  2  0  0  0  0
  3  4  2  0  0  0  0
  4 15  1  0  0  0  0
  4  5  1  0  0  0  0
  5  7  1  0  0  0  0
  6  5  2  0  0  0  0
  7 12  1  0  0  0  0
  7  8  1  0  0  0  0
  8 16  1  0  0  0  0
  8  9  1  0  0  0  0
  9 18  1  0  0  0  0
  9 10  1  0  0  0  0
 10 20  1  0  0  0  0
 10 21  1  0  0  0  0
 11 23  1  0  0  0  0
 11 22  1  0  0  0  0
 11 10  1  0  0  0  0
 12 11  1  0  0  0  0
 13  2  1  0  0  0  0
 14  3  1  0  0  0  0
 17  8  1  0  0  0  0
 19  9  1  0  0  0  0
 24 12  1  0  0  0  0
 25 12  1  0  0  0  0
 26 31  2  0  0  0  0
 26 27  1  0  0  0  0
 27 28  2  0  0  0  0
 28 29  1  0  0  0  0
 28 34  1  0  0  0  0
 30  1  1  0  0  0  0
 30 29  2  0  0  0  0
 31 30  1  0  0  0  0
 32 26  1  0  0  0  0
 33 27  1  0  0  0  0
 34 35  2  0  0  0  0
 34 45  1  0  0  0  0
 35 37  1  0  0  0  0
 36 35  1  0  0  0  0
 37 38  2  0  0  0  0
 38 44  1  0  0  0  0
 38 39  1  0  0  0  0
 39 40  2  0  0  0  0
 40 41  1  0  0  0  0
 42 40  1  0  0  0  0
 43 42  2  0  0  0  0
 44 43  1  0  0  0  0
 45 44  2  0  0  0  0
M  END
>  <minimizedAffinity>
-7.17150784

$$$$

 OpenBabel03272502573D

 45 49  0  0  0  0  0  0  0  0999 V2000
   38.3940   24.9350   35.2690 C   0  0  0  0  0  0  0  0  0  0  0  0
   37.5700   24.9270   36.4000 C   0  0  0  0  0  0  0  0  0  0  0  0
   37.8900   24.1460   37.5070 C   0  0  0  0  0  0  0  0  0  0  0  0
   39.0530   23.4010   37.4100 C   0  0  0  0  0  0  0  0  0  0  0  0
   39.8740   23.4040   36.2930 C   0  0  0  0  0  0  0  0  0  0  0  0
   39.5110   24.1850   35.2420 N   0  0  0  0  0  0  0  0  0  0  0  0
   41.0270   22.6110   36.3020 N   0  0  0  0  0  0  0  0  0  0  0  0
   41.1630   21.5990   37.3150 C   0  0  0  0  0  0  0  0  0  0  0  0
   42.5460   21.0090   37.1900 C   0  0  0  0  0  0  0  0  0  0  0  0
   42.7350   20.4290   35.8050 C   0  0  0  0  0  0  0  0  0  0  0  0
   42.3630   21.3930   34.7270 C   0  0  0  0  0  0  0  0  0  0  0  0
   42.1120   22.7420   35.3460 C   0  0  0  0  0  0  0  0  0  0  0  0
   36.6830   25.5340   36.3990 H   0  0  0  0  0  0  0  0  0  0  0  0
   37.2400   24.1620   38.3540 H   0  0  0  0  0  0  0  0  0  0  0  0
   39.2290   22.8200   38.3190 H   0  0  0  0  0  0  0  0  0  0  0  0
   40.4210   20.8100   37.0950 H   0  0  0  0  0  0  0  0  0  0  0  0
   41.0930   22.0060   38.3410 H   0  0  0  0  0  0  0  0  0  0  0  0
   42.6190   20.1310   37.8960 H   0  0  0  0  0  0  0  0  0  0  0  0
   43.3280   21.7450   37.4540 H   0  0  0  0  0  0  0  0  0  0  0  0
   43.8420   20.2460   35.7070 H   0  0  0  0  0  0  0  0  0  0  0  0
   42.2720   19.4320   35.7250 H   0  0  0  0  0  0  0  0  0  0  0  0
   43.0930   21.4240   33.9050 H   0  0  0  0  0  0  0  0  0  0  0  0
   41.3950   21.0710   34.2870 H   0  0  0  0  0  0  0  0  0  0  0  0
   43.0530   23.0530   35.8610 H   0  0  0  0  0  0  0  0  0  0  0  0
   41.9110   23.5390   34.5980 H   0  0  0  0  0  0  0  0  0  0  0  0
   38.1050   26.2730   31.8780 C   0  0  0  0  0  0  0  0  0  0  0  0
   37.2500   27.3830   32.0580 C   0  0  0  0  0  0  0  0  0  0  0  0
   36.7980   27.6410   33.3300 C   0  0  0  0  0  0  0  0  0  0  0  0
   37.2040   26.8110   34.3340 N   0  0  0  0  0  0  0  0  0  0  0  0
   38.0170   25.7610   34.1440 C   0  0  0  0  0  0  0  0  0  0  0  0
   38.4520   25.5100   32.9220 N   0  0  0  0  0  0  0  0  0  0  0  0
   38.4890   26.0260   30.8960 H   0  0  0  0  0  0  0  0  0  0  0  0
   36.9720   27.9900   31.2350 H   0  0  0  0  0  0  0  0  0  0  0  0
   35.9180   28.7480   33.6410 C   0  0  0  0  0  0  0  0  0  0  0  0
   34.7620   29.0260   32.9540 C   0  0  0  0  0  0  0  0  0  0  0  0
   34.4620   28.4040   32.1290 H   0  0  0  0  0  0  0  0  0  0  0  0
   33.9760   30.0950   33.3080 C   0  0  0  0  0  3  0  0  0  0  0  0
   34.2840   30.9400   34.3470 C   0  0  0  0  0  0  0  0  0  0  0  0
   33.5020   31.9720   34.6700 N   0  0  0  0  0  0  0  0  0  0  0  0
   33.7620   32.8290   35.6800 C   0  0  0  0  0  0  0  0  0  0  0  0
   33.1120   33.6620   35.9260 H   0  0  0  0  0  0  0  0  0  0  0  0
   34.9160   32.5630   36.3770 C   0  0  0  0  0  3  0  0  0  0  0  0
   35.7770   31.5150   36.1050 C   0  0  0  0  0  3  0  0  0  0  0  0
   35.4480   30.6870   35.0640 C   0  0  0  0  0  0  0  0  0  0  0  0
   36.2100   29.6060   34.6790 C   0  0  0  0  0  3  0  0  0  0  0  0
  1  2  1  0  0  0  0
  2  3  2  0  0  0  0
  3 14  1  0  0  0  0
  4  3  1  0  0  0  0
  4 15  1  0  0  0  0
  5  7  1  0  0  0  0
  5  4  2  0  0  0  0
  6  1  2  0  0  0  0
  6  5  1  0  0  0  0
  7  8  1  0  0  0  0
  8 17  1  0  0  0  0
  9  8  1  0  0  0  0
  9 19  1  0  0  0  0
  9 18  1  0  0  0  0
 10  9  1  0  0  0  0
 11 12  1  0  0  0  0
 11 10  1  0  0  0  0
 12 24  1  0  0  0  0
 12  7  1  0  0  0  0
 13  2  1  0  0  0  0
 16  8  1  0  0  0  0
 20 10  1  0  0  0  0
 21 10  1  0  0  0  0
 22 11  1  0  0  0  0
 23 11  1  0  0  0  0
 25 12  1  0  0  0  0
 26 27  2  0  0  0  0
 26 31  1  0  0  0  0
 27 28  1  0  0  0  0
 28 34  1  0  0  0  0
 28 29  2  0  0  0  0
 30 29  1  0  0  0  0
 30  1  1  0  0  0  0
 31 30  2  0  0  0  0
 32 26  1  0  0  0  0
 33 27  1  0  0  0  0
 34 45  1  0  0  0  0
 35 37  1  0  0  0  0
 35 34  2  0  0  0  0
 36 35  1  0  0  0  0
 37 38  2  0  0  0  0
 38 39  1  0  0  0  0
 38 44  1  0  0  0  0
 39 40  2  0  0  0  0
 40 41  1  0  0  0  0
 40 42  1  0  0  0  0
 43 42  2  0  0  0  0
 44 43  1  0  0  0  0
 45 44  2  0  0  0  0
M  END
>  <minimizedAffinity>
-6.88591099

$$$$

 OpenBabel03272502573D

 45 49  0  0  0  0  0  0  0  0999 V2000
   37.6290   25.6910   32.3720 C   0  0  0  0  0  0  0  0  0  0  0  0
   38.8270   25.7120   33.0920 C   0  0  0  0  0  0  0  0  0  0  0  0
   39.4110   24.5290   33.5370 C   0  0  0  0  0  0  0  0  0  0  0  0
   38.7350   23.3630   33.2220 C   0  0  0  0  0  0  0  0  0  0  0  0
   37.5470   23.3340   32.5090 C   0  0  0  0  0  0  0  0  0  0  0  0
   37.0240   24.5200   32.1000 N   0  0  0  0  0  0  0  0  0  0  0  0
   36.9490   22.0960   32.2450 N   0  0  0  0  0  0  0  0  0  0  0  0
   37.4020   20.9400   32.9710 C   0  0  0  0  0  0  0  0  0  0  0  0
   36.7100   19.7330   32.3880 C   0  0  0  0  0  0  0  0  0  0  0  0
   35.2090   19.8970   32.4980 C   0  0  0  0  0  0  0  0  0  0  0  0
   34.7380   21.2100   31.9650 C   0  0  0  0  0  0  0  0  0  0  0  0
   35.8870   21.8960   31.2750 C   0  0  0  0  0  0  0  0  0  0  0  0
   39.2920   26.6600   33.2980 H   0  0  0  0  0  0  0  0  0  0  0  0
   40.3260   24.5800   34.0850 H   0  0  0  0  0  0  0  0  0  0  0  0
   39.2590   22.4840   33.6070 H   0  0  0  0  0  0  0  0  0  0  0  0
   37.0770   21.0610   34.0200 H   0  0  0  0  0  0  0  0  0  0  0  0
   38.4870   20.7580   32.8560 H   0  0  0  0  0  0  0  0  0  0  0  0
   36.9610   18.8390   33.0300 H   0  0  0  0  0  0  0  0  0  0  0  0
   37.0420   19.5340   31.3530 H   0  0  0  0  0  0  0  0  0  0  0  0
   34.7720   19.1020   31.8300 H   0  0  0  0  0  0  0  0  0  0  0  0
   34.8550   19.6460   33.5120 H   0  0  0  0  0  0  0  0  0  0  0  0
   33.8440   21.1240   31.3320 H   0  0  0  0  0  0  0  0  0  0  0  0
   34.4630   21.8590   32.8250 H   0  0  0  0  0  0  0  0  0  0  0  0
   36.2310   21.2240   30.4520 H   0  0  0  0  0  0  0  0  0  0  0  0
   35.5970   22.8450   30.7760 H   0  0  0  0  0  0  0  0  0  0  0  0
   36.7450   28.5770   30.3070 C   0  0  0  0  0  0  0  0  0  0  0  0
   35.9440   29.3460   31.1810 C   0  0  0  0  0  0  0  0  0  0  0  0
   35.7300   28.8570   32.4480 C   0  0  0  0  0  0  0  0  0  0  0  0
   36.3040   27.6630   32.7780 N   0  0  0  0  0  0  0  0  0  0  0  0
   37.0610   26.9470   31.9340 C   0  0  0  0  0  0  0  0  0  0  0  0
   37.2680   27.4150   30.7160 N   0  0  0  0  0  0  0  0  0  0  0  0
   36.9430   28.9180   29.2990 H   0  0  0  0  0  0  0  0  0  0  0  0
   35.5270   30.2670   30.8630 H   0  0  0  0  0  0  0  0  0  0  0  0
   34.9300   29.5520   33.4340 C   0  0  0  0  0  0  0  0  0  0  0  0
   33.5620   29.4560   33.5170 C   0  0  0  0  0  0  0  0  0  0  0  0
   33.0220   28.8360   32.8240 H   0  0  0  0  0  0  0  0  0  0  0  0
   32.8690   30.1450   34.4810 C   0  0  0  0  0  3  0  0  0  0  0  0
   33.4790   30.9590   35.4060 C   0  0  0  0  0  0  0  0  0  0  0  0
   32.7810   31.6180   36.3330 N   0  0  0  0  0  0  0  0  0  0  0  0
   33.3330   32.4270   37.2610 C   0  0  0  0  0  0  0  0  0  0  0  0
   32.7470   32.9540   38.0060 H   0  0  0  0  0  0  0  0  0  0  0  0
   34.7020   32.5330   37.1900 C   0  0  0  0  0  3  0  0  0  0  0  0
   35.4950   31.8840   36.2600 C   0  0  0  0  0  3  0  0  0  0  0  0
   34.8630   31.0790   35.3500 C   0  0  0  0  0  0  0  0  0  0  0  0
   35.5230   30.3720   34.3680 C   0  0  0  0  0  3  0  0  0  0  0  0
  1  2  1  0  0  0  0
  2 13  1  0  0  0  0
  2  3  2  0  0  0  0
  3 14  1  0  0  0  0
  4  3  1  0  0  0  0
  4 15  1  0  0  0  0
  5  4  2  0  0  0  0
  6  1  2  0  0  0  0
  6  5  1  0  0  0  0
  7  5  1  0  0  0  0
  7  8  1  0  0  0  0
  8 16  1  0  0  0  0
  9 10  1  0  0  0  0
  9  8  1  0  0  0  0
  9 18  1  0  0  0  0
 10 21  1  0  0  0  0
 11 10  1  0  0  0  0
 11 23  1  0  0  0  0
 12 11  1  0  0  0  0
 12  7  1  0  0  0  0
 17  8  1  0  0  0  0
 19  9  1  0  0  0  0
 20 10  1  0  0  0  0
 22 11  1  0  0  0  0
 24 12  1  0  0  0  0
 25 12  1  0  0  0  0
 26 31  2  0  0  0  0
 26 27  1  0  0  0  0
 27 28  2  0  0  0  0
 28 29  1  0  0  0  0
 28 34  1  0  0  0  0
 30  1  1  0  0  0  0
 30 29  2  0  0  0  0
 31 30  1  0  0  0  0
 32 26  1  0  0  0  0
 33 27  1  0  0  0  0
 34 35  2  0  0  0  0
 34 45  1  0  0  0  0
 35 37  1  0  0  0  0
 36 35  1  0  0  0  0
 37 38  2  0  0  0  0
 38 39  1  0  0  0  0
 39 40  2  0  0  0  0
 40 41  1  0  0  0  0
 42 40  1  0  0  0  0
 43 42  2  0  0  0  0
 44 38  1  0  0  0  0
 44 43  1  0  0  0  0
 45 44  2  0  0  0  0
M  END
>  <minimizedAffinity>
-6.84966135

$$$$

 OpenBabel03272502573D

 45 49  0  0  0  0  0  0  0  0999 V2000
   36.6000   25.6570   31.8110 C   0  0  0  0  0  0  0  0  0  0  0  0
   36.0710   24.7040   30.9340 C   0  0  0  0  0  0  0  0  0  0  0  0
   36.2470   23.3440   31.1710 C   0  0  0  0  0  0  0  0  0  0  0  0
   36.9630   23.0130   32.3090 C   0  0  0  0  0  0  0  0  0  0  0  0
   37.4900   23.9520   33.1830 C   0  0  0  0  0  0  0  0  0  0  0  0
   37.2870   25.2650   32.9000 N   0  0  0  0  0  0  0  0  0  0  0  0
   38.1980   23.5060   34.3050 N   0  0  0  0  0  0  0  0  0  0  0  0
   38.6220   22.1310   34.3550 C   0  0  0  0  0  0  0  0  0  0  0  0
   39.2150   21.8840   35.7190 C   0  0  0  0  0  0  0  0  0  0  0  0
   40.3770   22.8260   35.9530 C   0  0  0  0  0  0  0  0  0  0  0  0
   40.0240   24.2490   35.6700 C   0  0  0  0  0  0  0  0  0  0  0  0
   38.5400   24.3460   35.4390 C   0  0  0  0  0  0  0  0  0  0  0  0
   35.5260   25.0410   30.0710 H   0  0  0  0  0  0  0  0  0  0  0  0
   35.8320   22.6430   30.4820 H   0  0  0  0  0  0  0  0  0  0  0  0
   37.0550   21.9300   32.4200 H   0  0  0  0  0  0  0  0  0  0  0  0
   39.4150   22.0030   33.5960 H   0  0  0  0  0  0  0  0  0  0  0  0
   37.7810   21.4190   34.2500 H   0  0  0  0  0  0  0  0  0  0  0  0
   39.6630   20.8480   35.7260 H   0  0  0  0  0  0  0  0  0  0  0  0
   38.4490   21.9470   36.5140 H   0  0  0  0  0  0  0  0  0  0  0  0
   40.5950   22.7610   37.0570 H   0  0  0  0  0  0  0  0  0  0  0  0
   41.2910   22.4590   35.4590 H   0  0  0  0  0  0  0  0  0  0  0  0
   40.3880   24.9460   36.4390 H   0  0  0  0  0  0  0  0  0  0  0  0
   40.5050   24.5450   34.7130 H   0  0  0  0  0  0  0  0  0  0  0  0
   38.0330   23.9790   36.3640 H   0  0  0  0  0  0  0  0  0  0  0  0
   38.1830   25.3890   35.3040 H   0  0  0  0  0  0  0  0  0  0  0  0
   36.6570   28.9080   30.1380 C   0  0  0  0  0  0  0  0  0  0  0  0
   35.9520   29.7320   31.0440 C   0  0  0  0  0  0  0  0  0  0  0  0
   35.4780   29.1530   32.1970 C   0  0  0  0  0  0  0  0  0  0  0  0
   35.7200   27.8240   32.3920 N   0  0  0  0  0  0  0  0  0  0  0  0
   36.3920   27.0580   31.5200 C   0  0  0  0  0  0  0  0  0  0  0  0
   36.8480   27.6120   30.4110 N   0  0  0  0  0  0  0  0  0  0  0  0
   37.0500   29.3160   29.2150 H   0  0  0  0  0  0  0  0  0  0  0  0
   35.7980   30.7600   30.8330 H   0  0  0  0  0  0  0  0  0  0  0  0
   34.7420   29.8920   33.2020 C   0  0  0  0  0  0  0  0  0  0  0  0
   33.3730   30.0040   33.2220 C   0  0  0  0  0  0  0  0  0  0  0  0
   32.7820   29.5270   32.4600 H   0  0  0  0  0  0  0  0  0  0  0  0
   32.7430   30.7210   34.2090 C   0  0  0  0  0  3  0  0  0  0  0  0
   33.4200   31.3610   35.2190 C   0  0  0  0  0  0  0  0  0  0  0  0
   32.7830   32.0530   36.1660 N   0  0  0  0  0  0  0  0  0  0  0  0
   33.4030   32.6970   37.1760 C   0  0  0  0  0  0  0  0  0  0  0  0
   32.8660   33.2540   37.9370 H   0  0  0  0  0  0  0  0  0  0  0  0
   34.7740   32.5940   37.1700 C   0  0  0  0  0  3  0  0  0  0  0  0
   35.5070   31.8970   36.2250 C   0  0  0  0  0  3  0  0  0  0  0  0
   34.8080   31.2680   35.2280 C   0  0  0  0  0  0  0  0  0  0  0  0
   35.4030   30.5400   34.2220 C   0  0  0  0  0  3  0  0  0  0  0  0
  1  6  1  0  0  0  0
  2  3  1  0  0  0  0
  2  1  2  0  0  0  0
  3  4  2  0  0  0  0
  4 15  1  0  0  0  0
  4  5  1  0  0  0  0
  5  7  1  0  0  0  0
  6  5  2  0  0  0  0
  7  8  1  0  0  0  0
  7 12  1  0  0  0  0
  8  9  1  0  0  0  0
  9 18  1  0  0  0  0
  9 10  1  0  0  0  0
  9 19  1  0  0  0  0
 10 20  1  0  0  0  0
 11 10  1  0  0  0  0
 11 22  1  0  0  0  0
 12 11  1  0  0  0  0
 12 24  1  0  0  0  0
 13  2  1  0  0  0  0
 14  3  1  0  0  0  0
 16  8  1  0  0  0  0
 17  8  1  0  0  0  0
 21 10  1  0  0  0  0
 23 11  1  0  0  0  0
 25 12  1  0  0  0  0
 26 31  2  0  0  0  0
 26 27  1  0  0  0  0
 27 28  2  0  0  0  0
 28 29  1  0  0  0  0
 28 34  1  0  0  0  0
 30  1  1  0  0  0  0
 30 29  2  0  0  0  0
 31 30  1  0  0  0  0
 32 26  1  0  0  0  0
 33 27  1  0  0  0  0
 34 35  2  0  0  0  0
 34 45  1  0  0  0  0
 35 37  1  0  0  0  0
 36 35  1  0  0  0  0
 37 38  2  0  0  0  0
 38 44  1  0  0  0  0
 38 39  1  0  0  0  0
 39 40  2  0  0  0  0
 40 41  1  0  0  0  0
 42 40  1  0  0  0  0
 43 42  2  0  0  0  0
 44 43  1  0  0  0  0
 45 44  2  0  0  0  0
M  END
>  <minimizedAffinity>
-6.7693758

$$$$

 OpenBabel03272502573D

 45 49  0  0  0  0  0  0  0  0999 V2000
   37.8940   24.6990   32.6120 C   0  0  0  0  0  0  0  0  0  0  0  0
   38.6340   24.9310   31.4490 C   0  0  0  0  0  0  0  0  0  0  0  0
   38.6330   24.0070   30.4080 C   0  0  0  0  0  0  0  0  0  0  0  0
   37.8630   22.8720   30.6040 C   0  0  0  0  0  0  0  0  0  0  0  0
   37.1270   22.6360   31.7540 C   0  0  0  0  0  0  0  0  0  0  0  0
   37.1670   23.5730   32.7370 N   0  0  0  0  0  0  0  0  0  0  0  0
   36.3830   21.4530   31.8460 N   0  0  0  0  0  0  0  0  0  0  0  0
   36.6430   20.3960   30.9060 C   0  0  0  0  0  0  0  0  0  0  0  0
   35.6110   19.3200   31.1290 C   0  0  0  0  0  0  0  0  0  0  0  0
   35.6900   18.8180   32.5550 C   0  0  0  0  0  0  0  0  0  0  0  0
   35.6650   19.9290   33.5530 C   0  0  0  0  0  0  0  0  0  0  0  0
   35.3500   21.2170   32.8400 C   0  0  0  0  0  0  0  0  0  0  0  0
   39.2080   25.8370   31.3720 H   0  0  0  0  0  0  0  0  0  0  0  0
   39.2090   24.2140   29.5340 H   0  0  0  0  0  0  0  0  0  0  0  0
   37.9180   22.2020   29.7420 H   0  0  0  0  0  0  0  0  0  0  0  0
   37.6410   19.9830   31.1420 H   0  0  0  0  0  0  0  0  0  0  0  0
   36.5290   20.7190   29.8540 H   0  0  0  0  0  0  0  0  0  0  0  0
   35.8810   18.4340   30.4840 H   0  0  0  0  0  0  0  0  0  0  0  0
   34.5970   19.6650   30.8550 H   0  0  0  0  0  0  0  0  0  0  0  0
   34.7480   18.2210   32.7140 H   0  0  0  0  0  0  0  0  0  0  0  0
   36.5120   18.0940   32.6770 H   0  0  0  0  0  0  0  0  0  0  0  0
   34.9970   19.7320   34.4030 H   0  0  0  0  0  0  0  0  0  0  0  0
   36.6890   20.0500   33.9680 H   0  0  0  0  0  0  0  0  0  0  0  0
   34.3560   21.0910   32.3480 H   0  0  0  0  0  0  0  0  0  0  0  0
   35.2300   22.0820   33.5270 H   0  0  0  0  0  0  0  0  0  0  0  0
   38.7750   26.4840   35.6800 C   0  0  0  0  0  0  0  0  0  0  0  0
   37.9340   27.6180   35.6270 C   0  0  0  0  0  0  0  0  0  0  0  0
   37.0940   27.7400   34.5460 C   0  0  0  0  0  0  0  0  0  0  0  0
   37.1250   26.7590   33.5980 N   0  0  0  0  0  0  0  0  0  0  0  0
   37.9300   25.6880   33.6660 C   0  0  0  0  0  0  0  0  0  0  0  0
   38.7390   25.5700   34.7030 N   0  0  0  0  0  0  0  0  0  0  0  0
   39.4560   26.3420   36.5090 H   0  0  0  0  0  0  0  0  0  0  0  0
   37.9590   28.3450   36.3980 H   0  0  0  0  0  0  0  0  0  0  0  0
   36.1860   28.8560   34.3790 C   0  0  0  0  0  0  0  0  0  0  0  0
   35.3060   28.9780   33.3300 C   0  0  0  0  0  0  0  0  0  0  0  0
   35.2640   28.2180   32.5710 H   0  0  0  0  0  0  0  0  0  0  0  0
   34.4740   30.0660   33.2380 C   0  0  0  0  0  3  0  0  0  0  0  0
   34.4630   31.0820   34.1630 C   0  0  0  0  0  0  0  0  0  0  0  0
   33.6430   32.1290   34.0490 N   0  0  0  0  0  0  0  0  0  0  0  0
   33.5950   33.1500   34.9300 C   0  0  0  0  0  0  0  0  0  0  0  0
   32.9210   33.9930   34.8170 H   0  0  0  0  0  0  0  0  0  0  0  0
   34.4700   33.0420   35.9840 C   0  0  0  0  0  3  0  0  0  0  0  0
   35.3500   31.9910   36.1730 C   0  0  0  0  0  3  0  0  0  0  0  0
   35.3410   30.9900   35.2370 C   0  0  0  0  0  0  0  0  0  0  0  0
   36.1600   29.8840   35.2950 C   0  0  0  0  0  3  0  0  0  0  0  0
  1  6  1  0  0  0  0
  1 30  1  0  0  0  0
  2  1  2  0  0  0  0
  3  4  2  0  0  0  0
  3  2  1  0  0  0  0
  4  5  1  0  0  0  0
  5  7  1  0  0  0  0
  5  6  2  0  0  0  0
  7 12  1  0  0  0  0
  8  9  1  0  0  0  0
  8 16  1  0  0  0  0
  8  7  1  0  0  0  0
  9 10  1  0  0  0  0
 10 21  1  0  0  0  0
 10 20  1  0  0  0  0
 10 11  1  0  0  0  0
 11 23  1  0  0  0  0
 11 22  1  0  0  0  0
 12 25  1  0  0  0  0
 12 11  1  0  0  0  0
 13  2  1  0  0  0  0
 14  3  1  0  0  0  0
 15  4  1  0  0  0  0
 17  8  1  0  0  0  0
 18  9  1  0  0  0  0
 19  9  1  0  0  0  0
 24 12  1  0  0  0  0
 26 32  1  0  0  0  0
 27 26  1  0  0  0  0
 27 33  1  0  0  0  0
 28 27  2  0  0  0  0
 29 30  2  0  0  0  0
 29 28  1  0  0  0  0
 30 31  1  0  0  0  0
 31 26  2  0  0  0  0
 34 28  1  0  0  0  0
 34 45  1  0  0  0  0
 35 34  2  0  0  0  0
 36 35  1  0  0  0  0
 37 35  1  0  0  0  0
 37 38  2  0  0  0  0
 38 44  1  0  0  0  0
 39 38  1  0  0  0  0
 39 40  2  0  0  0  0
 40 42  1  0  0  0  0
 41 40  1  0  0  0  0
 42 43  2  0  0  0  0
 44 45  2  0  0  0  0
 44 43  1  0  0  0  0
M  END
>  <minimizedAffinity>
-6.70289946

$$$$

 OpenBabel03272502573D

 45 49  0  0  0  0  0  0  0  0999 V2000
   37.2240   26.6130   33.5070 C   0  0  0  0  0  0  0  0  0  0  0  0
   37.9540   26.6160   34.7000 C   0  0  0  0  0  0  0  0  0  0  0  0
   38.4920   25.4370   35.2080 C   0  0  0  0  0  0  0  0  0  0  0  0
   38.2600   24.2930   34.4630 C   0  0  0  0  0  0  0  0  0  0  0  0
   37.5390   24.2830   33.2790 C   0  0  0  0  0  0  0  0  0  0  0  0
   37.0360   25.4640   32.8330 N   0  0  0  0  0  0  0  0  0  0  0  0
   37.3650   23.0680   32.6060 N   0  0  0  0  0  0  0  0  0  0  0  0
   37.6600   21.8430   33.3010 C   0  0  0  0  0  0  0  0  0  0  0  0
   37.5390   20.7130   32.3100 C   0  0  0  0  0  0  0  0  0  0  0  0
   36.1430   20.6890   31.7250 C   0  0  0  0  0  0  0  0  0  0  0  0
   35.7170   22.0250   31.2100 C   0  0  0  0  0  0  0  0  0  0  0  0
   36.9000   22.9560   31.2350 C   0  0  0  0  0  0  0  0  0  0  0  0
   38.0910   27.5460   35.2220 H   0  0  0  0  0  0  0  0  0  0  0  0
   39.0430   25.4730   36.1210 H   0  0  0  0  0  0  0  0  0  0  0  0
   38.7160   23.4160   34.9290 H   0  0  0  0  0  0  0  0  0  0  0  0
   36.8890   21.7130   34.0820 H   0  0  0  0  0  0  0  0  0  0  0  0
   38.6970   21.8070   33.6850 H   0  0  0  0  0  0  0  0  0  0  0  0
   37.6450   19.7390   32.8710 H   0  0  0  0  0  0  0  0  0  0  0  0
   38.3250   20.7660   31.5340 H   0  0  0  0  0  0  0  0  0  0  0  0
   36.2050   20.0050   30.8320 H   0  0  0  0  0  0  0  0  0  0  0  0
   35.4320   20.2000   32.4110 H   0  0  0  0  0  0  0  0  0  0  0  0
   35.2290   21.9740   30.2260 H   0  0  0  0  0  0  0  0  0  0  0  0
   34.9740   22.4520   31.9170 H   0  0  0  0  0  0  0  0  0  0  0  0
   37.6920   22.5060   30.5890 H   0  0  0  0  0  0  0  0  0  0  0  0
   36.6870   23.9500   30.7870 H   0  0  0  0  0  0  0  0  0  0  0  0
   36.1740   29.3220   31.2850 C   0  0  0  0  0  0  0  0  0  0  0  0
   35.6340   30.2660   32.1870 C   0  0  0  0  0  0  0  0  0  0  0  0
   35.6430   29.9500   33.5250 C   0  0  0  0  0  0  0  0  0  0  0  0
   36.1740   28.7480   33.8940 N   0  0  0  0  0  0  0  0  0  0  0  0
   36.6830   27.8640   33.0230 C   0  0  0  0  0  0  0  0  0  0  0  0
   36.6740   28.1650   31.7370 N   0  0  0  0  0  0  0  0  0  0  0  0
   36.1900   29.5230   30.2220 H   0  0  0  0  0  0  0  0  0  0  0  0
   35.2360   31.1840   31.8350 H   0  0  0  0  0  0  0  0  0  0  0  0
   35.1190   30.8330   34.5450 C   0  0  0  0  0  0  0  0  0  0  0  0
   35.8250   31.2230   35.6570 C   0  0  0  0  0  0  0  0  0  0  0  0
   36.8280   30.8700   35.8110 H   0  0  0  0  0  0  0  0  0  0  0  0
   35.2620   32.0660   36.5840 C   0  0  0  0  0  3  0  0  0  0  0  0
   33.9860   32.5640   36.4670 C   0  0  0  0  0  0  0  0  0  0  0  0
   33.4620   33.3820   37.3820 N   0  0  0  0  0  0  0  0  0  0  0  0
   32.2170   33.8960   37.3110 C   0  0  0  0  0  0  0  0  0  0  0  0
   31.8110   34.5590   38.0680 H   0  0  0  0  0  0  0  0  0  0  0  0
   31.4990   33.5150   36.2030 C   0  0  0  0  0  3  0  0  0  0  0  0
   31.9700   32.6720   35.2110 C   0  0  0  0  0  3  0  0  0  0  0  0
   33.2440   32.1890   35.3520 C   0  0  0  0  0  0  0  0  0  0  0  0
   33.8430   31.3430   34.4450 C   0  0  0  0  0  3  0  0  0  0  0  0
  1  2  1  0  0  0  0
  2  3  2  0  0  0  0
  2 13  1  0  0  0  0
  3 14  1  0  0  0  0
  4 15  1  0  0  0  0
  4  3  1  0  0  0  0
  5  4  2  0  0  0  0
  6  5  1  0  0  0  0
  6  1  2  0  0  0  0
  7  5  1  0  0  0  0
  7  8  1  0  0  0  0
  8 17  1  0  0  0  0
  8 16  1  0  0  0  0
  9 18  1  0  0  0  0
  9  8  1  0  0  0  0
 10  9  1  0  0  0  0
 10 21  1  0  0  0  0
 11 12  1  0  0  0  0
 11 10  1  0  0  0  0
 11 23  1  0  0  0  0
 12  7  1  0  0  0  0
 19  9  1  0  0  0  0
 20 10  1  0  0  0  0
 22 11  1  0  0  0  0
 24 12  1  0  0  0  0
 25 12  1  0  0  0  0
 26 31  2  0  0  0  0
 26 27  1  0  0  0  0
 27 28  2  0  0  0  0
 28 29  1  0  0  0  0
 28 34  1  0  0  0  0
 30  1  1  0  0  0  0
 30 29  2  0  0  0  0
 31 30  1  0  0  0  0
 32 26  1  0  0  0  0
 33 27  1  0  0  0  0
 34 35  1  0  0  0  0
 35 36  1  0  0  0  0
 35 37  2  0  0  0  0
 38 37  1  0  0  0  0
 38 39  1  0  0  0  0
 40 39  2  0  0  0  0
 40 41  1  0  0  0  0
 42 40  1  0  0  0  0
 43 44  1  0  0  0  0
 43 42  2  0  0  0  0
 44 38  2  0  0  0  0
 45 34  2  0  0  0  0
 45 44  1  0  0  0  0
M  END
>  <minimizedAffinity>
-6.57653761

$$$$

 OpenBabel03272502573D

 45 49  0  0  0  0  0  0  0  0999 V2000
   38.2110   25.0790   35.6310 C   0  0  0  0  0  0  0  0  0  0  0  0
   37.4380   24.9290   36.7870 C   0  0  0  0  0  0  0  0  0  0  0  0
   37.8280   24.0520   37.7950 C   0  0  0  0  0  0  0  0  0  0  0  0
   39.0070   23.3600   37.5750 C   0  0  0  0  0  0  0  0  0  0  0  0
   39.7790   23.5040   36.4320 C   0  0  0  0  0  0  0  0  0  0  0  0
   39.3480   24.3740   35.4820 N   0  0  0  0  0  0  0  0  0  0  0  0
   40.9540   22.7530   36.3140 N   0  0  0  0  0  0  0  0  0  0  0  0
   41.1640   21.6480   37.2120 C   0  0  0  0  0  0  0  0  0  0  0  0
   42.5570   21.1210   36.9720 C   0  0  0  0  0  0  0  0  0  0  0  0
   42.7020   20.6910   35.5280 C   0  0  0  0  0  0  0  0  0  0  0  0
   42.2560   21.7460   34.5700 C   0  0  0  0  0  0  0  0  0  0  0  0
   41.9930   23.0170   35.3340 C   0  0  0  0  0  0  0  0  0  0  0  0
   36.5340   25.5030   36.8840 H   0  0  0  0  0  0  0  0  0  0  0  0
   37.2150   23.9600   38.6640 H   0  0  0  0  0  0  0  0  0  0  0  0
   39.2400   22.6960   38.4120 H   0  0  0  0  0  0  0  0  0  0  0  0
   40.4370   20.8620   36.9420 H   0  0  0  0  0  0  0  0  0  0  0  0
   41.1260   21.9480   38.2760 H   0  0  0  0  0  0  0  0  0  0  0  0
   42.6860   20.1790   37.5810 H   0  0  0  0  0  0  0  0  0  0  0  0
   43.3270   21.8530   37.2790 H   0  0  0  0  0  0  0  0  0  0  0  0
   43.8090   20.5560   35.3670 H   0  0  0  0  0  0  0  0  0  0  0  0
   42.2660   19.6920   35.3650 H   0  0  0  0  0  0  0  0  0  0  0  0
   42.9480   21.8850   33.7270 H   0  0  0  0  0  0  0  0  0  0  0  0
   41.2800   21.4370   34.1390 H   0  0  0  0  0  0  0  0  0  0  0  0
   42.9450   23.3050   35.8400 H   0  0  0  0  0  0  0  0  0  0  0  0
   41.7360   23.8770   34.6800 H   0  0  0  0  0  0  0  0  0  0  0  0
   37.6110   26.6560   32.3870 C   0  0  0  0  0  0  0  0  0  0  0  0
   36.8690   27.8060   32.7370 C   0  0  0  0  0  0  0  0  0  0  0  0
   36.5950   28.0080   34.0690 C   0  0  0  0  0  0  0  0  0  0  0  0
   37.0590   27.0880   34.9630 N   0  0  0  0  0  0  0  0  0  0  0  0
   37.7620   26.0010   34.6120 C   0  0  0  0  0  0  0  0  0  0  0  0
   38.0250   25.8050   33.3330 N   0  0  0  0  0  0  0  0  0  0  0  0
   37.8520   26.4510   31.3510 H   0  0  0  0  0  0  0  0  0  0  0  0
   36.5380   28.4840   31.9920 H   0  0  0  0  0  0  0  0  0  0  0  0
   35.8450   29.1480   34.5530 C   0  0  0  0  0  0  0  0  0  0  0  0
   36.3810   30.1440   35.3330 C   0  0  0  0  0  0  0  0  0  0  0  0
   37.4170   30.1050   35.6200 H   0  0  0  0  0  0  0  0  0  0  0  0
   35.6070   31.1970   35.7550 C   0  0  0  0  0  3  0  0  0  0  0  0
   34.2770   31.3240   35.4350 C   0  0  0  0  0  0  0  0  0  0  0  0
   33.5470   32.3580   35.8590 N   0  0  0  0  0  0  0  0  0  0  0  0
   32.2390   32.5270   35.5720 C   0  0  0  0  0  0  0  0  0  0  0  0
   31.6640   33.3760   35.9270 H   0  0  0  0  0  0  0  0  0  0  0  0
   31.6890   31.5380   34.7920 C   0  0  0  0  0  3  0  0  0  0  0  0
   32.3770   30.4370   34.3140 C   0  0  0  0  0  3  0  0  0  0  0  0
   33.7020   30.3330   34.6470 C   0  0  0  0  0  0  0  0  0  0  0  0
   34.5110   29.2930   34.2430 C   0  0  0  0  0  3  0  0  0  0  0  0
  1  2  1  0  0  0  0
  2 13  1  0  0  0  0
  2  3  2  0  0  0  0
  3 14  1  0  0  0  0
  4  3  1  0  0  0  0
  4 15  1  0  0  0  0
  5  4  2  0  0  0  0
  6  1  2  0  0  0  0
  6  5  1  0  0  0  0
  7  5  1  0  0  0  0
  7  8  1  0  0  0  0
  8 17  1  0  0  0  0
  9  8  1  0  0  0  0
  9 19  1  0  0  0  0
  9 18  1  0  0  0  0
 10  9  1  0  0  0  0
 11 12  1  0  0  0  0
 11 10  1  0  0  0  0
 12 24  1  0  0  0  0
 12  7  1  0  0  0  0
 16  8  1  0  0  0  0
 20 10  1  0  0  0  0
 21 10  1  0  0  0  0
 22 11  1  0  0  0  0
 23 11  1  0  0  0  0
 25 12  1  0  0  0  0
 26 27  2  0  0  0  0
 26 31  1  0  0  0  0
 27 28  1  0  0  0  0
 28 34  1  0  0  0  0
 28 29  2  0  0  0  0
 30 29  1  0  0  0  0
 30  1  1  0  0  0  0
 31 30  2  0  0  0  0
 32 26  1  0  0  0  0
 33 27  1  0  0  0  0
 34 35  1  0  0  0  0
 35 36  1  0  0  0  0
 35 37  2  0  0  0  0
 38 37  1  0  0  0  0
 38 39  1  0  0  0  0
 40 39  2  0  0  0  0
 40 41  1  0  0  0  0
 42 40  1  0  0  0  0
 43 44  1  0  0  0  0
 43 42  2  0  0  0  0
 44 38  2  0  0  0  0
 45 34  2  0  0  0  0
 45 44  1  0  0  0  0
M  END
>  <minimizedAffinity>
-6.57628107

$$$$

 OpenBabel03272502573D

 45 49  0  0  0  0  0  0  0  0999 V2000
   35.1750   29.8670   34.0970 C   0  0  0  0  0  0  0  0  0  0  0  0
   33.9810   29.3570   34.6170 C   0  0  0  0  0  0  0  0  0  0  0  0
   33.1060   30.1770   35.3240 C   0  0  0  0  0  0  0  0  0  0  0  0
   33.4940   31.4980   35.4690 C   0  0  0  0  0  0  0  0  0  0  0  0
   34.6760   32.0100   34.9560 C   0  0  0  0  0  0  0  0  0  0  0  0
   35.4910   31.1630   34.2750 N   0  0  0  0  0  0  0  0  0  0  0  0
   34.9700   33.3630   35.1620 N   0  0  0  0  0  0  0  0  0  0  0  0
   34.2130   34.0950   36.1430 C   0  0  0  0  0  0  0  0  0  0  0  0
   34.6220   35.5430   36.0490 C   0  0  0  0  0  0  0  0  0  0  0  0
   36.1100   35.6750   36.2940 C   0  0  0  0  0  0  0  0  0  0  0  0
   36.9110   34.7410   35.4500 C   0  0  0  0  0  0  0  0  0  0  0  0
   36.0010   34.0910   34.4430 C   0  0  0  0  0  0  0  0  0  0  0  0
   33.7500   28.3190   34.4620 H   0  0  0  0  0  0  0  0  0  0  0  0
   32.2030   29.7570   35.7080 H   0  0  0  0  0  0  0  0  0  0  0  0
   32.7540   32.0700   36.0340 H   0  0  0  0  0  0  0  0  0  0  0  0
   34.5020   33.7090   37.1370 H   0  0  0  0  0  0  0  0  0  0  0  0
   33.1230   34.0690   35.9510 H   0  0  0  0  0  0  0  0  0  0  0  0
   34.1270   36.1040   36.8960 H   0  0  0  0  0  0  0  0  0  0  0  0
   34.3060   35.9950   35.0910 H   0  0  0  0  0  0  0  0  0  0  0  0
   36.3750   36.7180   35.9620 H   0  0  0  0  0  0  0  0  0  0  0  0
   36.3390   35.6510   37.3720 H   0  0  0  0  0  0  0  0  0  0  0  0
   37.7900   35.2170   34.9930 H   0  0  0  0  0  0  0  0  0  0  0  0
   37.2900   33.9200   36.0980 H   0  0  0  0  0  0  0  0  0  0  0  0
   35.5480   34.9050   33.8280 H   0  0  0  0  0  0  0  0  0  0  0  0
   36.5380   33.4410   33.7190 H   0  0  0  0  0  0  0  0  0  0  0  0
   37.0730   28.2840   31.4010 C   0  0  0  0  0  0  0  0  0  0  0  0
   37.7360   27.2310   32.0690 C   0  0  0  0  0  0  0  0  0  0  0  0
   37.5160   27.0930   33.4190 C   0  0  0  0  0  0  0  0  0  0  0  0
   36.6730   27.9800   34.0230 N   0  0  0  0  0  0  0  0  0  0  0  0
   36.0520   28.9740   33.3720 C   0  0  0  0  0  0  0  0  0  0  0  0
   36.2620   29.1090   32.0750 N   0  0  0  0  0  0  0  0  0  0  0  0
   37.2130   28.4360   30.3380 H   0  0  0  0  0  0  0  0  0  0  0  0
   38.3790   26.5750   31.5410 H   0  0  0  0  0  0  0  0  0  0  0  0
   38.1370   26.0550   34.2140 C   0  0  0  0  0  0  0  0  0  0  0  0
   39.1340   25.2300   33.7550 C   0  0  0  0  0  0  0  0  0  0  0  0
   39.4990   25.3340   32.7490 H   0  0  0  0  0  0  0  0  0  0  0  0
   39.6770   24.2660   34.5680 C   0  0  0  0  0  3  0  0  0  0  0  0
   39.2690   24.0630   35.8650 C   0  0  0  0  0  0  0  0  0  0  0  0
   39.8130   23.1180   36.6350 N   0  0  0  0  0  0  0  0  0  0  0  0
   39.4480   22.8820   37.9120 C   0  0  0  0  0  0  0  0  0  0  0  0
   39.9040   22.1070   38.5200 H   0  0  0  0  0  0  0  0  0  0  0  0
   38.4510   23.6990   38.3860 C   0  0  0  0  0  3  0  0  0  0  0  0
   37.8370   24.7000   37.6530 C   0  0  0  0  0  3  0  0  0  0  0  0
   38.2610   24.8810   36.3620 C   0  0  0  0  0  0  0  0  0  0  0  0
   37.7420   25.8370   35.5160 C   0  0  0  0  0  3  0  0  0  0  0  0
  1  6  2  0  0  0  0
  1  2  1  0  0  0  0
  2  3  2  0  0  0  0
  3  4  1  0  0  0  0
  3 14  1  0  0  0  0
  4 15  1  0  0  0  0
  5  7  1  0  0  0  0
  5  4  2  0  0  0  0
  6  5  1  0  0  0  0
  7  8  1  0  0  0  0
  8 16  1  0  0  0  0
  9  8  1  0  0  0  0
  9 10  1  0  0  0  0
  9 18  1  0  0  0  0
 10 21  1  0  0  0  0
 11 23  1  0  0  0  0
 11 10  1  0  0  0  0
 12  7  1  0  0  0  0
 12 11  1  0  0  0  0
 13  2  1  0  0  0  0
 17  8  1  0  0  0  0
 19  9  1  0  0  0  0
 20 10  1  0  0  0  0
 22 11  1  0  0  0  0
 24 12  1  0  0  0  0
 25 12  1  0  0  0  0
 26 27  2  0  0  0  0
 26 31  1  0  0  0  0
 27 28  1  0  0  0  0
 28 29  2  0  0  0  0
 28 34  1  0  0  0  0
 30 29  1  0  0  0  0
 30  1  1  0  0  0  0
 31 30  2  0  0  0  0
 32 26  1  0  0  0  0
 33 27  1  0  0  0  0
 34 45  1  0  0  0  0
 35 34  2  0  0  0  0
 35 37  1  0  0  0  0
 36 35  1  0  0  0  0
 37 38  2  0  0  0  0
 38 44  1  0  0  0  0
 38 39  1  0  0  0  0
 39 40  2  0  0  0  0
 40 42  1  0  0  0  0
 40 41  1  0  0  0  0
 43 42  2  0  0  0  0
 44 43  1  0  0  0  0
 45 44  2  0  0  0  0
M  END
>  <minimizedAffinity>
-6.56730413

$$$$

 OpenBabel03272502573D

 45 49  0  0  0  0  0  0  0  0999 V2000
   35.9410   27.8220   31.5960 C   0  0  0  0  0  0  0  0  0  0  0  0
   36.6140   28.5180   30.5880 C   0  0  0  0  0  0  0  0  0  0  0  0
   36.5390   29.9060   30.5080 C   0  0  0  0  0  0  0  0  0  0  0  0
   35.7690   30.5280   31.4770 C   0  0  0  0  0  0  0  0  0  0  0  0
   35.0990   29.8450   32.4790 C   0  0  0  0  0  0  0  0  0  0  0  0
   35.2090   28.4910   32.5060 N   0  0  0  0  0  0  0  0  0  0  0  0
   34.3490   30.5760   33.4070 N   0  0  0  0  0  0  0  0  0  0  0  0
   34.0420   31.9520   33.1200 C   0  0  0  0  0  0  0  0  0  0  0  0
   33.3710   32.5360   34.3380 C   0  0  0  0  0  0  0  0  0  0  0  0
   32.1170   31.7500   34.6610 C   0  0  0  0  0  0  0  0  0  0  0  0
   32.3670   30.2790   34.7250 C   0  0  0  0  0  0  0  0  0  0  0  0
   33.8510   30.0340   34.6590 C   0  0  0  0  0  0  0  0  0  0  0  0
   37.1930   27.9620   29.8720 H   0  0  0  0  0  0  0  0  0  0  0  0
   37.0640   30.4070   29.7260 H   0  0  0  0  0  0  0  0  0  0  0  0
   35.7630   31.6130   31.3420 H   0  0  0  0  0  0  0  0  0  0  0  0
   33.3230   31.9620   32.2810 H   0  0  0  0  0  0  0  0  0  0  0  0
   34.9460   32.5650   32.9430 H   0  0  0  0  0  0  0  0  0  0  0  0
   33.0150   33.5750   34.0800 H   0  0  0  0  0  0  0  0  0  0  0  0
   34.0660   32.6000   35.1950 H   0  0  0  0  0  0  0  0  0  0  0  0
   31.8220   32.0730   35.6990 H   0  0  0  0  0  0  0  0  0  0  0  0
   31.2780   32.0580   34.0160 H   0  0  0  0  0  0  0  0  0  0  0  0
   31.8880   29.7970   35.5890 H   0  0  0  0  0  0  0  0  0  0  0  0
   31.9370   29.8110   33.8140 H   0  0  0  0  0  0  0  0  0  0  0  0
   34.3150   30.5620   35.5270 H   0  0  0  0  0  0  0  0  0  0  0  0
   34.1260   28.9650   34.7860 H   0  0  0  0  0  0  0  0  0  0  0  0
   35.3410   24.2700   30.9650 C   0  0  0  0  0  0  0  0  0  0  0  0
   36.3230   23.6460   31.7650 C   0  0  0  0  0  0  0  0  0  0  0  0
   37.1610   24.4550   32.4950 C   0  0  0  0  0  0  0  0  0  0  0  0
   36.9880   25.8060   32.4000 N   0  0  0  0  0  0  0  0  0  0  0  0
   36.0490   26.3800   31.6340 C   0  0  0  0  0  0  0  0  0  0  0  0
   35.2430   25.6050   30.9320 N   0  0  0  0  0  0  0  0  0  0  0  0
   34.6570   23.6770   30.3700 H   0  0  0  0  0  0  0  0  0  0  0  0
   36.4050   22.5890   31.7950 H   0  0  0  0  0  0  0  0  0  0  0  0
   38.2060   23.9360   33.3520 C   0  0  0  0  0  0  0  0  0  0  0  0
   39.4090   23.4580   32.8920 C   0  0  0  0  0  0  0  0  0  0  0  0
   39.6190   23.4550   31.8370 H   0  0  0  0  0  0  0  0  0  0  0  0
   40.3540   22.9810   33.7660 C   0  0  0  0  0  3  0  0  0  0  0  0
   40.1670   22.9470   35.1270 C   0  0  0  0  0  0  0  0  0  0  0  0
   41.1030   22.4780   35.9550 N   0  0  0  0  0  0  0  0  0  0  0  0
   40.9670   22.4250   37.2960 C   0  0  0  0  0  0  0  0  0  0  0  0
   41.7400   22.0380   37.9510 H   0  0  0  0  0  0  0  0  0  0  0  0
   39.7680   22.8990   37.7720 C   0  0  0  0  0  3  0  0  0  0  0  0
   38.7490   23.4010   36.9810 C   0  0  0  0  0  3  0  0  0  0  0  0
   38.9600   23.4230   35.6270 C   0  0  0  0  0  0  0  0  0  0  0  0
   38.0370   23.8940   34.7190 C   0  0  0  0  0  3  0  0  0  0  0  0
  1 30  1  0  0  0  0
  1  6  1  0  0  0  0
  2  1  2  0  0  0  0
  3  2  1  0  0  0  0
  3  4  2  0  0  0  0
  4  5  1  0  0  0  0
  5  6  2  0  0  0  0
  5  7  1  0  0  0  0
  7 12  1  0  0  0  0
  8  7  1  0  0  0  0
  8  9  1  0  0  0  0
  9 10  1  0  0  0  0
  9 19  1  0  0  0  0
 10 11  1  0  0  0  0
 10 20  1  0  0  0  0
 11 22  1  0  0  0  0
 12 11  1  0  0  0  0
 12 25  1  0  0  0  0
 12 24  1  0  0  0  0
 13  2  1  0  0  0  0
 14  3  1  0  0  0  0
 15  4  1  0  0  0  0
 16  8  1  0  0  0  0
 17  8  1  0  0  0  0
 18  9  1  0  0  0  0
 21 10  1  0  0  0  0
 23 11  1  0  0  0  0
 26 27  1  0  0  0  0
 27 33  1  0  0  0  0
 27 28  2  0  0  0  0
 28 34  1  0  0  0  0
 29 28  1  0  0  0  0
 30 29  2  0  0  0  0
 31 26  2  0  0  0  0
 31 30  1  0  0  0  0
 32 26  1  0  0  0  0
 34 45  1  0  0  0  0
 35 34  2  0  0  0  0
 35 37  1  0  0  0  0
 36 35  1  0  0  0  0
 37 38  2  0  0  0  0
 38 44  1  0  0  0  0
 38 39  1  0  0  0  0
 39 40  2  0  0  0  0
 40 42  1  0  0  0  0
 40 41  1  0  0  0  0
 43 42  2  0  0  0  0
 44 43  1  0  0  0  0
 45 44  2  0  0  0  0
M  END
>  <minimizedAffinity>
-6.42835331

$$$$
