
 OpenBabel03272505063D

 36 39  0  0  1  0  0  0  0  0999 V2000
   37.1630   29.3080   50.3640 C   0  0  0  0  0  0  0  0  0  0  0  0
   37.8220   30.5150   50.1160 C   0  0  0  0  0  0  0  0  0  0  0  0
   37.5290   31.1660   48.9380 C   0  0  0  0  0  0  0  0  0  0  0  0
   36.6340   30.5860   48.1260 N   0  0  0  0  0  0  0  0  0  0  0  0
   36.0050   29.4300   48.3680 C   0  0  0  0  0  0  0  0  0  0  0  0
   36.2810   28.7890   49.5080 N   0  0  0  0  0  0  0  0  0  0  0  0
   38.0670   32.3970   48.4470 N   0  0  0  0  0  0  0  0  0  0  0  0
   38.2270   33.5720   49.2640 C   0  0  0  0  0  0  0  0  0  0  0  0
   39.5480   34.2570   49.1790 C   0  0  0  0  0  0  0  0  0  0  0  0
   40.1710   34.3230   47.8300 C   0  0  0  0  0  0  0  0  0  0  0  0
   40.0650   32.9480   47.1770 C   0  0  0  0  0  0  0  0  0  0  0  0
   38.5390   32.6810   47.1410 C   0  0  1  0  0  0  0  0  0  0  0  0
   37.4540   28.8610   51.3180 H   0  0  0  0  0  0  0  0  0  0  0  0
   38.5450   31.0180   50.7360 H   0  0  0  0  0  0  0  0  0  0  0  0
   35.2870   28.9940   47.6840 H   0  0  0  0  0  0  0  0  0  0  0  0
   38.0190   33.3230   50.3140 H   0  0  0  0  0  0  0  0  0  0  0  0
   37.4490   34.3090   48.9570 H   0  0  0  0  0  0  0  0  0  0  0  0
   39.4550   35.2350   49.6530 H   0  0  0  0  0  0  0  0  0  0  0  0
   40.2450   33.6780   49.8450 H   0  0  0  0  0  0  0  0  0  0  0  0
   41.2490   34.5330   47.9380 H   0  0  0  0  0  0  0  0  0  0  0  0
   39.6620   35.0290   47.1440 H   0  0  0  0  0  0  0  0  0  0  0  0
   40.4760   33.0020   46.1500 H   0  0  0  0  0  0  0  0  0  0  0  0
   40.5580   32.1650   47.7440 H   0  0  0  0  0  0  0  0  0  0  0  0
   38.0840   33.6780   46.7970 H   0  0  0  0  0  0  0  0  0  0  0  0
   38.3040   31.6610   46.0980 C   0  0  0  0  0  0  0  0  0  0  0  0
   39.1620   30.6390   45.7520 C   0  0  0  0  0  0  0  0  0  0  0  0
   40.0960   30.5380   46.3070 H   0  0  0  0  0  0  0  0  0  0  0  0
   38.9260   29.7100   44.7620 C   0  0  0  0  0  0  0  0  0  0  0  0
   37.7520   29.7820   44.0470 C   0  0  0  0  0  0  0  0  0  0  0  0
   37.5450   28.8660   43.0860 N   0  0  0  0  0  0  0  0  0  0  0  0
   36.3940   28.9000   42.3520 C   0  0  0  0  0  0  0  0  0  0  0  0
   36.1750   28.1950   41.5740 H   0  0  0  0  0  0  0  0  0  0  0  0
   35.4560   29.8750   42.6020 C   0  0  0  0  0  0  0  0  0  0  0  0
   35.6800   30.8240   43.6030 C   0  0  0  0  0  0  0  0  0  0  0  0
   36.8480   30.7800   44.3400 C   0  0  0  0  0  0  0  0  0  0  0  0
   37.1470   31.6770   45.3440 C   0  0  0  0  0  0  0  0  0  0  0  0
  1 13  1  0  0  0  0
  2  1  1  0  0  0  0
  2 14  1  0  0  0  0
  3  2  2  0  0  0  0
  4  5  2  0  0  0  0
  4  3  1  0  0  0  0
  5  6  1  0  0  0  0
  6  1  2  0  0  0  0
  7  3  1  0  0  0  0
  7  8  1  0  0  0  0
  8 16  1  0  0  0  0
  9  8  1  0  0  0  0
  9 18  1  0  0  0  0
  9 19  1  0  0  0  0
 10 20  1  0  0  0  0
 10  9  1  0  0  0  0
 11 23  1  0  0  0  0
 11 10  1  0  0  0  0
 12 24  1  6  0  0  0
 12 11  1  0  0  0  0
 12  7  1  0  0  0  0
 15  5  1  0  0  0  0
 17  8  1  0  0  0  0
 21 10  1  0  0  0  0
 22 11  1  0  0  0  0
 25 12  1  0  0  0  0
 26 25  1  0  0  0  0
 26 27  1  0  0  0  0
 28 26  2  0  0  0  0
 29 35  1  0  0  0  0
 29 28  1  0  0  0  0
 30 29  2  0  0  0  0
 31 33  2  0  0  0  0
 31 30  1  0  0  0  0
 32 31  1  0  0  0  0
 33 34  1  0  0  0  0
 34 35  2  0  0  0  0
 35 36  1  0  0  0  0
 36 25  2  0  0  0  0
M  END
>  <minimizedAffinity>
-5.70306778

>  <minimizedRMSD>
3.08002663

$$$$
