REMARK  Name = 
REMARK  4 active torsions:
REMARK  status: ('A' for Active; 'I' for Inactive)
REMARK    1  A    between atoms: N_1  and  C_11
REMARK    2  A    between atoms: C_3  and  C_15
REMARK    3  A    between atoms: N_6  and  C_21
REMARK    4  A    between atoms: C_19  and  C_32
REMARK                            x       y       z     vdW  Elec       q    Type
REMARK                         _______ _______ _______ _____ _____    ______ ____
ROOT
ATOM      1  N   UNL     1      37.371  31.067  47.143  0.00  0.00    +0.000 N 
ATOM      2  C   UNL     1      36.779  30.723  45.967  0.00  0.00    +0.000 A 
ATOM      3  C   UNL     1      37.238  31.188  44.751  0.00  0.00    +0.000 A 
ATOM      4  C   UNL     1      38.352  32.041  44.775  0.00  0.00    +0.000 A 
ATOM      5  O   UNL     1      38.811  32.495  43.692  0.00  0.00    +0.000 OA
ATOM      6  N   UNL     1      38.945  32.385  45.958  0.00  0.00    +0.000 N 
ATOM      7  C   UNL     1      38.408  31.870  47.054  0.00  0.00    +0.000 A 
ATOM      8  O   UNL     1      38.976  32.206  48.120  0.00  0.00    +0.000 OA
ATOM      9  H   UNL     1      35.924  30.067  45.965  0.00  0.00    +0.000 HD
ENDROOT
BRANCH   1  12
ATOM     10  C   UNL     1      37.254  29.480  50.507  0.00  0.00    +0.000 A 
ATOM     11  C   UNL     1      37.722  29.970  49.280  0.00  0.00    +0.000 A 
ATOM     12  C   UNL     1      36.889  30.582  48.365  0.00  0.00    +0.000 A 
ATOM     13  N   UNL     1      35.600  30.688  48.705  0.00  0.00    +0.000 NA
ATOM     14  C   UNL     1      35.103  30.227  49.885  0.00  0.00    +0.000 A 
ATOM     15  N   UNL     1      35.943  29.625  50.775  0.00  0.00    +0.000 NA
ATOM     16  H   UNL     1      37.907  29.001  51.223  0.00  0.00    +0.000 HD
ATOM     17  H   UNL     1      38.764  29.839  49.101  0.00  0.00    +0.000 HD
ATOM     18  H   UNL     1      34.056  30.322  50.142  0.00  0.00    +0.000 HD
ENDBRANCH   1  12
BRANCH   3  19
ATOM     19  C   UNL     1      36.648  30.856  43.462  0.00  0.00    +0.000 A 
ATOM     20  C   UNL     1      37.017  29.765  42.728  0.00  0.00    +0.000 A 
ATOM     21  C   UNL     1      36.474  29.429  41.505  0.00  0.00    +0.000 A 
ATOM     22  C   UNL     1      35.479  30.261  40.979  0.00  0.00    +0.000 A 
ATOM     23  C   UNL     1      35.136  31.354  41.753  0.00  0.00    +0.000 A 
ATOM     24  N   UNL     1      35.701  31.618  42.926  0.00  0.00    +0.000 NA
ATOM     25  H   UNL     1      37.781  29.091  43.091  0.00  0.00    +0.000 HD
ATOM     26  H   UNL     1      36.776  28.558  40.930  0.00  0.00    +0.000 HD
ATOM     27  H   UNL     1      35.041  30.028  40.037  0.00  0.00    +0.000 HD
BRANCH  23  28
ATOM     28  C   UNL     1      34.108  32.282  41.292  0.00  0.00    +0.000 A 
ATOM     29  C   UNL     1      32.820  31.828  41.054  0.00  0.00    +0.000 A 
ATOM     30  H   UNL     1      32.585  30.772  41.215  0.00  0.00    +0.000 HD
ATOM     31  C   UNL     1      31.755  32.590  40.619  0.00  0.00    +0.000 A 
ATOM     32  C   UNL     1      31.991  33.931  40.398  0.00  0.00    +0.000 A 
ATOM     33  N   UNL     1      31.005  34.742  39.973  0.00  0.00    +0.000 NA
ATOM     34  C   UNL     1      31.204  36.059  39.748  0.00  0.00    +0.000 A 
ATOM     35  H   UNL     1      30.403  36.705  39.406  0.00  0.00    +0.000 HD
ATOM     36  C   UNL     1      32.489  36.555  39.977  0.00  0.00    +0.000 A 
ATOM     37  C   UNL     1      33.543  35.771  40.414  0.00  0.00    +0.000 A 
ATOM     38  C   UNL     1      33.257  34.437  40.620  0.00  0.00    +0.000 A 
ATOM     39  C   UNL     1      34.288  33.629  41.056  0.00  0.00    +0.000 A 
ENDBRANCH  23  28
ENDBRANCH   3  19
BRANCH   6  40
ATOM     40  C   UNL     1      40.087  33.260  45.969  0.00  0.00    +0.000 C 
ATOM     41  F   UNL     1      39.963  34.225  45.035  0.00  0.00    +0.000 F 
ATOM     42  F   UNL     1      41.287  32.609  45.680  0.00  0.00    +0.000 F 
ATOM     43  F   UNL     1      40.179  33.868  47.215  0.00  0.00    +0.000 F 
ENDBRANCH   6  40
TORSDOF 4
