REMARK  Name = 
REMARK  8 active torsions:
REMARK  status: ('A' for Active; 'I' for Inactive)
REMARK    1  A    between atoms: C_1  and  C_7
REMARK    2  A    between atoms: C_6  and  N_13
REMARK    3  A    between atoms: N_13  and  S_14
REMARK    4  A    between atoms: S_14  and  O_15
REMARK    5  A    between atoms: S_14  and  O_16
REMARK    6  A    between atoms: S_14  and  O_17
REMARK    7  A    between atoms: O_16  and  C_37
REMARK    8  A    between atoms: O_17  and  C_18
REMARK                            x       y       z     vdW  Elec       q    Type
REMARK                         _______ _______ _______ _____ _____    ______ ____
ROOT
ATOM      1  C   UNL     1      37.430  31.315  45.385  0.00  0.00    +0.000 C 
ATOM      2  C   UNL     1      38.349  30.830  44.364  0.00  0.00    +0.000 C 
ATOM      3  C   UNL     1      39.665  30.312  44.946  0.00  0.00    +0.000 C 
ATOM      4  C   UNL     1      40.369  31.340  45.764  0.00  0.00    +0.000 C 
ATOM      5  C   UNL     1      39.447  32.224  46.573  0.00  0.00    +0.000 C 
ATOM      6  C   UNL     1      38.074  31.580  46.721  0.00  0.00    +0.000 C 
ATOM      7  H   UNL     1      37.007  32.306  45.036  0.00  0.00    +0.000 HD
ATOM      8  H   UNL     1      38.694  31.675  43.685  0.00  0.00    +0.000 HD
ATOM      9  H   UNL     1      38.038  30.047  43.666  0.00  0.00    +0.000 HD
ATOM     10  H   UNL     1      39.516  29.340  45.415  0.00  0.00    +0.000 HD
ATOM     11  H   UNL     1      40.300  30.120  44.033  0.00  0.00    +0.000 HD
ATOM     12  H   UNL     1      40.986  31.990  45.091  0.00  0.00    +0.000 HD
ATOM     13  H   UNL     1      41.109  30.810  46.399  0.00  0.00    +0.000 HD
ATOM     14  H   UNL     1      39.391  33.218  46.123  0.00  0.00    +0.000 HD
ATOM     15  H   UNL     1      39.869  32.264  47.612  0.00  0.00    +0.000 HD
ATOM     16  H   UNL     1      37.444  32.354  47.227  0.00  0.00    +0.000 HD
ENDROOT
BRANCH   1  17
ATOM     17  C   UNL     1      36.250  30.483  45.633  0.00  0.00    +0.000 A 
ATOM     18  C   UNL     1      35.869  29.686  44.548  0.00  0.00    +0.000 A 
ATOM     19  C   UNL     1      34.764  28.867  44.730  0.00  0.00    +0.000 A 
ATOM     20  N   UNL     1      34.113  28.875  45.929  0.00  0.00    +0.000 NA
ATOM     21  C   UNL     1      34.513  29.659  46.947  0.00  0.00    +0.000 A 
ATOM     22  N   UNL     1      35.550  30.419  46.760  0.00  0.00    +0.000 NA
ATOM     23  H   UNL     1      36.219  29.534  43.549  0.00  0.00    +0.000 HD
ATOM     24  H   UNL     1      34.303  28.188  44.056  0.00  0.00    +0.000 HD
ATOM     25  H   UNL     1      34.038  29.706  47.913  0.00  0.00    +0.000 HD
ENDBRANCH   1  17
BRANCH   6  26
ATOM     26  N   UNL     1      38.226  30.526  47.621  0.00  0.00    +0.000 NA
ATOM     27  H   UNL     1      39.151  30.075  47.670  0.00  0.00    +0.000 HD
BRANCH  26  28
ATOM     28  S   UNL     1      37.651  30.751  49.203  0.00  0.00    +0.000 S 
BRANCH  28  29
ATOM     29  O   UNL     1      38.898  30.974  50.057  0.00  0.00    +0.000 OA
ATOM     30  H   UNL     1      39.768  30.534  49.827  0.00  0.00    +0.000 HD
ENDBRANCH  28  29
BRANCH  28  31
ATOM     31  O   UNL     1      36.772  31.922  49.352  0.00  0.00    +0.000 OA
BRANCH  31  32
ATOM     32  C   UNL     1      35.985  32.715  50.108  0.00  0.00    +0.000 A 
ATOM     33  C   UNL     1      34.758  33.144  49.650  0.00  0.00    +0.000 A 
ATOM     34  H   UNL     1      34.447  32.826  48.673  0.00  0.00    +0.000 HD
ATOM     35  C   UNL     1      33.935  33.951  50.395  0.00  0.00    +0.000 A 
ATOM     36  C   UNL     1      34.405  34.319  51.644  0.00  0.00    +0.000 A 
ATOM     37  N   UNL     1      33.606  35.111  52.383  0.00  0.00    +0.000 NA
ATOM     38  C   UNL     1      34.015  35.504  53.620  0.00  0.00    +0.000 A 
ATOM     39  H   UNL     1      33.356  36.144  54.202  0.00  0.00    +0.000 HD
ATOM     40  C   UNL     1      35.221  35.144  54.190  0.00  0.00    +0.000 A 
ATOM     41  C   UNL     1      36.022  34.325  53.400  0.00  0.00    +0.000 A 
ATOM     42  C   UNL     1      35.631  33.911  52.143  0.00  0.00    +0.000 A 
ATOM     43  C   UNL     1      36.432  33.096  51.358  0.00  0.00    +0.000 A 
ENDBRANCH  31  32
ENDBRANCH  28  31
BRANCH  28  44
ATOM     44  O   UNL     1      36.920  29.377  49.824  0.00  0.00    +0.000 OA
BRANCH  44  45
ATOM     45  C   UNL     1      36.789  29.415  51.201  0.00  0.00    +0.000 C 
ATOM     46  F   UNL     1      37.754  28.637  51.782  0.00  0.00    +0.000 F 
ATOM     47  F   UNL     1      37.026  30.712  51.601  0.00  0.00    +0.000 F 
ATOM     48  F   UNL     1      35.509  29.104  51.644  0.00  0.00    +0.000 F 
ENDBRANCH  44  45
ENDBRANCH  28  44
ENDBRANCH  26  28
ENDBRANCH   6  26
TORSDOF 8
