
 OpenBabel03272504483D

 28 30  0  0  0  0  0  0  0  0999 V2000
   36.1470   29.3960   49.1080 C   0  0  0  0  0  0  0  0  0  0  0  0
   36.2030   30.4140   48.1280 C   0  0  0  0  0  0  0  0  0  0  0  0
   35.2770   30.3500   47.0810 C   0  0  0  0  0  0  0  0  0  0  0  0
   34.3890   29.3070   47.0850 N   0  0  0  0  0  0  0  0  0  0  0  0
   34.3700   28.3660   48.0310 C   0  0  0  0  0  0  0  0  0  0  0  0
   35.2460   28.4050   49.0450 N   0  0  0  0  0  0  0  0  0  0  0  0
   36.8790   29.4790   49.9030 H   0  0  0  0  0  0  0  0  0  0  0  0
   35.2990   31.1050   46.3310 H   0  0  0  0  0  0  0  0  0  0  0  0
   33.3920   27.2850   47.9670 C   0  0  0  0  0  0  0  0  0  0  0  0
   33.7300   26.0660   47.4410 C   0  0  0  0  0  0  0  0  0  0  0  0
   32.8410   25.0200   47.3610 C   0  0  0  0  0  0  0  0  0  0  0  0
   31.5790   25.2690   47.8440 C   0  0  0  0  0  0  0  0  0  0  0  0
   31.1910   26.4980   48.3910 C   0  0  0  0  0  0  0  0  0  0  0  0
   32.1360   27.4850   48.4320 N   0  0  0  0  0  0  0  0  0  0  0  0
   34.7370   25.8710   47.0560 H   0  0  0  0  0  0  0  0  0  0  0  0
   33.0920   24.0470   46.9470 H   0  0  0  0  0  0  0  0  0  0  0  0
   30.7840   24.5270   47.8400 H   0  0  0  0  0  0  0  0  0  0  0  0
   30.1870   26.6700   48.7660 H   0  0  0  0  0  0  0  0  0  0  0  0
   37.1820   31.4430   48.2470 N   0  0  0  0  0  0  0  0  0  0  0  0
   37.1280   32.0380   49.4550 C   0  0  0  0  0  0  0  0  0  0  0  0
   37.9920   33.0690   49.7900 C   0  0  0  0  0  0  0  0  0  0  0  0
   38.0010   33.5810   50.7240 H   0  0  0  0  0  0  0  0  0  0  0  0
   38.9130   33.4540   48.8140 C   0  0  0  0  0  0  0  0  0  0  0  0
   39.7290   34.3890   49.0570 O   0  0  0  0  0  0  0  0  0  0  0  0
   38.9230   32.8250   47.6270 N   0  0  0  0  0  0  0  0  0  0  0  0
   38.0760   31.8310   47.3270 C   0  0  0  0  0  0  0  0  0  0  0  0
   38.0320   31.2000   46.2350 O   0  0  0  0  0  0  0  0  0  0  0  0
   39.6140   33.1040   46.8750 H   0  0  0  0  0  0  0  0  0  0  0  0
  1  7  1  0  0  0  0
  2 19  1  0  0  0  0
  2  1  2  0  0  0  0
  3  4  2  0  0  0  0
  3  2  1  0  0  0  0
  4  5  1  0  0  0  0
  5  6  2  0  0  0  0
  6  1  1  0  0  0  0
  8  3  1  0  0  0  0
  9  5  1  0  0  0  0
  9 14  1  0  0  0  0
 10  9  2  0  0  0  0
 11 10  1  0  0  0  0
 11 12  2  0  0  0  0
 12 13  1  0  0  0  0
 13 14  2  0  0  0  0
 13 18  1  0  0  0  0
 15 10  1  0  0  0  0
 16 11  1  0  0  0  0
 17 12  1  0  0  0  0
 19 20  1  0  0  0  0
 20 21  2  0  0  0  0
 21 22  1  0  0  0  0
 23 24  2  0  0  0  0
 23 21  1  0  0  0  0
 25 23  1  0  0  0  0
 26 25  1  0  0  0  0
 26 19  1  0  0  0  0
 27 26  2  0  0  0  0
 28 25  1  0  0  0  0
M  END
>  <minimizedAffinity>
-5.71928883

>  <minimizedRMSD>
4.07488585

$$$$
