
 OpenBabel03272509043D

 34 36  0  0  0  0  0  0  0  0999 V2000
   37.3670   30.2210   51.4460 C   0  0  0  0  0  0  0  0  0  0  0  0
   37.9390   30.9310   50.3590 C   0  0  0  0  0  0  0  0  0  0  0  0
   37.3570   30.7460   49.0660 C   0  0  0  0  0  0  0  0  0  0  0  0
   36.2970   29.8990   48.9790 N   0  0  0  0  0  0  0  0  0  0  0  0
   35.7980   29.2550   50.0340 C   0  0  0  0  0  0  0  0  0  0  0  0
   36.3350   29.4190   51.2580 N   0  0  0  0  0  0  0  0  0  0  0  0
   37.8690   30.4260   52.3610 H   0  0  0  0  0  0  0  0  0  0  0  0
   38.7820   31.6050   50.4260 H   0  0  0  0  0  0  0  0  0  0  0  0
   37.8980   31.4400   47.9460 N   0  0  0  0  0  0  0  0  0  0  0  0
   37.4790   30.9080   46.7740 C   0  0  0  0  0  3  0  0  0  0  0  0
   37.9340   31.4910   45.5870 C   0  0  0  0  0  0  0  0  0  0  0  0
   37.6610   31.1440   44.6010 H   0  0  0  0  0  0  0  0  0  0  0  0
   38.7750   32.5660   45.6560 C   0  0  0  0  0  0  0  0  0  0  0  0
   39.2350   33.1560   44.6600 O   0  0  0  0  0  0  0  0  0  0  0  0
   39.1700   33.0680   46.8490 N   0  0  0  0  0  0  0  0  0  0  0  0
   38.7270   32.5000   47.9880 C   0  0  0  0  0  0  0  0  0  0  0  0
   38.9790   32.8180   49.1780 O   0  0  0  0  0  0  0  0  0  0  0  0
   39.8030   33.8750   46.9940 H   0  0  0  0  0  0  0  0  0  0  0  0
   34.6710   28.3910   49.7770 C   0  0  0  0  0  3  0  0  0  0  0  0
   34.3320   28.1490   48.5560 C   0  0  0  0  0  3  0  0  0  0  0  0
   33.2300   27.3070   48.0680 C   0  0  0  0  0  0  0  0  0  0  0  0
   32.5020   27.9720   47.5370 H   0  0  0  0  0  0  0  0  0  0  0  0
   32.6420   26.8210   48.8790 H   0  0  0  0  0  0  0  0  0  0  0  0
   33.6890   26.2860   47.0760 C   0  0  0  0  0  0  0  0  0  0  0  0
   33.9550   24.9650   47.3370 C   0  0  0  0  0  0  0  0  0  0  0  0
   34.3740   24.1120   46.3380 C   0  0  0  0  0  0  0  0  0  0  0  0
   34.5420   24.5630   45.0230 C   0  0  0  0  0  0  0  0  0  0  0  0
   34.2820   25.8730   44.7420 C   0  0  0  0  0  0  0  0  0  0  0  0
   33.8630   26.7150   45.7580 C   0  0  0  0  0  0  0  0  0  0  0  0
   33.8140   24.6460   48.3720 H   0  0  0  0  0  0  0  0  0  0  0  0
   34.5640   23.0810   46.6230 H   0  0  0  0  0  0  0  0  0  0  0  0
   34.8670   23.8550   44.2970 H   0  0  0  0  0  0  0  0  0  0  0  0
   34.4010   26.2600   43.7360 H   0  0  0  0  0  0  0  0  0  0  0  0
   33.6690   27.7360   45.4990 H   0  0  0  0  0  0  0  0  0  0  0  0
  1  7  1  0  0  0  0
  2  8  1  0  0  0  0
  2  1  2  0  0  0  0
  3  2  1  0  0  0  0
  4  3  2  0  0  0  0
  4  5  1  0  0  0  0
  5  6  2  0  0  0  0
  6  1  1  0  0  0  0
  9 16  1  0  0  0  0
  9  3  1  0  0  0  0
 10  9  1  0  0  0  0
 11 13  1  0  0  0  0
 11 10  2  0  0  0  0
 12 11  1  0  0  0  0
 13 15  1  0  0  0  0
 14 13  2  0  0  0  0
 15 18  1  0  0  0  0
 15 16  1  0  0  0  0
 16 17  2  0  0  0  0
 19  5  1  0  0  0  0
 20 19  2  0  0  0  0
 21 20  1  0  0  0  0
 21 23  1  0  0  0  0
 22 21  1  0  0  0  0
 24 25  1  0  0  0  0
 24 21  1  0  0  0  0
 25 30  1  0  0  0  0
 26 31  1  0  0  0  0
 26 25  2  0  0  0  0
 27 26  1  0  0  0  0
 28 27  2  0  0  0  0
 28 29  1  0  0  0  0
 29 24  2  0  0  0  0
 32 27  1  0  0  0  0
 33 28  1  0  0  0  0
 34 29  1  0  0  0  0
M  END
>  <minimizedAffinity>
-7.02712107

>  <minimizedRMSD>
0.725108027

$$$$
