
 OpenBabel03272508583D

 41 44  0  0  1  0  0  0  0  0999 V2000
   39.1270   31.4390   43.2890 C   0  0  0  0  0  0  0  0  0  0  0  0
   40.2360   30.6560   43.4620 C   0  0  0  0  0  0  0  0  0  0  0  0
   40.9320   30.2860   42.3160 C   0  0  0  0  0  0  0  0  0  0  0  0
   40.4650   30.7260   41.0960 C   0  0  0  0  0  0  0  0  0  0  0  0
   39.3440   31.5150   40.9330 C   0  0  0  0  0  0  0  0  0  0  0  0
   38.6900   31.8580   42.0720 N   0  0  0  0  0  0  0  0  0  0  0  0
   40.5860   30.3210   44.4310 H   0  0  0  0  0  0  0  0  0  0  0  0
   41.8060   29.6760   42.3750 H   0  0  0  0  0  0  0  0  0  0  0  0
   41.0260   30.4220   40.2290 H   0  0  0  0  0  0  0  0  0  0  0  0
   38.3570   31.8670   44.4820 C   0  0  0  0  0  0  0  0  0  0  0  0
   37.2820   32.4700   44.3960 O   0  0  0  0  0  0  0  0  0  0  0  0
   38.9280   31.5450   45.7820 N   0  0  0  0  0  0  0  0  0  0  0  0
   39.9100   31.2390   45.9280 H   0  0  0  0  0  0  0  0  0  0  0  0
   38.4310   31.0550   48.1740 C   0  0  2  0  0  0  0  0  0  0  0  0
   38.6870   32.5150   48.0730 C   0  0  0  0  0  0  0  0  0  0  0  0
   38.0660   31.6630   46.9370 C   0  0  1  0  0  0  0  0  0  0  0  0
   39.3670   30.4640   48.2740 H   0  0  0  0  0  0  0  0  0  0  0  0
   38.0100   33.2260   48.5940 H   0  0  0  0  0  0  0  0  0  0  0  0
   39.6970   32.8960   47.9330 H   0  0  0  0  0  0  0  0  0  0  0  0
   36.9770   31.9040   46.7400 H   0  0  0  0  0  0  0  0  0  0  0  0
   35.0670   30.2310   49.5180 C   0  0  0  0  0  0  0  0  0  0  0  0
   35.3950   29.5570   50.7280 C   0  0  0  0  0  0  0  0  0  0  0  0
   36.7870   29.4020   51.0710 C   0  0  0  0  0  0  0  0  0  0  0  0
   37.7490   29.9040   50.2250 N   0  0  0  0  0  0  0  0  0  0  0  0
   37.3460   30.5370   49.0870 C   0  0  0  0  0  0  0  0  0  0  0  0
   36.0230   30.7190   48.6990 N   0  0  0  0  0  0  0  0  0  0  0  0
   34.0300   30.3360   49.2820 H   0  0  0  0  0  0  0  0  0  0  0  0
   34.6550   29.1670   51.3820 H   0  0  0  0  0  0  0  0  0  0  0  0
   37.0430   28.8910   51.9870 H   0  0  0  0  0  0  0  0  0  0  0  0
   38.8970   31.9370   39.6180 C   0  0  0  0  0  0  0  0  0  0  0  0
   39.4490   32.8990   39.0470 O   0  0  0  0  0  0  0  0  0  0  0  0
   36.9810   28.3700   37.5740 H   0  0  0  0  0  0  0  0  0  0  0  0
   36.8710   29.3070   38.0210 N   0  0  0  0  0  0  0  0  0  0  0  0
   37.9940   29.9190   38.4880 C   0  0  0  0  0  3  0  0  0  0  0  0
   37.7960   31.1560   39.0710 C   0  0  0  0  0  0  0  0  0  0  0  0
   36.5580   31.7580   39.1880 C   0  0  0  0  0  0  0  0  0  0  0  0
   36.3780   32.8690   39.7120 O   0  0  0  0  0  0  0  0  0  0  0  0
   35.4640   31.1020   38.7040 N   0  0  0  0  0  0  0  0  0  0  0  0
   35.6580   29.8850   38.1300 C   0  0  0  0  0  0  0  0  0  0  0  0
   34.6130   29.3300   37.7030 O   0  0  0  0  0  0  0  0  0  0  0  0
   34.5300   31.5480   38.7880 H   0  0  0  0  0  0  0  0  0  0  0  0
  1  2  1  0  0  0  0
  1 10  1  0  0  0  0
  2  7  1  0  0  0  0
  3  8  1  0  0  0  0
  3  2  2  0  0  0  0
  4  3  1  0  0  0  0
  5  4  2  0  0  0  0
  5  6  1  0  0  0  0
  6  1  2  0  0  0  0
  9  4  1  0  0  0  0
 10 12  1  0  0  0  0
 11 10  2  0  0  0  0
 12 13  1  0  0  0  0
 12 16  1  0  0  0  0
 14 17  1  6  0  0  0
 14 25  1  0  0  0  0
 15 14  1  0  0  0  0
 15 18  1  0  0  0  0
 16 20  1  6  0  0  0
 16 15  1  0  0  0  0
 16 14  1  0  0  0  0
 19 15  1  0  0  0  0
 21 22  1  0  0  0  0
 22 23  2  0  0  0  0
 22 28  1  0  0  0  0
 23 29  1  0  0  0  0
 24 23  1  0  0  0  0
 25 24  2  0  0  0  0
 26 25  1  0  0  0  0
 26 21  2  0  0  0  0
 27 21  1  0  0  0  0
 30  5  1  0  0  0  0
 31 30  2  0  0  0  0
 32 33  1  0  0  0  0
 33 39  1  0  0  0  0
 33 34  1  0  0  0  0
 34 35  2  0  0  0  0
 35 36  1  0  0  0  0
 35 30  1  0  0  0  0
 36 37  2  0  0  0  0
 38 41  1  0  0  0  0
 38 36  1  0  0  0  0
 39 38  1  0  0  0  0
 40 39  2  0  0  0  0
M  END
>  <minimizedAffinity>
-4.82854462

>  <minimizedRMSD>
2.1550138

$$$$
