
 OpenBabel03272510043D

 38 40  0  0  0  0  0  0  0  0999 V2000
   34.3150   28.7370   45.6590 C   0  0  0  0  0  0  0  0  0  0  0  0
   34.4240   28.6700   47.0110 C   0  0  0  0  0  0  0  0  0  0  0  0
   33.5530   27.8630   47.7350 C   0  0  0  0  0  0  0  0  0  0  0  0
   32.5620   27.1160   47.1250 C   0  0  0  0  0  0  0  0  0  0  0  0
   32.4220   27.1650   45.7690 C   0  0  0  0  0  0  0  0  0  0  0  0
   33.2960   27.9680   45.0860 C   0  0  0  0  0  0  0  0  0  0  0  0
   33.6680   27.8270   48.8300 H   0  0  0  0  0  0  0  0  0  0  0  0
   31.9480   26.5270   47.7840 H   0  0  0  0  0  0  0  0  0  0  0  0
   31.6420   26.5720   45.3600 H   0  0  0  0  0  0  0  0  0  0  0  0
   33.0810   27.9240   44.0100 H   0  0  0  0  0  0  0  0  0  0  0  0
   36.8150   31.3470   47.8060 C   0  0  0  0  0  0  0  0  0  0  0  0
   35.8700   30.5750   47.1480 C   0  0  0  0  0  0  0  0  0  0  0  0
   35.3850   29.4420   47.7240 C   0  0  0  0  0  0  0  0  0  0  0  0
   35.8660   29.1160   48.9560 N   0  0  0  0  0  0  0  0  0  0  0  0
   36.7750   29.8590   49.5960 C   0  0  0  0  0  0  0  0  0  0  0  0
   37.2440   30.9690   49.0150 N   0  0  0  0  0  0  0  0  0  0  0  0
   37.3000   32.2570   47.5010 H   0  0  0  0  0  0  0  0  0  0  0  0
   35.6820   31.1100   46.2470 H   0  0  0  0  0  0  0  0  0  0  0  0
   37.1580   29.4250   50.9640 C   0  0  0  0  0  0  0  0  0  0  0  0
   37.7340   30.4470   51.6920 F   0  0  0  0  0  0  0  0  0  0  0  0
   35.9530   29.1530   51.7180 F   0  0  0  0  0  0  0  0  0  0  0  0
   37.8430   28.3090   51.0690 F   0  0  0  0  0  0  0  0  0  0  0  0
   35.3650   29.6640   44.6540 S   0  0  0  0  0  0  0  0  0  0  0  0
   34.8860   31.0650   44.5390 O   0  0  0  0  0  0  0  0  0  0  0  0
   34.8390   29.1930   43.3140 O   0  0  0  0  0  0  0  0  0  0  0  0
   36.9040   29.2680   44.0960 C   0  0  0  0  0  0  0  0  0  0  0  0
   37.2080   28.3230   44.7050 H   0  0  0  0  0  0  0  0  0  0  0  0
   36.9110   28.8270   43.0830 H   0  0  0  0  0  0  0  0  0  0  0  0
   37.9970   30.1310   44.3570 N   0  0  0  0  0  0  0  0  0  0  0  0
   38.8660   30.0390   45.3920 C   0  0  0  0  0  3  0  0  0  0  0  0
   39.9190   30.9060   45.6040 C   0  0  0  0  0  0  0  0  0  0  0  0
   40.5750   30.7530   46.4740 H   0  0  0  0  0  0  0  0  0  0  0  0
   40.0810   31.9310   44.6880 C   0  0  0  0  0  0  0  0  0  0  0  0
   41.0340   32.7080   44.8880 O   0  0  0  0  0  0  0  0  0  0  0  0
   39.2200   32.0400   43.6420 N   0  0  0  0  0  0  0  0  0  0  0  0
   38.2330   31.1680   43.5070 C   0  0  0  0  0  0  0  0  0  0  0  0
   37.4730   31.3470   42.4960 O   0  0  0  0  0  0  0  0  0  0  0  0
   39.3880   32.8310   42.9810 H   0  0  0  0  0  0  0  0  0  0  0  0
  1  2  1  0  0  0  0
  2 13  1  0  0  0  0
  2  3  2  0  0  0  0
  3  7  1  0  0  0  0
  4  3  1  0  0  0  0
  4  8  1  0  0  0  0
  5  4  2  0  0  0  0
  6  1  2  0  0  0  0
  6  5  1  0  0  0  0
  9  5  1  0  0  0  0
 10  6  1  0  0  0  0
 11 16  1  0  0  0  0
 12 13  1  0  0  0  0
 12 11  2  0  0  0  0
 13 14  2  0  0  0  0
 14 15  1  0  0  0  0
 15 19  1  0  0  0  0
 16 15  2  0  0  0  0
 17 11  1  0  0  0  0
 18 12  1  0  0  0  0
 19 22  1  0  0  0  0
 19 20  1  0  0  0  0
 19 21  1  0  0  0  0
 23  1  1  0  0  0  0
 24 23  2  0  0  0  0
 25 23  2  0  0  0  0
 26 29  1  0  0  0  0
 26 23  1  0  0  0  0
 26 27  1  0  0  0  0
 28 26  1  0  0  0  0
 29 30  1  0  0  0  0
 30 31  2  0  0  0  0
 31 32  1  0  0  0  0
 33 34  2  0  0  0  0
 33 31  1  0  0  0  0
 35 33  1  0  0  0  0
 36 35  1  0  0  0  0
 36 29  1  0  0  0  0
 37 36  2  0  0  0  0
 38 35  1  0  0  0  0
M  END
>  <minimizedAffinity>
-5.17150974

>  <minimizedRMSD>
4.15453529

$$$$
