
 OpenBabel03272509433D

 39 41  0  0  1  0  0  0  0  0999 V2000
   37.0890   30.9390   49.0290 C   0  0  0  0  0  0  0  0  0  0  0  0
   36.8460   31.8620   50.0480 C   0  0  0  0  0  0  0  0  0  0  0  0
   37.4510   33.1060   50.0760 C   0  0  0  0  0  0  0  0  0  0  0  0
   38.3400   33.4560   49.0480 C   0  0  0  0  0  0  0  0  0  0  0  0
   38.5680   32.5420   48.0550 C   0  0  0  0  0  0  0  0  0  0  0  0
   37.9400   31.3050   48.0640 C   0  0  0  0  0  0  0  0  0  0  0  0
   36.1560   31.5770   50.8370 H   0  0  0  0  0  0  0  0  0  0  0  0
   37.2000   33.7380   50.9000 H   0  0  0  0  0  0  0  0  0  0  0  0
   38.7570   34.4310   49.1510 H   0  0  0  0  0  0  0  0  0  0  0  0
   39.2730   32.9560   47.3390 H   0  0  0  0  0  0  0  0  0  0  0  0
   36.4780   29.6280   49.0270 C   0  0  2  0  0  0  0  0  0  0  0  0
   36.9750   29.0640   48.1470 H   0  0  0  0  0  0  0  0  0  0  0  0
   33.6160   30.0260   46.8240 C   0  0  0  0  0  0  0  0  0  0  0  0
   32.8730   28.8800   47.0310 C   0  0  0  0  0  0  0  0  0  0  0  0
   33.3160   27.9760   47.9850 C   0  0  0  0  0  0  0  0  0  0  0  0
   34.4710   28.2500   48.6830 N   0  0  0  0  0  0  0  0  0  0  0  0
   35.1360   29.3610   48.4370 C   0  0  0  0  0  0  0  0  0  0  0  0
   34.7190   30.2500   47.5160 N   0  0  0  0  0  0  0  0  0  0  0  0
   33.2850   30.7350   46.0880 H   0  0  0  0  0  0  0  0  0  0  0  0
   31.9820   28.7500   46.4360 H   0  0  0  0  0  0  0  0  0  0  0  0
   32.7470   27.0870   48.1530 H   0  0  0  0  0  0  0  0  0  0  0  0
   36.9290   28.8720   49.9660 O   0  0  0  0  0  0  0  0  0  0  0  0
   36.5420   29.0940   50.8620 H   0  0  0  0  0  0  0  0  0  0  0  0
   38.2940   30.4290   46.9720 C   0  0  0  0  0  3  0  0  0  0  0  0
   38.8890   30.8450   45.8480 C   0  0  0  0  0  3  0  0  0  0  0  0
   39.3290   30.0350   44.6890 C   0  0  0  0  0  0  0  0  0  0  0  0
   38.5790   29.2100   44.5580 H   0  0  0  0  0  0  0  0  0  0  0  0
   40.2860   29.5450   44.8640 H   0  0  0  0  0  0  0  0  0  0  0  0
   39.2790   31.0370   43.1990 S   0  0  0  0  0  0  0  0  0  0  0  0
   34.5720   31.2970   43.8910 H   0  0  0  0  0  0  0  0  0  0  0  0
   35.4020   31.7460   43.4580 N   0  0  0  0  0  0  0  0  0  0  0  0
   36.6500   31.2150   43.5650 C   0  0  0  0  0  3  0  0  0  0  0  0
   37.7250   31.8530   42.9670 C   0  0  0  0  0  0  0  0  0  0  0  0
   37.4840   33.0220   42.2760 C   0  0  0  0  0  0  0  0  0  0  0  0
   38.5070   33.5400   41.7640 O   0  0  0  0  0  0  0  0  0  0  0  0
   36.2540   33.5530   42.1660 N   0  0  0  0  0  0  0  0  0  0  0  0
   35.2410   32.8920   42.7660 C   0  0  0  0  0  0  0  0  0  0  0  0
   34.0600   33.3690   42.6810 O   0  0  0  0  0  0  0  0  0  0  0  0
   36.1420   34.4360   41.6310 H   0  0  0  0  0  0  0  0  0  0  0  0
  1  2  1  0  0  0  0
  2  3  2  0  0  0  0
  2  7  1  0  0  0  0
  3  8  1  0  0  0  0
  4  9  1  0  0  0  0
  4  3  1  0  0  0  0
  5  6  1  0  0  0  0
  5  4  2  0  0  0  0
  6  1  2  0  0  0  0
 10  5  1  0  0  0  0
 11 12  1  6  0  0  0
 11  1  1  0  0  0  0
 11 22  1  0  0  0  0
 13 14  2  0  0  0  0
 13 18  1  0  0  0  0
 14 15  1  0  0  0  0
 15 21  1  0  0  0  0
 15 16  2  0  0  0  0
 17 16  1  0  0  0  0
 17 11  1  0  0  0  0
 18 17  2  0  0  0  0
 19 13  1  0  0  0  0
 20 14  1  0  0  0  0
 22 23  1  0  0  0  0
 24  6  1  0  0  0  0
 25 24  2  0  0  0  0
 26 28  1  0  0  0  0
 26 25  1  0  0  0  0
 27 26  1  0  0  0  0
 29 26  1  0  0  0  0
 31 32  1  0  0  0  0
 31 30  1  0  0  0  0
 33 29  1  0  0  0  0
 33 32  2  0  0  0  0
 34 33  1  0  0  0  0
 35 34  2  0  0  0  0
 36 34  1  0  0  0  0
 36 37  1  0  0  0  0
 37 31  1  0  0  0  0
 38 37  2  0  0  0  0
 39 36  1  0  0  0  0
M  END
>  <minimizedAffinity>
-6.17767525

>  <minimizedRMSD>
0.585150182

$$$$
