
 OpenBabel03272506193D

 35 37  0  0  0  0  0  0  0  0999 V2000
   38.2670   24.4440   34.4430 C   0  0  0  0  0  0  0  0  0  0  0  0
   38.2470   25.5760   33.6060 C   0  0  0  0  0  0  0  0  0  0  0  0
   37.7770   25.3720   32.2940 C   0  0  0  0  0  0  0  0  0  0  0  0
   37.3710   24.1130   31.9040 N   0  0  0  0  0  0  0  0  0  0  0  0
   37.4140   23.0540   32.7650 C   0  0  0  0  0  0  0  0  0  0  0  0
   37.8570   23.2270   34.0090 N   0  0  0  0  0  0  0  0  0  0  0  0
   38.5430   26.5630   33.8460 H   0  0  0  0  0  0  0  0  0  0  0  0
   37.1020   22.0730   32.4720 H   0  0  0  0  0  0  0  0  0  0  0  0
   37.7180   26.4500   31.3710 N   0  0  0  0  0  0  0  0  0  0  0  0
   38.8210   27.1520   31.0090 C   0  0  0  0  0  3  0  0  0  0  0  0
   38.7110   28.1910   30.1090 C   0  0  0  0  0  0  0  0  0  0  0  0
   39.5960   28.7360   29.8340 H   0  0  0  0  0  0  0  0  0  0  0  0
   37.4810   28.4930   29.5970 C   0  0  0  0  0  0  0  0  0  0  0  0
   37.3770   29.4460   28.7710 O   0  0  0  0  0  0  0  0  0  0  0  0
   36.3820   27.7930   29.9590 N   0  0  0  0  0  0  0  0  0  0  0  0
   36.5370   26.7890   30.8390 C   0  0  0  0  0  0  0  0  0  0  0  0
   35.4410   26.1930   31.1130 O   0  0  0  0  0  0  0  0  0  0  0  0
   35.4900   28.0820   29.5270 H   0  0  0  0  0  0  0  0  0  0  0  0
   38.7600   24.6740   35.8360 C   0  0  0  0  0  0  0  0  0  0  0  0
   39.9640   23.7940   36.1000 C   0  0  0  0  0  0  0  0  0  0  0  0
   39.6790   22.7030   37.0890 C   0  0  0  0  0  0  0  0  0  0  0  0
   39.1090   23.2070   38.3840 C   0  0  0  0  0  0  0  0  0  0  0  0
   38.0700   24.2720   38.2040 C   0  0  0  0  0  0  0  0  0  0  0  0
   37.6210   24.4130   36.7630 C   0  0  0  0  0  0  0  0  0  0  0  0
   39.0390   25.7480   35.8690 H   0  0  0  0  0  0  0  0  0  0  0  0
   40.7910   24.4430   36.4290 H   0  0  0  0  0  0  0  0  0  0  0  0
   40.3080   23.3050   35.1610 H   0  0  0  0  0  0  0  0  0  0  0  0
   40.6640   22.2270   37.3240 H   0  0  0  0  0  0  0  0  0  0  0  0
   39.0480   21.9230   36.6240 H   0  0  0  0  0  0  0  0  0  0  0  0
   38.5960   22.3230   38.8630 H   0  0  0  0  0  0  0  0  0  0  0  0
   39.8990   23.4900   39.1250 H   0  0  0  0  0  0  0  0  0  0  0  0
   37.1940   24.1820   38.8570 H   0  0  0  0  0  0  0  0  0  0  0  0
   38.5320   25.2600   38.4680 H   0  0  0  0  0  0  0  0  0  0  0  0
   37.0590   23.4860   36.4470 H   0  0  0  0  0  0  0  0  0  0  0  0
   36.8970   25.2310   36.7170 H   0  0  0  0  0  0  0  0  0  0  0  0
  1 19  1  0  0  0  0
  2  7  1  0  0  0  0
  2  1  2  0  0  0  0
  3  2  1  0  0  0  0
  4  3  2  0  0  0  0
  4  5  1  0  0  0  0
  5  6  2  0  0  0  0
  6  1  1  0  0  0  0
  8  5  1  0  0  0  0
  9  3  1  0  0  0  0
 10  9  1  0  0  0  0
 11 10  2  0  0  0  0
 12 11  1  0  0  0  0
 13 15  1  0  0  0  0
 13 11  1  0  0  0  0
 14 13  2  0  0  0  0
 15 16  1  0  0  0  0
 16 17  2  0  0  0  0
 16  9  1  0  0  0  0
 18 15  1  0  0  0  0
 19 25  1  0  0  0  0
 19 20  1  0  0  0  0
 19 24  1  0  0  0  0
 20 26  1  0  0  0  0
 20 21  1  0  0  0  0
 21 28  1  0  0  0  0
 21 22  1  0  0  0  0
 22 30  1  0  0  0  0
 22 31  1  0  0  0  0
 23 22  1  0  0  0  0
 23 33  1  0  0  0  0
 23 32  1  0  0  0  0
 24 23  1  0  0  0  0
 27 20  1  0  0  0  0
 29 21  1  0  0  0  0
 34 24  1  0  0  0  0
 35 24  1  0  0  0  0
M  END
>  <minimizedAffinity>
-5.85382032

$$$$

 OpenBabel03272506193D

 35 37  0  0  0  0  0  0  0  0999 V2000
   37.8950   25.2770   33.6320 C   0  0  0  0  0  0  0  0  0  0  0  0
   38.7250   24.2610   34.1430 C   0  0  0  0  0  0  0  0  0  0  0  0
   39.1690   24.4300   35.4690 C   0  0  0  0  0  0  0  0  0  0  0  0
   38.7820   25.5460   36.1800 N   0  0  0  0  0  0  0  0  0  0  0  0
   37.9740   26.4960   35.6270 C   0  0  0  0  0  0  0  0  0  0  0  0
   37.5440   26.3550   34.3740 N   0  0  0  0  0  0  0  0  0  0  0  0
   39.0540   23.3850   33.6500 H   0  0  0  0  0  0  0  0  0  0  0  0
   37.6680   27.3660   36.1700 H   0  0  0  0  0  0  0  0  0  0  0  0
   40.0110   23.4610   36.0790 N   0  0  0  0  0  0  0  0  0  0  0  0
   41.2280   23.1400   35.5710 C   0  0  0  0  0  3  0  0  0  0  0  0
   42.0090   22.1930   36.1990 C   0  0  0  0  0  0  0  0  0  0  0  0
   42.9700   21.9520   35.7820 H   0  0  0  0  0  0  0  0  0  0  0  0
   41.5340   21.5930   37.3310 C   0  0  0  0  0  0  0  0  0  0  0  0
   42.2470   20.7220   37.9100 O   0  0  0  0  0  0  0  0  0  0  0  0
   40.3210   21.9130   37.8360 N   0  0  0  0  0  0  0  0  0  0  0  0
   39.5950   22.8420   37.1900 C   0  0  0  0  0  0  0  0  0  0  0  0
   38.4690   23.0700   37.7480 O   0  0  0  0  0  0  0  0  0  0  0  0
   40.0350   21.4150   38.6940 H   0  0  0  0  0  0  0  0  0  0  0  0
   37.4220   25.0830   32.2260 C   0  0  0  0  0  0  0  0  0  0  0  0
   36.8860   26.3930   31.6860 C   0  0  0  0  0  0  0  0  0  0  0  0
   35.4000   26.3730   31.4880 C   0  0  0  0  0  0  0  0  0  0  0  0
   34.9280   25.2280   30.6380 C   0  0  0  0  0  0  0  0  0  0  0  0
   35.6040   23.9290   30.9580 C   0  0  0  0  0  0  0  0  0  0  0  0
   36.4080   23.9890   32.2410 C   0  0  0  0  0  0  0  0  0  0  0  0
   38.3220   24.7590   31.6620 H   0  0  0  0  0  0  0  0  0  0  0  0
   37.4240   26.6180   30.7520 H   0  0  0  0  0  0  0  0  0  0  0  0
   37.1140   27.2290   32.3840 H   0  0  0  0  0  0  0  0  0  0  0  0
   35.1430   27.3160   30.9430 H   0  0  0  0  0  0  0  0  0  0  0  0
   34.8850   26.4150   32.4640 H   0  0  0  0  0  0  0  0  0  0  0  0
   33.8320   25.0960   30.8750 H   0  0  0  0  0  0  0  0  0  0  0  0
   34.9370   25.4660   29.5440 H   0  0  0  0  0  0  0  0  0  0  0  0
   34.9450   23.0540   30.9750 H   0  0  0  0  0  0  0  0  0  0  0  0
   36.3530   23.7170   30.1490 H   0  0  0  0  0  0  0  0  0  0  0  0
   35.7110   24.1100   33.1210 H   0  0  0  0  0  0  0  0  0  0  0  0
   36.8950   23.0190   32.3770 H   0  0  0  0  0  0  0  0  0  0  0  0
  1  2  2  0  0  0  0
  1  6  1  0  0  0  0
  2  3  1  0  0  0  0
  3  9  1  0  0  0  0
  3  4  2  0  0  0  0
  5  8  1  0  0  0  0
  5  4  1  0  0  0  0
  6  5  2  0  0  0  0
  7  2  1  0  0  0  0
  9 16  1  0  0  0  0
 10  9  1  0  0  0  0
 10 11  2  0  0  0  0
 11 13  1  0  0  0  0
 12 11  1  0  0  0  0
 13 15  1  0  0  0  0
 13 14  2  0  0  0  0
 15 18  1  0  0  0  0
 16 17  2  0  0  0  0
 16 15  1  0  0  0  0
 19 24  1  0  0  0  0
 19  1  1  0  0  0  0
 20 19  1  0  0  0  0
 20 27  1  0  0  0  0
 21 20  1  0  0  0  0
 21 29  1  0  0  0  0
 22 30  1  0  0  0  0
 22 23  1  0  0  0  0
 22 21  1  0  0  0  0
 23 32  1  0  0  0  0
 23 24  1  0  0  0  0
 24 35  1  0  0  0  0
 24 34  1  0  0  0  0
 25 19  1  0  0  0  0
 26 20  1  0  0  0  0
 28 21  1  0  0  0  0
 31 22  1  0  0  0  0
 33 23  1  0  0  0  0
M  END
>  <minimizedAffinity>
-5.81428099

$$$$

 OpenBabel03272506193D

 35 37  0  0  0  0  0  0  0  0999 V2000
   36.7490   27.8470   33.2160 C   0  0  0  0  0  0  0  0  0  0  0  0
   36.2830   28.6390   34.2830 C   0  0  0  0  0  0  0  0  0  0  0  0
   35.3780   29.6640   33.9480 C   0  0  0  0  0  0  0  0  0  0  0  0
   35.0030   29.8380   32.6320 N   0  0  0  0  0  0  0  0  0  0  0  0
   35.4900   29.0350   31.6420 C   0  0  0  0  0  0  0  0  0  0  0  0
   36.3480   28.0610   31.9400 N   0  0  0  0  0  0  0  0  0  0  0  0
   36.5320   28.5550   35.3080 H   0  0  0  0  0  0  0  0  0  0  0  0
   35.2050   29.1620   30.6180 H   0  0  0  0  0  0  0  0  0  0  0  0
   34.8490   30.5190   34.9510 N   0  0  0  0  0  0  0  0  0  0  0  0
   35.6440   31.2950   35.7320 C   0  0  0  0  0  3  0  0  0  0  0  0
   35.0820   32.1080   36.6930 C   0  0  0  0  0  0  0  0  0  0  0  0
   35.7280   32.7150   37.3020 H   0  0  0  0  0  0  0  0  0  0  0  0
   33.7240   32.1150   36.8390 C   0  0  0  0  0  0  0  0  0  0  0  0
   33.2050   32.8600   37.7210 O   0  0  0  0  0  0  0  0  0  0  0  0
   32.9330   31.3420   36.0620 N   0  0  0  0  0  0  0  0  0  0  0  0
   33.5240   30.5660   35.1380 C   0  0  0  0  0  0  0  0  0  0  0  0
   32.6900   29.8780   34.4580 O   0  0  0  0  0  0  0  0  0  0  0  0
   31.9170   31.4050   36.2340 H   0  0  0  0  0  0  0  0  0  0  0  0
   37.7030   26.7560   33.5860 C   0  0  0  0  0  0  0  0  0  0  0  0
   37.8320   26.6850   35.0930 C   0  0  0  0  0  0  0  0  0  0  0  0
   39.1810   27.1250   35.5800 C   0  0  0  0  0  0  0  0  0  0  0  0
   40.3180   26.3950   34.9250 C   0  0  0  0  0  0  0  0  0  0  0  0
   40.1380   26.2120   33.4480 C   0  0  0  0  0  0  0  0  0  0  0  0
   38.9940   27.0360   32.8930 C   0  0  0  0  0  0  0  0  0  0  0  0
   37.2480   25.8270   33.1820 H   0  0  0  0  0  0  0  0  0  0  0  0
   37.5980   25.6540   35.4030 H   0  0  0  0  0  0  0  0  0  0  0  0
   37.0760   27.3360   35.5850 H   0  0  0  0  0  0  0  0  0  0  0  0
   39.2160   26.8800   36.6720 H   0  0  0  0  0  0  0  0  0  0  0  0
   39.2770   28.2230   35.4940 H   0  0  0  0  0  0  0  0  0  0  0  0
   41.2290   27.0470   35.0690 H   0  0  0  0  0  0  0  0  0  0  0  0
   40.5850   25.4450   35.4530 H   0  0  0  0  0  0  0  0  0  0  0  0
   41.0390   26.3770   32.8470 H   0  0  0  0  0  0  0  0  0  0  0  0
   39.8520   25.1430   33.2610 H   0  0  0  0  0  0  0  0  0  0  0  0
   39.2480   28.1340   32.9610 H   0  0  0  0  0  0  0  0  0  0  0  0
   38.9100   26.8150   31.8250 H   0  0  0  0  0  0  0  0  0  0  0  0
  1 19  1  0  0  0  0
  1  2  1  0  0  0  0
  2  7  1  0  0  0  0
  3  2  2  0  0  0  0
  3  9  1  0  0  0  0
  4  3  1  0  0  0  0
  5  6  1  0  0  0  0
  5  4  2  0  0  0  0
  6  1  2  0  0  0  0
  8  5  1  0  0  0  0
  9 16  1  0  0  0  0
  9 10  1  0  0  0  0
 10 11  2  0  0  0  0
 11 13  1  0  0  0  0
 11 12  1  0  0  0  0
 13 14  2  0  0  0  0
 15 18  1  0  0  0  0
 15 13  1  0  0  0  0
 16 15  1  0  0  0  0
 17 16  2  0  0  0  0
 19 20  1  0  0  0  0
 20 26  1  0  0  0  0
 20 21  1  0  0  0  0
 20 27  1  0  0  0  0
 21 28  1  0  0  0  0
 22 30  1  0  0  0  0
 22 31  1  0  0  0  0
 22 21  1  0  0  0  0
 23 22  1  0  0  0  0
 24 34  1  0  0  0  0
 24 23  1  0  0  0  0
 24 19  1  0  0  0  0
 25 19  1  0  0  0  0
 29 21  1  0  0  0  0
 32 23  1  0  0  0  0
 33 23  1  0  0  0  0
 35 24  1  0  0  0  0
M  END
>  <minimizedAffinity>
-5.63557673

$$$$

 OpenBabel03272506193D

 35 37  0  0  0  0  0  0  0  0999 V2000
   38.4300   22.4690   34.3780 C   0  0  0  0  0  0  0  0  0  0  0  0
   37.9550   23.7660   34.1070 C   0  0  0  0  0  0  0  0  0  0  0  0
   37.7830   24.0930   32.7470 C   0  0  0  0  0  0  0  0  0  0  0  0
   38.0790   23.1580   31.7790 N   0  0  0  0  0  0  0  0  0  0  0  0
   38.5350   21.9140   32.1080 C   0  0  0  0  0  0  0  0  0  0  0  0
   38.7050   21.5860   33.3870 N   0  0  0  0  0  0  0  0  0  0  0  0
   37.7100   24.5240   34.8030 H   0  0  0  0  0  0  0  0  0  0  0  0
   38.7680   21.1810   31.3630 H   0  0  0  0  0  0  0  0  0  0  0  0
   37.3090   25.3770   32.3670 N   0  0  0  0  0  0  0  0  0  0  0  0
   37.9680   26.5180   32.6960 C   0  0  0  0  0  3  0  0  0  0  0  0
   37.4660   27.7410   32.3040 C   0  0  0  0  0  0  0  0  0  0  0  0
   38.0020   28.6320   32.5730 H   0  0  0  0  0  0  0  0  0  0  0  0
   36.3050   27.7770   31.5850 C   0  0  0  0  0  0  0  0  0  0  0  0
   35.8420   28.8980   31.2240 O   0  0  0  0  0  0  0  0  0  0  0  0
   35.6490   26.6410   31.2580 N   0  0  0  0  0  0  0  0  0  0  0  0
   36.1740   25.4720   31.6620 C   0  0  0  0  0  0  0  0  0  0  0  0
   35.4800   24.4630   31.3020 O   0  0  0  0  0  0  0  0  0  0  0  0
   34.7790   26.7530   30.7140 H   0  0  0  0  0  0  0  0  0  0  0  0
   38.6000   22.1290   35.8250 C   0  0  0  0  0  0  0  0  0  0  0  0
   37.4060   22.6350   36.6080 C   0  0  0  0  0  0  0  0  0  0  0  0
   37.7520   23.7770   37.5170 C   0  0  0  0  0  0  0  0  0  0  0  0
   38.8930   23.4750   38.4450 C   0  0  0  0  0  0  0  0  0  0  0  0
   40.0240   22.7460   37.7830 C   0  0  0  0  0  0  0  0  0  0  0  0
   39.8950   22.7160   36.2740 C   0  0  0  0  0  0  0  0  0  0  0  0
   38.6540   21.0200   35.8560 H   0  0  0  0  0  0  0  0  0  0  0  0
   36.9790   21.7830   37.1600 H   0  0  0  0  0  0  0  0  0  0  0  0
   36.6070   22.9910   35.9210 H   0  0  0  0  0  0  0  0  0  0  0  0
   36.8480   23.9570   38.1520 H   0  0  0  0  0  0  0  0  0  0  0  0
   37.9180   24.6960   36.9270 H   0  0  0  0  0  0  0  0  0  0  0  0
   39.2960   24.4760   38.7780 H   0  0  0  0  0  0  0  0  0  0  0  0
   38.5610   22.9910   39.3980 H   0  0  0  0  0  0  0  0  0  0  0  0
   41.0260   23.0910   38.0620 H   0  0  0  0  0  0  0  0  0  0  0  0
   39.9830   21.6720   38.1060 H   0  0  0  0  0  0  0  0  0  0  0  0
   40.0190   23.7600   35.8600 H   0  0  0  0  0  0  0  0  0  0  0  0
   40.7340   22.1370   35.8780 H   0  0  0  0  0  0  0  0  0  0  0  0
  1 19  1  0  0  0  0
  2  1  1  0  0  0  0
  2  7  1  0  0  0  0
  3  2  2  0  0  0  0
  4  5  2  0  0  0  0
  4  3  1  0  0  0  0
  5  6  1  0  0  0  0
  6  1  2  0  0  0  0
  8  5  1  0  0  0  0
  9 10  1  0  0  0  0
  9  3  1  0  0  0  0
 11 12  1  0  0  0  0
 11 10  2  0  0  0  0
 13 11  1  0  0  0  0
 14 13  2  0  0  0  0
 15 13  1  0  0  0  0
 15 16  1  0  0  0  0
 16  9  1  0  0  0  0
 17 16  2  0  0  0  0
 18 15  1  0  0  0  0
 19 25  1  0  0  0  0
 19 24  1  0  0  0  0
 19 20  1  0  0  0  0
 20 26  1  0  0  0  0
 20 21  1  0  0  0  0
 21 28  1  0  0  0  0
 21 22  1  0  0  0  0
 22 30  1  0  0  0  0
 22 31  1  0  0  0  0
 23 32  1  0  0  0  0
 23 33  1  0  0  0  0
 23 22  1  0  0  0  0
 24 23  1  0  0  0  0
 27 20  1  0  0  0  0
 29 21  1  0  0  0  0
 34 24  1  0  0  0  0
 35 24  1  0  0  0  0
M  END
>  <minimizedAffinity>
-5.52356148

$$$$

 OpenBabel03272506193D

 35 37  0  0  0  0  0  0  0  0999 V2000
   37.6300   23.4050   32.7670 C   0  0  0  0  0  0  0  0  0  0  0  0
   38.4920   22.6310   33.5660 C   0  0  0  0  0  0  0  0  0  0  0  0
   39.0940   23.2930   34.6540 C   0  0  0  0  0  0  0  0  0  0  0  0
   38.8200   24.6260   34.8770 N   0  0  0  0  0  0  0  0  0  0  0  0
   37.9720   25.3220   34.0640 C   0  0  0  0  0  0  0  0  0  0  0  0
   37.3940   24.7130   33.0300 N   0  0  0  0  0  0  0  0  0  0  0  0
   38.7410   21.6090   33.4480 H   0  0  0  0  0  0  0  0  0  0  0  0
   37.7530   26.3570   34.2280 H   0  0  0  0  0  0  0  0  0  0  0  0
   39.9810   22.6000   35.5210 N   0  0  0  0  0  0  0  0  0  0  0  0
   41.1220   22.0170   35.0720 C   0  0  0  0  0  3  0  0  0  0  0  0
   41.9500   21.3560   35.9550 C   0  0  0  0  0  0  0  0  0  0  0  0
   42.8490   20.9000   35.5810 H   0  0  0  0  0  0  0  0  0  0  0  0
   41.6000   21.3020   37.2730 C   0  0  0  0  0  0  0  0  0  0  0  0
   42.3580   20.6950   38.0860 O   0  0  0  0  0  0  0  0  0  0  0  0
   40.4630   21.8830   37.7200 N   0  0  0  0  0  0  0  0  0  0  0  0
   39.6870   22.5170   36.8250 C   0  0  0  0  0  0  0  0  0  0  0  0
   38.6410   23.0290   37.3470 O   0  0  0  0  0  0  0  0  0  0  0  0
   40.2700   21.7980   38.7300 H   0  0  0  0  0  0  0  0  0  0  0  0
   36.9890   22.6890   31.6210 C   0  0  0  0  0  0  0  0  0  0  0  0
   35.5150   22.4860   31.9100 C   0  0  0  0  0  0  0  0  0  0  0  0
   35.1650   21.0470   32.1450 C   0  0  0  0  0  0  0  0  0  0  0  0
   35.6070   20.1370   31.0350 C   0  0  0  0  0  0  0  0  0  0  0  0
   36.9840   20.4430   30.5260 C   0  0  0  0  0  0  0  0  0  0  0  0
   37.7330   21.4140   31.4160 C   0  0  0  0  0  0  0  0  0  0  0  0
   37.1330   23.3580   30.7470 H   0  0  0  0  0  0  0  0  0  0  0  0
   34.9450   22.9190   31.0730 H   0  0  0  0  0  0  0  0  0  0  0  0
   35.2110   23.0520   32.8180 H   0  0  0  0  0  0  0  0  0  0  0  0
   34.0470   20.9990   32.1850 H   0  0  0  0  0  0  0  0  0  0  0  0
   35.5360   20.7210   33.1330 H   0  0  0  0  0  0  0  0  0  0  0  0
   35.6430   19.1000   31.4790 H   0  0  0  0  0  0  0  0  0  0  0  0
   34.8490   20.0500   30.2160 H   0  0  0  0  0  0  0  0  0  0  0  0
   37.6100   19.5670   30.3240 H   0  0  0  0  0  0  0  0  0  0  0  0
   36.8830   20.9650   29.5380 H   0  0  0  0  0  0  0  0  0  0  0  0
   37.9580   20.9240   32.4090 H   0  0  0  0  0  0  0  0  0  0  0  0
   38.7050   21.6090   30.9540 H   0  0  0  0  0  0  0  0  0  0  0  0
  1  6  2  0  0  0  0
  1  2  1  0  0  0  0
  2  3  2  0  0  0  0
  3  4  1  0  0  0  0
  3  9  1  0  0  0  0
  5  8  1  0  0  0  0
  5  4  2  0  0  0  0
  6  5  1  0  0  0  0
  7  2  1  0  0  0  0
  9 16  1  0  0  0  0
 10  9  1  0  0  0  0
 10 11  2  0  0  0  0
 11 13  1  0  0  0  0
 12 11  1  0  0  0  0
 13 15  1  0  0  0  0
 13 14  2  0  0  0  0
 15 18  1  0  0  0  0
 16 17  2  0  0  0  0
 16 15  1  0  0  0  0
 19 20  1  0  0  0  0
 19  1  1  0  0  0  0
 20 21  1  0  0  0  0
 20 27  1  0  0  0  0
 21 28  1  0  0  0  0
 21 29  1  0  0  0  0
 22 30  1  0  0  0  0
 22 21  1  0  0  0  0
 23 22  1  0  0  0  0
 23 24  1  0  0  0  0
 24 19  1  0  0  0  0
 24 34  1  0  0  0  0
 25 19  1  0  0  0  0
 26 20  1  0  0  0  0
 31 22  1  0  0  0  0
 32 23  1  0  0  0  0
 33 23  1  0  0  0  0
 35 24  1  0  0  0  0
M  END
>  <minimizedAffinity>
-5.50433922

$$$$

 OpenBabel03272506193D

 35 37  0  0  0  0  0  0  0  0999 V2000
   38.7680   24.8850   34.7680 C   0  0  0  0  0  0  0  0  0  0  0  0
   37.6710   25.7570   34.6380 C   0  0  0  0  0  0  0  0  0  0  0  0
   37.8050   26.7890   33.6880 C   0  0  0  0  0  0  0  0  0  0  0  0
   38.9680   26.8920   32.9550 N   0  0  0  0  0  0  0  0  0  0  0  0
   39.9970   26.0130   33.1270 C   0  0  0  0  0  0  0  0  0  0  0  0
   39.8900   25.0310   34.0210 N   0  0  0  0  0  0  0  0  0  0  0  0
   36.7560   25.7290   35.1690 H   0  0  0  0  0  0  0  0  0  0  0  0
   40.9040   26.0840   32.5630 H   0  0  0  0  0  0  0  0  0  0  0  0
   36.7540   27.7220   33.4810 N   0  0  0  0  0  0  0  0  0  0  0  0
   36.2880   28.5180   34.4770 C   0  0  0  0  0  3  0  0  0  0  0  0
   35.2650   29.4090   34.2250 C   0  0  0  0  0  0  0  0  0  0  0  0
   34.9090   30.0310   35.0260 H   0  0  0  0  0  0  0  0  0  0  0  0
   34.7390   29.4690   32.9660 C   0  0  0  0  0  0  0  0  0  0  0  0
   33.8010   30.2850   32.7310 O   0  0  0  0  0  0  0  0  0  0  0  0
   35.2040   28.6760   31.9740 N   0  0  0  0  0  0  0  0  0  0  0  0
   36.2020   27.8230   32.2650 C   0  0  0  0  0  0  0  0  0  0  0  0
   36.5660   27.1220   31.2630 O   0  0  0  0  0  0  0  0  0  0  0  0
   34.7540   28.7820   31.0510 H   0  0  0  0  0  0  0  0  0  0  0  0
   38.6110   23.7890   35.7730 C   0  0  0  0  0  0  0  0  0  0  0  0
   37.5270   24.1610   36.7640 C   0  0  0  0  0  0  0  0  0  0  0  0
   38.0670   24.4410   38.1350 C   0  0  0  0  0  0  0  0  0  0  0  0
   38.9110   23.3260   38.6820 C   0  0  0  0  0  0  0  0  0  0  0  0
   39.8500   22.7380   37.6720 C   0  0  0  0  0  0  0  0  0  0  0  0
   39.9430   23.5680   36.4080 C   0  0  0  0  0  0  0  0  0  0  0  0
   38.3190   22.8960   35.1820 H   0  0  0  0  0  0  0  0  0  0  0  0
   36.7840   23.3480   36.7710 H   0  0  0  0  0  0  0  0  0  0  0  0
   36.9850   25.0730   36.4300 H   0  0  0  0  0  0  0  0  0  0  0  0
   37.1780   24.5430   38.8070 H   0  0  0  0  0  0  0  0  0  0  0  0
   38.5910   25.4140   38.1460 H   0  0  0  0  0  0  0  0  0  0  0  0
   39.5460   23.7870   39.4940 H   0  0  0  0  0  0  0  0  0  0  0  0
   38.3100   22.5510   39.2220 H   0  0  0  0  0  0  0  0  0  0  0  0
   40.8570   22.5190   38.0460 H   0  0  0  0  0  0  0  0  0  0  0  0
   39.4360   21.7470   37.3460 H   0  0  0  0  0  0  0  0  0  0  0  0
   40.4390   24.5560   36.6370 H   0  0  0  0  0  0  0  0  0  0  0  0
   40.6140   23.0510   35.7160 H   0  0  0  0  0  0  0  0  0  0  0  0
  1 19  1  0  0  0  0
  2  1  1  0  0  0  0
  2  7  1  0  0  0  0
  3  2  2  0  0  0  0
  4  5  2  0  0  0  0
  4  3  1  0  0  0  0
  5  6  1  0  0  0  0
  6  1  2  0  0  0  0
  8  5  1  0  0  0  0
  9  3  1  0  0  0  0
  9 10  1  0  0  0  0
 11 10  2  0  0  0  0
 11 12  1  0  0  0  0
 13 11  1  0  0  0  0
 14 13  2  0  0  0  0
 15 16  1  0  0  0  0
 15 13  1  0  0  0  0
 16  9  1  0  0  0  0
 17 16  2  0  0  0  0
 18 15  1  0  0  0  0
 19 24  1  0  0  0  0
 19 20  1  0  0  0  0
 20 26  1  0  0  0  0
 20 21  1  0  0  0  0
 21 29  1  0  0  0  0
 21 22  1  0  0  0  0
 21 28  1  0  0  0  0
 22 31  1  0  0  0  0
 22 30  1  0  0  0  0
 23 32  1  0  0  0  0
 23 22  1  0  0  0  0
 24 34  1  0  0  0  0
 24 23  1  0  0  0  0
 25 19  1  0  0  0  0
 27 20  1  0  0  0  0
 33 23  1  0  0  0  0
 35 24  1  0  0  0  0
M  END
>  <minimizedAffinity>
-5.45192909

$$$$

 OpenBabel03272506193D

 35 37  0  0  0  0  0  0  0  0999 V2000
   38.7050   24.7910   34.6410 C   0  0  0  0  0  0  0  0  0  0  0  0
   37.8860   23.8640   33.9680 C   0  0  0  0  0  0  0  0  0  0  0  0
   37.8900   22.5490   34.4740 C   0  0  0  0  0  0  0  0  0  0  0  0
   38.6700   22.2430   35.5690 N   0  0  0  0  0  0  0  0  0  0  0  0
   39.4430   23.1890   36.1780 C   0  0  0  0  0  0  0  0  0  0  0  0
   39.4540   24.4370   35.7130 N   0  0  0  0  0  0  0  0  0  0  0  0
   37.2670   24.0380   33.1280 H   0  0  0  0  0  0  0  0  0  0  0  0
   40.0530   22.9610   37.0280 H   0  0  0  0  0  0  0  0  0  0  0  0
   37.0980   21.5390   33.8670 N   0  0  0  0  0  0  0  0  0  0  0  0
   37.2550   21.1810   32.5670 C   0  0  0  0  0  3  0  0  0  0  0  0
   36.4600   20.1930   32.0230 C   0  0  0  0  0  0  0  0  0  0  0  0
   36.6000   19.9240   30.9920 H   0  0  0  0  0  0  0  0  0  0  0  0
   35.5240   19.5910   32.8140 C   0  0  0  0  0  0  0  0  0  0  0  0
   34.7930   18.6850   32.3180 O   0  0  0  0  0  0  0  0  0  0  0  0
   35.3670   19.9480   34.1090 N   0  0  0  0  0  0  0  0  0  0  0  0
   36.1630   20.9150   34.5960 C   0  0  0  0  0  0  0  0  0  0  0  0
   35.9350   21.1770   35.8250 O   0  0  0  0  0  0  0  0  0  0  0  0
   34.6380   19.4460   34.6390 H   0  0  0  0  0  0  0  0  0  0  0  0
   38.6860   26.1860   34.1000 C   0  0  0  0  0  0  0  0  0  0  0  0
   37.9660   27.0970   35.0730 C   0  0  0  0  0  0  0  0  0  0  0  0
   36.6490   27.5810   34.5450 C   0  0  0  0  0  0  0  0  0  0  0  0
   36.7510   28.2360   33.1970 C   0  0  0  0  0  0  0  0  0  0  0  0
   37.6560   27.5090   32.2480 C   0  0  0  0  0  0  0  0  0  0  0  0
   38.0490   26.1360   32.7530 C   0  0  0  0  0  0  0  0  0  0  0  0
   39.7550   26.4720   34.0050 H   0  0  0  0  0  0  0  0  0  0  0  0
   38.6440   27.9300   35.3200 H   0  0  0  0  0  0  0  0  0  0  0  0
   37.7630   26.5680   36.0300 H   0  0  0  0  0  0  0  0  0  0  0  0
   36.2900   28.3600   35.2640 H   0  0  0  0  0  0  0  0  0  0  0  0
   35.9070   26.7620   34.5620 H   0  0  0  0  0  0  0  0  0  0  0  0
   35.7130   28.2020   32.7550 H   0  0  0  0  0  0  0  0  0  0  0  0
   36.9770   29.3310   33.2630 H   0  0  0  0  0  0  0  0  0  0  0  0
   37.2860   27.4340   31.2200 H   0  0  0  0  0  0  0  0  0  0  0  0
   38.6170   28.0840   32.1730 H   0  0  0  0  0  0  0  0  0  0  0  0
   37.1430   25.4630   32.7700 H   0  0  0  0  0  0  0  0  0  0  0  0
   38.7340   25.6950   32.0230 H   0  0  0  0  0  0  0  0  0  0  0  0
  1  6  1  0  0  0  0
  2  3  1  0  0  0  0
  2  1  2  0  0  0  0
  3  4  2  0  0  0  0
  4  5  1  0  0  0  0
  5  8  1  0  0  0  0
  6  5  2  0  0  0  0
  7  2  1  0  0  0  0
  9  3  1  0  0  0  0
  9 16  1  0  0  0  0
 10  9  1  0  0  0  0
 11 10  2  0  0  0  0
 11 13  1  0  0  0  0
 12 11  1  0  0  0  0
 13 15  1  0  0  0  0
 14 13  2  0  0  0  0
 15 16  1  0  0  0  0
 15 18  1  0  0  0  0
 16 17  2  0  0  0  0
 19  1  1  0  0  0  0
 19 20  1  0  0  0  0
 20 26  1  0  0  0  0
 20 27  1  0  0  0  0
 21 29  1  0  0  0  0
 21 20  1  0  0  0  0
 21 28  1  0  0  0  0
 22 31  1  0  0  0  0
 22 21  1  0  0  0  0
 23 24  1  0  0  0  0
 23 22  1  0  0  0  0
 24 34  1  0  0  0  0
 24 19  1  0  0  0  0
 25 19  1  0  0  0  0
 30 22  1  0  0  0  0
 32 23  1  0  0  0  0
 33 23  1  0  0  0  0
 35 24  1  0  0  0  0
M  END
>  <minimizedAffinity>
-5.43828344

$$$$

 OpenBabel03272506193D

 35 37  0  0  0  0  0  0  0  0999 V2000
   38.3230   25.6690   31.8910 C   0  0  0  0  0  0  0  0  0  0  0  0
   37.6090   24.5300   32.3090 C   0  0  0  0  0  0  0  0  0  0  0  0
   37.6260   23.4280   31.4310 C   0  0  0  0  0  0  0  0  0  0  0  0
   38.3200   23.5160   30.2420 N   0  0  0  0  0  0  0  0  0  0  0  0
   38.9940   24.6500   29.8950 C   0  0  0  0  0  0  0  0  0  0  0  0
   38.9890   25.7020   30.7120 N   0  0  0  0  0  0  0  0  0  0  0  0
   37.0610   24.4020   33.2050 H   0  0  0  0  0  0  0  0  0  0  0  0
   39.5350   24.7280   28.9750 H   0  0  0  0  0  0  0  0  0  0  0  0
   36.9360   22.2310   31.7590 N   0  0  0  0  0  0  0  0  0  0  0  0
   35.5970   22.2050   31.9780 C   0  0  0  0  0  3  0  0  0  0  0  0
   34.9730   21.0170   32.2940 C   0  0  0  0  0  0  0  0  0  0  0  0
   33.9120   21.0160   32.4640 H   0  0  0  0  0  0  0  0  0  0  0  0
   35.7250   19.8800   32.3820 C   0  0  0  0  0  0  0  0  0  0  0  0
   35.1560   18.7880   32.6720 O   0  0  0  0  0  0  0  0  0  0  0  0
   37.0600   19.9060   32.1640 N   0  0  0  0  0  0  0  0  0  0  0  0
   37.6250   21.0870   31.8580 C   0  0  0  0  0  0  0  0  0  0  0  0
   38.8860   21.0020   31.6730 O   0  0  0  0  0  0  0  0  0  0  0  0
   37.5570   19.0050   32.2490 H   0  0  0  0  0  0  0  0  0  0  0  0
   38.3050   26.8290   32.8360 C   0  0  0  0  0  0  0  0  0  0  0  0
   39.6680   26.9790   33.4800 C   0  0  0  0  0  0  0  0  0  0  0  0
   39.6590   26.6400   34.9400 C   0  0  0  0  0  0  0  0  0  0  0  0
   38.6280   27.4010   35.7220 C   0  0  0  0  0  0  0  0  0  0  0  0
   37.3050   27.5030   35.0240 C   0  0  0  0  0  0  0  0  0  0  0  0
   37.2090   26.5900   33.8180 C   0  0  0  0  0  0  0  0  0  0  0  0
   38.0650   27.7100   32.2050 H   0  0  0  0  0  0  0  0  0  0  0  0
   40.0150   28.0090   33.2970 H   0  0  0  0  0  0  0  0  0  0  0  0
   40.4110   26.3100   32.9910 H   0  0  0  0  0  0  0  0  0  0  0  0
   40.6620   26.9390   35.3380 H   0  0  0  0  0  0  0  0  0  0  0  0
   39.5720   25.5470   35.0770 H   0  0  0  0  0  0  0  0  0  0  0  0
   38.4560   26.8100   36.6690 H   0  0  0  0  0  0  0  0  0  0  0  0
   39.0040   28.3890   36.0900 H   0  0  0  0  0  0  0  0  0  0  0  0
   36.4280   27.3610   35.6660 H   0  0  0  0  0  0  0  0  0  0  0  0
   37.2050   28.5440   34.6160 H   0  0  0  0  0  0  0  0  0  0  0  0
   37.2100   25.5120   34.1560 H   0  0  0  0  0  0  0  0  0  0  0  0
   36.2350   26.7550   33.3510 H   0  0  0  0  0  0  0  0  0  0  0  0
  1  2  1  0  0  0  0
  1 19  1  0  0  0  0
  2  7  1  0  0  0  0
  3  9  1  0  0  0  0
  3  2  2  0  0  0  0
  4  3  1  0  0  0  0
  5  4  2  0  0  0  0
  5  6  1  0  0  0  0
  6  1  2  0  0  0  0
  8  5  1  0  0  0  0
  9 16  1  0  0  0  0
  9 10  1  0  0  0  0
 10 11  2  0  0  0  0
 11 13  1  0  0  0  0
 11 12  1  0  0  0  0
 13 14  2  0  0  0  0
 15 18  1  0  0  0  0
 15 13  1  0  0  0  0
 16 15  1  0  0  0  0
 17 16  2  0  0  0  0
 19 20  1  0  0  0  0
 19 24  1  0  0  0  0
 20 21  1  0  0  0  0
 21 29  1  0  0  0  0
 21 28  1  0  0  0  0
 21 22  1  0  0  0  0
 22 31  1  0  0  0  0
 22 30  1  0  0  0  0
 23 32  1  0  0  0  0
 23 22  1  0  0  0  0
 24 34  1  0  0  0  0
 24 23  1  0  0  0  0
 25 19  1  0  0  0  0
 26 20  1  0  0  0  0
 27 20  1  0  0  0  0
 33 23  1  0  0  0  0
 35 24  1  0  0  0  0
M  END
>  <minimizedAffinity>
-5.4163456

$$$$

 OpenBabel03272506193D

 35 37  0  0  0  0  0  0  0  0999 V2000
   37.9060   26.5640   33.4970 C   0  0  0  0  0  0  0  0  0  0  0  0
   38.6020   25.4330   33.9660 C   0  0  0  0  0  0  0  0  0  0  0  0
   38.8730   25.3980   35.3480 C   0  0  0  0  0  0  0  0  0  0  0  0
   38.4560   26.4390   36.1500 N   0  0  0  0  0  0  0  0  0  0  0  0
   37.7830   27.5090   35.6330 C   0  0  0  0  0  0  0  0  0  0  0  0
   37.5190   27.5610   34.3290 N   0  0  0  0  0  0  0  0  0  0  0  0
   38.9450   24.6060   33.4030 H   0  0  0  0  0  0  0  0  0  0  0  0
   37.4560   28.3220   36.2480 H   0  0  0  0  0  0  0  0  0  0  0  0
   39.5700   24.3010   35.9200 N   0  0  0  0  0  0  0  0  0  0  0  0
   40.8240   23.9590   35.5310 C   0  0  0  0  0  3  0  0  0  0  0  0
   41.4590   22.8850   36.1180 C   0  0  0  0  0  0  0  0  0  0  0  0
   42.4520   22.6300   35.7960 H   0  0  0  0  0  0  0  0  0  0  0  0
   40.8040   22.1810   37.0870 C   0  0  0  0  0  0  0  0  0  0  0  0
   41.3840   21.1950   37.6280 O   0  0  0  0  0  0  0  0  0  0  0  0
   39.5540   22.5220   37.4750 N   0  0  0  0  0  0  0  0  0  0  0  0
   38.9740   23.5760   36.8760 C   0  0  0  0  0  0  0  0  0  0  0  0
   37.7980   23.8130   37.3130 O   0  0  0  0  0  0  0  0  0  0  0  0
   39.1270   21.9410   38.2140 H   0  0  0  0  0  0  0  0  0  0  0  0
   37.6160   26.5860   32.0290 C   0  0  0  0  0  0  0  0  0  0  0  0
   38.9160   26.5010   31.2550 C   0  0  0  0  0  0  0  0  0  0  0  0
   39.2470   27.7750   30.5380 C   0  0  0  0  0  0  0  0  0  0  0  0
   38.1410   28.2610   29.6460 C   0  0  0  0  0  0  0  0  0  0  0  0
   36.7800   28.1450   30.2650 C   0  0  0  0  0  0  0  0  0  0  0  0
   36.8380   27.8260   31.7450 C   0  0  0  0  0  0  0  0  0  0  0  0
   36.9860   25.6910   31.8470 H   0  0  0  0  0  0  0  0  0  0  0  0
   38.8410   25.6460   30.5650 H   0  0  0  0  0  0  0  0  0  0  0  0
   39.7660   26.2760   31.9370 H   0  0  0  0  0  0  0  0  0  0  0  0
   40.1240   27.5470   29.8810 H   0  0  0  0  0  0  0  0  0  0  0  0
   39.5770   28.5440   31.2600 H   0  0  0  0  0  0  0  0  0  0  0  0
   38.3350   29.3610   29.4800 H   0  0  0  0  0  0  0  0  0  0  0  0
   38.1900   27.8250   28.6160 H   0  0  0  0  0  0  0  0  0  0  0  0
   36.1190   29.0020   30.0970 H   0  0  0  0  0  0  0  0  0  0  0  0
   36.2550   27.2730   29.7930 H   0  0  0  0  0  0  0  0  0  0  0  0
   37.2740   28.7030   32.3070 H   0  0  0  0  0  0  0  0  0  0  0  0
   35.8100   27.7220   32.1050 H   0  0  0  0  0  0  0  0  0  0  0  0
  1  2  2  0  0  0  0
  1  6  1  0  0  0  0
  2  3  1  0  0  0  0
  3  9  1  0  0  0  0
  3  4  2  0  0  0  0
  5  4  1  0  0  0  0
  5  8  1  0  0  0  0
  6  5  2  0  0  0  0
  7  2  1  0  0  0  0
  9 16  1  0  0  0  0
 10  9  1  0  0  0  0
 10 11  2  0  0  0  0
 11 13  1  0  0  0  0
 12 11  1  0  0  0  0
 13 15  1  0  0  0  0
 13 14  2  0  0  0  0
 15 18  1  0  0  0  0
 16 17  2  0  0  0  0
 16 15  1  0  0  0  0
 19  1  1  0  0  0  0
 20 27  1  0  0  0  0
 20 19  1  0  0  0  0
 21 20  1  0  0  0  0
 21 29  1  0  0  0  0
 22 23  1  0  0  0  0
 22 21  1  0  0  0  0
 23 24  1  0  0  0  0
 24 19  1  0  0  0  0
 24 35  1  0  0  0  0
 24 34  1  0  0  0  0
 25 19  1  0  0  0  0
 26 20  1  0  0  0  0
 28 21  1  0  0  0  0
 30 22  1  0  0  0  0
 31 22  1  0  0  0  0
 32 23  1  0  0  0  0
 33 23  1  0  0  0  0
M  END
>  <minimizedAffinity>
-5.38874531

$$$$
