
 OpenBabel03272507333D

 37 40  0  0  1  0  0  0  0  0999 V2000
   33.0740   27.6540   48.2900 C   0  0  0  0  0  0  0  0  0  0  0  0
   31.8520   27.6090   48.6540 O   0  0  0  0  0  0  0  0  0  0  0  0
   35.9080   29.1950   49.8310 C   0  0  0  0  0  0  0  0  0  0  0  0
   34.9250   29.6620   50.6790 C   0  0  0  0  0  0  0  0  0  0  0  0
   33.7010   29.1530   50.2240 C   0  0  0  0  0  0  0  0  0  0  0  0
   34.0220   28.4000   49.1170 C   0  0  0  0  0  0  0  0  0  0  0  0
   35.3230   28.4530   48.9240 O   0  0  0  0  0  0  0  0  0  0  0  0
   35.0230   30.3110   51.5570 H   0  0  0  0  0  0  0  0  0  0  0  0
   32.7400   29.3440   50.6850 H   0  0  0  0  0  0  0  0  0  0  0  0
   37.3100   29.5310   50.0100 C   0  0  0  0  0  0  0  0  0  0  0  0
   37.9790   28.9090   50.8480 O   0  0  0  0  0  0  0  0  0  0  0  0
   37.8400   30.5850   49.1850 C   0  0  0  0  0  0  0  0  0  0  0  0
   38.1770   31.7740   49.8150 C   0  0  0  0  0  0  0  0  0  0  0  0
   38.6920   32.8150   49.0400 C   0  0  0  0  0  0  0  0  0  0  0  0
   38.8340   32.6000   47.6860 N   0  0  0  0  0  0  0  0  0  0  0  0
   38.4990   31.4440   47.1150 C   0  0  0  0  0  0  0  0  0  0  0  0
   38.0040   30.4350   47.8500 N   0  0  0  0  0  0  0  0  0  0  0  0
   38.0540   31.9100   50.8760 H   0  0  0  0  0  0  0  0  0  0  0  0
   38.9550   33.7410   49.5300 H   0  0  0  0  0  0  0  0  0  0  0  0
   38.6420   31.3580   46.0490 H   0  0  0  0  0  0  0  0  0  0  0  0
   33.5320   26.9530   47.0440 C   0  0  1  0  0  0  0  0  0  0  0  0
   33.7430   25.4160   47.3440 C   0  0  0  0  0  0  0  0  0  0  0  0
   32.7060   25.9230   46.4180 C   0  0  2  0  0  0  0  0  0  0  0  0
   34.4710   27.3570   46.6120 H   0  0  0  0  0  0  0  0  0  0  0  0
   33.4840   25.0630   48.3390 H   0  0  0  0  0  0  0  0  0  0  0  0
   34.6360   24.9570   46.8950 H   0  0  0  0  0  0  0  0  0  0  0  0
   31.6650   25.8480   46.8540 H   0  0  0  0  0  0  0  0  0  0  0  0
   32.7610   25.7860   44.9980 N   0  0  0  0  0  0  0  0  0  0  0  0
   33.7300   25.0310   44.3970 C   0  0  0  0  0  3  0  0  0  0  0  0
   33.7930   24.8920   43.0260 C   0  0  0  0  0  0  0  0  0  0  0  0
   34.6110   24.2660   42.6810 H   0  0  0  0  0  0  0  0  0  0  0  0
   32.8790   25.5090   42.1960 C   0  0  0  0  0  0  0  0  0  0  0  0
   33.0610   25.2920   40.9710 O   0  0  0  0  0  0  0  0  0  0  0  0
   31.9280   26.2490   42.7960 N   0  0  0  0  0  0  0  0  0  0  0  0
   31.9060   26.3570   44.1360 C   0  0  0  0  0  0  0  0  0  0  0  0
   30.9770   27.0700   44.5660 O   0  0  0  0  0  0  0  0  0  0  0  0
   31.2550   26.7010   42.1480 H   0  0  0  0  0  0  0  0  0  0  0  0
  1  2  2  0  0  0  0
  1  6  1  0  0  0  0
  3 10  1  0  0  0  0
  3  4  2  0  0  0  0
  4  8  1  0  0  0  0
  5  4  1  0  0  0  0
  5  9  1  0  0  0  0
  6  5  2  0  0  0  0
  7  6  1  0  0  0  0
  7  3  1  0  0  0  0
 10 11  2  0  0  0  0
 12 13  1  0  0  0  0
 12 10  1  0  0  0  0
 13 18  1  0  0  0  0
 14 19  1  0  0  0  0
 14 13  2  0  0  0  0
 15 14  1  0  0  0  0
 16 15  2  0  0  0  0
 16 17  1  0  0  0  0
 17 12  2  0  0  0  0
 20 16  1  0  0  0  0
 21 24  1  6  0  0  0
 21 22  1  0  0  0  0
 21  1  1  0  0  0  0
 22 25  1  0  0  0  0
 23 27  1  1  0  0  0
 23 21  1  0  0  0  0
 23 22  1  0  0  0  0
 26 22  1  0  0  0  0
 28 23  1  0  0  0  0
 29 28  1  0  0  0  0
 30 29  2  0  0  0  0
 31 30  1  0  0  0  0
 32 34  1  0  0  0  0
 32 30  1  0  0  0  0
 33 32  2  0  0  0  0
 34 35  1  0  0  0  0
 35 36  2  0  0  0  0
 35 28  1  0  0  0  0
 37 34  1  0  0  0  0
M  END
>  <minimizedAffinity>
-4.87254477

>  <minimizedRMSD>
0.385391086

$$$$
