
 OpenBabel03272509043D

 34 36  0  0  0  0  0  0  0  0999 V2000
   37.1370   31.9880   50.2480 C   0  0  0  0  0  0  0  0  0  0  0  0
   37.7410   32.4800   49.0610 C   0  0  0  0  0  0  0  0  0  0  0  0
   37.6100   31.6920   47.8750 C   0  0  0  0  0  0  0  0  0  0  0  0
   36.9150   30.5280   47.9770 N   0  0  0  0  0  0  0  0  0  0  0  0
   36.3670   30.1120   49.1190 C   0  0  0  0  0  0  0  0  0  0  0  0
   36.4810   30.8420   50.2440 N   0  0  0  0  0  0  0  0  0  0  0  0
   37.2900   32.6440   51.0710 H   0  0  0  0  0  0  0  0  0  0  0  0
   38.2930   33.4050   48.9780 H   0  0  0  0  0  0  0  0  0  0  0  0
   38.1990   32.1470   46.6610 N   0  0  0  0  0  0  0  0  0  0  0  0
   37.5210   31.7080   45.5750 C   0  0  0  0  0  3  0  0  0  0  0  0
   37.9890   32.0790   44.3110 C   0  0  0  0  0  0  0  0  0  0  0  0
   37.5220   31.7840   43.3840 H   0  0  0  0  0  0  0  0  0  0  0  0
   39.1060   32.8630   44.2220 C   0  0  0  0  0  0  0  0  0  0  0  0
   39.6010   33.2470   43.1460 O   0  0  0  0  0  0  0  0  0  0  0  0
   39.7550   33.2810   45.3320 N   0  0  0  0  0  0  0  0  0  0  0  0
   39.2960   32.9190   46.5460 C   0  0  0  0  0  0  0  0  0  0  0  0
   39.7580   33.2030   47.6810 O   0  0  0  0  0  0  0  0  0  0  0  0
   40.6040   33.8750   45.3580 H   0  0  0  0  0  0  0  0  0  0  0  0
   35.6610   28.8540   49.0640 C   0  0  0  0  0  3  0  0  0  0  0  0
   34.4120   28.8490   48.7430 C   0  0  0  0  0  3  0  0  0  0  0  0
   33.5070   27.6960   48.6260 C   0  0  0  0  0  0  0  0  0  0  0  0
   32.4590   28.0880   48.5680 H   0  0  0  0  0  0  0  0  0  0  0  0
   33.5170   27.0230   49.5130 H   0  0  0  0  0  0  0  0  0  0  0  0
   33.7450   26.9100   47.3750 C   0  0  0  0  0  0  0  0  0  0  0  0
   33.9360   25.5530   47.2960 C   0  0  0  0  0  0  0  0  0  0  0  0
   34.1470   24.9340   46.0820 C   0  0  0  0  0  0  0  0  0  0  0  0
   34.1740   25.6670   44.8890 C   0  0  0  0  0  0  0  0  0  0  0  0
   33.9850   27.0170   44.9460 C   0  0  0  0  0  0  0  0  0  0  0  0
   33.7750   27.6220   46.1730 C   0  0  0  0  0  0  0  0  0  0  0  0
   33.9090   25.0120   48.2430 H   0  0  0  0  0  0  0  0  0  0  0  0
   34.2900   23.8570   46.1010 H   0  0  0  0  0  0  0  0  0  0  0  0
   34.3400   25.1300   43.9840 H   0  0  0  0  0  0  0  0  0  0  0  0
   33.9990   27.6190   44.0440 H   0  0  0  0  0  0  0  0  0  0  0  0
   33.6310   28.6830   46.1790 H   0  0  0  0  0  0  0  0  0  0  0  0
  1  7  1  0  0  0  0
  2  1  2  0  0  0  0
  3  4  2  0  0  0  0
  3  2  1  0  0  0  0
  4  5  1  0  0  0  0
  5  6  2  0  0  0  0
  6  1  1  0  0  0  0
  8  2  1  0  0  0  0
  9  3  1  0  0  0  0
 10  9  1  0  0  0  0
 11 10  2  0  0  0  0
 12 11  1  0  0  0  0
 13 11  1  0  0  0  0
 13 15  1  0  0  0  0
 14 13  2  0  0  0  0
 15 18  1  0  0  0  0
 15 16  1  0  0  0  0
 16  9  1  0  0  0  0
 16 17  2  0  0  0  0
 19  5  1  0  0  0  0
 20 19  2  0  0  0  0
 21 20  1  0  0  0  0
 21 23  1  0  0  0  0
 22 21  1  0  0  0  0
 24 21  1  0  0  0  0
 25 24  1  0  0  0  0
 25 30  1  0  0  0  0
 26 31  1  0  0  0  0
 26 25  2  0  0  0  0
 27 28  2  0  0  0  0
 27 26  1  0  0  0  0
 28 29  1  0  0  0  0
 29 34  1  0  0  0  0
 29 24  2  0  0  0  0
 32 27  1  0  0  0  0
 33 28  1  0  0  0  0
M  END
>  <minimizedAffinity>
-6.09510326

>  <minimizedRMSD>
1.64678752

$$$$
