
 OpenBabel03272508473D

 41 45  0  0  0  0  0  0  0  0999 V2000
   35.5380   29.5480   49.6460 C   0  0  0  0  0  0  0  0  0  0  0  0
   36.5880   29.1430   50.4430 C   0  0  0  0  0  0  0  0  0  0  0  0
   37.7040   29.6950   49.8240 C   0  0  0  0  0  0  0  0  0  0  0  0
   37.3000   30.3880   48.7140 C   0  0  0  0  0  0  0  0  0  0  0  0
   35.9810   30.2820   48.6310 O   0  0  0  0  0  0  0  0  0  0  0  0
   36.6000   28.5440   51.3390 H   0  0  0  0  0  0  0  0  0  0  0  0
   38.7310   29.6280   50.1110 H   0  0  0  0  0  0  0  0  0  0  0  0
   38.6540   32.3500   48.1390 C   0  0  0  0  0  0  0  0  0  0  0  0
   38.1430   31.1200   47.7740 C   0  0  0  0  0  0  0  0  0  0  0  0
   38.4090   30.5530   46.5290 C   0  0  0  0  0  0  0  0  0  0  0  0
   39.2050   31.2290   45.6200 C   0  0  0  0  0  0  0  0  0  0  0  0
   39.6420   30.9640   44.3690 N   0  0  0  0  0  0  0  0  0  0  0  0
   40.3920   32.0020   43.9890 N   0  0  0  0  0  0  0  0  0  0  0  0
   40.4430   32.9160   44.9660 C   0  0  0  0  0  0  0  0  0  0  0  0
   39.6920   32.4530   46.0320 C   0  0  0  0  0  0  0  0  0  0  0  0
   39.4630   33.0560   47.2390 C   0  0  0  0  0  0  0  0  0  0  0  0
   38.4550   32.7980   49.1000 H   0  0  0  0  0  0  0  0  0  0  0  0
   38.0030   29.5780   46.2410 H   0  0  0  0  0  0  0  0  0  0  0  0
   39.3900   30.0750   43.8520 H   0  0  0  0  0  0  0  0  0  0  0  0
   41.0060   33.8330   44.8490 H   0  0  0  0  0  0  0  0  0  0  0  0
   39.8780   34.0210   47.4950 H   0  0  0  0  0  0  0  0  0  0  0  0
   34.1340   29.2120   49.8910 C   0  0  0  0  0  0  0  0  0  0  0  0
   33.5740   29.7240   50.8800 O   0  0  0  0  0  0  0  0  0  0  0  0
   31.4460   27.2530   48.3950 C   0  0  0  0  0  0  0  0  0  0  0  0
   32.0680   26.6110   47.3360 C   0  0  0  0  0  0  0  0  0  0  0  0
   33.4080   26.8400   47.1210 C   0  0  0  0  0  0  0  0  0  0  0  0
   34.0600   27.6840   47.9550 N   0  0  0  0  0  0  0  0  0  0  0  0
   33.4400   28.3010   48.9850 C   0  0  0  0  0  0  0  0  0  0  0  0
   32.1330   28.0800   49.1980 N   0  0  0  0  0  0  0  0  0  0  0  0
   30.3860   27.0690   48.5620 H   0  0  0  0  0  0  0  0  0  0  0  0
   31.4790   25.9450   46.7040 H   0  0  0  0  0  0  0  0  0  0  0  0
   34.0530   26.1840   46.0330 N   0  0  0  0  0  0  0  0  0  0  0  0
   34.2310   26.8040   44.8450 C   0  0  0  0  0  3  0  0  0  0  0  0
   34.8650   26.1590   43.7780 C   0  0  0  0  0  0  0  0  0  0  0  0
   35.0060   26.6560   42.8260 H   0  0  0  0  0  0  0  0  0  0  0  0
   35.2910   24.8620   44.0180 C   0  0  0  0  0  0  0  0  0  0  0  0
   35.8760   24.2320   43.0730 O   0  0  0  0  0  0  0  0  0  0  0  0
   35.0960   24.2660   45.2300 N   0  0  0  0  0  0  0  0  0  0  0  0
   34.4810   24.9240   46.2270 C   0  0  0  0  0  0  0  0  0  0  0  0
   34.3600   24.2720   47.2960 O   0  0  0  0  0  0  0  0  0  0  0  0
   35.4510   23.2700   45.3360 H   0  0  0  0  0  0  0  0  0  0  0  0
  1 22  1  0  0  0  0
  1  2  2  0  0  0  0
  2  6  1  0  0  0  0
  3  7  1  0  0  0  0
  3  2  1  0  0  0  0
  4  3  2  0  0  0  0
  5  4  1  0  0  0  0
  5  1  1  0  0  0  0
  8 17  1  0  0  0  0
  9  8  1  0  0  0  0
  9  4  1  0  0  0  0
 10  9  2  0  0  0  0
 11 15  2  0  0  0  0
 11 10  1  0  0  0  0
 12 11  1  0  0  0  0
 13 12  1  0  0  0  0
 13 14  2  0  0  0  0
 14 15  1  0  0  0  0
 15 16  1  0  0  0  0
 16 21  1  0  0  0  0
 16  8  2  0  0  0  0
 18 10  1  0  0  0  0
 19 12  1  0  0  0  0
 20 14  1  0  0  0  0
 22 23  2  0  0  0  0
 24 30  1  0  0  0  0
 24 29  1  0  0  0  0
 25 24  2  0  0  0  0
 26 25  1  0  0  0  0
 26 27  2  0  0  0  0
 27 28  1  0  0  0  0
 28 29  2  0  0  0  0
 28 22  1  0  0  0  0
 31 25  1  0  0  0  0
 32 39  1  0  0  0  0
 32 26  1  0  0  0  0
 33 32  1  0  0  0  0
 34 36  1  0  0  0  0
 34 33  2  0  0  0  0
 35 34  1  0  0  0  0
 36 38  1  0  0  0  0
 37 36  2  0  0  0  0
 38 41  1  0  0  0  0
 38 39  1  0  0  0  0
 39 40  2  0  0  0  0
M  END
>  <minimizedAffinity>
-6.64064169

>  <minimizedRMSD>
0.860474527

$$$$
