
 OpenBabel03272509043D

 34 36  0  0  0  0  0  0  0  0999 V2000
   37.5200   30.2740   51.3320 C   0  0  0  0  0  0  0  0  0  0  0  0
   38.1010   30.9400   50.2220 C   0  0  0  0  0  0  0  0  0  0  0  0
   37.4480   30.8140   48.9560 C   0  0  0  0  0  0  0  0  0  0  0  0
   36.3160   30.0620   48.9150 N   0  0  0  0  0  0  0  0  0  0  0  0
   35.8110   29.4570   49.9900 C   0  0  0  0  0  0  0  0  0  0  0  0
   36.4140   29.5660   51.1880 N   0  0  0  0  0  0  0  0  0  0  0  0
   38.0780   30.4290   52.2240 H   0  0  0  0  0  0  0  0  0  0  0  0
   39.0010   31.5380   50.2530 H   0  0  0  0  0  0  0  0  0  0  0  0
   37.9960   31.4650   47.8150 N   0  0  0  0  0  0  0  0  0  0  0  0
   38.8990   32.4120   48.1580 C   0  0  0  0  0  3  0  0  0  0  0  0
   39.5190   33.1350   47.1330 C   0  0  0  0  0  0  0  0  0  0  0  0
   40.2520   33.9100   47.2990 H   0  0  0  0  0  0  0  0  0  0  0  0
   39.1910   32.8580   45.8350 C   0  0  0  0  0  0  0  0  0  0  0  0
   39.6860   33.4420   44.8530 O   0  0  0  0  0  0  0  0  0  0  0  0
   38.2830   31.9010   45.5330 N   0  0  0  0  0  0  0  0  0  0  0  0
   37.6900   31.2110   46.5270 C   0  0  0  0  0  0  0  0  0  0  0  0
   36.8320   30.2960   46.4490 O   0  0  0  0  0  0  0  0  0  0  0  0
   37.9750   31.6270   44.5830 H   0  0  0  0  0  0  0  0  0  0  0  0
   34.6030   28.6950   49.7820 C   0  0  0  0  0  3  0  0  0  0  0  0
   34.4050   28.1330   48.6380 C   0  0  0  0  0  3  0  0  0  0  0  0
   33.2580   27.3190   48.2110 C   0  0  0  0  0  0  0  0  0  0  0  0
   32.5020   28.0070   47.7530 H   0  0  0  0  0  0  0  0  0  0  0  0
   32.7240   26.8170   49.0490 H   0  0  0  0  0  0  0  0  0  0  0  0
   33.6270   26.3200   47.1590 C   0  0  0  0  0  0  0  0  0  0  0  0
   33.8080   24.9730   47.3490 C   0  0  0  0  0  0  0  0  0  0  0  0
   34.1490   24.1460   46.3000 C   0  0  0  0  0  0  0  0  0  0  0  0
   34.3210   24.6510   45.0060 C   0  0  0  0  0  0  0  0  0  0  0  0
   34.1460   25.9880   44.7950 C   0  0  0  0  0  0  0  0  0  0  0  0
   33.8040   26.8030   45.8600 C   0  0  0  0  0  0  0  0  0  0  0  0
   33.6660   24.6120   48.3700 H   0  0  0  0  0  0  0  0  0  0  0  0
   34.2740   23.0910   46.5290 H   0  0  0  0  0  0  0  0  0  0  0  0
   34.5840   23.9600   44.2380 H   0  0  0  0  0  0  0  0  0  0  0  0
   34.2710   26.4160   43.8070 H   0  0  0  0  0  0  0  0  0  0  0  0
   33.6750   27.8460   45.6570 H   0  0  0  0  0  0  0  0  0  0  0  0
  1  7  1  0  0  0  0
  2  8  1  0  0  0  0
  2  1  2  0  0  0  0
  3  2  1  0  0  0  0
  4  3  2  0  0  0  0
  4  5  1  0  0  0  0
  5  6  2  0  0  0  0
  6  1  1  0  0  0  0
  9 10  1  0  0  0  0
  9  3  1  0  0  0  0
 11 12  1  0  0  0  0
 11 10  2  0  0  0  0
 13 11  1  0  0  0  0
 14 13  2  0  0  0  0
 15 13  1  0  0  0  0
 15 16  1  0  0  0  0
 16  9  1  0  0  0  0
 17 16  2  0  0  0  0
 18 15  1  0  0  0  0
 19  5  1  0  0  0  0
 20 19  2  0  0  0  0
 21 20  1  0  0  0  0
 21 23  1  0  0  0  0
 22 21  1  0  0  0  0
 24 25  1  0  0  0  0
 24 21  1  0  0  0  0
 25 30  1  0  0  0  0
 26 31  1  0  0  0  0
 26 25  2  0  0  0  0
 27 26  1  0  0  0  0
 28 27  2  0  0  0  0
 28 29  1  0  0  0  0
 29 24  2  0  0  0  0
 32 27  1  0  0  0  0
 33 28  1  0  0  0  0
 34 29  1  0  0  0  0
M  END
>  <minimizedAffinity>
-6.46767902

>  <minimizedRMSD>
0.703354836

$$$$
