
 OpenBabel03272507333D

 37 40  0  0  1  0  0  0  0  0999 V2000
   33.1550   27.4570   48.1760 C   0  0  0  0  0  0  0  0  0  0  0  0
   31.9120   27.4100   48.4600 O   0  0  0  0  0  0  0  0  0  0  0  0
   35.8540   29.1430   49.8050 C   0  0  0  0  0  0  0  0  0  0  0  0
   34.8110   29.6290   50.5650 C   0  0  0  0  0  0  0  0  0  0  0  0
   33.6290   29.0680   50.0640 C   0  0  0  0  0  0  0  0  0  0  0  0
   34.0340   28.2670   49.0190 C   0  0  0  0  0  0  0  0  0  0  0  0
   35.3420   28.3410   48.9040 O   0  0  0  0  0  0  0  0  0  0  0  0
   34.8400   30.3240   51.4120 H   0  0  0  0  0  0  0  0  0  0  0  0
   32.6370   29.2590   50.4530 H   0  0  0  0  0  0  0  0  0  0  0  0
   37.2350   29.5210   50.0510 C   0  0  0  0  0  0  0  0  0  0  0  0
   37.8710   28.9420   50.9440 O   0  0  0  0  0  0  0  0  0  0  0  0
   37.7840   30.5640   49.2250 C   0  0  0  0  0  0  0  0  0  0  0  0
   38.1220   31.7560   49.8500 C   0  0  0  0  0  0  0  0  0  0  0  0
   38.6550   32.7860   49.0730 C   0  0  0  0  0  0  0  0  0  0  0  0
   38.8140   32.5590   47.7230 N   0  0  0  0  0  0  0  0  0  0  0  0
   38.4790   31.4010   47.1580 C   0  0  0  0  0  0  0  0  0  0  0  0
   37.9660   30.4020   47.8940 N   0  0  0  0  0  0  0  0  0  0  0  0
   37.9860   31.9020   50.9070 H   0  0  0  0  0  0  0  0  0  0  0  0
   38.9190   33.7140   49.5590 H   0  0  0  0  0  0  0  0  0  0  0  0
   38.6350   31.3040   46.0940 H   0  0  0  0  0  0  0  0  0  0  0  0
   33.7070   26.6940   47.0070 C   0  0  1  0  0  0  0  0  0  0  0  0
   33.7650   25.1540   47.3550 C   0  0  0  0  0  0  0  0  0  0  0  0
   32.8880   25.7110   46.3010 C   0  0  2  0  0  0  0  0  0  0  0  0
   34.7180   27.0180   46.6870 H   0  0  0  0  0  0  0  0  0  0  0  0
   33.3620   24.8450   48.3160 H   0  0  0  0  0  0  0  0  0  0  0  0
   34.6680   24.6210   47.0260 H   0  0  0  0  0  0  0  0  0  0  0  0
   31.7990   25.7220   46.6070 H   0  0  0  0  0  0  0  0  0  0  0  0
   33.1030   25.5350   44.9010 N   0  0  0  0  0  0  0  0  0  0  0  0
   34.2320   26.0100   44.2930 C   0  0  0  0  0  3  0  0  0  0  0  0
   34.4490   25.8440   42.9410 C   0  0  0  0  0  0  0  0  0  0  0  0
   35.3860   26.2700   42.5870 H   0  0  0  0  0  0  0  0  0  0  0  0
   33.5370   25.1930   42.1370 C   0  0  0  0  0  0  0  0  0  0  0  0
   33.8700   25.1190   40.9260 O   0  0  0  0  0  0  0  0  0  0  0  0
   32.4290   24.7280   42.7440 N   0  0  0  0  0  0  0  0  0  0  0  0
   32.2580   24.9120   44.0650 C   0  0  0  0  0  0  0  0  0  0  0  0
   31.1920   24.4360   44.5030 O   0  0  0  0  0  0  0  0  0  0  0  0
   31.7600   24.2430   42.1170 H   0  0  0  0  0  0  0  0  0  0  0  0
  1  2  2  0  0  0  0
  1  6  1  0  0  0  0
  3 10  1  0  0  0  0
  3  4  2  0  0  0  0
  4  8  1  0  0  0  0
  5  9  1  0  0  0  0
  5  4  1  0  0  0  0
  6  5  2  0  0  0  0
  7  6  1  0  0  0  0
  7  3  1  0  0  0  0
 10 11  2  0  0  0  0
 12 13  1  0  0  0  0
 12 10  1  0  0  0  0
 13 18  1  0  0  0  0
 14 19  1  0  0  0  0
 14 13  2  0  0  0  0
 15 14  1  0  0  0  0
 16 15  2  0  0  0  0
 16 17  1  0  0  0  0
 17 12  2  0  0  0  0
 20 16  1  0  0  0  0
 21 24  1  6  0  0  0
 21 22  1  0  0  0  0
 21  1  1  0  0  0  0
 22 25  1  0  0  0  0
 23 27  1  1  0  0  0
 23 21  1  0  0  0  0
 23 22  1  0  0  0  0
 26 22  1  0  0  0  0
 28 23  1  0  0  0  0
 29 28  1  0  0  0  0
 30 29  2  0  0  0  0
 31 30  1  0  0  0  0
 32 34  1  0  0  0  0
 32 30  1  0  0  0  0
 33 32  2  0  0  0  0
 34 35  1  0  0  0  0
 35 36  2  0  0  0  0
 35 28  1  0  0  0  0
 37 34  1  0  0  0  0
M  END
>  <minimizedAffinity>
-4.90550375

>  <minimizedRMSD>
0.462471038

$$$$
