REMARK  Name = 
REMARK  7 active torsions:
REMARK  status: ('A' for Active; 'I' for Inactive)
REMARK    1  A    between atoms: C_3  and  C_12
REMARK    2  A    between atoms: C_7  and  C_14
REMARK    3  A    between atoms: C_14  and  C_15
REMARK    4  A    between atoms: C_15  and  N_16
REMARK    5  A    between atoms: N_16  and  C_17
REMARK    6  A    between atoms: C_17  and  C_18
REMARK    7  A    between atoms: C_18  and  N_34
REMARK                            x       y       z     vdW  Elec       q    Type
REMARK                         _______ _______ _______ _____ _____    ______ ____
ROOT
ATOM      1  C   UNL     1      35.209  30.308  49.294  0.00  0.00    +0.000 C 
ATOM      2  H   UNL     1      34.938  31.337  49.660  0.00  0.00    +0.000 HD
ATOM      3  H   UNL     1      36.082  30.006  49.936  0.00  0.00    +0.000 HD
ENDROOT
BRANCH   1  10
ATOM      4 BR   UNL     1      38.123  31.487  48.936  0.00  0.00    +0.000 Br
ATOM      5  C   UNL     1      36.928  30.887  47.554  0.00  0.00    +0.000 A 
ATOM      6  C   UNL     1      37.308  30.944  46.238  0.00  0.00    +0.000 A 
ATOM      7  C   UNL     1      36.414  30.514  45.294  0.00  0.00    +0.000 A 
ATOM      8  C   UNL     1      35.156  30.029  45.623  0.00  0.00    +0.000 A 
ATOM      9  C   UNL     1      34.807  29.987  46.980  0.00  0.00    +0.000 A 
ATOM     10  C   UNL     1      35.698  30.416  47.924  0.00  0.00    +0.000 A 
ATOM     11  H   UNL     1      36.768  30.580  44.252  0.00  0.00    +0.000 HD
ATOM     12  H   UNL     1      34.573  29.731  44.767  0.00  0.00    +0.000 HD
ATOM     13  H   UNL     1      33.817  29.605  47.020  0.00  0.00    +0.000 HD
BRANCH   6  18
ATOM     14  C   UNL     1      39.883  33.269  45.108  0.00  0.00    +0.000 A 
ATOM     15  C   UNL     1      41.068  32.481  45.092  0.00  0.00    +0.000 A 
ATOM     16  C   UNL     1      40.946  31.160  45.474  0.00  0.00    +0.000 A 
ATOM     17  N   UNL     1      39.719  30.658  45.848  0.00  0.00    +0.000 NA
ATOM     18  C   UNL     1      38.628  31.452  45.844  0.00  0.00    +0.000 A 
ATOM     19  N   UNL     1      38.724  32.738  45.477  0.00  0.00    +0.000 NA
ATOM     20  H   UNL     1      40.005  34.290  44.807  0.00  0.00    +0.000 HD
ATOM     21  H   UNL     1      42.024  32.902  44.792  0.00  0.00    +0.000 HD
ATOM     22  H   UNL     1      41.824  30.526  45.475  0.00  0.00    +0.000 HD
ENDBRANCH   6  18
ENDBRANCH   1  10
BRANCH   1  23
ATOM     23  C   UNL     1      34.109  29.343  49.550  0.00  0.00    +0.000 C 
ATOM     24  H   UNL     1      33.167  29.622  49.118  0.00  0.00    +0.000 HD
ATOM     25  H   UNL     1      33.920  29.456  50.675  0.00  0.00    +0.000 HD
BRANCH  23  26
ATOM     26  N   UNL     1      34.607  28.023  49.417  0.00  0.00    +0.000 NA
ATOM     27  H   UNL     1      34.938  27.566  50.285  0.00  0.00    +0.000 HD
BRANCH  26  28
ATOM     28  C   UNL     1      33.916  27.145  48.549  0.00  0.00    +0.000 C 
ATOM     29  H   UNL     1      34.357  27.166  47.529  0.00  0.00    +0.000 HD
ATOM     30  H   UNL     1      34.056  26.113  48.914  0.00  0.00    +0.000 HD
BRANCH  28  31
ATOM     31  C   UNL     1      32.480  27.559  48.492  0.00  0.00    +0.000 C 
ATOM     32  H   UNL     1      31.939  27.372  49.446  0.00  0.00    +0.000 HD
ATOM     33  H   UNL     1      32.206  28.469  47.993  0.00  0.00    +0.000 HD
BRANCH  31  34
ATOM     34  N   UNL     1      31.868  26.529  47.590  0.00  0.00    +0.000 N 
ATOM     35  C   UNL     1      31.913  25.209  47.936  0.00  0.00    +0.000 A 
ATOM     36  C   UNL     1      31.355  24.248  47.119  0.00  0.00    +0.000 A 
ATOM     37  H   UNL     1      31.388  23.209  47.386  0.00  0.00    +0.000 HD
ATOM     38  C   UNL     1      30.742  24.617  45.941  0.00  0.00    +0.000 A 
ATOM     39  O   UNL     1      30.212  23.803  45.146  0.00  0.00    +0.000 OA
ATOM     40  N   UNL     1      30.722  25.928  45.643  0.00  0.00    +0.000 N 
ATOM     41  C   UNL     1      31.259  26.884  46.421  0.00  0.00    +0.000 A 
ATOM     42  O   UNL     1      31.263  28.106  46.186  0.00  0.00    +0.000 OA
ATOM     43  H   UNL     1      30.285  26.331  44.774  0.00  0.00    +0.000 HD
ENDBRANCH  31  34
ENDBRANCH  28  31
ENDBRANCH  26  28
ENDBRANCH  23  26
ENDBRANCH   1  23
TORSDOF 7
