
 OpenBabel03272508053D

 36 39  0  0  0  0  0  0  0  0999 V2000
   38.8450   30.8980   45.8350 C   0  0  0  0  0  0  0  0  0  0  0  0
   40.0280   31.5730   46.1040 C   0  0  0  0  0  0  0  0  0  0  0  0
   40.8700   31.5270   45.0050 C   0  0  0  0  0  0  0  0  0  0  0  0
   40.1520   30.8090   44.0940 N   0  0  0  0  0  0  0  0  0  0  0  0
   38.9850   30.4520   44.5830 N   0  0  0  0  0  0  0  0  0  0  0  0
   40.2740   32.0700   47.0290 H   0  0  0  0  0  0  0  0  0  0  0  0
   41.8520   31.9280   44.8410 H   0  0  0  0  0  0  0  0  0  0  0  0
   37.7250   30.7320   46.7340 C   0  0  0  0  0  0  0  0  0  0  0  0
   37.9290   30.9230   48.1280 C   0  0  0  0  0  0  0  0  0  0  0  0
   36.8350   30.7580   48.9670 C   0  0  0  0  0  0  0  0  0  0  0  0
   35.6410   30.4250   48.4180 N   0  0  0  0  0  0  0  0  0  0  0  0
   35.4670   30.2460   47.0850 C   0  0  0  0  0  0  0  0  0  0  0  0
   36.5170   30.4030   46.2540 N   0  0  0  0  0  0  0  0  0  0  0  0
   38.9180   31.1890   48.4930 H   0  0  0  0  0  0  0  0  0  0  0  0
   34.4740   29.9820   46.7440 H   0  0  0  0  0  0  0  0  0  0  0  0
   37.0350   30.9550   50.4350 C   0  0  0  0  0  0  0  0  0  0  0  0
   36.5470   32.2110   50.7090 F   0  0  0  0  0  0  0  0  0  0  0  0
   36.3320   30.0320   51.1910 F   0  0  0  0  0  0  0  0  0  0  0  0
   38.3810   30.9310   50.7850 F   0  0  0  0  0  0  0  0  0  0  0  0
   40.5420   30.4450   42.7370 C   0  0  0  0  0  0  0  0  0  0  0  0
   40.1220   31.2130   41.6340 C   0  0  0  0  0  0  0  0  0  0  0  0
   40.5370   30.8220   40.3910 C   0  0  0  0  0  0  0  0  0  0  0  0
   41.3680   29.6650   40.2480 C   0  0  0  0  0  0  0  0  0  0  0  0
   41.5570   29.1180   42.0050 S   0  0  0  0  0  0  0  0  0  0  0  0
   39.4950   32.0900   41.7110 H   0  0  0  0  0  0  0  0  0  0  0  0
   40.3180   31.2840   39.4420 H   0  0  0  0  0  0  0  0  0  0  0  0
   41.9310   29.0260   39.2260 N   0  0  0  0  0  0  0  0  0  0  0  0
   41.4400   27.8460   38.8000 C   0  0  0  0  0  3  0  0  0  0  0  0
   42.0370   27.1800   37.7250 C   0  0  0  0  0  0  0  0  0  0  0  0
   41.6960   26.2380   37.3340 H   0  0  0  0  0  0  0  0  0  0  0  0
   43.1340   27.7900   37.1400 C   0  0  0  0  0  0  0  0  0  0  0  0
   43.7710   27.2930   36.1540 O   0  0  0  0  0  0  0  0  0  0  0  0
   43.6300   28.9740   37.5650 N   0  0  0  0  0  0  0  0  0  0  0  0
   43.0010   29.5720   38.6190 C   0  0  0  0  0  0  0  0  0  0  0  0
   43.4640   30.6710   39.0110 O   0  0  0  0  0  0  0  0  0  0  0  0
   44.4570   29.4410   37.1310 H   0  0  0  0  0  0  0  0  0  0  0  0
  1  2  1  0  0  0  0
  1  8  1  0  0  0  0
  2  6  1  0  0  0  0
  3  2  2  0  0  0  0
  4  5  1  0  0  0  0
  4  3  1  0  0  0  0
  5  1  2  0  0  0  0
  7  3  1  0  0  0  0
  8  9  1  0  0  0  0
  9 14  1  0  0  0  0
  9 10  2  0  0  0  0
 10 16  1  0  0  0  0
 11 10  1  0  0  0  0
 12 11  2  0  0  0  0
 13  8  2  0  0  0  0
 13 12  1  0  0  0  0
 15 12  1  0  0  0  0
 16 17  1  0  0  0  0
 16 19  1  0  0  0  0
 16 18  1  0  0  0  0
 20  4  1  0  0  0  0
 21 25  1  0  0  0  0
 21 20  2  0  0  0  0
 22 21  1  0  0  0  0
 23 22  2  0  0  0  0
 23 24  1  0  0  0  0
 24 20  1  0  0  0  0
 26 22  1  0  0  0  0
 27 23  1  0  0  0  0
 28 27  1  0  0  0  0
 29 28  2  0  0  0  0
 30 29  1  0  0  0  0
 31 33  1  0  0  0  0
 31 29  1  0  0  0  0
 32 31  2  0  0  0  0
 33 34  1  0  0  0  0
 34 35  2  0  0  0  0
 34 27  1  0  0  0  0
 36 33  1  0  0  0  0
M  END
>  <minimizedAffinity>
-6.56135559

>  <minimizedRMSD>
0.601660132

$$$$
