
 OpenBabel03272509043D

 34 36  0  0  0  0  0  0  0  0999 V2000
   37.3180   30.0170   51.6780 C   0  0  0  0  0  0  0  0  0  0  0  0
   38.0650   30.7360   50.7080 C   0  0  0  0  0  0  0  0  0  0  0  0
   37.5220   30.8310   49.3890 C   0  0  0  0  0  0  0  0  0  0  0  0
   36.3270   30.2220   49.1650 N   0  0  0  0  0  0  0  0  0  0  0  0
   35.6650   29.5580   50.1140 C   0  0  0  0  0  0  0  0  0  0  0  0
   36.1640   29.4600   51.3600 N   0  0  0  0  0  0  0  0  0  0  0  0
   37.8050   30.0040   52.6230 H   0  0  0  0  0  0  0  0  0  0  0  0
   39.0150   31.2210   50.8840 H   0  0  0  0  0  0  0  0  0  0  0  0
   38.2360   31.5430   48.3840 N   0  0  0  0  0  0  0  0  0  0  0  0
   38.5720   30.7460   47.3440 C   0  0  0  0  0  0  0  0  0  0  0  0
   39.2800   31.3140   46.2790 C   0  0  0  0  0  0  0  0  0  0  0  0
   39.5960   30.7670   45.4040 H   0  0  0  0  0  0  0  0  0  0  0  0
   39.6010   32.6420   46.3320 C   0  0  0  0  0  0  0  0  0  0  0  0
   40.2280   33.2420   45.4380 O   0  0  0  0  0  0  0  0  0  0  0  0
   39.2460   33.4050   47.3910 N   0  0  0  0  0  0  0  0  0  0  0  0
   38.5650   32.8490   48.4100 C   0  0  0  0  0  0  0  0  0  0  0  0
   38.1510   33.3860   49.4690 O   0  0  0  0  0  0  0  0  0  0  0  0
   39.4470   34.4150   47.5130 H   0  0  0  0  0  0  0  0  0  0  0  0
   34.4090   28.9670   49.7180 C   0  0  0  0  0  0  0  0  0  0  0  0
   34.4030   28.0740   48.7870 C   0  0  0  0  0  0  0  0  0  0  0  0
   33.2510   27.3480   48.2320 C   0  0  0  0  0  0  0  0  0  0  0  0
   32.5680   28.1000   47.7600 H   0  0  0  0  0  0  0  0  0  0  0  0
   32.6300   26.8330   49.0000 H   0  0  0  0  0  0  0  0  0  0  0  0
   33.6480   26.3870   47.1560 C   0  0  0  0  0  0  0  0  0  0  0  0
   33.8830   25.0440   47.3150 C   0  0  0  0  0  0  0  0  0  0  0  0
   34.2440   24.2530   46.2450 C   0  0  0  0  0  0  0  0  0  0  0  0
   34.3830   24.7920   44.9600 C   0  0  0  0  0  0  0  0  0  0  0  0
   34.1530   26.1250   44.7800 C   0  0  0  0  0  0  0  0  0  0  0  0
   33.7920   26.9040   45.8660 C   0  0  0  0  0  0  0  0  0  0  0  0
   33.7650   24.6570   48.3290 H   0  0  0  0  0  0  0  0  0  0  0  0
   34.4120   23.2000   46.4500 H   0  0  0  0  0  0  0  0  0  0  0  0
   34.6640   24.1280   44.1750 H   0  0  0  0  0  0  0  0  0  0  0  0
   34.2510   26.5790   43.8000 H   0  0  0  0  0  0  0  0  0  0  0  0
   33.6200   27.9450   45.6860 H   0  0  0  0  0  0  0  0  0  0  0  0
  1  7  1  0  0  0  0
  2  8  1  0  0  0  0
  2  1  2  0  0  0  0
  3  2  1  0  0  0  0
  4  3  2  0  0  0  0
  4  5  1  0  0  0  0
  5  6  2  0  0  0  0
  6  1  1  0  0  0  0
  9 16  1  0  0  0  0
  9  3  1  0  0  0  0
 10  9  1  0  0  0  0
 11 13  1  0  0  0  0
 11 10  2  0  0  0  0
 12 11  1  0  0  0  0
 13 15  1  0  0  0  0
 14 13  2  0  0  0  0
 15 18  1  0  0  0  0
 15 16  1  0  0  0  0
 16 17  2  0  0  0  0
 19  5  1  0  0  0  0
 20 19  2  0  0  0  0
 21 20  1  0  0  0  0
 21 23  1  0  0  0  0
 22 21  1  0  0  0  0
 24 25  1  0  0  0  0
 24 21  1  0  0  0  0
 25 30  1  0  0  0  0
 26 31  1  0  0  0  0
 26 25  2  0  0  0  0
 27 26  1  0  0  0  0
 28 27  2  0  0  0  0
 28 29  1  0  0  0  0
 29 24  2  0  0  0  0
 32 27  1  0  0  0  0
 33 28  1  0  0  0  0
 34 29  1  0  0  0  0
M  END
>  <minimizedAffinity>
-7.25097561

>  <minimizedRMSD>
0.838852465

$$$$
