
 OpenBabel03272508583D

 41 44  0  0  1  0  0  0  0  0999 V2000
   39.1450   31.4810   43.3380 C   0  0  0  0  0  0  0  0  0  0  0  0
   40.1390   30.5530   43.4980 C   0  0  0  0  0  0  0  0  0  0  0  0
   40.8640   30.2040   42.3650 C   0  0  0  0  0  0  0  0  0  0  0  0
   40.5400   30.8070   41.1680 C   0  0  0  0  0  0  0  0  0  0  0  0
   39.5350   31.7410   41.0180 C   0  0  0  0  0  0  0  0  0  0  0  0
   38.8480   32.0590   42.1440 N   0  0  0  0  0  0  0  0  0  0  0  0
   40.3770   30.0910   44.4490 H   0  0  0  0  0  0  0  0  0  0  0  0
   41.6540   29.4870   42.4150 H   0  0  0  0  0  0  0  0  0  0  0  0
   41.1210   30.5140   40.3100 H   0  0  0  0  0  0  0  0  0  0  0  0
   38.3490   31.8920   44.5200 C   0  0  0  0  0  0  0  0  0  0  0  0
   37.2430   32.4330   44.4180 O   0  0  0  0  0  0  0  0  0  0  0  0
   38.9330   31.6310   45.8280 N   0  0  0  0  0  0  0  0  0  0  0  0
   39.9300   31.3830   45.9820 H   0  0  0  0  0  0  0  0  0  0  0  0
   38.4260   31.1110   48.2120 C   0  0  2  0  0  0  0  0  0  0  0  0
   38.6660   32.5750   48.1270 C   0  0  0  0  0  0  0  0  0  0  0  0
   38.0620   31.7270   46.9780 C   0  0  1  0  0  0  0  0  0  0  0  0
   39.3680   30.5300   48.3120 H   0  0  0  0  0  0  0  0  0  0  0  0
   37.9770   33.2720   48.6500 H   0  0  0  0  0  0  0  0  0  0  0  0
   39.6720   32.9690   47.9970 H   0  0  0  0  0  0  0  0  0  0  0  0
   36.9720   31.9580   46.7760 H   0  0  0  0  0  0  0  0  0  0  0  0
   35.0640   30.2270   49.5210 C   0  0  0  0  0  0  0  0  0  0  0  0
   35.3920   29.5510   50.7310 C   0  0  0  0  0  0  0  0  0  0  0  0
   36.7840   29.4150   51.0840 C   0  0  0  0  0  0  0  0  0  0  0  0
   37.7450   29.9370   50.2500 N   0  0  0  0  0  0  0  0  0  0  0  0
   37.3420   30.5700   49.1120 C   0  0  0  0  0  0  0  0  0  0  0  0
   36.0190   30.7350   48.7130 N   0  0  0  0  0  0  0  0  0  0  0  0
   34.0280   30.3180   49.2770 H   0  0  0  0  0  0  0  0  0  0  0  0
   34.6530   29.1460   51.3760 H   0  0  0  0  0  0  0  0  0  0  0  0
   37.0400   28.9020   52.0000 H   0  0  0  0  0  0  0  0  0  0  0  0
   39.2350   32.3320   39.7270 C   0  0  0  0  0  0  0  0  0  0  0  0
   38.8300   33.5100   39.6550 O   0  0  0  0  0  0  0  0  0  0  0  0
   41.5670   30.5260   36.2820 H   0  0  0  0  0  0  0  0  0  0  0  0
   40.6860   30.5600   36.8410 N   0  0  0  0  0  0  0  0  0  0  0  0
   40.6330   31.4390   37.8790 C   0  0  0  0  0  3  0  0  0  0  0  0
   39.4480   31.4470   38.5890 C   0  0  0  0  0  0  0  0  0  0  0  0
   38.3720   30.6320   38.2930 C   0  0  0  0  0  0  0  0  0  0  0  0
   37.3060   30.6370   38.9280 O   0  0  0  0  0  0  0  0  0  0  0  0
   38.4770   29.7680   37.2420 N   0  0  0  0  0  0  0  0  0  0  0  0
   39.6430   29.7600   36.5440 C   0  0  0  0  0  0  0  0  0  0  0  0
   39.6800   28.9430   35.5880 O   0  0  0  0  0  0  0  0  0  0  0  0
   37.6740   29.1520   37.0130 H   0  0  0  0  0  0  0  0  0  0  0  0
  1  2  1  0  0  0  0
  1 10  1  0  0  0  0
  2  7  1  0  0  0  0
  3  8  1  0  0  0  0
  3  2  2  0  0  0  0
  4  3  1  0  0  0  0
  5  4  2  0  0  0  0
  5  6  1  0  0  0  0
  6  1  2  0  0  0  0
  9  4  1  0  0  0  0
 10 12  1  0  0  0  0
 11 10  2  0  0  0  0
 12 13  1  0  0  0  0
 12 16  1  0  0  0  0
 14 17  1  6  0  0  0
 14 25  1  0  0  0  0
 15 14  1  0  0  0  0
 15 18  1  0  0  0  0
 16 20  1  6  0  0  0
 16 15  1  0  0  0  0
 16 14  1  0  0  0  0
 19 15  1  0  0  0  0
 21 22  1  0  0  0  0
 22 23  2  0  0  0  0
 22 28  1  0  0  0  0
 23 29  1  0  0  0  0
 24 23  1  0  0  0  0
 25 24  2  0  0  0  0
 26 25  1  0  0  0  0
 26 21  2  0  0  0  0
 27 21  1  0  0  0  0
 30  5  1  0  0  0  0
 31 30  2  0  0  0  0
 32 33  1  0  0  0  0
 33 34  1  0  0  0  0
 34 35  2  0  0  0  0
 35 30  1  0  0  0  0
 36 35  1  0  0  0  0
 36 37  2  0  0  0  0
 38 36  1  0  0  0  0
 39 33  1  0  0  0  0
 39 38  1  0  0  0  0
 40 39  2  0  0  0  0
 41 38  1  0  0  0  0
M  END
>  <minimizedAffinity>
-4.97995043

>  <minimizedRMSD>
0.0875690728

$$$$
