
     RDKit          3D

 30 32  0  0  0  0  0  0  0  0999 V2000
   37.9898   33.1677   49.4238 C   0  0  0  0  0  0  0  0  0  0  0  0
   39.0146   33.1551   48.4587 C   0  0  0  0  0  0  0  0  0  0  0  0
   39.0106   32.1228   47.5341 C   0  0  0  0  0  0  0  0  0  0  0  0
   38.0228   31.1781   47.6040 N   0  0  0  0  0  0  0  0  0  0  0  0
   37.0487   31.2298   48.5570 C   0  0  0  0  0  0  0  0  0  0  0  0
   37.0432   32.2241   49.4563 N   0  0  0  0  0  0  0  0  0  0  0  0
   37.2593   29.3510   51.0545 Br  0  0  0  0  0  0  0  0  0  0  0  0
   35.9545   29.3172   49.6630 C   0  0  0  0  0  0  0  0  0  0  0  0
   36.0024   30.2219   48.6244 C   0  0  0  0  0  0  0  0  0  0  0  0
   35.0169   30.1298   47.6536 C   0  0  0  0  0  0  0  0  0  0  0  0
   34.0047   29.1774   47.6913 C   0  0  0  0  0  0  0  0  0  0  0  0
   34.0003   28.3006   48.7440 C   0  0  0  0  0  0  0  0  0  0  0  0
   34.9702   28.3755   49.7183 C   0  0  0  0  0  0  0  0  0  0  0  0
   38.0485   33.9968   50.1148 H   0  0  0  0  0  0  0  0  0  0  0  0
   39.8110   33.8453   48.3382 H   0  0  0  0  0  0  0  0  0  0  0  0
   39.6990   31.9328   46.7225 H   0  0  0  0  0  0  0  0  0  0  0  0
   35.1025   30.8728   46.8515 H   0  0  0  0  0  0  0  0  0  0  0  0
   33.1954   27.5826   48.7266 H   0  0  0  0  0  0  0  0  0  0  0  0
   34.8907   27.6410   50.5171 H   0  0  0  0  0  0  0  0  0  0  0  0
   33.0949   29.2547   46.5995 N   0  0  0  0  0  0  0  0  0  0  0  0
   31.8153   28.8509   46.5425 C   0  0  0  0  0  0  0  0  0  0  0  0
   31.1235   29.0305   45.3636 C   0  0  0  0  0  0  0  0  0  0  0  0
   30.0889   28.6915   45.3535 H   0  0  0  0  0  0  0  0  0  0  0  0
   31.7269   29.6150   44.2541 C   0  0  0  0  0  0  0  0  0  0  0  0
   31.0597   29.7653   43.1836 O   0  0  0  0  0  0  0  0  0  0  0  0
   33.0151   30.0047   44.3605 N   0  0  0  0  0  0  0  0  0  0  0  0
   33.6930   29.8283   45.5166 C   0  0  0  0  0  0  0  0  0  0  0  0
   34.8769   30.2427   45.4518 O   0  0  0  0  0  0  0  0  0  0  0  0
   31.4542   28.4153   47.4536 H   0  0  0  0  0  0  0  0  0  0  0  0
   33.4222   30.4382   43.4991 H   0  0  0  0  0  0  0  0  0  0  0  0
  1  6  2  0
  2  1  1  0
  3  4  1  0
  3  2  2  0
  4  5  2  0
  5  9  1  0
  5  6  1  0
  8 13  2  0
  8  7  1  0
  9  8  1  0
 10 11  1  0
 10  9  2  0
 11 12  2  0
 12 13  1  0
  1 14  1  0
  2 15  1  0
  3 16  1  0
 10 17  1  0
 12 18  1  0
 13 19  1  0
 20 21  1  0
 21 22  2  0
 22 23  1  0
 22 24  1  0
 24 25  2  0
 24 26  1  0
 26 27  1  0
 27 28  2  0
 27 20  1  0
 21 29  1  0
 26 30  1  0
 11 20  1  0
M  ISO  7  14  14  15  14  16  14  17  14  18  14  19  14  23  16
M  END
>  <DihAtoms>  (1) 
9,10,19,20

>  <DihDeg>  (1) 
-109.58801910107795

$$$$
