
 OpenBabel03272508583D

 41 44  0  0  1  0  0  0  0  0999 V2000
   39.1470   31.4800   43.3390 C   0  0  0  0  0  0  0  0  0  0  0  0
   40.1410   30.5510   43.4990 C   0  0  0  0  0  0  0  0  0  0  0  0
   40.8660   30.2020   42.3650 C   0  0  0  0  0  0  0  0  0  0  0  0
   40.5410   30.8040   41.1690 C   0  0  0  0  0  0  0  0  0  0  0  0
   39.5360   31.7390   41.0190 C   0  0  0  0  0  0  0  0  0  0  0  0
   38.8500   32.0570   42.1460 N   0  0  0  0  0  0  0  0  0  0  0  0
   40.3800   30.0890   44.4500 H   0  0  0  0  0  0  0  0  0  0  0  0
   41.6550   29.4840   42.4160 H   0  0  0  0  0  0  0  0  0  0  0  0
   41.1220   30.5110   40.3100 H   0  0  0  0  0  0  0  0  0  0  0  0
   38.3520   31.8920   44.5210 C   0  0  0  0  0  0  0  0  0  0  0  0
   37.2490   32.4400   44.4200 O   0  0  0  0  0  0  0  0  0  0  0  0
   38.9320   31.6220   45.8290 N   0  0  0  0  0  0  0  0  0  0  0  0
   39.9270   31.3660   45.9850 H   0  0  0  0  0  0  0  0  0  0  0  0
   38.4240   31.1060   48.2140 C   0  0  2  0  0  0  0  0  0  0  0  0
   38.6610   32.5710   48.1250 C   0  0  0  0  0  0  0  0  0  0  0  0
   38.0600   31.7180   46.9780 C   0  0  1  0  0  0  0  0  0  0  0  0
   39.3670   30.5280   48.3160 H   0  0  0  0  0  0  0  0  0  0  0  0
   37.9710   33.2680   48.6470 H   0  0  0  0  0  0  0  0  0  0  0  0
   39.6670   32.9670   47.9960 H   0  0  0  0  0  0  0  0  0  0  0  0
   36.9700   31.9470   46.7750 H   0  0  0  0  0  0  0  0  0  0  0  0
   35.0620   30.2260   49.5260 C   0  0  0  0  0  0  0  0  0  0  0  0
   35.3900   29.5470   50.7340 C   0  0  0  0  0  0  0  0  0  0  0  0
   36.7820   29.4080   51.0850 C   0  0  0  0  0  0  0  0  0  0  0  0
   37.7440   29.9300   50.2510 N   0  0  0  0  0  0  0  0  0  0  0  0
   37.3400   30.5660   49.1140 C   0  0  0  0  0  0  0  0  0  0  0  0
   36.0170   30.7330   48.7180 N   0  0  0  0  0  0  0  0  0  0  0  0
   34.0260   30.3190   49.2830 H   0  0  0  0  0  0  0  0  0  0  0  0
   34.6510   29.1420   51.3790 H   0  0  0  0  0  0  0  0  0  0  0  0
   37.0390   28.8930   52.0000 H   0  0  0  0  0  0  0  0  0  0  0  0
   39.2360   32.3300   39.7280 C   0  0  0  0  0  0  0  0  0  0  0  0
   38.8320   33.5080   39.6560 O   0  0  0  0  0  0  0  0  0  0  0  0
   41.5640   30.5200   36.2810 H   0  0  0  0  0  0  0  0  0  0  0  0
   40.6830   30.5540   36.8420 N   0  0  0  0  0  0  0  0  0  0  0  0
   40.6310   31.4350   37.8790 C   0  0  0  0  0  3  0  0  0  0  0  0
   39.4470   31.4440   38.5900 C   0  0  0  0  0  0  0  0  0  0  0  0
   38.3700   30.6300   38.2950 C   0  0  0  0  0  0  0  0  0  0  0  0
   37.3060   30.6370   38.9330 O   0  0  0  0  0  0  0  0  0  0  0  0
   38.4740   29.7650   37.2450 N   0  0  0  0  0  0  0  0  0  0  0  0
   39.6380   29.7560   36.5450 C   0  0  0  0  0  0  0  0  0  0  0  0
   39.6730   28.9380   35.5900 O   0  0  0  0  0  0  0  0  0  0  0  0
   37.6690   29.1510   37.0170 H   0  0  0  0  0  0  0  0  0  0  0  0
  1  2  1  0  0  0  0
  1 10  1  0  0  0  0
  2  7  1  0  0  0  0
  3  8  1  0  0  0  0
  3  2  2  0  0  0  0
  4  3  1  0  0  0  0
  5  4  2  0  0  0  0
  5  6  1  0  0  0  0
  6  1  2  0  0  0  0
  9  4  1  0  0  0  0
 10 12  1  0  0  0  0
 11 10  2  0  0  0  0
 12 13  1  0  0  0  0
 12 16  1  0  0  0  0
 14 17  1  6  0  0  0
 14 25  1  0  0  0  0
 15 14  1  0  0  0  0
 15 18  1  0  0  0  0
 16 20  1  6  0  0  0
 16 15  1  0  0  0  0
 16 14  1  0  0  0  0
 19 15  1  0  0  0  0
 21 22  1  0  0  0  0
 22 23  2  0  0  0  0
 22 28  1  0  0  0  0
 23 29  1  0  0  0  0
 24 23  1  0  0  0  0
 25 24  2  0  0  0  0
 26 25  1  0  0  0  0
 26 21  2  0  0  0  0
 27 21  1  0  0  0  0
 30  5  1  0  0  0  0
 31 30  2  0  0  0  0
 32 33  1  0  0  0  0
 33 34  1  0  0  0  0
 34 35  2  0  0  0  0
 35 30  1  0  0  0  0
 36 35  1  0  0  0  0
 36 37  2  0  0  0  0
 38 36  1  0  0  0  0
 39 33  1  0  0  0  0
 39 38  1  0  0  0  0
 40 39  2  0  0  0  0
 41 38  1  0  0  0  0
M  END
>  <minimizedAffinity>
-4.9794302

>  <minimizedRMSD>
0.38157168

$$$$
