
     RDKit          3D

 44 46  0  0  0  0  0  0  0  0999 V2000
   38.1227   31.4874   48.9364 Br  0  0  0  0  0  0  0  0  0  0  0  0
   36.9284   30.8870   47.5542 C   0  0  0  0  0  0  0  0  0  0  0  0
   37.3079   30.9444   46.2376 C   0  0  0  0  0  0  0  0  0  0  0  0
   36.4143   30.5137   45.2938 C   0  0  0  0  0  0  0  0  0  0  0  0
   35.1560   30.0290   45.6232 C   0  0  0  0  0  0  0  0  0  0  0  0
   34.8071   29.9873   46.9798 C   0  0  0  0  0  0  0  0  0  0  0  0
   35.6978   30.4157   47.9238 C   0  0  0  0  0  0  0  0  0  0  0  0
   39.8826   33.2694   45.1077 C   0  0  0  0  0  0  0  0  0  0  0  0
   41.0680   32.4813   45.0916 C   0  0  0  0  0  0  0  0  0  0  0  0
   40.9458   31.1595   45.4740 C   0  0  0  0  0  0  0  0  0  0  0  0
   39.7189   30.6583   45.8481 N   0  0  0  0  0  0  0  0  0  0  0  0
   38.6279   31.4517   45.8445 C   0  0  0  0  0  0  0  0  0  0  0  0
   38.7243   32.7384   45.4766 N   0  0  0  0  0  0  0  0  0  0  0  0
   35.2095   30.3084   49.2942 C   0  0  0  0  0  0  0  0  0  0  0  0
   34.1091   29.3434   49.5495 C   0  0  0  0  0  0  0  0  0  0  0  0
   34.6073   28.0231   49.4174 N   0  0  0  0  0  0  0  0  0  0  0  0
   33.9158   27.1449   48.5488 C   0  0  0  0  0  0  0  0  0  0  0  0
   32.4805   27.5591   48.4916 C   0  0  0  0  0  0  0  0  0  0  0  0
   36.7683   30.5802   44.2521 H   0  0  0  0  0  0  0  0  0  0  0  0
   34.5729   29.7306   44.7675 H   0  0  0  0  0  0  0  0  0  0  0  0
   33.8167   29.6048   47.0196 H   0  0  0  0  0  0  0  0  0  0  0  0
   40.0053   34.2902   44.8068 H   0  0  0  0  0  0  0  0  0  0  0  0
   42.0242   32.9018   44.7919 H   0  0  0  0  0  0  0  0  0  0  0  0
   41.8244   30.5259   45.4754 H   0  0  0  0  0  0  0  0  0  0  0  0
   34.9378   31.3367   49.6598 H   0  0  0  0  0  0  0  0  0  0  0  0
   36.0818   30.0061   49.9357 H   0  0  0  0  0  0  0  0  0  0  0  0
   33.1671   29.6217   49.1178 H   0  0  0  0  0  0  0  0  0  0  0  0
   33.9196   29.4562   50.6753 H   0  0  0  0  0  0  0  0  0  0  0  0
   34.9379   27.5663   50.2855 H   0  0  0  0  0  0  0  0  0  0  0  0
   34.3572   27.1662   47.5285 H   0  0  0  0  0  0  0  0  0  0  0  0
   34.0564   26.1134   48.9141 H   0  0  0  0  0  0  0  0  0  0  0  0
   31.9388   27.3719   49.4456 H   0  0  0  0  0  0  0  0  0  0  0  0
   32.2064   28.4692   47.9929 H   0  0  0  0  0  0  0  0  0  0  0  0
   31.8676   26.5288   47.5900 N   0  0  0  0  0  0  0  0  0  0  0  0
   30.8587   25.7335   48.0528 C   0  0  0  0  0  0  0  0  0  0  0  0
   30.2832   24.7817   47.2380 C   0  0  0  0  0  0  0  0  0  0  0  0
   29.4897   24.1537   47.5969 H   0  0  0  0  0  0  0  0  0  0  0  0
   30.7258   24.6259   45.9422 C   0  0  0  0  0  0  0  0  0  0  0  0
   30.2539   23.7835   45.1401 O   0  0  0  0  0  0  0  0  0  0  0  0
   31.7208   25.4315   45.5315 N   0  0  0  0  0  0  0  0  0  0  0  0
   32.2988   26.3667   46.3050 C   0  0  0  0  0  0  0  0  0  0  0  0
   33.2203   27.1327   45.9682 O   0  0  0  0  0  0  0  0  0  0  0  0
   30.5120   25.8565   49.0701 H   0  0  0  0  0  0  0  0  0  0  0  0
   32.1423   25.4075   44.5669 H   0  0  0  0  0  0  0  0  0  0  0  0
  2  7  2  0
  2  1  1  0
  3  2  1  0
  4  5  1  0
  4  3  2  0
  5  6  2  0
  6  7  1  0
  7 14  1  0
  8 13  2  0
  9  8  1  0
  9 10  2  0
 10 11  1  0
 11 12  2  0
 12  3  1  0
 13 12  1  0
 14 15  1  0
 16 15  1  0
 17 16  1  0
 18 17  1  0
  4 19  1  0
  5 20  1  0
  6 21  1  0
  8 22  1  0
  9 23  1  0
 10 24  1  0
 14 25  1  0
 14 26  1  0
 15 27  1  0
 15 28  1  0
 16 29  1  0
 17 30  1  0
 17 31  1  0
 18 32  1  0
 18 33  1  0
 34 35  1  0
 35 36  2  0
 36 37  1  0
 36 38  1  0
 38 39  2  0
 38 40  1  0
 40 41  1  0
 41 42  2  0
 41 34  1  0
 35 43  1  0
 40 44  1  0
 18 34  1  0
M  ISO  8  19  14  20  14  21  14  22  14  23  14  24  14  25   8  26   8
M  ISO  8  27   8  28   8  29   5  30   8  31   8  32   8  33   8  37  16
M  END
>  <DihAtoms>  (1) 
16,17,33,34

>  <DihDeg>  (1) 
-89.95796127779491

$$$$
