
 OpenBabel03262523493D

 22 23  0  0  0  0  0  0  0  0999 V2000
   37.5970   32.1780   47.0150 C   0  0  0  0  0  0  0  0  0  0  0  0
   37.6210   33.2700   47.2700 H   0  0  0  0  0  0  0  0  0  0  0  0
   36.6660   32.0400   46.4370 H   0  0  0  0  0  0  0  0  0  0  0  0
   37.5680   31.4110   48.2260 N   0  0  0  0  0  0  0  0  0  0  0  0
   38.4020   31.6860   49.2430 C   0  0  0  0  0  0  0  0  0  0  0  0
   38.3600   30.9430   50.3900 C   0  0  0  0  0  0  0  0  0  0  0  0
   38.9780   31.0740   51.2690 H   0  0  0  0  0  0  0  0  0  0  0  0
   37.4380   29.9170   50.4540 C   0  0  0  0  0  0  0  0  0  0  0  0
   37.3140   29.1650   51.4720 O   0  0  0  0  0  0  0  0  0  0  0  0
   36.5780   29.6110   49.4380 N   0  0  0  0  0  0  0  0  0  0  0  0
   36.6970   30.4050   48.3420 C   0  0  0  0  0  0  0  0  0  0  0  0
   35.9250   30.1630   47.3780 O   0  0  0  0  0  0  0  0  0  0  0  0
   35.8900   28.8300   49.5090 H   0  0  0  0  0  0  0  0  0  0  0  0
   38.7420   31.8260   46.1430 C   0  0  0  0  0  0  0  0  0  0  0  0
   39.7970   32.7480   46.0340 C   0  0  0  0  0  0  0  0  0  0  0  0
   40.8740   32.4050   45.2070 C   0  0  0  0  0  0  0  0  0  0  0  0
   40.8520   31.2040   44.5520 N   0  0  0  0  0  0  0  0  0  0  0  0
   39.8130   30.3560   44.6930 C   0  0  0  0  0  0  0  0  0  0  0  0
   38.7680   30.6530   45.4740 N   0  0  0  0  0  0  0  0  0  0  0  0
   39.8010   33.6920   46.5570 H   0  0  0  0  0  0  0  0  0  0  0  0
   41.6830   33.1090   45.1210 H   0  0  0  0  0  0  0  0  0  0  0  0
   39.8560   29.4220   44.1480 H   0  0  0  0  0  0  0  0  0  0  0  0
  1  2  1  0  0  0  0
  1  4  1  0  0  0  0
  3  1  1  0  0  0  0
  4 11  1  0  0  0  0
  4  5  1  0  0  0  0
  5  6  2  0  0  0  0
  6  8  1  0  0  0  0
  6  7  1  0  0  0  0
  8  9  2  0  0  0  0
 10 13  1  0  0  0  0
 10  8  1  0  0  0  0
 11 10  1  0  0  0  0
 12 11  2  0  0  0  0
 14  1  1  0  0  0  0
 15 14  1  0  0  0  0
 15 20  1  0  0  0  0
 16 15  2  0  0  0  0
 17 18  2  0  0  0  0
 17 16  1  0  0  0  0
 18 19  1  0  0  0  0
 19 14  2  0  0  0  0
 21 16  1  0  0  0  0
 22 18  1  0  0  0  0
M  END
>  <minimizedAffinity>
-4.52604055

>  <minimizedRMSD>
4.77840281

$$$$
