REMARK  Name = 
REMARK  4 active torsions:
REMARK  status: ('A' for Active; 'I' for Inactive)
REMARK    1  A    between atoms: C_1  and  C_6
REMARK    2  A    between atoms: N_4  and  C_16
REMARK    3  A    between atoms: C_8  and  C_12
REMARK    4  A    between atoms: C_19  and  N_27
REMARK                            x       y       z     vdW  Elec       q    Type
REMARK                         _______ _______ _______ _____ _____    ______ ____
ROOT
ATOM      1  C   UNL     1      38.905  30.888  45.761  0.00  0.00    +0.000 A 
ATOM      2  C   UNL     1      40.112  31.522  46.022  0.00  0.00    +0.000 A 
ATOM      3  C   UNL     1      40.938  31.461  44.912  0.00  0.00    +0.000 A 
ATOM      4  N   UNL     1      40.186  30.777  44.002  0.00  0.00    +0.000 N 
ATOM      5  N   UNL     1      39.015  30.451  44.502  0.00  0.00    +0.000 NA
ATOM      6  H   UNL     1      40.385  32.000  46.949  0.00  0.00    +0.000 HD
ATOM      7  H   UNL     1      41.930  31.833  44.739  0.00  0.00    +0.000 HD
ENDROOT
BRANCH   1   8
ATOM      8  C   UNL     1      37.791  30.747  46.672  0.00  0.00    +0.000 A 
ATOM      9  C   UNL     1      38.008  30.969  48.060  0.00  0.00    +0.000 A 
ATOM     10  C   UNL     1      36.920  30.828  48.911  0.00  0.00    +0.000 A 
ATOM     11  N   UNL     1      35.720  30.488  48.380  0.00  0.00    +0.000 NA
ATOM     12  C   UNL     1      35.534  30.280  47.052  0.00  0.00    +0.000 A 
ATOM     13  N   UNL     1      36.578  30.413  46.210  0.00  0.00    +0.000 NA
ATOM     14  H   UNL     1      39.001  31.239  48.411  0.00  0.00    +0.000 HD
ATOM     15  H   UNL     1      34.537  30.013  46.726  0.00  0.00    +0.000 HD
BRANCH  10  16
ATOM     16  C   UNL     1      37.133  31.058  50.373  0.00  0.00    +0.000 C 
ATOM     17  F   UNL     1      36.610  32.303  50.631  0.00  0.00    +0.000 F 
ATOM     18  F   UNL     1      36.468  30.127  51.154  0.00  0.00    +0.000 F 
ATOM     19  F   UNL     1      38.483  31.081  50.705  0.00  0.00    +0.000 F 
ENDBRANCH  10  16
ENDBRANCH   1   8
BRANCH   4  20
ATOM     20  C   UNL     1      40.547  30.416  42.636  0.00  0.00    +0.000 A 
ATOM     21  C   UNL     1      40.166  31.226  41.550  0.00  0.00    +0.000 A 
ATOM     22  C   UNL     1      40.551  30.835  40.298  0.00  0.00    +0.000 A 
ATOM     23  C   UNL     1      41.314  29.635  40.129  0.00  0.00    +0.000 A 
ATOM     24  S   UNL     1      41.481  29.046  41.874  0.00  0.00    +0.000 S 
ATOM     25  H   UNL     1      39.590  32.136  41.647  0.00  0.00    +0.000 HD
ATOM     26  H   UNL     1      40.354  31.326  39.358  0.00  0.00    +0.000 HD
BRANCH  23  27
ATOM     27  N   UNL     1      41.834  28.984  39.092  0.00  0.00    +0.000 N 
ATOM     28  C   UNL     1      43.134  29.137  38.770  0.00  0.00    +0.000 A 
ATOM     29  C   UNL     1      43.676  28.449  37.678  0.00  0.00    +0.000 A 
ATOM     30  H   UNL     1      44.703  28.525  37.367  0.00  0.00    +0.000 HD
ATOM     31  C   UNL     1      42.819  27.625  36.969  0.00  0.00    +0.000 A 
ATOM     32  O   UNL     1      43.181  26.942  35.955  0.00  0.00    +0.000 OA
ATOM     33  N   UNL     1      41.515  27.469  37.289  0.00  0.00    +0.000 N 
ATOM     34  C   UNL     1      41.048  28.168  38.365  0.00  0.00    +0.000 A 
ATOM     35  O   UNL     1      39.837  28.022  38.660  0.00  0.00    +0.000 OA
ATOM     36  H   UNL     1      40.861  26.850  36.759  0.00  0.00    +0.000 HD
ENDBRANCH  23  27
ENDBRANCH   4  20
TORSDOF 4
