
     RDKit          3D

 38 41  0  0  0  0  0  0  0  0999 V2000
   35.8227   29.1381   49.7994 C   0  0  0  0  0  0  0  0  0  0  0  0
   34.8014   29.6665   50.5609 C   0  0  0  0  0  0  0  0  0  0  0  0
   33.5986   29.1287   50.0809 C   0  0  0  0  0  0  0  0  0  0  0  0
   33.9715   28.2985   49.0475 C   0  0  0  0  0  0  0  0  0  0  0  0
   35.2801   28.3351   48.9176 O   0  0  0  0  0  0  0  0  0  0  0  0
   37.2164   29.4824   50.0254 C   0  0  0  0  0  0  0  0  0  0  0  0
   37.8578   28.8691   50.8901 O   0  0  0  0  0  0  0  0  0  0  0  0
   37.7692   30.5339   49.2132 C   0  0  0  0  0  0  0  0  0  0  0  0
   38.1123   31.7158   49.8539 C   0  0  0  0  0  0  0  0  0  0  0  0
   38.6491   32.7555   49.0911 C   0  0  0  0  0  0  0  0  0  0  0  0
   38.8074   32.5452   47.7383 N   0  0  0  0  0  0  0  0  0  0  0  0
   38.4665   31.3958   47.1571 C   0  0  0  0  0  0  0  0  0  0  0  0
   37.9496   30.3889   47.8796 N   0  0  0  0  0  0  0  0  0  0  0  0
   33.0620   27.4993   48.2267 C   0  0  0  0  0  0  0  0  0  0  0  0
   31.8432   27.3992   48.5904 O   0  0  0  0  0  0  0  0  0  0  0  0
   33.5555   26.8073   46.9899 C   0  0  1  0  0  0  0  0  0  0  0  0
   33.7964   25.2748   47.2960 C   0  0  0  0  0  0  0  0  0  0  0  0
   32.7632   25.7580   46.3520 C   0  0  2  0  0  0  0  0  0  0  0  0
   34.8575   30.3751   51.3945 H   0  0  0  0  0  0  0  0  0  0  0  0
   32.6172   29.3543   50.4771 H   0  0  0  0  0  0  0  0  0  0  0  0
   37.9758   31.8483   50.9134 H   0  0  0  0  0  0  0  0  0  0  0  0
   38.9158   33.6745   49.5892 H   0  0  0  0  0  0  0  0  0  0  0  0
   38.6232   31.3128   46.0920 H   0  0  0  0  0  0  0  0  0  0  0  0
   34.4915   27.2314   46.5733 H   0  0  0  0  0  0  0  0  0  0  0  0
   33.5293   24.9167   48.2867 H   0  0  0  0  0  0  0  0  0  0  0  0
   34.7056   24.8362   46.8617 H   0  0  0  0  0  0  0  0  0  0  0  0
   31.7173   25.6603   46.7710 H   0  0  0  0  0  0  0  0  0  0  0  0
   32.8442   25.6200   44.9339 N   0  0  0  0  0  0  0  0  0  0  0  0
   33.3047   24.4669   44.3603 C   0  0  0  0  0  0  0  0  0  0  0  0
   33.3875   24.3244   42.9899 C   0  0  0  0  0  0  0  0  0  0  0  0
   33.7701   23.3587   42.6677 H   0  0  0  0  0  0  0  0  0  0  0  0
   33.0096   25.3384   42.1340 C   0  0  0  0  0  0  0  0  0  0  0  0
   33.1406   25.0645   40.9137 O   0  0  0  0  0  0  0  0  0  0  0  0
   32.5579   26.4690   42.7079 N   0  0  0  0  0  0  0  0  0  0  0  0
   32.4939   26.5646   44.0472 C   0  0  0  0  0  0  0  0  0  0  0  0
   32.0586   27.6616   44.4513 O   0  0  0  0  0  0  0  0  0  0  0  0
   33.5994   23.6750   45.0449 H   0  0  0  0  0  0  0  0  0  0  0  0
   32.2809   27.2143   42.0415 H   0  0  0  0  0  0  0  0  0  0  0  0
  1  6  1  0
  1  2  2  0
  3  2  1  0
  4  3  2  0
  5  4  1  0
  5  1  1  0
  6  7  2  0
  8  9  2  0
  8  6  1  0
 10  9  1  0
 11 10  2  0
 12 11  1  0
 12 13  2  0
 13  8  1  0
 14 15  2  0
 14  4  1  0
 16 17  1  0
 16 14  1  0
 18 16  1  0
 18 17  1  0
  2 19  1  0
  3 20  1  0
  9 21  1  0
 10 22  1  0
 12 23  1  0
 16 24  1  6
 17 25  1  0
 17 26  1  0
 18 27  1  1
 28 29  1  0
 29 30  2  0
 30 31  1  0
 30 32  1  0
 32 33  2  0
 32 34  1  0
 34 35  1  0
 35 36  2  0
 35 28  1  0
 29 37  1  0
 34 38  1  0
 18 28  1  0
M  ISO  8  19  14  20  14  21  14  22  14  23  14  24  13  25  13  26  13
M  ISO  2  27  13  31  16
M  END
>  <DihAtoms>  (1) 
15,17,27,28

>  <DihDeg>  (1) 
-136.36454325811593

$$$$
