
 OpenBabel03272508583D

 41 44  0  0  1  0  0  0  0  0999 V2000
   38.7090   31.4200   43.8140 C   0  0  0  0  0  0  0  0  0  0  0  0
   39.8130   30.6130   43.7470 C   0  0  0  0  0  0  0  0  0  0  0  0
   40.5130   30.6010   42.5450 C   0  0  0  0  0  0  0  0  0  0  0  0
   40.0540   31.3910   41.5130 C   0  0  0  0  0  0  0  0  0  0  0  0
   38.9380   32.2000   41.5920 C   0  0  0  0  0  0  0  0  0  0  0  0
   38.2810   32.1880   42.7790 N   0  0  0  0  0  0  0  0  0  0  0  0
   40.1570   29.9990   44.5720 H   0  0  0  0  0  0  0  0  0  0  0  0
   41.3830   29.9960   42.4200 H   0  0  0  0  0  0  0  0  0  0  0  0
   40.6180   31.3590   40.5960 H   0  0  0  0  0  0  0  0  0  0  0  0
   37.9360   31.4740   45.0790 C   0  0  0  0  0  0  0  0  0  0  0  0
   36.9320   30.7790   45.2720 O   0  0  0  0  0  0  0  0  0  0  0  0
   38.4120   32.3940   46.1020 N   0  0  0  0  0  0  0  0  0  0  0  0
   39.1060   33.1480   45.9300 H   0  0  0  0  0  0  0  0  0  0  0  0
   38.5200   31.3750   48.3730 C   0  0  2  0  0  0  0  0  0  0  0  0
   38.8110   32.8240   48.5310 C   0  0  0  0  0  0  0  0  0  0  0  0
   37.8810   32.2400   47.4370 C   0  0  1  0  0  0  0  0  0  0  0  0
   39.4220   30.7880   48.0950 H   0  0  0  0  0  0  0  0  0  0  0  0
   38.3240   33.3920   49.3520 H   0  0  0  0  0  0  0  0  0  0  0  0
   39.7690   33.2380   48.2200 H   0  0  0  0  0  0  0  0  0  0  0  0
   36.7910   32.5080   47.5880 H   0  0  0  0  0  0  0  0  0  0  0  0
   35.8760   29.2450   49.8800 C   0  0  0  0  0  0  0  0  0  0  0  0
   36.1970   29.3200   51.2660 C   0  0  0  0  0  0  0  0  0  0  0  0
   37.3290   30.1200   51.6640 C   0  0  0  0  0  0  0  0  0  0  0  0
   38.0600   30.7800   50.7040 N   0  0  0  0  0  0  0  0  0  0  0  0
   37.6810   30.6530   49.4000 C   0  0  0  0  0  0  0  0  0  0  0  0
   36.6030   29.8990   48.9500 N   0  0  0  0  0  0  0  0  0  0  0  0
   35.0340   28.6480   49.6050 H   0  0  0  0  0  0  0  0  0  0  0  0
   35.6360   28.8110   52.0090 H   0  0  0  0  0  0  0  0  0  0  0  0
   37.5790   30.1810   52.7140 H   0  0  0  0  0  0  0  0  0  0  0  0
   38.5000   33.0010   40.4640 C   0  0  0  0  0  0  0  0  0  0  0  0
   38.6450   34.2410   40.4810 O   0  0  0  0  0  0  0  0  0  0  0  0
   35.2750   30.5710   38.3990 H   0  0  0  0  0  0  0  0  0  0  0  0
   36.2260   31.0040   38.3650 N   0  0  0  0  0  0  0  0  0  0  0  0
   36.6460   31.6870   39.4650 C   0  0  0  0  0  3  0  0  0  0  0  0
   37.9080   32.2410   39.3710 C   0  0  0  0  0  0  0  0  0  0  0  0
   38.7140   32.1280   38.2550 C   0  0  0  0  0  0  0  0  0  0  0  0
   39.8470   32.6250   38.1690 O   0  0  0  0  0  0  0  0  0  0  0  0
   38.2450   31.4330   37.1780 N   0  0  0  0  0  0  0  0  0  0  0  0
   37.0030   30.8880   37.2700 C   0  0  0  0  0  0  0  0  0  0  0  0
   36.6260   30.2590   36.2470 O   0  0  0  0  0  0  0  0  0  0  0  0
   38.8430   31.3430   36.3350 H   0  0  0  0  0  0  0  0  0  0  0  0
  1 10  1  0  0  0  0
  2  1  1  0  0  0  0
  2  7  1  0  0  0  0
  3  2  2  0  0  0  0
  4  5  2  0  0  0  0
  4  3  1  0  0  0  0
  5  6  1  0  0  0  0
  6  1  2  0  0  0  0
  8  3  1  0  0  0  0
  9  4  1  0  0  0  0
 10 11  2  0  0  0  0
 10 12  1  0  0  0  0
 12 16  1  0  0  0  0
 13 12  1  0  0  0  0
 14 17  1  6  0  0  0
 14 15  1  0  0  0  0
 14 25  1  0  0  0  0
 15 18  1  0  0  0  0
 16 20  1  1  0  0  0
 16 14  1  0  0  0  0
 16 15  1  0  0  0  0
 19 15  1  0  0  0  0
 21 22  1  0  0  0  0
 22 23  2  0  0  0  0
 22 28  1  0  0  0  0
 23 29  1  0  0  0  0
 24 23  1  0  0  0  0
 25 24  2  0  0  0  0
 26 25  1  0  0  0  0
 26 21  2  0  0  0  0
 27 21  1  0  0  0  0
 30 31  2  0  0  0  0
 30  5  1  0  0  0  0
 33 32  1  0  0  0  0
 33 34  1  0  0  0  0
 35 34  2  0  0  0  0
 35 30  1  0  0  0  0
 36 35  1  0  0  0  0
 37 36  2  0  0  0  0
 38 39  1  0  0  0  0
 38 36  1  0  0  0  0
 39 33  1  0  0  0  0
 40 39  2  0  0  0  0
 41 38  1  0  0  0  0
M  END
>  <minimizedAffinity>
-5.27589417

>  <minimizedRMSD>
1.65557683

$$$$
