
 OpenBabel03262520523D

 49 53  0  0  1  0  0  0  0  0999 V2000
   34.6770   31.0910   33.6860 C   0  0  0  0  0  0  0  0  0  0  0  0
   34.4030   32.1090   33.2840 H   0  0  0  0  0  0  0  0  0  0  0  0
   33.7610   30.5520   34.0440 H   0  0  0  0  0  0  0  0  0  0  0  0
   35.3830   28.9590   32.6450 C   0  0  0  0  0  0  0  0  0  0  0  0
   35.3570   30.3420   32.5810 C   0  0  0  0  0  0  0  0  0  0  0  0
   35.9550   31.0040   31.5030 C   0  0  0  0  0  0  0  0  0  0  0  0
   36.5730   30.2930   30.5000 C   0  0  0  0  0  0  0  0  0  0  0  0
   37.2050   30.6830   29.3850 N   0  0  0  0  0  0  0  0  0  0  0  0
   37.6240   29.5630   28.7540 C   0  0  0  0  0  0  0  0  0  0  0  0
   37.2770   28.4270   29.4390 C   0  0  0  0  0  0  0  0  0  0  0  0
   36.5990   28.9020   30.5640 C   0  0  0  0  0  0  0  0  0  0  0  0
   36.0100   28.2590   31.6260 C   0  0  0  0  0  0  0  0  0  0  0  0
   34.9620   28.3560   33.4130 H   0  0  0  0  0  0  0  0  0  0  0  0
   35.9210   32.0840   31.4770 H   0  0  0  0  0  0  0  0  0  0  0  0
   37.3630   31.6710   29.0340 H   0  0  0  0  0  0  0  0  0  0  0  0
   38.1720   29.5360   27.8180 H   0  0  0  0  0  0  0  0  0  0  0  0
   37.4730   27.3940   29.1860 H   0  0  0  0  0  0  0  0  0  0  0  0
   36.0690   26.8360   31.6360 N   0  0  0  0  0  0  0  0  0  0  0  0
   35.2860   25.9410   31.0450 C   0  0  0  0  0  3  0  0  0  0  0  0
   35.5420   24.6000   31.2010 C   0  0  0  0  0  0  0  0  0  0  0  0
   34.8830   23.9080   30.7050 H   0  0  0  0  0  0  0  0  0  0  0  0
   36.5960   24.1300   31.9580 C   0  0  0  0  0  0  0  0  0  0  0  0
   36.8250   22.9050   32.0980 O   0  0  0  0  0  0  0  0  0  0  0  0
   37.3650   25.0840   32.5410 N   0  0  0  0  0  0  0  0  0  0  0  0
   37.1190   26.4010   32.3910 C   0  0  0  0  0  0  0  0  0  0  0  0
   37.9440   27.1350   33.0080 O   0  0  0  0  0  0  0  0  0  0  0  0
   38.1650   24.7040   33.1140 H   0  0  0  0  0  0  0  0  0  0  0  0
   35.6640   31.2190   34.8300 C   0  0  0  0  0  0  0  0  0  0  0  0
   36.3170   30.3260   34.7650 H   0  0  0  0  0  0  0  0  0  0  0  0
   36.2220   32.1830   34.6710 H   0  0  0  0  0  0  0  0  0  0  0  0
   33.6040   31.6720   36.2180 C   0  0  1  0  0  0  0  0  0  0  0  0
   34.6570   32.5780   36.8130 C   0  0  0  0  0  0  0  0  0  0  0  0
   35.0280   31.3020   36.1680 C   0  0  2  0  0  0  0  0  0  0  0  0
   33.1120   32.0320   35.2790 H   0  0  0  0  0  0  0  0  0  0  0  0
   34.9520   33.4930   36.2360 H   0  0  0  0  0  0  0  0  0  0  0  0
   34.6950   32.6960   37.9080 H   0  0  0  0  0  0  0  0  0  0  0  0
   35.3110   30.5010   36.9140 H   0  0  0  0  0  0  0  0  0  0  0  0
   32.6600   31.0510   37.1980 C   0  0  0  0  0  0  0  0  0  0  0  0
   33.2310   30.7460   38.0940 H   0  0  0  0  0  0  0  0  0  0  0  0
   31.9240   31.8050   37.5500 H   0  0  0  0  0  0  0  0  0  0  0  0
   30.9890   28.7580   34.7540 C   0  0  0  0  0  0  0  0  0  0  0  0
   31.6320   29.9010   35.3220 C   0  0  0  0  0  0  0  0  0  0  0  0
   31.9970   29.8590   36.6370 C   0  0  0  0  0  0  0  0  0  0  0  0
   31.7330   28.7430   37.3300 N   0  0  0  0  0  0  0  0  0  0  0  0
   31.1310   27.6730   36.8000 C   0  0  0  0  0  0  0  0  0  0  0  0
   30.7670   27.6970   35.5130 N   0  0  0  0  0  0  0  0  0  0  0  0
   30.7360   28.8810   33.7090 H   0  0  0  0  0  0  0  0  0  0  0  0
   31.8270   30.7840   34.7210 H   0  0  0  0  0  0  0  0  0  0  0  0
   30.9040   26.7640   37.3290 H   0  0  0  0  0  0  0  0  0  0  0  0
  1  3  1  0  0  0  0
  1 28  1  0  0  0  0
  2  1  1  0  0  0  0
  4 13  1  0  0  0  0
  5  4  1  0  0  0  0
  5  1  1  0  0  0  0
  6  5  2  0  0  0  0
  7 11  2  0  0  0  0
  7  6  1  0  0  0  0
  8  7  1  0  0  0  0
  9  8  1  0  0  0  0
  9 10  2  0  0  0  0
 10 11  1  0  0  0  0
 11 12  1  0  0  0  0
 12 18  1  0  0  0  0
 12  4  2  0  0  0  0
 14  6  1  0  0  0  0
 15  8  1  0  0  0  0
 16  9  1  0  0  0  0
 17 10  1  0  0  0  0
 18 25  1  0  0  0  0
 19 20  2  0  0  0  0
 19 18  1  0  0  0  0
 20 22  1  0  0  0  0
 21 20  1  0  0  0  0
 22 23  2  0  0  0  0
 22 24  1  0  0  0  0
 24 27  1  0  0  0  0
 25 24  1  0  0  0  0
 25 26  2  0  0  0  0
 28 33  1  0  0  0  0
 29 28  1  0  0  0  0
 30 28  1  0  0  0  0
 31 34  1  6  0  0  0
 31 32  1  0  0  0  0
 31 38  1  0  0  0  0
 32 36  1  0  0  0  0
 33 31  1  0  0  0  0
 33 32  1  0  0  0  0
 33 37  1  1  0  0  0
 35 32  1  0  0  0  0
 38 40  1  0  0  0  0
 38 39  1  0  0  0  0
 41 42  2  0  0  0  0
 41 46  1  0  0  0  0
 42 43  1  0  0  0  0
 43 38  1  0  0  0  0
 43 44  2  0  0  0  0
 45 49  1  0  0  0  0
 45 44  1  0  0  0  0
 46 45  2  0  0  0  0
 47 41  1  0  0  0  0
 48 42  1  0  0  0  0
M  END
>  <minimizedAffinity>
-6.3033843

$$$$

 OpenBabel03262520523D

 49 53  0  0  1  0  0  0  0  0999 V2000
   36.8190   23.8530   31.1130 C   0  0  0  0  0  0  0  0  0  0  0  0
   36.5370   24.6870   30.4080 H   0  0  0  0  0  0  0  0  0  0  0  0
   37.5920   23.1890   30.6450 H   0  0  0  0  0  0  0  0  0  0  0  0
   38.2060   23.7590   33.1620 C   0  0  0  0  0  0  0  0  0  0  0  0
   37.3300   24.4850   32.3720 C   0  0  0  0  0  0  0  0  0  0  0  0
   36.9440   25.7740   32.7570 C   0  0  0  0  0  0  0  0  0  0  0  0
   37.4270   26.3320   33.9180 C   0  0  0  0  0  0  0  0  0  0  0  0
   37.2160   27.5220   34.4950 N   0  0  0  0  0  0  0  0  0  0  0  0
   37.9470   27.5480   35.6310 C   0  0  0  0  0  0  0  0  0  0  0  0
   38.6460   26.3840   35.8190 C   0  0  0  0  0  0  0  0  0  0  0  0
   38.3090   25.6020   34.7120 C   0  0  0  0  0  0  0  0  0  0  0  0
   38.6830   24.3370   34.3280 C   0  0  0  0  0  0  0  0  0  0  0  0
   38.5650   22.7780   32.9650 H   0  0  0  0  0  0  0  0  0  0  0  0
   36.2590   26.3180   32.1240 H   0  0  0  0  0  0  0  0  0  0  0  0
   36.6000   28.3140   34.1530 H   0  0  0  0  0  0  0  0  0  0  0  0
   37.9940   28.3770   36.3300 H   0  0  0  0  0  0  0  0  0  0  0  0
   39.3110   26.1130   36.6290 H   0  0  0  0  0  0  0  0  0  0  0  0
   39.5870   23.6410   35.1800 N   0  0  0  0  0  0  0  0  0  0  0  0
   40.9090   23.7170   35.2730 C   0  0  0  0  0  3  0  0  0  0  0  0
   41.5770   22.9350   36.1850 C   0  0  0  0  0  0  0  0  0  0  0  0
   42.6480   23.0280   36.2270 H   0  0  0  0  0  0  0  0  0  0  0  0
   40.9240   22.0560   37.0240 C   0  0  0  0  0  0  0  0  0  0  0  0
   41.5380   21.3440   37.8550 O   0  0  0  0  0  0  0  0  0  0  0  0
   39.5750   22.0150   36.8900 N   0  0  0  0  0  0  0  0  0  0  0  0
   38.9140   22.7800   35.9980 C   0  0  0  0  0  0  0  0  0  0  0  0
   37.6620   22.6030   36.0200 O   0  0  0  0  0  0  0  0  0  0  0  0
   39.0960   21.3370   37.5420 H   0  0  0  0  0  0  0  0  0  0  0  0
   35.5990   23.0270   31.4750 C   0  0  0  0  0  0  0  0  0  0  0  0
   35.0880   23.5860   32.2840 H   0  0  0  0  0  0  0  0  0  0  0  0
   34.9780   22.9410   30.5410 H   0  0  0  0  0  0  0  0  0  0  0  0
   35.4730   20.5420   31.0480 C   0  0  1  0  0  0  0  0  0  0  0  0
   34.9020   20.7080   32.4370 C   0  0  0  0  0  0  0  0  0  0  0  0
   35.9160   21.6460   31.9150 C   0  0  2  0  0  0  0  0  0  0  0  0
   34.7830   20.7750   30.1970 H   0  0  0  0  0  0  0  0  0  0  0  0
   33.8740   21.1430   32.5360 H   0  0  0  0  0  0  0  0  0  0  0  0
   35.1580   19.9610   33.2060 H   0  0  0  0  0  0  0  0  0  0  0  0
   36.9390   21.4800   32.3660 H   0  0  0  0  0  0  0  0  0  0  0  0
   36.3070   19.3180   30.8360 C   0  0  0  0  0  0  0  0  0  0  0  0
   36.9690   19.1870   31.7120 H   0  0  0  0  0  0  0  0  0  0  0  0
   35.6600   18.4160   30.8050 H   0  0  0  0  0  0  0  0  0  0  0  0
   37.5130   18.8900   27.3160 C   0  0  0  0  0  0  0  0  0  0  0  0
   36.7180   18.7930   28.5000 C   0  0  0  0  0  0  0  0  0  0  0  0
   37.1450   19.4330   29.6280 C   0  0  0  0  0  0  0  0  0  0  0  0
   38.2920   20.1230   29.5660 N   0  0  0  0  0  0  0  0  0  0  0  0
   39.0370   20.2150   28.4590 C   0  0  0  0  0  0  0  0  0  0  0  0
   38.6340   19.5930   27.3450 N   0  0  0  0  0  0  0  0  0  0  0  0
   37.0990   18.3520   26.4750 H   0  0  0  0  0  0  0  0  0  0  0  0
   35.7950   18.2220   28.5030 H   0  0  0  0  0  0  0  0  0  0  0  0
   39.9610   20.7590   28.3770 H   0  0  0  0  0  0  0  0  0  0  0  0
  1 28  1  0  0  0  0
  1  5  1  0  0  0  0
  2  1  1  0  0  0  0
  3  1  1  0  0  0  0
  4 12  1  0  0  0  0
  5  6  1  0  0  0  0
  5  4  2  0  0  0  0
  6  7  2  0  0  0  0
  7  8  1  0  0  0  0
  7 11  1  0  0  0  0
  8  9  1  0  0  0  0
  9 10  2  0  0  0  0
  9 16  1  0  0  0  0
 10 17  1  0  0  0  0
 11 10  1  0  0  0  0
 12 11  2  0  0  0  0
 12 18  1  0  0  0  0
 13  4  1  0  0  0  0
 14  6  1  0  0  0  0
 15  8  1  0  0  0  0
 18 19  1  0  0  0  0
 18 25  1  0  0  0  0
 19 20  2  0  0  0  0
 20 21  1  0  0  0  0
 20 22  1  0  0  0  0
 22 23  2  0  0  0  0
 24 22  1  0  0  0  0
 24 27  1  0  0  0  0
 25 26  2  0  0  0  0
 25 24  1  0  0  0  0
 28 33  1  0  0  0  0
 28 29  1  0  0  0  0
 30 28  1  0  0  0  0
 31 34  1  6  0  0  0
 31 33  1  0  0  0  0
 31 32  1  0  0  0  0
 32 35  1  0  0  0  0
 32 36  1  0  0  0  0
 33 37  1  1  0  0  0
 33 32  1  0  0  0  0
 38 31  1  0  0  0  0
 38 39  1  0  0  0  0
 40 38  1  0  0  0  0
 41 46  2  0  0  0  0
 41 42  1  0  0  0  0
 42 48  1  0  0  0  0
 42 43  2  0  0  0  0
 43 38  1  0  0  0  0
 44 43  1  0  0  0  0
 45 44  2  0  0  0  0
 46 45  1  0  0  0  0
 47 41  1  0  0  0  0
 49 45  1  0  0  0  0
M  END
>  <minimizedAffinity>
-6.27873087

$$$$

 OpenBabel03262520523D

 49 53  0  0  1  0  0  0  0  0999 V2000
   37.4270   26.1240   34.0790 C   0  0  0  0  0  0  0  0  0  0  0  0
   36.5490   25.4850   34.3850 H   0  0  0  0  0  0  0  0  0  0  0  0
   38.0190   25.6170   33.2730 H   0  0  0  0  0  0  0  0  0  0  0  0
   36.3620   28.3080   34.5580 C   0  0  0  0  0  0  0  0  0  0  0  0
   36.8800   27.4380   33.6110 C   0  0  0  0  0  0  0  0  0  0  0  0
   36.8830   27.7980   32.2590 C   0  0  0  0  0  0  0  0  0  0  0  0
   36.3740   29.0110   31.8550 C   0  0  0  0  0  0  0  0  0  0  0  0
   36.2640   29.5780   30.6470 N   0  0  0  0  0  0  0  0  0  0  0  0
   35.6860   30.7860   30.8270 C   0  0  0  0  0  0  0  0  0  0  0  0
   35.4080   31.0310   32.1470 C   0  0  0  0  0  0  0  0  0  0  0  0
   35.8540   29.8850   32.8070 C   0  0  0  0  0  0  0  0  0  0  0  0
   35.8540   29.5250   34.1330 C   0  0  0  0  0  0  0  0  0  0  0  0
   36.3110   28.1380   35.6060 H   0  0  0  0  0  0  0  0  0  0  0  0
   37.2930   27.1020   31.5410 H   0  0  0  0  0  0  0  0  0  0  0  0
   36.5630   29.1830   29.7100 H   0  0  0  0  0  0  0  0  0  0  0  0
   35.4560   31.4970   30.0390 H   0  0  0  0  0  0  0  0  0  0  0  0
   34.9500   31.9040   32.5950 H   0  0  0  0  0  0  0  0  0  0  0  0
   35.3080   30.4600   35.0590 N   0  0  0  0  0  0  0  0  0  0  0  0
   35.8990   31.4310   35.7450 C   0  0  0  0  0  3  0  0  0  0  0  0
   35.1570   32.2190   36.5920 C   0  0  0  0  0  0  0  0  0  0  0  0
   35.6750   32.9940   37.1300 H   0  0  0  0  0  0  0  0  0  0  0  0
   33.8000   32.0430   36.7670 C   0  0  0  0  0  0  0  0  0  0  0  0
   33.1270   32.7650   37.5420 O   0  0  0  0  0  0  0  0  0  0  0  0
   33.2440   31.0380   36.0440 N   0  0  0  0  0  0  0  0  0  0  0  0
   33.9660   30.2630   35.2110 C   0  0  0  0  0  0  0  0  0  0  0  0
   33.2750   29.3810   34.6250 O   0  0  0  0  0  0  0  0  0  0  0  0
   32.2060   30.9220   36.1920 H   0  0  0  0  0  0  0  0  0  0  0  0
   38.3270   26.3970   35.2680 C   0  0  0  0  0  0  0  0  0  0  0  0
   39.2190   26.9130   34.8580 H   0  0  0  0  0  0  0  0  0  0  0  0
   37.7380   27.0390   35.9810 H   0  0  0  0  0  0  0  0  0  0  0  0
   37.7680   24.0630   36.0510 C   0  0  1  0  0  0  0  0  0  0  0  0
   38.1490   24.7960   37.3160 C   0  0  0  0  0  0  0  0  0  0  0  0
   38.7280   25.1780   36.0130 C   0  0  2  0  0  0  0  0  0  0  0  0
   36.7300   24.2380   35.6690 H   0  0  0  0  0  0  0  0  0  0  0  0
   37.4200   25.5370   37.7360 H   0  0  0  0  0  0  0  0  0  0  0  0
   38.7490   24.2650   38.0740 H   0  0  0  0  0  0  0  0  0  0  0  0
   39.8010   24.8420   35.8960 H   0  0  0  0  0  0  0  0  0  0  0  0
   38.2090   22.6350   35.9750 C   0  0  0  0  0  0  0  0  0  0  0  0
   39.2600   22.6100   35.6330 H   0  0  0  0  0  0  0  0  0  0  0  0
   38.2070   22.1800   36.9880 H   0  0  0  0  0  0  0  0  0  0  0  0
   35.5250   20.3950   34.6310 C   0  0  0  0  0  0  0  0  0  0  0  0
   36.3360   21.1540   35.5310 C   0  0  0  0  0  0  0  0  0  0  0  0
   37.3890   21.8610   35.0250 C   0  0  0  0  0  0  0  0  0  0  0  0
   37.6070   21.8090   33.7040 N   0  0  0  0  0  0  0  0  0  0  0  0
   36.8490   21.1010   32.8600 C   0  0  0  0  0  0  0  0  0  0  0  0
   35.8140   20.4010   33.3390 N   0  0  0  0  0  0  0  0  0  0  0  0
   34.7180   19.8680   35.1190 H   0  0  0  0  0  0  0  0  0  0  0  0
   36.1210   21.1660   36.5950 H   0  0  0  0  0  0  0  0  0  0  0  0
   36.9980   21.0370   31.7970 H   0  0  0  0  0  0  0  0  0  0  0  0
  1  2  1  0  0  0  0
  1 28  1  0  0  0  0
  3  1  1  0  0  0  0
  4 13  1  0  0  0  0
  5  1  1  0  0  0  0
  5  4  2  0  0  0  0
  6  5  1  0  0  0  0
  7  6  2  0  0  0  0
  7 11  1  0  0  0  0
  8  9  1  0  0  0  0
  8  7  1  0  0  0  0
  9 10  2  0  0  0  0
 10 17  1  0  0  0  0
 10 11  1  0  0  0  0
 11 12  2  0  0  0  0
 12  4  1  0  0  0  0
 12 18  1  0  0  0  0
 14  6  1  0  0  0  0
 15  8  1  0  0  0  0
 16  9  1  0  0  0  0
 18 25  1  0  0  0  0
 18 19  1  0  0  0  0
 19 20  2  0  0  0  0
 20 22  1  0  0  0  0
 20 21  1  0  0  0  0
 22 23  2  0  0  0  0
 24 27  1  0  0  0  0
 24 22  1  0  0  0  0
 25 24  1  0  0  0  0
 26 25  2  0  0  0  0
 28 30  1  0  0  0  0
 28 33  1  0  0  0  0
 29 28  1  0  0  0  0
 31 34  1  6  0  0  0
 31 32  1  0  0  0  0
 32 35  1  0  0  0  0
 32 36  1  0  0  0  0
 33 37  1  6  0  0  0
 33 31  1  0  0  0  0
 33 32  1  0  0  0  0
 38 31  1  0  0  0  0
 38 40  1  0  0  0  0
 39 38  1  0  0  0  0
 41 47  1  0  0  0  0
 41 42  1  0  0  0  0
 42 48  1  0  0  0  0
 43 42  2  0  0  0  0
 43 38  1  0  0  0  0
 44 43  1  0  0  0  0
 45 46  1  0  0  0  0
 45 44  2  0  0  0  0
 46 41  2  0  0  0  0
 49 45  1  0  0  0  0
M  END
>  <minimizedAffinity>
-6.24186039

$$$$

 OpenBabel03262520523D

 49 53  0  0  1  0  0  0  0  0999 V2000
   37.0650   27.4170   33.7630 C   0  0  0  0  0  0  0  0  0  0  0  0
   37.6520   27.6120   34.7060 H   0  0  0  0  0  0  0  0  0  0  0  0
   36.4090   26.5160   33.8890 H   0  0  0  0  0  0  0  0  0  0  0  0
   35.8220   29.4090   34.5500 C   0  0  0  0  0  0  0  0  0  0  0  0
   36.2570   28.6470   33.4780 C   0  0  0  0  0  0  0  0  0  0  0  0
   35.9390   29.0320   32.1700 C   0  0  0  0  0  0  0  0  0  0  0  0
   35.1960   30.1660   31.9360 C   0  0  0  0  0  0  0  0  0  0  0  0
   34.7670   30.7370   30.8020 N   0  0  0  0  0  0  0  0  0  0  0  0
   34.0740   31.8420   31.1520 C   0  0  0  0  0  0  0  0  0  0  0  0
   34.0340   32.0150   32.5120 C   0  0  0  0  0  0  0  0  0  0  0  0
   34.7590   30.9330   33.0130 C   0  0  0  0  0  0  0  0  0  0  0  0
   35.0750   30.5480   34.2940 C   0  0  0  0  0  0  0  0  0  0  0  0
   36.0060   29.2110   35.5780 H   0  0  0  0  0  0  0  0  0  0  0  0
   36.2900   28.4190   31.3520 H   0  0  0  0  0  0  0  0  0  0  0  0
   34.9250   30.4110   29.8060 H   0  0  0  0  0  0  0  0  0  0  0  0
   33.5940   32.5290   30.4610 H   0  0  0  0  0  0  0  0  0  0  0  0
   33.5580   32.8010   33.0840 H   0  0  0  0  0  0  0  0  0  0  0  0
   34.6000   31.3720   35.3550 N   0  0  0  0  0  0  0  0  0  0  0  0
   33.4920   31.2800   36.0810 C   0  0  0  0  0  3  0  0  0  0  0  0
   33.2420   32.2050   37.0660 C   0  0  0  0  0  0  0  0  0  0  0  0
   32.3330   32.0950   37.6310 H   0  0  0  0  0  0  0  0  0  0  0  0
   34.1060   33.2450   37.3410 C   0  0  0  0  0  0  0  0  0  0  0  0
   33.8730   34.0880   38.2420 O   0  0  0  0  0  0  0  0  0  0  0  0
   35.2230   33.2950   36.5720 N   0  0  0  0  0  0  0  0  0  0  0  0
   35.4740   32.3900   35.6050 C   0  0  0  0  0  0  0  0  0  0  0  0
   36.5620   32.6000   34.9960 O   0  0  0  0  0  0  0  0  0  0  0  0
   35.8690   34.0970   36.8000 H   0  0  0  0  0  0  0  0  0  0  0  0
   38.0000   27.1990   32.5900 C   0  0  0  0  0  0  0  0  0  0  0  0
   37.4320   26.5820   31.8640 H   0  0  0  0  0  0  0  0  0  0  0  0
   38.2630   28.2170   32.1900 H   0  0  0  0  0  0  0  0  0  0  0  0
   39.7280   26.6530   34.3480 C   0  0  1  0  0  0  0  0  0  0  0  0
   40.5270   27.2680   33.2230 C   0  0  0  0  0  0  0  0  0  0  0  0
   39.2750   26.5330   32.9520 C   0  0  2  0  0  0  0  0  0  0  0  0
   39.1910   27.3650   35.0240 H   0  0  0  0  0  0  0  0  0  0  0  0
   40.4560   28.3770   33.0710 H   0  0  0  0  0  0  0  0  0  0  0  0
   41.5090   26.8350   32.9730 H   0  0  0  0  0  0  0  0  0  0  0  0
   39.4570   25.5090   32.5070 H   0  0  0  0  0  0  0  0  0  0  0  0
   40.3910   25.5190   35.0640 C   0  0  0  0  0  0  0  0  0  0  0  0
   41.0710   25.0060   34.3590 H   0  0  0  0  0  0  0  0  0  0  0  0
   41.0370   25.9090   35.8800 H   0  0  0  0  0  0  0  0  0  0  0  0
   37.4790   24.0660   36.9170 C   0  0  0  0  0  0  0  0  0  0  0  0
   38.4440   24.9950   36.4180 C   0  0  0  0  0  0  0  0  0  0  0  0
   39.4080   24.5410   35.5650 C   0  0  0  0  0  0  0  0  0  0  0  0
   39.3990   23.2420   35.2360 N   0  0  0  0  0  0  0  0  0  0  0  0
   38.4960   22.3710   35.7000 C   0  0  0  0  0  0  0  0  0  0  0  0
   37.5450   22.7990   36.5390 N   0  0  0  0  0  0  0  0  0  0  0  0
   36.7560   24.5130   37.5850 H   0  0  0  0  0  0  0  0  0  0  0  0
   38.4120   26.0390   36.7120 H   0  0  0  0  0  0  0  0  0  0  0  0
   38.4620   21.3240   35.4570 H   0  0  0  0  0  0  0  0  0  0  0  0
  1  3  1  0  0  0  0
  1  2  1  0  0  0  0
  4 13  1  0  0  0  0
  5  1  1  0  0  0  0
  5  4  2  0  0  0  0
  6  5  1  0  0  0  0
  7  6  2  0  0  0  0
  7 11  1  0  0  0  0
  8  9  1  0  0  0  0
  8  7  1  0  0  0  0
  9 10  2  0  0  0  0
 10 11  1  0  0  0  0
 10 17  1  0  0  0  0
 11 12  2  0  0  0  0
 12  4  1  0  0  0  0
 12 18  1  0  0  0  0
 14  6  1  0  0  0  0
 15  8  1  0  0  0  0
 16  9  1  0  0  0  0
 18 25  1  0  0  0  0
 18 19  1  0  0  0  0
 19 20  2  0  0  0  0
 20 22  1  0  0  0  0
 20 21  1  0  0  0  0
 22 23  2  0  0  0  0
 24 27  1  0  0  0  0
 24 22  1  0  0  0  0
 25 24  1  0  0  0  0
 26 25  2  0  0  0  0
 28 33  1  0  0  0  0
 28  1  1  0  0  0  0
 29 28  1  0  0  0  0
 30 28  1  0  0  0  0
 31 34  1  1  0  0  0
 31 38  1  0  0  0  0
 32 31  1  0  0  0  0
 33 37  1  6  0  0  0
 33 32  1  0  0  0  0
 33 31  1  0  0  0  0
 35 32  1  0  0  0  0
 36 32  1  0  0  0  0
 38 43  1  0  0  0  0
 38 40  1  0  0  0  0
 39 38  1  0  0  0  0
 41 47  1  0  0  0  0
 42 48  1  0  0  0  0
 42 41  2  0  0  0  0
 43 42  1  0  0  0  0
 44 43  2  0  0  0  0
 44 45  1  0  0  0  0
 45 46  2  0  0  0  0
 46 41  1  0  0  0  0
 49 45  1  0  0  0  0
M  END
>  <minimizedAffinity>
-6.12788773

$$$$

 OpenBabel03262520523D

 49 53  0  0  1  0  0  0  0  0999 V2000
   36.9930   26.3710   32.4470 C   0  0  0  0  0  0  0  0  0  0  0  0
   37.3320   26.1940   33.5090 H   0  0  0  0  0  0  0  0  0  0  0  0
   36.1580   25.6710   32.1810 H   0  0  0  0  0  0  0  0  0  0  0  0
   36.1130   28.4330   33.4990 C   0  0  0  0  0  0  0  0  0  0  0  0
   36.5610   27.8020   32.3490 C   0  0  0  0  0  0  0  0  0  0  0  0
   36.6000   28.5010   31.1370 C   0  0  0  0  0  0  0  0  0  0  0  0
   36.1970   29.8150   31.0740 C   0  0  0  0  0  0  0  0  0  0  0  0
   36.1400   30.6860   30.0570 N   0  0  0  0  0  0  0  0  0  0  0  0
   35.6650   31.8480   30.5570 C   0  0  0  0  0  0  0  0  0  0  0  0
   35.4030   31.7620   31.9000 C   0  0  0  0  0  0  0  0  0  0  0  0
   35.7470   30.4500   32.2300 C   0  0  0  0  0  0  0  0  0  0  0  0
   35.7110   29.7570   33.4160 C   0  0  0  0  0  0  0  0  0  0  0  0
   36.0430   28.0000   34.4670 H   0  0  0  0  0  0  0  0  0  0  0  0
   36.9530   27.9860   30.2550 H   0  0  0  0  0  0  0  0  0  0  0  0
   36.4090   30.5270   29.0440 H   0  0  0  0  0  0  0  0  0  0  0  0
   35.4990   32.7570   29.9870 H   0  0  0  0  0  0  0  0  0  0  0  0
   35.0180   32.5210   32.5680 H   0  0  0  0  0  0  0  0  0  0  0  0
   35.2420   30.4580   34.5630 N   0  0  0  0  0  0  0  0  0  0  0  0
   35.8950   31.2350   35.4190 C   0  0  0  0  0  3  0  0  0  0  0  0
   35.2220   31.8150   36.4680 C   0  0  0  0  0  0  0  0  0  0  0  0
   35.7890   32.4370   37.1380 H   0  0  0  0  0  0  0  0  0  0  0  0
   33.8720   31.6220   36.6770 C   0  0  0  0  0  0  0  0  0  0  0  0
   33.2610   32.1530   37.6360 O   0  0  0  0  0  0  0  0  0  0  0  0
   33.2510   30.8200   35.7750 N   0  0  0  0  0  0  0  0  0  0  0  0
   33.9060   30.2490   34.7450 C   0  0  0  0  0  0  0  0  0  0  0  0
   33.1600   29.5370   34.0130 O   0  0  0  0  0  0  0  0  0  0  0  0
   32.2200   30.6870   35.9530 H   0  0  0  0  0  0  0  0  0  0  0  0
   38.1440   26.1700   31.4810 C   0  0  0  0  0  0  0  0  0  0  0  0
   37.9410   25.2100   30.9660 H   0  0  0  0  0  0  0  0  0  0  0  0
   38.1400   27.0530   30.7830 H   0  0  0  0  0  0  0  0  0  0  0  0
   39.6620   26.9660   33.3360 C   0  0  1  0  0  0  0  0  0  0  0  0
   40.4360   27.2610   32.0720 C   0  0  0  0  0  0  0  0  0  0  0  0
   39.4780   26.1390   32.1310 C   0  0  2  0  0  0  0  0  0  0  0  0
   38.8610   27.6980   33.6090 H   0  0  0  0  0  0  0  0  0  0  0  0
   40.1030   28.1230   31.4390 H   0  0  0  0  0  0  0  0  0  0  0  0
   41.5240   27.0820   32.0650 H   0  0  0  0  0  0  0  0  0  0  0  0
   39.9870   25.1310   32.1960 H   0  0  0  0  0  0  0  0  0  0  0  0
   40.4800   26.4990   34.4980 C   0  0  0  0  0  0  0  0  0  0  0  0
   41.4340   26.0900   34.1170 H   0  0  0  0  0  0  0  0  0  0  0  0
   40.7540   27.3610   35.1430 H   0  0  0  0  0  0  0  0  0  0  0  0
   37.8640   24.7260   36.5080 C   0  0  0  0  0  0  0  0  0  0  0  0
   38.5540   25.7330   35.7660 C   0  0  0  0  0  0  0  0  0  0  0  0
   39.7890   25.4430   35.2610 C   0  0  0  0  0  0  0  0  0  0  0  0
   40.2920   24.2210   35.4870 N   0  0  0  0  0  0  0  0  0  0  0  0
   39.6470   23.2770   36.1810 C   0  0  0  0  0  0  0  0  0  0  0  0
   38.4360   23.5460   36.6840 N   0  0  0  0  0  0  0  0  0  0  0  0
   36.8960   25.0440   36.8690 H   0  0  0  0  0  0  0  0  0  0  0  0
   38.1070   26.7090   35.6070 H   0  0  0  0  0  0  0  0  0  0  0  0
   40.0230   22.2890   36.3820 H   0  0  0  0  0  0  0  0  0  0  0  0
  1  2  1  0  0  0  0
  3  1  1  0  0  0  0
  4 13  1  0  0  0  0
  5  1  1  0  0  0  0
  5  4  2  0  0  0  0
  6  5  1  0  0  0  0
  7  6  2  0  0  0  0
  7 11  1  0  0  0  0
  8  9  1  0  0  0  0
  8  7  1  0  0  0  0
  9 10  2  0  0  0  0
 10 11  1  0  0  0  0
 10 17  1  0  0  0  0
 11 12  2  0  0  0  0
 12  4  1  0  0  0  0
 12 18  1  0  0  0  0
 14  6  1  0  0  0  0
 15  8  1  0  0  0  0
 16  9  1  0  0  0  0
 18 25  1  0  0  0  0
 18 19  1  0  0  0  0
 19 20  2  0  0  0  0
 20 22  1  0  0  0  0
 20 21  1  0  0  0  0
 22 23  2  0  0  0  0
 24 27  1  0  0  0  0
 24 22  1  0  0  0  0
 25 24  1  0  0  0  0
 26 25  2  0  0  0  0
 28 33  1  0  0  0  0
 28  1  1  0  0  0  0
 29 28  1  0  0  0  0
 30 28  1  0  0  0  0
 31 34  1  1  0  0  0
 31 38  1  0  0  0  0
 32 33  1  0  0  0  0
 32 31  1  0  0  0  0
 33 37  1  1  0  0  0
 33 31  1  0  0  0  0
 35 32  1  0  0  0  0
 36 32  1  0  0  0  0
 38 40  1  0  0  0  0
 38 43  1  0  0  0  0
 39 38  1  0  0  0  0
 41 46  1  0  0  0  0
 41 47  1  0  0  0  0
 42 41  2  0  0  0  0
 43 44  2  0  0  0  0
 43 42  1  0  0  0  0
 44 45  1  0  0  0  0
 45 49  1  0  0  0  0
 45 46  2  0  0  0  0
 48 42  1  0  0  0  0
M  END
>  <minimizedAffinity>
-6.04975319

$$$$

 OpenBabel03262520523D

 49 53  0  0  1  0  0  0  0  0999 V2000
   37.5260   26.7420   32.8390 C   0  0  0  0  0  0  0  0  0  0  0  0
   36.9710   26.1870   33.6500 H   0  0  0  0  0  0  0  0  0  0  0  0
   37.5180   26.1520   31.8860 H   0  0  0  0  0  0  0  0  0  0  0  0
   36.2920   28.6700   33.7820 C   0  0  0  0  0  0  0  0  0  0  0  0
   36.8550   28.0700   32.6670 C   0  0  0  0  0  0  0  0  0  0  0  0
   36.7880   28.7050   31.4220 C   0  0  0  0  0  0  0  0  0  0  0  0
   36.1650   29.9250   31.2910 C   0  0  0  0  0  0  0  0  0  0  0  0
   35.9710   30.7220   30.2310 N   0  0  0  0  0  0  0  0  0  0  0  0
   35.2970   31.8080   30.6690 C   0  0  0  0  0  0  0  0  0  0  0  0
   35.0380   31.7440   32.0140 C   0  0  0  0  0  0  0  0  0  0  0  0
   35.5990   30.5290   32.4110 C   0  0  0  0  0  0  0  0  0  0  0  0
   35.6690   29.8990   33.6310 C   0  0  0  0  0  0  0  0  0  0  0  0
   36.2860   28.2800   34.7710 H   0  0  0  0  0  0  0  0  0  0  0  0
   37.2340   28.2160   30.5680 H   0  0  0  0  0  0  0  0  0  0  0  0
   36.2760   30.5620   29.2280 H   0  0  0  0  0  0  0  0  0  0  0  0
   34.9840   32.6450   30.0530 H   0  0  0  0  0  0  0  0  0  0  0  0
   34.5200   32.4570   32.6420 H   0  0  0  0  0  0  0  0  0  0  0  0
   35.0730   30.5650   34.7390 N   0  0  0  0  0  0  0  0  0  0  0  0
   35.5950   31.4280   35.6030 C   0  0  0  0  0  3  0  0  0  0  0  0
   34.8130   31.9470   36.6080 C   0  0  0  0  0  0  0  0  0  0  0  0
   35.2760   32.6430   37.2860 H   0  0  0  0  0  0  0  0  0  0  0  0
   33.4860   31.6060   36.7640 C   0  0  0  0  0  0  0  0  0  0  0  0
   32.7770   32.0830   37.6830 O   0  0  0  0  0  0  0  0  0  0  0  0
   33.0000   30.7210   35.8570 N   0  0  0  0  0  0  0  0  0  0  0  0
   33.7610   30.2090   34.8690 C   0  0  0  0  0  0  0  0  0  0  0  0
   33.1350   29.4030   34.1240 O   0  0  0  0  0  0  0  0  0  0  0  0
   31.9840   30.4750   35.9940 H   0  0  0  0  0  0  0  0  0  0  0  0
   38.9600   27.0020   33.2580 C   0  0  0  0  0  0  0  0  0  0  0  0
   39.5900   26.4690   32.5180 H   0  0  0  0  0  0  0  0  0  0  0  0
   39.1070   28.1170   33.2390 H   0  0  0  0  0  0  0  0  0  0  0  0
   38.2030   25.8810   35.3910 C   0  0  1  0  0  0  0  0  0  0  0  0
   38.7600   27.2090   35.8480 C   0  0  0  0  0  0  0  0  0  0  0  0
   39.2770   26.5460   34.6340 C   0  0  2  0  0  0  0  0  0  0  0  0
   37.1660   25.8950   34.9710 H   0  0  0  0  0  0  0  0  0  0  0  0
   38.1530   28.1310   35.6520 H   0  0  0  0  0  0  0  0  0  0  0  0
   39.3530   27.2420   36.7770 H   0  0  0  0  0  0  0  0  0  0  0  0
   40.2940   26.0770   34.7920 H   0  0  0  0  0  0  0  0  0  0  0  0
   38.4750   24.7220   36.2970 C   0  0  0  0  0  0  0  0  0  0  0  0
   39.0560   25.0820   37.1650 H   0  0  0  0  0  0  0  0  0  0  0  0
   37.5210   24.3290   36.7100 H   0  0  0  0  0  0  0  0  0  0  0  0
   39.3660   21.9480   33.9430 C   0  0  0  0  0  0  0  0  0  0  0  0
   38.6330   22.9730   34.6180 C   0  0  0  0  0  0  0  0  0  0  0  0
   39.2520   23.6690   35.6170 C   0  0  0  0  0  0  0  0  0  0  0  0
   40.5200   23.3540   35.9130 N   0  0  0  0  0  0  0  0  0  0  0  0
   41.2070   22.3960   35.2820 C   0  0  0  0  0  0  0  0  0  0  0  0
   40.6160   21.7040   34.3010 N   0  0  0  0  0  0  0  0  0  0  0  0
   38.7970   21.4510   33.1690 H   0  0  0  0  0  0  0  0  0  0  0  0
   37.6070   23.1940   34.3430 H   0  0  0  0  0  0  0  0  0  0  0  0
   42.2240   22.1180   35.4970 H   0  0  0  0  0  0  0  0  0  0  0  0
  1 28  1  0  0  0  0
  1  2  1  0  0  0  0
  3  1  1  0  0  0  0
  4 13  1  0  0  0  0
  5  1  1  0  0  0  0
  5  4  2  0  0  0  0
  6  5  1  0  0  0  0
  7  6  2  0  0  0  0
  7 11  1  0  0  0  0
  8  9  1  0  0  0  0
  8  7  1  0  0  0  0
  9 10  2  0  0  0  0
 10 11  1  0  0  0  0
 10 17  1  0  0  0  0
 11 12  2  0  0  0  0
 12  4  1  0  0  0  0
 12 18  1  0  0  0  0
 14  6  1  0  0  0  0
 15  8  1  0  0  0  0
 16  9  1  0  0  0  0
 18 25  1  0  0  0  0
 18 19  1  0  0  0  0
 19 20  2  0  0  0  0
 20 22  1  0  0  0  0
 20 21  1  0  0  0  0
 22 23  2  0  0  0  0
 24 27  1  0  0  0  0
 24 22  1  0  0  0  0
 25 24  1  0  0  0  0
 26 25  2  0  0  0  0
 28 33  1  0  0  0  0
 29 28  1  0  0  0  0
 30 28  1  0  0  0  0
 31 34  1  6  0  0  0
 31 32  1  0  0  0  0
 31 38  1  0  0  0  0
 32 36  1  0  0  0  0
 33 37  1  1  0  0  0
 33 31  1  0  0  0  0
 33 32  1  0  0  0  0
 35 32  1  0  0  0  0
 38 40  1  0  0  0  0
 38 39  1  0  0  0  0
 41 46  2  0  0  0  0
 41 42  1  0  0  0  0
 42 43  2  0  0  0  0
 43 44  1  0  0  0  0
 43 38  1  0  0  0  0
 45 49  1  0  0  0  0
 45 44  2  0  0  0  0
 46 45  1  0  0  0  0
 47 41  1  0  0  0  0
 48 42  1  0  0  0  0
M  END
>  <minimizedAffinity>
-6.03205442

$$$$

 OpenBabel03262520523D

 49 53  0  0  1  0  0  0  0  0999 V2000
   40.3050   27.1510   34.0350 C   0  0  0  0  0  0  0  0  0  0  0  0
   39.4660   27.6450   34.6060 H   0  0  0  0  0  0  0  0  0  0  0  0
   41.2490   27.7470   34.1340 H   0  0  0  0  0  0  0  0  0  0  0  0
   39.3300   25.0050   34.7920 C   0  0  0  0  0  0  0  0  0  0  0  0
   40.4680   25.7690   34.5890 C   0  0  0  0  0  0  0  0  0  0  0  0
   41.7280   25.2440   34.8990 C   0  0  0  0  0  0  0  0  0  0  0  0
   41.8510   23.9710   35.4070 C   0  0  0  0  0  0  0  0  0  0  0  0
   42.9210   23.2540   35.7760 N   0  0  0  0  0  0  0  0  0  0  0  0
   42.4660   22.0560   36.2060 C   0  0  0  0  0  0  0  0  0  0  0  0
   41.1000   21.9660   36.1270 C   0  0  0  0  0  0  0  0  0  0  0  0
   40.7070   23.2030   35.6110 C   0  0  0  0  0  0  0  0  0  0  0  0
   39.4740   23.7250   35.3040 C   0  0  0  0  0  0  0  0  0  0  0  0
   38.3290   25.3010   34.5920 H   0  0  0  0  0  0  0  0  0  0  0  0
   42.5990   25.8610   34.7310 H   0  0  0  0  0  0  0  0  0  0  0  0
   43.9410   23.5410   35.7480 H   0  0  0  0  0  0  0  0  0  0  0  0
   43.0850   21.2440   36.5750 H   0  0  0  0  0  0  0  0  0  0  0  0
   40.4560   21.1390   36.3970 H   0  0  0  0  0  0  0  0  0  0  0  0
   38.3410   22.8920   35.5350 N   0  0  0  0  0  0  0  0  0  0  0  0
   37.7270   22.0370   34.7260 C   0  0  0  0  0  3  0  0  0  0  0  0
   36.6360   21.3330   35.1760 C   0  0  0  0  0  0  0  0  0  0  0  0
   36.1680   20.6500   34.4880 H   0  0  0  0  0  0  0  0  0  0  0  0
   36.1390   21.4760   36.4550 C   0  0  0  0  0  0  0  0  0  0  0  0
   35.1420   20.8310   36.8610 O   0  0  0  0  0  0  0  0  0  0  0  0
   36.8010   22.3610   37.2420 N   0  0  0  0  0  0  0  0  0  0  0  0
   37.8720   23.0540   36.8060 C   0  0  0  0  0  0  0  0  0  0  0  0
   38.3540   23.8290   37.6810 O   0  0  0  0  0  0  0  0  0  0  0  0
   36.4050   22.4550   38.2150 H   0  0  0  0  0  0  0  0  0  0  0  0
   39.9440   27.0200   32.5680 C   0  0  0  0  0  0  0  0  0  0  0  0
   40.5510   27.7830   32.0400 H   0  0  0  0  0  0  0  0  0  0  0  0
   40.2020   25.9670   32.2640 H   0  0  0  0  0  0  0  0  0  0  0  0
   37.9400   26.5000   31.1230 C   0  0  1  0  0  0  0  0  0  0  0  0
   37.9990   28.0100   31.1450 C   0  0  0  0  0  0  0  0  0  0  0  0
   38.5020   27.2130   32.2820 C   0  0  2  0  0  0  0  0  0  0  0  0
   38.6430   25.9860   30.4200 H   0  0  0  0  0  0  0  0  0  0  0  0
   38.7980   28.5150   30.5420 H   0  0  0  0  0  0  0  0  0  0  0  0
   37.0550   28.5750   31.2170 H   0  0  0  0  0  0  0  0  0  0  0  0
   37.8070   27.2380   33.1740 H   0  0  0  0  0  0  0  0  0  0  0  0
   36.5660   25.9080   31.1480 C   0  0  0  0  0  0  0  0  0  0  0  0
   36.0460   26.2620   32.0570 H   0  0  0  0  0  0  0  0  0  0  0  0
   35.9710   26.2880   30.2900 H   0  0  0  0  0  0  0  0  0  0  0  0
   37.8520   22.4030   30.8580 C   0  0  0  0  0  0  0  0  0  0  0  0
   37.7850   23.8300   30.8380 C   0  0  0  0  0  0  0  0  0  0  0  0
   36.6080   24.4350   31.1760 C   0  0  0  0  0  0  0  0  0  0  0  0
   35.5720   23.6540   31.5120 N   0  0  0  0  0  0  0  0  0  0  0  0
   35.6330   22.3190   31.5320 C   0  0  0  0  0  0  0  0  0  0  0  0
   36.7780   21.7100   31.2030 N   0  0  0  0  0  0  0  0  0  0  0  0
   38.8200   22.0130   30.5760 H   0  0  0  0  0  0  0  0  0  0  0  0
   38.6510   24.4220   30.5590 H   0  0  0  0  0  0  0  0  0  0  0  0
   34.8200   21.6650   31.7950 H   0  0  0  0  0  0  0  0  0  0  0  0
  1  3  1  0  0  0  0
  1  5  1  0  0  0  0
  1  2  1  0  0  0  0
  4 12  1  0  0  0  0
  5  4  2  0  0  0  0
  5  6  1  0  0  0  0
  6  7  2  0  0  0  0
  7 11  1  0  0  0  0
  7  8  1  0  0  0  0
  8  9  1  0  0  0  0
  9 16  1  0  0  0  0
 10  9  2  0  0  0  0
 10 17  1  0  0  0  0
 11 10  1  0  0  0  0
 12 18  1  0  0  0  0
 12 11  2  0  0  0  0
 13  4  1  0  0  0  0
 14  6  1  0  0  0  0
 15  8  1  0  0  0  0
 18 25  1  0  0  0  0
 19 20  2  0  0  0  0
 19 18  1  0  0  0  0
 20 22  1  0  0  0  0
 21 20  1  0  0  0  0
 22 23  2  0  0  0  0
 22 24  1  0  0  0  0
 24 27  1  0  0  0  0
 25 24  1  0  0  0  0
 25 26  2  0  0  0  0
 28  1  1  0  0  0  0
 29 28  1  0  0  0  0
 30 28  1  0  0  0  0
 31 34  1  6  0  0  0
 31 32  1  0  0  0  0
 31 38  1  0  0  0  0
 31 33  1  0  0  0  0
 32 36  1  0  0  0  0
 32 33  1  0  0  0  0
 33 28  1  0  0  0  0
 33 37  1  1  0  0  0
 35 32  1  0  0  0  0
 38 43  1  0  0  0  0
 38 39  1  0  0  0  0
 40 38  1  0  0  0  0
 41 46  1  0  0  0  0
 42 41  2  0  0  0  0
 42 43  1  0  0  0  0
 43 44  2  0  0  0  0
 44 45  1  0  0  0  0
 45 49  1  0  0  0  0
 46 45  2  0  0  0  0
 47 41  1  0  0  0  0
 48 42  1  0  0  0  0
M  END
>  <minimizedAffinity>
-5.95701647

$$$$

 OpenBabel03262520523D

 49 53  0  0  1  0  0  0  0  0999 V2000
   36.9870   21.7100   31.0100 C   0  0  0  0  0  0  0  0  0  0  0  0
   37.0630   21.2680   29.9750 H   0  0  0  0  0  0  0  0  0  0  0  0
   37.5010   21.0490   31.7560 H   0  0  0  0  0  0  0  0  0  0  0  0
   37.1320   24.0430   31.8250 C   0  0  0  0  0  0  0  0  0  0  0  0
   37.6110   23.0710   30.9620 C   0  0  0  0  0  0  0  0  0  0  0  0
   38.6500   23.3730   30.0750 C   0  0  0  0  0  0  0  0  0  0  0  0
   39.2060   24.6320   30.0500 C   0  0  0  0  0  0  0  0  0  0  0  0
   40.1900   25.1620   29.3110 N   0  0  0  0  0  0  0  0  0  0  0  0
   40.3310   26.4480   29.7020 C   0  0  0  0  0  0  0  0  0  0  0  0
   39.4480   26.7820   30.6960 C   0  0  0  0  0  0  0  0  0  0  0  0
   38.7250   25.6090   30.9190 C   0  0  0  0  0  0  0  0  0  0  0  0
   37.7040   25.3050   31.7860 C   0  0  0  0  0  0  0  0  0  0  0  0
   36.3510   23.9230   32.5370 H   0  0  0  0  0  0  0  0  0  0  0  0
   39.0050   22.5970   29.4120 H   0  0  0  0  0  0  0  0  0  0  0  0
   40.7670   24.6900   28.5580 H   0  0  0  0  0  0  0  0  0  0  0  0
   41.0480   27.1540   29.2940 H   0  0  0  0  0  0  0  0  0  0  0  0
   39.3240   27.7300   31.2050 H   0  0  0  0  0  0  0  0  0  0  0  0
   37.2550   26.3450   32.6490 N   0  0  0  0  0  0  0  0  0  0  0  0
   37.6030   26.6330   33.8980 C   0  0  0  0  0  3  0  0  0  0  0  0
   37.0250   27.7030   34.5400 C   0  0  0  0  0  0  0  0  0  0  0  0
   37.3360   27.9010   35.5510 H   0  0  0  0  0  0  0  0  0  0  0  0
   36.0820   28.5070   33.9340 C   0  0  0  0  0  0  0  0  0  0  0  0
   35.5580   29.4830   34.5240 O   0  0  0  0  0  0  0  0  0  0  0  0
   35.7610   28.1720   32.6590 N   0  0  0  0  0  0  0  0  0  0  0  0
   36.3240   27.1240   32.0250 C   0  0  0  0  0  0  0  0  0  0  0  0
   35.8990   26.9690   30.8440 O   0  0  0  0  0  0  0  0  0  0  0  0
   35.0390   28.8000   32.2160 H   0  0  0  0  0  0  0  0  0  0  0  0
   35.5340   21.8830   31.4090 C   0  0  0  0  0  0  0  0  0  0  0  0
   35.3720   22.9770   31.4850 H   0  0  0  0  0  0  0  0  0  0  0  0
   34.9160   21.4020   30.6010 H   0  0  0  0  0  0  0  0  0  0  0  0
   36.2800   20.8370   33.5830 C   0  0  1  0  0  0  0  0  0  0  0  0
   35.4110   19.7800   32.9430 C   0  0  0  0  0  0  0  0  0  0  0  0
   35.1760   21.2150   32.6850 C   0  0  2  0  0  0  0  0  0  0  0  0
   37.3290   20.9150   33.2020 H   0  0  0  0  0  0  0  0  0  0  0  0
   35.8270   19.2120   32.0710 H   0  0  0  0  0  0  0  0  0  0  0  0
   34.7290   19.1970   33.5850 H   0  0  0  0  0  0  0  0  0  0  0  0
   34.2700   21.6150   33.2300 H   0  0  0  0  0  0  0  0  0  0  0  0
   36.1640   20.9530   35.0700 C   0  0  0  0  0  0  0  0  0  0  0  0
   35.1420   21.2940   35.3190 H   0  0  0  0  0  0  0  0  0  0  0  0
   36.2750   19.9530   35.5410 H   0  0  0  0  0  0  0  0  0  0  0  0
   39.1510   23.1960   35.3480 C   0  0  0  0  0  0  0  0  0  0  0  0
   38.2020   22.2560   34.8410 C   0  0  0  0  0  0  0  0  0  0  0  0
   37.1290   21.9260   35.6180 C   0  0  0  0  0  0  0  0  0  0  0  0
   37.0190   22.5050   36.8210 N   0  0  0  0  0  0  0  0  0  0  0  0
   37.9050   23.3860   37.2970 C   0  0  0  0  0  0  0  0  0  0  0  0
   38.9630   23.7200   36.5490 N   0  0  0  0  0  0  0  0  0  0  0  0
   39.9660   23.3960   34.6670 H   0  0  0  0  0  0  0  0  0  0  0  0
   38.3320   21.8120   33.8590 H   0  0  0  0  0  0  0  0  0  0  0  0
   37.8460   23.8670   38.2570 H   0  0  0  0  0  0  0  0  0  0  0  0
  1 28  1  0  0  0  0
  1  3  1  0  0  0  0
  2  1  1  0  0  0  0
  4 13  1  0  0  0  0
  5  1  1  0  0  0  0
  5  4  2  0  0  0  0
  6  5  1  0  0  0  0
  7  6  2  0  0  0  0
  7 11  1  0  0  0  0
  8  9  1  0  0  0  0
  8  7  1  0  0  0  0
  9 10  2  0  0  0  0
 10 11  1  0  0  0  0
 10 17  1  0  0  0  0
 11 12  2  0  0  0  0
 12  4  1  0  0  0  0
 12 18  1  0  0  0  0
 14  6  1  0  0  0  0
 15  8  1  0  0  0  0
 16  9  1  0  0  0  0
 18 19  1  0  0  0  0
 19 20  2  0  0  0  0
 20 21  1  0  0  0  0
 22 23  2  0  0  0  0
 22 20  1  0  0  0  0
 24 22  1  0  0  0  0
 25 18  1  0  0  0  0
 25 24  1  0  0  0  0
 26 25  2  0  0  0  0
 27 24  1  0  0  0  0
 28 29  1  0  0  0  0
 28 33  1  0  0  0  0
 30 28  1  0  0  0  0
 31 34  1  6  0  0  0
 31 38  1  0  0  0  0
 32 31  1  0  0  0  0
 32 36  1  0  0  0  0
 33 32  1  0  0  0  0
 33 37  1  1  0  0  0
 33 31  1  0  0  0  0
 35 32  1  0  0  0  0
 38 39  1  0  0  0  0
 38 40  1  0  0  0  0
 38 43  1  0  0  0  0
 41 46  1  0  0  0  0
 42 41  2  0  0  0  0
 42 43  1  0  0  0  0
 43 44  2  0  0  0  0
 44 45  1  0  0  0  0
 45 49  1  0  0  0  0
 46 45  2  0  0  0  0
 47 41  1  0  0  0  0
 48 42  1  0  0  0  0
M  END
>  <minimizedAffinity>
-5.88905478

$$$$

 OpenBabel03262520523D

 49 53  0  0  1  0  0  0  0  0999 V2000
   37.5670   26.1670   34.1740 C   0  0  0  0  0  0  0  0  0  0  0  0
   36.8560   25.3330   33.9060 H   0  0  0  0  0  0  0  0  0  0  0  0
   38.5740   25.9840   33.7180 H   0  0  0  0  0  0  0  0  0  0  0  0
   36.4430   28.3320   34.6020 C   0  0  0  0  0  0  0  0  0  0  0  0
   36.9630   27.4440   33.6740 C   0  0  0  0  0  0  0  0  0  0  0  0
   36.9160   27.7520   32.3090 C   0  0  0  0  0  0  0  0  0  0  0  0
   36.3570   28.9320   31.8760 C   0  0  0  0  0  0  0  0  0  0  0  0
   36.1930   29.4490   30.6510 N   0  0  0  0  0  0  0  0  0  0  0  0
   35.5810   30.6440   30.8030 C   0  0  0  0  0  0  0  0  0  0  0  0
   35.3330   30.9300   32.1210 C   0  0  0  0  0  0  0  0  0  0  0  0
   35.8340   29.8240   32.8100 C   0  0  0  0  0  0  0  0  0  0  0  0
   35.8840   29.5160   34.1480 C   0  0  0  0  0  0  0  0  0  0  0  0
   36.4270   28.2010   35.6570 H   0  0  0  0  0  0  0  0  0  0  0  0
   37.3280   27.0420   31.6060 H   0  0  0  0  0  0  0  0  0  0  0  0
   36.4790   29.0280   29.7210 H   0  0  0  0  0  0  0  0  0  0  0  0
   35.3060   31.3170   29.9970 H   0  0  0  0  0  0  0  0  0  0  0  0
   34.8590   31.8040   32.5490 H   0  0  0  0  0  0  0  0  0  0  0  0
   35.3340   30.4670   35.0540 N   0  0  0  0  0  0  0  0  0  0  0  0
   35.9240   31.4420   35.7350 C   0  0  0  0  0  3  0  0  0  0  0  0
   35.1770   32.2470   36.5620 C   0  0  0  0  0  0  0  0  0  0  0  0
   35.6950   33.0250   37.0960 H   0  0  0  0  0  0  0  0  0  0  0  0
   33.8170   32.0850   36.7210 C   0  0  0  0  0  0  0  0  0  0  0  0
   33.1390   32.8230   37.4770 O   0  0  0  0  0  0  0  0  0  0  0  0
   33.2620   31.0750   36.0040 N   0  0  0  0  0  0  0  0  0  0  0  0
   33.9890   30.2830   35.1910 C   0  0  0  0  0  0  0  0  0  0  0  0
   33.2980   29.3990   34.6080 O   0  0  0  0  0  0  0  0  0  0  0  0
   32.2210   30.9700   36.1400 H   0  0  0  0  0  0  0  0  0  0  0  0
   37.7090   26.2830   35.6790 C   0  0  0  0  0  0  0  0  0  0  0  0
   38.2640   27.2260   35.8560 H   0  0  0  0  0  0  0  0  0  0  0  0
   36.6670   26.3020   36.1030 H   0  0  0  0  0  0  0  0  0  0  0  0
   38.7210   23.9820   35.4510 C   0  0  1  0  0  0  0  0  0  0  0  0
   37.7590   23.8490   36.6080 C   0  0  0  0  0  0  0  0  0  0  0  0
   38.4130   25.1390   36.3070 C   0  0  2  0  0  0  0  0  0  0  0  0
   38.2740   23.9420   34.4250 H   0  0  0  0  0  0  0  0  0  0  0  0
   36.6610   23.8210   36.3800 H   0  0  0  0  0  0  0  0  0  0  0  0
   38.0600   23.2460   37.4800 H   0  0  0  0  0  0  0  0  0  0  0  0
   39.2390   25.3900   37.0370 H   0  0  0  0  0  0  0  0  0  0  0  0
   40.0000   23.2160   35.5850 C   0  0  0  0  0  0  0  0  0  0  0  0
   40.1930   23.0390   36.6590 H   0  0  0  0  0  0  0  0  0  0  0  0
   39.8930   22.2110   35.1250 H   0  0  0  0  0  0  0  0  0  0  0  0
   42.0800   25.2260   33.2050 C   0  0  0  0  0  0  0  0  0  0  0  0
   40.9880   24.5010   33.7760 C   0  0  0  0  0  0  0  0  0  0  0  0
   41.1410   23.9590   35.0190 C   0  0  0  0  0  0  0  0  0  0  0  0
   42.3130   24.1370   35.6450 N   0  0  0  0  0  0  0  0  0  0  0  0
   43.3350   24.8150   35.1130 C   0  0  0  0  0  0  0  0  0  0  0  0
   43.2020   25.3520   33.8950 N   0  0  0  0  0  0  0  0  0  0  0  0
   41.8680   25.6180   32.2200 H   0  0  0  0  0  0  0  0  0  0  0  0
   40.0560   24.3830   33.2310 H   0  0  0  0  0  0  0  0  0  0  0  0
   44.2870   24.9740   35.5880 H   0  0  0  0  0  0  0  0  0  0  0  0
  1 28  1  0  0  0  0
  2  1  1  0  0  0  0
  3  1  1  0  0  0  0
  4 13  1  0  0  0  0
  5  1  1  0  0  0  0
  5  4  2  0  0  0  0
  6  5  1  0  0  0  0
  7  6  2  0  0  0  0
  7 11  1  0  0  0  0
  8  9  1  0  0  0  0
  8  7  1  0  0  0  0
  9 10  2  0  0  0  0
 10 17  1  0  0  0  0
 10 11  1  0  0  0  0
 11 12  2  0  0  0  0
 12  4  1  0  0  0  0
 12 18  1  0  0  0  0
 14  6  1  0  0  0  0
 15  8  1  0  0  0  0
 16  9  1  0  0  0  0
 18 25  1  0  0  0  0
 18 19  1  0  0  0  0
 19 20  2  0  0  0  0
 20 22  1  0  0  0  0
 20 21  1  0  0  0  0
 22 23  2  0  0  0  0
 24 27  1  0  0  0  0
 24 22  1  0  0  0  0
 25 24  1  0  0  0  0
 26 25  2  0  0  0  0
 28 29  1  0  0  0  0
 28 30  1  0  0  0  0
 28 33  1  0  0  0  0
 31 34  1  6  0  0  0
 31 38  1  0  0  0  0
 31 33  1  0  0  0  0
 31 32  1  0  0  0  0
 32 36  1  0  0  0  0
 33 32  1  0  0  0  0
 33 37  1  1  0  0  0
 35 32  1  0  0  0  0
 38 39  1  0  0  0  0
 40 38  1  0  0  0  0
 41 42  2  0  0  0  0
 41 46  1  0  0  0  0
 42 43  1  0  0  0  0
 43 38  1  0  0  0  0
 43 44  2  0  0  0  0
 45 49  1  0  0  0  0
 45 44  1  0  0  0  0
 46 45  2  0  0  0  0
 47 41  1  0  0  0  0
 48 42  1  0  0  0  0
M  END
>  <minimizedAffinity>
-5.83699703

$$$$
