
 OpenBabel03272507193D

 31 33  0  0  1  0  0  0  0  0999 V2000
   37.3160   31.2090   49.4230 C   0  0  0  0  0  0  0  0  0  0  0  0
   38.3170   32.1590   49.4900 C   0  0  0  0  0  0  0  0  0  0  0  0
   38.8130   32.5670   48.2260 C   0  0  0  0  0  0  0  0  0  0  0  0
   38.3080   32.0340   47.0640 N   0  0  0  0  0  0  0  0  0  0  0  0
   37.3280   31.1070   47.0770 C   0  0  0  0  0  0  0  0  0  0  0  0
   36.8240   30.6880   48.2790 N   0  0  0  0  0  0  0  0  0  0  0  0
   38.7080   32.5730   50.4060 H   0  0  0  0  0  0  0  0  0  0  0  0
   39.6030   33.3130   48.1860 H   0  0  0  0  0  0  0  0  0  0  0  0
   36.8660   30.6080   45.8260 N   0  0  0  0  0  0  0  0  0  0  0  0
   37.7580   30.6300   44.7930 C   0  0  0  0  0  3  0  0  0  0  0  0
   37.3850   30.1640   43.5500 C   0  0  0  0  0  0  0  0  0  0  0  0
   38.0430   30.1580   42.7030 H   0  0  0  0  0  0  0  0  0  0  0  0
   36.1020   29.6660   43.3260 C   0  0  0  0  0  0  0  0  0  0  0  0
   35.7580   29.2390   42.1900 O   0  0  0  0  0  0  0  0  0  0  0  0
   35.2550   29.6660   44.3840 N   0  0  0  0  0  0  0  0  0  0  0  0
   35.6300   30.1200   45.5830 C   0  0  0  0  0  0  0  0  0  0  0  0
   34.8380   30.1200   46.5710 O   0  0  0  0  0  0  0  0  0  0  0  0
   34.2780   29.2920   44.2300 H   0  0  0  0  0  0  0  0  0  0  0  0
   36.7430   30.7850   50.7390 C   0  0  1  0  0  0  0  0  0  0  0  0
   36.0140   29.5280   50.8990 C   0  0  2  0  0  0  0  0  0  0  0  0
   37.4600   29.5400   51.3040 C   0  0  0  0  0  0  0  0  0  0  0  0
   36.6320   31.6170   51.4660 H   0  0  0  0  0  0  0  0  0  0  0  0
   35.1900   29.6050   51.6690 H   0  0  0  0  0  0  0  0  0  0  0  0
   38.1860   29.0110   50.6550 H   0  0  0  0  0  0  0  0  0  0  0  0
   37.6160   29.5610   52.3910 H   0  0  0  0  0  0  0  0  0  0  0  0
   35.6520   28.8590   49.7380 O   0  0  0  0  0  0  0  0  0  0  0  0
   34.4450   28.3880   49.3430 C   0  0  0  0  0  0  0  0  0  0  0  0
   34.3280   27.3830   48.6080 O   0  0  0  0  0  0  0  0  0  0  0  0
   33.4590   29.2070   49.8920 N   0  0  0  0  0  0  0  0  0  0  0  0
   32.6320   29.8490   49.8810 H   0  0  0  0  0  0  0  0  0  0  0  0
   33.3000   29.4270   50.9140 H   0  0  0  0  0  0  0  0  0  0  0  0
  1  2  1  0  0  0  0
  1 19  1  0  0  0  0
  2  7  1  0  0  0  0
  3  2  2  0  0  0  0
  4  5  2  0  0  0  0
  4  3  1  0  0  0  0
  5  6  1  0  0  0  0
  6  1  2  0  0  0  0
  8  3  1  0  0  0  0
  9  5  1  0  0  0  0
 10  9  1  0  0  0  0
 11 10  2  0  0  0  0
 12 11  1  0  0  0  0
 13 11  1  0  0  0  0
 13 15  1  0  0  0  0
 14 13  2  0  0  0  0
 15 16  1  0  0  0  0
 16  9  1  0  0  0  0
 16 17  2  0  0  0  0
 18 15  1  0  0  0  0
 19 20  1  0  0  0  0
 19 21  1  0  0  0  0
 19 22  1  1  0  0  0
 20 21  1  0  0  0  0
 20 23  1  1  0  0  0
 21 25  1  0  0  0  0
 24 21  1  0  0  0  0
 26 20  1  0  0  0  0
 27 26  1  0  0  0  0
 27 29  1  0  0  0  0
 28 27  2  0  0  0  0
 29 31  1  0  0  0  0
 30 29  1  0  0  0  0
M  END
>  <minimizedAffinity>
-5.81646299

>  <minimizedRMSD>
0.0475136451

$$$$
