REMARK  Name = 
REMARK  2 active torsions:
REMARK  status: ('A' for Active; 'I' for Inactive)
REMARK    1  A    between atoms: C_5  and  C_9
REMARK    2  A    between atoms: C_11  and  N_20
REMARK                            x       y       z     vdW  Elec       q    Type
REMARK                         _______ _______ _______ _____ _____    ______ ____
ROOT
ATOM      1 BR   UNL     1      37.259  29.351  51.054  0.00  0.00    +0.000 Br
ATOM      2  C   UNL     1      35.955  29.317  49.663  0.00  0.00    +0.000 A 
ATOM      3  C   UNL     1      36.002  30.222  48.624  0.00  0.00    +0.000 A 
ATOM      4  C   UNL     1      35.017  30.130  47.654  0.00  0.00    +0.000 A 
ATOM      5  C   UNL     1      34.005  29.177  47.691  0.00  0.00    +0.000 A 
ATOM      6  C   UNL     1      34.000  28.301  48.744  0.00  0.00    +0.000 A 
ATOM      7  C   UNL     1      34.970  28.375  49.718  0.00  0.00    +0.000 A 
ATOM      8  H   UNL     1      35.102  30.873  46.852  0.00  0.00    +0.000 HD
ATOM      9  H   UNL     1      33.195  27.583  48.727  0.00  0.00    +0.000 HD
ATOM     10  H   UNL     1      34.891  27.641  50.517  0.00  0.00    +0.000 HD
ENDROOT
BRANCH   5  11
ATOM     11  N   UNL     1      33.095  29.255  46.599  0.00  0.00    +0.000 N 
ATOM     12  C   UNL     1      33.305  28.950  45.309  0.00  0.00    +0.000 A 
ATOM     13  C   UNL     1      32.262  29.106  44.421  0.00  0.00    +0.000 A 
ATOM     14  H   UNL     1      32.467  28.850  43.383  0.00  0.00    +0.000 HD
ATOM     15  C   UNL     1      31.018  29.568  44.842  0.00  0.00    +0.000 A 
ATOM     16  O   UNL     1      30.079  29.700  43.996  0.00  0.00    +0.000 OA
ATOM     17  N   UNL     1      30.856  29.861  46.149  0.00  0.00    +0.000 N 
ATOM     18  C   UNL     1      31.879  29.707  47.020  0.00  0.00    +0.000 A 
ATOM     19  O   UNL     1      31.567  30.022  48.194  0.00  0.00    +0.000 OA
ATOM     20  H   UNL     1      29.903  30.204  46.415  0.00  0.00    +0.000 HD
ENDBRANCH   5  11
BRANCH   3  25
ATOM     21  C   UNL     1      37.990  33.168  49.424  0.00  0.00    +0.000 A 
ATOM     22  C   UNL     1      39.015  33.155  48.459  0.00  0.00    +0.000 A 
ATOM     23  C   UNL     1      39.011  32.123  47.534  0.00  0.00    +0.000 A 
ATOM     24  N   UNL     1      38.023  31.178  47.604  0.00  0.00    +0.000 NA
ATOM     25  C   UNL     1      37.049  31.230  48.557  0.00  0.00    +0.000 A 
ATOM     26  N   UNL     1      37.043  32.224  49.456  0.00  0.00    +0.000 NA
ATOM     27  H   UNL     1      38.048  33.997  50.115  0.00  0.00    +0.000 HD
ATOM     28  H   UNL     1      39.811  33.845  48.338  0.00  0.00    +0.000 HD
ATOM     29  H   UNL     1      39.699  31.933  46.722  0.00  0.00    +0.000 HD
ENDBRANCH   3  25
TORSDOF 2
