
 OpenBabel03272508573D

 41 44  0  0  1  0  0  0  0  0999 V2000
   39.2010   31.4070   43.3660 C   0  0  0  0  0  0  0  0  0  0  0  0
   40.2310   30.5260   43.5570 C   0  0  0  0  0  0  0  0  0  0  0  0
   40.9580   30.1530   42.4320 C   0  0  0  0  0  0  0  0  0  0  0  0
   40.5980   30.6860   41.2130 C   0  0  0  0  0  0  0  0  0  0  0  0
   39.5560   31.5730   41.0320 C   0  0  0  0  0  0  0  0  0  0  0  0
   38.8690   31.9170   42.1510 N   0  0  0  0  0  0  0  0  0  0  0  0
   40.4980   30.1190   44.5250 H   0  0  0  0  0  0  0  0  0  0  0  0
   41.7760   29.4700   42.5050 H   0  0  0  0  0  0  0  0  0  0  0  0
   41.1810   30.3770   40.3620 H   0  0  0  0  0  0  0  0  0  0  0  0
   38.4020   31.8420   44.5370 C   0  0  0  0  0  0  0  0  0  0  0  0
   37.3250   32.4360   44.4220 O   0  0  0  0  0  0  0  0  0  0  0  0
   38.9470   31.5390   45.8530 N   0  0  0  0  0  0  0  0  0  0  0  0
   39.9270   31.2410   46.0240 H   0  0  0  0  0  0  0  0  0  0  0  0
   38.4110   31.0890   48.2450 C   0  0  2  0  0  0  0  0  0  0  0  0
   38.6380   32.5530   48.1170 C   0  0  0  0  0  0  0  0  0  0  0  0
   38.0590   31.6620   46.9870 C   0  0  1  0  0  0  0  0  0  0  0  0
   39.3570   30.5220   48.3770 H   0  0  0  0  0  0  0  0  0  0  0  0
   37.9360   33.2600   48.6080 H   0  0  0  0  0  0  0  0  0  0  0  0
   39.6430   32.9530   47.9880 H   0  0  0  0  0  0  0  0  0  0  0  0
   36.9700   31.8760   46.7640 H   0  0  0  0  0  0  0  0  0  0  0  0
   35.0400   30.2060   49.5310 C   0  0  0  0  0  0  0  0  0  0  0  0
   35.3570   29.5810   50.7710 C   0  0  0  0  0  0  0  0  0  0  0  0
   36.7440   29.4800   51.1530 C   0  0  0  0  0  0  0  0  0  0  0  0
   37.7120   29.9840   50.3150 N   0  0  0  0  0  0  0  0  0  0  0  0
   37.3190   30.5680   49.1470 C   0  0  0  0  0  0  0  0  0  0  0  0
   36.0020   30.6970   48.7200 N   0  0  0  0  0  0  0  0  0  0  0  0
   34.0070   30.2710   49.2660 H   0  0  0  0  0  0  0  0  0  0  0  0
   34.6120   29.1900   51.4190 H   0  0  0  0  0  0  0  0  0  0  0  0
   36.9910   29.0070   52.0920 H   0  0  0  0  0  0  0  0  0  0  0  0
   39.2190   32.0920   39.7190 C   0  0  0  0  0  0  0  0  0  0  0  0
   38.9740   33.3060   39.5670 O   0  0  0  0  0  0  0  0  0  0  0  0
   37.5440   28.5920   37.3700 H   0  0  0  0  0  0  0  0  0  0  0  0
   38.2990   29.3030   37.4950 N   0  0  0  0  0  0  0  0  0  0  0  0
   38.1800   30.1730   38.5350 C   0  0  0  0  0  3  0  0  0  0  0  0
   39.2010   31.0930   38.6570 C   0  0  0  0  0  0  0  0  0  0  0  0
   40.2850   31.1550   37.8010 C   0  0  0  0  0  0  0  0  0  0  0  0
   41.2030   31.9810   37.9080 O   0  0  0  0  0  0  0  0  0  0  0  0
   40.3560   30.2590   36.7740 N   0  0  0  0  0  0  0  0  0  0  0  0
   39.3510   29.3530   36.6530 C   0  0  0  0  0  0  0  0  0  0  0  0
   39.4730   28.5550   35.6880 O   0  0  0  0  0  0  0  0  0  0  0  0
   41.1660   30.2990   36.1260 H   0  0  0  0  0  0  0  0  0  0  0  0
  1  2  1  0  0  0  0
  1 10  1  0  0  0  0
  2  7  1  0  0  0  0
  3  8  1  0  0  0  0
  3  2  2  0  0  0  0
  4  3  1  0  0  0  0
  5  4  2  0  0  0  0
  5  6  1  0  0  0  0
  6  1  2  0  0  0  0
  9  4  1  0  0  0  0
 10 12  1  0  0  0  0
 11 10  2  0  0  0  0
 12 13  1  0  0  0  0
 12 16  1  0  0  0  0
 14 17  1  6  0  0  0
 14 25  1  0  0  0  0
 15 14  1  0  0  0  0
 15 18  1  0  0  0  0
 16 20  1  6  0  0  0
 16 15  1  0  0  0  0
 16 14  1  0  0  0  0
 19 15  1  0  0  0  0
 21 22  1  0  0  0  0
 22 23  2  0  0  0  0
 22 28  1  0  0  0  0
 23 29  1  0  0  0  0
 24 23  1  0  0  0  0
 25 24  2  0  0  0  0
 26 25  1  0  0  0  0
 26 21  2  0  0  0  0
 27 21  1  0  0  0  0
 30  5  1  0  0  0  0
 31 30  2  0  0  0  0
 32 33  1  0  0  0  0
 33 34  1  0  0  0  0
 34 35  2  0  0  0  0
 35 30  1  0  0  0  0
 36 37  2  0  0  0  0
 36 35  1  0  0  0  0
 38 36  1  0  0  0  0
 39 38  1  0  0  0  0
 39 33  1  0  0  0  0
 40 39  2  0  0  0  0
 41 38  1  0  0  0  0
M  END
>  <minimizedAffinity>
-4.99213362

>  <minimizedRMSD>
0.556387186

$$$$
