
 OpenBabel03272507333D

 37 40  0  0  1  0  0  0  0  0999 V2000
   33.1680   27.4530   48.1730 C   0  0  0  0  0  0  0  0  0  0  0  0
   31.9260   27.3950   48.4590 O   0  0  0  0  0  0  0  0  0  0  0  0
   35.8570   29.1480   49.8090 C   0  0  0  0  0  0  0  0  0  0  0  0
   34.8100   29.6310   50.5670 C   0  0  0  0  0  0  0  0  0  0  0  0
   33.6320   29.0660   50.0620 C   0  0  0  0  0  0  0  0  0  0  0  0
   34.0420   28.2660   49.0190 C   0  0  0  0  0  0  0  0  0  0  0  0
   35.3500   28.3440   48.9070 O   0  0  0  0  0  0  0  0  0  0  0  0
   34.8350   30.3260   51.4130 H   0  0  0  0  0  0  0  0  0  0  0  0
   32.6380   29.2530   50.4490 H   0  0  0  0  0  0  0  0  0  0  0  0
   37.2360   29.5310   50.0590 C   0  0  0  0  0  0  0  0  0  0  0  0
   37.8700   28.9580   50.9570 O   0  0  0  0  0  0  0  0  0  0  0  0
   37.7860   30.5710   49.2300 C   0  0  0  0  0  0  0  0  0  0  0  0
   38.1200   31.7660   49.8510 C   0  0  0  0  0  0  0  0  0  0  0  0
   38.6540   32.7950   49.0710 C   0  0  0  0  0  0  0  0  0  0  0  0
   38.8170   32.5620   47.7230 N   0  0  0  0  0  0  0  0  0  0  0  0
   38.4850   31.4010   47.1610 C   0  0  0  0  0  0  0  0  0  0  0  0
   37.9710   30.4040   47.9000 N   0  0  0  0  0  0  0  0  0  0  0  0
   37.9810   31.9160   50.9070 H   0  0  0  0  0  0  0  0  0  0  0  0
   38.9140   33.7250   49.5540 H   0  0  0  0  0  0  0  0  0  0  0  0
   38.6440   31.3000   46.0980 H   0  0  0  0  0  0  0  0  0  0  0  0
   33.7240   26.6990   47.0000 C   0  0  1  0  0  0  0  0  0  0  0  0
   33.7820   25.1560   47.3370 C   0  0  0  0  0  0  0  0  0  0  0  0
   32.9070   25.7210   46.2850 C   0  0  2  0  0  0  0  0  0  0  0  0
   34.7350   27.0270   46.6850 H   0  0  0  0  0  0  0  0  0  0  0  0
   33.3770   24.8390   48.2950 H   0  0  0  0  0  0  0  0  0  0  0  0
   34.6870   24.6270   47.0060 H   0  0  0  0  0  0  0  0  0  0  0  0
   31.8180   25.7280   46.5880 H   0  0  0  0  0  0  0  0  0  0  0  0
   33.1260   25.5550   44.8840 N   0  0  0  0  0  0  0  0  0  0  0  0
   34.3340   25.1320   44.4030 C   0  0  0  0  0  3  0  0  0  0  0  0
   34.5560   24.9700   43.0500 C   0  0  0  0  0  0  0  0  0  0  0  0
   35.5590   24.6280   42.8040 H   0  0  0  0  0  0  0  0  0  0  0  0
   33.5700   25.2270   42.1200 C   0  0  0  0  0  0  0  0  0  0  0  0
   33.9180   25.0340   40.9270 O   0  0  0  0  0  0  0  0  0  0  0  0
   32.3850   25.6430   42.6040 N   0  0  0  0  0  0  0  0  0  0  0  0
   32.2120   25.7870   43.9290 C   0  0  0  0  0  0  0  0  0  0  0  0
   31.0710   26.1780   44.2470 O   0  0  0  0  0  0  0  0  0  0  0  0
   31.6620   25.8290   41.8830 H   0  0  0  0  0  0  0  0  0  0  0  0
  1  2  2  0  0  0  0
  1  6  1  0  0  0  0
  3 10  1  0  0  0  0
  3  4  2  0  0  0  0
  4  8  1  0  0  0  0
  5  9  1  0  0  0  0
  5  4  1  0  0  0  0
  6  5  2  0  0  0  0
  7  6  1  0  0  0  0
  7  3  1  0  0  0  0
 10 11  2  0  0  0  0
 12 13  1  0  0  0  0
 12 10  1  0  0  0  0
 13 18  1  0  0  0  0
 14 19  1  0  0  0  0
 14 13  2  0  0  0  0
 15 14  1  0  0  0  0
 16 15  2  0  0  0  0
 16 17  1  0  0  0  0
 17 12  2  0  0  0  0
 20 16  1  0  0  0  0
 21 24  1  6  0  0  0
 21 22  1  0  0  0  0
 21  1  1  0  0  0  0
 22 25  1  0  0  0  0
 23 27  1  1  0  0  0
 23 21  1  0  0  0  0
 23 22  1  0  0  0  0
 26 22  1  0  0  0  0
 28 23  1  0  0  0  0
 29 28  1  0  0  0  0
 30 29  2  0  0  0  0
 31 30  1  0  0  0  0
 32 34  1  0  0  0  0
 32 30  1  0  0  0  0
 33 32  2  0  0  0  0
 34 35  1  0  0  0  0
 35 36  2  0  0  0  0
 35 28  1  0  0  0  0
 37 34  1  0  0  0  0
M  END
>  <minimizedAffinity>
-4.89408255

>  <minimizedRMSD>
0.946589053

$$$$
