
 OpenBabel03272506313D

 41 43  0  0  1  0  0  0  0  0999 V2000
   32.8030   28.6910   46.3410 C   0  0  1  0  0  0  0  0  0  0  0  0
   32.9540   30.0460   46.8200 C   0  0  0  0  0  0  0  0  0  0  0  0
   33.8220   30.2500   48.0460 C   0  0  0  0  0  0  0  0  0  0  0  0
   35.0290   29.3800   48.1300 C   0  0  0  0  0  0  0  0  0  0  0  0
   34.9140   27.9930   47.6100 C   0  0  0  0  0  0  0  0  0  0  0  0
   34.0990   27.9120   46.3740 C   0  0  2  0  0  0  0  0  0  0  0  0
   32.5710   28.7110   45.2310 H   0  0  0  0  0  0  0  0  0  0  0  0
   32.0610   30.6430   46.9780 H   0  0  0  0  0  0  0  0  0  0  0  0
   33.5190   30.6090   46.0220 H   0  0  0  0  0  0  0  0  0  0  0  0
   34.1570   31.3110   48.0770 H   0  0  0  0  0  0  0  0  0  0  0  0
   33.1550   30.1170   48.9350 H   0  0  0  0  0  0  0  0  0  0  0  0
   35.2580   29.2820   49.2280 H   0  0  0  0  0  0  0  0  0  0  0  0
   35.9350   29.8700   47.7150 H   0  0  0  0  0  0  0  0  0  0  0  0
   34.4430   27.3360   48.3960 H   0  0  0  0  0  0  0  0  0  0  0  0
   35.9230   27.6360   47.3660 H   0  0  0  0  0  0  0  0  0  0  0  0
   34.0020   26.8700   46.0280 H   0  0  0  0  0  0  0  0  0  0  0  0
   30.6460   28.4690   47.6960 C   0  0  0  0  0  0  0  0  0  0  0  0
   31.6860   27.9050   46.8940 C   0  0  0  0  0  0  0  0  0  0  0  0
   31.5870   26.5440   46.6630 C   0  0  0  0  0  0  0  0  0  0  0  0
   30.5400   25.8320   47.1930 N   0  0  0  0  0  0  0  0  0  0  0  0
   29.5910   26.4240   47.9410 C   0  0  0  0  0  0  0  0  0  0  0  0
   29.6490   27.7600   48.1950 N   0  0  0  0  0  0  0  0  0  0  0  0
   30.6980   29.5320   47.8930 H   0  0  0  0  0  0  0  0  0  0  0  0
   32.3020   26.0050   46.0780 H   0  0  0  0  0  0  0  0  0  0  0  0
   28.7830   25.8240   48.3390 H   0  0  0  0  0  0  0  0  0  0  0  0
   34.9730   28.5860   45.2840 C   0  0  0  0  0  0  0  0  0  0  0  0
   36.0360   28.5430   45.5480 H   0  0  0  0  0  0  0  0  0  0  0  0
   34.6610   29.6380   45.1190 H   0  0  0  0  0  0  0  0  0  0  0  0
   34.7870   27.8830   43.9470 C   0  0  0  0  0  0  0  0  0  0  0  0
   34.8780   26.7960   44.1030 H   0  0  0  0  0  0  0  0  0  0  0  0
   33.8140   28.2010   43.5190 H   0  0  0  0  0  0  0  0  0  0  0  0
   35.8490   28.3620   43.0550 N   0  0  0  0  0  0  0  0  0  0  0  0
   36.8620   27.5590   42.6500 C   0  0  0  0  0  3  0  0  0  0  0  0
   37.7960   28.1550   41.8030 C   0  0  0  0  0  0  0  0  0  0  0  0
   38.6160   27.5130   41.4720 H   0  0  0  0  0  0  0  0  0  0  0  0
   37.7030   29.4710   41.4020 C   0  0  0  0  0  0  0  0  0  0  0  0
   38.6080   29.8790   40.6420 O   0  0  0  0  0  0  0  0  0  0  0  0
   36.6740   30.2420   41.8290 N   0  0  0  0  0  0  0  0  0  0  0  0
   35.7980   29.6400   42.6370 C   0  0  0  0  0  0  0  0  0  0  0  0
   34.8380   30.3640   43.0350 O   0  0  0  0  0  0  0  0  0  0  0  0
   36.6140   31.2250   41.5230 H   0  0  0  0  0  0  0  0  0  0  0  0
  1  7  1  6  0  0  0
  1  6  1  0  0  0  0
  1  2  1  0  0  0  0
  1 18  1  0  0  0  0
  2  8  1  0  0  0  0
  2  3  1  0  0  0  0
  3 10  1  0  0  0  0
  3  4  1  0  0  0  0
  3 11  1  0  0  0  0
  4 12  1  0  0  0  0
  5  4  1  0  0  0  0
  5 14  1  0  0  0  0
  6 16  1  6  0  0  0
  6  5  1  0  0  0  0
  9  2  1  0  0  0  0
 13  4  1  0  0  0  0
 15  5  1  0  0  0  0
 17 23  1  0  0  0  0
 17 22  1  0  0  0  0
 18 17  2  0  0  0  0
 19 18  1  0  0  0  0
 19 20  2  0  0  0  0
 20 21  1  0  0  0  0
 21 22  2  0  0  0  0
 21 25  1  0  0  0  0
 24 19  1  0  0  0  0
 26 27  1  0  0  0  0
 26  6  1  0  0  0  0
 28 26  1  0  0  0  0
 29 30  1  0  0  0  0
 29 26  1  0  0  0  0
 31 29  1  0  0  0  0
 32 29  1  0  0  0  0
 33 32  1  0  0  0  0
 34 33  2  0  0  0  0
 35 34  1  0  0  0  0
 36 34  1  0  0  0  0
 36 38  1  0  0  0  0
 37 36  2  0  0  0  0
 38 39  1  0  0  0  0
 39 40  2  0  0  0  0
 39 32  1  0  0  0  0
 41 38  1  0  0  0  0
M  END
>  <minimizedAffinity>
-1.56081986

>  <minimizedRMSD>
7.83798027

$$$$
