REMARK  Name = 
REMARK  1 active torsions:
REMARK  status: ('A' for Active; 'I' for Inactive)
REMARK    1  A    between atoms: C_1  and  O_7
REMARK                            x       y       z     vdW  Elec       q    Type
REMARK                         _______ _______ _______ _____ _____    ______ ____
ROOT
ATOM      1  C   UNL     1      37.306  29.992  51.187  0.00  0.00    +0.000 A 
ATOM      2  C   UNL     1      37.952  30.912  50.360  0.00  0.00    +0.000 A 
ATOM      3  C   UNL     1      37.271  31.390  49.227  0.00  0.00    +0.000 A 
ATOM      4  N   UNL     1      36.011  30.930  48.992  0.00  0.00    +0.000 NA
ATOM      5  C   UNL     1      35.409  30.032  49.816  0.00  0.00    +0.000 A 
ATOM      6  N   UNL     1      36.058  29.580  50.892  0.00  0.00    +0.000 NA
ATOM      7  H   UNL     1      38.967  31.296  50.533  0.00  0.00    +0.000 HD
ATOM      8  H   UNL     1      37.733  32.100  48.566  0.00  0.00    +0.000 HD
ATOM      9  N   UNL     1      34.092  29.547  49.575  0.00  0.00    +0.000 N 
ATOM     10  C   UNL     1      33.618  29.307  48.342  0.00  0.00    +0.000 A 
ATOM     11  C   UNL     1      32.313  28.833  48.222  0.00  0.00    +0.000 A 
ATOM     12  H   UNL     1      31.964  28.651  47.210  0.00  0.00    +0.000 HD
ATOM     13  C   UNL     1      31.555  28.627  49.336  0.00  0.00    +0.000 A 
ATOM     14  O   UNL     1      30.383  28.203  49.243  0.00  0.00    +0.000 OA
ATOM     15  N   UNL     1      32.083  28.886  50.554  0.00  0.00    +0.000 N 
ATOM     16  C   UNL     1      33.357  29.349  50.689  0.00  0.00    +0.000 A 
ATOM     17  O   UNL     1      33.739  29.553  51.867  0.00  0.00    +0.000 OA
ATOM     18  H   UNL     1      31.458  28.710  51.383  0.00  0.00    +0.000 HD
ENDROOT
BRANCH   1  19
ATOM     19  O   UNL     1      38.087  29.608  52.258  0.00  0.00    +0.000 OA
ATOM     20  H   UNL     1      37.573  29.313  53.097  0.00  0.00    +0.000 HD
ENDBRANCH   1  19
TORSDOF 1
