
 OpenBabel03272509433D

 39 41  0  0  1  0  0  0  0  0999 V2000
   37.1550   30.9240   49.0700 C   0  0  0  0  0  0  0  0  0  0  0  0
   36.8930   31.8670   50.0660 C   0  0  0  0  0  0  0  0  0  0  0  0
   37.4350   33.1390   50.0370 C   0  0  0  0  0  0  0  0  0  0  0  0
   38.2780   33.4990   48.9740 C   0  0  0  0  0  0  0  0  0  0  0  0
   38.5260   32.5650   48.0050 C   0  0  0  0  0  0  0  0  0  0  0  0
   37.9610   31.2990   48.0710 C   0  0  0  0  0  0  0  0  0  0  0  0
   36.2380   31.5750   50.8820 H   0  0  0  0  0  0  0  0  0  0  0  0
   37.1740   33.7850   50.8470 H   0  0  0  0  0  0  0  0  0  0  0  0
   38.6490   34.4960   49.0350 H   0  0  0  0  0  0  0  0  0  0  0  0
   39.1910   32.9890   47.2570 H   0  0  0  0  0  0  0  0  0  0  0  0
   36.6100   29.5850   49.1270 C   0  0  2  0  0  0  0  0  0  0  0  0
   37.0770   29.0310   48.2240 H   0  0  0  0  0  0  0  0  0  0  0  0
   33.6040   29.7940   47.0960 C   0  0  0  0  0  0  0  0  0  0  0  0
   32.9260   28.6240   47.3800 C   0  0  0  0  0  0  0  0  0  0  0  0
   33.4670   27.7690   48.3300 C   0  0  0  0  0  0  0  0  0  0  0  0
   34.6490   28.1130   48.9460 N   0  0  0  0  0  0  0  0  0  0  0  0
   35.2480   29.2430   48.6290 C   0  0  0  0  0  0  0  0  0  0  0  0
   34.7360   30.0850   47.7120 N   0  0  0  0  0  0  0  0  0  0  0  0
   33.1970   30.4660   46.3630 H   0  0  0  0  0  0  0  0  0  0  0  0
   32.0070   28.4380   46.8460 H   0  0  0  0  0  0  0  0  0  0  0  0
   32.9490   26.8620   48.5570 H   0  0  0  0  0  0  0  0  0  0  0  0
   37.1570   28.8680   50.0440 O   0  0  0  0  0  0  0  0  0  0  0  0
   36.8190   29.0870   50.9610 H   0  0  0  0  0  0  0  0  0  0  0  0
   38.3300   30.4050   46.9980 C   0  0  0  0  0  3  0  0  0  0  0  0
   38.9250   30.8060   45.8680 C   0  0  0  0  0  3  0  0  0  0  0  0
   39.3800   29.9790   44.7270 C   0  0  0  0  0  0  0  0  0  0  0  0
   38.9910   28.9390   44.8970 H   0  0  0  0  0  0  0  0  0  0  0  0
   40.4640   29.8900   44.6850 H   0  0  0  0  0  0  0  0  0  0  0  0
   38.6330   30.5820   43.2090 S   0  0  0  0  0  0  0  0  0  0  0  0
   34.2630   28.8560   44.0050 H   0  0  0  0  0  0  0  0  0  0  0  0
   34.8250   29.6990   43.7790 N   0  0  0  0  0  0  0  0  0  0  0  0
   36.1770   29.6530   43.6480 C   0  0  0  0  0  3  0  0  0  0  0  0
   36.8810   30.8080   43.3430 C   0  0  0  0  0  0  0  0  0  0  0  0
   36.1700   31.9790   43.1820 C   0  0  0  0  0  0  0  0  0  0  0  0
   36.8760   32.9790   42.9080 O   0  0  0  0  0  0  0  0  0  0  0  0
   34.8320   32.0320   43.3090 N   0  0  0  0  0  0  0  0  0  0  0  0
   34.1940   30.8790   43.6070 C   0  0  0  0  0  0  0  0  0  0  0  0
   32.9250   30.8940   43.7340 O   0  0  0  0  0  0  0  0  0  0  0  0
   34.3580   32.9460   43.1750 H   0  0  0  0  0  0  0  0  0  0  0  0
  1 11  1  0  0  0  0
  1  2  1  0  0  0  0
  2  7  1  0  0  0  0
  3  2  2  0  0  0  0
  3  8  1  0  0  0  0
  4  9  1  0  0  0  0
  4  3  1  0  0  0  0
  5  6  1  0  0  0  0
  5  4  2  0  0  0  0
  6  1  2  0  0  0  0
 10  5  1  0  0  0  0
 11 12  1  6  0  0  0
 11 22  1  0  0  0  0
 13 14  2  0  0  0  0
 13 18  1  0  0  0  0
 14 15  1  0  0  0  0
 15 21  1  0  0  0  0
 15 16  2  0  0  0  0
 17 16  1  0  0  0  0
 17 11  1  0  0  0  0
 18 17  2  0  0  0  0
 19 13  1  0  0  0  0
 20 14  1  0  0  0  0
 22 23  1  0  0  0  0
 24  6  1  0  0  0  0
 25 24  2  0  0  0  0
 26 27  1  0  0  0  0
 26 25  1  0  0  0  0
 28 26  1  0  0  0  0
 29 33  1  0  0  0  0
 29 26  1  0  0  0  0
 31 30  1  0  0  0  0
 32 31  1  0  0  0  0
 33 32  2  0  0  0  0
 34 36  1  0  0  0  0
 34 33  1  0  0  0  0
 35 34  2  0  0  0  0
 36 37  1  0  0  0  0
 37 38  2  0  0  0  0
 37 31  1  0  0  0  0
 39 36  1  0  0  0  0
M  END
>  <minimizedAffinity>
-5.81792831

>  <minimizedRMSD>
0.96663326

$$$$
