REMARK  Name = 
REMARK  3 active torsions:
REMARK  status: ('A' for Active; 'I' for Inactive)
REMARK    1  A    between atoms: C_1  and  C_2
REMARK    2  A    between atoms: C_1  and  C_9
REMARK    3  A    between atoms: C_8  and  C_14
REMARK                            x       y       z     vdW  Elec       q    Type
REMARK                         _______ _______ _______ _____ _____    ______ ____
ROOT
ATOM      1  C   UNL     1      37.363  30.232  51.429  0.00  0.00    +0.000 A 
ATOM      2  C   UNL     1      38.129  30.698  50.329  0.00  0.00    +0.000 A 
ATOM      3  C   UNL     1      37.680  30.356  49.015  0.00  0.00    +0.000 A 
ATOM      4  N   UNL     1      36.549  29.607  48.922  0.00  0.00    +0.000 NA
ATOM      5  C   UNL     1      35.866  29.194  49.990  0.00  0.00    +0.000 A 
ATOM      6  N   UNL     1      36.276  29.508  51.233  0.00  0.00    +0.000 NA
ATOM      7  H   UNL     1      37.778  30.538  52.359  0.00  0.00    +0.000 HD
ATOM      8  H   UNL     1      39.028  31.294  50.401  0.00  0.00    +0.000 HD
ATOM      9  N   UNL     1      38.417  30.803  47.882  0.00  0.00    +0.000 N 
ATOM     10  C   UNL     1      39.149  29.807  47.331  0.00  0.00    +0.000 A 
ATOM     11  C   UNL     1      39.925  30.104  46.207  0.00  0.00    +0.000 A 
ATOM     12  H   UNL     1      40.544  29.383  45.693  0.00  0.00    +0.000 HD
ATOM     13  C   UNL     1      39.914  31.378  45.711  0.00  0.00    +0.000 A 
ATOM     14  O   UNL     1      40.569  31.743  44.717  0.00  0.00    +0.000 OA
ATOM     15  N   UNL     1      39.168  32.346  46.291  0.00  0.00    +0.000 N 
ATOM     16  C   UNL     1      38.423  32.050  47.374  0.00  0.00    +0.000 A 
ATOM     17  O   UNL     1      37.673  32.804  48.045  0.00  0.00    +0.000 OA
ATOM     18  H   UNL     1      39.100  33.334  45.984  0.00  0.00    +0.000 HD
ENDROOT
BRANCH   5  19
ATOM     19  C   UNL     1      34.686  28.406  49.724  0.00  0.00    +0.000 C 
ATOM     20  C   UNL     1      34.417  28.071  48.508  0.00  0.00    +0.000 C 
BRANCH  20  21
ATOM     21  C   UNL     1      33.281  27.280  48.013  0.00  0.00    +0.000 C 
ATOM     22  H   UNL     1      32.605  27.970  47.446  0.00  0.00    +0.000 HD
ATOM     23  H   UNL     1      32.646  26.849  48.820  0.00  0.00    +0.000 HD
BRANCH  21  24
ATOM     24  C   UNL     1      33.705  26.208  47.059  0.00  0.00    +0.000 A 
ATOM     25  C   UNL     1      33.931  24.890  47.369  0.00  0.00    +0.000 A 
ATOM     26  C   UNL     1      34.320  23.988  46.402  0.00  0.00    +0.000 A 
ATOM     27  C   UNL     1      34.498  24.384  45.071  0.00  0.00    +0.000 A 
ATOM     28  C   UNL     1      34.278  25.690  44.741  0.00  0.00    +0.000 A 
ATOM     29  C   UNL     1      33.888  26.582  45.725  0.00  0.00    +0.000 A 
ATOM     30  H   UNL     1      33.783  24.615  48.415  0.00  0.00    +0.000 HD
ATOM     31  H   UNL     1      34.479  22.963  46.725  0.00  0.00    +0.000 HD
ATOM     32  H   UNL     1      34.799  23.639  44.371  0.00  0.00    +0.000 HD
ATOM     33  H   UNL     1      34.406  26.035  43.721  0.00  0.00    +0.000 HD
ATOM     34  H   UNL     1      33.725  27.598  45.429  0.00  0.00    +0.000 HD
ENDBRANCH  21  24
ENDBRANCH  20  21
ENDBRANCH   5  19
TORSDOF 3
