
 OpenBabel03272507193D

 31 33  0  0  1  0  0  0  0  0999 V2000
   37.4430   31.7880   48.8310 C   0  0  0  0  0  0  0  0  0  0  0  0
   38.0440   32.7750   49.5890 C   0  0  0  0  0  0  0  0  0  0  0  0
   39.0420   33.5090   48.8990 C   0  0  0  0  0  0  0  0  0  0  0  0
   39.3490   33.2240   47.5900 N   0  0  0  0  0  0  0  0  0  0  0  0
   38.7190   32.2410   46.9120 C   0  0  0  0  0  0  0  0  0  0  0  0
   37.7490   31.5120   47.5460 N   0  0  0  0  0  0  0  0  0  0  0  0
   37.7970   32.9930   50.6170 H   0  0  0  0  0  0  0  0  0  0  0  0
   39.5650   34.3050   49.4210 H   0  0  0  0  0  0  0  0  0  0  0  0
   39.1010   32.0140   45.5600 N   0  0  0  0  0  0  0  0  0  0  0  0
   39.1920   33.1140   44.7580 C   0  0  0  0  0  3  0  0  0  0  0  0
   39.5570   32.9760   43.4360 C   0  0  0  0  0  0  0  0  0  0  0  0
   39.6440   33.8040   42.7610 H   0  0  0  0  0  0  0  0  0  0  0  0
   39.8370   31.7220   42.8970 C   0  0  0  0  0  0  0  0  0  0  0  0
   40.1720   31.5910   41.6880 O   0  0  0  0  0  0  0  0  0  0  0  0
   39.7330   30.6610   43.7340 N   0  0  0  0  0  0  0  0  0  0  0  0
   39.3790   30.8100   45.0130 C   0  0  0  0  0  0  0  0  0  0  0  0
   39.2810   29.8190   45.7960 O   0  0  0  0  0  0  0  0  0  0  0  0
   39.9440   29.7030   43.3410 H   0  0  0  0  0  0  0  0  0  0  0  0
   36.3580   31.0210   49.5180 C   0  0  1  0  0  0  0  0  0  0  0  0
   35.3770   30.2310   48.7760 C   0  0  2  0  0  0  0  0  0  0  0  0
   36.5450   29.4970   49.3650 C   0  0  0  0  0  0  0  0  0  0  0  0
   36.1650   31.3550   50.5600 H   0  0  0  0  0  0  0  0  0  0  0  0
   34.3640   30.2220   49.2800 H   0  0  0  0  0  0  0  0  0  0  0  0
   37.3310   29.1300   48.6760 H   0  0  0  0  0  0  0  0  0  0  0  0
   36.2970   28.9170   50.2650 H   0  0  0  0  0  0  0  0  0  0  0  0
   35.3300   30.4170   47.4010 O   0  0  0  0  0  0  0  0  0  0  0  0
   34.3740   30.0710   46.5060 C   0  0  0  0  0  0  0  0  0  0  0  0
   34.5760   29.2260   45.6060 O   0  0  0  0  0  0  0  0  0  0  0  0
   33.2250   30.8060   46.7930 N   0  0  0  0  0  0  0  0  0  0  0  0
   32.4370   31.4670   46.5960 H   0  0  0  0  0  0  0  0  0  0  0  0
   32.6900   30.8360   47.7040 H   0  0  0  0  0  0  0  0  0  0  0  0
  1 19  1  0  0  0  0
  1  2  1  0  0  0  0
  2  7  1  0  0  0  0
  3  8  1  0  0  0  0
  3  2  2  0  0  0  0
  4  3  1  0  0  0  0
  5  6  1  0  0  0  0
  5  4  2  0  0  0  0
  6  1  2  0  0  0  0
  9  5  1  0  0  0  0
 10  9  1  0  0  0  0
 11 10  2  0  0  0  0
 12 11  1  0  0  0  0
 13 11  1  0  0  0  0
 13 15  1  0  0  0  0
 14 13  2  0  0  0  0
 15 16  1  0  0  0  0
 16  9  1  0  0  0  0
 16 17  2  0  0  0  0
 18 15  1  0  0  0  0
 19 22  1  1  0  0  0
 20 23  1  1  0  0  0
 20 21  1  0  0  0  0
 20 19  1  0  0  0  0
 21 19  1  0  0  0  0
 21 25  1  0  0  0  0
 24 21  1  0  0  0  0
 26 20  1  0  0  0  0
 27 29  1  0  0  0  0
 27 26  1  0  0  0  0
 28 27  2  0  0  0  0
 29 31  1  0  0  0  0
 30 29  1  0  0  0  0
M  END
>  <minimizedAffinity>
-6.07578993

>  <minimizedRMSD>
2.8634851

$$$$
