
 OpenBabel03272507333D

 37 40  0  0  1  0  0  0  0  0999 V2000
   33.1840   27.4430   48.1640 C   0  0  0  0  0  0  0  0  0  0  0  0
   31.9370   27.3980   48.4310 O   0  0  0  0  0  0  0  0  0  0  0  0
   35.8590   29.1490   49.8110 C   0  0  0  0  0  0  0  0  0  0  0  0
   34.8070   29.6210   50.5700 C   0  0  0  0  0  0  0  0  0  0  0  0
   33.6330   29.0500   50.0610 C   0  0  0  0  0  0  0  0  0  0  0  0
   34.0510   28.2580   49.0140 C   0  0  0  0  0  0  0  0  0  0  0  0
   35.3590   28.3460   48.9050 O   0  0  0  0  0  0  0  0  0  0  0  0
   34.8260   30.3130   51.4200 H   0  0  0  0  0  0  0  0  0  0  0  0
   32.6380   29.2290   50.4470 H   0  0  0  0  0  0  0  0  0  0  0  0
   37.2350   29.5400   50.0650 C   0  0  0  0  0  0  0  0  0  0  0  0
   37.8650   28.9820   50.9750 O   0  0  0  0  0  0  0  0  0  0  0  0
   37.7860   30.5710   49.2260 C   0  0  0  0  0  0  0  0  0  0  0  0
   38.1380   31.7660   49.8380 C   0  0  0  0  0  0  0  0  0  0  0  0
   38.6740   32.7860   49.0480 C   0  0  0  0  0  0  0  0  0  0  0  0
   38.8210   32.5450   47.6990 N   0  0  0  0  0  0  0  0  0  0  0  0
   38.4730   31.3850   47.1460 C   0  0  0  0  0  0  0  0  0  0  0  0
   37.9570   30.3960   47.8950 N   0  0  0  0  0  0  0  0  0  0  0  0
   38.0100   31.9220   50.8950 H   0  0  0  0  0  0  0  0  0  0  0  0
   38.9480   33.7150   49.5240 H   0  0  0  0  0  0  0  0  0  0  0  0
   38.6210   31.2770   46.0820 H   0  0  0  0  0  0  0  0  0  0  0  0
   33.7520   26.6730   47.0070 C   0  0  1  0  0  0  0  0  0  0  0  0
   33.7440   25.1280   47.3400 C   0  0  0  0  0  0  0  0  0  0  0  0
   32.9260   25.7260   46.2610 C   0  0  2  0  0  0  0  0  0  0  0  0
   34.7840   26.9660   46.7280 H   0  0  0  0  0  0  0  0  0  0  0  0
   33.2960   24.8240   48.2830 H   0  0  0  0  0  0  0  0  0  0  0  0
   34.6410   24.5680   47.0380 H   0  0  0  0  0  0  0  0  0  0  0  0
   31.8280   25.7710   46.5280 H   0  0  0  0  0  0  0  0  0  0  0  0
   33.1860   25.5560   44.8690 N   0  0  0  0  0  0  0  0  0  0  0  0
   34.2840   26.1200   44.2800 C   0  0  0  0  0  3  0  0  0  0  0  0
   34.5430   25.9620   42.9330 C   0  0  0  0  0  0  0  0  0  0  0  0
   35.4480   26.4620   42.5950 H   0  0  0  0  0  0  0  0  0  0  0  0
   33.7080   25.2280   42.1180 C   0  0  0  0  0  0  0  0  0  0  0  0
   34.0720   25.1720   40.9160 O   0  0  0  0  0  0  0  0  0  0  0  0
   32.6300   24.6760   42.7070 N   0  0  0  0  0  0  0  0  0  0  0  0
   32.4160   24.8560   44.0220 C   0  0  0  0  0  0  0  0  0  0  0  0
   31.3850   24.2940   44.4420 O   0  0  0  0  0  0  0  0  0  0  0  0
   32.0200   24.1300   42.0700 H   0  0  0  0  0  0  0  0  0  0  0  0
  1  2  2  0  0  0  0
  1  6  1  0  0  0  0
  3 10  1  0  0  0  0
  3  4  2  0  0  0  0
  4  8  1  0  0  0  0
  5  9  1  0  0  0  0
  5  4  1  0  0  0  0
  6  5  2  0  0  0  0
  7  6  1  0  0  0  0
  7  3  1  0  0  0  0
 10 11  2  0  0  0  0
 12 13  1  0  0  0  0
 12 10  1  0  0  0  0
 13 18  1  0  0  0  0
 14 19  1  0  0  0  0
 14 13  2  0  0  0  0
 15 14  1  0  0  0  0
 16 15  2  0  0  0  0
 16 17  1  0  0  0  0
 17 12  2  0  0  0  0
 20 16  1  0  0  0  0
 21 24  1  6  0  0  0
 21 22  1  0  0  0  0
 21  1  1  0  0  0  0
 22 25  1  0  0  0  0
 23 27  1  1  0  0  0
 23 21  1  0  0  0  0
 23 22  1  0  0  0  0
 26 22  1  0  0  0  0
 28 23  1  0  0  0  0
 29 28  1  0  0  0  0
 30 29  2  0  0  0  0
 31 30  1  0  0  0  0
 32 34  1  0  0  0  0
 32 30  1  0  0  0  0
 33 32  2  0  0  0  0
 34 35  1  0  0  0  0
 35 36  2  0  0  0  0
 35 28  1  0  0  0  0
 37 34  1  0  0  0  0
M  END
>  <minimizedAffinity>
-4.90329504

>  <minimizedRMSD>
0.379371524

$$$$
