
 OpenBabel03272506323D

 41 43  0  0  1  0  0  0  0  0999 V2000
   37.4690   26.8500   33.4480 C   0  0  1  0  0  0  0  0  0  0  0  0
   38.6410   26.6160   32.6350 C   0  0  0  0  0  0  0  0  0  0  0  0
   39.9670   27.1080   33.1800 C   0  0  0  0  0  0  0  0  0  0  0  0
   40.1460   26.9730   34.6530 C   0  0  0  0  0  0  0  0  0  0  0  0
   38.9500   27.1720   35.5120 C   0  0  0  0  0  0  0  0  0  0  0  0
   37.7190   26.5970   34.9170 C   0  0  2  0  0  0  0  0  0  0  0  0
   36.6840   26.0680   33.2060 H   0  0  0  0  0  0  0  0  0  0  0  0
   38.6140   26.9090   31.5890 H   0  0  0  0  0  0  0  0  0  0  0  0
   38.7900   25.4980   32.5990 H   0  0  0  0  0  0  0  0  0  0  0  0
   40.7900   26.5530   32.6780 H   0  0  0  0  0  0  0  0  0  0  0  0
   40.0720   28.1720   32.8470 H   0  0  0  0  0  0  0  0  0  0  0  0
   40.8760   27.7780   34.9460 H   0  0  0  0  0  0  0  0  0  0  0  0
   40.6660   26.0320   34.9320 H   0  0  0  0  0  0  0  0  0  0  0  0
   38.7890   28.2740   35.6790 H   0  0  0  0  0  0  0  0  0  0  0  0
   39.1280   26.6600   36.4660 H   0  0  0  0  0  0  0  0  0  0  0  0
   36.8420   26.7860   35.5580 H   0  0  0  0  0  0  0  0  0  0  0  0
   35.9690   28.7620   34.2440 C   0  0  0  0  0  0  0  0  0  0  0  0
   36.7460   28.1160   33.2330 C   0  0  0  0  0  0  0  0  0  0  0  0
   36.7800   28.7590   32.0080 C   0  0  0  0  0  0  0  0  0  0  0  0
   36.0950   29.9340   31.8300 N   0  0  0  0  0  0  0  0  0  0  0  0
   35.3800   30.4920   32.8240 C   0  0  0  0  0  0  0  0  0  0  0  0
   35.3180   29.8940   34.0450 N   0  0  0  0  0  0  0  0  0  0  0  0
   35.9240   28.2810   35.2130 H   0  0  0  0  0  0  0  0  0  0  0  0
   37.3270   28.3770   31.1720 H   0  0  0  0  0  0  0  0  0  0  0  0
   34.8560   31.4200   32.6400 H   0  0  0  0  0  0  0  0  0  0  0  0
   37.9210   25.0610   35.0080 C   0  0  0  0  0  0  0  0  0  0  0  0
   38.8850   24.7640   34.5800 H   0  0  0  0  0  0  0  0  0  0  0  0
   37.0940   24.5220   34.5030 H   0  0  0  0  0  0  0  0  0  0  0  0
   37.8870   24.6080   36.4610 C   0  0  0  0  0  0  0  0  0  0  0  0
   38.0000   25.4920   37.1100 H   0  0  0  0  0  0  0  0  0  0  0  0
   36.9480   24.0400   36.6260 H   0  0  0  0  0  0  0  0  0  0  0  0
   39.0110   23.6850   36.6530 N   0  0  0  0  0  0  0  0  0  0  0  0
   39.8890   23.4090   35.6580 C   0  0  0  0  0  3  0  0  0  0  0  0
   40.9050   22.5130   35.9890 C   0  0  0  0  0  0  0  0  0  0  0  0
   41.6170   22.2860   35.1930 H   0  0  0  0  0  0  0  0  0  0  0  0
   41.0160   21.9440   37.2390 C   0  0  0  0  0  0  0  0  0  0  0  0
   41.9740   21.1570   37.4010 O   0  0  0  0  0  0  0  0  0  0  0  0
   40.1170   22.2450   38.2080 N   0  0  0  0  0  0  0  0  0  0  0  0
   39.1590   23.1060   37.8580 C   0  0  0  0  0  0  0  0  0  0  0  0
   38.3200   23.3850   38.7650 O   0  0  0  0  0  0  0  0  0  0  0  0
   40.2100   21.8130   39.1390 H   0  0  0  0  0  0  0  0  0  0  0  0
  1  7  1  6  0  0  0
  1  6  1  0  0  0  0
  2  3  1  0  0  0  0
  2  1  1  0  0  0  0
  3  4  1  0  0  0  0
  4 13  1  0  0  0  0
  4 12  1  0  0  0  0
  4  5  1  0  0  0  0
  5 14  1  0  0  0  0
  5 15  1  0  0  0  0
  6 26  1  0  0  0  0
  6  5  1  0  0  0  0
  6 16  1  1  0  0  0
  8  2  1  0  0  0  0
  9  2  1  0  0  0  0
 10  3  1  0  0  0  0
 11  3  1  0  0  0  0
 17 23  1  0  0  0  0
 18  1  1  0  0  0  0
 18 17  2  0  0  0  0
 19 18  1  0  0  0  0
 20 19  2  0  0  0  0
 20 21  1  0  0  0  0
 21 22  2  0  0  0  0
 22 17  1  0  0  0  0
 24 19  1  0  0  0  0
 25 21  1  0  0  0  0
 26 29  1  0  0  0  0
 27 26  1  0  0  0  0
 28 26  1  0  0  0  0
 29 31  1  0  0  0  0
 29 32  1  0  0  0  0
 29 30  1  0  0  0  0
 32 39  1  0  0  0  0
 33 34  2  0  0  0  0
 33 32  1  0  0  0  0
 34 36  1  0  0  0  0
 35 34  1  0  0  0  0
 36 37  2  0  0  0  0
 36 38  1  0  0  0  0
 38 41  1  0  0  0  0
 39 38  1  0  0  0  0
 39 40  2  0  0  0  0
M  END
>  <minimizedAffinity>
-6.2056694

$$$$

 OpenBabel03272506323D

 41 43  0  0  1  0  0  0  0  0999 V2000
   38.1450   26.5300   32.9550 C   0  0  1  0  0  0  0  0  0  0  0  0
   39.4750   26.3550   32.4170 C   0  0  0  0  0  0  0  0  0  0  0  0
   40.6160   26.9990   33.1800 C   0  0  0  0  0  0  0  0  0  0  0  0
   40.4930   26.9700   34.6650 C   0  0  0  0  0  0  0  0  0  0  0  0
   39.1320   27.1100   35.2450 C   0  0  0  0  0  0  0  0  0  0  0  0
   38.1000   26.3900   34.4590 C   0  0  2  0  0  0  0  0  0  0  0  0
   37.4910   25.6660   32.6200 H   0  0  0  0  0  0  0  0  0  0  0  0
   39.6450   26.5810   31.3690 H   0  0  0  0  0  0  0  0  0  0  0  0
   39.7140   25.2550   32.5000 H   0  0  0  0  0  0  0  0  0  0  0  0
   41.5670   26.4920   32.9010 H   0  0  0  0  0  0  0  0  0  0  0  0
   40.7070   28.0460   32.7930 H   0  0  0  0  0  0  0  0  0  0  0  0
   41.0810   27.8550   35.0360 H   0  0  0  0  0  0  0  0  0  0  0  0
   41.0140   26.0990   35.1170 H   0  0  0  0  0  0  0  0  0  0  0  0
   38.8550   28.2020   35.2890 H   0  0  0  0  0  0  0  0  0  0  0  0
   39.1460   26.6750   36.2520 H   0  0  0  0  0  0  0  0  0  0  0  0
   37.0970   26.5370   34.8920 H   0  0  0  0  0  0  0  0  0  0  0  0
   37.6320   28.3710   31.2560 C   0  0  0  0  0  0  0  0  0  0  0  0
   37.3880   27.7090   32.4990 C   0  0  0  0  0  0  0  0  0  0  0  0
   36.3790   28.2540   33.2740 C   0  0  0  0  0  0  0  0  0  0  0  0
   35.6910   29.3550   32.8300 N   0  0  0  0  0  0  0  0  0  0  0  0
   35.9690   29.9320   31.6470 C   0  0  0  0  0  0  0  0  0  0  0  0
   36.9550   29.4310   30.8530 N   0  0  0  0  0  0  0  0  0  0  0  0
   38.4170   27.9670   30.6290 H   0  0  0  0  0  0  0  0  0  0  0  0
   36.1000   27.8490   34.2240 H   0  0  0  0  0  0  0  0  0  0  0  0
   35.4020   30.7990   31.3370 H   0  0  0  0  0  0  0  0  0  0  0  0
   38.3970   24.8880   34.7090 C   0  0  0  0  0  0  0  0  0  0  0  0
   39.4050   24.6220   34.3700 H   0  0  0  0  0  0  0  0  0  0  0  0
   37.6430   24.2460   34.2100 H   0  0  0  0  0  0  0  0  0  0  0  0
   38.2960   24.5690   36.1950 C   0  0  0  0  0  0  0  0  0  0  0  0
   38.4490   25.4980   36.7670 H   0  0  0  0  0  0  0  0  0  0  0  0
   37.3190   24.0760   36.3780 H   0  0  0  0  0  0  0  0  0  0  0  0
   39.3540   23.6000   36.5010 N   0  0  0  0  0  0  0  0  0  0  0  0
   40.3570   23.3330   35.6290 C   0  0  0  0  0  3  0  0  0  0  0  0
   41.2890   22.3900   36.0590 C   0  0  0  0  0  0  0  0  0  0  0  0
   42.1000   22.1700   35.3620 H   0  0  0  0  0  0  0  0  0  0  0  0
   41.2040   21.7670   37.2850 C   0  0  0  0  0  0  0  0  0  0  0  0
   42.1060   20.9400   37.5450 O   0  0  0  0  0  0  0  0  0  0  0  0
   40.1850   22.0600   38.1300 N   0  0  0  0  0  0  0  0  0  0  0  0
   39.3120   22.9670   37.6870 C   0  0  0  0  0  0  0  0  0  0  0  0
   38.3610   23.2380   38.4790 O   0  0  0  0  0  0  0  0  0  0  0  0
   40.1310   21.5880   39.0450 H   0  0  0  0  0  0  0  0  0  0  0  0
  1  7  1  6  0  0  0
  1  6  1  0  0  0  0
  2  9  1  0  0  0  0
  2  1  1  0  0  0  0
  2  3  1  0  0  0  0
  3  4  1  0  0  0  0
  4 12  1  0  0  0  0
  4 13  1  0  0  0  0
  4  5  1  0  0  0  0
  5 14  1  0  0  0  0
  5 15  1  0  0  0  0
  6 26  1  0  0  0  0
  6 16  1  1  0  0  0
  6  5  1  0  0  0  0
  8  2  1  0  0  0  0
 10  3  1  0  0  0  0
 11  3  1  0  0  0  0
 17 18  1  0  0  0  0
 18  1  1  0  0  0  0
 18 19  2  0  0  0  0
 19 24  1  0  0  0  0
 20 19  1  0  0  0  0
 21 20  2  0  0  0  0
 22 17  2  0  0  0  0
 22 21  1  0  0  0  0
 23 17  1  0  0  0  0
 25 21  1  0  0  0  0
 26 29  1  0  0  0  0
 27 26  1  0  0  0  0
 28 26  1  0  0  0  0
 29 31  1  0  0  0  0
 29 32  1  0  0  0  0
 29 30  1  0  0  0  0
 32 39  1  0  0  0  0
 33 34  2  0  0  0  0
 33 32  1  0  0  0  0
 34 36  1  0  0  0  0
 35 34  1  0  0  0  0
 36 37  2  0  0  0  0
 36 38  1  0  0  0  0
 38 41  1  0  0  0  0
 39 38  1  0  0  0  0
 39 40  2  0  0  0  0
M  END
>  <minimizedAffinity>
-5.91081047

$$$$

 OpenBabel03272506323D

 41 43  0  0  1  0  0  0  0  0999 V2000
   38.1340   26.4620   35.3370 C   0  0  1  0  0  0  0  0  0  0  0  0
   39.4300   26.9740   34.9560 C   0  0  0  0  0  0  0  0  0  0  0  0
   39.7420   27.0220   33.4730 C   0  0  0  0  0  0  0  0  0  0  0  0
   38.6000   27.3870   32.5880 C   0  0  0  0  0  0  0  0  0  0  0  0
   37.2490   26.9050   32.9760 C   0  0  0  0  0  0  0  0  0  0  0  0
   37.0230   26.9590   34.4410 C   0  0  2  0  0  0  0  0  0  0  0  0
   37.8390   26.9020   36.3410 H   0  0  0  0  0  0  0  0  0  0  0  0
   40.3130   26.5640   35.4390 H   0  0  0  0  0  0  0  0  0  0  0  0
   39.4440   28.0640   35.2460 H   0  0  0  0  0  0  0  0  0  0  0  0
   40.5610   27.7560   33.3020 H   0  0  0  0  0  0  0  0  0  0  0  0
   40.1700   26.0230   33.2050 H   0  0  0  0  0  0  0  0  0  0  0  0
   38.8240   26.9130   31.5920 H   0  0  0  0  0  0  0  0  0  0  0  0
   38.5680   28.4740   32.3620 H   0  0  0  0  0  0  0  0  0  0  0  0
   37.1180   25.8410   32.6300 H   0  0  0  0  0  0  0  0  0  0  0  0
   36.5060   27.5580   32.5010 H   0  0  0  0  0  0  0  0  0  0  0  0
   36.0270   26.5670   34.7040 H   0  0  0  0  0  0  0  0  0  0  0  0
   38.2420   24.0290   34.5560 C   0  0  0  0  0  0  0  0  0  0  0  0
   38.0290   25.0110   35.5730 C   0  0  0  0  0  0  0  0  0  0  0  0
   37.7050   24.5110   36.8220 C   0  0  0  0  0  0  0  0  0  0  0  0
   37.6090   23.1560   37.0160 N   0  0  0  0  0  0  0  0  0  0  0  0
   37.8230   22.2830   36.0150 C   0  0  0  0  0  0  0  0  0  0  0  0
   38.1430   22.7290   34.7700 N   0  0  0  0  0  0  0  0  0  0  0  0
   38.4970   24.3910   33.5680 H   0  0  0  0  0  0  0  0  0  0  0  0
   37.5220   25.1430   37.6650 H   0  0  0  0  0  0  0  0  0  0  0  0
   37.7370   21.2230   36.2130 H   0  0  0  0  0  0  0  0  0  0  0  0
   36.9240   28.4730   34.7650 C   0  0  0  0  0  0  0  0  0  0  0  0
   37.8210   29.0080   34.4330 H   0  0  0  0  0  0  0  0  0  0  0  0
   36.7580   28.6370   35.8490 H   0  0  0  0  0  0  0  0  0  0  0  0
   35.7190   29.0860   34.0640 C   0  0  0  0  0  0  0  0  0  0  0  0
   36.0560   29.5470   33.1210 H   0  0  0  0  0  0  0  0  0  0  0  0
   34.9520   28.2950   33.9350 H   0  0  0  0  0  0  0  0  0  0  0  0
   35.1680   30.1050   34.9640 N   0  0  0  0  0  0  0  0  0  0  0  0
   35.9630   30.9710   35.6400 C   0  0  0  0  0  3  0  0  0  0  0  0
   35.2960   31.8820   36.4570 C   0  0  0  0  0  0  0  0  0  0  0  0
   35.9290   32.5820   37.0050 H   0  0  0  0  0  0  0  0  0  0  0  0
   33.9220   31.9090   36.5740 C   0  0  0  0  0  0  0  0  0  0  0  0
   33.4540   32.7780   37.3420 O   0  0  0  0  0  0  0  0  0  0  0  0
   33.1620   31.0270   35.8810 N   0  0  0  0  0  0  0  0  0  0  0  0
   33.8320   30.1690   35.1080 C   0  0  0  0  0  0  0  0  0  0  0  0
   33.1180   29.3460   34.4630 O   0  0  0  0  0  0  0  0  0  0  0  0
   32.1350   31.0560   35.9760 H   0  0  0  0  0  0  0  0  0  0  0  0
  1 18  1  0  0  0  0
  1  7  1  1  0  0  0
  2  9  1  0  0  0  0
  2  1  1  0  0  0  0
  2  8  1  0  0  0  0
  3  2  1  0  0  0  0
  4  5  1  0  0  0  0
  4  3  1  0  0  0  0
  5  6  1  0  0  0  0
  6 16  1  1  0  0  0
  6 26  1  0  0  0  0
  6  1  1  0  0  0  0
 10  3  1  0  0  0  0
 11  3  1  0  0  0  0
 12  4  1  0  0  0  0
 13  4  1  0  0  0  0
 14  5  1  0  0  0  0
 15  5  1  0  0  0  0
 17 22  2  0  0  0  0
 17 18  1  0  0  0  0
 18 19  2  0  0  0  0
 19 20  1  0  0  0  0
 19 24  1  0  0  0  0
 21 25  1  0  0  0  0
 21 20  2  0  0  0  0
 22 21  1  0  0  0  0
 23 17  1  0  0  0  0
 26 28  1  0  0  0  0
 27 26  1  0  0  0  0
 29 26  1  0  0  0  0
 29 32  1  0  0  0  0
 30 29  1  0  0  0  0
 31 29  1  0  0  0  0
 32 39  1  0  0  0  0
 32 33  1  0  0  0  0
 33 34  2  0  0  0  0
 34 36  1  0  0  0  0
 34 35  1  0  0  0  0
 36 37  2  0  0  0  0
 38 41  1  0  0  0  0
 38 36  1  0  0  0  0
 39 38  1  0  0  0  0
 40 39  2  0  0  0  0
M  END
>  <minimizedAffinity>
-5.61059332

$$$$

 OpenBabel03272506323D

 41 43  0  0  1  0  0  0  0  0999 V2000
   36.8270   22.9450   32.5880 C   0  0  1  0  0  0  0  0  0  0  0  0
   35.9480   21.8430   32.2680 C   0  0  0  0  0  0  0  0  0  0  0  0
   36.2800   21.0340   31.0300 C   0  0  0  0  0  0  0  0  0  0  0  0
   37.7320   20.8190   30.7740 C   0  0  0  0  0  0  0  0  0  0  0  0
   38.6630   21.9210   31.1270 C   0  0  0  0  0  0  0  0  0  0  0  0
   38.2860   22.6050   32.3890 C   0  0  2  0  0  0  0  0  0  0  0  0
   36.7830   23.1460   33.7030 H   0  0  0  0  0  0  0  0  0  0  0  0
   34.8780   22.0260   32.2340 H   0  0  0  0  0  0  0  0  0  0  0  0
   36.0680   21.0850   33.0960 H   0  0  0  0  0  0  0  0  0  0  0  0
   35.7900   20.0380   31.1090 H   0  0  0  0  0  0  0  0  0  0  0  0
   35.7810   21.5500   30.1700 H   0  0  0  0  0  0  0  0  0  0  0  0
   37.8270   20.6770   29.6620 H   0  0  0  0  0  0  0  0  0  0  0  0
   38.0990   19.8580   31.1950 H   0  0  0  0  0  0  0  0  0  0  0  0
   38.6770   22.6810   30.2950 H   0  0  0  0  0  0  0  0  0  0  0  0
   39.6620   21.4900   31.2700 H   0  0  0  0  0  0  0  0  0  0  0  0
   38.9730   23.4380   32.6100 H   0  0  0  0  0  0  0  0  0  0  0  0
   35.3150   24.5020   31.2340 C   0  0  0  0  0  0  0  0  0  0  0  0
   36.4930   24.2580   32.0060 C   0  0  0  0  0  0  0  0  0  0  0  0
   37.3280   25.3480   32.1780 C   0  0  0  0  0  0  0  0  0  0  0  0
   36.9990   26.5590   31.6230 N   0  0  0  0  0  0  0  0  0  0  0  0
   35.8720   26.7250   30.9060 C   0  0  0  0  0  0  0  0  0  0  0  0
   35.0230   25.6790   30.7110 N   0  0  0  0  0  0  0  0  0  0  0  0
   34.6430   23.6670   31.0830 H   0  0  0  0  0  0  0  0  0  0  0  0
   38.2390   25.2940   32.7360 H   0  0  0  0  0  0  0  0  0  0  0  0
   35.6530   27.6970   30.4870 H   0  0  0  0  0  0  0  0  0  0  0  0
   38.5880   21.5670   33.5010 C   0  0  0  0  0  0  0  0  0  0  0  0
   38.6920   20.5590   33.0840 H   0  0  0  0  0  0  0  0  0  0  0  0
   37.7990   21.5800   34.2810 H   0  0  0  0  0  0  0  0  0  0  0  0
   39.8850   21.9210   34.2160 C   0  0  0  0  0  0  0  0  0  0  0  0
   40.5040   21.0130   34.2940 H   0  0  0  0  0  0  0  0  0  0  0  0
   40.3670   22.7560   33.6680 H   0  0  0  0  0  0  0  0  0  0  0  0
   39.5220   22.4100   35.5510 N   0  0  0  0  0  0  0  0  0  0  0  0
   38.4250   23.1770   35.7610 C   0  0  0  0  0  3  0  0  0  0  0  0
   38.2090   23.5650   37.0820 C   0  0  0  0  0  0  0  0  0  0  0  0
   37.3270   24.1840   37.2590 H   0  0  0  0  0  0  0  0  0  0  0  0
   39.0490   23.1980   38.1110 C   0  0  0  0  0  0  0  0  0  0  0  0
   38.7400   23.6150   39.2490 O   0  0  0  0  0  0  0  0  0  0  0  0
   40.1380   22.4300   37.8620 N   0  0  0  0  0  0  0  0  0  0  0  0
   40.3140   22.0750   36.5870 C   0  0  0  0  0  0  0  0  0  0  0  0
   41.3320   21.3580   36.3570 O   0  0  0  0  0  0  0  0  0  0  0  0
   40.7590   22.1610   38.6390 H   0  0  0  0  0  0  0  0  0  0  0  0
  1  7  1  1  0  0  0
  2  1  1  0  0  0  0
  2  9  1  0  0  0  0
  3 10  1  0  0  0  0
  3  2  1  0  0  0  0
  4  3  1  0  0  0  0
  4  5  1  0  0  0  0
  4 13  1  0  0  0  0
  5 15  1  0  0  0  0
  5  6  1  0  0  0  0
  6  1  1  0  0  0  0
  6 16  1  1  0  0  0
  6 26  1  0  0  0  0
  8  2  1  0  0  0  0
 11  3  1  0  0  0  0
 12  4  1  0  0  0  0
 14  5  1  0  0  0  0
 17 18  1  0  0  0  0
 18 19  2  0  0  0  0
 18  1  1  0  0  0  0
 19 24  1  0  0  0  0
 20 19  1  0  0  0  0
 21 20  2  0  0  0  0
 22 21  1  0  0  0  0
 22 17  2  0  0  0  0
 23 17  1  0  0  0  0
 25 21  1  0  0  0  0
 26 29  1  0  0  0  0
 26 28  1  0  0  0  0
 27 26  1  0  0  0  0
 29 30  1  0  0  0  0
 29 32  1  0  0  0  0
 31 29  1  0  0  0  0
 32 33  1  0  0  0  0
 32 39  1  0  0  0  0
 33 34  2  0  0  0  0
 34 35  1  0  0  0  0
 34 36  1  0  0  0  0
 36 37  2  0  0  0  0
 38 36  1  0  0  0  0
 38 41  1  0  0  0  0
 39 38  1  0  0  0  0
 40 39  2  0  0  0  0
M  END
>  <minimizedAffinity>
-5.3389492

$$$$

 OpenBabel03272506323D

 41 43  0  0  1  0  0  0  0  0999 V2000
   38.4970   24.3120   35.3780 C   0  0  1  0  0  0  0  0  0  0  0  0
   37.7720   25.0990   36.3490 C   0  0  0  0  0  0  0  0  0  0  0  0
   38.3400   26.4620   36.6920 C   0  0  0  0  0  0  0  0  0  0  0  0
   38.9480   27.2090   35.5560 C   0  0  0  0  0  0  0  0  0  0  0  0
   39.6680   26.4210   34.5220 C   0  0  0  0  0  0  0  0  0  0  0  0
   38.9950   25.1360   34.2130 C   0  0  2  0  0  0  0  0  0  0  0  0
   37.7790   23.5960   34.8680 H   0  0  0  0  0  0  0  0  0  0  0  0
   37.4990   24.6370   37.2930 H   0  0  0  0  0  0  0  0  0  0  0  0
   36.7790   25.3580   35.8780 H   0  0  0  0  0  0  0  0  0  0  0  0
   37.5300   27.0900   37.1260 H   0  0  0  0  0  0  0  0  0  0  0  0
   39.0750   26.3000   37.5220 H   0  0  0  0  0  0  0  0  0  0  0  0
   39.7160   27.8910   36.0170 H   0  0  0  0  0  0  0  0  0  0  0  0
   38.2310   27.9070   35.0740 H   0  0  0  0  0  0  0  0  0  0  0  0
   40.7150   26.2030   34.8790 H   0  0  0  0  0  0  0  0  0  0  0  0
   39.6930   27.0130   33.5990 H   0  0  0  0  0  0  0  0  0  0  0  0
   39.5660   24.5570   33.4690 H   0  0  0  0  0  0  0  0  0  0  0  0
   40.5880   22.8700   35.0790 C   0  0  0  0  0  0  0  0  0  0  0  0
   39.5450   23.4130   35.8920 C   0  0  0  0  0  0  0  0  0  0  0  0
   39.5710   23.0340   37.2230 C   0  0  0  0  0  0  0  0  0  0  0  0
   40.5550   22.1920   37.6780 N   0  0  0  0  0  0  0  0  0  0  0  0
   41.5110   21.7150   36.8590 C   0  0  0  0  0  0  0  0  0  0  0  0
   41.5230   22.0610   35.5430 N   0  0  0  0  0  0  0  0  0  0  0  0
   40.5920   23.1500   34.0330 H   0  0  0  0  0  0  0  0  0  0  0  0
   38.8470   23.3730   37.9330 H   0  0  0  0  0  0  0  0  0  0  0  0
   42.2670   21.0540   37.2600 H   0  0  0  0  0  0  0  0  0  0  0  0
   37.7040   25.5430   33.4570 C   0  0  0  0  0  0  0  0  0  0  0  0
   37.5570   26.6290   33.4820 H   0  0  0  0  0  0  0  0  0  0  0  0
   36.8170   25.0260   33.8780 H   0  0  0  0  0  0  0  0  0  0  0  0
   37.7850   25.1090   32.0000 C   0  0  0  0  0  0  0  0  0  0  0  0
   38.7360   24.5770   31.8420 H   0  0  0  0  0  0  0  0  0  0  0  0
   36.8820   24.5080   31.7660 H   0  0  0  0  0  0  0  0  0  0  0  0
   37.7380   26.3270   31.1830 N   0  0  0  0  0  0  0  0  0  0  0  0
   38.8460   27.0690   30.9370 C   0  0  0  0  0  3  0  0  0  0  0  0
   38.6470   28.1980   30.1450 C   0  0  0  0  0  0  0  0  0  0  0  0
   39.5350   28.8010   29.9430 H   0  0  0  0  0  0  0  0  0  0  0  0
   37.4120   28.5440   29.6410 C   0  0  0  0  0  0  0  0  0  0  0  0
   37.3730   29.5820   28.9460 O   0  0  0  0  0  0  0  0  0  0  0  0
   36.3270   27.7770   29.9100 N   0  0  0  0  0  0  0  0  0  0  0  0
   36.5530   26.7030   30.6700 C   0  0  0  0  0  0  0  0  0  0  0  0
   35.5380   25.9890   30.9190 O   0  0  0  0  0  0  0  0  0  0  0  0
   35.4070   28.0450   29.5280 H   0  0  0  0  0  0  0  0  0  0  0  0
  1  7  1  6  0  0  0
  1 18  1  0  0  0  0
  1  2  1  0  0  0  0
  2  3  1  0  0  0  0
  2  8  1  0  0  0  0
  3 10  1  0  0  0  0
  3 11  1  0  0  0  0
  4 12  1  0  0  0  0
  4  3  1  0  0  0  0
  5 14  1  0  0  0  0
  5  4  1  0  0  0  0
  6 16  1  6  0  0  0
  6  5  1  0  0  0  0
  6  1  1  0  0  0  0
  9  2  1  0  0  0  0
 13  4  1  0  0  0  0
 15  5  1  0  0  0  0
 17 22  2  0  0  0  0
 17 18  1  0  0  0  0
 18 19  2  0  0  0  0
 19 20  1  0  0  0  0
 19 24  1  0  0  0  0
 21 25  1  0  0  0  0
 21 20  2  0  0  0  0
 22 21  1  0  0  0  0
 23 17  1  0  0  0  0
 26 27  1  0  0  0  0
 26 28  1  0  0  0  0
 26  6  1  0  0  0  0
 29 26  1  0  0  0  0
 30 29  1  0  0  0  0
 31 29  1  0  0  0  0
 32 29  1  0  0  0  0
 33 32  1  0  0  0  0
 34 33  2  0  0  0  0
 35 34  1  0  0  0  0
 36 38  1  0  0  0  0
 36 34  1  0  0  0  0
 37 36  2  0  0  0  0
 38 39  1  0  0  0  0
 39 40  2  0  0  0  0
 39 32  1  0  0  0  0
 41 38  1  0  0  0  0
M  END
>  <minimizedAffinity>
-5.33654451

$$$$

 OpenBabel03272506323D

 41 43  0  0  1  0  0  0  0  0999 V2000
   38.0020   26.0750   33.3340 C   0  0  1  0  0  0  0  0  0  0  0  0
   38.1980   25.3770   32.0840 C   0  0  0  0  0  0  0  0  0  0  0  0
   39.2640   25.9190   31.1520 C   0  0  0  0  0  0  0  0  0  0  0  0
   40.4900   26.4430   31.8160 C   0  0  0  0  0  0  0  0  0  0  0  0
   40.3240   27.1330   33.1210 C   0  0  0  0  0  0  0  0  0  0  0  0
   39.3040   26.4860   33.9830 C   0  0  2  0  0  0  0  0  0  0  0  0
   37.5760   25.3560   34.1000 H   0  0  0  0  0  0  0  0  0  0  0  0
   37.3300   25.1700   31.4640 H   0  0  0  0  0  0  0  0  0  0  0  0
   38.5960   24.3540   32.3450 H   0  0  0  0  0  0  0  0  0  0  0  0
   39.5680   25.1130   30.4470 H   0  0  0  0  0  0  0  0  0  0  0  0
   38.7690   26.7010   30.5220 H   0  0  0  0  0  0  0  0  0  0  0  0
   40.9130   27.2110   31.1100 H   0  0  0  0  0  0  0  0  0  0  0  0
   41.2940   25.6800   31.8860 H   0  0  0  0  0  0  0  0  0  0  0  0
   40.0190   28.2030   32.9430 H   0  0  0  0  0  0  0  0  0  0  0  0
   41.2830   27.0900   33.6530 H   0  0  0  0  0  0  0  0  0  0  0  0
   39.1780   27.0360   34.9300 H   0  0  0  0  0  0  0  0  0  0  0  0
   36.2970   27.5930   32.1820 C   0  0  0  0  0  0  0  0  0  0  0  0
   37.0240   27.1770   33.3400 C   0  0  0  0  0  0  0  0  0  0  0  0
   36.7560   27.8880   34.4970 C   0  0  0  0  0  0  0  0  0  0  0  0
   35.8440   28.9140   34.4770 N   0  0  0  0  0  0  0  0  0  0  0  0
   35.1910   29.2560   33.3520 C   0  0  0  0  0  0  0  0  0  0  0  0
   35.4240   28.5850   32.1910 N   0  0  0  0  0  0  0  0  0  0  0  0
   36.4860   27.0540   31.2620 H   0  0  0  0  0  0  0  0  0  0  0  0
   37.2350   27.6740   35.4290 H   0  0  0  0  0  0  0  0  0  0  0  0
   34.4810   30.0710   33.3820 H   0  0  0  0  0  0  0  0  0  0  0  0
   39.9520   25.1440   34.4150 C   0  0  0  0  0  0  0  0  0  0  0  0
   41.0100   25.2800   34.6690 H   0  0  0  0  0  0  0  0  0  0  0  0
   39.8430   24.3770   33.6210 H   0  0  0  0  0  0  0  0  0  0  0  0
   39.2390   24.5820   35.6360 C   0  0  0  0  0  0  0  0  0  0  0  0
   39.0890   25.3960   36.3640 H   0  0  0  0  0  0  0  0  0  0  0  0
   38.3010   24.0950   35.2970 H   0  0  0  0  0  0  0  0  0  0  0  0
   40.1050   23.5430   36.2030 N   0  0  0  0  0  0  0  0  0  0  0  0
   41.3200   23.2550   35.6740 C   0  0  0  0  0  3  0  0  0  0  0  0
   42.0300   22.2440   36.3200 C   0  0  0  0  0  0  0  0  0  0  0  0
   43.0090   22.0060   35.9000 H   0  0  0  0  0  0  0  0  0  0  0  0
   41.5380   21.5770   37.4210 C   0  0  0  0  0  0  0  0  0  0  0  0
   42.2770   20.6910   37.9020 O   0  0  0  0  0  0  0  0  0  0  0  0
   40.3180   21.8930   37.9200 N   0  0  0  0  0  0  0  0  0  0  0  0
   39.6660   22.8660   37.2790 C   0  0  0  0  0  0  0  0  0  0  0  0
   38.5270   23.1580   37.7480 O   0  0  0  0  0  0  0  0  0  0  0  0
   39.9590   21.3880   38.7450 H   0  0  0  0  0  0  0  0  0  0  0  0
  1 18  1  0  0  0  0
  1  6  1  0  0  0  0
  1  7  1  1  0  0  0
  2  9  1  0  0  0  0
  2  1  1  0  0  0  0
  3  4  1  0  0  0  0
  3  2  1  0  0  0  0
  4 13  1  0  0  0  0
  4  5  1  0  0  0  0
  5 15  1  0  0  0  0
  5  6  1  0  0  0  0
  6 26  1  0  0  0  0
  6 16  1  1  0  0  0
  8  2  1  0  0  0  0
 10  3  1  0  0  0  0
 11  3  1  0  0  0  0
 12  4  1  0  0  0  0
 14  5  1  0  0  0  0
 17 22  2  0  0  0  0
 17 18  1  0  0  0  0
 18 19  2  0  0  0  0
 19 24  1  0  0  0  0
 20 19  1  0  0  0  0
 21 25  1  0  0  0  0
 21 20  2  0  0  0  0
 22 21  1  0  0  0  0
 23 17  1  0  0  0  0
 26 27  1  0  0  0  0
 26 29  1  0  0  0  0
 28 26  1  0  0  0  0
 29 32  1  0  0  0  0
 29 30  1  0  0  0  0
 31 29  1  0  0  0  0
 32 39  1  0  0  0  0
 33 32  1  0  0  0  0
 33 34  2  0  0  0  0
 34 36  1  0  0  0  0
 35 34  1  0  0  0  0
 36 37  2  0  0  0  0
 36 38  1  0  0  0  0
 38 41  1  0  0  0  0
 39 40  2  0  0  0  0
 39 38  1  0  0  0  0
M  END
>  <minimizedAffinity>
-5.31746769

$$$$

 OpenBabel03272506323D

 41 43  0  0  1  0  0  0  0  0999 V2000
   40.1040   23.2430   35.7430 C   0  0  1  0  0  0  0  0  0  0  0  0
   39.7300   22.4670   36.9030 C   0  0  0  0  0  0  0  0  0  0  0  0
   39.0750   23.2130   38.0490 C   0  0  0  0  0  0  0  0  0  0  0  0
   38.1410   24.3050   37.6540 C   0  0  0  0  0  0  0  0  0  0  0  0
   38.4810   25.0950   36.4430 C   0  0  0  0  0  0  0  0  0  0  0  0
   39.0540   24.2610   35.3590 C   0  0  2  0  0  0  0  0  0  0  0  0
   40.1190   22.5680   34.8310 H   0  0  0  0  0  0  0  0  0  0  0  0
   40.4720   21.8130   37.3510 H   0  0  0  0  0  0  0  0  0  0  0  0
   38.9130   21.7620   36.5700 H   0  0  0  0  0  0  0  0  0  0  0  0
   38.5140   22.4860   38.6770 H   0  0  0  0  0  0  0  0  0  0  0  0
   39.9060   23.5940   38.6960 H   0  0  0  0  0  0  0  0  0  0  0  0
   38.1460   25.0330   38.5120 H   0  0  0  0  0  0  0  0  0  0  0  0
   37.0860   23.9630   37.6040 H   0  0  0  0  0  0  0  0  0  0  0  0
   39.2270   25.8950   36.7150 H   0  0  0  0  0  0  0  0  0  0  0  0
   37.5570   25.5460   36.0610 H   0  0  0  0  0  0  0  0  0  0  0  0
   39.3270   24.8760   34.4860 H   0  0  0  0  0  0  0  0  0  0  0  0
   42.5360   23.3300   36.5260 C   0  0  0  0  0  0  0  0  0  0  0  0
   41.4550   23.8310   35.7370 C   0  0  0  0  0  0  0  0  0  0  0  0
   41.7520   24.9300   34.9500 C   0  0  0  0  0  0  0  0  0  0  0  0
   43.0170   25.4630   34.9650 N   0  0  0  0  0  0  0  0  0  0  0  0
   43.9930   24.9430   35.7310 C   0  0  0  0  0  0  0  0  0  0  0  0
   43.7450   23.8630   36.5210 N   0  0  0  0  0  0  0  0  0  0  0  0
   42.3330   22.4700   37.1510 H   0  0  0  0  0  0  0  0  0  0  0  0
   41.0300   25.3970   34.3150 H   0  0  0  0  0  0  0  0  0  0  0  0
   44.9760   25.3950   35.7120 H   0  0  0  0  0  0  0  0  0  0  0  0
   37.8630   23.4050   34.8540 C   0  0  0  0  0  0  0  0  0  0  0  0
   36.9170   23.9500   34.9480 H   0  0  0  0  0  0  0  0  0  0  0  0
   37.8070   22.4420   35.4000 H   0  0  0  0  0  0  0  0  0  0  0  0
   38.0580   23.0410   33.3880 C   0  0  0  0  0  0  0  0  0  0  0  0
   37.9870   23.9600   32.7830 H   0  0  0  0  0  0  0  0  0  0  0  0
   39.0230   22.5040   33.2890 H   0  0  0  0  0  0  0  0  0  0  0  0
   36.9840   22.1080   33.0280 N   0  0  0  0  0  0  0  0  0  0  0  0
   36.5410   21.1590   33.8880 C   0  0  0  0  0  3  0  0  0  0  0  0
   35.5160   20.3470   33.4060 C   0  0  0  0  0  0  0  0  0  0  0  0
   35.1530   19.5790   34.0930 H   0  0  0  0  0  0  0  0  0  0  0  0
   34.9840   20.4920   32.1430 C   0  0  0  0  0  0  0  0  0  0  0  0
   34.0690   19.6960   31.8370 O   0  0  0  0  0  0  0  0  0  0  0  0
   35.4540   21.4530   31.3120 N   0  0  0  0  0  0  0  0  0  0  0  0
   36.4350   22.2140   31.8050 C   0  0  0  0  0  0  0  0  0  0  0  0
   36.8720   23.1100   31.0250 O   0  0  0  0  0  0  0  0  0  0  0  0
   35.0490   21.5530   30.3690 H   0  0  0  0  0  0  0  0  0  0  0  0
  1  7  1  6  0  0  0
  1  2  1  0  0  0  0
  2  8  1  0  0  0  0
  2  3  1  0  0  0  0
  3 10  1  0  0  0  0
  3 11  1  0  0  0  0
  4  3  1  0  0  0  0
  4 12  1  0  0  0  0
  5 14  1  0  0  0  0
  5  4  1  0  0  0  0
  6 16  1  6  0  0  0
  6  1  1  0  0  0  0
  6  5  1  0  0  0  0
  9  2  1  0  0  0  0
 13  4  1  0  0  0  0
 15  5  1  0  0  0  0
 17 23  1  0  0  0  0
 18  1  1  0  0  0  0
 18 17  2  0  0  0  0
 19 20  2  0  0  0  0
 19 18  1  0  0  0  0
 20 21  1  0  0  0  0
 21 22  2  0  0  0  0
 22 17  1  0  0  0  0
 24 19  1  0  0  0  0
 25 21  1  0  0  0  0
 26 27  1  0  0  0  0
 26  6  1  0  0  0  0
 26 28  1  0  0  0  0
 29 26  1  0  0  0  0
 30 29  1  0  0  0  0
 31 29  1  0  0  0  0
 32 29  1  0  0  0  0
 32 33  1  0  0  0  0
 34 33  2  0  0  0  0
 34 35  1  0  0  0  0
 36 34  1  0  0  0  0
 37 36  2  0  0  0  0
 38 39  1  0  0  0  0
 38 36  1  0  0  0  0
 39 32  1  0  0  0  0
 40 39  2  0  0  0  0
 41 38  1  0  0  0  0
M  END
>  <minimizedAffinity>
-5.28445816

$$$$

 OpenBabel03272506323D

 41 43  0  0  1  0  0  0  0  0999 V2000
   37.3180   26.8390   31.4590 C   0  0  1  0  0  0  0  0  0  0  0  0
   35.8810   26.8430   31.6210 C   0  0  0  0  0  0  0  0  0  0  0  0
   35.1130   25.7050   30.9790 C   0  0  0  0  0  0  0  0  0  0  0  0
   35.7800   24.3740   31.0250 C   0  0  0  0  0  0  0  0  0  0  0  0
   37.2600   24.3420   30.8980 C   0  0  0  0  0  0  0  0  0  0  0  0
   37.9190   25.4610   31.6160 C   0  0  2  0  0  0  0  0  0  0  0  0
   37.7920   27.4010   32.3240 H   0  0  0  0  0  0  0  0  0  0  0  0
   35.3350   27.7510   31.3830 H   0  0  0  0  0  0  0  0  0  0  0  0
   35.6810   26.6870   32.7210 H   0  0  0  0  0  0  0  0  0  0  0  0
   34.1220   25.6140   31.4780 H   0  0  0  0  0  0  0  0  0  0  0  0
   34.8950   26.0220   29.9280 H   0  0  0  0  0  0  0  0  0  0  0  0
   35.3810   23.8030   30.1410 H   0  0  0  0  0  0  0  0  0  0  0  0
   35.4580   23.7670   31.8980 H   0  0  0  0  0  0  0  0  0  0  0  0
   37.5440   24.3960   29.8090 H   0  0  0  0  0  0  0  0  0  0  0  0
   37.6200   23.4060   31.3440 H   0  0  0  0  0  0  0  0  0  0  0  0
   39.0120   25.4330   31.4790 H   0  0  0  0  0  0  0  0  0  0  0  0
   37.1510   28.5510   29.5660 C   0  0  0  0  0  0  0  0  0  0  0  0
   37.8610   27.5350   30.2800 C   0  0  0  0  0  0  0  0  0  0  0  0
   39.1170   27.2300   29.7860 C   0  0  0  0  0  0  0  0  0  0  0  0
   39.6000   27.8890   28.6820 N   0  0  0  0  0  0  0  0  0  0  0  0
   38.8800   28.8370   28.0550 C   0  0  0  0  0  0  0  0  0  0  0  0
   37.6390   29.1690   28.5060 N   0  0  0  0  0  0  0  0  0  0  0  0
   36.1650   28.8100   29.9310 H   0  0  0  0  0  0  0  0  0  0  0  0
   39.7470   26.4900   30.2310 H   0  0  0  0  0  0  0  0  0  0  0  0
   39.3000   29.3310   27.1900 H   0  0  0  0  0  0  0  0  0  0  0  0
   37.7230   25.1310   33.1190 C   0  0  0  0  0  0  0  0  0  0  0  0
   36.6690   24.9320   33.3460 H   0  0  0  0  0  0  0  0  0  0  0  0
   38.1050   25.9520   33.7590 H   0  0  0  0  0  0  0  0  0  0  0  0
   38.5310   23.8980   33.4990 C   0  0  0  0  0  0  0  0  0  0  0  0
   38.0510   23.0100   33.0560 H   0  0  0  0  0  0  0  0  0  0  0  0
   39.5800   24.0570   33.1750 H   0  0  0  0  0  0  0  0  0  0  0  0
   38.5210   23.8090   34.9630 N   0  0  0  0  0  0  0  0  0  0  0  0
   38.0080   24.7960   35.7380 C   0  0  0  0  0  3  0  0  0  0  0  0
   38.0680   24.5700   37.1120 C   0  0  0  0  0  0  0  0  0  0  0  0
   37.6570   25.3600   37.7430 H   0  0  0  0  0  0  0  0  0  0  0  0
   38.6100   23.4240   37.6540 C   0  0  0  0  0  0  0  0  0  0  0  0
   38.6010   23.3500   38.9020 O   0  0  0  0  0  0  0  0  0  0  0  0
   39.1130   22.4600   36.8460 N   0  0  0  0  0  0  0  0  0  0  0  0
   39.0390   22.7070   35.5360 C   0  0  0  0  0  0  0  0  0  0  0  0
   39.5110   21.8050   34.7840 O   0  0  0  0  0  0  0  0  0  0  0  0
   39.5160   21.6070   37.2620 H   0  0  0  0  0  0  0  0  0  0  0  0
  1  6  1  0  0  0  0
  1  2  1  0  0  0  0
  1  7  1  1  0  0  0
  2  9  1  0  0  0  0
  3  4  1  0  0  0  0
  3 10  1  0  0  0  0
  3  2  1  0  0  0  0
  4 13  1  0  0  0  0
  5  4  1  0  0  0  0
  5 15  1  0  0  0  0
  5  6  1  0  0  0  0
  6 16  1  6  0  0  0
  6 26  1  0  0  0  0
  8  2  1  0  0  0  0
 11  3  1  0  0  0  0
 12  4  1  0  0  0  0
 14  5  1  0  0  0  0
 17 23  1  0  0  0  0
 17 18  1  0  0  0  0
 18  1  1  0  0  0  0
 19 24  1  0  0  0  0
 19 18  2  0  0  0  0
 20 19  1  0  0  0  0
 21 22  1  0  0  0  0
 21 20  2  0  0  0  0
 22 17  2  0  0  0  0
 25 21  1  0  0  0  0
 26 27  1  0  0  0  0
 26 29  1  0  0  0  0
 26 28  1  0  0  0  0
 29 32  1  0  0  0  0
 30 29  1  0  0  0  0
 31 29  1  0  0  0  0
 32 39  1  0  0  0  0
 32 33  1  0  0  0  0
 33 34  2  0  0  0  0
 34 36  1  0  0  0  0
 34 35  1  0  0  0  0
 36 37  2  0  0  0  0
 38 41  1  0  0  0  0
 38 36  1  0  0  0  0
 39 38  1  0  0  0  0
 40 39  2  0  0  0  0
M  END
>  <minimizedAffinity>
-5.26742792

$$$$

 OpenBabel03272506323D

 41 43  0  0  1  0  0  0  0  0999 V2000
   38.4430   26.4880   33.0260 C   0  0  1  0  0  0  0  0  0  0  0  0
   39.4850   26.6590   32.0390 C   0  0  0  0  0  0  0  0  0  0  0  0
   40.7440   27.3740   32.4840 C   0  0  0  0  0  0  0  0  0  0  0  0
   41.1930   27.0810   33.8740 C   0  0  0  0  0  0  0  0  0  0  0  0
   40.1430   26.8650   34.9030 C   0  0  0  0  0  0  0  0  0  0  0  0
   38.9840   26.0990   34.3830 C   0  0  2  0  0  0  0  0  0  0  0  0
   37.8170   25.5820   32.7550 H   0  0  0  0  0  0  0  0  0  0  0  0
   39.2200   27.0800   31.0730 H   0  0  0  0  0  0  0  0  0  0  0  0
   39.8640   25.6250   31.7890 H   0  0  0  0  0  0  0  0  0  0  0  0
   41.5730   27.1090   31.7890 H   0  0  0  0  0  0  0  0  0  0  0  0
   40.5600   28.4680   32.3310 H   0  0  0  0  0  0  0  0  0  0  0  0
   41.7690   27.9900   34.2050 H   0  0  0  0  0  0  0  0  0  0  0  0
   41.9430   26.2630   33.9150 H   0  0  0  0  0  0  0  0  0  0  0  0
   39.7770   27.8620   35.2800 H   0  0  0  0  0  0  0  0  0  0  0  0
   40.5840   26.2820   35.7220 H   0  0  0  0  0  0  0  0  0  0  0  0
   38.2070   25.9810   35.1560 H   0  0  0  0  0  0  0  0  0  0  0  0
   36.7170   27.8500   34.3310 C   0  0  0  0  0  0  0  0  0  0  0  0
   37.4380   27.5600   33.1310 C   0  0  0  0  0  0  0  0  0  0  0  0
   37.1280   28.3590   32.0440 C   0  0  0  0  0  0  0  0  0  0  0  0
   36.1850   29.3480   32.1650 N   0  0  0  0  0  0  0  0  0  0  0  0
   35.5400   29.5710   33.3260 C   0  0  0  0  0  0  0  0  0  0  0  0
   35.8120   28.8090   34.4200 N   0  0  0  0  0  0  0  0  0  0  0  0
   36.9390   27.2410   35.1980 H   0  0  0  0  0  0  0  0  0  0  0  0
   37.5990   28.2420   31.0910 H   0  0  0  0  0  0  0  0  0  0  0  0
   34.8040   30.3620   33.3760 H   0  0  0  0  0  0  0  0  0  0  0  0
   39.5260   24.6610   34.1770 C   0  0  0  0  0  0  0  0  0  0  0  0
   40.5020   24.6740   33.6790 H   0  0  0  0  0  0  0  0  0  0  0  0
   38.8080   24.0450   33.5980 H   0  0  0  0  0  0  0  0  0  0  0  0
   39.6870   23.9590   35.5190 C   0  0  0  0  0  0  0  0  0  0  0  0
   40.6190   23.3710   35.5000 H   0  0  0  0  0  0  0  0  0  0  0  0
   39.6490   24.7270   36.3190 H   0  0  0  0  0  0  0  0  0  0  0  0
   38.5280   23.0760   35.6870 N   0  0  0  0  0  0  0  0  0  0  0  0
   38.0830   22.2780   34.6850 C   0  0  0  0  0  3  0  0  0  0  0  0
   36.9710   21.4950   34.9930 C   0  0  0  0  0  0  0  0  0  0  0  0
   36.6070   20.8500   34.1920 H   0  0  0  0  0  0  0  0  0  0  0  0
   36.3610   21.5230   36.2290 C   0  0  0  0  0  0  0  0  0  0  0  0
   35.3730   20.7710   36.3710 O   0  0  0  0  0  0  0  0  0  0  0  0
   36.8360   22.3350   37.2050 N   0  0  0  0  0  0  0  0  0  0  0  0
   37.9010   23.0710   36.8770 C   0  0  0  0  0  0  0  0  0  0  0  0
   38.3420   23.8280   37.7910 O   0  0  0  0  0  0  0  0  0  0  0  0
   36.3720   22.3480   38.1260 H   0  0  0  0  0  0  0  0  0  0  0  0
  1  7  1  6  0  0  0
  1 18  1  0  0  0  0
  1  6  1  0  0  0  0
  2  3  1  0  0  0  0
  2  1  1  0  0  0  0
  3  4  1  0  0  0  0
  4 13  1  0  0  0  0
  4 12  1  0  0  0  0
  4  5  1  0  0  0  0
  5 14  1  0  0  0  0
  5 15  1  0  0  0  0
  6  5  1  0  0  0  0
  6 16  1  1  0  0  0
  8  2  1  0  0  0  0
  9  2  1  0  0  0  0
 10  3  1  0  0  0  0
 11  3  1  0  0  0  0
 17 22  1  0  0  0  0
 17 23  1  0  0  0  0
 18 17  2  0  0  0  0
 19 20  2  0  0  0  0
 19 18  1  0  0  0  0
 20 21  1  0  0  0  0
 21 25  1  0  0  0  0
 21 22  2  0  0  0  0
 24 19  1  0  0  0  0
 26  6  1  0  0  0  0
 26 29  1  0  0  0  0
 27 26  1  0  0  0  0
 28 26  1  0  0  0  0
 29 32  1  0  0  0  0
 29 31  1  0  0  0  0
 30 29  1  0  0  0  0
 32 39  1  0  0  0  0
 33 34  2  0  0  0  0
 33 32  1  0  0  0  0
 34 36  1  0  0  0  0
 35 34  1  0  0  0  0
 36 37  2  0  0  0  0
 36 38  1  0  0  0  0
 38 41  1  0  0  0  0
 39 38  1  0  0  0  0
 39 40  2  0  0  0  0
M  END
>  <minimizedAffinity>
-5.2412281

$$$$
