REMARK  Name = 
REMARK  2 active torsions:
REMARK  status: ('A' for Active; 'I' for Inactive)
REMARK    1  A    between atoms: C_1  and  C_7
REMARK    2  A    between atoms: C_8  and  N_17
REMARK                            x       y       z     vdW  Elec       q    Type
REMARK                         _______ _______ _______ _____ _____    ______ ____
ROOT
ATOM      1  C   UNL     1      35.928  30.398  49.973  0.00  0.00    +0.000 C 
ATOM      2  C   UNL     1      35.795  28.952  49.848  0.00  0.00    +0.000 C 
ATOM      3  C   UNL     1      36.471  29.500  51.078  0.00  0.00    +0.000 C 
ATOM      4  H   UNL     1      35.122  31.111  50.284  0.00  0.00    +0.000 HD
ATOM      5  H   UNL     1      36.535  28.482  49.133  0.00  0.00    +0.000 HD
ATOM      6  H   UNL     1      37.571  29.407  51.197  0.00  0.00    +0.000 HD
ATOM      7  H   UNL     1      35.880  29.429  52.010  0.00  0.00    +0.000 HD
ENDROOT
BRANCH   2   8
ATOM      8  N   UNL     1      34.554  28.252  49.930  0.00  0.00    +0.000 N 
ATOM      9  C   UNL     1      33.523  28.670  50.720  0.00  0.00    +0.000 A 
ATOM     10  C   UNL     1      32.319  28.031  50.829  0.00  0.00    +0.000 A 
ATOM     11  H   UNL     1      31.556  28.454  51.495  0.00  0.00    +0.000 HD
ATOM     12  C   UNL     1      32.134  26.880  50.085  0.00  0.00    +0.000 A 
ATOM     13  O   UNL     1      31.036  26.270  50.165  0.00  0.00    +0.000 OA
ATOM     14  N   UNL     1      33.150  26.441  49.287  0.00  0.00    +0.000 N 
ATOM     15  C   UNL     1      34.315  27.128  49.231  0.00  0.00    +0.000 A 
ATOM     16  O   UNL     1      35.165  26.640  48.477  0.00  0.00    +0.000 OA
ATOM     17  H   UNL     1      32.927  25.582  48.773  0.00  0.00    +0.000 HD
ENDBRANCH   2   8
BRANCH   1  18
ATOM     18  C   UNL     1      37.013  31.148  49.241  0.00  0.00    +0.000 A 
ATOM     19  C   UNL     1      37.321  32.438  49.710  0.00  0.00    +0.000 A 
ATOM     20  C   UNL     1      38.301  33.127  49.017  0.00  0.00    +0.000 A 
ATOM     21  N   UNL     1      38.905  32.544  47.947  0.00  0.00    +0.000 NA
ATOM     22  C   UNL     1      38.583  31.285  47.515  0.00  0.00    +0.000 A 
ATOM     23  N   UNL     1      37.618  30.596  48.190  0.00  0.00    +0.000 NA
ATOM     24  H   UNL     1      36.843  32.905  50.559  0.00  0.00    +0.000 HD
ATOM     25  H   UNL     1      38.619  34.134  49.294  0.00  0.00    +0.000 HD
ATOM     26  H   UNL     1      39.098  30.875  46.658  0.00  0.00    +0.000 HD
ENDBRANCH   1  18
TORSDOF 2
