REMARK  Name = 
REMARK  2 active torsions:
REMARK  status: ('A' for Active; 'I' for Inactive)
REMARK    1  A    between atoms: C_2  and  C_7
REMARK    2  A    between atoms: C_10  and  N_26
REMARK                            x       y       z     vdW  Elec       q    Type
REMARK                         _______ _______ _______ _____ _____    ______ ____
ROOT
ATOM      1  C   UNL     1      34.488  30.173  49.054  0.00  0.00    +0.000 C 
ATOM      2  C   UNL     1      34.231  30.327  47.618  0.00  0.00    +0.000 C 
ATOM      3  C   UNL     1      34.425  29.113  46.773  0.00  0.00    +0.000 C 
ATOM      4  C   UNL     1      33.987  27.836  47.343  0.00  0.00    +0.000 C 
ATOM      5  C   UNL     1      34.252  27.669  48.797  0.00  0.00    +0.000 C 
ATOM      6  C   UNL     1      33.958  28.891  49.609  0.00  0.00    +0.000 C 
ATOM      7  H   UNL     1      33.880  30.973  49.594  0.00  0.00    +0.000 HD
ATOM      8  H   UNL     1      34.709  31.156  47.110  0.00  0.00    +0.000 HD
ATOM      9  H   UNL     1      33.126  30.584  47.533  0.00  0.00    +0.000 HD
ATOM     10  H   UNL     1      34.003  29.289  45.769  0.00  0.00    +0.000 HD
ATOM     11  H   UNL     1      35.527  29.059  46.587  0.00  0.00    +0.000 HD
ATOM     12  H   UNL     1      34.651  27.045  46.853  0.00  0.00    +0.000 HD
ATOM     13  H   UNL     1      33.733  26.841  49.266  0.00  0.00    +0.000 HD
ATOM     14  H   UNL     1      35.350  27.454  48.943  0.00  0.00    +0.000 HD
ATOM     15  H   UNL     1      32.822  28.985  49.583  0.00  0.00    +0.000 HD
ATOM     16  H   UNL     1      34.175  28.677  50.648  0.00  0.00    +0.000 HD
ENDROOT
BRANCH   4  17
ATOM     17  N   UNL     1      32.664  27.378  47.041  0.00  0.00    +0.000 N 
ATOM     18  C   UNL     1      32.014  27.385  45.893  0.00  0.00    +0.000 A 
ATOM     19  C   UNL     1      30.746  26.929  45.672  0.00  0.00    +0.000 A 
ATOM     20  H   UNL     1      30.275  26.966  44.705  0.00  0.00    +0.000 HD
ATOM     21  C   UNL     1      30.044  26.395  46.754  0.00  0.00    +0.000 A 
ATOM     22  O   UNL     1      28.877  25.964  46.596  0.00  0.00    +0.000 OA
ATOM     23  N   UNL     1      30.710  26.384  47.944  0.00  0.00    +0.000 N 
ATOM     24  C   UNL     1      31.961  26.852  48.086  0.00  0.00    +0.000 A 
ATOM     25  O   UNL     1      32.351  26.726  49.294  0.00  0.00    +0.000 OA
ATOM     26  H   UNL     1      30.117  25.970  48.699  0.00  0.00    +0.000 HD
ENDBRANCH   4  17
BRANCH   1  28
ATOM     27  C   UNL     1      36.776  31.209  48.718  0.00  0.00    +0.000 A 
ATOM     28  C   UNL     1      35.872  30.472  49.504  0.00  0.00    +0.000 A 
ATOM     29  C   UNL     1      36.324  30.032  50.733  0.00  0.00    +0.000 A 
ATOM     30  N   UNL     1      37.590  30.318  51.124  0.00  0.00    +0.000 NA
ATOM     31  C   UNL     1      38.432  31.032  50.334  0.00  0.00    +0.000 A 
ATOM     32  N   UNL     1      38.011  31.476  49.125  0.00  0.00    +0.000 NA
ATOM     33  H   UNL     1      36.525  31.599  47.747  0.00  0.00    +0.000 HD
ATOM     34  H   UNL     1      35.772  29.464  51.459  0.00  0.00    +0.000 HD
ATOM     35  H   UNL     1      39.432  31.216  50.728  0.00  0.00    +0.000 HD
ENDBRANCH   1  28
TORSDOF 2
