
 OpenBabel03272506513D

 35 37  0  0  1  0  0  0  0  0999 V2000
   34.5780   30.3270   49.1300 C   0  0  1  0  0  0  0  0  0  0  0  0
   34.2880   30.3600   47.6930 C   0  0  0  0  0  0  0  0  0  0  0  0
   34.4300   29.0710   46.9550 C   0  0  0  0  0  0  0  0  0  0  0  0
   33.9750   27.8620   47.6480 C   0  0  1  0  0  0  0  0  0  0  0  0
   34.2740   27.8180   49.1040 C   0  0  0  0  0  0  0  0  0  0  0  0
   34.0320   29.1150   49.8100 C   0  0  0  0  0  0  0  0  0  0  0  0
   34.0050   31.1880   49.6110 H   0  0  0  0  0  0  0  0  0  0  0  0
   34.7730   31.1280   47.1010 H   0  0  0  0  0  0  0  0  0  0  0  0
   33.1880   30.6380   47.6110 H   0  0  0  0  0  0  0  0  0  0  0  0
   33.9860   29.1690   45.9500 H   0  0  0  0  0  0  0  0  0  0  0  0
   35.5250   28.9710   46.7490 H   0  0  0  0  0  0  0  0  0  0  0  0
   34.6060   27.0130   47.2150 H   0  0  0  0  0  0  0  0  0  0  0  0
   33.7470   27.0490   49.6570 H   0  0  0  0  0  0  0  0  0  0  0  0
   35.3700   27.5870   49.2420 H   0  0  0  0  0  0  0  0  0  0  0  0
   32.8980   29.2360   49.8030 H   0  0  0  0  0  0  0  0  0  0  0  0
   34.2700   28.9880   50.8590 H   0  0  0  0  0  0  0  0  0  0  0  0
   32.6340   27.4150   47.4190 N   0  0  0  0  0  0  0  0  0  0  0  0
   31.5070   28.1010   47.4270 C   0  0  0  0  0  3  0  0  0  0  0  0
   30.2530   27.6100   47.1990 C   0  0  0  0  0  0  0  0  0  0  0  0
   29.3730   28.2290   47.2220 H   0  0  0  0  0  0  0  0  0  0  0  0
   30.1230   26.2470   46.9270 C   0  0  0  0  0  0  0  0  0  0  0  0
   28.9900   25.7540   46.7110 O   0  0  0  0  0  0  0  0  0  0  0  0
   31.2840   25.5320   46.9170 N   0  0  0  0  0  0  0  0  0  0  0  0
   32.4850   26.0850   47.1510 C   0  0  0  0  0  0  0  0  0  0  0  0
   33.4040   25.2030   47.0830 O   0  0  0  0  0  0  0  0  0  0  0  0
   31.0990   24.5250   46.7060 H   0  0  0  0  0  0  0  0  0  0  0  0
   36.8550   31.3470   48.6830 C   0  0  0  0  0  0  0  0  0  0  0  0
   35.9810   30.6280   49.5180 C   0  0  0  0  0  0  0  0  0  0  0  0
   36.4800   30.2070   50.7360 C   0  0  0  0  0  0  0  0  0  0  0  0
   37.7620   30.4940   51.0700 N   0  0  0  0  0  0  0  0  0  0  0  0
   38.5750   31.1900   50.2340 C   0  0  0  0  0  0  0  0  0  0  0  0
   38.1070   31.6150   49.0350 N   0  0  0  0  0  0  0  0  0  0  0  0
   36.5660   31.7210   47.7170 H   0  0  0  0  0  0  0  0  0  0  0  0
   35.9560   29.6550   51.4930 H   0  0  0  0  0  0  0  0  0  0  0  0
   39.5900   31.3770   50.5840 H   0  0  0  0  0  0  0  0  0  0  0  0
  1 28  1  0  0  0  0
  1  7  1  1  0  0  0
  1  6  1  0  0  0  0
  2  1  1  0  0  0  0
  3  4  1  0  0  0  0
  3  2  1  0  0  0  0
  4 12  1  6  0  0  0
  4  5  1  0  0  0  0
  5 14  1  0  0  0  0
  5 13  1  0  0  0  0
  5  6  1  0  0  0  0
  6 16  1  0  0  0  0
  8  2  1  0  0  0  0
  9  2  1  0  0  0  0
 10  3  1  0  0  0  0
 11  3  1  0  0  0  0
 15  6  1  0  0  0  0
 17 18  1  0  0  0  0
 17  4  1  0  0  0  0
 19 20  1  0  0  0  0
 19 18  2  0  0  0  0
 21 19  1  0  0  0  0
 22 21  2  0  0  0  0
 23 21  1  0  0  0  0
 23 24  1  0  0  0  0
 24 17  1  0  0  0  0
 25 24  2  0  0  0  0
 26 23  1  0  0  0  0
 27 32  2  0  0  0  0
 27 28  1  0  0  0  0
 28 29  2  0  0  0  0
 29 30  1  0  0  0  0
 29 34  1  0  0  0  0
 31 35  1  0  0  0  0
 31 30  2  0  0  0  0
 32 31  1  0  0  0  0
 33 27  1  0  0  0  0
M  END
>  <minimizedAffinity>
-5.16864252

>  <minimizedRMSD>
0.981441438

$$$$
