REMARK  Name = 
REMARK  5 active torsions:
REMARK  status: ('A' for Active; 'I' for Inactive)
REMARK    1  A    between atoms: C_1  and  S_17
REMARK    2  A    between atoms: C_2  and  C_9
REMARK    3  A    between atoms: C_11  and  C_13
REMARK    4  A    between atoms: S_17  and  C_20
REMARK    5  A    between atoms: C_20  and  N_29
REMARK                            x       y       z     vdW  Elec       q    Type
REMARK                         _______ _______ _______ _____ _____    ______ ____
ROOT
ATOM      1  C   UNL     1      38.163  31.242  44.927  0.00  0.00    +0.000 A 
ATOM      2  C   UNL     1      37.348  30.940  45.970  0.00  0.00    +0.000 A 
ATOM      3  C   UNL     1      36.112  30.348  45.732  0.00  0.00    +0.000 A 
ATOM      4  C   UNL     1      35.671  30.052  44.455  0.00  0.00    +0.000 A 
ATOM      5  C   UNL     1      36.464  30.347  43.385  0.00  0.00    +0.000 A 
ATOM      6  C   UNL     1      37.674  30.928  43.654  0.00  0.00    +0.000 A 
ATOM      7  H   UNL     1      35.474  30.112  46.598  0.00  0.00    +0.000 HD
ATOM      8  H   UNL     1      34.700  29.593  44.391  0.00  0.00    +0.000 HD
ATOM      9  H   UNL     1      36.069  30.098  42.431  0.00  0.00    +0.000 HD
ATOM     10  H   UNL     1      38.214  31.118  42.717  0.00  0.00    +0.000 HD
ENDROOT
BRANCH   2  13
ATOM     11  C   UNL     1      38.682  32.779  48.860  0.00  0.00    +0.000 A 
ATOM     12  C   UNL     1      38.311  32.443  47.567  0.00  0.00    +0.000 A 
ATOM     13  C   UNL     1      37.703  31.253  47.313  0.00  0.00    +0.000 A 
ATOM     14  N   UNL     1      37.479  30.430  48.375  0.00  0.00    +0.000 NA
ATOM     15  C   UNL     1      37.832  30.751  49.624  0.00  0.00    +0.000 A 
ATOM     16  N   UNL     1      38.433  31.923  49.857  0.00  0.00    +0.000 NA
ATOM     17  H   UNL     1      39.167  33.663  49.234  0.00  0.00    +0.000 HD
ATOM     18  H   UNL     1      38.584  33.295  46.991  0.00  0.00    +0.000 HD
BRANCH  15  19
ATOM     19  C   UNL     1      37.464  29.790  50.696  0.00  0.00    +0.000 C 
ATOM     20  F   UNL     1      37.709  30.299  51.956  0.00  0.00    +0.000 F 
ATOM     21  F   UNL     1      36.026  29.632  50.703  0.00  0.00    +0.000 F 
ATOM     22  F   UNL     1      37.907  28.559  50.576  0.00  0.00    +0.000 F 
ENDBRANCH  15  19
ENDBRANCH   2  13
BRANCH   1  23
ATOM     23  S   UNL     1      39.733  31.933  45.101  0.00  0.00    +0.000 S 
ATOM     24  O   UNL     1      39.691  33.402  44.888  0.00  0.00    +0.000 OA
ATOM     25  O   UNL     1      40.270  31.577  43.731  0.00  0.00    +0.000 OA
BRANCH  23  26
ATOM     26  C   UNL     1      41.125  31.230  45.739  0.00  0.00    +0.000 C 
ATOM     27  H   UNL     1      40.905  31.113  46.877  0.00  0.00    +0.000 HD
ATOM     28  H   UNL     1      41.245  30.164  45.478  0.00  0.00    +0.000 HD
BRANCH  26  29
ATOM     29  N   UNL     1      42.340  31.958  45.764  0.00  0.00    +0.000 N 
ATOM     30  C   UNL     1      43.501  31.608  45.158  0.00  0.00    +0.000 A 
ATOM     31  C   UNL     1      44.662  32.353  45.212  0.00  0.00    +0.000 A 
ATOM     32  H   UNL     1      45.558  31.989  44.688  0.00  0.00    +0.000 HD
ATOM     33  C   UNL     1      44.617  33.531  45.938  0.00  0.00    +0.000 A 
ATOM     34  O   UNL     1      45.670  34.195  45.980  0.00  0.00    +0.000 OA
ATOM     35  N   UNL     1      43.463  33.900  46.553  0.00  0.00    +0.000 N 
ATOM     36  C   UNL     1      42.390  33.131  46.455  0.00  0.00    +0.000 A 
ATOM     37  O   UNL     1      41.350  33.553  47.063  0.00  0.00    +0.000 OA
ATOM     38  H   UNL     1      43.485  34.797  47.086  0.00  0.00    +0.000 HD
ENDBRANCH  26  29
ENDBRANCH  23  26
ENDBRANCH   1  23
TORSDOF 5
