
 OpenBabel03272509043D

 34 36  0  0  0  0  0  0  0  0999 V2000
   38.4250   32.4880   49.5480 C   0  0  0  0  0  0  0  0  0  0  0  0
   38.8580   32.5330   48.1980 C   0  0  0  0  0  0  0  0  0  0  0  0
   38.4460   31.4720   47.3330 C   0  0  0  0  0  0  0  0  0  0  0  0
   37.6680   30.4970   47.8750 N   0  0  0  0  0  0  0  0  0  0  0  0
   37.2890   30.5030   49.1530 C   0  0  0  0  0  0  0  0  0  0  0  0
   37.6680   31.4950   49.9790 N   0  0  0  0  0  0  0  0  0  0  0  0
   38.7830   33.3190   50.1080 H   0  0  0  0  0  0  0  0  0  0  0  0
   39.4770   33.3070   47.7650 H   0  0  0  0  0  0  0  0  0  0  0  0
   38.8570   31.4760   45.9700 N   0  0  0  0  0  0  0  0  0  0  0  0
   40.1650   31.7980   45.8370 C   0  0  0  0  0  3  0  0  0  0  0  0
   40.7050   31.8400   44.5480 C   0  0  0  0  0  0  0  0  0  0  0  0
   41.7350   32.0840   44.3340 H   0  0  0  0  0  0  0  0  0  0  0  0
   39.8990   31.5580   43.4810 C   0  0  0  0  0  0  0  0  0  0  0  0
   40.2840   31.5680   42.2960 O   0  0  0  0  0  0  0  0  0  0  0  0
   38.5950   31.2410   43.6560 N   0  0  0  0  0  0  0  0  0  0  0  0
   38.0830   31.2020   44.9010 C   0  0  0  0  0  0  0  0  0  0  0  0
   36.9100   30.9310   45.2640 O   0  0  0  0  0  0  0  0  0  0  0  0
   37.9150   31.0130   42.9080 H   0  0  0  0  0  0  0  0  0  0  0  0
   36.4630   29.3970   49.5750 C   0  0  0  0  0  3  0  0  0  0  0  0
   35.4270   29.0840   48.8740 C   0  0  0  0  0  3  0  0  0  0  0  0
   34.4570   28.0060   49.1160 C   0  0  0  0  0  0  0  0  0  0  0  0
   33.5520   28.4610   49.5950 H   0  0  0  0  0  0  0  0  0  0  0  0
   34.8110   27.2340   49.8370 H   0  0  0  0  0  0  0  0  0  0  0  0
   33.9970   27.3580   47.8480 C   0  0  0  0  0  0  0  0  0  0  0  0
   33.6930   26.0300   47.6800 C   0  0  0  0  0  0  0  0  0  0  0  0
   33.2760   25.5430   46.4600 C   0  0  0  0  0  0  0  0  0  0  0  0
   33.1480   26.3860   45.3490 C   0  0  0  0  0  0  0  0  0  0  0  0
   33.4440   27.7110   45.4940 C   0  0  0  0  0  0  0  0  0  0  0  0
   33.8610   28.1810   46.7270 C   0  0  0  0  0  0  0  0  0  0  0  0
   33.8040   25.4010   48.5660 H   0  0  0  0  0  0  0  0  0  0  0  0
   33.0540   24.4810   46.4070 H   0  0  0  0  0  0  0  0  0  0  0  0
   32.8200   25.9490   44.4340 H   0  0  0  0  0  0  0  0  0  0  0  0
   33.3570   28.3950   44.6580 H   0  0  0  0  0  0  0  0  0  0  0  0
   34.0850   29.2260   46.8030 H   0  0  0  0  0  0  0  0  0  0  0  0
  1  6  1  0  0  0  0
  1  7  1  0  0  0  0
  2  1  2  0  0  0  0
  3  4  2  0  0  0  0
  3  2  1  0  0  0  0
  4  5  1  0  0  0  0
  5 19  1  0  0  0  0
  5  6  2  0  0  0  0
  8  2  1  0  0  0  0
  9  3  1  0  0  0  0
 10  9  1  0  0  0  0
 11 10  2  0  0  0  0
 12 11  1  0  0  0  0
 13 15  1  0  0  0  0
 13 11  1  0  0  0  0
 14 13  2  0  0  0  0
 15 16  1  0  0  0  0
 16 17  2  0  0  0  0
 16  9  1  0  0  0  0
 18 15  1  0  0  0  0
 20 21  1  0  0  0  0
 20 19  2  0  0  0  0
 21 22  1  0  0  0  0
 21 23  1  0  0  0  0
 24 21  1  0  0  0  0
 25 24  1  0  0  0  0
 25 30  1  0  0  0  0
 26 25  2  0  0  0  0
 27 28  2  0  0  0  0
 27 26  1  0  0  0  0
 28 29  1  0  0  0  0
 29 34  1  0  0  0  0
 29 24  2  0  0  0  0
 31 26  1  0  0  0  0
 32 27  1  0  0  0  0
 33 28  1  0  0  0  0
M  END
>  <minimizedAffinity>
-6.44978714

>  <minimizedRMSD>
2.18953037

$$$$
