
 OpenBabel03272510173D

 29 31  0  0  0  0  0  0  0  0999 V2000
   37.1760   29.3730   51.0500 Br  0  0  0  0  0  0  0  0  0  0  0  0
   35.9040   29.3400   49.6300 C   0  0  0  0  0  0  0  0  0  0  0  0
   35.9840   30.2350   48.5840 C   0  0  0  0  0  0  0  0  0  0  0  0
   35.0200   30.1440   47.5930 C   0  0  0  0  0  0  0  0  0  0  0  0
   33.9980   29.2020   47.6150 C   0  0  0  0  0  0  0  0  0  0  0  0
   33.9590   28.3360   48.6750 C   0  0  0  0  0  0  0  0  0  0  0  0
   34.9080   28.4090   49.6710 C   0  0  0  0  0  0  0  0  0  0  0  0
   35.1320   30.8790   46.7860 H   0  0  0  0  0  0  0  0  0  0  0  0
   33.1470   27.6270   48.6460 H   0  0  0  0  0  0  0  0  0  0  0  0
   34.8020   27.6830   50.4740 H   0  0  0  0  0  0  0  0  0  0  0  0
   33.1140   29.2800   46.5020 N   0  0  0  0  0  0  0  0  0  0  0  0
   32.2470   30.2560   46.1850 C   0  0  0  0  0  3  0  0  0  0  0  0
   31.4850   30.1100   45.0450 C   0  0  0  0  0  0  0  0  0  0  0  0
   30.7930   30.9200   44.8190 H   0  0  0  0  0  0  0  0  0  0  0  0
   31.6050   28.9850   44.2350 C   0  0  0  0  0  0  0  0  0  0  0  0
   30.8880   28.8840   43.1920 O   0  0  0  0  0  0  0  0  0  0  0  0
   32.4900   28.0320   44.5960 N   0  0  0  0  0  0  0  0  0  0  0  0
   33.2370   28.1740   45.7140 C   0  0  0  0  0  0  0  0  0  0  0  0
   34.0090   27.2030   45.9090 O   0  0  0  0  0  0  0  0  0  0  0  0
   32.5420   27.2060   43.9540 H   0  0  0  0  0  0  0  0  0  0  0  0
   38.0010   33.1510   49.4210 C   0  0  0  0  0  0  0  0  0  0  0  0
   39.0320   33.1340   48.4630 C   0  0  0  0  0  0  0  0  0  0  0  0
   39.0220   32.1090   47.5290 C   0  0  0  0  0  0  0  0  0  0  0  0
   38.0230   31.1750   47.5850 N   0  0  0  0  0  0  0  0  0  0  0  0
   37.0430   31.2310   48.5320 C   0  0  0  0  0  0  0  0  0  0  0  0
   37.0420   32.2180   49.4390 N   0  0  0  0  0  0  0  0  0  0  0  0
   38.0630   33.9740   50.1190 H   0  0  0  0  0  0  0  0  0  0  0  0
   39.8360   33.8160   48.3530 H   0  0  0  0  0  0  0  0  0  0  0  0
   39.7130   31.9180   46.7200 H   0  0  0  0  0  0  0  0  0  0  0  0
  2  7  1  0  0  0  0
  2  1  1  0  0  0  0
  3  2  2  0  0  0  0
  4  5  2  0  0  0  0
  4  3  1  0  0  0  0
  5  6  1  0  0  0  0
  6  7  2  0  0  0  0
  7 10  1  0  0  0  0
  8  4  1  0  0  0  0
  9  6  1  0  0  0  0
 11  5  1  0  0  0  0
 12 11  1  0  0  0  0
 13 12  2  0  0  0  0
 14 13  1  0  0  0  0
 15 17  1  0  0  0  0
 15 13  1  0  0  0  0
 16 15  2  0  0  0  0
 17 18  1  0  0  0  0
 18 19  2  0  0  0  0
 18 11  1  0  0  0  0
 20 17  1  0  0  0  0
 21 26  1  0  0  0  0
 21 27  1  0  0  0  0
 22 21  2  0  0  0  0
 23 24  2  0  0  0  0
 23 22  1  0  0  0  0
 24 25  1  0  0  0  0
 25  3  1  0  0  0  0
 25 26  2  0  0  0  0
 28 22  1  0  0  0  0
 29 23  1  0  0  0  0
M  END
>  <minimizedAffinity>
-5.84449387

>  <minimizedRMSD>
1.16680288

$$$$
