
 OpenBabel03272507333D

 37 40  0  0  1  0  0  0  0  0999 V2000
   32.9820   27.7330   48.3850 C   0  0  0  0  0  0  0  0  0  0  0  0
   31.7740   27.7020   48.7930 O   0  0  0  0  0  0  0  0  0  0  0  0
   35.8930   29.2100   49.8440 C   0  0  0  0  0  0  0  0  0  0  0  0
   34.9440   29.7080   50.7130 C   0  0  0  0  0  0  0  0  0  0  0  0
   33.6970   29.2280   50.2920 C   0  0  0  0  0  0  0  0  0  0  0  0
   33.9700   28.4590   49.1830 C   0  0  0  0  0  0  0  0  0  0  0  0
   35.2660   28.4770   48.9570 O   0  0  0  0  0  0  0  0  0  0  0  0
   35.0810   30.3610   51.5830 H   0  0  0  0  0  0  0  0  0  0  0  0
   32.7530   29.4470   50.7750 H   0  0  0  0  0  0  0  0  0  0  0  0
   37.3070   29.5100   49.9850 C   0  0  0  0  0  0  0  0  0  0  0  0
   37.9870   28.8580   50.7900 O   0  0  0  0  0  0  0  0  0  0  0  0
   37.8360   30.5670   49.1630 C   0  0  0  0  0  0  0  0  0  0  0  0
   38.1900   31.7480   49.7990 C   0  0  0  0  0  0  0  0  0  0  0  0
   38.7040   32.7920   49.0260 C   0  0  0  0  0  0  0  0  0  0  0  0
   38.8290   32.5870   47.6690 N   0  0  0  0  0  0  0  0  0  0  0  0
   38.4790   31.4390   47.0930 C   0  0  0  0  0  0  0  0  0  0  0  0
   37.9840   30.4280   47.8250 N   0  0  0  0  0  0  0  0  0  0  0  0
   38.0800   31.8760   50.8620 H   0  0  0  0  0  0  0  0  0  0  0  0
   38.9800   33.7120   49.5210 H   0  0  0  0  0  0  0  0  0  0  0  0
   38.6080   31.3600   46.0240 H   0  0  0  0  0  0  0  0  0  0  0  0
   33.3860   27.0350   47.1190 C   0  0  1  0  0  0  0  0  0  0  0  0
   33.7290   25.5240   47.4290 C   0  0  0  0  0  0  0  0  0  0  0  0
   32.5860   25.9350   46.5830 C   0  0  2  0  0  0  0  0  0  0  0  0
   34.2540   27.4920   46.6030 H   0  0  0  0  0  0  0  0  0  0  0  0
   33.5790   25.1780   48.4480 H   0  0  0  0  0  0  0  0  0  0  0  0
   34.6130   25.1180   46.9150 H   0  0  0  0  0  0  0  0  0  0  0  0
   31.5920   25.7980   47.1060 H   0  0  0  0  0  0  0  0  0  0  0  0
   32.5340   25.7670   45.1670 N   0  0  0  0  0  0  0  0  0  0  0  0
   33.1610   26.6450   44.3260 C   0  0  0  0  0  3  0  0  0  0  0  0
   33.1150   26.4910   42.9550 C   0  0  0  0  0  0  0  0  0  0  0  0
   33.6550   27.2590   42.4060 H   0  0  0  0  0  0  0  0  0  0  0  0
   32.4360   25.4440   42.3690 C   0  0  0  0  0  0  0  0  0  0  0  0
   32.4820   25.4340   41.1110 O   0  0  0  0  0  0  0  0  0  0  0  0
   31.8220   24.5850   43.2040 N   0  0  0  0  0  0  0  0  0  0  0  0
   31.8930   24.7730   44.5320 C   0  0  0  0  0  0  0  0  0  0  0  0
   31.2820   23.9090   45.1940 O   0  0  0  0  0  0  0  0  0  0  0  0
   31.3180   23.8080   42.7360 H   0  0  0  0  0  0  0  0  0  0  0  0
  1  2  2  0  0  0  0
  1  6  1  0  0  0  0
  3 10  1  0  0  0  0
  3  4  2  0  0  0  0
  4  8  1  0  0  0  0
  5  4  1  0  0  0  0
  5  9  1  0  0  0  0
  6  5  2  0  0  0  0
  7  6  1  0  0  0  0
  7  3  1  0  0  0  0
 10 11  2  0  0  0  0
 12 13  1  0  0  0  0
 12 10  1  0  0  0  0
 13 18  1  0  0  0  0
 14 19  1  0  0  0  0
 14 13  2  0  0  0  0
 15 14  1  0  0  0  0
 16 15  2  0  0  0  0
 16 17  1  0  0  0  0
 17 12  2  0  0  0  0
 20 16  1  0  0  0  0
 21 24  1  6  0  0  0
 21 22  1  0  0  0  0
 21  1  1  0  0  0  0
 22 25  1  0  0  0  0
 23 27  1  1  0  0  0
 23 21  1  0  0  0  0
 23 22  1  0  0  0  0
 26 22  1  0  0  0  0
 28 23  1  0  0  0  0
 29 28  1  0  0  0  0
 30 29  2  0  0  0  0
 31 30  1  0  0  0  0
 32 30  1  0  0  0  0
 32 34  1  0  0  0  0
 33 32  2  0  0  0  0
 34 35  1  0  0  0  0
 35 28  1  0  0  0  0
 35 36  2  0  0  0  0
 37 34  1  0  0  0  0
M  END
>  <minimizedAffinity>
-4.87281322

>  <minimizedRMSD>
1.21027875

$$$$
