
 OpenBabel03262523503D

 22 23  0  0  0  0  0  0  0  0999 V2000
   37.8870   24.3240   36.0470 C   0  0  0  0  0  0  0  0  0  0  0  0
   37.5200   24.8750   36.9520 H   0  0  0  0  0  0  0  0  0  0  0  0
   37.0140   23.7480   35.6890 H   0  0  0  0  0  0  0  0  0  0  0  0
   38.9580   23.4490   36.4270 N   0  0  0  0  0  0  0  0  0  0  0  0
   39.7730   22.9080   35.5070 C   0  0  0  0  0  3  0  0  0  0  0  0
   40.7890   22.0760   35.8900 C   0  0  0  0  0  0  0  0  0  0  0  0
   41.5040   21.5860   35.2410 H   0  0  0  0  0  0  0  0  0  0  0  0
   40.9360   21.8250   37.2390 C   0  0  0  0  0  0  0  0  0  0  0  0
   41.8470   21.0680   37.7040 O   0  0  0  0  0  0  0  0  0  0  0  0
   40.1240   22.3590   38.1990 N   0  0  0  0  0  0  0  0  0  0  0  0
   39.1460   23.1710   37.7200 C   0  0  0  0  0  0  0  0  0  0  0  0
   38.3720   23.6890   38.5670 O   0  0  0  0  0  0  0  0  0  0  0  0
   40.2550   22.1550   39.2140 H   0  0  0  0  0  0  0  0  0  0  0  0
   38.2810   25.2790   34.9830 C   0  0  0  0  0  0  0  0  0  0  0  0
   39.2640   26.2350   35.2860 C   0  0  0  0  0  0  0  0  0  0  0  0
   39.6280   27.1320   34.2750 C   0  0  0  0  0  0  0  0  0  0  0  0
   39.0190   27.0390   33.0540 N   0  0  0  0  0  0  0  0  0  0  0  0
   38.0790   26.1010   32.8170 C   0  0  0  0  0  0  0  0  0  0  0  0
   37.7080   25.2290   33.7620 N   0  0  0  0  0  0  0  0  0  0  0  0
   39.7370   26.2970   36.2550 H   0  0  0  0  0  0  0  0  0  0  0  0
   40.3810   27.8660   34.5040 H   0  0  0  0  0  0  0  0  0  0  0  0
   37.6350   26.0800   31.8310 H   0  0  0  0  0  0  0  0  0  0  0  0
  1  4  1  0  0  0  0
  1  2  1  0  0  0  0
  3  1  1  0  0  0  0
  4 11  1  0  0  0  0
  5  6  2  0  0  0  0
  5  4  1  0  0  0  0
  6  8  1  0  0  0  0
  7  6  1  0  0  0  0
  8  9  2  0  0  0  0
  8 10  1  0  0  0  0
 10 13  1  0  0  0  0
 11 10  1  0  0  0  0
 11 12  2  0  0  0  0
 14 15  1  0  0  0  0
 14  1  1  0  0  0  0
 15 20  1  0  0  0  0
 16 21  1  0  0  0  0
 16 15  2  0  0  0  0
 17 16  1  0  0  0  0
 18 17  2  0  0  0  0
 18 19  1  0  0  0  0
 19 14  2  0  0  0  0
 22 18  1  0  0  0  0
M  END
>  <minimizedAffinity>
-4.43495607

$$$$

 OpenBabel03262523503D

 22 23  0  0  0  0  0  0  0  0999 V2000
   38.6850   24.1800   33.3640 C   0  0  0  0  0  0  0  0  0  0  0  0
   39.2070   23.2790   32.9460 H   0  0  0  0  0  0  0  0  0  0  0  0
   39.4010   25.0120   33.2320 H   0  0  0  0  0  0  0  0  0  0  0  0
   38.4010   23.9610   34.7520 N   0  0  0  0  0  0  0  0  0  0  0  0
   38.1740   24.9890   35.5860 C   0  0  0  0  0  3  0  0  0  0  0  0
   37.9050   24.7600   36.9060 C   0  0  0  0  0  0  0  0  0  0  0  0
   37.7070   25.5060   37.6660 H   0  0  0  0  0  0  0  0  0  0  0  0
   37.8760   23.4470   37.3350 C   0  0  0  0  0  0  0  0  0  0  0  0
   37.6350   23.1220   38.5400 O   0  0  0  0  0  0  0  0  0  0  0  0
   38.1030   22.3800   36.5130 N   0  0  0  0  0  0  0  0  0  0  0  0
   38.3610   22.7110   35.2210 C   0  0  0  0  0  0  0  0  0  0  0  0
   38.5760   21.7610   34.4240 O   0  0  0  0  0  0  0  0  0  0  0  0
   38.0750   21.3970   36.8590 H   0  0  0  0  0  0  0  0  0  0  0  0
   37.4690   24.4860   32.5730 C   0  0  0  0  0  0  0  0  0  0  0  0
   37.1760   25.8340   32.3070 C   0  0  0  0  0  0  0  0  0  0  0  0
   36.0250   26.1110   31.5590 C   0  0  0  0  0  0  0  0  0  0  0  0
   35.2480   25.0720   31.1260 N   0  0  0  0  0  0  0  0  0  0  0  0
   35.5760   23.7950   31.4110 C   0  0  0  0  0  0  0  0  0  0  0  0
   36.6690   23.4950   32.1230 N   0  0  0  0  0  0  0  0  0  0  0  0
   37.7980   26.6450   32.6550 H   0  0  0  0  0  0  0  0  0  0  0  0
   35.7970   27.1430   31.3550 H   0  0  0  0  0  0  0  0  0  0  0  0
   34.9210   23.0190   31.0400 H   0  0  0  0  0  0  0  0  0  0  0  0
  1  4  1  0  0  0  0
  2  1  1  0  0  0  0
  3  1  1  0  0  0  0
  4 11  1  0  0  0  0
  4  5  1  0  0  0  0
  5  6  2  0  0  0  0
  6  8  1  0  0  0  0
  6  7  1  0  0  0  0
  8  9  2  0  0  0  0
 10 13  1  0  0  0  0
 10  8  1  0  0  0  0
 11 10  1  0  0  0  0
 12 11  2  0  0  0  0
 14  1  1  0  0  0  0
 15 14  1  0  0  0  0
 15 20  1  0  0  0  0
 16 15  2  0  0  0  0
 17 18  2  0  0  0  0
 17 16  1  0  0  0  0
 18 19  1  0  0  0  0
 19 14  2  0  0  0  0
 21 16  1  0  0  0  0
 22 18  1  0  0  0  0
M  END
>  <minimizedAffinity>
-4.25706959

$$$$

 OpenBabel03262523503D

 22 23  0  0  0  0  0  0  0  0999 V2000
   38.5770   25.1070   33.3350 C   0  0  0  0  0  0  0  0  0  0  0  0
   39.3140   24.4610   32.7880 H   0  0  0  0  0  0  0  0  0  0  0  0
   39.0740   26.0890   33.4320 H   0  0  0  0  0  0  0  0  0  0  0  0
   38.3110   24.5340   34.6220 N   0  0  0  0  0  0  0  0  0  0  0  0
   38.1340   23.2110   34.7710 C   0  0  0  0  0  3  0  0  0  0  0  0
   37.8810   22.6840   36.0070 C   0  0  0  0  0  0  0  0  0  0  0  0
   37.7230   21.6400   36.2460 H   0  0  0  0  0  0  0  0  0  0  0  0
   37.8180   23.5580   37.0750 C   0  0  0  0  0  0  0  0  0  0  0  0
   37.5900   23.1740   38.2660 O   0  0  0  0  0  0  0  0  0  0  0  0
   37.9930   24.9070   36.9560 N   0  0  0  0  0  0  0  0  0  0  0  0
   38.2390   25.3340   35.6900 C   0  0  0  0  0  0  0  0  0  0  0  0
   38.4080   26.5700   35.5300 O   0  0  0  0  0  0  0  0  0  0  0  0
   37.9410   25.5480   37.7780 H   0  0  0  0  0  0  0  0  0  0  0  0
   37.3480   25.2870   32.5250 C   0  0  0  0  0  0  0  0  0  0  0  0
   36.8750   26.5950   32.3270 C   0  0  0  0  0  0  0  0  0  0  0  0
   35.7140   26.7540   31.5600 C   0  0  0  0  0  0  0  0  0  0  0  0
   35.1000   25.6450   31.0460 N   0  0  0  0  0  0  0  0  0  0  0  0
   35.5980   24.4100   31.2690 C   0  0  0  0  0  0  0  0  0  0  0  0
   36.7050   24.2240   31.9970 N   0  0  0  0  0  0  0  0  0  0  0  0
   37.3700   27.4620   32.7380 H   0  0  0  0  0  0  0  0  0  0  0  0
   35.3480   27.7550   31.4060 H   0  0  0  0  0  0  0  0  0  0  0  0
   35.0660   23.5750   30.8350 H   0  0  0  0  0  0  0  0  0  0  0  0
  1  3  1  0  0  0  0
  1  4  1  0  0  0  0
  2  1  1  0  0  0  0
  4  5  1  0  0  0  0
  4 11  1  0  0  0  0
  5  6  2  0  0  0  0
  6  7  1  0  0  0  0
  6  8  1  0  0  0  0
  8  9  2  0  0  0  0
 10  8  1  0  0  0  0
 10 13  1  0  0  0  0
 11 10  1  0  0  0  0
 12 11  2  0  0  0  0
 14  1  1  0  0  0  0
 15 14  1  0  0  0  0
 15 20  1  0  0  0  0
 16 15  2  0  0  0  0
 17 18  2  0  0  0  0
 17 16  1  0  0  0  0
 18 19  1  0  0  0  0
 19 14  2  0  0  0  0
 21 16  1  0  0  0  0
 22 18  1  0  0  0  0
M  END
>  <minimizedAffinity>
-4.03326035

$$$$

 OpenBabel03262523503D

 22 23  0  0  0  0  0  0  0  0999 V2000
   38.5940   24.6140   33.1980 C   0  0  0  0  0  0  0  0  0  0  0  0
   39.2070   23.8250   32.6890 H   0  0  0  0  0  0  0  0  0  0  0  0
   39.2250   25.5210   33.1810 H   0  0  0  0  0  0  0  0  0  0  0  0
   38.3200   24.2040   34.5450 N   0  0  0  0  0  0  0  0  0  0  0  0
   38.0490   22.9220   34.8390 C   0  0  0  0  0  3  0  0  0  0  0  0
   37.7900   22.5500   36.1290 C   0  0  0  0  0  0  0  0  0  0  0  0
   37.5610   21.5530   36.4820 H   0  0  0  0  0  0  0  0  0  0  0  0
   37.8200   23.5350   37.0970 C   0  0  0  0  0  0  0  0  0  0  0  0
   37.5950   23.2990   38.3260 O   0  0  0  0  0  0  0  0  0  0  0  0
   38.0910   24.8470   36.8300 N   0  0  0  0  0  0  0  0  0  0  0  0
   38.3350   25.1160   35.5210 C   0  0  0  0  0  0  0  0  0  0  0  0
   38.5910   26.3120   35.2250 O   0  0  0  0  0  0  0  0  0  0  0  0
   38.1080   25.5730   37.5780 H   0  0  0  0  0  0  0  0  0  0  0  0
   37.3610   24.8910   32.4230 C   0  0  0  0  0  0  0  0  0  0  0  0
   36.6700   23.8000   31.8720 C   0  0  0  0  0  0  0  0  0  0  0  0
   35.5060   24.0730   31.1420 C   0  0  0  0  0  0  0  0  0  0  0  0
   35.0990   25.3710   31.0010 N   0  0  0  0  0  0  0  0  0  0  0  0
   35.8030   26.3820   31.5520 C   0  0  0  0  0  0  0  0  0  0  0  0
   36.9190   26.1560   32.2550 N   0  0  0  0  0  0  0  0  0  0  0  0
   37.0020   22.7790   31.9910 H   0  0  0  0  0  0  0  0  0  0  0  0
   34.9740   23.2380   30.7180 H   0  0  0  0  0  0  0  0  0  0  0  0
   35.4280   27.3850   31.4040 H   0  0  0  0  0  0  0  0  0  0  0  0
  1  4  1  0  0  0  0
  2  1  1  0  0  0  0
  3  1  1  0  0  0  0
  4  5  1  0  0  0  0
  4 11  1  0  0  0  0
  5  6  2  0  0  0  0
  6  7  1  0  0  0  0
  6  8  1  0  0  0  0
  8  9  2  0  0  0  0
 10  8  1  0  0  0  0
 10 13  1  0  0  0  0
 11 10  1  0  0  0  0
 12 11  2  0  0  0  0
 14  1  1  0  0  0  0
 15 20  1  0  0  0  0
 15 14  2  0  0  0  0
 16 15  1  0  0  0  0
 17 16  2  0  0  0  0
 17 18  1  0  0  0  0
 18 19  2  0  0  0  0
 19 14  1  0  0  0  0
 21 16  1  0  0  0  0
 22 18  1  0  0  0  0
M  END
>  <minimizedAffinity>
-4.01865959

$$$$

 OpenBabel03262523503D

 22 23  0  0  0  0  0  0  0  0999 V2000
   39.1960   25.4270   34.4420 C   0  0  0  0  0  0  0  0  0  0  0  0
   39.1840   26.5250   34.6750 H   0  0  0  0  0  0  0  0  0  0  0  0
   40.1920   25.2400   34.0020 H   0  0  0  0  0  0  0  0  0  0  0  0
   38.1540   25.1320   33.5020 N   0  0  0  0  0  0  0  0  0  0  0  0
   37.9570   23.8800   33.0550 C   0  0  0  0  0  3  0  0  0  0  0  0
   36.9580   23.6180   32.1590 C   0  0  0  0  0  0  0  0  0  0  0  0
   36.7070   22.6550   31.7330 H   0  0  0  0  0  0  0  0  0  0  0  0
   36.1770   24.6780   31.7430 C   0  0  0  0  0  0  0  0  0  0  0  0
   35.2220   24.5460   30.9140 O   0  0  0  0  0  0  0  0  0  0  0  0
   36.3530   25.9610   32.1780 N   0  0  0  0  0  0  0  0  0  0  0  0
   37.3690   26.1200   33.0660 C   0  0  0  0  0  0  0  0  0  0  0  0
   37.5700   27.2850   33.4970 O   0  0  0  0  0  0  0  0  0  0  0  0
   35.7490   26.7460   31.8500 H   0  0  0  0  0  0  0  0  0  0  0  0
   39.0830   24.6330   35.6890 C   0  0  0  0  0  0  0  0  0  0  0  0
   38.0460   24.9520   36.5820 C   0  0  0  0  0  0  0  0  0  0  0  0
   37.9480   24.1960   37.7560 C   0  0  0  0  0  0  0  0  0  0  0  0
   38.8520   23.1940   37.9790 N   0  0  0  0  0  0  0  0  0  0  0  0
   39.8290   22.9310   37.0870 C   0  0  0  0  0  0  0  0  0  0  0  0
   39.9520   23.6350   35.9550 N   0  0  0  0  0  0  0  0  0  0  0  0
   37.3380   25.7460   36.3930 H   0  0  0  0  0  0  0  0  0  0  0  0
   37.1540   24.4380   38.4430 H   0  0  0  0  0  0  0  0  0  0  0  0
   40.5130   22.1270   37.3220 H   0  0  0  0  0  0  0  0  0  0  0  0
  1  2  1  0  0  0  0
  1 14  1  0  0  0  0
  3  1  1  0  0  0  0
  4  1  1  0  0  0  0
  5  4  1  0  0  0  0
  6  5  2  0  0  0  0
  7  6  1  0  0  0  0
  8  6  1  0  0  0  0
  8 10  1  0  0  0  0
  9  8  2  0  0  0  0
 10 11  1  0  0  0  0
 11 12  2  0  0  0  0
 11  4  1  0  0  0  0
 13 10  1  0  0  0  0
 14 19  2  0  0  0  0
 14 15  1  0  0  0  0
 15 16  2  0  0  0  0
 16 17  1  0  0  0  0
 16 21  1  0  0  0  0
 18 22  1  0  0  0  0
 18 17  2  0  0  0  0
 19 18  1  0  0  0  0
 20 15  1  0  0  0  0
M  END
>  <minimizedAffinity>
-3.99139619

$$$$

 OpenBabel03262523503D

 22 23  0  0  0  0  0  0  0  0999 V2000
   39.3170   24.4070   35.6820 C   0  0  0  0  0  0  0  0  0  0  0  0
   39.8590   25.3890   35.6940 H   0  0  0  0  0  0  0  0  0  0  0  0
   38.4480   24.5520   36.3480 H   0  0  0  0  0  0  0  0  0  0  0  0
   40.1850   23.3820   36.1850 N   0  0  0  0  0  0  0  0  0  0  0  0
   41.3170   23.0530   35.5410 C   0  0  0  0  0  3  0  0  0  0  0  0
   42.1320   22.0730   36.0360 C   0  0  0  0  0  0  0  0  0  0  0  0
   43.0640   21.7260   35.6060 H   0  0  0  0  0  0  0  0  0  0  0  0
   41.7450   21.4490   37.2060 C   0  0  0  0  0  0  0  0  0  0  0  0
   42.4280   20.5260   37.7530 O   0  0  0  0  0  0  0  0  0  0  0  0
   40.6000   21.7600   37.8830 N   0  0  0  0  0  0  0  0  0  0  0  0
   39.8590   22.7450   37.3130 C   0  0  0  0  0  0  0  0  0  0  0  0
   38.7940   23.0680   37.9010 O   0  0  0  0  0  0  0  0  0  0  0  0
   40.3280   21.2750   38.7660 H   0  0  0  0  0  0  0  0  0  0  0  0
   38.8140   24.1110   34.3190 C   0  0  0  0  0  0  0  0  0  0  0  0
   38.0080   22.9730   34.1460 C   0  0  0  0  0  0  0  0  0  0  0  0
   37.5380   22.7030   32.8550 C   0  0  0  0  0  0  0  0  0  0  0  0
   37.8780   23.5470   31.8340 N   0  0  0  0  0  0  0  0  0  0  0  0
   38.6560   24.6270   32.0570 C   0  0  0  0  0  0  0  0  0  0  0  0
   39.1230   24.9130   33.2780 N   0  0  0  0  0  0  0  0  0  0  0  0
   37.7470   22.3150   34.9620 H   0  0  0  0  0  0  0  0  0  0  0  0
   36.9210   21.8320   32.7190 H   0  0  0  0  0  0  0  0  0  0  0  0
   38.8900   25.2540   31.2080 H   0  0  0  0  0  0  0  0  0  0  0  0
  1  2  1  0  0  0  0
  1  4  1  0  0  0  0
  1  3  1  0  0  0  0
  4 11  1  0  0  0  0
  5  6  2  0  0  0  0
  5  4  1  0  0  0  0
  6  8  1  0  0  0  0
  7  6  1  0  0  0  0
  8  9  2  0  0  0  0
  8 10  1  0  0  0  0
 10 13  1  0  0  0  0
 11 10  1  0  0  0  0
 11 12  2  0  0  0  0
 14  1  1  0  0  0  0
 15 14  1  0  0  0  0
 15 20  1  0  0  0  0
 16 15  2  0  0  0  0
 17 18  2  0  0  0  0
 17 16  1  0  0  0  0
 18 19  1  0  0  0  0
 19 14  2  0  0  0  0
 21 16  1  0  0  0  0
 22 18  1  0  0  0  0
M  END
>  <minimizedAffinity>
-3.96354604

$$$$

 OpenBabel03262523503D

 22 23  0  0  0  0  0  0  0  0999 V2000
   37.7310   22.7490   36.3930 C   0  0  0  0  0  0  0  0  0  0  0  0
   37.5100   22.3360   37.4130 H   0  0  0  0  0  0  0  0  0  0  0  0
   37.2950   23.7650   36.3960 H   0  0  0  0  0  0  0  0  0  0  0  0
   37.1060   21.9230   35.4020 N   0  0  0  0  0  0  0  0  0  0  0  0
   37.5480   21.9040   34.1340 C   0  0  0  0  0  3  0  0  0  0  0  0
   36.9380   21.1100   33.2030 C   0  0  0  0  0  0  0  0  0  0  0  0
   37.2070   21.0140   32.1580 H   0  0  0  0  0  0  0  0  0  0  0  0
   35.8680   20.3430   33.6180 C   0  0  0  0  0  0  0  0  0  0  0  0
   35.2300   19.5690   32.8360 O   0  0  0  0  0  0  0  0  0  0  0  0
   35.3940   20.3400   34.9000 N   0  0  0  0  0  0  0  0  0  0  0  0
   36.0660   21.1600   35.7490 C   0  0  0  0  0  0  0  0  0  0  0  0
   35.6660   21.1920   36.9420 O   0  0  0  0  0  0  0  0  0  0  0  0
   34.5840   19.7510   35.1910 H   0  0  0  0  0  0  0  0  0  0  0  0
   39.1950   22.8730   36.1930 C   0  0  0  0  0  0  0  0  0  0  0  0
   39.6770   24.0250   35.5490 C   0  0  0  0  0  0  0  0  0  0  0  0
   41.0610   24.1320   35.3650 C   0  0  0  0  0  0  0  0  0  0  0  0
   41.8710   23.1250   35.8140 N   0  0  0  0  0  0  0  0  0  0  0  0
   41.3530   22.0390   36.4250 C   0  0  0  0  0  0  0  0  0  0  0  0
   40.0360   21.9060   36.6170 N   0  0  0  0  0  0  0  0  0  0  0  0
   39.0260   24.8130   35.2010 H   0  0  0  0  0  0  0  0  0  0  0  0
   41.4340   25.0130   34.8720 H   0  0  0  0  0  0  0  0  0  0  0  0
   42.0470   21.2780   36.7560 H   0  0  0  0  0  0  0  0  0  0  0  0
  1  3  1  0  0  0  0
  1  2  1  0  0  0  0
  4 11  1  0  0  0  0
  4  1  1  0  0  0  0
  5  4  1  0  0  0  0
  6  8  1  0  0  0  0
  6  5  2  0  0  0  0
  7  6  1  0  0  0  0
  8 10  1  0  0  0  0
  9  8  2  0  0  0  0
 10 13  1  0  0  0  0
 10 11  1  0  0  0  0
 11 12  2  0  0  0  0
 14  1  1  0  0  0  0
 14 19  1  0  0  0  0
 15 14  2  0  0  0  0
 16 15  1  0  0  0  0
 16 17  2  0  0  0  0
 17 18  1  0  0  0  0
 18 19  2  0  0  0  0
 18 22  1  0  0  0  0
 20 15  1  0  0  0  0
 21 16  1  0  0  0  0
M  END
>  <minimizedAffinity>
-3.91244221

$$$$

 OpenBabel03262523503D

 22 23  0  0  0  0  0  0  0  0999 V2000
   33.9470   29.4770   33.6680 C   0  0  0  0  0  0  0  0  0  0  0  0
   33.8990   28.4110   34.0120 H   0  0  0  0  0  0  0  0  0  0  0  0
   32.9100   29.7330   33.3860 H   0  0  0  0  0  0  0  0  0  0  0  0
   34.8250   29.5700   32.5380 N   0  0  0  0  0  0  0  0  0  0  0  0
   35.8790   28.7470   32.4070 C   0  0  0  0  0  3  0  0  0  0  0  0
   36.7040   28.8520   31.3220 C   0  0  0  0  0  0  0  0  0  0  0  0
   37.5770   28.2460   31.1120 H   0  0  0  0  0  0  0  0  0  0  0  0
   36.4110   29.8220   30.3850 C   0  0  0  0  0  0  0  0  0  0  0  0
   37.1110   30.0050   29.3400 O   0  0  0  0  0  0  0  0  0  0  0  0
   35.3480   30.6750   30.4900 N   0  0  0  0  0  0  0  0  0  0  0  0
   34.5880   30.4920   31.6010 C   0  0  0  0  0  0  0  0  0  0  0  0
   33.5960   31.2540   31.7420 O   0  0  0  0  0  0  0  0  0  0  0  0
   35.1460   31.4010   29.7680 H   0  0  0  0  0  0  0  0  0  0  0  0
   34.3580   30.3630   34.7840 C   0  0  0  0  0  0  0  0  0  0  0  0
   33.3700   30.7810   35.6910 C   0  0  0  0  0  0  0  0  0  0  0  0
   33.7690   31.6170   36.7420 C   0  0  0  0  0  0  0  0  0  0  0  0
   35.0830   31.9840   36.8370 N   0  0  0  0  0  0  0  0  0  0  0  0
   35.9900   31.5530   35.9360 C   0  0  0  0  0  0  0  0  0  0  0  0
   35.6430   30.7540   34.9200 N   0  0  0  0  0  0  0  0  0  0  0  0
   32.3360   30.4830   35.6050 H   0  0  0  0  0  0  0  0  0  0  0  0
   33.0140   31.9390   37.4390 H   0  0  0  0  0  0  0  0  0  0  0  0
   37.0130   31.8790   36.0670 H   0  0  0  0  0  0  0  0  0  0  0  0
  1  2  1  0  0  0  0
  1 14  1  0  0  0  0
  3  1  1  0  0  0  0
  4  1  1  0  0  0  0
  5  4  1  0  0  0  0
  6  5  2  0  0  0  0
  7  6  1  0  0  0  0
  8 10  1  0  0  0  0
  8  6  1  0  0  0  0
  9  8  2  0  0  0  0
 10 11  1  0  0  0  0
 11 12  2  0  0  0  0
 11  4  1  0  0  0  0
 13 10  1  0  0  0  0
 14 19  2  0  0  0  0
 14 15  1  0  0  0  0
 15 16  2  0  0  0  0
 16 17  1  0  0  0  0
 16 21  1  0  0  0  0
 18 22  1  0  0  0  0
 18 17  2  0  0  0  0
 19 18  1  0  0  0  0
 20 15  1  0  0  0  0
M  END
>  <minimizedAffinity>
-3.86281657

$$$$

 OpenBabel03262523503D

 22 23  0  0  0  0  0  0  0  0999 V2000
   38.4110   23.0980   33.0830 C   0  0  0  0  0  0  0  0  0  0  0  0
   38.8550   23.4060   32.1000 H   0  0  0  0  0  0  0  0  0  0  0  0
   39.2100   22.5270   33.5910 H   0  0  0  0  0  0  0  0  0  0  0  0
   37.2620   22.2730   32.8450 N   0  0  0  0  0  0  0  0  0  0  0  0
   36.7900   21.4480   33.7950 C   0  0  0  0  0  3  0  0  0  0  0  0
   35.6930   20.6700   33.5480 C   0  0  0  0  0  0  0  0  0  0  0  0
   35.2270   19.9730   34.2340 H   0  0  0  0  0  0  0  0  0  0  0  0
   35.1040   20.7690   32.3040 C   0  0  0  0  0  0  0  0  0  0  0  0
   34.0810   20.0920   31.9700 O   0  0  0  0  0  0  0  0  0  0  0  0
   35.5600   21.5970   31.3170 N   0  0  0  0  0  0  0  0  0  0  0  0
   36.6530   22.3290   31.6580 C   0  0  0  0  0  0  0  0  0  0  0  0
   37.1100   23.1080   30.7820 O   0  0  0  0  0  0  0  0  0  0  0  0
   35.0980   21.6560   30.3840 H   0  0  0  0  0  0  0  0  0  0  0  0
   38.0970   24.2900   33.9060 C   0  0  0  0  0  0  0  0  0  0  0  0
   38.4600   24.2700   35.2630 C   0  0  0  0  0  0  0  0  0  0  0  0
   38.1590   25.4020   36.0310 C   0  0  0  0  0  0  0  0  0  0  0  0
   37.5350   26.4620   35.4340 N   0  0  0  0  0  0  0  0  0  0  0  0
   37.2080   26.4280   34.1260 C   0  0  0  0  0  0  0  0  0  0  0  0
   37.4810   25.3620   33.3640 N   0  0  0  0  0  0  0  0  0  0  0  0
   38.9530   23.4250   35.7210 H   0  0  0  0  0  0  0  0  0  0  0  0
   38.4360   25.3890   37.0710 H   0  0  0  0  0  0  0  0  0  0  0  0
   36.7150   27.2990   33.7140 H   0  0  0  0  0  0  0  0  0  0  0  0
  1  3  1  0  0  0  0
  1 14  1  0  0  0  0
  2  1  1  0  0  0  0
  4  1  1  0  0  0  0
  4  5  1  0  0  0  0
  6  5  2  0  0  0  0
  6  7  1  0  0  0  0
  8  6  1  0  0  0  0
  9  8  2  0  0  0  0
 10 11  1  0  0  0  0
 10  8  1  0  0  0  0
 11  4  1  0  0  0  0
 12 11  2  0  0  0  0
 13 10  1  0  0  0  0
 14 15  1  0  0  0  0
 15 20  1  0  0  0  0
 15 16  2  0  0  0  0
 16 21  1  0  0  0  0
 17 16  1  0  0  0  0
 18 17  2  0  0  0  0
 19 14  2  0  0  0  0
 19 18  1  0  0  0  0
 22 18  1  0  0  0  0
M  END
>  <minimizedAffinity>
-3.84990716

$$$$
