
 OpenBabel03272506153D

 25 26  0  0  0  0  0  0  0  0999 V2000
   38.6170   24.3580   35.0980 C   0  0  0  0  0  0  0  0  0  0  0  0
   37.9980   25.5620   34.7550 C   0  0  0  0  0  0  0  0  0  0  0  0
   37.3970   25.6720   33.5150 C   0  0  0  0  0  0  0  0  0  0  0  0
   37.4270   24.5990   32.6680 N   0  0  0  0  0  0  0  0  0  0  0  0
   38.0330   23.4400   33.0220 C   0  0  0  0  0  0  0  0  0  0  0  0
   38.6320   23.3130   34.2400 N   0  0  0  0  0  0  0  0  0  0  0  0
   38.0320   26.3430   35.4950 H   0  0  0  0  0  0  0  0  0  0  0  0
   38.0400   22.6070   32.3270 H   0  0  0  0  0  0  0  0  0  0  0  0
   36.7880   26.9100   33.2220 N   0  0  0  0  0  0  0  0  0  0  0  0
   36.2330   27.0820   31.9900 C   0  0  0  0  0  3  0  0  0  0  0  0
   35.6010   28.2560   31.5780 C   0  0  0  0  0  0  0  0  0  0  0  0
   35.2040   28.2600   30.5770 H   0  0  0  0  0  0  0  0  0  0  0  0
   35.5500   29.2810   32.4820 C   0  0  0  0  0  0  0  0  0  0  0  0
   34.9790   30.3350   32.0970 O   0  0  0  0  0  0  0  0  0  0  0  0
   36.1020   29.1110   33.7060 N   0  0  0  0  0  0  0  0  0  0  0  0
   36.7050   27.9550   34.0630 C   0  0  0  0  0  0  0  0  0  0  0  0
   37.2120   27.8240   35.2120 O   0  0  0  0  0  0  0  0  0  0  0  0
   36.0390   29.9200   34.3600 H   0  0  0  0  0  0  0  0  0  0  0  0
   39.2610   24.0930   36.2980 O   0  0  0  0  0  0  0  0  0  0  0  0
   37.8910   24.5040   38.5780 O   0  0  0  0  0  0  0  0  0  0  0  0
   38.4340   23.4240   37.6530 P   0  0  0  0  0  0  0  0  0  0  0  0
   37.1900   22.4700   37.0140 O   0  0  0  0  0  0  0  0  0  0  0  0
   37.6480   21.7150   36.5670 H   0  0  0  0  0  0  0  0  0  0  0  0
   39.5050   22.4940   38.5650 O   0  0  0  0  0  0  0  0  0  0  0  0
   38.9320   21.8810   39.1260 H   0  0  0  0  0  0  0  0  0  0  0  0
  1 19  1  0  0  0  0
  2  1  1  0  0  0  0
  2  7  1  0  0  0  0
  3  2  2  0  0  0  0
  4  5  2  0  0  0  0
  4  3  1  0  0  0  0
  5  6  1  0  0  0  0
  6  1  2  0  0  0  0
  8  5  1  0  0  0  0
  9  3  1  0  0  0  0
  9 16  1  0  0  0  0
 10  9  1  0  0  0  0
 11 10  2  0  0  0  0
 11 13  1  0  0  0  0
 12 11  1  0  0  0  0
 13 15  1  0  0  0  0
 14 13  2  0  0  0  0
 15 16  1  0  0  0  0
 15 18  1  0  0  0  0
 16 17  2  0  0  0  0
 19 21  1  0  0  0  0
 21 24  1  0  0  0  0
 21 20  2  0  0  0  0
 22 21  1  0  0  0  0
 23 22  1  0  0  0  0
 24 25  1  0  0  0  0
M  END
>  <minimizedAffinity>
-5.23172808

$$$$

 OpenBabel03272506153D

 25 26  0  0  0  0  0  0  0  0999 V2000
   38.3030   24.5590   36.1390 C   0  0  0  0  0  0  0  0  0  0  0  0
   39.3600   23.7050   35.8180 C   0  0  0  0  0  0  0  0  0  0  0  0
   39.9120   22.9250   36.8160 C   0  0  0  0  0  0  0  0  0  0  0  0
   39.4050   23.0140   38.0830 N   0  0  0  0  0  0  0  0  0  0  0  0
   38.3780   23.8490   38.3720 C   0  0  0  0  0  0  0  0  0  0  0  0
   37.8210   24.6270   37.4010 N   0  0  0  0  0  0  0  0  0  0  0  0
   39.6820   23.7120   34.7910 H   0  0  0  0  0  0  0  0  0  0  0  0
   37.9980   23.8980   39.3870 H   0  0  0  0  0  0  0  0  0  0  0  0
   40.9770   22.0810   36.4350 N   0  0  0  0  0  0  0  0  0  0  0  0
   41.5890   21.3370   37.3970 C   0  0  0  0  0  3  0  0  0  0  0  0
   42.6500   20.4660   37.1500 C   0  0  0  0  0  0  0  0  0  0  0  0
   43.0430   19.9360   38.0010 H   0  0  0  0  0  0  0  0  0  0  0  0
   43.0860   20.3720   35.8560 C   0  0  0  0  0  0  0  0  0  0  0  0
   44.0450   19.5840   35.6470 O   0  0  0  0  0  0  0  0  0  0  0  0
   42.4790   21.1130   34.9000 N   0  0  0  0  0  0  0  0  0  0  0  0
   41.4520   21.9440   35.1850 C   0  0  0  0  0  0  0  0  0  0  0  0
   40.9040   22.6240   34.2730 O   0  0  0  0  0  0  0  0  0  0  0  0
   42.8450   21.0080   33.9290 H   0  0  0  0  0  0  0  0  0  0  0  0
   37.6450   25.4020   35.2540 O   0  0  0  0  0  0  0  0  0  0  0  0
   39.2380   27.2060   34.0480 O   0  0  0  0  0  0  0  0  0  0  0  0
   38.1020   27.0490   35.0500 P   0  0  0  0  0  0  0  0  0  0  0  0
   36.7070   27.8600   34.5380 O   0  0  0  0  0  0  0  0  0  0  0  0
   36.0940   27.8350   35.3160 H   0  0  0  0  0  0  0  0  0  0  0  0
   38.6590   27.6670   36.5170 O   0  0  0  0  0  0  0  0  0  0  0  0
   38.5980   28.6710   36.4370 H   0  0  0  0  0  0  0  0  0  0  0  0
  1  6  1  0  0  0  0
  2  1  2  0  0  0  0
  2  3  1  0  0  0  0
  3  4  2  0  0  0  0
  4  5  1  0  0  0  0
  5  8  1  0  0  0  0
  6  5  2  0  0  0  0
  7  2  1  0  0  0  0
  9  3  1  0  0  0  0
  9 10  1  0  0  0  0
 11 10  2  0  0  0  0
 11 12  1  0  0  0  0
 13 11  1  0  0  0  0
 14 13  2  0  0  0  0
 15 16  1  0  0  0  0
 15 13  1  0  0  0  0
 16  9  1  0  0  0  0
 17 16  2  0  0  0  0
 18 15  1  0  0  0  0
 19  1  1  0  0  0  0
 20 21  2  0  0  0  0
 21 19  1  0  0  0  0
 21 24  1  0  0  0  0
 22 21  1  0  0  0  0
 22 23  1  0  0  0  0
 25 24  1  0  0  0  0
M  END
>  <minimizedAffinity>
-5.1447587

$$$$

 OpenBabel03272506153D

 25 26  0  0  0  0  0  0  0  0999 V2000
   39.8150   24.6240   35.1870 C   0  0  0  0  0  0  0  0  0  0  0  0
   38.7720   24.4920   34.2690 C   0  0  0  0  0  0  0  0  0  0  0  0
   38.2670   25.6290   33.6670 C   0  0  0  0  0  0  0  0  0  0  0  0
   38.8060   26.8430   33.9890 N   0  0  0  0  0  0  0  0  0  0  0  0
   39.8190   26.9480   34.8840 C   0  0  0  0  0  0  0  0  0  0  0  0
   40.3290   25.8390   35.4880 N   0  0  0  0  0  0  0  0  0  0  0  0
   38.4220   23.4910   34.0870 H   0  0  0  0  0  0  0  0  0  0  0  0
   40.2240   27.9260   35.1190 H   0  0  0  0  0  0  0  0  0  0  0  0
   37.2150   25.4360   32.7470 N   0  0  0  0  0  0  0  0  0  0  0  0
   36.6490   26.5330   32.1730 C   0  0  0  0  0  3  0  0  0  0  0  0
   35.6040   26.4770   31.2500 C   0  0  0  0  0  0  0  0  0  0  0  0
   35.2470   27.4210   30.8710 H   0  0  0  0  0  0  0  0  0  0  0  0
   35.1360   25.2350   30.9200 C   0  0  0  0  0  0  0  0  0  0  0  0
   34.1920   25.1980   30.0880 O   0  0  0  0  0  0  0  0  0  0  0  0
   35.6980   24.1440   31.4910 N   0  0  0  0  0  0  0  0  0  0  0  0
   36.7100   24.2460   32.3810 C   0  0  0  0  0  0  0  0  0  0  0  0
   37.2150   23.2110   32.8990 O   0  0  0  0  0  0  0  0  0  0  0  0
   35.3080   23.2190   31.2080 H   0  0  0  0  0  0  0  0  0  0  0  0
   40.4270   23.5840   35.8740 O   0  0  0  0  0  0  0  0  0  0  0  0
   38.9360   23.5460   38.1140 O   0  0  0  0  0  0  0  0  0  0  0  0
   39.5950   22.6610   37.0660 P   0  0  0  0  0  0  0  0  0  0  0  0
   38.4520   21.7360   36.2260 O   0  0  0  0  0  0  0  0  0  0  0  0
   38.9830   21.0910   35.6940 H   0  0  0  0  0  0  0  0  0  0  0  0
   40.6930   21.6740   37.8830 O   0  0  0  0  0  0  0  0  0  0  0  0
   40.1430   20.9450   38.3130 H   0  0  0  0  0  0  0  0  0  0  0  0
  1  6  1  0  0  0  0
  1 19  1  0  0  0  0
  2  1  2  0  0  0  0
  3  4  2  0  0  0  0
  3  2  1  0  0  0  0
  4  5  1  0  0  0  0
  5  8  1  0  0  0  0
  5  6  2  0  0  0  0
  7  2  1  0  0  0  0
  9  3  1  0  0  0  0
 10  9  1  0  0  0  0
 11 10  2  0  0  0  0
 12 11  1  0  0  0  0
 13 11  1  0  0  0  0
 13 15  1  0  0  0  0
 14 13  2  0  0  0  0
 15 16  1  0  0  0  0
 16  9  1  0  0  0  0
 16 17  2  0  0  0  0
 18 15  1  0  0  0  0
 19 21  1  0  0  0  0
 21 24  1  0  0  0  0
 21 20  2  0  0  0  0
 22 21  1  0  0  0  0
 23 22  1  0  0  0  0
 24 25  1  0  0  0  0
M  END
>  <minimizedAffinity>
-5.14365673

$$$$

 OpenBabel03272506153D

 25 26  0  0  0  0  0  0  0  0999 V2000
   36.7940   21.8240   32.2110 C   0  0  0  0  0  0  0  0  0  0  0  0
   36.4380   23.1410   31.9160 C   0  0  0  0  0  0  0  0  0  0  0  0
   37.0600   24.1670   32.6040 C   0  0  0  0  0  0  0  0  0  0  0  0
   38.0000   23.8580   33.5470 N   0  0  0  0  0  0  0  0  0  0  0  0
   38.3290   22.5700   33.8160 C   0  0  0  0  0  0  0  0  0  0  0  0
   37.7270   21.5460   33.1490 N   0  0  0  0  0  0  0  0  0  0  0  0
   35.6880   23.2740   31.1570 H   0  0  0  0  0  0  0  0  0  0  0  0
   39.0780   22.3570   34.5700 H   0  0  0  0  0  0  0  0  0  0  0  0
   36.6630   25.4780   32.2660 N   0  0  0  0  0  0  0  0  0  0  0  0
   37.2080   26.5170   32.9570 C   0  0  0  0  0  3  0  0  0  0  0  0
   36.8990   27.8570   32.7200 C   0  0  0  0  0  0  0  0  0  0  0  0
   37.4020   28.5820   33.3390 H   0  0  0  0  0  0  0  0  0  0  0  0
   35.9930   28.1170   31.7290 C   0  0  0  0  0  0  0  0  0  0  0  0
   35.7230   29.3300   31.5260 O   0  0  0  0  0  0  0  0  0  0  0  0
   35.4510   27.0850   31.0420 N   0  0  0  0  0  0  0  0  0  0  0  0
   35.7790   25.8000   31.3060 C   0  0  0  0  0  0  0  0  0  0  0  0
   35.2580   24.8570   30.6490 O   0  0  0  0  0  0  0  0  0  0  0  0
   34.7650   27.3320   30.2960 H   0  0  0  0  0  0  0  0  0  0  0  0
   36.2630   20.6890   31.6110 O   0  0  0  0  0  0  0  0  0  0  0  0
   36.2540   18.1350   32.4610 O   0  0  0  0  0  0  0  0  0  0  0  0
   35.4890   19.4500   32.5230 P   0  0  0  0  0  0  0  0  0  0  0  0
   35.3840   20.0340   34.1090 O   0  0  0  0  0  0  0  0  0  0  0  0
   34.7440   20.7890   34.0640 H   0  0  0  0  0  0  0  0  0  0  0  0
   33.9570   19.1530   31.8840 O   0  0  0  0  0  0  0  0  0  0  0  0
   33.4370   18.6880   32.6130 H   0  0  0  0  0  0  0  0  0  0  0  0
  1  6  1  0  0  0  0
  2  1  2  0  0  0  0
  2  3  1  0  0  0  0
  3  4  2  0  0  0  0
  4  5  1  0  0  0  0
  5  8  1  0  0  0  0
  6  5  2  0  0  0  0
  7  2  1  0  0  0  0
  9  3  1  0  0  0  0
  9 10  1  0  0  0  0
 11 10  2  0  0  0  0
 11 12  1  0  0  0  0
 13 11  1  0  0  0  0
 14 13  2  0  0  0  0
 15 16  1  0  0  0  0
 15 13  1  0  0  0  0
 16  9  1  0  0  0  0
 17 16  2  0  0  0  0
 18 15  1  0  0  0  0
 19  1  1  0  0  0  0
 19 21  1  0  0  0  0
 20 21  2  0  0  0  0
 21 22  1  0  0  0  0
 23 22  1  0  0  0  0
 24 21  1  0  0  0  0
 24 25  1  0  0  0  0
M  END
>  <minimizedAffinity>
-4.99434614

$$$$

 OpenBabel03272506153D

 25 26  0  0  0  0  0  0  0  0999 V2000
   37.7920   25.4780   33.1020 C   0  0  0  0  0  0  0  0  0  0  0  0
   38.3040   24.5560   34.0160 C   0  0  0  0  0  0  0  0  0  0  0  0
   39.6360   24.6440   34.3750 C   0  0  0  0  0  0  0  0  0  0  0  0
   40.4060   25.6300   33.8250 N   0  0  0  0  0  0  0  0  0  0  0  0
   39.8870   26.5150   32.9380 C   0  0  0  0  0  0  0  0  0  0  0  0
   38.5770   26.4440   32.5720 N   0  0  0  0  0  0  0  0  0  0  0  0
   37.6120   23.8200   34.3880 H   0  0  0  0  0  0  0  0  0  0  0  0
   40.5240   27.2860   32.5190 H   0  0  0  0  0  0  0  0  0  0  0  0
   40.0990   23.6860   35.3020 N   0  0  0  0  0  0  0  0  0  0  0  0
   41.4180   23.7000   35.6410 C   0  0  0  0  0  3  0  0  0  0  0  0
   41.9980   22.8090   36.5440 C   0  0  0  0  0  0  0  0  0  0  0  0
   43.0540   22.9290   36.7250 H   0  0  0  0  0  0  0  0  0  0  0  0
   41.1740   21.8750   37.1090 C   0  0  0  0  0  0  0  0  0  0  0  0
   41.7100   21.0770   37.9210 O   0  0  0  0  0  0  0  0  0  0  0  0
   39.8630   21.8610   36.7710 N   0  0  0  0  0  0  0  0  0  0  0  0
   39.3430   22.7440   35.8910 C   0  0  0  0  0  0  0  0  0  0  0  0
   38.1160   22.7080   35.5940 O   0  0  0  0  0  0  0  0  0  0  0  0
   39.2750   21.1300   37.2270 H   0  0  0  0  0  0  0  0  0  0  0  0
   36.4830   25.5220   32.6420 O   0  0  0  0  0  0  0  0  0  0  0  0
   34.7830   25.3090   30.5660 O   0  0  0  0  0  0  0  0  0  0  0  0
   35.9730   24.6490   31.2480 P   0  0  0  0  0  0  0  0  0  0  0  0
   37.3190   24.5830   30.2220 O   0  0  0  0  0  0  0  0  0  0  0  0
   37.9710   24.0040   30.6900 H   0  0  0  0  0  0  0  0  0  0  0  0
   35.4780   23.1010   31.7000 O   0  0  0  0  0  0  0  0  0  0  0  0
   35.5090   22.5430   30.8600 H   0  0  0  0  0  0  0  0  0  0  0  0
  1  2  1  0  0  0  0
  2  3  2  0  0  0  0
  2  7  1  0  0  0  0
  3  9  1  0  0  0  0
  4  3  1  0  0  0  0
  5  4  2  0  0  0  0
  6  5  1  0  0  0  0
  6  1  2  0  0  0  0
  8  5  1  0  0  0  0
  9 10  1  0  0  0  0
  9 16  1  0  0  0  0
 10 11  2  0  0  0  0
 11 12  1  0  0  0  0
 11 13  1  0  0  0  0
 13 14  2  0  0  0  0
 15 13  1  0  0  0  0
 15 18  1  0  0  0  0
 16 15  1  0  0  0  0
 17 16  2  0  0  0  0
 19  1  1  0  0  0  0
 20 21  2  0  0  0  0
 21 24  1  0  0  0  0
 21 19  1  0  0  0  0
 22 23  1  0  0  0  0
 22 21  1  0  0  0  0
 25 24  1  0  0  0  0
M  END
>  <minimizedAffinity>
-4.99250364

$$$$

 OpenBabel03272506153D

 25 26  0  0  0  0  0  0  0  0999 V2000
   38.7030   24.0270   35.5520 C   0  0  0  0  0  0  0  0  0  0  0  0
   38.3280   24.8010   34.4520 C   0  0  0  0  0  0  0  0  0  0  0  0
   39.3170   25.3900   33.6850 C   0  0  0  0  0  0  0  0  0  0  0  0
   40.6250   25.1960   34.0300 N   0  0  0  0  0  0  0  0  0  0  0  0
   40.9660   24.4410   35.1030 C   0  0  0  0  0  0  0  0  0  0  0  0
   40.0060   23.8530   35.8700 N   0  0  0  0  0  0  0  0  0  0  0  0
   37.2720   24.8890   34.2690 H   0  0  0  0  0  0  0  0  0  0  0  0
   42.0130   24.3070   35.3510 H   0  0  0  0  0  0  0  0  0  0  0  0
   38.8810   26.1590   32.5860 N   0  0  0  0  0  0  0  0  0  0  0  0
   39.8170   26.8050   31.8370 C   0  0  0  0  0  3  0  0  0  0  0  0
   39.5170   27.5940   30.7270 C   0  0  0  0  0  0  0  0  0  0  0  0
   40.3530   28.0500   30.2220 H   0  0  0  0  0  0  0  0  0  0  0  0
   38.1960   27.7140   30.3910 C   0  0  0  0  0  0  0  0  0  0  0  0
   37.9390   28.4300   29.3880 O   0  0  0  0  0  0  0  0  0  0  0  0
   37.2660   27.0730   31.1360 N   0  0  0  0  0  0  0  0  0  0  0  0
   37.6020   26.3170   32.2040 C   0  0  0  0  0  0  0  0  0  0  0  0
   36.7130   25.7300   32.8810 O   0  0  0  0  0  0  0  0  0  0  0  0
   36.2720   27.1930   30.8410 H   0  0  0  0  0  0  0  0  0  0  0  0
   37.8340   23.3740   36.4160 O   0  0  0  0  0  0  0  0  0  0  0  0
   38.0560   24.6910   38.7530 O   0  0  0  0  0  0  0  0  0  0  0  0
   38.1090   23.3100   38.1140 P   0  0  0  0  0  0  0  0  0  0  0  0
   36.9120   22.2900   38.7420 O   0  0  0  0  0  0  0  0  0  0  0  0
   37.1300   21.3900   38.3900 H   0  0  0  0  0  0  0  0  0  0  0  0
   39.6500   22.6940   38.4140 O   0  0  0  0  0  0  0  0  0  0  0  0
   39.6400   22.3730   39.3710 H   0  0  0  0  0  0  0  0  0  0  0  0
  1  6  1  0  0  0  0
  1 19  1  0  0  0  0
  2  1  2  0  0  0  0
  3  4  2  0  0  0  0
  3  2  1  0  0  0  0
  4  5  1  0  0  0  0
  5  8  1  0  0  0  0
  5  6  2  0  0  0  0
  7  2  1  0  0  0  0
  9  3  1  0  0  0  0
 10  9  1  0  0  0  0
 11 10  2  0  0  0  0
 12 11  1  0  0  0  0
 13 11  1  0  0  0  0
 13 15  1  0  0  0  0
 14 13  2  0  0  0  0
 15 16  1  0  0  0  0
 16  9  1  0  0  0  0
 16 17  2  0  0  0  0
 18 15  1  0  0  0  0
 19 21  1  0  0  0  0
 21 24  1  0  0  0  0
 21 22  1  0  0  0  0
 21 20  2  0  0  0  0
 23 22  1  0  0  0  0
 24 25  1  0  0  0  0
M  END
>  <minimizedAffinity>
-4.97389364

$$$$

 OpenBabel03272506153D

 25 26  0  0  0  0  0  0  0  0999 V2000
   37.2360   26.0470   32.7820 C   0  0  0  0  0  0  0  0  0  0  0  0
   37.3570   24.6570   32.7330 C   0  0  0  0  0  0  0  0  0  0  0  0
   36.5210   23.9450   31.8930 C   0  0  0  0  0  0  0  0  0  0  0  0
   35.6060   24.6250   31.1390 N   0  0  0  0  0  0  0  0  0  0  0  0
   35.5050   25.9750   31.2030 C   0  0  0  0  0  0  0  0  0  0  0  0
   36.3200   26.6940   32.0250 N   0  0  0  0  0  0  0  0  0  0  0  0
   38.1100   24.2220   33.3670 H   0  0  0  0  0  0  0  0  0  0  0  0
   34.7680   26.4850   30.5920 H   0  0  0  0  0  0  0  0  0  0  0  0
   36.6880   22.5450   31.8840 N   0  0  0  0  0  0  0  0  0  0  0  0
   35.8490   21.7990   31.1140 C   0  0  0  0  0  3  0  0  0  0  0  0
   35.9100   20.4080   31.0180 C   0  0  0  0  0  0  0  0  0  0  0  0
   35.1860   19.9400   30.3720 H   0  0  0  0  0  0  0  0  0  0  0  0
   36.8790   19.7790   31.7510 C   0  0  0  0  0  0  0  0  0  0  0  0
   36.9220   18.5250   31.6560 O   0  0  0  0  0  0  0  0  0  0  0  0
   37.7130   20.5200   32.5160 N   0  0  0  0  0  0  0  0  0  0  0  0
   37.6170   21.8670   32.5790 C   0  0  0  0  0  0  0  0  0  0  0  0
   38.4090   22.5340   33.3020 O   0  0  0  0  0  0  0  0  0  0  0  0
   38.4350   19.9960   33.0570 H   0  0  0  0  0  0  0  0  0  0  0  0
   37.9960   26.8990   33.5710 O   0  0  0  0  0  0  0  0  0  0  0  0
   37.5200   25.5500   35.8510 O   0  0  0  0  0  0  0  0  0  0  0  0
   38.5200   26.4590   35.1510 P   0  0  0  0  0  0  0  0  0  0  0  0
   40.0180   25.6940   34.9490 O   0  0  0  0  0  0  0  0  0  0  0  0
   40.6320   26.4070   34.6400 H   0  0  0  0  0  0  0  0  0  0  0  0
   38.6700   27.8430   36.1030 O   0  0  0  0  0  0  0  0  0  0  0  0
   39.2720   27.5880   36.8720 H   0  0  0  0  0  0  0  0  0  0  0  0
  1 19  1  0  0  0  0
  2  1  1  0  0  0  0
  2  7  1  0  0  0  0
  3  2  2  0  0  0  0
  4  5  2  0  0  0  0
  4  3  1  0  0  0  0
  5  6  1  0  0  0  0
  6  1  2  0  0  0  0
  8  5  1  0  0  0  0
  9  3  1  0  0  0  0
  9 16  1  0  0  0  0
 10  9  1  0  0  0  0
 11 10  2  0  0  0  0
 11 13  1  0  0  0  0
 12 11  1  0  0  0  0
 13 15  1  0  0  0  0
 14 13  2  0  0  0  0
 15 16  1  0  0  0  0
 15 18  1  0  0  0  0
 16 17  2  0  0  0  0
 19 21  1  0  0  0  0
 21 20  2  0  0  0  0
 21 24  1  0  0  0  0
 22 21  1  0  0  0  0
 23 22  1  0  0  0  0
 24 25  1  0  0  0  0
M  END
>  <minimizedAffinity>
-4.79619932

$$$$

 OpenBabel03272506153D

 25 26  0  0  0  0  0  0  0  0999 V2000
   38.1160   27.5170   32.2600 C   0  0  0  0  0  0  0  0  0  0  0  0
   38.6220   26.5270   33.1040 C   0  0  0  0  0  0  0  0  0  0  0  0
   37.9900   26.2950   34.3110 C   0  0  0  0  0  0  0  0  0  0  0  0
   36.8920   27.0410   34.6370 N   0  0  0  0  0  0  0  0  0  0  0  0
   36.4180   27.9980   33.8020 C   0  0  0  0  0  0  0  0  0  0  0  0
   37.0280   28.2400   32.6080 N   0  0  0  0  0  0  0  0  0  0  0  0
   39.4910   25.9980   32.7510 H   0  0  0  0  0  0  0  0  0  0  0  0
   35.5450   28.5730   34.0900 H   0  0  0  0  0  0  0  0  0  0  0  0
   38.5440   25.2830   35.1240 N   0  0  0  0  0  0  0  0  0  0  0  0
   37.9880   25.0600   36.3470 C   0  0  0  0  0  3  0  0  0  0  0  0
   38.4420   24.0910   37.2420 C   0  0  0  0  0  0  0  0  0  0  0  0
   37.9120   24.0170   38.1780 H   0  0  0  0  0  0  0  0  0  0  0  0
   39.5100   23.3340   36.8460 C   0  0  0  0  0  0  0  0  0  0  0  0
   39.9100   22.4640   37.6640 O   0  0  0  0  0  0  0  0  0  0  0  0
   40.0630   23.5560   35.6320 N   0  0  0  0  0  0  0  0  0  0  0  0
   39.5900   24.5070   34.7950 C   0  0  0  0  0  0  0  0  0  0  0  0
   40.1260   24.6930   33.6670 O   0  0  0  0  0  0  0  0  0  0  0  0
   40.8750   22.9540   35.3740 H   0  0  0  0  0  0  0  0  0  0  0  0
   38.6360   27.8680   31.0210 O   0  0  0  0  0  0  0  0  0  0  0  0
   38.3740   28.5560   28.4320 O   0  0  0  0  0  0  0  0  0  0  0  0
   37.6550   28.5350   29.7730 P   0  0  0  0  0  0  0  0  0  0  0  0
   36.2590   27.5780   29.7150 O   0  0  0  0  0  0  0  0  0  0  0  0
   35.7880   27.7580   30.5670 H   0  0  0  0  0  0  0  0  0  0  0  0
   37.2770   30.1360   30.1480 O   0  0  0  0  0  0  0  0  0  0  0  0
   36.4670   30.3680   29.5910 H   0  0  0  0  0  0  0  0  0  0  0  0
  1  6  2  0  0  0  0
  1  2  1  0  0  0  0
  2  3  2  0  0  0  0
  3  4  1  0  0  0  0
  3  9  1  0  0  0  0
  5  8  1  0  0  0  0
  5  4  2  0  0  0  0
  6  5  1  0  0  0  0
  7  2  1  0  0  0  0
  9 10  1  0  0  0  0
 10 11  2  0  0  0  0
 11 12  1  0  0  0  0
 13 11  1  0  0  0  0
 13 14  2  0  0  0  0
 15 13  1  0  0  0  0
 16  9  1  0  0  0  0
 16 15  1  0  0  0  0
 17 16  2  0  0  0  0
 18 15  1  0  0  0  0
 19  1  1  0  0  0  0
 20 21  2  0  0  0  0
 21 24  1  0  0  0  0
 21 19  1  0  0  0  0
 22 21  1  0  0  0  0
 22 23  1  0  0  0  0
 25 24  1  0  0  0  0
M  END
>  <minimizedAffinity>
-4.79410172

$$$$

 OpenBabel03272506153D

 25 26  0  0  0  0  0  0  0  0999 V2000
   38.1780   26.8780   31.9870 C   0  0  0  0  0  0  0  0  0  0  0  0
   38.1410   26.4110   33.3020 C   0  0  0  0  0  0  0  0  0  0  0  0
   38.1780   25.0470   33.5250 C   0  0  0  0  0  0  0  0  0  0  0  0
   38.2500   24.2030   32.4530 N   0  0  0  0  0  0  0  0  0  0  0  0
   38.2840   24.6780   31.1840 C   0  0  0  0  0  0  0  0  0  0  0  0
   38.2490   26.0190   30.9440 N   0  0  0  0  0  0  0  0  0  0  0  0
   38.0850   27.1610   34.0720 H   0  0  0  0  0  0  0  0  0  0  0  0
   38.3410   23.9820   30.3540 H   0  0  0  0  0  0  0  0  0  0  0  0
   38.1380   24.6330   34.8730 N   0  0  0  0  0  0  0  0  0  0  0  0
   38.1150   23.2970   35.1380 C   0  0  0  0  0  3  0  0  0  0  0  0
   38.0760   22.7600   36.4250 C   0  0  0  0  0  0  0  0  0  0  0  0
   38.0610   21.6840   36.4950 H   0  0  0  0  0  0  0  0  0  0  0  0
   38.0590   23.6470   37.4660 C   0  0  0  0  0  0  0  0  0  0  0  0
   38.0230   23.1490   38.6220 O   0  0  0  0  0  0  0  0  0  0  0  0
   38.0820   24.9740   37.2030 N   0  0  0  0  0  0  0  0  0  0  0  0
   38.1200   25.4510   35.9390 C   0  0  0  0  0  0  0  0  0  0  0  0
   38.1400   26.6950   35.7230 O   0  0  0  0  0  0  0  0  0  0  0  0
   38.0680   25.6110   38.0290 H   0  0  0  0  0  0  0  0  0  0  0  0
   38.1490   28.2110   31.5990 O   0  0  0  0  0  0  0  0  0  0  0  0
   35.5530   28.9150   31.4870 O   0  0  0  0  0  0  0  0  0  0  0  0
   36.8460   28.8690   30.6850 P   0  0  0  0  0  0  0  0  0  0  0  0
   37.3420   30.4180   30.2160 O   0  0  0  0  0  0  0  0  0  0  0  0
   38.0840   30.2680   29.5770 H   0  0  0  0  0  0  0  0  0  0  0  0
   36.5510   27.8930   29.3410 O   0  0  0  0  0  0  0  0  0  0  0  0
   36.0370   28.4670   28.6890 H   0  0  0  0  0  0  0  0  0  0  0  0
  1  2  1  0  0  0  0
  2  3  2  0  0  0  0
  2  7  1  0  0  0  0
  3  9  1  0  0  0  0
  4  3  1  0  0  0  0
  5  4  2  0  0  0  0
  6  5  1  0  0  0  0
  6  1  2  0  0  0  0
  8  5  1  0  0  0  0
  9 10  1  0  0  0  0
  9 16  1  0  0  0  0
 10 11  2  0  0  0  0
 11 12  1  0  0  0  0
 11 13  1  0  0  0  0
 13 14  2  0  0  0  0
 15 13  1  0  0  0  0
 15 18  1  0  0  0  0
 16 15  1  0  0  0  0
 17 16  2  0  0  0  0
 19  1  1  0  0  0  0
 21 20  2  0  0  0  0
 21 19  1  0  0  0  0
 22 21  1  0  0  0  0
 23 22  1  0  0  0  0
 24 21  1  0  0  0  0
 25 24  1  0  0  0  0
M  END
>  <minimizedAffinity>
-4.77677298

$$$$
