
 OpenBabel03272502203D

 29 31  0  0  0  0  0  0  0  0999 V2000
   36.6880   30.3270   48.9120 C   0  0  0  0  0  0  0  0  0  0  0  0
   36.6350   30.2930   50.3220 C   0  0  0  0  0  0  0  0  0  0  0  0
   35.6860   29.4660   50.8990 C   0  0  0  0  0  0  0  0  0  0  0  0
   34.8520   28.7290   50.0970 N   0  0  0  0  0  0  0  0  0  0  0  0
   34.9450   28.8000   48.7320 C   0  0  0  0  0  0  0  0  0  0  0  0
   35.8630   29.5980   48.1400 N   0  0  0  0  0  0  0  0  0  0  0  0
   37.3260   30.9010   50.8890 H   0  0  0  0  0  0  0  0  0  0  0  0
   35.6300   29.4270   51.9720 H   0  0  0  0  0  0  0  0  0  0  0  0
   33.3060   30.5480   46.7180 Br  0  0  0  0  0  0  0  0  0  0  0  0
   33.2700   28.6440   46.9380 C   0  0  0  0  0  0  0  0  0  0  0  0
   34.0580   28.0160   47.8780 C   0  0  0  0  0  0  0  0  0  0  0  0
   33.9740   26.6510   47.9720 C   0  0  0  0  0  0  0  0  0  0  0  0
   33.1480   25.8740   47.1820 C   0  0  0  0  0  0  0  0  0  0  0  0
   32.3720   26.5310   46.2520 C   0  0  0  0  0  0  0  0  0  0  0  0
   32.4390   27.9050   46.1370 C   0  0  0  0  0  0  0  0  0  0  0  0
   34.6020   26.1910   48.7150 H   0  0  0  0  0  0  0  0  0  0  0  0
   33.1270   24.8050   47.3040 H   0  0  0  0  0  0  0  0  0  0  0  0
   31.7050   25.9660   45.6060 H   0  0  0  0  0  0  0  0  0  0  0  0
   31.8270   28.4270   45.4040 H   0  0  0  0  0  0  0  0  0  0  0  0
   37.6210   31.1380   48.2090 N   0  0  0  0  0  0  0  0  0  0  0  0
   38.2310   30.6210   47.1160 C   0  0  0  0  0  0  0  0  0  0  0  0
   39.1540   31.3900   46.4000 C   0  0  0  0  0  0  0  0  0  0  0  0
   39.6660   31.0120   45.5170 H   0  0  0  0  0  0  0  0  0  0  0  0
   39.4370   32.6760   46.8180 C   0  0  0  0  0  0  0  0  0  0  0  0
   40.2660   33.3830   46.1850 O   0  0  0  0  0  0  0  0  0  0  0  0
   38.7870   33.1330   47.9260 N   0  0  0  0  0  0  0  0  0  0  0  0
   37.8980   32.3910   48.6120 C   0  0  0  0  0  0  0  0  0  0  0  0
   37.3480   32.8980   49.6240 O   0  0  0  0  0  0  0  0  0  0  0  0
   39.0380   34.1170   48.2010 H   0  0  0  0  0  0  0  0  0  0  0  0
  1  2  1  0  0  0  0
  2  7  1  0  0  0  0
  2  3  2  0  0  0  0
  3  8  1  0  0  0  0
  4  3  1  0  0  0  0
  5  4  2  0  0  0  0
  6  5  1  0  0  0  0
  6  1  2  0  0  0  0
  9 10  1  0  0  0  0
 10 11  1  0  0  0  0
 11 12  2  0  0  0  0
 11  5  1  0  0  0  0
 12 16  1  0  0  0  0
 13 17  1  0  0  0  0
 13 12  1  0  0  0  0
 14 13  2  0  0  0  0
 15 14  1  0  0  0  0
 15 10  2  0  0  0  0
 18 14  1  0  0  0  0
 19 15  1  0  0  0  0
 20 27  1  0  0  0  0
 20  1  1  0  0  0  0
 21 20  1  0  0  0  0
 22 24  1  0  0  0  0
 22 21  2  0  0  0  0
 23 22  1  0  0  0  0
 24 26  1  0  0  0  0
 25 24  2  0  0  0  0
 26 29  1  0  0  0  0
 26 27  1  0  0  0  0
 27 28  2  0  0  0  0
M  END
>  <minimizedAffinity>
-6.02739

>  <minimizedRMSD>
4.72206354

$$$$
