
 OpenBabel03272510173D

 29 31  0  0  0  0  0  0  0  0999 V2000
   36.8990   29.6030   51.1420 Br  0  0  0  0  0  0  0  0  0  0  0  0
   35.9230   29.3750   49.5190 C   0  0  0  0  0  0  0  0  0  0  0  0
   36.1550   30.1900   48.4320 C   0  0  0  0  0  0  0  0  0  0  0  0
   35.4030   29.9590   47.2910 C   0  0  0  0  0  0  0  0  0  0  0  0
   34.4430   28.9560   47.2070 C   0  0  0  0  0  0  0  0  0  0  0  0
   34.2480   28.1740   48.3150 C   0  0  0  0  0  0  0  0  0  0  0  0
   34.9850   28.3870   49.4580 C   0  0  0  0  0  0  0  0  0  0  0  0
   35.6280   30.6350   46.4570 H   0  0  0  0  0  0  0  0  0  0  0  0
   33.4930   27.4120   48.1990 H   0  0  0  0  0  0  0  0  0  0  0  0
   34.7660   27.7200   50.2890 H   0  0  0  0  0  0  0  0  0  0  0  0
   33.7830   28.8890   45.9480 N   0  0  0  0  0  0  0  0  0  0  0  0
   33.9050   27.9600   44.9850 C   0  0  0  0  0  3  0  0  0  0  0  0
   33.1560   28.1040   43.8370 C   0  0  0  0  0  0  0  0  0  0  0  0
   33.2810   27.3340   43.0790 H   0  0  0  0  0  0  0  0  0  0  0  0
   32.2910   29.1820   43.6690 C   0  0  0  0  0  0  0  0  0  0  0  0
   31.6170   29.2840   42.5980 O   0  0  0  0  0  0  0  0  0  0  0  0
   32.2030   30.0900   44.6660 N   0  0  0  0  0  0  0  0  0  0  0  0
   32.9380   29.9470   45.7920 C   0  0  0  0  0  0  0  0  0  0  0  0
   32.7410   30.8720   46.6180 O   0  0  0  0  0  0  0  0  0  0  0  0
   31.5400   30.8800   44.4910 H   0  0  0  0  0  0  0  0  0  0  0  0
   37.9320   33.1810   49.5090 C   0  0  0  0  0  0  0  0  0  0  0  0
   39.0240   33.2620   48.6230 C   0  0  0  0  0  0  0  0  0  0  0  0
   39.1370   32.2780   47.6550 C   0  0  0  0  0  0  0  0  0  0  0  0
   38.1940   31.2860   47.6090 N   0  0  0  0  0  0  0  0  0  0  0  0
   37.1530   31.2470   48.4880 C   0  0  0  0  0  0  0  0  0  0  0  0
   37.0330   32.1940   49.4280 N   0  0  0  0  0  0  0  0  0  0  0  0
   37.9000   33.9770   50.2400 H   0  0  0  0  0  0  0  0  0  0  0  0
   39.7910   33.9930   48.5930 H   0  0  0  0  0  0  0  0  0  0  0  0
   39.8900   32.1590   46.8880 H   0  0  0  0  0  0  0  0  0  0  0  0
  2  1  1  0  0  0  0
  3 25  1  0  0  0  0
  3  2  2  0  0  0  0
  4  3  1  0  0  0  0
  5  4  2  0  0  0  0
  5  6  1  0  0  0  0
  6  7  2  0  0  0  0
  7  2  1  0  0  0  0
  7 10  1  0  0  0  0
  8  4  1  0  0  0  0
  9  6  1  0  0  0  0
 11  5  1  0  0  0  0
 12 11  1  0  0  0  0
 13 12  2  0  0  0  0
 14 13  1  0  0  0  0
 15 13  1  0  0  0  0
 15 17  1  0  0  0  0
 16 15  2  0  0  0  0
 17 18  1  0  0  0  0
 18 11  1  0  0  0  0
 18 19  2  0  0  0  0
 20 17  1  0  0  0  0
 21 27  1  0  0  0  0
 22 21  2  0  0  0  0
 23 22  1  0  0  0  0
 24 23  2  0  0  0  0
 24 25  1  0  0  0  0
 25 26  2  0  0  0  0
 26 21  1  0  0  0  0
 28 22  1  0  0  0  0
 29 23  1  0  0  0  0
M  END
>  <minimizedAffinity>
-5.77847767

>  <minimizedRMSD>
1.01726687

$$$$
