
 OpenBabel03272510163D

 29 31  0  0  0  0  0  0  0  0999 V2000
   37.1770   29.3710   51.0480 Br  0  0  0  0  0  0  0  0  0  0  0  0
   35.9040   29.3390   49.6290 C   0  0  0  0  0  0  0  0  0  0  0  0
   35.9840   30.2350   48.5840 C   0  0  0  0  0  0  0  0  0  0  0  0
   35.0200   30.1450   47.5930 C   0  0  0  0  0  0  0  0  0  0  0  0
   33.9970   29.2030   47.6150 C   0  0  0  0  0  0  0  0  0  0  0  0
   33.9590   28.3360   48.6750 C   0  0  0  0  0  0  0  0  0  0  0  0
   34.9080   28.4080   49.6700 C   0  0  0  0  0  0  0  0  0  0  0  0
   35.1310   30.8800   46.7870 H   0  0  0  0  0  0  0  0  0  0  0  0
   33.1470   27.6260   48.6460 H   0  0  0  0  0  0  0  0  0  0  0  0
   34.8030   27.6820   50.4730 H   0  0  0  0  0  0  0  0  0  0  0  0
   33.1130   29.2810   46.5020 N   0  0  0  0  0  0  0  0  0  0  0  0
   32.2460   30.2550   46.1860 C   0  0  0  0  0  3  0  0  0  0  0  0
   31.4840   30.1100   45.0450 C   0  0  0  0  0  0  0  0  0  0  0  0
   30.7920   30.9200   44.8200 H   0  0  0  0  0  0  0  0  0  0  0  0
   31.6050   28.9850   44.2350 C   0  0  0  0  0  0  0  0  0  0  0  0
   30.8880   28.8840   43.1920 O   0  0  0  0  0  0  0  0  0  0  0  0
   32.4910   28.0330   44.5960 N   0  0  0  0  0  0  0  0  0  0  0  0
   33.2360   28.1750   45.7130 C   0  0  0  0  0  0  0  0  0  0  0  0
   34.0100   27.2040   45.9080 O   0  0  0  0  0  0  0  0  0  0  0  0
   32.5430   27.2070   43.9530 H   0  0  0  0  0  0  0  0  0  0  0  0
   38.0000   33.1510   49.4210 C   0  0  0  0  0  0  0  0  0  0  0  0
   39.0320   33.1340   48.4630 C   0  0  0  0  0  0  0  0  0  0  0  0
   39.0220   32.1090   47.5290 C   0  0  0  0  0  0  0  0  0  0  0  0
   38.0230   31.1750   47.5850 N   0  0  0  0  0  0  0  0  0  0  0  0
   37.0430   31.2310   48.5320 C   0  0  0  0  0  0  0  0  0  0  0  0
   37.0420   32.2170   49.4390 N   0  0  0  0  0  0  0  0  0  0  0  0
   38.0630   33.9730   50.1190 H   0  0  0  0  0  0  0  0  0  0  0  0
   39.8360   33.8150   48.3520 H   0  0  0  0  0  0  0  0  0  0  0  0
   39.7130   31.9180   46.7200 H   0  0  0  0  0  0  0  0  0  0  0  0
  2  7  1  0  0  0  0
  2  1  1  0  0  0  0
  3  2  2  0  0  0  0
  4  5  2  0  0  0  0
  4  3  1  0  0  0  0
  5  6  1  0  0  0  0
  6  7  2  0  0  0  0
  7 10  1  0  0  0  0
  8  4  1  0  0  0  0
  9  6  1  0  0  0  0
 11  5  1  0  0  0  0
 12 11  1  0  0  0  0
 13 12  2  0  0  0  0
 14 13  1  0  0  0  0
 15 17  1  0  0  0  0
 15 13  1  0  0  0  0
 16 15  2  0  0  0  0
 17 18  1  0  0  0  0
 18 19  2  0  0  0  0
 18 11  1  0  0  0  0
 20 17  1  0  0  0  0
 21 26  1  0  0  0  0
 21 27  1  0  0  0  0
 22 21  2  0  0  0  0
 23 24  2  0  0  0  0
 23 22  1  0  0  0  0
 24 25  1  0  0  0  0
 25  3  1  0  0  0  0
 25 26  2  0  0  0  0
 28 22  1  0  0  0  0
 29 23  1  0  0  0  0
M  END
>  <minimizedAffinity>
-5.84356928

>  <minimizedRMSD>
0.45133552

$$$$
