
 OpenBabel03272509433D

 39 41  0  0  1  0  0  0  0  0999 V2000
   37.1580   30.9150   49.0530 C   0  0  0  0  0  0  0  0  0  0  0  0
   36.9140   31.8770   50.0340 C   0  0  0  0  0  0  0  0  0  0  0  0
   37.4840   33.1370   49.9880 C   0  0  0  0  0  0  0  0  0  0  0  0
   38.3380   33.4620   48.9230 C   0  0  0  0  0  0  0  0  0  0  0  0
   38.5680   32.5090   47.9680 C   0  0  0  0  0  0  0  0  0  0  0  0
   37.9760   31.2570   48.0510 C   0  0  0  0  0  0  0  0  0  0  0  0
   36.2510   31.6120   50.8520 H   0  0  0  0  0  0  0  0  0  0  0  0
   37.2350   33.8010   50.7880 H   0  0  0  0  0  0  0  0  0  0  0  0
   38.7300   34.4520   48.9700 H   0  0  0  0  0  0  0  0  0  0  0  0
   39.2440   32.9080   47.2160 H   0  0  0  0  0  0  0  0  0  0  0  0
   36.5850   29.5890   49.1270 C   0  0  2  0  0  0  0  0  0  0  0  0
   37.0740   28.9990   48.2600 H   0  0  0  0  0  0  0  0  0  0  0  0
   33.6540   29.8100   46.9910 C   0  0  0  0  0  0  0  0  0  0  0  0
   32.9490   28.6540   47.2680 C   0  0  0  0  0  0  0  0  0  0  0  0
   33.4440   27.8060   48.2480 C   0  0  0  0  0  0  0  0  0  0  0  0
   34.6090   28.1430   48.9010 N   0  0  0  0  0  0  0  0  0  0  0  0
   35.2350   29.2590   48.5880 C   0  0  0  0  0  0  0  0  0  0  0  0
   34.7680   30.0940   47.6410 N   0  0  0  0  0  0  0  0  0  0  0  0
   33.2820   30.4760   46.2340 H   0  0  0  0  0  0  0  0  0  0  0  0
   32.0470   28.4730   46.7050 H   0  0  0  0  0  0  0  0  0  0  0  0
   32.9050   26.9100   48.4710 H   0  0  0  0  0  0  0  0  0  0  0  0
   37.0810   28.8890   50.0860 O   0  0  0  0  0  0  0  0  0  0  0  0
   36.7130   29.1410   50.9820 H   0  0  0  0  0  0  0  0  0  0  0  0
   38.3270   30.3400   46.9920 C   0  0  0  0  0  3  0  0  0  0  0  0
   38.7800   30.7270   45.7940 C   0  0  0  0  0  3  0  0  0  0  0  0
   39.2060   29.8800   44.6560 C   0  0  0  0  0  0  0  0  0  0  0  0
   38.3100   29.7450   43.9910 H   0  0  0  0  0  0  0  0  0  0  0  0
   39.4980   28.8790   44.9700 H   0  0  0  0  0  0  0  0  0  0  0  0
   40.4540   30.7410   43.6940 S   0  0  0  0  0  0  0  0  0  0  0  0
   39.0030   31.6330   39.2450 H   0  0  0  0  0  0  0  0  0  0  0  0
   39.1140   32.0150   40.2040 N   0  0  0  0  0  0  0  0  0  0  0  0
   39.6340   31.2750   41.2200 C   0  0  0  0  0  3  0  0  0  0  0  0
   39.7620   31.8320   42.4820 C   0  0  0  0  0  0  0  0  0  0  0  0
   39.3510   33.1360   42.6630 C   0  0  0  0  0  0  0  0  0  0  0  0
   39.4990   33.5670   43.8310 O   0  0  0  0  0  0  0  0  0  0  0  0
   38.8360   33.8740   41.6630 N   0  0  0  0  0  0  0  0  0  0  0  0
   38.7330   33.2840   40.4520 C   0  0  0  0  0  0  0  0  0  0  0  0
   38.2480   33.9550   39.4820 O   0  0  0  0  0  0  0  0  0  0  0  0
   38.5450   34.8500   41.8670 H   0  0  0  0  0  0  0  0  0  0  0  0
  1 11  1  0  0  0  0
  1  2  1  0  0  0  0
  2  7  1  0  0  0  0
  3  2  2  0  0  0  0
  3  8  1  0  0  0  0
  4  9  1  0  0  0  0
  4  3  1  0  0  0  0
  5  6  1  0  0  0  0
  5  4  2  0  0  0  0
  6  1  2  0  0  0  0
 10  5  1  0  0  0  0
 11 12  1  6  0  0  0
 11 22  1  0  0  0  0
 13 14  2  0  0  0  0
 13 18  1  0  0  0  0
 14 15  1  0  0  0  0
 15 21  1  0  0  0  0
 15 16  2  0  0  0  0
 17 16  1  0  0  0  0
 17 11  1  0  0  0  0
 18 17  2  0  0  0  0
 19 13  1  0  0  0  0
 20 14  1  0  0  0  0
 22 23  1  0  0  0  0
 24  6  1  0  0  0  0
 25 24  2  0  0  0  0
 26 28  1  0  0  0  0
 26 25  1  0  0  0  0
 27 26  1  0  0  0  0
 29 26  1  0  0  0  0
 30 31  1  0  0  0  0
 31 37  1  0  0  0  0
 31 32  1  0  0  0  0
 32 33  2  0  0  0  0
 33 34  1  0  0  0  0
 33 29  1  0  0  0  0
 34 35  2  0  0  0  0
 36 39  1  0  0  0  0
 36 34  1  0  0  0  0
 37 36  1  0  0  0  0
 38 37  2  0  0  0  0
M  END
>  <minimizedAffinity>
-6.15369892

>  <minimizedRMSD>
2.04080939

$$$$
