
     RDKit          3D

 37 40  0  0  0  0  0  0  0  0999 V2000
   38.9050   30.8877   45.7609 C   0  0  0  0  0  0  0  0  0  0  0  0
   40.1118   31.5224   46.0222 C   0  0  0  0  0  0  0  0  0  0  0  0
   40.9385   31.4608   44.9124 C   0  0  0  0  0  0  0  0  0  0  0  0
   40.1863   30.7775   44.0022 N   0  0  0  0  0  0  0  0  0  0  0  0
   39.0146   30.4514   44.5020 N   0  0  0  0  0  0  0  0  0  0  0  0
   37.7909   30.7470   46.6724 C   0  0  0  0  0  0  0  0  0  0  0  0
   38.0084   30.9693   48.0598 C   0  0  0  0  0  0  0  0  0  0  0  0
   36.9201   30.8275   48.9113 C   0  0  0  0  0  0  0  0  0  0  0  0
   35.7199   30.4881   48.3800 N   0  0  0  0  0  0  0  0  0  0  0  0
   35.5338   30.2803   47.0518 C   0  0  0  0  0  0  0  0  0  0  0  0
   36.5780   30.4133   46.2101 N   0  0  0  0  0  0  0  0  0  0  0  0
   37.1335   31.0582   50.3730 C   0  0  0  0  0  0  0  0  0  0  0  0
   36.6100   32.3032   50.6308 F   0  0  0  0  0  0  0  0  0  0  0  0
   36.4679   30.1266   51.1545 F   0  0  0  0  0  0  0  0  0  0  0  0
   38.4831   31.0813   50.7048 F   0  0  0  0  0  0  0  0  0  0  0  0
   40.5466   30.4160   42.6357 C   0  0  0  0  0  0  0  0  0  0  0  0
   40.1664   31.2262   41.5496 C   0  0  0  0  0  0  0  0  0  0  0  0
   40.5512   30.8351   40.2980 C   0  0  0  0  0  0  0  0  0  0  0  0
   41.3136   29.6353   40.1286 C   0  0  0  0  0  0  0  0  0  0  0  0
   41.4812   29.0458   41.8741 S   0  0  0  0  0  0  0  0  0  0  0  0
   40.3846   32.0000   46.9489 H   0  0  0  0  0  0  0  0  0  0  0  0
   41.9303   31.8328   44.7387 H   0  0  0  0  0  0  0  0  0  0  0  0
   39.0013   31.2392   48.4113 H   0  0  0  0  0  0  0  0  0  0  0  0
   34.5374   30.0129   46.7263 H   0  0  0  0  0  0  0  0  0  0  0  0
   39.5902   32.1358   41.6473 H   0  0  0  0  0  0  0  0  0  0  0  0
   40.3543   31.3259   39.3578 H   0  0  0  0  0  0  0  0  0  0  0  0
   41.8343   28.9840   39.0919 N   0  0  0  0  0  0  0  0  0  0  0  0
   42.3790   27.7620   39.2542 C   0  0  0  0  0  0  0  0  0  0  0  0
   42.9251   27.0822   38.1598 C   0  0  0  0  0  0  0  0  0  0  0  0
   43.3745   26.1066   38.2190 H   0  0  0  0  0  0  0  0  0  0  0  0
   42.8734   27.7232   36.9345 C   0  0  0  0  0  0  0  0  0  0  0  0
   43.3330   27.2181   35.8580 O   0  0  0  0  0  0  0  0  0  0  0  0
   42.3279   28.9486   36.7678 N   0  0  0  0  0  0  0  0  0  0  0  0
   41.8121   29.5587   37.8752 C   0  0  0  0  0  0  0  0  0  0  0  0
   41.3064   30.6963   37.7174 O   0  0  0  0  0  0  0  0  0  0  0  0
   42.4394   27.2235   40.2011 H   0  0  0  0  0  0  0  0  0  0  0  0
   42.2843   29.4404   35.8466 H   0  0  0  0  0  0  0  0  0  0  0  0
  1  2  1  0
  1  6  1  0
  3  2  2  0
  4  5  1  0
  4  3  1  0
  5  1  2  0
  6  7  2  0
  7  8  1  0
  8 12  1  0
  9  8  2  0
 10  9  1  0
 11  6  1  0
 11 10  2  0
 12 13  1  0
 12 15  1  0
 12 14  1  0
 16  4  1  0
 17 16  2  0
 18 17  1  0
 19 18  2  0
 19 20  1  0
 20 16  1  0
  2 21  1  0
  3 22  1  0
  7 23  1  0
 10 24  1  0
 17 25  1  0
 18 26  1  0
 27 28  1  0
 28 29  2  0
 29 30  1  0
 29 31  1  0
 31 32  2  0
 31 33  1  0
 33 34  1  0
 34 35  2  0
 34 27  1  0
 28 36  1  0
 33 37  1  0
 19 27  1  0
M  ISO  7  21  14  22  14  23  14  24  14  25  14  26  14  30  16
M  END
>  <DihAtoms>  (1) 
17,18,26,27

>  <DihDeg>  (1) 
143.1266493718325

$$$$
