
     RDKit          3D

 27 29  0  0  0  0  0  0  0  0999 V2000
   37.0129   31.1477   49.2408 C   0  0  0  0  0  0  0  0  0  0  0  0
   37.3205   32.4384   49.7096 C   0  0  0  0  0  0  0  0  0  0  0  0
   38.3011   33.1273   49.0175 C   0  0  0  0  0  0  0  0  0  0  0  0
   38.9052   32.5445   47.9475 N   0  0  0  0  0  0  0  0  0  0  0  0
   38.5830   31.2853   47.5154 C   0  0  0  0  0  0  0  0  0  0  0  0
   37.6181   30.5964   48.1903 N   0  0  0  0  0  0  0  0  0  0  0  0
   35.9281   30.3978   49.9731 C   0  0  1  0  0  0  0  0  0  0  0  0
   35.7951   28.9521   49.8480 C   0  0  1  0  0  0  0  0  0  0  0  0
   36.4710   29.4995   51.0778 C   0  0  0  0  0  0  0  0  0  0  0  0
   36.8427   32.9054   50.5590 H   0  0  0  0  0  0  0  0  0  0  0  0
   38.6189   34.1338   49.2939 H   0  0  0  0  0  0  0  0  0  0  0  0
   39.0981   30.8747   46.6577 H   0  0  0  0  0  0  0  0  0  0  0  0
   35.1220   31.1109   50.2836 H   0  0  0  0  0  0  0  0  0  0  0  0
   36.5346   28.4823   49.1335 H   0  0  0  0  0  0  0  0  0  0  0  0
   37.5711   29.4069   51.1975 H   0  0  0  0  0  0  0  0  0  0  0  0
   35.8803   29.4292   52.0097 H   0  0  0  0  0  0  0  0  0  0  0  0
   34.5537   28.2521   49.9304 N   0  0  0  0  0  0  0  0  0  0  0  0
   34.1833   27.3007   49.0262 C   0  0  0  0  0  0  0  0  0  0  0  0
   33.0050   26.6064   49.0669 C   0  0  0  0  0  0  0  0  0  0  0  0
   32.8059   25.8604   48.2877 H   0  0  0  0  0  0  0  0  0  0  0  0
   32.1288   26.8907   50.0987 C   0  0  0  0  0  0  0  0  0  0  0  0
   31.0373   26.2683   50.1625 O   0  0  0  0  0  0  0  0  0  0  0  0
   32.4765   27.8387   51.0161 N   0  0  0  0  0  0  0  0  0  0  0  0
   33.6614   28.4848   50.9100 C   0  0  0  0  0  0  0  0  0  0  0  0
   33.8727   29.3228   51.7951 O   0  0  0  0  0  0  0  0  0  0  0  0
   34.8932   27.0980   48.2248 H   0  0  0  0  0  0  0  0  0  0  0  0
   31.7698   27.9851   51.7445 H   0  0  0  0  0  0  0  0  0  0  0  0
  1  2  2  0
  1  7  1  0
  3  2  1  0
  4  3  2  0
  5  4  1  0
  5  6  2  0
  6  1  1  0
  7  9  1  0
  8  7  1  0
  8  9  1  0
  2 10  1  0
  3 11  1  0
  5 12  1  0
  7 13  1  1
  8 14  1  6
  9 15  1  0
  9 16  1  0
 17 18  1  0
 18 19  2  0
 19 20  1  0
 19 21  1  0
 21 22  2  0
 21 23  1  0
 23 24  1  0
 24 25  2  0
 24 17  1  0
 18 26  1  0
 23 27  1  0
  8 17  1  0
M  ISO  8  10  14  11  14  12  14  13  13  14  13  15  13  16  13  20  16
M  END
>  <DihAtoms>  (1) 
6,7,16,17

>  <DihDeg>  (1) 
147.5212841176068

$$$$
