
 OpenBabel03272507333D

 37 40  0  0  1  0  0  0  0  0999 V2000
   33.1020   27.4670   48.1940 C   0  0  0  0  0  0  0  0  0  0  0  0
   31.8650   27.4120   48.5030 O   0  0  0  0  0  0  0  0  0  0  0  0
   35.8300   29.1280   49.8000 C   0  0  0  0  0  0  0  0  0  0  0  0
   34.7970   29.6310   50.5630 C   0  0  0  0  0  0  0  0  0  0  0  0
   33.6050   29.0820   50.0710 C   0  0  0  0  0  0  0  0  0  0  0  0
   33.9950   28.2700   49.0290 C   0  0  0  0  0  0  0  0  0  0  0  0
   35.3040   28.3280   48.9070 O   0  0  0  0  0  0  0  0  0  0  0  0
   34.8390   30.3310   51.4060 H   0  0  0  0  0  0  0  0  0  0  0  0
   32.6180   29.2870   50.4640 H   0  0  0  0  0  0  0  0  0  0  0  0
   37.2170   29.4900   50.0370 C   0  0  0  0  0  0  0  0  0  0  0  0
   37.8570   28.8930   50.9150 O   0  0  0  0  0  0  0  0  0  0  0  0
   37.7660   30.5400   49.2210 C   0  0  0  0  0  0  0  0  0  0  0  0
   38.1010   31.7280   49.8560 C   0  0  0  0  0  0  0  0  0  0  0  0
   38.6340   32.7650   49.0880 C   0  0  0  0  0  0  0  0  0  0  0  0
   38.7970   32.5480   47.7370 N   0  0  0  0  0  0  0  0  0  0  0  0
   38.4650   31.3940   47.1610 C   0  0  0  0  0  0  0  0  0  0  0  0
   37.9520   30.3890   47.8890 N   0  0  0  0  0  0  0  0  0  0  0  0
   37.9610   31.8650   50.9130 H   0  0  0  0  0  0  0  0  0  0  0  0
   38.8950   33.6900   49.5810 H   0  0  0  0  0  0  0  0  0  0  0  0
   38.6250   31.3060   46.0970 H   0  0  0  0  0  0  0  0  0  0  0  0
   33.6320   26.7180   47.0060 C   0  0  1  0  0  0  0  0  0  0  0  0
   33.7700   25.1840   47.3600 C   0  0  0  0  0  0  0  0  0  0  0  0
   32.8240   25.6970   46.3430 C   0  0  2  0  0  0  0  0  0  0  0  0
   34.6140   27.0820   46.6390 H   0  0  0  0  0  0  0  0  0  0  0  0
   33.4240   24.8660   48.3400 H   0  0  0  0  0  0  0  0  0  0  0  0
   34.6800   24.6870   46.9940 H   0  0  0  0  0  0  0  0  0  0  0  0
   31.7510   25.6650   46.6980 H   0  0  0  0  0  0  0  0  0  0  0  0
   32.9840   25.5190   44.9360 N   0  0  0  0  0  0  0  0  0  0  0  0
   34.0380   26.0790   44.2670 C   0  0  0  0  0  3  0  0  0  0  0  0
   34.2000   25.9130   42.9070 C   0  0  0  0  0  0  0  0  0  0  0  0
   35.0780   26.4120   42.5020 H   0  0  0  0  0  0  0  0  0  0  0  0
   33.3080   25.1740   42.1580 C   0  0  0  0  0  0  0  0  0  0  0  0
   33.5850   25.1110   40.9330 O   0  0  0  0  0  0  0  0  0  0  0  0
   32.2750   24.6270   42.8240 N   0  0  0  0  0  0  0  0  0  0  0  0
   32.1550   24.8140   44.1500 C   0  0  0  0  0  0  0  0  0  0  0  0
   31.1570   24.2550   44.6480 O   0  0  0  0  0  0  0  0  0  0  0  0
   31.6200   24.0770   42.2370 H   0  0  0  0  0  0  0  0  0  0  0  0
  1  2  2  0  0  0  0
  1  6  1  0  0  0  0
  3 10  1  0  0  0  0
  3  4  2  0  0  0  0
  4  8  1  0  0  0  0
  5  9  1  0  0  0  0
  5  4  1  0  0  0  0
  6  5  2  0  0  0  0
  7  6  1  0  0  0  0
  7  3  1  0  0  0  0
 10 11  2  0  0  0  0
 12 13  1  0  0  0  0
 12 10  1  0  0  0  0
 13 18  1  0  0  0  0
 14 19  1  0  0  0  0
 14 13  2  0  0  0  0
 15 14  1  0  0  0  0
 16 15  2  0  0  0  0
 16 17  1  0  0  0  0
 17 12  2  0  0  0  0
 20 16  1  0  0  0  0
 21 24  1  6  0  0  0
 21 22  1  0  0  0  0
 21  1  1  0  0  0  0
 22 25  1  0  0  0  0
 23 27  1  1  0  0  0
 23 21  1  0  0  0  0
 23 22  1  0  0  0  0
 26 22  1  0  0  0  0
 28 23  1  0  0  0  0
 29 28  1  0  0  0  0
 30 29  2  0  0  0  0
 31 30  1  0  0  0  0
 32 34  1  0  0  0  0
 32 30  1  0  0  0  0
 33 32  2  0  0  0  0
 34 35  1  0  0  0  0
 35 36  2  0  0  0  0
 35 28  1  0  0  0  0
 37 34  1  0  0  0  0
M  END
>  <minimizedAffinity>
-4.8907094

>  <minimizedRMSD>
0.164848715

$$$$
