
 OpenBabel03272508473D

 41 45  0  0  0  0  0  0  0  0999 V2000
   35.5230   29.5680   49.6670 C   0  0  0  0  0  0  0  0  0  0  0  0
   36.5480   29.2350   50.5270 C   0  0  0  0  0  0  0  0  0  0  0  0
   37.6820   29.7420   49.9000 C   0  0  0  0  0  0  0  0  0  0  0  0
   37.3110   30.3400   48.7260 C   0  0  0  0  0  0  0  0  0  0  0  0
   35.9960   30.2200   48.6100 O   0  0  0  0  0  0  0  0  0  0  0  0
   36.5340   28.7110   51.4690 H   0  0  0  0  0  0  0  0  0  0  0  0
   38.7000   29.7050   50.2250 H   0  0  0  0  0  0  0  0  0  0  0  0
   38.6210   32.2840   48.0040 C   0  0  0  0  0  0  0  0  0  0  0  0
   38.1820   30.9990   47.7560 C   0  0  0  0  0  0  0  0  0  0  0  0
   38.5460   30.3070   46.6020 C   0  0  0  0  0  0  0  0  0  0  0  0
   39.3700   30.9110   45.6690 C   0  0  0  0  0  0  0  0  0  0  0  0
   39.8930   30.5260   44.4830 N   0  0  0  0  0  0  0  0  0  0  0  0
   40.6240   31.5470   44.0280 N   0  0  0  0  0  0  0  0  0  0  0  0
   40.5790   32.5670   44.8940 C   0  0  0  0  0  0  0  0  0  0  0  0
   39.7820   32.1950   45.9620 C   0  0  0  0  0  0  0  0  0  0  0  0
   39.4560   32.9190   47.0750 C   0  0  0  0  0  0  0  0  0  0  0  0
   38.3450   32.8290   48.8940 H   0  0  0  0  0  0  0  0  0  0  0  0
   38.1980   29.2870   46.4070 H   0  0  0  0  0  0  0  0  0  0  0  0
   39.7080   29.5720   44.0600 H   0  0  0  0  0  0  0  0  0  0  0  0
   41.1110   33.4900   44.7030 H   0  0  0  0  0  0  0  0  0  0  0  0
   39.8160   33.9260   47.2410 H   0  0  0  0  0  0  0  0  0  0  0  0
   34.1130   29.2440   49.8930 C   0  0  0  0  0  0  0  0  0  0  0  0
   33.5330   29.7970   50.8490 O   0  0  0  0  0  0  0  0  0  0  0  0
   31.4620   27.2080   48.4370 C   0  0  0  0  0  0  0  0  0  0  0  0
   32.0990   26.5440   47.4010 C   0  0  0  0  0  0  0  0  0  0  0  0
   33.4370   26.7840   47.1890 C   0  0  0  0  0  0  0  0  0  0  0  0
   34.0730   27.6590   48.0030 N   0  0  0  0  0  0  0  0  0  0  0  0
   33.4380   28.2980   49.0100 C   0  0  0  0  0  0  0  0  0  0  0  0
   32.1320   28.0670   49.2200 N   0  0  0  0  0  0  0  0  0  0  0  0
   30.4020   27.0160   48.6020 H   0  0  0  0  0  0  0  0  0  0  0  0
   31.5230   25.8520   46.7850 H   0  0  0  0  0  0  0  0  0  0  0  0
   34.0980   26.1050   46.1260 N   0  0  0  0  0  0  0  0  0  0  0  0
   34.5710   24.8480   46.2820 C   0  0  0  0  0  3  0  0  0  0  0  0
   35.2210   24.1830   45.2360 C   0  0  0  0  0  0  0  0  0  0  0  0
   35.6000   23.1760   45.3620 H   0  0  0  0  0  0  0  0  0  0  0  0
   35.3450   24.8870   44.0490 C   0  0  0  0  0  0  0  0  0  0  0  0
   35.9300   24.3210   43.0650 O   0  0  0  0  0  0  0  0  0  0  0  0
   34.8550   26.1560   43.9260 N   0  0  0  0  0  0  0  0  0  0  0  0
   34.2380   26.7570   44.9560 C   0  0  0  0  0  0  0  0  0  0  0  0
   33.8300   27.9230   44.7230 O   0  0  0  0  0  0  0  0  0  0  0  0
   34.9890   26.6300   42.9840 H   0  0  0  0  0  0  0  0  0  0  0  0
  1 22  1  0  0  0  0
  1  2  2  0  0  0  0
  2  6  1  0  0  0  0
  3  7  1  0  0  0  0
  3  2  1  0  0  0  0
  4  3  2  0  0  0  0
  5  4  1  0  0  0  0
  5  1  1  0  0  0  0
  8 17  1  0  0  0  0
  9  8  1  0  0  0  0
  9  4  1  0  0  0  0
 10  9  2  0  0  0  0
 11 15  2  0  0  0  0
 11 10  1  0  0  0  0
 12 11  1  0  0  0  0
 13 12  1  0  0  0  0
 13 14  2  0  0  0  0
 14 15  1  0  0  0  0
 15 16  1  0  0  0  0
 16 21  1  0  0  0  0
 16  8  2  0  0  0  0
 18 10  1  0  0  0  0
 19 12  1  0  0  0  0
 20 14  1  0  0  0  0
 22 23  2  0  0  0  0
 24 30  1  0  0  0  0
 24 29  1  0  0  0  0
 25 24  2  0  0  0  0
 26 25  1  0  0  0  0
 26 27  2  0  0  0  0
 27 28  1  0  0  0  0
 28 29  2  0  0  0  0
 28 22  1  0  0  0  0
 31 25  1  0  0  0  0
 32 33  1  0  0  0  0
 32 26  1  0  0  0  0
 34 35  1  0  0  0  0
 34 33  2  0  0  0  0
 36 34  1  0  0  0  0
 37 36  2  0  0  0  0
 38 36  1  0  0  0  0
 38 39  1  0  0  0  0
 39 32  1  0  0  0  0
 40 39  2  0  0  0  0
 41 38  1  0  0  0  0
M  END
>  <minimizedAffinity>
-6.6944499

>  <minimizedRMSD>
0.678244293

$$$$
