
 OpenBabel03272509433D

 39 41  0  0  1  0  0  0  0  0999 V2000
   37.0430   30.9380   49.0190 C   0  0  0  0  0  0  0  0  0  0  0  0
   36.7530   31.8500   50.0360 C   0  0  0  0  0  0  0  0  0  0  0  0
   37.3540   33.0950   50.1020 C   0  0  0  0  0  0  0  0  0  0  0  0
   38.2860   33.4570   49.1180 C   0  0  0  0  0  0  0  0  0  0  0  0
   38.5600   32.5530   48.1270 C   0  0  0  0  0  0  0  0  0  0  0  0
   37.9350   31.3150   48.0970 C   0  0  0  0  0  0  0  0  0  0  0  0
   36.0290   31.5560   50.7910 H   0  0  0  0  0  0  0  0  0  0  0  0
   37.0650   33.7180   50.9210 H   0  0  0  0  0  0  0  0  0  0  0  0
   38.6960   34.4310   49.2490 H   0  0  0  0  0  0  0  0  0  0  0  0
   39.2950   32.9760   47.4470 H   0  0  0  0  0  0  0  0  0  0  0  0
   36.4350   29.6260   48.9780 C   0  0  2  0  0  0  0  0  0  0  0  0
   36.9450   29.0850   48.0900 H   0  0  0  0  0  0  0  0  0  0  0  0
   33.6410   30.0070   46.6860 C   0  0  0  0  0  0  0  0  0  0  0  0
   32.8610   28.8910   46.9210 C   0  0  0  0  0  0  0  0  0  0  0  0
   33.2550   28.0160   47.9230 C   0  0  0  0  0  0  0  0  0  0  0  0
   34.4000   28.2890   48.6390 N   0  0  0  0  0  0  0  0  0  0  0  0
   35.1010   29.3700   48.3640 C   0  0  0  0  0  0  0  0  0  0  0  0
   34.7320   30.2300   47.3970 N   0  0  0  0  0  0  0  0  0  0  0  0
   33.3480   30.6930   45.9130 H   0  0  0  0  0  0  0  0  0  0  0  0
   31.9820   28.7600   46.3080 H   0  0  0  0  0  0  0  0  0  0  0  0
   32.6580   27.1510   48.1130 H   0  0  0  0  0  0  0  0  0  0  0  0
   36.8760   28.8480   49.9030 O   0  0  0  0  0  0  0  0  0  0  0  0
   36.4780   29.0460   50.8000 H   0  0  0  0  0  0  0  0  0  0  0  0
   38.3380   30.4500   47.0120 C   0  0  0  0  0  3  0  0  0  0  0  0
   38.9180   30.8880   45.8890 C   0  0  0  0  0  3  0  0  0  0  0  0
   39.4050   30.0940   44.7380 C   0  0  0  0  0  0  0  0  0  0  0  0
   38.8960   29.0930   44.7880 H   0  0  0  0  0  0  0  0  0  0  0  0
   40.4730   29.8900   44.7960 H   0  0  0  0  0  0  0  0  0  0  0  0
   38.8890   30.8740   43.2040 S   0  0  0  0  0  0  0  0  0  0  0  0
   35.3010   34.0100   43.1870 H   0  0  0  0  0  0  0  0  0  0  0  0
   35.5640   33.0060   43.1670 N   0  0  0  0  0  0  0  0  0  0  0  0
   36.8600   32.5960   43.1930 C   0  0  0  0  0  3  0  0  0  0  0  0
   37.1570   31.2430   43.1660 C   0  0  0  0  0  0  0  0  0  0  0  0
   36.1080   30.3480   43.1130 C   0  0  0  0  0  0  0  0  0  0  0  0
   36.4570   29.1440   43.0920 O   0  0  0  0  0  0  0  0  0  0  0  0
   34.8240   30.7450   43.0880 N   0  0  0  0  0  0  0  0  0  0  0  0
   34.5890   32.0760   43.1160 C   0  0  0  0  0  0  0  0  0  0  0  0
   33.3820   32.4860   43.0920 O   0  0  0  0  0  0  0  0  0  0  0  0
   34.0810   30.0200   43.0470 H   0  0  0  0  0  0  0  0  0  0  0  0
  1  2  1  0  0  0  0
  2  3  2  0  0  0  0
  2  7  1  0  0  0  0
  3  8  1  0  0  0  0
  4  9  1  0  0  0  0
  4  3  1  0  0  0  0
  5  4  2  0  0  0  0
  6  5  1  0  0  0  0
  6  1  2  0  0  0  0
 10  5  1  0  0  0  0
 11 12  1  6  0  0  0
 11  1  1  0  0  0  0
 11 22  1  0  0  0  0
 13 14  2  0  0  0  0
 13 18  1  0  0  0  0
 14 15  1  0  0  0  0
 15 21  1  0  0  0  0
 15 16  2  0  0  0  0
 17 16  1  0  0  0  0
 17 11  1  0  0  0  0
 18 17  2  0  0  0  0
 19 13  1  0  0  0  0
 20 14  1  0  0  0  0
 22 23  1  0  0  0  0
 24  6  1  0  0  0  0
 25 24  2  0  0  0  0
 26 27  1  0  0  0  0
 26 28  1  0  0  0  0
 26 25  1  0  0  0  0
 29 26  1  0  0  0  0
 31 30  1  0  0  0  0
 31 32  1  0  0  0  0
 33 32  2  0  0  0  0
 33 29  1  0  0  0  0
 34 33  1  0  0  0  0
 35 34  2  0  0  0  0
 36 34  1  0  0  0  0
 36 37  1  0  0  0  0
 37 31  1  0  0  0  0
 38 37  2  0  0  0  0
 39 36  1  0  0  0  0
M  END
>  <minimizedAffinity>
-5.9947176

>  <minimizedRMSD>
0.586881042

$$$$
