REMARK  Name = 
REMARK  5 active torsions:
REMARK  status: ('A' for Active; 'I' for Inactive)
REMARK    1  A    between atoms: C_1  and  C_8
REMARK    2  A    between atoms: C_3  and  N_12
REMARK    3  A    between atoms: C_10  and  C_13
REMARK    4  A    between atoms: C_17  and  C_19
REMARK    5  A    between atoms: C_19  and  C_35
REMARK                            x       y       z     vdW  Elec       q    Type
REMARK                         _______ _______ _______ _____ _____    ______ ____
ROOT
ATOM      1  C   UNL     1      39.143  31.500  43.294  0.00  0.00    +0.000 A 
ATOM      2  C   UNL     1      40.146  30.581  43.449  0.00  0.00    +0.000 A 
ATOM      3  C   UNL     1      40.863  30.232  42.310  0.00  0.00    +0.000 A 
ATOM      4  C   UNL     1      40.521  30.826  41.114  0.00  0.00    +0.000 A 
ATOM      5  C   UNL     1      39.507  31.751  40.969  0.00  0.00    +0.000 A 
ATOM      6  N   UNL     1      38.829  32.069  42.101  0.00  0.00    +0.000 NA
ATOM      7  H   UNL     1      40.398  30.126  44.400  0.00  0.00    +0.000 HD
ATOM      8  H   UNL     1      41.659  29.522  42.356  0.00  0.00    +0.000 HD
ATOM      9  H   UNL     1      41.096  30.534  40.251  0.00  0.00    +0.000 HD
ENDROOT
BRANCH   1  10
ATOM     10  C   UNL     1      38.356  31.911  44.482  0.00  0.00    +0.000 C 
ATOM     11  O   UNL     1      37.249  32.452  44.389  0.00  0.00    +0.000 OA
ATOM     12  N   UNL     1      38.949  31.649  45.786  0.00  0.00    +0.000 N 
ATOM     13  H   UNL     1      39.947  31.400  45.933  0.00  0.00    +0.000 HD
BRANCH  12  16
ATOM     14  C   UNL     1      38.450  31.110  48.167  0.00  0.00    +0.000 C 
ATOM     15  C   UNL     1      38.709  32.572  48.096  0.00  0.00    +0.000 C 
ATOM     16  C   UNL     1      38.087  31.744  46.942  0.00  0.00    +0.000 C 
ATOM     17  H   UNL     1      39.385  30.516  48.255  0.00  0.00    +0.000 HD
ATOM     18  H   UNL     1      38.033  33.273  48.631  0.00  0.00    +0.000 HD
ATOM     19  H   UNL     1      39.720  32.954  47.964  0.00  0.00    +0.000 HD
ATOM     20  H   UNL     1      36.999  31.992  46.750  0.00  0.00    +0.000 HD
BRANCH  14  25
ATOM     21  C   UNL     1      35.084  30.276  49.498  0.00  0.00    +0.000 A 
ATOM     22  C   UNL     1      35.410  29.565  50.688  0.00  0.00    +0.000 A 
ATOM     23  C   UNL     1      36.802  29.389  51.021  0.00  0.00    +0.000 A 
ATOM     24  N   UNL     1      37.766  29.907  50.187  0.00  0.00    +0.000 NA
ATOM     25  C   UNL     1      37.364  30.575  49.068  0.00  0.00    +0.000 A 
ATOM     26  N   UNL     1      36.041  30.779  48.690  0.00  0.00    +0.000 NA
ATOM     27  H   UNL     1      34.047  30.396  49.269  0.00  0.00    +0.000 HD
ATOM     28  H   UNL     1      34.669  29.163  51.333  0.00  0.00    +0.000 HD
ATOM     29  H   UNL     1      37.057  28.850  51.922  0.00  0.00    +0.000 HD
ENDBRANCH  14  25
ENDBRANCH  12  16
ENDBRANCH   1  10
BRANCH   5  30
ATOM     30  C   UNL     1      39.189  32.333  39.678  0.00  0.00    +0.000 C 
ATOM     31  O   UNL     1      38.788  33.512  39.603  0.00  0.00    +0.000 OA
BRANCH  30  35
ATOM     32  H   UNL     1      41.385  29.257  37.171  0.00  0.00    +0.000 HD
ATOM     33  N   UNL     1      40.547  29.866  37.303  0.00  0.00    +0.000 N 
ATOM     34  C   UNL     1      40.508  30.651  38.414  0.00  0.00    +0.000 A 
ATOM     35  C   UNL     1      39.380  31.438  38.544  0.00  0.00    +0.000 A 
ATOM     36  C   UNL     1      38.345  31.452  37.628  0.00  0.00    +0.000 A 
ATOM     37  O   UNL     1      37.332  32.158  37.743  0.00  0.00    +0.000 OA
ATOM     38  N   UNL     1      38.434  30.645  36.531  0.00  0.00    +0.000 N 
ATOM     39  C   UNL     1      39.544  29.870  36.403  0.00  0.00    +0.000 A 
ATOM     40  O   UNL     1      39.567  29.150  35.372  0.00  0.00    +0.000 OA
ATOM     41  H   UNL     1      37.661  30.650  35.839  0.00  0.00    +0.000 HD
ENDBRANCH  30  35
ENDBRANCH   5  30
TORSDOF 5
