
 OpenBabel03272501173D

 36 39  0  0  1  0  0  0  0  0999 V2000
   40.0600   25.2010   35.3060 C   0  0  0  0  0  0  0  0  0  0  0  0
   40.5490   25.2800   36.2790 H   0  0  0  0  0  0  0  0  0  0  0  0
   40.8400   24.9150   34.5590 H   0  0  0  0  0  0  0  0  0  0  0  0
   39.1080   24.0560   35.3760 C   0  0  0  0  0  0  0  0  0  0  0  0
   38.7250   23.4740   36.5610 C   0  0  0  0  0  0  0  0  0  0  0  0
   37.8660   22.4640   36.3690 N   0  0  0  0  0  0  0  0  0  0  0  0
   37.7060   22.4110   35.0180 C   0  0  0  0  0  0  0  0  0  0  0  0
   38.4510   23.3670   34.4260 N   0  0  0  0  0  0  0  0  0  0  0  0
   39.0570   23.7680   37.5610 H   0  0  0  0  0  0  0  0  0  0  0  0
   37.4100   21.8410   37.0810 H   0  0  0  0  0  0  0  0  0  0  0  0
   36.8690   21.4790   34.3370 N   0  0  0  0  0  0  0  0  0  0  0  0
   37.1040   21.4570   32.9930 C   0  0  0  0  0  3  0  0  0  0  0  0
   36.3970   20.6230   32.1690 C   0  0  0  0  0  0  0  0  0  0  0  0
   36.5510   20.5710   31.0820 H   0  0  0  0  0  0  0  0  0  0  0  0
   35.4380   19.8000   32.7260 C   0  0  0  0  0  0  0  0  0  0  0  0
   34.7600   19.0160   32.0230 O   0  0  0  0  0  0  0  0  0  0  0  0
   35.2340   19.8480   34.0440 N   0  0  0  0  0  0  0  0  0  0  0  0
   35.9290   20.6670   34.8560 C   0  0  0  0  0  0  0  0  0  0  0  0
   35.7940   20.7680   36.1070 O   0  0  0  0  0  0  0  0  0  0  0  0
   34.5110   19.2340   34.5050 H   0  0  0  0  0  0  0  0  0  0  0  0
   37.9550   26.5420   34.8830 C   0  0  1  0  0  0  0  0  0  0  0  0
   39.3810   26.4900   34.9610 C   0  0  1  0  0  0  0  0  0  0  0  0
   38.6750   27.3190   35.9990 C   0  0  0  0  0  0  0  0  0  0  0  0
   37.3200   25.7050   35.2110 H   0  0  0  0  0  0  0  0  0  0  0  0
   39.9380   27.1410   34.2190 H   0  0  0  0  0  0  0  0  0  0  0  0
   38.6100   26.8130   36.9780 H   0  0  0  0  0  0  0  0  0  0  0  0
   38.6990   28.4160   35.9570 H   0  0  0  0  0  0  0  0  0  0  0  0
   37.2470   27.4800   33.9170 C   0  0  0  0  0  0  0  0  0  0  0  0
   37.7610   27.5190   32.6340 C   0  0  0  0  0  0  0  0  0  0  0  0
   37.0990   28.4190   31.7670 C   0  0  0  0  0  0  0  0  0  0  0  0
   36.0570   29.1570   32.2000 N   0  0  0  0  0  0  0  0  0  0  0  0
   35.5890   29.0790   33.4800 C   0  0  0  0  0  0  0  0  0  0  0  0
   36.2000   28.2190   34.3590 N   0  0  0  0  0  0  0  0  0  0  0  0
   38.5910   26.9040   32.3610 H   0  0  0  0  0  0  0  0  0  0  0  0
   37.4520   28.4910   30.7670 H   0  0  0  0  0  0  0  0  0  0  0  0
   34.7580   29.6570   33.8560 H   0  0  0  0  0  0  0  0  0  0  0  0
  1  4  1  0  0  0  0
  1  2  1  0  0  0  0
  3  1  1  0  0  0  0
  4  5  2  0  0  0  0
  5  9  1  0  0  0  0
  6  5  1  0  0  0  0
  6 10  1  0  0  0  0
  7  6  1  0  0  0  0
  8  7  2  0  0  0  0
  8  4  1  0  0  0  0
 11 18  1  0  0  0  0
 11  7  1  0  0  0  0
 12 11  1  0  0  0  0
 13 15  1  0  0  0  0
 13 12  2  0  0  0  0
 14 13  1  0  0  0  0
 15 17  1  0  0  0  0
 16 15  2  0  0  0  0
 17 20  1  0  0  0  0
 17 18  1  0  0  0  0
 18 19  2  0  0  0  0
 21 22  1  0  0  0  0
 21 24  1  1  0  0  0
 21 23  1  0  0  0  0
 22 25  1  6  0  0  0
 22  1  1  0  0  0  0
 22 23  1  0  0  0  0
 23 26  1  0  0  0  0
 27 23  1  0  0  0  0
 28 33  1  0  0  0  0
 28 21  1  0  0  0  0
 29 28  2  0  0  0  0
 30 31  2  0  0  0  0
 30 29  1  0  0  0  0
 31 32  1  0  0  0  0
 32 36  1  0  0  0  0
 32 33  2  0  0  0  0
 34 29  1  0  0  0  0
 35 30  1  0  0  0  0
M  END
>  <minimizedAffinity>
-6.11373377

$$$$

 OpenBabel03272501173D

 36 39  0  0  1  0  0  0  0  0999 V2000
   38.2040   26.8990   33.0400 C   0  0  0  0  0  0  0  0  0  0  0  0
   38.8610   27.7660   33.1400 H   0  0  0  0  0  0  0  0  0  0  0  0
   38.5490   26.3150   32.1520 H   0  0  0  0  0  0  0  0  0  0  0  0
   38.4310   26.0280   34.2280 C   0  0  0  0  0  0  0  0  0  0  0  0
   37.6610   26.0990   35.3650 C   0  0  0  0  0  0  0  0  0  0  0  0
   38.0580   25.2200   36.2950 N   0  0  0  0  0  0  0  0  0  0  0  0
   39.1120   24.5770   35.7220 C   0  0  0  0  0  0  0  0  0  0  0  0
   39.3330   25.0630   34.4840 N   0  0  0  0  0  0  0  0  0  0  0  0
   36.8180   26.7760   35.5320 H   0  0  0  0  0  0  0  0  0  0  0  0
   37.6630   25.0490   37.2530 H   0  0  0  0  0  0  0  0  0  0  0  0
   39.8660   23.5410   36.3470 N   0  0  0  0  0  0  0  0  0  0  0  0
   41.0250   23.2680   35.6800 C   0  0  0  0  0  3  0  0  0  0  0  0
   41.8840   22.3010   36.1290 C   0  0  0  0  0  0  0  0  0  0  0  0
   42.8280   22.0480   35.6250 H   0  0  0  0  0  0  0  0  0  0  0  0
   41.5550   21.6050   37.2750 C   0  0  0  0  0  0  0  0  0  0  0  0
   42.3010   20.7100   37.7340 O   0  0  0  0  0  0  0  0  0  0  0  0
   40.4140   21.8980   37.9020 N   0  0  0  0  0  0  0  0  0  0  0  0
   39.5670   22.8480   37.4630 C   0  0  0  0  0  0  0  0  0  0  0  0
   38.4750   23.1800   37.9990 O   0  0  0  0  0  0  0  0  0  0  0  0
   40.1300   21.3870   38.7800 H   0  0  0  0  0  0  0  0  0  0  0  0
   36.4800   28.6530   32.4410 C   0  0  1  0  0  0  0  0  0  0  0  0
   36.7790   27.3400   32.9180 C   0  0  1  0  0  0  0  0  0  0  0  0
   36.0880   27.4360   31.5860 C   0  0  0  0  0  0  0  0  0  0  0  0
   37.2540   29.3120   32.0160 H   0  0  0  0  0  0  0  0  0  0  0  0
   36.0830   26.9380   33.7180 H   0  0  0  0  0  0  0  0  0  0  0  0
   36.7730   27.2760   30.7360 H   0  0  0  0  0  0  0  0  0  0  0  0
   35.0250   27.1760   31.4810 H   0  0  0  0  0  0  0  0  0  0  0  0
   35.2550   29.4140   32.9250 C   0  0  0  0  0  0  0  0  0  0  0  0
   35.0180   29.3660   34.2860 C   0  0  0  0  0  0  0  0  0  0  0  0
   33.8580   30.0600   34.7020 C   0  0  0  0  0  0  0  0  0  0  0  0
   33.0780   30.7020   33.8090 N   0  0  0  0  0  0  0  0  0  0  0  0
   33.3590   30.7170   32.4730 C   0  0  0  0  0  0  0  0  0  0  0  0
   34.4760   30.0570   32.0220 N   0  0  0  0  0  0  0  0  0  0  0  0
   35.6810   28.8370   34.9360 H   0  0  0  0  0  0  0  0  0  0  0  0
   33.6260   30.0560   35.7390 H   0  0  0  0  0  0  0  0  0  0  0  0
   32.7550   31.2220   31.7350 H   0  0  0  0  0  0  0  0  0  0  0  0
  1  2  1  0  0  0  0
  1  4  1  0  0  0  0
  3  1  1  0  0  0  0
  4  8  1  0  0  0  0
  4  5  2  0  0  0  0
  5  9  1  0  0  0  0
  5  6  1  0  0  0  0
  6 10  1  0  0  0  0
  7  6  1  0  0  0  0
  7 11  1  0  0  0  0
  8  7  2  0  0  0  0
 11 18  1  0  0  0  0
 12 13  2  0  0  0  0
 12 11  1  0  0  0  0
 13 15  1  0  0  0  0
 14 13  1  0  0  0  0
 15 16  2  0  0  0  0
 15 17  1  0  0  0  0
 17 20  1  0  0  0  0
 18 17  1  0  0  0  0
 18 19  2  0  0  0  0
 21 24  1  6  0  0  0
 21 22  1  0  0  0  0
 21 28  1  0  0  0  0
 22  1  1  0  0  0  0
 22 25  1  1  0  0  0
 23 21  1  0  0  0  0
 23 22  1  0  0  0  0
 26 23  1  0  0  0  0
 27 23  1  0  0  0  0
 28 29  1  0  0  0  0
 29 30  2  0  0  0  0
 29 34  1  0  0  0  0
 30 35  1  0  0  0  0
 31 30  1  0  0  0  0
 32 31  2  0  0  0  0
 33 32  1  0  0  0  0
 33 28  2  0  0  0  0
 36 32  1  0  0  0  0
M  END
>  <minimizedAffinity>
-5.9705863

$$$$

 OpenBabel03272501173D

 36 39  0  0  1  0  0  0  0  0999 V2000
   37.4690   25.3080   32.0920 C   0  0  0  0  0  0  0  0  0  0  0  0
   36.7320   26.1050   32.2080 H   0  0  0  0  0  0  0  0  0  0  0  0
   38.3600   25.7450   31.5780 H   0  0  0  0  0  0  0  0  0  0  0  0
   37.9240   24.9170   33.4570 C   0  0  0  0  0  0  0  0  0  0  0  0
   37.4600   25.5220   34.6010 C   0  0  0  0  0  0  0  0  0  0  0  0
   38.0150   25.0020   35.7040 N   0  0  0  0  0  0  0  0  0  0  0  0
   38.8560   24.0400   35.2350 C   0  0  0  0  0  0  0  0  0  0  0  0
   38.7990   23.9910   33.8890 N   0  0  0  0  0  0  0  0  0  0  0  0
   36.7270   26.3320   34.6510 H   0  0  0  0  0  0  0  0  0  0  0  0
   37.8550   25.2620   36.7090 H   0  0  0  0  0  0  0  0  0  0  0  0
   39.6730   23.2080   36.0560 N   0  0  0  0  0  0  0  0  0  0  0  0
   40.6150   22.5340   35.3350 C   0  0  0  0  0  3  0  0  0  0  0  0
   41.4960   21.6840   35.9490 C   0  0  0  0  0  0  0  0  0  0  0  0
   42.2710   21.1210   35.4100 H   0  0  0  0  0  0  0  0  0  0  0  0
   41.4130   21.5230   37.3180 C   0  0  0  0  0  0  0  0  0  0  0  0
   42.1910   20.7600   37.9360 O   0  0  0  0  0  0  0  0  0  0  0  0
   40.4790   22.1970   37.9920 N   0  0  0  0  0  0  0  0  0  0  0  0
   39.6120   23.0330   37.3900 C   0  0  0  0  0  0  0  0  0  0  0  0
   38.7060   23.7040   37.9560 O   0  0  0  0  0  0  0  0  0  0  0  0
   40.3860   22.0990   39.0380 H   0  0  0  0  0  0  0  0  0  0  0  0
   36.0420   23.2190   32.0130 C   0  0  1  0  0  0  0  0  0  0  0  0
   36.8770   24.1600   31.3360 C   0  0  1  0  0  0  0  0  0  0  0  0
   35.4260   24.1330   30.9400 C   0  0  0  0  0  0  0  0  0  0  0  0
   35.6920   23.3820   33.0440 H   0  0  0  0  0  0  0  0  0  0  0  0
   37.5370   23.7330   30.5190 H   0  0  0  0  0  0  0  0  0  0  0  0
   34.8490   24.9680   31.3740 H   0  0  0  0  0  0  0  0  0  0  0  0
   35.1100   23.6970   29.9830 H   0  0  0  0  0  0  0  0  0  0  0  0
   35.9930   21.7570   31.5960 C   0  0  0  0  0  0  0  0  0  0  0  0
   35.0200   20.9900   32.2090 C   0  0  0  0  0  0  0  0  0  0  0  0
   35.0170   19.6310   31.8210 C   0  0  0  0  0  0  0  0  0  0  0  0
   35.9080   19.1650   30.9230 N   0  0  0  0  0  0  0  0  0  0  0  0
   36.8510   19.9680   30.3470 C   0  0  0  0  0  0  0  0  0  0  0  0
   36.8920   21.2960   30.6930 N   0  0  0  0  0  0  0  0  0  0  0  0
   34.3460   21.4280   32.9130 H   0  0  0  0  0  0  0  0  0  0  0  0
   34.2890   18.9930   32.2620 H   0  0  0  0  0  0  0  0  0  0  0  0
   37.5770   19.6250   29.6260 H   0  0  0  0  0  0  0  0  0  0  0  0
  1  2  1  0  0  0  0
  1  4  1  0  0  0  0
  3  1  1  0  0  0  0
  4  8  1  0  0  0  0
  4  5  2  0  0  0  0
  5  9  1  0  0  0  0
  5  6  1  0  0  0  0
  6 10  1  0  0  0  0
  7  6  1  0  0  0  0
  7 11  1  0  0  0  0
  8  7  2  0  0  0  0
 11 18  1  0  0  0  0
 12 13  2  0  0  0  0
 12 11  1  0  0  0  0
 13 15  1  0  0  0  0
 14 13  1  0  0  0  0
 15 16  2  0  0  0  0
 15 17  1  0  0  0  0
 17 20  1  0  0  0  0
 18 19  2  0  0  0  0
 18 17  1  0  0  0  0
 21 24  1  1  0  0  0
 22 25  1  6  0  0  0
 22 21  1  0  0  0  0
 22  1  1  0  0  0  0
 23 22  1  0  0  0  0
 23 26  1  0  0  0  0
 23 21  1  0  0  0  0
 27 23  1  0  0  0  0
 28 21  1  0  0  0  0
 28 29  1  0  0  0  0
 29 34  1  0  0  0  0
 30 29  2  0  0  0  0
 30 35  1  0  0  0  0
 31 30  1  0  0  0  0
 32 33  1  0  0  0  0
 32 31  2  0  0  0  0
 33 28  2  0  0  0  0
 36 32  1  0  0  0  0
M  END
>  <minimizedAffinity>
-5.88052845

$$$$

 OpenBabel03272501173D

 36 39  0  0  1  0  0  0  0  0999 V2000
   37.3190   27.2360   33.4580 C   0  0  0  0  0  0  0  0  0  0  0  0
   36.8250   26.3950   32.9670 H   0  0  0  0  0  0  0  0  0  0  0  0
   38.1000   27.6240   32.7590 H   0  0  0  0  0  0  0  0  0  0  0  0
   36.3100   28.3240   33.6040 C   0  0  0  0  0  0  0  0  0  0  0  0
   35.3890   28.6230   32.6290 C   0  0  0  0  0  0  0  0  0  0  0  0
   34.5920   29.6400   32.9870 N   0  0  0  0  0  0  0  0  0  0  0  0
   35.0300   29.9890   34.2280 C   0  0  0  0  0  0  0  0  0  0  0  0
   36.0590   29.1990   34.5950 N   0  0  0  0  0  0  0  0  0  0  0  0
   35.2830   28.1190   31.6640 H   0  0  0  0  0  0  0  0  0  0  0  0
   33.8050   30.0820   32.4510 H   0  0  0  0  0  0  0  0  0  0  0  0
   34.4740   31.0370   35.0180 N   0  0  0  0  0  0  0  0  0  0  0  0
   35.2660   31.3610   36.0810 C   0  0  0  0  0  3  0  0  0  0  0  0
   34.8990   32.3470   36.9570 C   0  0  0  0  0  0  0  0  0  0  0  0
   35.5040   32.6420   37.8260 H   0  0  0  0  0  0  0  0  0  0  0  0
   33.7090   33.0130   36.7420 C   0  0  0  0  0  0  0  0  0  0  0  0
   33.3210   33.9250   37.5080 O   0  0  0  0  0  0  0  0  0  0  0  0
   32.9590   32.6710   35.6920 N   0  0  0  0  0  0  0  0  0  0  0  0
   33.3180   31.7010   34.8300 C   0  0  0  0  0  0  0  0  0  0  0  0
   32.6650   31.3240   33.8180 O   0  0  0  0  0  0  0  0  0  0  0  0
   32.0440   33.1580   35.4960 H   0  0  0  0  0  0  0  0  0  0  0  0
   38.7560   25.6710   34.8350 C   0  0  1  0  0  0  0  0  0  0  0  0
   37.8900   26.8060   34.7730 C   0  0  1  0  0  0  0  0  0  0  0  0
   39.3250   27.0680   35.1410 C   0  0  0  0  0  0  0  0  0  0  0  0
   39.1440   25.1810   33.9280 H   0  0  0  0  0  0  0  0  0  0  0  0
   37.2010   26.9470   35.6640 H   0  0  0  0  0  0  0  0  0  0  0  0
   39.9120   27.4800   34.3030 H   0  0  0  0  0  0  0  0  0  0  0  0
   39.6060   27.3150   36.1740 H   0  0  0  0  0  0  0  0  0  0  0  0
   38.7980   24.7700   36.0590 C   0  0  0  0  0  0  0  0  0  0  0  0
   39.7090   23.7310   36.0080 C   0  0  0  0  0  0  0  0  0  0  0  0
   39.7070   22.8950   37.1480 C   0  0  0  0  0  0  0  0  0  0  0  0
   38.8680   23.1310   38.1770 N   0  0  0  0  0  0  0  0  0  0  0  0
   37.9870   24.1740   38.1760 C   0  0  0  0  0  0  0  0  0  0  0  0
   37.9530   25.0130   37.0900 N   0  0  0  0  0  0  0  0  0  0  0  0
   40.3440   23.6050   35.1580 H   0  0  0  0  0  0  0  0  0  0  0  0
   40.3870   22.0790   37.1640 H   0  0  0  0  0  0  0  0  0  0  0  0
   37.3040   24.3880   38.9840 H   0  0  0  0  0  0  0  0  0  0  0  0
  1  4  1  0  0  0  0
  1 22  1  0  0  0  0
  2  1  1  0  0  0  0
  3  1  1  0  0  0  0
  4  8  1  0  0  0  0
  5  6  1  0  0  0  0
  5  4  2  0  0  0  0
  6  7  1  0  0  0  0
  7  8  2  0  0  0  0
  7 11  1  0  0  0  0
  9  5  1  0  0  0  0
 10  6  1  0  0  0  0
 11 12  1  0  0  0  0
 12 13  2  0  0  0  0
 13 14  1  0  0  0  0
 15 13  1  0  0  0  0
 15 16  2  0  0  0  0
 17 15  1  0  0  0  0
 18 11  1  0  0  0  0
 18 17  1  0  0  0  0
 19 18  2  0  0  0  0
 20 17  1  0  0  0  0
 21 24  1  6  0  0  0
 21 23  1  0  0  0  0
 21 28  1  0  0  0  0
 22 21  1  0  0  0  0
 22 23  1  0  0  0  0
 22 25  1  1  0  0  0
 23 27  1  0  0  0  0
 26 23  1  0  0  0  0
 28 33  1  0  0  0  0
 29 28  2  0  0  0  0
 29 30  1  0  0  0  0
 30 35  1  0  0  0  0
 30 31  2  0  0  0  0
 32 31  1  0  0  0  0
 32 36  1  0  0  0  0
 33 32  2  0  0  0  0
 34 29  1  0  0  0  0
M  END
>  <minimizedAffinity>
-5.77183104

$$$$

 OpenBabel03272501173D

 36 39  0  0  1  0  0  0  0  0999 V2000
   37.2940   27.2030   33.4170 C   0  0  0  0  0  0  0  0  0  0  0  0
   36.7990   26.3760   32.9040 H   0  0  0  0  0  0  0  0  0  0  0  0
   38.0870   27.5960   32.7350 H   0  0  0  0  0  0  0  0  0  0  0  0
   36.2930   28.2970   33.5700 C   0  0  0  0  0  0  0  0  0  0  0  0
   35.3770   28.6130   32.5960 C   0  0  0  0  0  0  0  0  0  0  0  0
   34.5870   29.6320   32.9620 N   0  0  0  0  0  0  0  0  0  0  0  0
   35.0230   29.9640   34.2070 C   0  0  0  0  0  0  0  0  0  0  0  0
   36.0450   29.1630   34.5700 N   0  0  0  0  0  0  0  0  0  0  0  0
   35.2710   28.1210   31.6250 H   0  0  0  0  0  0  0  0  0  0  0  0
   33.8060   30.0860   32.4270 H   0  0  0  0  0  0  0  0  0  0  0  0
   34.4730   31.0090   35.0070 N   0  0  0  0  0  0  0  0  0  0  0  0
   35.2630   31.3150   36.0760 C   0  0  0  0  0  3  0  0  0  0  0  0
   34.9010   32.2950   36.9610 C   0  0  0  0  0  0  0  0  0  0  0  0
   35.5050   32.5760   37.8360 H   0  0  0  0  0  0  0  0  0  0  0  0
   33.7170   32.9720   36.7490 C   0  0  0  0  0  0  0  0  0  0  0  0
   33.3320   33.8790   37.5240 O   0  0  0  0  0  0  0  0  0  0  0  0
   32.9680   32.6470   35.6930 N   0  0  0  0  0  0  0  0  0  0  0  0
   33.3220   31.6840   34.8220 C   0  0  0  0  0  0  0  0  0  0  0  0
   32.6700   31.3220   33.8040 O   0  0  0  0  0  0  0  0  0  0  0  0
   32.0570   33.1430   35.4990 H   0  0  0  0  0  0  0  0  0  0  0  0
   38.7940   25.6750   34.7690 C   0  0  1  0  0  0  0  0  0  0  0  0
   37.8440   26.7430   34.7300 C   0  0  1  0  0  0  0  0  0  0  0  0
   39.2390   27.0920   35.1740 C   0  0  0  0  0  0  0  0  0  0  0  0
   39.2530   25.2690   33.8540 H   0  0  0  0  0  0  0  0  0  0  0  0
   37.1130   26.7810   35.5960 H   0  0  0  0  0  0  0  0  0  0  0  0
   39.8250   27.5940   34.3850 H   0  0  0  0  0  0  0  0  0  0  0  0
   39.4600   27.3010   36.2290 H   0  0  0  0  0  0  0  0  0  0  0  0
   38.8580   24.7120   35.9430 C   0  0  0  0  0  0  0  0  0  0  0  0
   37.8780   24.8730   36.9060 C   0  0  0  0  0  0  0  0  0  0  0  0
   37.9800   23.9810   37.9980 C   0  0  0  0  0  0  0  0  0  0  0  0
   38.9670   23.0650   38.0530 N   0  0  0  0  0  0  0  0  0  0  0  0
   39.9110   22.9480   37.0730 C   0  0  0  0  0  0  0  0  0  0  0  0
   39.8530   23.7930   35.9930 N   0  0  0  0  0  0  0  0  0  0  0  0
   37.1250   25.6230   36.7950 H   0  0  0  0  0  0  0  0  0  0  0  0
   37.2530   24.0590   38.7690 H   0  0  0  0  0  0  0  0  0  0  0  0
   40.7130   22.2260   37.0900 H   0  0  0  0  0  0  0  0  0  0  0  0
  1  4  1  0  0  0  0
  1 22  1  0  0  0  0
  2  1  1  0  0  0  0
  3  1  1  0  0  0  0
  4  8  1  0  0  0  0
  5  6  1  0  0  0  0
  5  4  2  0  0  0  0
  6  7  1  0  0  0  0
  7  8  2  0  0  0  0
  7 11  1  0  0  0  0
  9  5  1  0  0  0  0
 10  6  1  0  0  0  0
 11 12  1  0  0  0  0
 12 13  2  0  0  0  0
 13 14  1  0  0  0  0
 15 13  1  0  0  0  0
 15 16  2  0  0  0  0
 17 15  1  0  0  0  0
 18 11  1  0  0  0  0
 18 17  1  0  0  0  0
 19 18  2  0  0  0  0
 20 17  1  0  0  0  0
 21 24  1  6  0  0  0
 21 23  1  0  0  0  0
 21 28  1  0  0  0  0
 22 21  1  0  0  0  0
 22 23  1  0  0  0  0
 22 25  1  1  0  0  0
 23 27  1  0  0  0  0
 26 23  1  0  0  0  0
 28 33  2  0  0  0  0
 28 29  1  0  0  0  0
 29 30  2  0  0  0  0
 30 31  1  0  0  0  0
 30 35  1  0  0  0  0
 32 36  1  0  0  0  0
 32 31  2  0  0  0  0
 33 32  1  0  0  0  0
 34 29  1  0  0  0  0
M  END
>  <minimizedAffinity>
-5.7450738

$$$$

 OpenBabel03272501173D

 36 39  0  0  1  0  0  0  0  0999 V2000
   37.4710   26.5140   32.4810 C   0  0  0  0  0  0  0  0  0  0  0  0
   38.4060   26.6570   31.9370 H   0  0  0  0  0  0  0  0  0  0  0  0
   36.8700   25.7520   31.9260 H   0  0  0  0  0  0  0  0  0  0  0  0
   37.8080   25.9030   33.7990 C   0  0  0  0  0  0  0  0  0  0  0  0
   37.2500   26.3230   34.9820 C   0  0  0  0  0  0  0  0  0  0  0  0
   37.7100   25.6260   36.0300 N   0  0  0  0  0  0  0  0  0  0  0  0
   38.5870   24.7400   35.4840 C   0  0  0  0  0  0  0  0  0  0  0  0
   38.6430   24.9080   34.1470 N   0  0  0  0  0  0  0  0  0  0  0  0
   36.5150   27.1260   35.1000 H   0  0  0  0  0  0  0  0  0  0  0  0
   37.4660   25.7240   37.0460 H   0  0  0  0  0  0  0  0  0  0  0  0
   39.3320   23.7760   36.2250 N   0  0  0  0  0  0  0  0  0  0  0  0
   40.3310   23.2130   35.4860 C   0  0  0  0  0  3  0  0  0  0  0  0
   41.1570   22.2640   36.0260 C   0  0  0  0  0  0  0  0  0  0  0  0
   41.9750   21.7840   35.4700 H   0  0  0  0  0  0  0  0  0  0  0  0
   40.9590   21.8860   37.3400 C   0  0  0  0  0  0  0  0  0  0  0  0
   41.6820   21.0230   37.8890 O   0  0  0  0  0  0  0  0  0  0  0  0
   39.9710   22.4570   38.0330 N   0  0  0  0  0  0  0  0  0  0  0  0
   39.1590   23.3910   37.5040 C   0  0  0  0  0  0  0  0  0  0  0  0
   38.2090   23.9740   38.0930 O   0  0  0  0  0  0  0  0  0  0  0  0
   39.7910   22.1940   39.0380 H   0  0  0  0  0  0  0  0  0  0  0  0
   36.5270   28.6370   31.4740 C   0  0  1  0  0  0  0  0  0  0  0  0
   36.7500   27.8180   32.6240 C   0  0  1  0  0  0  0  0  0  0  0  0
   35.3230   27.9910   32.1810 C   0  0  0  0  0  0  0  0  0  0  0  0
   36.7350   28.2790   30.4530 H   0  0  0  0  0  0  0  0  0  0  0  0
   36.9540   28.3750   33.5910 H   0  0  0  0  0  0  0  0  0  0  0  0
   34.9350   27.1110   31.6390 H   0  0  0  0  0  0  0  0  0  0  0  0
   34.6300   28.6290   32.7460 H   0  0  0  0  0  0  0  0  0  0  0  0
   36.4870   30.1530   31.5740 C   0  0  0  0  0  0  0  0  0  0  0  0
   35.8270   30.6640   32.6770 C   0  0  0  0  0  0  0  0  0  0  0  0
   35.7830   32.0760   32.7290 C   0  0  0  0  0  0  0  0  0  0  0  0
   36.3510   32.8230   31.7610 N   0  0  0  0  0  0  0  0  0  0  0  0
   36.9910   32.2660   30.6910 C   0  0  0  0  0  0  0  0  0  0  0  0
   37.0600   30.8970   30.5970 N   0  0  0  0  0  0  0  0  0  0  0  0
   35.4000   30.0110   33.4060 H   0  0  0  0  0  0  0  0  0  0  0  0
   35.2870   32.5250   33.5550 H   0  0  0  0  0  0  0  0  0  0  0  0
   37.4550   32.8360   29.9010 H   0  0  0  0  0  0  0  0  0  0  0  0
  1 22  1  0  0  0  0
  1  4  1  0  0  0  0
  2  1  1  0  0  0  0
  3  1  1  0  0  0  0
  4  8  1  0  0  0  0
  4  5  2  0  0  0  0
  5  9  1  0  0  0  0
  5  6  1  0  0  0  0
  6 10  1  0  0  0  0
  7  6  1  0  0  0  0
  7 11  1  0  0  0  0
  8  7  2  0  0  0  0
 11 18  1  0  0  0  0
 12 13  2  0  0  0  0
 12 11  1  0  0  0  0
 13 15  1  0  0  0  0
 14 13  1  0  0  0  0
 15 16  2  0  0  0  0
 15 17  1  0  0  0  0
 17 20  1  0  0  0  0
 18 17  1  0  0  0  0
 18 19  2  0  0  0  0
 21 24  1  6  0  0  0
 21 28  1  0  0  0  0
 21 23  1  0  0  0  0
 21 22  1  0  0  0  0
 22 25  1  1  0  0  0
 23 22  1  0  0  0  0
 23 27  1  0  0  0  0
 26 23  1  0  0  0  0
 28 29  1  0  0  0  0
 29 30  2  0  0  0  0
 29 34  1  0  0  0  0
 30 35  1  0  0  0  0
 31 30  1  0  0  0  0
 32 31  2  0  0  0  0
 33 32  1  0  0  0  0
 33 28  2  0  0  0  0
 36 32  1  0  0  0  0
M  END
>  <minimizedAffinity>
-5.53629351

$$$$

 OpenBabel03272501173D

 36 39  0  0  1  0  0  0  0  0999 V2000
   38.2310   27.6980   31.5920 C   0  0  0  0  0  0  0  0  0  0  0  0
   38.7560   28.4290   32.2100 H   0  0  0  0  0  0  0  0  0  0  0  0
   38.8910   27.4530   30.7240 H   0  0  0  0  0  0  0  0  0  0  0  0
   38.1070   26.4450   32.3900 C   0  0  0  0  0  0  0  0  0  0  0  0
   37.8360   25.2220   31.8240 C   0  0  0  0  0  0  0  0  0  0  0  0
   37.7700   24.2480   32.7410 N   0  0  0  0  0  0  0  0  0  0  0  0
   38.0070   24.8820   33.9220 C   0  0  0  0  0  0  0  0  0  0  0  0
   38.2090   26.1980   33.7080 N   0  0  0  0  0  0  0  0  0  0  0  0
   37.6850   25.0230   30.7580 H   0  0  0  0  0  0  0  0  0  0  0  0
   37.5790   23.2240   32.6040 H   0  0  0  0  0  0  0  0  0  0  0  0
   38.0370   24.2400   35.1940 N   0  0  0  0  0  0  0  0  0  0  0  0
   38.0140   25.1320   36.2260 C   0  0  0  0  0  3  0  0  0  0  0  0
   38.0370   24.7050   37.5270 C   0  0  0  0  0  0  0  0  0  0  0  0
   38.0190   25.3860   38.3900 H   0  0  0  0  0  0  0  0  0  0  0  0
   38.0820   23.3480   37.7760 C   0  0  0  0  0  0  0  0  0  0  0  0
   38.1050   22.8970   38.9440 O   0  0  0  0  0  0  0  0  0  0  0  0
   38.1050   22.5030   36.7430 N   0  0  0  0  0  0  0  0  0  0  0  0
   38.0820   22.9210   35.4630 C   0  0  0  0  0  0  0  0  0  0  0  0
   38.1000   22.1870   34.4380 O   0  0  0  0  0  0  0  0  0  0  0  0
   38.1400   21.4600   36.8950 H   0  0  0  0  0  0  0  0  0  0  0  0
   36.5120   29.5560   31.5560 C   0  0  1  0  0  0  0  0  0  0  0  0
   36.9010   28.2380   31.1660 C   0  0  1  0  0  0  0  0  0  0  0  0
   36.7730   29.2590   30.0690 C   0  0  0  0  0  0  0  0  0  0  0  0
   37.2130   30.2550   32.0380 H   0  0  0  0  0  0  0  0  0  0  0  0
   36.0660   27.4720   31.1190 H   0  0  0  0  0  0  0  0  0  0  0  0
   37.7490   29.6420   29.7250 H   0  0  0  0  0  0  0  0  0  0  0  0
   35.9240   29.2350   29.3720 H   0  0  0  0  0  0  0  0  0  0  0  0
   35.0550   29.9120   31.8070 C   0  0  0  0  0  0  0  0  0  0  0  0
   34.3750   29.0790   32.6770 C   0  0  0  0  0  0  0  0  0  0  0  0
   33.0170   29.4190   32.8700 C   0  0  0  0  0  0  0  0  0  0  0  0
   32.4720   30.4780   32.2380 N   0  0  0  0  0  0  0  0  0  0  0  0
   33.1900   31.2690   31.3870 C   0  0  0  0  0  0  0  0  0  0  0  0
   34.5140   30.9770   31.1680 N   0  0  0  0  0  0  0  0  0  0  0  0
   34.8730   28.2570   33.1440 H   0  0  0  0  0  0  0  0  0  0  0  0
   32.4440   28.8130   33.5290 H   0  0  0  0  0  0  0  0  0  0  0  0
   32.7820   32.1220   30.8660 H   0  0  0  0  0  0  0  0  0  0  0  0
  1  2  1  0  0  0  0
  1  4  1  0  0  0  0
  3  1  1  0  0  0  0
  4  8  1  0  0  0  0
  5  4  2  0  0  0  0
  5  6  1  0  0  0  0
  6  7  1  0  0  0  0
  7 11  1  0  0  0  0
  8  7  2  0  0  0  0
  9  5  1  0  0  0  0
 10  6  1  0  0  0  0
 11 18  1  0  0  0  0
 11 12  1  0  0  0  0
 12 13  2  0  0  0  0
 13 15  1  0  0  0  0
 13 14  1  0  0  0  0
 15 16  2  0  0  0  0
 17 20  1  0  0  0  0
 17 15  1  0  0  0  0
 18 17  1  0  0  0  0
 19 18  2  0  0  0  0
 21 28  1  0  0  0  0
 21 24  1  1  0  0  0
 22 25  1  1  0  0  0
 22 21  1  0  0  0  0
 22  1  1  0  0  0  0
 23 22  1  0  0  0  0
 23 21  1  0  0  0  0
 26 23  1  0  0  0  0
 27 23  1  0  0  0  0
 28 29  1  0  0  0  0
 29 30  2  0  0  0  0
 29 34  1  0  0  0  0
 30 35  1  0  0  0  0
 31 30  1  0  0  0  0
 32 31  2  0  0  0  0
 33 32  1  0  0  0  0
 33 28  2  0  0  0  0
 36 32  1  0  0  0  0
M  END
>  <minimizedAffinity>
-5.49725676

$$$$

 OpenBabel03272501173D

 36 39  0  0  1  0  0  0  0  0999 V2000
   35.3600   29.2110   31.6540 C   0  0  0  0  0  0  0  0  0  0  0  0
   35.6000   29.9630   30.9000 H   0  0  0  0  0  0  0  0  0  0  0  0
   34.2730   28.9710   31.5570 H   0  0  0  0  0  0  0  0  0  0  0  0
   36.0970   27.9660   31.2930 C   0  0  0  0  0  0  0  0  0  0  0  0
   37.2870   27.9750   30.6050 C   0  0  0  0  0  0  0  0  0  0  0  0
   37.7550   26.7370   30.3950 N   0  0  0  0  0  0  0  0  0  0  0  0
   36.8260   25.9250   30.9720 C   0  0  0  0  0  0  0  0  0  0  0  0
   35.8350   26.6640   31.5090 N   0  0  0  0  0  0  0  0  0  0  0  0
   37.8210   28.8620   30.2510 H   0  0  0  0  0  0  0  0  0  0  0  0
   38.6320   26.4370   29.9020 H   0  0  0  0  0  0  0  0  0  0  0  0
   36.9000   24.5020   31.0000 N   0  0  0  0  0  0  0  0  0  0  0  0
   35.7230   23.9290   31.3820 C   0  0  0  0  0  3  0  0  0  0  0  0
   35.5980   22.5680   31.4690 C   0  0  0  0  0  0  0  0  0  0  0  0
   34.6700   22.0620   31.7710 H   0  0  0  0  0  0  0  0  0  0  0  0
   36.6910   21.7830   31.1600 C   0  0  0  0  0  0  0  0  0  0  0  0
   36.6380   20.5330   31.2200 O   0  0  0  0  0  0  0  0  0  0  0  0
   37.8280   22.3770   30.7900 N   0  0  0  0  0  0  0  0  0  0  0  0
   37.9520   23.7150   30.7040 C   0  0  0  0  0  0  0  0  0  0  0  0
   38.9890   24.3470   30.3630 O   0  0  0  0  0  0  0  0  0  0  0  0
   38.6830   21.8100   30.5470 H   0  0  0  0  0  0  0  0  0  0  0  0
   34.7060   29.8280   34.0200 C   0  0  1  0  0  0  0  0  0  0  0  0
   35.7180   29.7120   33.0180 C   0  0  1  0  0  0  0  0  0  0  0  0
   35.8270   28.7890   34.2010 C   0  0  0  0  0  0  0  0  0  0  0  0
   33.6920   29.4230   33.8770 H   0  0  0  0  0  0  0  0  0  0  0  0
   36.5250   30.5090   33.0400 H   0  0  0  0  0  0  0  0  0  0  0  0
   35.4930   27.7620   33.9730 H   0  0  0  0  0  0  0  0  0  0  0  0
   36.5870   28.9520   34.9760 H   0  0  0  0  0  0  0  0  0  0  0  0
   34.7680   30.9070   35.0890 C   0  0  0  0  0  0  0  0  0  0  0  0
   35.8250   31.7920   34.9880 C   0  0  0  0  0  0  0  0  0  0  0  0
   35.8710   32.7670   36.0110 C   0  0  0  0  0  0  0  0  0  0  0  0
   34.9390   32.7940   36.9840 N   0  0  0  0  0  0  0  0  0  0  0  0
   33.9130   31.8940   37.0370 C   0  0  0  0  0  0  0  0  0  0  0  0
   33.8270   30.9280   36.0650 N   0  0  0  0  0  0  0  0  0  0  0  0
   36.5280   31.7110   34.1870 H   0  0  0  0  0  0  0  0  0  0  0  0
   36.6640   33.4750   35.9840 H   0  0  0  0  0  0  0  0  0  0  0  0
   33.1520   31.8890   37.8020 H   0  0  0  0  0  0  0  0  0  0  0  0
  1 22  1  0  0  0  0
  2  1  1  0  0  0  0
  3  1  1  0  0  0  0
  4  8  1  0  0  0  0
  4  1  1  0  0  0  0
  5  4  2  0  0  0  0
  6  5  1  0  0  0  0
  6  7  1  0  0  0  0
  7 11  1  0  0  0  0
  7  8  2  0  0  0  0
  9  5  1  0  0  0  0
 10  6  1  0  0  0  0
 11 12  1  0  0  0  0
 12 13  2  0  0  0  0
 13 14  1  0  0  0  0
 15 16  2  0  0  0  0
 15 13  1  0  0  0  0
 17 15  1  0  0  0  0
 18 17  1  0  0  0  0
 18 11  1  0  0  0  0
 19 18  2  0  0  0  0
 20 17  1  0  0  0  0
 21 24  1  6  0  0  0
 21 23  1  0  0  0  0
 21 28  1  0  0  0  0
 22 25  1  1  0  0  0
 22 21  1  0  0  0  0
 22 23  1  0  0  0  0
 23 27  1  0  0  0  0
 26 23  1  0  0  0  0
 28 33  1  0  0  0  0
 29 28  2  0  0  0  0
 29 30  1  0  0  0  0
 30 31  2  0  0  0  0
 31 32  1  0  0  0  0
 32 36  1  0  0  0  0
 33 32  2  0  0  0  0
 34 29  1  0  0  0  0
 35 30  1  0  0  0  0
M  END
>  <minimizedAffinity>
-5.46830559

$$$$

 OpenBabel03272501173D

 36 39  0  0  1  0  0  0  0  0999 V2000
   36.0790   29.5590   31.3780 C   0  0  0  0  0  0  0  0  0  0  0  0
   37.0200   30.1030   31.2760 H   0  0  0  0  0  0  0  0  0  0  0  0
   35.6510   29.4290   30.3540 H   0  0  0  0  0  0  0  0  0  0  0  0
   36.4050   28.1910   31.8720 C   0  0  0  0  0  0  0  0  0  0  0  0
   36.1670   27.0550   31.1360 C   0  0  0  0  0  0  0  0  0  0  0  0
   36.5410   25.9460   31.7900 N   0  0  0  0  0  0  0  0  0  0  0  0
   37.0290   26.4040   32.9750 C   0  0  0  0  0  0  0  0  0  0  0  0
   36.9470   27.7490   33.0210 N   0  0  0  0  0  0  0  0  0  0  0  0
   35.7270   27.0140   30.1360 H   0  0  0  0  0  0  0  0  0  0  0  0
   36.4790   24.9440   31.4800 H   0  0  0  0  0  0  0  0  0  0  0  0
   37.5510   25.5740   34.0100 N   0  0  0  0  0  0  0  0  0  0  0  0
   37.7090   26.2490   35.1860 C   0  0  0  0  0  3  0  0  0  0  0  0
   38.1990   25.6200   36.2980 C   0  0  0  0  0  0  0  0  0  0  0  0
   38.3430   26.1220   37.2660 H   0  0  0  0  0  0  0  0  0  0  0  0
   38.5310   24.2820   36.2090 C   0  0  0  0  0  0  0  0  0  0  0  0
   38.9830   23.6520   37.1930 O   0  0  0  0  0  0  0  0  0  0  0  0
   38.3640   23.6530   35.0440 N   0  0  0  0  0  0  0  0  0  0  0  0
   37.8820   24.2700   33.9480 C   0  0  0  0  0  0  0  0  0  0  0  0
   37.6960   23.7450   32.8170 O   0  0  0  0  0  0  0  0  0  0  0  0
   38.6060   22.6320   34.9380 H   0  0  0  0  0  0  0  0  0  0  0  0
   35.6870   31.0820   33.3620 C   0  0  1  0  0  0  0  0  0  0  0  0
   35.1540   30.2930   32.2970 C   0  0  1  0  0  0  0  0  0  0  0  0
   34.9550   31.7810   32.2030 C   0  0  0  0  0  0  0  0  0  0  0  0
   36.7640   31.2950   33.4490 H   0  0  0  0  0  0  0  0  0  0  0  0
   34.1790   29.7580   32.5230 H   0  0  0  0  0  0  0  0  0  0  0  0
   35.6480   32.2600   31.4910 H   0  0  0  0  0  0  0  0  0  0  0  0
   33.9700   32.2320   32.3880 H   0  0  0  0  0  0  0  0  0  0  0  0
   34.9420   31.2500   34.6760 C   0  0  0  0  0  0  0  0  0  0  0  0
   35.6030   31.9720   35.6530 C   0  0  0  0  0  0  0  0  0  0  0  0
   34.8960   32.0880   36.8730 C   0  0  0  0  0  0  0  0  0  0  0  0
   33.6800   31.5270   37.0240 N   0  0  0  0  0  0  0  0  0  0  0  0
   33.0710   30.8230   36.0240 C   0  0  0  0  0  0  0  0  0  0  0  0
   33.7200   30.6830   34.8220 N   0  0  0  0  0  0  0  0  0  0  0  0
   36.5680   32.3890   35.4620 H   0  0  0  0  0  0  0  0  0  0  0  0
   35.3580   32.6330   37.6600 H   0  0  0  0  0  0  0  0  0  0  0  0
   32.1000   30.3620   36.1150 H   0  0  0  0  0  0  0  0  0  0  0  0
  1  4  1  0  0  0  0
  1 22  1  0  0  0  0
  2  1  1  0  0  0  0
  3  1  1  0  0  0  0
  4  8  1  0  0  0  0
  5  6  1  0  0  0  0
  5  4  2  0  0  0  0
  6  7  1  0  0  0  0
  7  8  2  0  0  0  0
  7 11  1  0  0  0  0
  9  5  1  0  0  0  0
 10  6  1  0  0  0  0
 11 12  1  0  0  0  0
 12 13  2  0  0  0  0
 13 14  1  0  0  0  0
 15 13  1  0  0  0  0
 15 16  2  0  0  0  0
 17 15  1  0  0  0  0
 18 11  1  0  0  0  0
 18 17  1  0  0  0  0
 19 18  2  0  0  0  0
 20 17  1  0  0  0  0
 21 24  1  1  0  0  0
 21 28  1  0  0  0  0
 22 25  1  1  0  0  0
 22 21  1  0  0  0  0
 23 22  1  0  0  0  0
 23 27  1  0  0  0  0
 23 21  1  0  0  0  0
 26 23  1  0  0  0  0
 28 33  2  0  0  0  0
 28 29  1  0  0  0  0
 29 30  2  0  0  0  0
 30 31  1  0  0  0  0
 30 35  1  0  0  0  0
 32 36  1  0  0  0  0
 32 31  2  0  0  0  0
 33 32  1  0  0  0  0
 34 29  1  0  0  0  0
M  END
>  <minimizedAffinity>
-5.39754725

$$$$
