
 OpenBabel03272507193D

 31 33  0  0  1  0  0  0  0  0999 V2000
   37.9050   31.4380   49.5040 C   0  0  0  0  0  0  0  0  0  0  0  0
   38.3830   32.7070   49.7700 C   0  0  0  0  0  0  0  0  0  0  0  0
   38.9870   33.3440   48.6560 C   0  0  0  0  0  0  0  0  0  0  0  0
   39.0640   32.7110   47.4380 N   0  0  0  0  0  0  0  0  0  0  0  0
   38.5750   31.4670   47.2530 C   0  0  0  0  0  0  0  0  0  0  0  0
   37.9850   30.8210   48.3060 N   0  0  0  0  0  0  0  0  0  0  0  0
   38.3190   33.1970   50.7290 H   0  0  0  0  0  0  0  0  0  0  0  0
   39.3900   34.3460   48.7770 H   0  0  0  0  0  0  0  0  0  0  0  0
   38.6990   30.8880   45.9590 N   0  0  0  0  0  0  0  0  0  0  0  0
   37.5430   30.4920   45.3530 C   0  0  0  0  0  0  0  0  0  0  0  0
   37.5810   29.9230   44.0990 C   0  0  0  0  0  0  0  0  0  0  0  0
   36.7040   29.5930   43.5750 H   0  0  0  0  0  0  0  0  0  0  0  0
   38.7910   29.7420   43.4290 C   0  0  0  0  0  0  0  0  0  0  0  0
   38.8300   29.2220   42.2810 O   0  0  0  0  0  0  0  0  0  0  0  0
   39.9100   30.1520   44.0730 N   0  0  0  0  0  0  0  0  0  0  0  0
   39.8590   30.7020   45.2890 C   0  0  0  0  0  0  0  0  0  0  0  0
   40.9050   31.0850   45.8910 O   0  0  0  0  0  0  0  0  0  0  0  0
   40.8360   30.0210   43.5800 H   0  0  0  0  0  0  0  0  0  0  0  0
   37.2280   30.7530   50.6490 C   0  0  1  0  0  0  0  0  0  0  0  0
   36.1570   29.7790   50.4470 C   0  0  2  0  0  0  0  0  0  0  0  0
   37.5390   29.2420   50.6810 C   0  0  0  0  0  0  0  0  0  0  0  0
   37.3660   31.2690   51.6230 H   0  0  0  0  0  0  0  0  0  0  0  0
   35.3900   29.8050   51.2770 H   0  0  0  0  0  0  0  0  0  0  0  0
   38.0770   28.7970   49.8210 H   0  0  0  0  0  0  0  0  0  0  0  0
   37.6900   28.8320   51.6890 H   0  0  0  0  0  0  0  0  0  0  0  0
   35.6160   29.6950   49.1710 O   0  0  0  0  0  0  0  0  0  0  0  0
   34.3450   29.4410   48.7770 C   0  0  0  0  0  0  0  0  0  0  0  0
   34.0350   29.2960   47.5740 O   0  0  0  0  0  0  0  0  0  0  0  0
   33.5410   29.3870   49.9150 N   0  0  0  0  0  0  0  0  0  0  0  0
   32.7430   29.6550   50.5370 H   0  0  0  0  0  0  0  0  0  0  0  0
   33.6560   28.7540   50.7540 H   0  0  0  0  0  0  0  0  0  0  0  0
  1  2  1  0  0  0  0
  1 19  1  0  0  0  0
  2  7  1  0  0  0  0
  3  8  1  0  0  0  0
  3  2  2  0  0  0  0
  4  3  1  0  0  0  0
  5  4  2  0  0  0  0
  5  6  1  0  0  0  0
  6  1  2  0  0  0  0
  9  5  1  0  0  0  0
 10  9  1  0  0  0  0
 11 10  2  0  0  0  0
 12 11  1  0  0  0  0
 13 15  1  0  0  0  0
 13 11  1  0  0  0  0
 14 13  2  0  0  0  0
 15 16  1  0  0  0  0
 16 17  2  0  0  0  0
 16  9  1  0  0  0  0
 18 15  1  0  0  0  0
 19 21  1  0  0  0  0
 19 22  1  1  0  0  0
 20 19  1  0  0  0  0
 20 21  1  0  0  0  0
 20 23  1  1  0  0  0
 21 25  1  0  0  0  0
 24 21  1  0  0  0  0
 26 20  1  0  0  0  0
 27 26  1  0  0  0  0
 27 29  1  0  0  0  0
 28 27  2  0  0  0  0
 29 30  1  0  0  0  0
 29 31  1  0  0  0  0
M  END
>  <minimizedAffinity>
-6.30907297

>  <minimizedRMSD>
1.80215263

$$$$
