REMARK  Name = 
REMARK  3 active torsions:
REMARK  status: ('A' for Active; 'I' for Inactive)
REMARK    1  A    between atoms: C_1  and  C_4
REMARK    2  A    between atoms: C_2  and  O_10
REMARK    3  A    between atoms: O_10  and  C_11
REMARK                            x       y       z     vdW  Elec       q    Type
REMARK                         _______ _______ _______ _____ _____    ______ ____
ROOT
ATOM      1  C   UNL     1      37.326  31.215  49.401  0.00  0.00    +0.000 A 
ATOM      2  C   UNL     1      38.316  32.176  49.475  0.00  0.00    +0.000 A 
ATOM      3  C   UNL     1      38.804  32.603  48.214  0.00  0.00    +0.000 A 
ATOM      4  N   UNL     1      38.302  32.076  47.048  0.00  0.00    +0.000 NA
ATOM      5  C   UNL     1      37.333  31.137  47.054  0.00  0.00    +0.000 A 
ATOM      6  N   UNL     1      36.837  30.700  48.253  0.00  0.00    +0.000 NA
ATOM      7  H   UNL     1      38.705  32.585  50.395  0.00  0.00    +0.000 HD
ATOM      8  H   UNL     1      39.585  33.358  48.180  0.00  0.00    +0.000 HD
ATOM      9  N   UNL     1      36.873  30.646  45.800  0.00  0.00    +0.000 N 
ATOM     10  C   UNL     1      37.827  30.392  44.857  0.00  0.00    +0.000 A 
ATOM     11  C   UNL     1      37.460  29.914  43.617  0.00  0.00    +0.000 A 
ATOM     12  H   UNL     1      38.166  29.697  42.839  0.00  0.00    +0.000 HD
ATOM     13  C   UNL     1      36.121  29.684  43.304  0.00  0.00    +0.000 A 
ATOM     14  O   UNL     1      35.782  29.248  42.170  0.00  0.00    +0.000 OA
ATOM     15  N   UNL     1      35.214  29.953  44.274  0.00  0.00    +0.000 N 
ATOM     16  C   UNL     1      35.583  30.415  45.471  0.00  0.00    +0.000 A 
ATOM     17  O   UNL     1      34.735  30.666  46.378  0.00  0.00    +0.000 OA
ATOM     18  H   UNL     1      34.194  29.784  44.052  0.00  0.00    +0.000 HD
ENDROOT
BRANCH   1  19
ATOM     19  C   UNL     1      36.762  30.771  50.714  0.00  0.00    +0.000 C 
ATOM     20  C   UNL     1      36.025  29.517  50.858  0.00  0.00    +0.000 C 
ATOM     21  C   UNL     1      37.474  29.510  51.249  0.00  0.00    +0.000 C 
ATOM     22  H   UNL     1      36.664  31.590  51.458  0.00  0.00    +0.000 HD
ATOM     23  H   UNL     1      35.208  29.586  51.637  0.00  0.00    +0.000 HD
ATOM     24  H   UNL     1      38.190  28.988  50.584  0.00  0.00    +0.000 HD
ATOM     25  H   UNL     1      37.640  29.510  52.335  0.00  0.00    +0.000 HD
BRANCH  20  26
ATOM     26  O   UNL     1      35.647  28.872  49.688  0.00  0.00    +0.000 OA
BRANCH  26  27
ATOM     27  C   UNL     1      34.438  28.395  49.306  0.00  0.00    +0.000 C 
ATOM     28  O   UNL     1      34.318  27.391  48.571  0.00  0.00    +0.000 OA
ATOM     29  N   UNL     1      33.454  29.208  49.868  0.00  0.00    +0.000 N 
ATOM     30  H   UNL     1      32.623  29.845  49.868  0.00  0.00    +0.000 HD
ATOM     31  H   UNL     1      33.306  29.425  50.892  0.00  0.00    +0.000 HD
ENDBRANCH  26  27
ENDBRANCH  20  26
ENDBRANCH   1  19
TORSDOF 3
