
 OpenBabel03272509443D

 39 41  0  0  1  0  0  0  0  0999 V2000
   36.5310   28.6340   32.3970 C   0  0  0  0  0  0  0  0  0  0  0  0
   35.9960   29.6920   31.6610 C   0  0  0  0  0  0  0  0  0  0  0  0
   35.2680   30.7090   32.2530 C   0  0  0  0  0  0  0  0  0  0  0  0
   35.0580   30.6790   33.6400 C   0  0  0  0  0  0  0  0  0  0  0  0
   35.5880   29.6370   34.3500 C   0  0  0  0  0  0  0  0  0  0  0  0
   36.3130   28.6370   33.7170 C   0  0  0  0  0  0  0  0  0  0  0  0
   36.1670   29.7020   30.5880 H   0  0  0  0  0  0  0  0  0  0  0  0
   34.9000   31.4710   31.6010 H   0  0  0  0  0  0  0  0  0  0  0  0
   34.4880   31.5010   34.0080 H   0  0  0  0  0  0  0  0  0  0  0  0
   35.3410   29.7530   35.4020 H   0  0  0  0  0  0  0  0  0  0  0  0
   37.2620   27.5580   31.7640 C   0  0  2  0  0  0  0  0  0  0  0  0
   37.2170   27.7880   30.6310 H   0  0  0  0  0  0  0  0  0  0  0  0
   36.8920   23.9460   31.9080 C   0  0  0  0  0  0  0  0  0  0  0  0
   35.6170   23.7200   31.4270 C   0  0  0  0  0  0  0  0  0  0  0  0
   34.8830   24.8110   30.9830 C   0  0  0  0  0  0  0  0  0  0  0  0
   35.4460   26.0660   31.0400 N   0  0  0  0  0  0  0  0  0  0  0  0
   36.6670   26.2140   31.5120 C   0  0  0  0  0  0  0  0  0  0  0  0
   37.3940   25.1680   31.9450 N   0  0  0  0  0  0  0  0  0  0  0  0
   37.4720   23.1110   32.2560 H   0  0  0  0  0  0  0  0  0  0  0  0
   35.2590   22.7020   31.4220 H   0  0  0  0  0  0  0  0  0  0  0  0
   33.8960   24.6460   30.6080 H   0  0  0  0  0  0  0  0  0  0  0  0
   38.5360   27.6820   31.8950 O   0  0  0  0  0  0  0  0  0  0  0  0
   38.8600   27.4190   32.8050 H   0  0  0  0  0  0  0  0  0  0  0  0
   36.7910   27.5830   34.5820 C   0  0  0  0  0  3  0  0  0  0  0  0
   37.8500   27.7100   35.3910 C   0  0  0  0  0  3  0  0  0  0  0  0
   38.4010   26.7170   36.3420 C   0  0  0  0  0  0  0  0  0  0  0  0
   37.8390   26.8370   37.3070 H   0  0  0  0  0  0  0  0  0  0  0  0
   39.4470   26.9050   36.5800 H   0  0  0  0  0  0  0  0  0  0  0  0
   38.0720   25.0570   35.7400 S   0  0  0  0  0  0  0  0  0  0  0  0
   41.9010   22.2290   35.5120 H   0  0  0  0  0  0  0  0  0  0  0  0
   41.0930   22.5360   36.0890 N   0  0  0  0  0  0  0  0  0  0  0  0
   40.2030   23.4640   35.6480 C   0  0  0  0  0  3  0  0  0  0  0  0
   39.1410   23.8390   36.4560 C   0  0  0  0  0  0  0  0  0  0  0  0
   39.0270   23.2450   37.6970 C   0  0  0  0  0  0  0  0  0  0  0  0
   38.0410   23.6370   38.3670 O   0  0  0  0  0  0  0  0  0  0  0  0
   39.9030   22.3270   38.1390 N   0  0  0  0  0  0  0  0  0  0  0  0
   40.9190   21.9970   37.3130 C   0  0  0  0  0  0  0  0  0  0  0  0
   41.7690   21.1290   37.7010 O   0  0  0  0  0  0  0  0  0  0  0  0
   39.7590   21.9200   39.0840 H   0  0  0  0  0  0  0  0  0  0  0  0
  1  6  1  0  0  0  0
  2  3  1  0  0  0  0
  2  1  2  0  0  0  0
  3  4  2  0  0  0  0
  4  9  1  0  0  0  0
  4  5  1  0  0  0  0
  5 10  1  0  0  0  0
  6  5  2  0  0  0  0
  6 24  1  0  0  0  0
  7  2  1  0  0  0  0
  8  3  1  0  0  0  0
 11 12  1  6  0  0  0
 11 22  1  0  0  0  0
 11  1  1  0  0  0  0
 13 18  1  0  0  0  0
 13 19  1  0  0  0  0
 14 13  2  0  0  0  0
 15 16  2  0  0  0  0
 15 14  1  0  0  0  0
 16 17  1  0  0  0  0
 17 11  1  0  0  0  0
 17 18  2  0  0  0  0
 20 14  1  0  0  0  0
 21 15  1  0  0  0  0
 22 23  1  0  0  0  0
 24 25  2  0  0  0  0
 25 26  1  0  0  0  0
 26 28  1  0  0  0  0
 26 27  1  0  0  0  0
 29 26  1  0  0  0  0
 29 33  1  0  0  0  0
 30 31  1  0  0  0  0
 31 37  1  0  0  0  0
 32 31  1  0  0  0  0
 32 33  2  0  0  0  0
 33 34  1  0  0  0  0
 34 36  1  0  0  0  0
 34 35  2  0  0  0  0
 36 39  1  0  0  0  0
 37 38  2  0  0  0  0
 37 36  1  0  0  0  0
M  END
>  <minimizedAffinity>
-6.66799545

$$$$

 OpenBabel03272509443D

 39 41  0  0  1  0  0  0  0  0999 V2000
   35.8860   29.3070   32.8380 C   0  0  0  0  0  0  0  0  0  0  0  0
   35.8370   29.8410   31.5490 C   0  0  0  0  0  0  0  0  0  0  0  0
   36.6140   29.3480   30.5160 C   0  0  0  0  0  0  0  0  0  0  0  0
   37.4830   28.2750   30.7680 C   0  0  0  0  0  0  0  0  0  0  0  0
   37.5220   27.7610   32.0360 C   0  0  0  0  0  0  0  0  0  0  0  0
   36.7250   28.2850   33.0440 C   0  0  0  0  0  0  0  0  0  0  0  0
   35.1580   30.6700   31.3690 H   0  0  0  0  0  0  0  0  0  0  0  0
   36.5030   29.8270   29.5680 H   0  0  0  0  0  0  0  0  0  0  0  0
   38.0410   27.9620   29.9160 H   0  0  0  0  0  0  0  0  0  0  0  0
   38.2370   26.9440   32.0720 H   0  0  0  0  0  0  0  0  0  0  0  0
   35.0950   29.8520   33.9200 C   0  0  2  0  0  0  0  0  0  0  0  0
   35.3590   29.2060   34.8430 H   0  0  0  0  0  0  0  0  0  0  0  0
   31.7510   28.7030   33.0820 C   0  0  0  0  0  0  0  0  0  0  0  0
   31.1150   28.6040   34.3040 C   0  0  0  0  0  0  0  0  0  0  0  0
   31.8120   28.9960   35.4380 C   0  0  0  0  0  0  0  0  0  0  0  0
   33.1010   29.4610   35.3050 N   0  0  0  0  0  0  0  0  0  0  0  0
   33.6520   29.5280   34.1100 C   0  0  0  0  0  0  0  0  0  0  0  0
   32.9890   29.1550   33.0000 N   0  0  0  0  0  0  0  0  0  0  0  0
   31.2230   28.4030   32.1950 H   0  0  0  0  0  0  0  0  0  0  0  0
   30.1030   28.2270   34.3110 H   0  0  0  0  0  0  0  0  0  0  0  0
   31.3280   28.9250   36.3880 H   0  0  0  0  0  0  0  0  0  0  0  0
   35.5680   30.9600   34.3680 O   0  0  0  0  0  0  0  0  0  0  0  0
   35.3630   31.7390   33.7740 H   0  0  0  0  0  0  0  0  0  0  0  0
   36.8860   27.6660   34.3390 C   0  0  0  0  0  3  0  0  0  0  0  0
   38.0490   27.1840   34.7920 C   0  0  0  0  0  3  0  0  0  0  0  0
   38.3370   26.5690   36.1080 C   0  0  0  0  0  0  0  0  0  0  0  0
   37.7200   27.1170   36.8710 H   0  0  0  0  0  0  0  0  0  0  0  0
   39.3740   26.7020   36.4110 H   0  0  0  0  0  0  0  0  0  0  0  0
   37.7850   24.8600   36.1100 S   0  0  0  0  0  0  0  0  0  0  0  0
   41.7790   22.4190   35.2200 H   0  0  0  0  0  0  0  0  0  0  0  0
   41.0380   22.6280   35.9170 N   0  0  0  0  0  0  0  0  0  0  0  0
   40.0140   23.4810   35.6480 C   0  0  0  0  0  3  0  0  0  0  0  0
   39.0500   23.7260   36.6140 C   0  0  0  0  0  0  0  0  0  0  0  0
   39.1690   23.0840   37.8290 C   0  0  0  0  0  0  0  0  0  0  0  0
   38.2580   23.3580   38.6480 O   0  0  0  0  0  0  0  0  0  0  0  0
   40.1780   22.2400   38.1010 N   0  0  0  0  0  0  0  0  0  0  0  0
   41.0910   22.0360   37.1270 C   0  0  0  0  0  0  0  0  0  0  0  0
   42.0620   21.2400   37.3530 O   0  0  0  0  0  0  0  0  0  0  0  0
   40.2090   21.7900   39.0370 H   0  0  0  0  0  0  0  0  0  0  0  0
  1  6  1  0  0  0  0
  1 11  1  0  0  0  0
  2  1  2  0  0  0  0
  3  4  2  0  0  0  0
  3  2  1  0  0  0  0
  4  5  1  0  0  0  0
  5 10  1  0  0  0  0
  5  6  2  0  0  0  0
  6 24  1  0  0  0  0
  7  2  1  0  0  0  0
  8  3  1  0  0  0  0
  9  4  1  0  0  0  0
 11 17  1  0  0  0  0
 11 22  1  0  0  0  0
 11 12  1  1  0  0  0
 13 14  1  0  0  0  0
 14 20  1  0  0  0  0
 14 15  2  0  0  0  0
 15 21  1  0  0  0  0
 16 15  1  0  0  0  0
 17 16  2  0  0  0  0
 18 13  2  0  0  0  0
 18 17  1  0  0  0  0
 19 13  1  0  0  0  0
 23 22  1  0  0  0  0
 24 25  2  0  0  0  0
 25 26  1  0  0  0  0
 26 29  1  0  0  0  0
 26 28  1  0  0  0  0
 26 27  1  0  0  0  0
 29 33  1  0  0  0  0
 30 31  1  0  0  0  0
 31 37  1  0  0  0  0
 32 31  1  0  0  0  0
 32 33  2  0  0  0  0
 33 34  1  0  0  0  0
 34 36  1  0  0  0  0
 34 35  2  0  0  0  0
 36 39  1  0  0  0  0
 37 38  2  0  0  0  0
 37 36  1  0  0  0  0
M  END
>  <minimizedAffinity>
-6.28146315

$$$$

 OpenBabel03272509443D

 39 41  0  0  1  0  0  0  0  0999 V2000
   36.4060   28.4170   32.0680 C   0  0  0  0  0  0  0  0  0  0  0  0
   35.7140   29.4210   31.3880 C   0  0  0  0  0  0  0  0  0  0  0  0
   34.9860   30.3930   32.0520 C   0  0  0  0  0  0  0  0  0  0  0  0
   34.9390   30.3730   33.4540 C   0  0  0  0  0  0  0  0  0  0  0  0
   35.6220   29.3840   34.1070 C   0  0  0  0  0  0  0  0  0  0  0  0
   36.3410   28.4270   33.4040 C   0  0  0  0  0  0  0  0  0  0  0  0
   35.7600   29.4240   30.3030 H   0  0  0  0  0  0  0  0  0  0  0  0
   34.4910   31.1160   31.4400 H   0  0  0  0  0  0  0  0  0  0  0  0
   34.3560   31.1580   33.8780 H   0  0  0  0  0  0  0  0  0  0  0  0
   35.4890   29.5010   35.1800 H   0  0  0  0  0  0  0  0  0  0  0  0
   37.1370   27.3850   31.3650 C   0  0  2  0  0  0  0  0  0  0  0  0
   37.3990   26.5970   32.1720 H   0  0  0  0  0  0  0  0  0  0  0  0
   40.1040   28.5370   29.6130 C   0  0  0  0  0  0  0  0  0  0  0  0
   41.1500   28.1050   30.4060 C   0  0  0  0  0  0  0  0  0  0  0  0
   40.8490   27.3500   31.5310 C   0  0  0  0  0  0  0  0  0  0  0  0
   39.5330   27.0640   31.8140 N   0  0  0  0  0  0  0  0  0  0  0  0
   38.5810   27.5080   31.0180 C   0  0  0  0  0  0  0  0  0  0  0  0
   38.8540   28.2390   29.9220 N   0  0  0  0  0  0  0  0  0  0  0  0
   40.3220   29.1220   28.7380 H   0  0  0  0  0  0  0  0  0  0  0  0
   42.1500   28.3790   30.1050 H   0  0  0  0  0  0  0  0  0  0  0  0
   41.6520   27.0110   32.1490 H   0  0  0  0  0  0  0  0  0  0  0  0
   36.3690   26.6300   30.6600 O   0  0  0  0  0  0  0  0  0  0  0  0
   36.0790   27.0630   29.8050 H   0  0  0  0  0  0  0  0  0  0  0  0
   36.9910   27.4260   34.2180 C   0  0  0  0  0  3  0  0  0  0  0  0
   37.7370   27.7120   35.2920 C   0  0  0  0  0  3  0  0  0  0  0  0
   38.4120   26.7720   36.2150 C   0  0  0  0  0  0  0  0  0  0  0  0
   38.0240   26.9850   37.2470 H   0  0  0  0  0  0  0  0  0  0  0  0
   39.4880   26.9350   36.2610 H   0  0  0  0  0  0  0  0  0  0  0  0
   37.9430   25.0850   35.8110 S   0  0  0  0  0  0  0  0  0  0  0  0
   41.8040   22.3110   35.4860 H   0  0  0  0  0  0  0  0  0  0  0  0
   41.0040   22.6040   36.0810 N   0  0  0  0  0  0  0  0  0  0  0  0
   40.0920   23.5220   35.6650 C   0  0  0  0  0  3  0  0  0  0  0  0
   39.0430   23.8790   36.4980 C   0  0  0  0  0  0  0  0  0  0  0  0
   38.9640   23.2780   37.7370 C   0  0  0  0  0  0  0  0  0  0  0  0
   37.9880   23.6530   38.4310 O   0  0  0  0  0  0  0  0  0  0  0  0
   39.8620   22.3700   38.1550 N   0  0  0  0  0  0  0  0  0  0  0  0
   40.8650   22.0580   37.3060 C   0  0  0  0  0  0  0  0  0  0  0  0
   41.7340   21.1990   37.6710 O   0  0  0  0  0  0  0  0  0  0  0  0
   39.7450   21.9560   39.1010 H   0  0  0  0  0  0  0  0  0  0  0  0
  1  6  1  0  0  0  0
  2  3  1  0  0  0  0
  2  1  2  0  0  0  0
  3  4  2  0  0  0  0
  4  9  1  0  0  0  0
  4  5  1  0  0  0  0
  5 10  1  0  0  0  0
  6  5  2  0  0  0  0
  6 24  1  0  0  0  0
  7  2  1  0  0  0  0
  8  3  1  0  0  0  0
 11  1  1  0  0  0  0
 11 12  1  1  0  0  0
 13 18  2  0  0  0  0
 13 14  1  0  0  0  0
 14 15  2  0  0  0  0
 15 16  1  0  0  0  0
 15 21  1  0  0  0  0
 17 11  1  0  0  0  0
 17 16  2  0  0  0  0
 18 17  1  0  0  0  0
 19 13  1  0  0  0  0
 20 14  1  0  0  0  0
 22 11  1  0  0  0  0
 23 22  1  0  0  0  0
 24 25  2  0  0  0  0
 25 26  1  0  0  0  0
 26 28  1  0  0  0  0
 26 27  1  0  0  0  0
 29 26  1  0  0  0  0
 29 33  1  0  0  0  0
 30 31  1  0  0  0  0
 31 37  1  0  0  0  0
 32 31  1  0  0  0  0
 32 33  2  0  0  0  0
 33 34  1  0  0  0  0
 34 36  1  0  0  0  0
 34 35  2  0  0  0  0
 36 39  1  0  0  0  0
 37 38  2  0  0  0  0
 37 36  1  0  0  0  0
M  END
>  <minimizedAffinity>
-6.15391493

$$$$

 OpenBabel03272509443D

 39 41  0  0  1  0  0  0  0  0999 V2000
   38.2860   27.6000   30.7050 C   0  0  0  0  0  0  0  0  0  0  0  0
   38.9770   27.8240   29.5120 C   0  0  0  0  0  0  0  0  0  0  0  0
   40.3580   27.7640   29.4380 C   0  0  0  0  0  0  0  0  0  0  0  0
   41.0920   27.4680   30.5960 C   0  0  0  0  0  0  0  0  0  0  0  0
   40.4020   27.2500   31.7580 C   0  0  0  0  0  0  0  0  0  0  0  0
   39.0160   27.3200   31.7900 C   0  0  0  0  0  0  0  0  0  0  0  0
   38.3960   28.0510   28.6230 H   0  0  0  0  0  0  0  0  0  0  0  0
   40.7900   27.9520   28.4790 H   0  0  0  0  0  0  0  0  0  0  0  0
   42.1460   27.4420   30.4450 H   0  0  0  0  0  0  0  0  0  0  0  0
   41.1030   27.0360   32.5600 H   0  0  0  0  0  0  0  0  0  0  0  0
   36.8450   27.7000   30.7800 C   0  0  2  0  0  0  0  0  0  0  0  0
   36.5180   28.1330   29.7580 H   0  0  0  0  0  0  0  0  0  0  0  0
   34.5840   29.3490   33.0980 C   0  0  0  0  0  0  0  0  0  0  0  0
   34.9730   30.6750   33.0580 C   0  0  0  0  0  0  0  0  0  0  0  0
   35.9850   31.0340   32.1790 C   0  0  0  0  0  0  0  0  0  0  0  0
   36.5610   30.0650   31.3880 N   0  0  0  0  0  0  0  0  0  0  0  0
   36.1460   28.8180   31.4750 C   0  0  0  0  0  0  0  0  0  0  0  0
   35.1640   28.4520   32.3200 N   0  0  0  0  0  0  0  0  0  0  0  0
   33.8020   29.0570   33.7740 H   0  0  0  0  0  0  0  0  0  0  0  0
   34.4650   31.3630   33.7160 H   0  0  0  0  0  0  0  0  0  0  0  0
   36.2910   32.0570   32.1410 H   0  0  0  0  0  0  0  0  0  0  0  0
   36.2640   26.5590   30.6540 O   0  0  0  0  0  0  0  0  0  0  0  0
   36.3090   26.0060   31.4880 H   0  0  0  0  0  0  0  0  0  0  0  0
   38.4190   27.0960   33.0860 C   0  0  0  0  0  3  0  0  0  0  0  0
   39.1140   27.0740   34.2300 C   0  0  0  0  0  3  0  0  0  0  0  0
   38.6050   26.8940   35.6090 C   0  0  0  0  0  0  0  0  0  0  0  0
   37.8070   27.6680   35.7700 H   0  0  0  0  0  0  0  0  0  0  0  0
   39.3670   27.0880   36.3620 H   0  0  0  0  0  0  0  0  0  0  0  0
   37.8200   25.2850   35.7580 S   0  0  0  0  0  0  0  0  0  0  0  0
   41.6460   22.4490   35.5940 H   0  0  0  0  0  0  0  0  0  0  0  0
   40.8310   22.7590   36.1580 N   0  0  0  0  0  0  0  0  0  0  0  0
   39.9480   23.6880   35.7020 C   0  0  0  0  0  3  0  0  0  0  0  0
   38.8750   24.0670   36.4930 C   0  0  0  0  0  0  0  0  0  0  0  0
   38.7420   23.4780   37.7330 C   0  0  0  0  0  0  0  0  0  0  0  0
   37.7480   23.8730   38.3880 O   0  0  0  0  0  0  0  0  0  0  0  0
   39.6100   22.5590   38.1910 N   0  0  0  0  0  0  0  0  0  0  0  0
   40.6380   22.2250   37.3810 C   0  0  0  0  0  0  0  0  0  0  0  0
   41.4800   21.3560   37.7840 O   0  0  0  0  0  0  0  0  0  0  0  0
   39.4520   22.1550   39.1350 H   0  0  0  0  0  0  0  0  0  0  0  0
  1 11  1  0  0  0  0
  1  6  1  0  0  0  0
  2  1  2  0  0  0  0
  3  2  1  0  0  0  0
  3  4  2  0  0  0  0
  4  5  1  0  0  0  0
  5  6  2  0  0  0  0
  5 10  1  0  0  0  0
  6 24  1  0  0  0  0
  7  2  1  0  0  0  0
  8  3  1  0  0  0  0
  9  4  1  0  0  0  0
 11 12  1  6  0  0  0
 11 17  1  0  0  0  0
 13 19  1  0  0  0  0
 14 13  1  0  0  0  0
 14 20  1  0  0  0  0
 15 14  2  0  0  0  0
 16 17  2  0  0  0  0
 16 15  1  0  0  0  0
 17 18  1  0  0  0  0
 18 13  2  0  0  0  0
 21 15  1  0  0  0  0
 22 11  1  0  0  0  0
 22 23  1  0  0  0  0
 24 25  2  0  0  0  0
 25 26  1  0  0  0  0
 26 29  1  0  0  0  0
 26 27  1  0  0  0  0
 26 28  1  0  0  0  0
 29 33  1  0  0  0  0
 30 31  1  0  0  0  0
 31 37  1  0  0  0  0
 32 31  1  0  0  0  0
 32 33  2  0  0  0  0
 33 34  1  0  0  0  0
 34 36  1  0  0  0  0
 34 35  2  0  0  0  0
 36 39  1  0  0  0  0
 37 38  2  0  0  0  0
 37 36  1  0  0  0  0
M  END
>  <minimizedAffinity>
-5.93764877

$$$$

 OpenBabel03272509443D

 39 41  0  0  1  0  0  0  0  0999 V2000
   36.6900   27.6700   32.2750 C   0  0  0  0  0  0  0  0  0  0  0  0
   35.6270   28.5650   32.1430 C   0  0  0  0  0  0  0  0  0  0  0  0
   35.1610   29.3180   33.2070 C   0  0  0  0  0  0  0  0  0  0  0  0
   35.7740   29.1800   34.4610 C   0  0  0  0  0  0  0  0  0  0  0  0
   36.8150   28.2990   34.5760 C   0  0  0  0  0  0  0  0  0  0  0  0
   37.2520   27.5630   33.4840 C   0  0  0  0  0  0  0  0  0  0  0  0
   35.1630   28.6620   31.1660 H   0  0  0  0  0  0  0  0  0  0  0  0
   34.3420   29.9730   33.0020 H   0  0  0  0  0  0  0  0  0  0  0  0
   35.3510   29.7970   35.2190 H   0  0  0  0  0  0  0  0  0  0  0  0
   37.1800   28.3030   35.6000 H   0  0  0  0  0  0  0  0  0  0  0  0
   37.1470   26.8620   31.1650 C   0  0  2  0  0  0  0  0  0  0  0  0
   36.3910   27.0630   30.3130 H   0  0  0  0  0  0  0  0  0  0  0  0
   37.8340   23.3150   30.7720 C   0  0  0  0  0  0  0  0  0  0  0  0
   36.6470   22.7030   31.1280 C   0  0  0  0  0  0  0  0  0  0  0  0
   35.5650   23.5110   31.4500 C   0  0  0  0  0  0  0  0  0  0  0  0
   35.7140   24.8790   31.4060 N   0  0  0  0  0  0  0  0  0  0  0  0
   36.8730   25.4010   31.0600 C   0  0  0  0  0  0  0  0  0  0  0  0
   37.9320   24.6330   30.7430 N   0  0  0  0  0  0  0  0  0  0  0  0
   38.6800   22.7030   30.5210 H   0  0  0  0  0  0  0  0  0  0  0  0
   36.6260   21.6240   31.1360 H   0  0  0  0  0  0  0  0  0  0  0  0
   34.6430   23.0460   31.7250 H   0  0  0  0  0  0  0  0  0  0  0  0
   38.1750   27.3660   30.5780 O   0  0  0  0  0  0  0  0  0  0  0  0
   39.0250   27.2170   31.0870 H   0  0  0  0  0  0  0  0  0  0  0  0
   38.3390   26.6510   33.7530 C   0  0  0  0  0  3  0  0  0  0  0  0
   39.5310   27.0350   34.2240 C   0  0  0  0  0  3  0  0  0  0  0  0
   40.6970   26.1900   34.5710 C   0  0  0  0  0  0  0  0  0  0  0  0
   40.9590   26.4110   35.6410 H   0  0  0  0  0  0  0  0  0  0  0  0
   41.5810   26.4420   33.9880 H   0  0  0  0  0  0  0  0  0  0  0  0
   40.2320   24.4570   34.4870 S   0  0  0  0  0  0  0  0  0  0  0  0
   36.4640   24.1220   37.3860 H   0  0  0  0  0  0  0  0  0  0  0  0
   37.4580   23.8590   37.2350 N   0  0  0  0  0  0  0  0  0  0  0  0
   38.1480   24.2480   36.1310 C   0  0  0  0  0  3  0  0  0  0  0  0
   39.4740   23.8720   35.9780 C   0  0  0  0  0  0  0  0  0  0  0  0
   40.0500   23.1050   36.9700 C   0  0  0  0  0  0  0  0  0  0  0  0
   41.2510   22.8070   36.7580 O   0  0  0  0  0  0  0  0  0  0  0  0
   39.3740   22.7180   38.0640 N   0  0  0  0  0  0  0  0  0  0  0  0
   38.0860   23.1100   38.1640 C   0  0  0  0  0  0  0  0  0  0  0  0
   37.4150   22.7590   39.1910 O   0  0  0  0  0  0  0  0  0  0  0  0
   39.8680   22.1400   38.7730 H   0  0  0  0  0  0  0  0  0  0  0  0
  1  6  1  0  0  0  0
  2  1  2  0  0  0  0
  2  3  1  0  0  0  0
  3  4  2  0  0  0  0
  4  5  1  0  0  0  0
  4  9  1  0  0  0  0
  5 10  1  0  0  0  0
  6 24  1  0  0  0  0
  6  5  2  0  0  0  0
  7  2  1  0  0  0  0
  8  3  1  0  0  0  0
 11 12  1  6  0  0  0
 11  1  1  0  0  0  0
 13 14  1  0  0  0  0
 14 20  1  0  0  0  0
 14 15  2  0  0  0  0
 15 21  1  0  0  0  0
 16 15  1  0  0  0  0
 17 11  1  0  0  0  0
 17 16  2  0  0  0  0
 18 13  2  0  0  0  0
 18 17  1  0  0  0  0
 19 13  1  0  0  0  0
 22 23  1  0  0  0  0
 22 11  1  0  0  0  0
 24 25  2  0  0  0  0
 25 26  1  0  0  0  0
 26 27  1  0  0  0  0
 28 26  1  0  0  0  0
 29 26  1  0  0  0  0
 29 33  1  0  0  0  0
 31 30  1  0  0  0  0
 31 37  1  0  0  0  0
 32 31  1  0  0  0  0
 33 32  2  0  0  0  0
 33 34  1  0  0  0  0
 34 36  1  0  0  0  0
 35 34  2  0  0  0  0
 36 37  1  0  0  0  0
 36 39  1  0  0  0  0
 37 38  2  0  0  0  0
M  END
>  <minimizedAffinity>
-5.82939768

$$$$

 OpenBabel03272509443D

 39 41  0  0  1  0  0  0  0  0999 V2000
   36.9200   22.8630   31.6800 C   0  0  0  0  0  0  0  0  0  0  0  0
   35.6310   22.4140   31.3850 C   0  0  0  0  0  0  0  0  0  0  0  0
   35.1930   21.1490   31.7360 C   0  0  0  0  0  0  0  0  0  0  0  0
   36.0700   20.2850   32.4100 C   0  0  0  0  0  0  0  0  0  0  0  0
   37.3300   20.7390   32.6930 C   0  0  0  0  0  0  0  0  0  0  0  0
   37.7300   22.0150   32.3230 C   0  0  0  0  0  0  0  0  0  0  0  0
   34.9630   23.0930   30.8630 H   0  0  0  0  0  0  0  0  0  0  0  0
   34.1900   20.9010   31.4630 H   0  0  0  0  0  0  0  0  0  0  0  0
   35.6480   19.3350   32.6400 H   0  0  0  0  0  0  0  0  0  0  0  0
   37.8840   19.9620   33.2120 H   0  0  0  0  0  0  0  0  0  0  0  0
   37.3800   24.1740   31.2780 C   0  0  2  0  0  0  0  0  0  0  0  0
   38.4330   24.2820   31.7460 H   0  0  0  0  0  0  0  0  0  0  0  0
   37.1980   26.7190   33.8650 C   0  0  0  0  0  0  0  0  0  0  0  0
   36.5400   27.7700   33.2550 C   0  0  0  0  0  0  0  0  0  0  0  0
   36.0890   27.5930   31.9550 C   0  0  0  0  0  0  0  0  0  0  0  0
   36.3140   26.3900   31.3250 N   0  0  0  0  0  0  0  0  0  0  0  0
   36.9510   25.4270   31.9610 C   0  0  0  0  0  0  0  0  0  0  0  0
   37.3930   25.5810   33.2230 N   0  0  0  0  0  0  0  0  0  0  0  0
   37.5530   26.8420   34.8720 H   0  0  0  0  0  0  0  0  0  0  0  0
   36.4100   28.6760   33.8270 H   0  0  0  0  0  0  0  0  0  0  0  0
   35.5780   28.4000   31.4760 H   0  0  0  0  0  0  0  0  0  0  0  0
   37.7560   24.2100   30.0480 O   0  0  0  0  0  0  0  0  0  0  0  0
   36.9870   24.2410   29.4070 H   0  0  0  0  0  0  0  0  0  0  0  0
   39.0930   22.3530   32.6590 C   0  0  0  0  0  3  0  0  0  0  0  0
   39.9450   21.5050   33.2470 C   0  0  0  0  0  3  0  0  0  0  0  0
   41.3660   21.7290   33.5980 C   0  0  0  0  0  0  0  0  0  0  0  0
   41.9160   21.9350   32.6400 H   0  0  0  0  0  0  0  0  0  0  0  0
   41.8330   20.8440   34.0270 H   0  0  0  0  0  0  0  0  0  0  0  0
   41.5110   23.2010   34.6180 S   0  0  0  0  0  0  0  0  0  0  0  0
   37.6710   24.8920   36.8760 H   0  0  0  0  0  0  0  0  0  0  0  0
   38.4550   24.2120   36.9070 N   0  0  0  0  0  0  0  0  0  0  0  0
   39.3730   24.1210   35.9080 C   0  0  0  0  0  3  0  0  0  0  0  0
   40.4020   23.1960   35.9990 C   0  0  0  0  0  0  0  0  0  0  0  0
   40.4560   22.3920   37.1180 C   0  0  0  0  0  0  0  0  0  0  0  0
   41.4150   21.5820   37.1260 O   0  0  0  0  0  0  0  0  0  0  0  0
   39.5530   22.4770   38.1100 N   0  0  0  0  0  0  0  0  0  0  0  0
   38.5700   23.3930   37.9730 C   0  0  0  0  0  0  0  0  0  0  0  0
   37.6970   23.5000   38.8960 O   0  0  0  0  0  0  0  0  0  0  0  0
   39.6510   21.8400   38.9260 H   0  0  0  0  0  0  0  0  0  0  0  0
  1  6  1  0  0  0  0
  2  1  2  0  0  0  0
  2  3  1  0  0  0  0
  3  4  2  0  0  0  0
  4  9  1  0  0  0  0
  4  5  1  0  0  0  0
  5 10  1  0  0  0  0
  6 24  1  0  0  0  0
  6  5  2  0  0  0  0
  7  2  1  0  0  0  0
  8  3  1  0  0  0  0
 11  1  1  0  0  0  0
 11 12  1  1  0  0  0
 11 17  1  0  0  0  0
 13 19  1  0  0  0  0
 14 20  1  0  0  0  0
 14 13  1  0  0  0  0
 15 14  2  0  0  0  0
 16 15  1  0  0  0  0
 16 17  2  0  0  0  0
 17 18  1  0  0  0  0
 18 13  2  0  0  0  0
 21 15  1  0  0  0  0
 22 11  1  0  0  0  0
 23 22  1  0  0  0  0
 24 25  2  0  0  0  0
 25 26  1  0  0  0  0
 26 28  1  0  0  0  0
 26 29  1  0  0  0  0
 27 26  1  0  0  0  0
 29 33  1  0  0  0  0
 30 31  1  0  0  0  0
 31 37  1  0  0  0  0
 32 33  2  0  0  0  0
 32 31  1  0  0  0  0
 33 34  1  0  0  0  0
 34 35  2  0  0  0  0
 34 36  1  0  0  0  0
 36 39  1  0  0  0  0
 37 36  1  0  0  0  0
 37 38  2  0  0  0  0
M  END
>  <minimizedAffinity>
-5.76726866

$$$$

 OpenBabel03272509443D

 39 41  0  0  1  0  0  0  0  0999 V2000
   36.5650   28.2450   31.9180 C   0  0  0  0  0  0  0  0  0  0  0  0
   35.7940   29.4060   32.0030 C   0  0  0  0  0  0  0  0  0  0  0  0
   35.3950   29.9380   33.2160 C   0  0  0  0  0  0  0  0  0  0  0  0
   35.7740   29.2930   34.4030 C   0  0  0  0  0  0  0  0  0  0  0  0
   36.5300   28.1560   34.3050 C   0  0  0  0  0  0  0  0  0  0  0  0
   36.9100   27.6550   33.0680 C   0  0  0  0  0  0  0  0  0  0  0  0
   35.5090   29.8950   31.0760 H   0  0  0  0  0  0  0  0  0  0  0  0
   34.8060   30.8290   33.1730 H   0  0  0  0  0  0  0  0  0  0  0  0
   35.4230   29.7730   35.2870 H   0  0  0  0  0  0  0  0  0  0  0  0
   36.7410   27.7760   35.3010 H   0  0  0  0  0  0  0  0  0  0  0  0
   36.9490   27.6770   30.6440 C   0  0  2  0  0  0  0  0  0  0  0  0
   37.6540   26.7970   30.9050 H   0  0  0  0  0  0  0  0  0  0  0  0
   38.4150   29.6330   27.9550 C   0  0  0  0  0  0  0  0  0  0  0  0
   39.7610   29.6730   28.2670 C   0  0  0  0  0  0  0  0  0  0  0  0
   40.1960   28.9690   29.3800 C   0  0  0  0  0  0  0  0  0  0  0  0
   39.2800   28.2650   30.1290 N   0  0  0  0  0  0  0  0  0  0  0  0
   38.0090   28.2680   29.7800 C   0  0  0  0  0  0  0  0  0  0  0  0
   37.5700   28.9440   28.7020 N   0  0  0  0  0  0  0  0  0  0  0  0
   38.0640   30.1730   27.0960 H   0  0  0  0  0  0  0  0  0  0  0  0
   40.4040   30.2530   27.6220 H   0  0  0  0  0  0  0  0  0  0  0  0
   41.2350   28.9940   29.6280 H   0  0  0  0  0  0  0  0  0  0  0  0
   36.0120   26.9690   30.1170 O   0  0  0  0  0  0  0  0  0  0  0  0
   35.2940   27.5260   29.6970 H   0  0  0  0  0  0  0  0  0  0  0  0
   37.6820   26.4350   33.1100 C   0  0  0  0  0  3  0  0  0  0  0  0
   39.0040   26.3990   33.3090 C   0  0  0  0  0  3  0  0  0  0  0  0
   39.8850   25.2120   33.4100 C   0  0  0  0  0  0  0  0  0  0  0  0
   40.9240   25.5480   33.1460 H   0  0  0  0  0  0  0  0  0  0  0  0
   39.6270   24.4410   32.6860 H   0  0  0  0  0  0  0  0  0  0  0  0
   39.9300   24.6360   35.1110 S   0  0  0  0  0  0  0  0  0  0  0  0
   36.9360   21.1830   33.7600 H   0  0  0  0  0  0  0  0  0  0  0  0
   37.2690   21.7710   34.5490 N   0  0  0  0  0  0  0  0  0  0  0  0
   38.2440   22.7060   34.3920 C   0  0  0  0  0  3  0  0  0  0  0  0
   38.6520   23.4660   35.4770 C   0  0  0  0  0  0  0  0  0  0  0  0
   38.0410   23.2410   36.6940 C   0  0  0  0  0  0  0  0  0  0  0  0
   38.4650   23.9670   37.6260 O   0  0  0  0  0  0  0  0  0  0  0  0
   37.0760   22.3200   36.8560 N   0  0  0  0  0  0  0  0  0  0  0  0
   36.7160   21.6060   35.7680 C   0  0  0  0  0  0  0  0  0  0  0  0
   35.8030   20.7230   35.8860 O   0  0  0  0  0  0  0  0  0  0  0  0
   36.6590   22.2000   37.8000 H   0  0  0  0  0  0  0  0  0  0  0  0
  1  2  2  0  0  0  0
  1  6  1  0  0  0  0
  2  3  1  0  0  0  0
  3  4  2  0  0  0  0
  4  9  1  0  0  0  0
  5  4  1  0  0  0  0
  5 10  1  0  0  0  0
  6 24  1  0  0  0  0
  6  5  2  0  0  0  0
  7  2  1  0  0  0  0
  8  3  1  0  0  0  0
 11 12  1  1  0  0  0
 11  1  1  0  0  0  0
 13 14  2  0  0  0  0
 13 18  1  0  0  0  0
 14 15  1  0  0  0  0
 15 21  1  0  0  0  0
 15 16  2  0  0  0  0
 17 16  1  0  0  0  0
 17 11  1  0  0  0  0
 18 17  2  0  0  0  0
 19 13  1  0  0  0  0
 20 14  1  0  0  0  0
 22 11  1  0  0  0  0
 23 22  1  0  0  0  0
 24 25  2  0  0  0  0
 25 26  1  0  0  0  0
 26 29  1  0  0  0  0
 27 26  1  0  0  0  0
 28 26  1  0  0  0  0
 29 33  1  0  0  0  0
 30 31  1  0  0  0  0
 31 37  1  0  0  0  0
 32 31  1  0  0  0  0
 32 33  2  0  0  0  0
 33 34  1  0  0  0  0
 34 36  1  0  0  0  0
 34 35  2  0  0  0  0
 36 39  1  0  0  0  0
 37 38  2  0  0  0  0
 37 36  1  0  0  0  0
M  END
>  <minimizedAffinity>
-5.66919804

$$$$

 OpenBabel03272509443D

 39 41  0  0  1  0  0  0  0  0999 V2000
   36.3770   28.1720   31.8840 C   0  0  0  0  0  0  0  0  0  0  0  0
   35.3800   29.1460   31.9680 C   0  0  0  0  0  0  0  0  0  0  0  0
   34.9670   29.6750   33.1780 C   0  0  0  0  0  0  0  0  0  0  0  0
   35.5660   29.2200   34.3630 C   0  0  0  0  0  0  0  0  0  0  0  0
   36.5420   28.2650   34.2650 C   0  0  0  0  0  0  0  0  0  0  0  0
   36.9280   27.7610   33.0310 C   0  0  0  0  0  0  0  0  0  0  0  0
   34.9260   29.4890   31.0430 H   0  0  0  0  0  0  0  0  0  0  0  0
   34.1960   30.4140   33.1350 H   0  0  0  0  0  0  0  0  0  0  0  0
   35.1870   29.6820   35.2440 H   0  0  0  0  0  0  0  0  0  0  0  0
   36.9050   28.0180   35.2590 H   0  0  0  0  0  0  0  0  0  0  0  0
   36.7770   27.6000   30.6170 C   0  0  2  0  0  0  0  0  0  0  0  0
   37.5730   26.8030   30.8830 H   0  0  0  0  0  0  0  0  0  0  0  0
   39.8640   28.1190   28.7700 C   0  0  0  0  0  0  0  0  0  0  0  0
   39.5530   29.1240   27.8740 C   0  0  0  0  0  0  0  0  0  0  0  0
   38.2860   29.6860   27.9360 C   0  0  0  0  0  0  0  0  0  0  0  0
   37.3920   29.2240   28.8770 N   0  0  0  0  0  0  0  0  0  0  0  0
   37.7500   28.2610   29.7010 C   0  0  0  0  0  0  0  0  0  0  0  0
   38.9750   27.7060   29.6570 N   0  0  0  0  0  0  0  0  0  0  0  0
   40.8410   27.6740   28.7340 H   0  0  0  0  0  0  0  0  0  0  0  0
   40.3170   29.4190   27.1720 H   0  0  0  0  0  0  0  0  0  0  0  0
   38.0370   30.4650   27.2480 H   0  0  0  0  0  0  0  0  0  0  0  0
   35.9000   26.7870   30.1420 O   0  0  0  0  0  0  0  0  0  0  0  0
   35.1190   27.2560   29.7280 H   0  0  0  0  0  0  0  0  0  0  0  0
   37.9480   26.7390   33.0760 C   0  0  0  0  0  3  0  0  0  0  0  0
   39.1920   26.9510   33.5210 C   0  0  0  0  0  3  0  0  0  0  0  0
   40.2990   25.9750   33.6480 C   0  0  0  0  0  0  0  0  0  0  0  0
   40.8120   26.1830   34.6260 H   0  0  0  0  0  0  0  0  0  0  0  0
   41.0580   26.1050   32.8790 H   0  0  0  0  0  0  0  0  0  0  0  0
   39.6290   24.3110   33.7440 S   0  0  0  0  0  0  0  0  0  0  0  0
   36.8490   24.6630   37.5980 H   0  0  0  0  0  0  0  0  0  0  0  0
   37.6750   24.1970   37.1750 N   0  0  0  0  0  0  0  0  0  0  0  0
   38.0980   24.4810   35.9150 C   0  0  0  0  0  3  0  0  0  0  0  0
   39.2070   23.8310   35.3960 C   0  0  0  0  0  0  0  0  0  0  0  0
   39.8490   22.9050   36.1930 C   0  0  0  0  0  0  0  0  0  0  0  0
   40.8420   22.3600   35.6530 O   0  0  0  0  0  0  0  0  0  0  0  0
   39.4360   22.6190   37.4400 N   0  0  0  0  0  0  0  0  0  0  0  0
   38.3510   23.2800   37.8970 C   0  0  0  0  0  0  0  0  0  0  0  0
   37.9320   23.0330   39.0760 O   0  0  0  0  0  0  0  0  0  0  0  0
   39.9650   21.9110   37.9860 H   0  0  0  0  0  0  0  0  0  0  0  0
  1  2  2  0  0  0  0
  1  6  1  0  0  0  0
  2  3  1  0  0  0  0
  3  4  2  0  0  0  0
  4  9  1  0  0  0  0
  5  4  1  0  0  0  0
  5 10  1  0  0  0  0
  6 24  1  0  0  0  0
  6  5  2  0  0  0  0
  7  2  1  0  0  0  0
  8  3  1  0  0  0  0
 11 12  1  1  0  0  0
 11  1  1  0  0  0  0
 13 18  1  0  0  0  0
 14 15  1  0  0  0  0
 14 13  2  0  0  0  0
 15 16  2  0  0  0  0
 16 17  1  0  0  0  0
 17 11  1  0  0  0  0
 18 17  2  0  0  0  0
 19 13  1  0  0  0  0
 20 14  1  0  0  0  0
 21 15  1  0  0  0  0
 22 11  1  0  0  0  0
 23 22  1  0  0  0  0
 24 25  2  0  0  0  0
 25 26  1  0  0  0  0
 26 29  1  0  0  0  0
 26 27  1  0  0  0  0
 28 26  1  0  0  0  0
 29 33  1  0  0  0  0
 31 30  1  0  0  0  0
 31 37  1  0  0  0  0
 32 31  1  0  0  0  0
 33 32  2  0  0  0  0
 33 34  1  0  0  0  0
 34 36  1  0  0  0  0
 35 34  2  0  0  0  0
 36 37  1  0  0  0  0
 36 39  1  0  0  0  0
 37 38  2  0  0  0  0
M  END
>  <minimizedAffinity>
-5.58200884

$$$$

 OpenBabel03272509443D

 39 41  0  0  1  0  0  0  0  0999 V2000
   35.8650   29.8920   32.4660 C   0  0  0  0  0  0  0  0  0  0  0  0
   35.8570   30.9610   31.5690 C   0  0  0  0  0  0  0  0  0  0  0  0
   36.5300   30.9140   30.3600 C   0  0  0  0  0  0  0  0  0  0  0  0
   37.2460   29.7570   30.0220 C   0  0  0  0  0  0  0  0  0  0  0  0
   37.2460   28.7160   30.9110 C   0  0  0  0  0  0  0  0  0  0  0  0
   36.5570   28.8030   32.1130 C   0  0  0  0  0  0  0  0  0  0  0  0
   35.2970   31.8510   31.8430 H   0  0  0  0  0  0  0  0  0  0  0  0
   36.4620   31.7860   29.7450 H   0  0  0  0  0  0  0  0  0  0  0  0
   37.7310   29.8100   29.0750 H   0  0  0  0  0  0  0  0  0  0  0  0
   37.8400   27.8990   30.5110 H   0  0  0  0  0  0  0  0  0  0  0  0
   35.1870   29.9640   33.7420 C   0  0  2  0  0  0  0  0  0  0  0  0
   35.5620   29.0430   34.3360 H   0  0  0  0  0  0  0  0  0  0  0  0
   32.0220   29.4110   35.4390 C   0  0  0  0  0  0  0  0  0  0  0  0
   31.1580   29.0460   34.4250 C   0  0  0  0  0  0  0  0  0  0  0  0
   31.6710   28.9210   33.1420 C   0  0  0  0  0  0  0  0  0  0  0  0
   33.0090   29.1670   32.9280 N   0  0  0  0  0  0  0  0  0  0  0  0
   33.7800   29.5140   33.9380 C   0  0  0  0  0  0  0  0  0  0  0  0
   33.3000   29.6370   35.1890 N   0  0  0  0  0  0  0  0  0  0  0  0
   31.6390   29.5110   36.4380 H   0  0  0  0  0  0  0  0  0  0  0  0
   30.1250   28.8750   34.6870 H   0  0  0  0  0  0  0  0  0  0  0  0
   31.0100   28.6380   32.3510 H   0  0  0  0  0  0  0  0  0  0  0  0
   35.6890   30.8590   34.5190 O   0  0  0  0  0  0  0  0  0  0  0  0
   35.4070   31.7880   34.2730 H   0  0  0  0  0  0  0  0  0  0  0  0
   36.6650   27.6440   32.9680 C   0  0  0  0  0  3  0  0  0  0  0  0
   37.2460   26.4980   32.5960 C   0  0  0  0  0  3  0  0  0  0  0  0
   37.4460   25.2690   33.3970 C   0  0  0  0  0  0  0  0  0  0  0  0
   38.2890   24.6980   32.9220 H   0  0  0  0  0  0  0  0  0  0  0  0
   36.5820   24.6070   33.3660 H   0  0  0  0  0  0  0  0  0  0  0  0
   37.9740   25.7080   35.0570 S   0  0  0  0  0  0  0  0  0  0  0  0
   38.6750   22.2360   38.2440 H   0  0  0  0  0  0  0  0  0  0  0  0
   39.0940   22.7910   37.4730 N   0  0  0  0  0  0  0  0  0  0  0  0
   38.4010   23.7640   36.8240 C   0  0  0  0  0  3  0  0  0  0  0  0
   39.0080   24.4780   35.8020 C   0  0  0  0  0  0  0  0  0  0  0  0
   40.3120   24.1670   35.4770 C   0  0  0  0  0  0  0  0  0  0  0  0
   40.7890   24.8560   34.5430 O   0  0  0  0  0  0  0  0  0  0  0  0
   41.0030   23.2070   36.1150 N   0  0  0  0  0  0  0  0  0  0  0  0
   40.3660   22.5420   37.1030 C   0  0  0  0  0  0  0  0  0  0  0  0
   40.9930   21.6230   37.7290 O   0  0  0  0  0  0  0  0  0  0  0  0
   41.9820   23.0220   35.8200 H   0  0  0  0  0  0  0  0  0  0  0  0
  1 11  1  0  0  0  0
  2  7  1  0  0  0  0
  2  1  2  0  0  0  0
  3  2  1  0  0  0  0
  4  3  2  0  0  0  0
  4  5  1  0  0  0  0
  5  6  2  0  0  0  0
  6  1  1  0  0  0  0
  6 24  1  0  0  0  0
  8  3  1  0  0  0  0
  9  4  1  0  0  0  0
 10  5  1  0  0  0  0
 11 17  1  0  0  0  0
 11 12  1  1  0  0  0
 11 22  1  0  0  0  0
 13 19  1  0  0  0  0
 14 20  1  0  0  0  0
 14 13  2  0  0  0  0
 15 14  1  0  0  0  0
 16 15  2  0  0  0  0
 16 17  1  0  0  0  0
 17 18  2  0  0  0  0
 18 13  1  0  0  0  0
 21 15  1  0  0  0  0
 23 22  1  0  0  0  0
 25 24  2  0  0  0  0
 25 26  1  0  0  0  0
 26 29  1  0  0  0  0
 27 26  1  0  0  0  0
 28 26  1  0  0  0  0
 29 33  1  0  0  0  0
 31 30  1  0  0  0  0
 32 31  1  0  0  0  0
 33 32  2  0  0  0  0
 34 33  1  0  0  0  0
 34 36  1  0  0  0  0
 35 34  2  0  0  0  0
 36 37  1  0  0  0  0
 37 31  1  0  0  0  0
 37 38  2  0  0  0  0
 39 36  1  0  0  0  0
M  END
>  <minimizedAffinity>
-5.51504087

$$$$
