
 OpenBabel03272501283D

 40 43  0  0  1  0  0  0  0  0999 V2000
   36.6880   27.9120   33.0500 C   0  0  0  0  0  0  0  0  0  0  0  0
   36.9980   28.0970   31.6970 C   0  0  0  0  0  0  0  0  0  0  0  0
   36.1210   29.0600   31.1860 C   0  0  0  0  0  0  0  0  0  0  0  0
   35.3330   29.4160   32.2150 N   0  0  0  0  0  0  0  0  0  0  0  0
   35.6930   28.7220   33.2950 N   0  0  0  0  0  0  0  0  0  0  0  0
   37.7840   27.5880   31.1220 H   0  0  0  0  0  0  0  0  0  0  0  0
   36.0820   29.4450   30.1680 H   0  0  0  0  0  0  0  0  0  0  0  0
   37.5400   27.1110   35.2530 C   0  0  0  0  0  0  0  0  0  0  0  0
   37.4210   26.9710   33.8710 C   0  0  0  0  0  0  0  0  0  0  0  0
   38.0420   25.8720   33.2880 C   0  0  0  0  0  0  0  0  0  0  0  0
   38.7170   25.0210   34.1070 N   0  0  0  0  0  0  0  0  0  0  0  0
   38.8100   25.1900   35.4390 C   0  0  0  0  0  0  0  0  0  0  0  0
   38.1980   26.2770   36.0340 N   0  0  0  0  0  0  0  0  0  0  0  0
   37.0740   27.9500   35.7490 H   0  0  0  0  0  0  0  0  0  0  0  0
   37.9750   25.7250   32.2180 H   0  0  0  0  0  0  0  0  0  0  0  0
   39.5830   24.1310   36.0160 N   0  0  0  0  0  0  0  0  0  0  0  0
   40.8210   23.8200   35.5890 C   0  0  0  0  0  3  0  0  0  0  0  0
   41.5320   22.7740   36.1890 C   0  0  0  0  0  0  0  0  0  0  0  0
   42.5160   22.5100   35.8660 H   0  0  0  0  0  0  0  0  0  0  0  0
   40.8570   22.1340   37.2090 C   0  0  0  0  0  0  0  0  0  0  0  0
   41.4810   21.1740   37.7750 O   0  0  0  0  0  0  0  0  0  0  0  0
   39.6190   22.4520   37.6300 N   0  0  0  0  0  0  0  0  0  0  0  0
   38.9620   23.4800   37.0160 C   0  0  0  0  0  0  0  0  0  0  0  0
   37.8250   23.7200   37.4520 O   0  0  0  0  0  0  0  0  0  0  0  0
   39.1870   21.8960   38.4250 H   0  0  0  0  0  0  0  0  0  0  0  0
   33.9950   30.9550   30.9460 N   0  0  0  0  0  0  0  0  0  0  0  0
   32.6710   31.5280   31.0720 C   0  0  0  0  0  0  0  0  0  0  0  0
   32.0130   30.9070   32.2980 C   0  0  0  0  0  0  0  0  0  0  0  0
   32.9480   29.7290   32.5860 C   0  0  0  0  0  0  0  0  0  0  0  0
   34.2730   30.3590   32.2420 C   0  0  1  0  0  0  0  0  0  0  0  0
   34.0780   30.2450   30.1930 H   0  0  0  0  0  0  0  0  0  0  0  0
   32.8200   32.6080   31.2960 H   0  0  0  0  0  0  0  0  0  0  0  0
   32.0530   31.4110   30.1730 H   0  0  0  0  0  0  0  0  0  0  0  0
   31.9940   31.6020   33.1460 H   0  0  0  0  0  0  0  0  0  0  0  0
   31.0060   30.5530   31.9980 H   0  0  0  0  0  0  0  0  0  0  0  0
   32.6880   28.8880   31.9270 H   0  0  0  0  0  0  0  0  0  0  0  0
   32.9370   29.4950   33.6560 H   0  0  0  0  0  0  0  0  0  0  0  0
   34.5580   31.3660   33.2350 N   0  0  0  0  0  0  0  0  0  0  0  0
   35.2670   32.0110   32.8360 H   0  0  0  0  0  0  0  0  0  0  0  0
   34.9410   30.8950   34.0710 H   0  0  0  0  0  0  0  0  0  0  0  0
  1  5  2  0  0  0  0
  1  9  1  0  0  0  0
  2  1  1  0  0  0  0
  3  2  2  0  0  0  0
  3  4  1  0  0  0  0
  4 30  1  0  0  0  0
  4  5  1  0  0  0  0
  6  2  1  0  0  0  0
  7  3  1  0  0  0  0
  8 14  1  0  0  0  0
  8 13  1  0  0  0  0
  9  8  2  0  0  0  0
 10  9  1  0  0  0  0
 10 11  2  0  0  0  0
 11 12  1  0  0  0  0
 12 16  1  0  0  0  0
 12 13  2  0  0  0  0
 15 10  1  0  0  0  0
 16 23  1  0  0  0  0
 17 16  1  0  0  0  0
 17 18  2  0  0  0  0
 18 20  1  0  0  0  0
 19 18  1  0  0  0  0
 20 22  1  0  0  0  0
 20 21  2  0  0  0  0
 22 25  1  0  0  0  0
 23 24  2  0  0  0  0
 23 22  1  0  0  0  0
 26 27  1  0  0  0  0
 26 30  1  0  0  0  0
 27 32  1  0  0  0  0
 27 28  1  0  0  0  0
 28 29  1  0  0  0  0
 28 34  1  0  0  0  0
 29 37  1  0  0  0  0
 30 29  1  0  0  0  0
 30 38  1  1  0  0  0
 31 26  1  0  0  0  0
 33 27  1  0  0  0  0
 35 28  1  0  0  0  0
 36 29  1  0  0  0  0
 38 40  1  0  0  0  0
 39 38  1  0  0  0  0
M  END
>  <minimizedAffinity>
-6.39186335

$$$$

 OpenBabel03272501283D

 40 43  0  0  1  0  0  0  0  0999 V2000
   38.0050   27.3150   32.5840 C   0  0  0  0  0  0  0  0  0  0  0  0
   36.8280   27.9950   32.9210 C   0  0  0  0  0  0  0  0  0  0  0  0
   36.4970   28.8320   31.8490 C   0  0  0  0  0  0  0  0  0  0  0  0
   37.4540   28.6370   30.9260 N   0  0  0  0  0  0  0  0  0  0  0  0
   38.3250   27.7400   31.3910 N   0  0  0  0  0  0  0  0  0  0  0  0
   36.2530   27.9030   33.8520 H   0  0  0  0  0  0  0  0  0  0  0  0
   35.6420   29.5010   31.7730 H   0  0  0  0  0  0  0  0  0  0  0  0
   38.2960   26.3090   34.8470 C   0  0  0  0  0  0  0  0  0  0  0  0
   38.6150   26.3660   33.4920 C   0  0  0  0  0  0  0  0  0  0  0  0
   39.5600   25.4610   33.0230 C   0  0  0  0  0  0  0  0  0  0  0  0
   40.1000   24.5920   33.9200 N   0  0  0  0  0  0  0  0  0  0  0  0
   39.7660   24.5670   35.2230 C   0  0  0  0  0  0  0  0  0  0  0  0
   38.8280   25.4610   35.7050 N   0  0  0  0  0  0  0  0  0  0  0  0
   37.5670   26.9940   35.2550 H   0  0  0  0  0  0  0  0  0  0  0  0
   39.8380   25.4700   31.9770 H   0  0  0  0  0  0  0  0  0  0  0  0
   40.5050   23.5450   35.9010 N   0  0  0  0  0  0  0  0  0  0  0  0
   41.8490   23.4680   35.8550 C   0  0  0  0  0  3  0  0  0  0  0  0
   42.5200   22.4470   36.5360 C   0  0  0  0  0  0  0  0  0  0  0  0
   43.5860   22.3670   36.5140 H   0  0  0  0  0  0  0  0  0  0  0  0
   41.6950   21.5760   37.2200 C   0  0  0  0  0  0  0  0  0  0  0  0
   42.2810   20.6330   37.8510 O   0  0  0  0  0  0  0  0  0  0  0  0
   40.3530   21.6600   37.2600 N   0  0  0  0  0  0  0  0  0  0  0  0
   39.7390   22.6730   36.5820 C   0  0  0  0  0  0  0  0  0  0  0  0
   38.5010   22.6910   36.6600 O   0  0  0  0  0  0  0  0  0  0  0  0
   39.8090   20.9370   37.8170 H   0  0  0  0  0  0  0  0  0  0  0  0
   36.7570   30.4070   29.4610 N   0  0  0  0  0  0  0  0  0  0  0  0
   37.3320   31.1060   28.3300 C   0  0  0  0  0  0  0  0  0  0  0  0
   38.7420   30.5690   28.1230 C   0  0  0  0  0  0  0  0  0  0  0  0
   38.9760   29.8060   29.4300 C   0  0  0  0  0  0  0  0  0  0  0  0
   37.5990   29.2370   29.6490 C   0  0  1  0  0  0  0  0  0  0  0  0
   36.7190   30.9730   30.3310 H   0  0  0  0  0  0  0  0  0  0  0  0
   36.7350   30.8010   27.4410 H   0  0  0  0  0  0  0  0  0  0  0  0
   37.3210   32.1980   28.4350 H   0  0  0  0  0  0  0  0  0  0  0  0
   38.7980   29.8910   27.2640 H   0  0  0  0  0  0  0  0  0  0  0  0
   39.4260   31.4380   28.0410 H   0  0  0  0  0  0  0  0  0  0  0  0
   39.2790   30.5130   30.2160 H   0  0  0  0  0  0  0  0  0  0  0  0
   39.6750   28.9800   29.2610 H   0  0  0  0  0  0  0  0  0  0  0  0
   37.3580   28.2460   28.6280 N   0  0  0  0  0  0  0  0  0  0  0  0
   36.3320   28.1010   28.5650 H   0  0  0  0  0  0  0  0  0  0  0  0
   37.8210   27.3690   28.9150 H   0  0  0  0  0  0  0  0  0  0  0  0
  1  2  1  0  0  0  0
  1  9  1  0  0  0  0
  2  6  1  0  0  0  0
  3  2  2  0  0  0  0
  4  5  1  0  0  0  0
  4  3  1  0  0  0  0
  5  1  2  0  0  0  0
  7  3  1  0  0  0  0
  8 14  1  0  0  0  0
  8 13  1  0  0  0  0
  9  8  2  0  0  0  0
 10  9  1  0  0  0  0
 10 11  2  0  0  0  0
 11 12  1  0  0  0  0
 12 13  2  0  0  0  0
 12 16  1  0  0  0  0
 15 10  1  0  0  0  0
 16 23  1  0  0  0  0
 17 16  1  0  0  0  0
 17 18  2  0  0  0  0
 18 20  1  0  0  0  0
 19 18  1  0  0  0  0
 20 22  1  0  0  0  0
 20 21  2  0  0  0  0
 22 25  1  0  0  0  0
 23 24  2  0  0  0  0
 23 22  1  0  0  0  0
 26 30  1  0  0  0  0
 26 31  1  0  0  0  0
 27 33  1  0  0  0  0
 27 26  1  0  0  0  0
 28 27  1  0  0  0  0
 28 29  1  0  0  0  0
 29 30  1  0  0  0  0
 29 36  1  0  0  0  0
 30 38  1  6  0  0  0
 30  4  1  0  0  0  0
 32 27  1  0  0  0  0
 34 28  1  0  0  0  0
 35 28  1  0  0  0  0
 37 29  1  0  0  0  0
 38 40  1  0  0  0  0
 39 38  1  0  0  0  0
M  END
>  <minimizedAffinity>
-6.24760342

$$$$

 OpenBabel03272501283D

 40 43  0  0  1  0  0  0  0  0999 V2000
   36.7170   27.5960   33.5280 C   0  0  0  0  0  0  0  0  0  0  0  0
   36.6180   27.5190   32.1330 C   0  0  0  0  0  0  0  0  0  0  0  0
   35.7790   28.5550   31.7080 C   0  0  0  0  0  0  0  0  0  0  0  0
   35.4100   29.2060   32.8230 N   0  0  0  0  0  0  0  0  0  0  0  0
   35.9800   28.6170   33.8750 N   0  0  0  0  0  0  0  0  0  0  0  0
   37.1020   26.7850   31.4750 H   0  0  0  0  0  0  0  0  0  0  0  0
   35.4850   28.7900   30.6850 H   0  0  0  0  0  0  0  0  0  0  0  0
   37.8150   26.8300   35.6330 C   0  0  0  0  0  0  0  0  0  0  0  0
   37.5200   26.6550   34.2810 C   0  0  0  0  0  0  0  0  0  0  0  0
   38.0300   25.5210   33.6610 C   0  0  0  0  0  0  0  0  0  0  0  0
   38.7770   24.6720   34.4170 N   0  0  0  0  0  0  0  0  0  0  0  0
   39.0410   24.8740   35.7210 C   0  0  0  0  0  0  0  0  0  0  0  0
   38.5410   25.9970   36.3520 N   0  0  0  0  0  0  0  0  0  0  0  0
   37.4390   27.6970   36.1550 H   0  0  0  0  0  0  0  0  0  0  0  0
   37.8260   25.3460   32.6130 H   0  0  0  0  0  0  0  0  0  0  0  0
   39.8490   23.8070   36.2300 N   0  0  0  0  0  0  0  0  0  0  0  0
   41.0140   23.4430   35.6630 C   0  0  0  0  0  3  0  0  0  0  0  0
   41.7640   22.3920   36.2030 C   0  0  0  0  0  0  0  0  0  0  0  0
   42.6910   22.0860   35.7690 H   0  0  0  0  0  0  0  0  0  0  0  0
   41.2030   21.8040   37.3190 C   0  0  0  0  0  0  0  0  0  0  0  0
   41.8650   20.8400   37.8340 O   0  0  0  0  0  0  0  0  0  0  0  0
   40.0370   22.1740   37.8800 N   0  0  0  0  0  0  0  0  0  0  0  0
   39.3390   23.2050   37.3200 C   0  0  0  0  0  0  0  0  0  0  0  0
   38.2730   23.4940   37.8860 O   0  0  0  0  0  0  0  0  0  0  0  0
   39.6920   21.6540   38.7400 H   0  0  0  0  0  0  0  0  0  0  0  0
   33.5660   30.1910   34.0050 N   0  0  0  0  0  0  0  0  0  0  0  0
   33.1090   31.5380   34.2790 C   0  0  0  0  0  0  0  0  0  0  0  0
   34.1310   32.5020   33.6910 C   0  0  0  0  0  0  0  0  0  0  0  0
   35.3100   31.5670   33.4090 C   0  0  0  0  0  0  0  0  0  0  0  0
   34.5640   30.3370   32.9590 C   0  0  1  0  0  0  0  0  0  0  0  0
   33.9710   29.7070   34.8300 H   0  0  0  0  0  0  0  0  0  0  0  0
   32.1680   31.6700   33.6990 H   0  0  0  0  0  0  0  0  0  0  0  0
   32.9260   31.7330   35.3430 H   0  0  0  0  0  0  0  0  0  0  0  0
   33.7710   32.9620   32.7640 H   0  0  0  0  0  0  0  0  0  0  0  0
   34.3880   33.2420   34.4760 H   0  0  0  0  0  0  0  0  0  0  0  0
   35.8800   31.4080   34.3360 H   0  0  0  0  0  0  0  0  0  0  0  0
   35.8980   31.9490   32.5680 H   0  0  0  0  0  0  0  0  0  0  0  0
   33.9530   30.6290   31.6850 N   0  0  0  0  0  0  0  0  0  0  0  0
   33.1900   29.9400   31.5360 H   0  0  0  0  0  0  0  0  0  0  0  0
   34.6710   30.5240   30.9500 H   0  0  0  0  0  0  0  0  0  0  0  0
  1  5  2  0  0  0  0
  1  9  1  0  0  0  0
  2  1  1  0  0  0  0
  3  2  2  0  0  0  0
  3  4  1  0  0  0  0
  4 30  1  0  0  0  0
  4  5  1  0  0  0  0
  6  2  1  0  0  0  0
  7  3  1  0  0  0  0
  8 14  1  0  0  0  0
  8 13  1  0  0  0  0
  9  8  2  0  0  0  0
 10  9  1  0  0  0  0
 10 11  2  0  0  0  0
 11 12  1  0  0  0  0
 12 16  1  0  0  0  0
 12 13  2  0  0  0  0
 15 10  1  0  0  0  0
 16 23  1  0  0  0  0
 17 18  2  0  0  0  0
 17 16  1  0  0  0  0
 18 20  1  0  0  0  0
 19 18  1  0  0  0  0
 20 21  2  0  0  0  0
 20 22  1  0  0  0  0
 22 25  1  0  0  0  0
 23 22  1  0  0  0  0
 23 24  2  0  0  0  0
 26 27  1  0  0  0  0
 26 31  1  0  0  0  0
 27 33  1  0  0  0  0
 28 27  1  0  0  0  0
 28 35  1  0  0  0  0
 29 28  1  0  0  0  0
 29 36  1  0  0  0  0
 30 38  1  6  0  0  0
 30 29  1  0  0  0  0
 30 26  1  0  0  0  0
 32 27  1  0  0  0  0
 34 28  1  0  0  0  0
 37 29  1  0  0  0  0
 39 38  1  0  0  0  0
 40 38  1  0  0  0  0
M  END
>  <minimizedAffinity>
-6.18940926

$$$$

 OpenBabel03272501283D

 40 43  0  0  1  0  0  0  0  0999 V2000
   35.8710   28.6180   32.6170 C   0  0  0  0  0  0  0  0  0  0  0  0
   36.4540   29.2640   31.5190 C   0  0  0  0  0  0  0  0  0  0  0  0
   35.5540   30.2350   31.0680 C   0  0  0  0  0  0  0  0  0  0  0  0
   34.4890   30.1500   31.8810 N   0  0  0  0  0  0  0  0  0  0  0  0
   34.7080   29.1900   32.7800 N   0  0  0  0  0  0  0  0  0  0  0  0
   37.4390   29.0580   31.0770 H   0  0  0  0  0  0  0  0  0  0  0  0
   35.6870   30.9210   30.2320 H   0  0  0  0  0  0  0  0  0  0  0  0
   36.8910   26.3440   32.7040 C   0  0  0  0  0  0  0  0  0  0  0  0
   36.5550   27.5510   33.3160 C   0  0  0  0  0  0  0  0  0  0  0  0
   36.9030   27.7050   34.6530 C   0  0  0  0  0  0  0  0  0  0  0  0
   37.5440   26.6690   35.2600 N   0  0  0  0  0  0  0  0  0  0  0  0
   37.8530   25.5180   34.6350 C   0  0  0  0  0  0  0  0  0  0  0  0
   37.5130   25.3500   33.3060 N   0  0  0  0  0  0  0  0  0  0  0  0
   36.6400   26.1820   31.6670 H   0  0  0  0  0  0  0  0  0  0  0  0
   36.6600   28.6250   35.1680 H   0  0  0  0  0  0  0  0  0  0  0  0
   38.5210   24.6320   35.5400 N   0  0  0  0  0  0  0  0  0  0  0  0
   38.0020   24.2850   36.7330 C   0  0  0  0  0  3  0  0  0  0  0  0
   38.6990   23.4140   37.5790 C   0  0  0  0  0  0  0  0  0  0  0  0
   38.3050   23.1250   38.5300 H   0  0  0  0  0  0  0  0  0  0  0  0
   39.9100   22.9780   37.0800 C   0  0  0  0  0  0  0  0  0  0  0  0
   40.5690   22.1820   37.8320 O   0  0  0  0  0  0  0  0  0  0  0  0
   40.4210   23.3310   35.8860 N   0  0  0  0  0  0  0  0  0  0  0  0
   39.7080   24.1820   35.0930 C   0  0  0  0  0  0  0  0  0  0  0  0
   40.2370   24.4660   34.0070 O   0  0  0  0  0  0  0  0  0  0  0  0
   41.3650   22.9380   35.5950 H   0  0  0  0  0  0  0  0  0  0  0  0
   32.1090   30.1340   32.2100 N   0  0  0  0  0  0  0  0  0  0  0  0
   31.1030   31.1160   32.5550 C   0  0  0  0  0  0  0  0  0  0  0  0
   31.8150   32.4390   32.8110 C   0  0  0  0  0  0  0  0  0  0  0  0
   33.2740   31.9870   32.9180 C   0  0  0  0  0  0  0  0  0  0  0  0
   33.2900   30.9090   31.8650 C   0  0  1  0  0  0  0  0  0  0  0  0
   32.3250   29.4640   32.9750 H   0  0  0  0  0  0  0  0  0  0  0  0
   30.4800   31.2550   31.6430 H   0  0  0  0  0  0  0  0  0  0  0  0
   30.4710   30.8210   33.4020 H   0  0  0  0  0  0  0  0  0  0  0  0
   31.6860   33.1380   31.9770 H   0  0  0  0  0  0  0  0  0  0  0  0
   31.4490   32.8370   33.7790 H   0  0  0  0  0  0  0  0  0  0  0  0
   33.4640   31.6020   33.9300 H   0  0  0  0  0  0  0  0  0  0  0  0
   33.9400   32.7970   32.6020 H   0  0  0  0  0  0  0  0  0  0  0  0
   33.1450   31.5430   30.5760 N   0  0  0  0  0  0  0  0  0  0  0  0
   32.8250   30.8190   29.9030 H   0  0  0  0  0  0  0  0  0  0  0  0
   34.0690   31.9060   30.2910 H   0  0  0  0  0  0  0  0  0  0  0  0
  1  5  2  0  0  0  0
  1  9  1  0  0  0  0
  2  1  1  0  0  0  0
  3  2  2  0  0  0  0
  3  4  1  0  0  0  0
  4  5  1  0  0  0  0
  6  2  1  0  0  0  0
  7  3  1  0  0  0  0
  8 13  2  0  0  0  0
  8  9  1  0  0  0  0
  9 10  2  0  0  0  0
 10 15  1  0  0  0  0
 10 11  1  0  0  0  0
 12 11  2  0  0  0  0
 12 16  1  0  0  0  0
 13 12  1  0  0  0  0
 14  8  1  0  0  0  0
 16 17  1  0  0  0  0
 17 18  2  0  0  0  0
 18 19  1  0  0  0  0
 20 18  1  0  0  0  0
 20 21  2  0  0  0  0
 22 20  1  0  0  0  0
 23 16  1  0  0  0  0
 23 22  1  0  0  0  0
 24 23  2  0  0  0  0
 25 22  1  0  0  0  0
 26 27  1  0  0  0  0
 26 31  1  0  0  0  0
 27 28  1  0  0  0  0
 27 33  1  0  0  0  0
 28 29  1  0  0  0  0
 28 35  1  0  0  0  0
 29 36  1  0  0  0  0
 30 38  1  6  0  0  0
 30  4  1  0  0  0  0
 30 26  1  0  0  0  0
 30 29  1  0  0  0  0
 32 27  1  0  0  0  0
 34 28  1  0  0  0  0
 37 29  1  0  0  0  0
 39 38  1  0  0  0  0
 40 38  1  0  0  0  0
M  END
>  <minimizedAffinity>
-6.18723011

$$$$

 OpenBabel03272501283D

 40 43  0  0  1  0  0  0  0  0999 V2000
   36.5790   27.9720   32.7570 C   0  0  0  0  0  0  0  0  0  0  0  0
   37.0700   28.4550   31.5370 C   0  0  0  0  0  0  0  0  0  0  0  0
   36.2310   29.4950   31.1210 C   0  0  0  0  0  0  0  0  0  0  0  0
   35.2890   29.6050   32.0730 N   0  0  0  0  0  0  0  0  0  0  0  0
   35.5230   28.6950   33.0190 N   0  0  0  0  0  0  0  0  0  0  0  0
   37.9520   28.0960   30.9890 H   0  0  0  0  0  0  0  0  0  0  0  0
   36.3200   30.0940   30.2160 H   0  0  0  0  0  0  0  0  0  0  0  0
   37.2560   25.5800   32.9600 C   0  0  0  0  0  0  0  0  0  0  0  0
   37.2300   26.8830   33.4550 C   0  0  0  0  0  0  0  0  0  0  0  0
   37.8630   27.1140   34.6700 C   0  0  0  0  0  0  0  0  0  0  0  0
   38.4580   26.0550   35.2820 N   0  0  0  0  0  0  0  0  0  0  0  0
   38.4630   24.8090   34.7720 C   0  0  0  0  0  0  0  0  0  0  0  0
   37.8370   24.5640   33.5640 N   0  0  0  0  0  0  0  0  0  0  0  0
   36.7760   25.3550   32.0190 H   0  0  0  0  0  0  0  0  0  0  0  0
   37.8660   28.1110   35.0920 H   0  0  0  0  0  0  0  0  0  0  0  0
   39.1670   23.9220   35.6490 N   0  0  0  0  0  0  0  0  0  0  0  0
   38.8590   23.7930   36.9530 C   0  0  0  0  0  3  0  0  0  0  0  0
   39.5800   22.9110   37.7640 C   0  0  0  0  0  0  0  0  0  0  0  0
   39.3520   22.7920   38.8020 H   0  0  0  0  0  0  0  0  0  0  0  0
   40.5880   22.2270   37.1130 C   0  0  0  0  0  0  0  0  0  0  0  0
   41.2640   21.4140   37.8290 O   0  0  0  0  0  0  0  0  0  0  0  0
   40.8890   22.3620   35.8080 N   0  0  0  0  0  0  0  0  0  0  0  0
   40.1590   23.2340   35.0540 C   0  0  0  0  0  0  0  0  0  0  0  0
   40.4890   23.3110   33.8600 O   0  0  0  0  0  0  0  0  0  0  0  0
   41.6860   21.7890   35.4030 H   0  0  0  0  0  0  0  0  0  0  0  0
   33.8450   31.0960   30.8640 N   0  0  0  0  0  0  0  0  0  0  0  0
   32.5050   31.6140   31.0420 C   0  0  0  0  0  0  0  0  0  0  0  0
   31.9170   30.9610   32.2860 C   0  0  0  0  0  0  0  0  0  0  0  0
   32.9080   29.8190   32.5310 C   0  0  0  0  0  0  0  0  0  0  0  0
   34.1940   30.5040   32.1450 C   0  0  1  0  0  0  0  0  0  0  0  0
   33.9290   30.3940   30.1030 H   0  0  0  0  0  0  0  0  0  0  0  0
   32.6180   32.6980   31.2670 H   0  0  0  0  0  0  0  0  0  0  0  0
   31.8600   31.4770   30.1640 H   0  0  0  0  0  0  0  0  0  0  0  0
   31.9010   31.6490   33.1380 H   0  0  0  0  0  0  0  0  0  0  0  0
   30.9150   30.5680   32.0200 H   0  0  0  0  0  0  0  0  0  0  0  0
   32.6590   28.9720   31.8760 H   0  0  0  0  0  0  0  0  0  0  0  0
   32.9450   29.5790   33.6000 H   0  0  0  0  0  0  0  0  0  0  0  0
   34.4740   31.5170   33.1340 N   0  0  0  0  0  0  0  0  0  0  0  0
   35.1420   32.1920   32.7140 H   0  0  0  0  0  0  0  0  0  0  0  0
   34.9060   31.0570   33.9520 H   0  0  0  0  0  0  0  0  0  0  0  0
  1  5  2  0  0  0  0
  1  9  1  0  0  0  0
  2  1  1  0  0  0  0
  3  2  2  0  0  0  0
  3  4  1  0  0  0  0
  4 30  1  0  0  0  0
  4  5  1  0  0  0  0
  6  2  1  0  0  0  0
  7  3  1  0  0  0  0
  8  9  2  0  0  0  0
  8 13  1  0  0  0  0
  9 10  1  0  0  0  0
 10 15  1  0  0  0  0
 10 11  2  0  0  0  0
 12 11  1  0  0  0  0
 12 16  1  0  0  0  0
 13 12  2  0  0  0  0
 14  8  1  0  0  0  0
 16 17  1  0  0  0  0
 17 18  2  0  0  0  0
 18 19  1  0  0  0  0
 20 18  1  0  0  0  0
 20 21  2  0  0  0  0
 22 20  1  0  0  0  0
 23 16  1  0  0  0  0
 23 22  1  0  0  0  0
 24 23  2  0  0  0  0
 25 22  1  0  0  0  0
 26 27  1  0  0  0  0
 26 30  1  0  0  0  0
 27 32  1  0  0  0  0
 27 28  1  0  0  0  0
 28 29  1  0  0  0  0
 28 34  1  0  0  0  0
 29 37  1  0  0  0  0
 30 29  1  0  0  0  0
 30 38  1  1  0  0  0
 31 26  1  0  0  0  0
 33 27  1  0  0  0  0
 35 28  1  0  0  0  0
 36 29  1  0  0  0  0
 38 40  1  0  0  0  0
 39 38  1  0  0  0  0
M  END
>  <minimizedAffinity>
-5.93166018

$$$$

 OpenBabel03272501283D

 40 43  0  0  1  0  0  0  0  0999 V2000
   36.6070   28.1890   34.3040 C   0  0  0  0  0  0  0  0  0  0  0  0
   36.0790   28.3890   33.0220 C   0  0  0  0  0  0  0  0  0  0  0  0
   35.4040   29.6150   33.0260 C   0  0  0  0  0  0  0  0  0  0  0  0
   35.5400   30.1020   34.2700 N   0  0  0  0  0  0  0  0  0  0  0  0
   36.2530   29.2390   34.9960 N   0  0  0  0  0  0  0  0  0  0  0  0
   36.1680   27.7170   32.1580 H   0  0  0  0  0  0  0  0  0  0  0  0
   34.8770   30.0810   32.1940 H   0  0  0  0  0  0  0  0  0  0  0  0
   37.3670   25.8620   33.8270 C   0  0  0  0  0  0  0  0  0  0  0  0
   37.3680   27.0010   34.6310 C   0  0  0  0  0  0  0  0  0  0  0  0
   38.1410   26.9630   35.7860 C   0  0  0  0  0  0  0  0  0  0  0  0
   38.8350   25.8220   36.0420 N   0  0  0  0  0  0  0  0  0  0  0  0
   38.8090   24.7410   35.2400 C   0  0  0  0  0  0  0  0  0  0  0  0
   38.0450   24.7630   34.0890 N   0  0  0  0  0  0  0  0  0  0  0  0
   36.7800   25.8470   32.9200 H   0  0  0  0  0  0  0  0  0  0  0  0
   38.1700   27.8250   36.4390 H   0  0  0  0  0  0  0  0  0  0  0  0
   39.6390   23.7070   35.7830 N   0  0  0  0  0  0  0  0  0  0  0  0
   39.4980   23.2470   37.0400 C   0  0  0  0  0  3  0  0  0  0  0  0
   40.3380   22.2350   37.5190 C   0  0  0  0  0  0  0  0  0  0  0  0
   40.2440   21.8540   38.5130 H   0  0  0  0  0  0  0  0  0  0  0  0
   41.2740   21.7890   36.6070 C   0  0  0  0  0  0  0  0  0  0  0  0
   42.0560   20.8650   37.0170 O   0  0  0  0  0  0  0  0  0  0  0  0
   41.4080   22.2550   35.3520 N   0  0  0  0  0  0  0  0  0  0  0  0
   40.5670   23.2420   34.9270 C   0  0  0  0  0  0  0  0  0  0  0  0
   40.7450   23.6260   33.7600 O   0  0  0  0  0  0  0  0  0  0  0  0
   42.1630   21.8430   34.7280 H   0  0  0  0  0  0  0  0  0  0  0  0
   33.6500   31.2480   35.2080 N   0  0  0  0  0  0  0  0  0  0  0  0
   33.4560   32.3750   36.0970 C   0  0  0  0  0  0  0  0  0  0  0  0
   34.8310   32.8540   36.5450 C   0  0  0  0  0  0  0  0  0  0  0  0
   35.7200   31.6860   36.1090 C   0  0  0  0  0  0  0  0  0  0  0  0
   35.0470   31.3160   34.8130 C   0  0  1  0  0  0  0  0  0  0  0  0
   33.4380   30.3280   35.6410 H   0  0  0  0  0  0  0  0  0  0  0  0
   33.0160   33.1880   35.4760 H   0  0  0  0  0  0  0  0  0  0  0  0
   32.8010   32.1560   36.9490 H   0  0  0  0  0  0  0  0  0  0  0  0
   35.1270   33.7770   36.0340 H   0  0  0  0  0  0  0  0  0  0  0  0
   34.8110   32.9500   37.6490 H   0  0  0  0  0  0  0  0  0  0  0  0
   35.6690   30.8870   36.8630 H   0  0  0  0  0  0  0  0  0  0  0  0
   36.7310   32.0470   35.8900 H   0  0  0  0  0  0  0  0  0  0  0  0
   35.2760   32.3860   33.8710 N   0  0  0  0  0  0  0  0  0  0  0  0
   34.5630   32.3040   33.1210 H   0  0  0  0  0  0  0  0  0  0  0  0
   36.2220   32.2670   33.4730 H   0  0  0  0  0  0  0  0  0  0  0  0
  1  9  1  0  0  0  0
  1  5  2  0  0  0  0
  2  3  2  0  0  0  0
  2  1  1  0  0  0  0
  3  4  1  0  0  0  0
  4 30  1  0  0  0  0
  4  5  1  0  0  0  0
  6  2  1  0  0  0  0
  7  3  1  0  0  0  0
  8 13  2  0  0  0  0
  8  9  1  0  0  0  0
  9 10  2  0  0  0  0
 10 11  1  0  0  0  0
 10 15  1  0  0  0  0
 12 16  1  0  0  0  0
 12 11  2  0  0  0  0
 13 12  1  0  0  0  0
 14  8  1  0  0  0  0
 16 17  1  0  0  0  0
 17 18  2  0  0  0  0
 18 19  1  0  0  0  0
 20 21  2  0  0  0  0
 20 18  1  0  0  0  0
 22 20  1  0  0  0  0
 23 22  1  0  0  0  0
 23 16  1  0  0  0  0
 24 23  2  0  0  0  0
 25 22  1  0  0  0  0
 26 31  1  0  0  0  0
 26 27  1  0  0  0  0
 27 28  1  0  0  0  0
 27 33  1  0  0  0  0
 28 35  1  0  0  0  0
 29 28  1  0  0  0  0
 29 36  1  0  0  0  0
 30 38  1  6  0  0  0
 30 26  1  0  0  0  0
 30 29  1  0  0  0  0
 32 27  1  0  0  0  0
 34 28  1  0  0  0  0
 37 29  1  0  0  0  0
 39 38  1  0  0  0  0
 40 38  1  0  0  0  0
M  END
>  <minimizedAffinity>
-5.89774799

$$$$

 OpenBabel03272501283D

 40 43  0  0  1  0  0  0  0  0999 V2000
   36.0020   28.8030   32.7060 C   0  0  0  0  0  0  0  0  0  0  0  0
   34.6420   29.0850   32.8870 C   0  0  0  0  0  0  0  0  0  0  0  0
   34.3280   30.1940   32.0930 C   0  0  0  0  0  0  0  0  0  0  0  0
   35.4710   30.5360   31.4770 N   0  0  0  0  0  0  0  0  0  0  0  0
   36.4360   29.6980   31.8600 N   0  0  0  0  0  0  0  0  0  0  0  0
   33.9340   28.5460   33.5300 H   0  0  0  0  0  0  0  0  0  0  0  0
   33.3590   30.6810   31.9920 H   0  0  0  0  0  0  0  0  0  0  0  0
   36.9150   26.4830   32.7780 C   0  0  0  0  0  0  0  0  0  0  0  0
   36.6430   27.7030   33.3960 C   0  0  0  0  0  0  0  0  0  0  0  0
   37.0140   27.8370   34.7290 C   0  0  0  0  0  0  0  0  0  0  0  0
   37.6120   26.7710   35.3270 N   0  0  0  0  0  0  0  0  0  0  0  0
   37.8600   25.6080   34.6960 C   0  0  0  0  0  0  0  0  0  0  0  0
   37.4970   25.4590   33.3710 N   0  0  0  0  0  0  0  0  0  0  0  0
   36.6450   26.3350   31.7430 H   0  0  0  0  0  0  0  0  0  0  0  0
   36.8210   28.7670   35.2480 H   0  0  0  0  0  0  0  0  0  0  0  0
   38.4950   24.6900   35.5920 N   0  0  0  0  0  0  0  0  0  0  0  0
   37.9740   24.3650   36.7900 C   0  0  0  0  0  3  0  0  0  0  0  0
   38.6390   23.4600   37.6260 C   0  0  0  0  0  0  0  0  0  0  0  0
   38.2440   23.1880   38.5810 H   0  0  0  0  0  0  0  0  0  0  0  0
   39.8230   22.9690   37.1120 C   0  0  0  0  0  0  0  0  0  0  0  0
   40.4520   22.1410   37.8550 O   0  0  0  0  0  0  0  0  0  0  0  0
   40.3360   23.2990   35.9140 N   0  0  0  0  0  0  0  0  0  0  0  0
   39.6540   24.1850   35.1300 C   0  0  0  0  0  0  0  0  0  0  0  0
   40.1830   24.4460   34.0390 O   0  0  0  0  0  0  0  0  0  0  0  0
   41.2570   22.8640   35.6110 H   0  0  0  0  0  0  0  0  0  0  0  0
   34.5000   32.2810   30.1430 N   0  0  0  0  0  0  0  0  0  0  0  0
   34.9560   33.5370   29.5850 C   0  0  0  0  0  0  0  0  0  0  0  0
   36.3880   33.7590   30.0530 C   0  0  0  0  0  0  0  0  0  0  0  0
   36.5130   32.7140   31.1650 C   0  0  0  0  0  0  0  0  0  0  0  0
   35.7100   31.5920   30.5600 C   0  0  1  0  0  0  0  0  0  0  0  0
   33.8460   32.3870   30.9440 H   0  0  0  0  0  0  0  0  0  0  0  0
   34.9940   33.3920   28.4820 H   0  0  0  0  0  0  0  0  0  0  0  0
   34.3090   34.3890   29.8310 H   0  0  0  0  0  0  0  0  0  0  0  0
   37.1120   33.5630   29.2550 H   0  0  0  0  0  0  0  0  0  0  0  0
   36.4540   34.7870   30.4640 H   0  0  0  0  0  0  0  0  0  0  0  0
   36.0700   33.1090   32.0900 H   0  0  0  0  0  0  0  0  0  0  0  0
   37.5560   32.3890   31.2580 H   0  0  0  0  0  0  0  0  0  0  0  0
   36.4420   31.0810   29.4260 N   0  0  0  0  0  0  0  0  0  0  0  0
   35.7710   30.5640   28.8240 H   0  0  0  0  0  0  0  0  0  0  0  0
   37.1700   30.4380   29.7760 H   0  0  0  0  0  0  0  0  0  0  0  0
  1  2  1  0  0  0  0
  1  9  1  0  0  0  0
  2  6  1  0  0  0  0
  3  2  2  0  0  0  0
  4  5  1  0  0  0  0
  4  3  1  0  0  0  0
  5  1  2  0  0  0  0
  7  3  1  0  0  0  0
  8 13  2  0  0  0  0
  8  9  1  0  0  0  0
  9 10  2  0  0  0  0
 10 15  1  0  0  0  0
 10 11  1  0  0  0  0
 12 11  2  0  0  0  0
 12 16  1  0  0  0  0
 13 12  1  0  0  0  0
 14  8  1  0  0  0  0
 16 17  1  0  0  0  0
 17 18  2  0  0  0  0
 18 19  1  0  0  0  0
 20 18  1  0  0  0  0
 20 21  2  0  0  0  0
 22 20  1  0  0  0  0
 23 16  1  0  0  0  0
 23 22  1  0  0  0  0
 24 23  2  0  0  0  0
 25 22  1  0  0  0  0
 26 30  1  0  0  0  0
 26 31  1  0  0  0  0
 27 33  1  0  0  0  0
 27 28  1  0  0  0  0
 27 26  1  0  0  0  0
 28 35  1  0  0  0  0
 28 29  1  0  0  0  0
 29 37  1  0  0  0  0
 29 36  1  0  0  0  0
 30 38  1  6  0  0  0
 30 29  1  0  0  0  0
 30  4  1  0  0  0  0
 32 27  1  0  0  0  0
 34 28  1  0  0  0  0
 38 40  1  0  0  0  0
 39 38  1  0  0  0  0
M  END
>  <minimizedAffinity>
-5.85113049

$$$$

 OpenBabel03272501283D

 40 43  0  0  1  0  0  0  0  0999 V2000
   36.0050   28.6580   32.9020 C   0  0  0  0  0  0  0  0  0  0  0  0
   36.1930   29.6830   31.9650 C   0  0  0  0  0  0  0  0  0  0  0  0
   35.7840   30.8830   32.5590 C   0  0  0  0  0  0  0  0  0  0  0  0
   35.3760   30.5560   33.7960 N   0  0  0  0  0  0  0  0  0  0  0  0
   35.5190   29.2410   33.9650 N   0  0  0  0  0  0  0  0  0  0  0  0
   36.5880   29.5840   30.9450 H   0  0  0  0  0  0  0  0  0  0  0  0
   35.7950   31.8770   32.1140 H   0  0  0  0  0  0  0  0  0  0  0  0
   35.8930   26.6450   31.4340 C   0  0  0  0  0  0  0  0  0  0  0  0
   36.3350   27.2830   32.5920 C   0  0  0  0  0  0  0  0  0  0  0  0
   37.1230   26.5410   33.4650 C   0  0  0  0  0  0  0  0  0  0  0  0
   37.4010   25.2540   33.1230 N   0  0  0  0  0  0  0  0  0  0  0  0
   36.9560   24.6720   31.9940 C   0  0  0  0  0  0  0  0  0  0  0  0
   36.1720   25.3970   31.1160 N   0  0  0  0  0  0  0  0  0  0  0  0
   35.2790   27.1840   30.7270 H   0  0  0  0  0  0  0  0  0  0  0  0
   37.4870   26.9960   34.3760 H   0  0  0  0  0  0  0  0  0  0  0  0
   37.4170   23.3180   31.9240 N   0  0  0  0  0  0  0  0  0  0  0  0
   37.2100   22.4280   32.9120 C   0  0  0  0  0  3  0  0  0  0  0  0
   37.6840   21.1170   32.7910 C   0  0  0  0  0  0  0  0  0  0  0  0
   37.5310   20.3930   33.5630 H   0  0  0  0  0  0  0  0  0  0  0  0
   38.3510   20.8560   31.6100 C   0  0  0  0  0  0  0  0  0  0  0  0
   38.7950   19.6660   31.4720 O   0  0  0  0  0  0  0  0  0  0  0  0
   38.5530   21.7520   30.6270 N   0  0  0  0  0  0  0  0  0  0  0  0
   38.0740   23.0200   30.7870 C   0  0  0  0  0  0  0  0  0  0  0  0
   38.2960   23.7950   29.8450 O   0  0  0  0  0  0  0  0  0  0  0  0
   39.0810   21.4490   29.7560 H   0  0  0  0  0  0  0  0  0  0  0  0
   33.7200   30.8310   35.5150 N   0  0  0  0  0  0  0  0  0  0  0  0
   33.6170   31.5870   36.7450 C   0  0  0  0  0  0  0  0  0  0  0  0
   34.9410   32.3090   36.9560 C   0  0  0  0  0  0  0  0  0  0  0  0
   35.8450   31.5990   35.9450 C   0  0  0  0  0  0  0  0  0  0  0  0
   34.8640   31.3960   34.8180 C   0  0  1  0  0  0  0  0  0  0  0  0
   33.8490   29.8090   35.6560 H   0  0  0  0  0  0  0  0  0  0  0  0
   32.8460   32.3700   36.5640 H   0  0  0  0  0  0  0  0  0  0  0  0
   33.3390   30.9780   37.6140 H   0  0  0  0  0  0  0  0  0  0  0  0
   34.8640   33.3770   36.7240 H   0  0  0  0  0  0  0  0  0  0  0  0
   35.2730   32.1100   37.9960 H   0  0  0  0  0  0  0  0  0  0  0  0
   36.2040   30.6530   36.3770 H   0  0  0  0  0  0  0  0  0  0  0  0
   36.6340   32.2780   35.6060 H   0  0  0  0  0  0  0  0  0  0  0  0
   34.5540   32.6900   34.2600 N   0  0  0  0  0  0  0  0  0  0  0  0
   33.6620   32.6020   33.7360 H   0  0  0  0  0  0  0  0  0  0  0  0
   35.3160   32.9550   33.6160 H   0  0  0  0  0  0  0  0  0  0  0  0
  1  5  2  0  0  0  0
  2  3  2  0  0  0  0
  2  1  1  0  0  0  0
  3  4  1  0  0  0  0
  4  5  1  0  0  0  0
  4 30  1  0  0  0  0
  6  2  1  0  0  0  0
  7  3  1  0  0  0  0
  8  9  1  0  0  0  0
  9  1  1  0  0  0  0
  9 10  2  0  0  0  0
 10 15  1  0  0  0  0
 11 10  1  0  0  0  0
 12 11  2  0  0  0  0
 13  8  2  0  0  0  0
 13 12  1  0  0  0  0
 14  8  1  0  0  0  0
 16 12  1  0  0  0  0
 16 17  1  0  0  0  0
 18 17  2  0  0  0  0
 18 19  1  0  0  0  0
 20 18  1  0  0  0  0
 21 20  2  0  0  0  0
 22 23  1  0  0  0  0
 22 20  1  0  0  0  0
 23 16  1  0  0  0  0
 24 23  2  0  0  0  0
 25 22  1  0  0  0  0
 26 31  1  0  0  0  0
 26 27  1  0  0  0  0
 27 28  1  0  0  0  0
 27 33  1  0  0  0  0
 28 35  1  0  0  0  0
 29 36  1  0  0  0  0
 29 28  1  0  0  0  0
 30 38  1  6  0  0  0
 30 26  1  0  0  0  0
 30 29  1  0  0  0  0
 32 27  1  0  0  0  0
 34 28  1  0  0  0  0
 37 29  1  0  0  0  0
 39 38  1  0  0  0  0
 40 38  1  0  0  0  0
M  END
>  <minimizedAffinity>
-5.64603949

$$$$

 OpenBabel03272501283D

 40 43  0  0  1  0  0  0  0  0999 V2000
   36.5640   28.0520   32.2400 C   0  0  0  0  0  0  0  0  0  0  0  0
   37.5560   28.2170   31.2650 C   0  0  0  0  0  0  0  0  0  0  0  0
   37.8630   26.9520   30.7510 C   0  0  0  0  0  0  0  0  0  0  0  0
   37.0720   26.0890   31.4100 N   0  0  0  0  0  0  0  0  0  0  0  0
   36.3210   26.7690   32.2780 N   0  0  0  0  0  0  0  0  0  0  0  0
   38.0210   29.1600   30.9470 H   0  0  0  0  0  0  0  0  0  0  0  0
   38.5910   26.7130   29.9770 H   0  0  0  0  0  0  0  0  0  0  0  0
   35.8950   30.4490   32.4020 C   0  0  0  0  0  0  0  0  0  0  0  0
   36.0240   29.1810   32.9680 C   0  0  0  0  0  0  0  0  0  0  0  0
   35.6100   29.0280   34.2860 C   0  0  0  0  0  0  0  0  0  0  0  0
   35.1110   30.1240   34.9210 N   0  0  0  0  0  0  0  0  0  0  0  0
   35.0010   31.3330   34.3400 C   0  0  0  0  0  0  0  0  0  0  0  0
   35.4090   31.5010   33.0300 N   0  0  0  0  0  0  0  0  0  0  0  0
   36.2040   30.6140   31.3800 H   0  0  0  0  0  0  0  0  0  0  0  0
   35.6930   28.0620   34.7650 H   0  0  0  0  0  0  0  0  0  0  0  0
   34.4430   32.2730   35.2650 N   0  0  0  0  0  0  0  0  0  0  0  0
   34.9660   32.4890   36.4870 C   0  0  0  0  0  3  0  0  0  0  0  0
   34.3800   33.4200   37.3510 C   0  0  0  0  0  0  0  0  0  0  0  0
   34.7780   33.6070   38.3250 H   0  0  0  0  0  0  0  0  0  0  0  0
   33.2660   34.0550   36.8380 C   0  0  0  0  0  0  0  0  0  0  0  0
   32.7090   34.9110   37.6060 O   0  0  0  0  0  0  0  0  0  0  0  0
   32.7500   33.8330   35.6150 N   0  0  0  0  0  0  0  0  0  0  0  0
   33.3550   32.9160   34.8050 C   0  0  0  0  0  0  0  0  0  0  0  0
   32.8270   32.7600   33.6930 O   0  0  0  0  0  0  0  0  0  0  0  0
   31.8870   34.3760   35.3150 H   0  0  0  0  0  0  0  0  0  0  0  0
   37.4170   23.9560   32.4580 N   0  0  0  0  0  0  0  0  0  0  0  0
   36.8660   22.6250   32.3070 C   0  0  0  0  0  0  0  0  0  0  0  0
   35.7710   22.6940   31.2510 C   0  0  0  0  0  0  0  0  0  0  0  0
   35.5590   24.2050   31.1250 C   0  0  0  0  0  0  0  0  0  0  0  0
   36.9810   24.6800   31.2750 C   0  0  1  0  0  0  0  0  0  0  0  0
   37.1060   24.4460   33.3200 H   0  0  0  0  0  0  0  0  0  0  0  0
   37.6840   21.9970   31.8870 H   0  0  0  0  0  0  0  0  0  0  0  0
   36.5020   22.1900   33.2470 H   0  0  0  0  0  0  0  0  0  0  0  0
   36.1000   22.2680   30.2960 H   0  0  0  0  0  0  0  0  0  0  0  0
   34.8700   22.1980   31.6660 H   0  0  0  0  0  0  0  0  0  0  0  0
   34.9030   24.5500   31.9370 H   0  0  0  0  0  0  0  0  0  0  0  0
   35.2110   24.4510   30.1160 H   0  0  0  0  0  0  0  0  0  0  0  0
   37.7150   24.2660   30.1040 N   0  0  0  0  0  0  0  0  0  0  0  0
   38.7260   24.2870   30.3420 H   0  0  0  0  0  0  0  0  0  0  0  0
   37.5170   24.9380   29.3450 H   0  0  0  0  0  0  0  0  0  0  0  0
  1  5  2  0  0  0  0
  1  9  1  0  0  0  0
  2  1  1  0  0  0  0
  3  2  2  0  0  0  0
  3  4  1  0  0  0  0
  4  5  1  0  0  0  0
  6  2  1  0  0  0  0
  7  3  1  0  0  0  0
  8  9  2  0  0  0  0
  8 13  1  0  0  0  0
  9 10  1  0  0  0  0
 10 15  1  0  0  0  0
 10 11  2  0  0  0  0
 12 11  1  0  0  0  0
 12 16  1  0  0  0  0
 13 12  2  0  0  0  0
 14  8  1  0  0  0  0
 16 17  1  0  0  0  0
 17 18  2  0  0  0  0
 18 19  1  0  0  0  0
 20 18  1  0  0  0  0
 20 21  2  0  0  0  0
 22 20  1  0  0  0  0
 23 16  1  0  0  0  0
 23 22  1  0  0  0  0
 24 23  2  0  0  0  0
 25 22  1  0  0  0  0
 26 31  1  0  0  0  0
 27 26  1  0  0  0  0
 27 33  1  0  0  0  0
 28 35  1  0  0  0  0
 28 27  1  0  0  0  0
 29 28  1  0  0  0  0
 29 30  1  0  0  0  0
 29 36  1  0  0  0  0
 30 38  1  6  0  0  0
 30  4  1  0  0  0  0
 30 26  1  0  0  0  0
 32 27  1  0  0  0  0
 34 28  1  0  0  0  0
 37 29  1  0  0  0  0
 38 39  1  0  0  0  0
 40 38  1  0  0  0  0
M  END
>  <minimizedAffinity>
-5.6156745

$$$$
