REMARK  Name = 
REMARK  10 active torsions:
REMARK  status: ('A' for Active; 'I' for Inactive)
REMARK    1  A    between atoms: C_3  and  C_12
REMARK    2  A    between atoms: C_7  and  C_15
REMARK    3  A    between atoms: C_10  and  N_14
REMARK    4  A    between atoms: C_15  and  C_16
REMARK    5  A    between atoms: C_16  and  O_17
REMARK    6  A    between atoms: O_17  and  P_19
REMARK    7  A    between atoms: P_19  and  O_20
REMARK    8  A    between atoms: P_19  and  O_21
REMARK    9  A    between atoms: O_20  and  C_40
REMARK   10  A    between atoms: O_21  and  C_22
REMARK                            x       y       z     vdW  Elec       q    Type
REMARK                         _______ _______ _______ _____ _____    ______ ____
ROOT
ATOM      1  C   UNL     1      34.831  29.418  48.820  0.00  0.00    +0.000 C 
ATOM      2  H   UNL     1      35.737  29.461  49.471  0.00  0.00    +0.000 HD
ATOM      3  H   UNL     1      34.181  30.239  49.245  0.00  0.00    +0.000 HD
ENDROOT
BRANCH   1  10
ATOM      4 CL   UNL     1      37.603  30.449  48.515  0.00  0.00    +0.000 Cl
ATOM      5  C   UNL     1      36.448  30.317  47.183  0.00  0.00    +0.000 A 
ATOM      6  C   UNL     1      36.816  30.701  45.942  0.00  0.00    +0.000 A 
ATOM      7  C   UNL     1      35.922  30.601  44.900  0.00  0.00    +0.000 A 
ATOM      8  C   UNL     1      34.652  30.102  45.153  0.00  0.00    +0.000 A 
ATOM      9  C   UNL     1      34.338  29.721  46.471  0.00  0.00    +0.000 A 
ATOM     10  C   UNL     1      35.201  29.814  47.495  0.00  0.00    +0.000 A 
ATOM     11  H   UNL     1      36.243  30.919  43.899  0.00  0.00    +0.000 HD
ATOM     12  H   UNL     1      34.031  30.065  44.271  0.00  0.00    +0.000 HD
ATOM     13  H   UNL     1      33.362  29.387  46.446  0.00  0.00    +0.000 HD
BRANCH   6  18
ATOM     14  C   UNL     1      39.823  32.841  45.995  0.00  0.00    +0.000 A 
ATOM     15  C   UNL     1      40.686  32.103  45.118  0.00  0.00    +0.000 A 
ATOM     16  C   UNL     1      40.198  30.907  44.551  0.00  0.00    +0.000 A 
ATOM     17  N   UNL     1      38.937  30.506  44.856  0.00  0.00    +0.000 NA
ATOM     18  C   UNL     1      38.148  31.226  45.687  0.00  0.00    +0.000 A 
ATOM     19  N   UNL     1      38.595  32.368  46.238  0.00  0.00    +0.000 NA
ATOM     20  H   UNL     1      40.236  33.745  46.404  0.00  0.00    +0.000 HD
ATOM     21  H   UNL     1      41.680  32.466  44.909  0.00  0.00    +0.000 HD
BRANCH  16  22
ATOM     22  N   UNL     1      41.070  30.215  43.701  0.00  0.00    +0.000 N 
ATOM     23  H   UNL     1      42.025  29.886  43.935  0.00  0.00    +0.000 HD
ATOM     24  H   UNL     1      40.562  30.104  42.793  0.00  0.00    +0.000 HD
ENDBRANCH  16  22
ENDBRANCH   6  18
ENDBRANCH   1  10
BRANCH   1  25
ATOM     25  C   UNL     1      34.175  28.134  49.053  0.00  0.00    +0.000 C 
ATOM     26  H   UNL     1      34.657  27.510  49.858  0.00  0.00    +0.000 HD
ATOM     27  H   UNL     1      34.256  27.501  48.129  0.00  0.00    +0.000 HD
BRANCH  25  28
ATOM     28  O   UNL     1      32.859  28.287  49.396  0.00  0.00    +0.000 OA
BRANCH  28  30
ATOM     29  O   UNL     1      32.661  26.695  47.317  0.00  0.00    +0.000 OA
ATOM     30  P   UNL     1      31.869  27.522  48.298  0.00  0.00    +0.000 P 
BRANCH  30  31
ATOM     31  O   UNL     1      31.033  28.782  47.451  0.00  0.00    +0.000 OA
BRANCH  31  35
ATOM     32  H   UNL     1      29.382  25.884  44.565  0.00  0.00    +0.000 HD
ATOM     33  N   UNL     1      29.355  26.860  44.954  0.00  0.00    +0.000 N 
ATOM     34  C   UNL     1      30.194  27.244  45.956  0.00  0.00    +0.000 A 
ATOM     35  C   UNL     1      30.127  28.553  46.448  0.00  0.00    +0.000 A 
ATOM     36  C   UNL     1      29.206  29.389  45.886  0.00  0.00    +0.000 A 
ATOM     37  O   UNL     1      29.199  30.547  46.373  0.00  0.00    +0.000 OA
ATOM     38  N   UNL     1      28.383  29.008  44.901  0.00  0.00    +0.000 N 
ATOM     39  C   UNL     1      28.458  27.735  44.433  0.00  0.00    +0.000 A 
ATOM     40  O   UNL     1      27.670  27.414  43.508  0.00  0.00    +0.000 OA
ATOM     41  H   UNL     1      27.695  29.688  44.505  0.00  0.00    +0.000 HD
ENDBRANCH  31  35
ENDBRANCH  30  31
BRANCH  30  42
ATOM     42  O   UNL     1      30.697  26.590  48.999  0.00  0.00    +0.000 OA
BRANCH  42  43
ATOM     43  C   UNL     1      29.849  27.358  49.766  0.00  0.00    +0.000 C 
ATOM     44  F   UNL     1      29.319  26.650  50.843  0.00  0.00    +0.000 F 
ATOM     45  F   UNL     1      30.501  28.438  50.322  0.00  0.00    +0.000 F 
ATOM     46  F   UNL     1      28.791  27.808  48.982  0.00  0.00    +0.000 F 
ENDBRANCH  42  43
ENDBRANCH  30  42
ENDBRANCH  28  30
ENDBRANCH  25  28
ENDBRANCH   1  25
TORSDOF 10
