
 OpenBabel03272508283D

 39 42  0  0  1  0  0  0  0  0999 V2000
   33.9700   29.0240   47.3310 C   0  0  2  0  0  0  0  0  0  0  0  0
   34.7350   28.2460   48.3940 C   0  0  2  0  0  0  0  0  0  0  0  0
   33.8450   28.0520   49.4160 O   0  0  0  0  0  0  0  0  0  0  0  0
   32.5590   28.1170   48.9600 C   0  0  0  0  0  0  0  0  0  0  0  0
   32.6040   28.3380   47.4600 C   0  0  1  0  0  0  0  0  0  0  0  0
   33.8080   30.0760   47.5920 H   0  0  0  0  0  0  0  0  0  0  0  0
   35.0360   27.3010   47.9030 H   0  0  0  0  0  0  0  0  0  0  0  0
   32.0540   28.9590   49.4860 H   0  0  0  0  0  0  0  0  0  0  0  0
   32.0740   27.1420   49.2040 H   0  0  0  0  0  0  0  0  0  0  0  0
   32.6920   27.3530   46.9870 H   0  0  0  0  0  0  0  0  0  0  0  0
   35.7900   30.5180   49.0480 C   0  0  1  0  0  0  0  0  0  0  0  0
   35.8880   29.0950   48.8200 C   0  0  1  0  0  0  0  0  0  0  0  0
   36.0390   29.5640   50.2300 C   0  0  0  0  0  0  0  0  0  0  0  0
   34.8830   31.1240   49.2100 H   0  0  0  0  0  0  0  0  0  0  0  0
   36.8590   28.7520   48.3560 H   0  0  0  0  0  0  0  0  0  0  0  0
   37.0280   29.5670   50.7160 H   0  0  0  0  0  0  0  0  0  0  0  0
   35.1780   29.3580   50.8940 H   0  0  0  0  0  0  0  0  0  0  0  0
   36.9850   31.4300   48.8000 C   0  0  0  0  0  0  0  0  0  0  0  0
   37.1730   32.4840   49.6980 C   0  0  0  0  0  0  0  0  0  0  0  0
   38.2610   33.2980   49.4140 C   0  0  0  0  0  0  0  0  0  0  0  0
   39.0650   33.0600   48.3320 N   0  0  0  0  0  0  0  0  0  0  0  0
   38.8370   32.0210   47.4900 C   0  0  0  0  0  0  0  0  0  0  0  0
   37.7840   31.1950   47.7260 N   0  0  0  0  0  0  0  0  0  0  0  0
   36.5120   32.6170   50.5220 H   0  0  0  0  0  0  0  0  0  0  0  0
   38.4540   34.1310   50.0780 H   0  0  0  0  0  0  0  0  0  0  0  0
   39.4990   31.8820   46.6580 H   0  0  0  0  0  0  0  0  0  0  0  0
   34.4820   28.8910   46.0620 O   0  0  0  0  0  0  0  0  0  0  0  0
   35.1030   28.1320   45.9320 H   0  0  0  0  0  0  0  0  0  0  0  0
   31.5910   29.1090   46.9810 O   0  0  0  0  0  0  0  0  0  0  0  0
   28.3750   26.6260   45.0150 H   0  0  0  0  0  0  0  0  0  0  0  0
   29.0440   27.4380   44.8800 N   0  0  0  0  0  0  0  0  0  0  0  0
   29.7710   27.6370   45.9920 C   0  0  0  0  0  3  0  0  0  0  0  0
   30.7050   28.6500   46.0250 C   0  0  0  0  0  0  0  0  0  0  0  0
   30.8500   29.4340   44.8720 C   0  0  0  0  0  0  0  0  0  0  0  0
   31.6320   30.4020   44.6790 O   0  0  0  0  0  0  0  0  0  0  0  0
   30.0880   29.1930   43.7670 N   0  0  0  0  0  0  0  0  0  0  0  0
   29.1870   28.1940   43.7770 C   0  0  0  0  0  0  0  0  0  0  0  0
   28.4290   27.8730   42.8250 O   0  0  0  0  0  0  0  0  0  0  0  0
   30.1330   29.7270   42.8770 H   0  0  0  0  0  0  0  0  0  0  0  0
  1  5  1  0  0  0  0
  1  6  1  1  0  0  0
  1  2  1  0  0  0  0
  2  7  1  6  0  0  0
  2 12  1  0  0  0  0
  2  3  1  0  0  0  0
  4  9  1  0  0  0  0
  4  3  1  0  0  0  0
  4  8  1  0  0  0  0
  5 10  1  6  0  0  0
  5  4  1  0  0  0  0
 11 14  1  6  0  0  0
 11 13  1  0  0  0  0
 12 15  1  6  0  0  0
 12 11  1  0  0  0  0
 12 13  1  0  0  0  0
 13 16  1  0  0  0  0
 13 17  1  0  0  0  0
 18 11  1  0  0  0  0
 18 19  1  0  0  0  0
 19 24  1  0  0  0  0
 20 19  2  0  0  0  0
 20 25  1  0  0  0  0
 21 20  1  0  0  0  0
 22 23  1  0  0  0  0
 22 21  2  0  0  0  0
 23 18  2  0  0  0  0
 26 22  1  0  0  0  0
 27  1  1  0  0  0  0
 28 27  1  0  0  0  0
 29  5  1  0  0  0  0
 31 30  1  0  0  0  0
 31 32  1  0  0  0  0
 32 33  2  0  0  0  0
 33 29  1  0  0  0  0
 34 33  1  0  0  0  0
 35 34  2  0  0  0  0
 36 37  1  0  0  0  0
 36 34  1  0  0  0  0
 37 31  1  0  0  0  0
 38 37  2  0  0  0  0
 39 36  1  0  0  0  0
M  END
>  <minimizedAffinity>
-4.90874815

>  <minimizedRMSD>
0.146462977

$$$$
