
 OpenBabel03272508283D

 39 42  0  0  1  0  0  0  0  0999 V2000
   33.8890   28.9020   47.2690 C   0  0  2  0  0  0  0  0  0  0  0  0
   34.5810   28.1610   48.4060 C   0  0  2  0  0  0  0  0  0  0  0  0
   33.6550   28.0910   49.4130 O   0  0  0  0  0  0  0  0  0  0  0  0
   32.3870   28.1940   48.9160 C   0  0  0  0  0  0  0  0  0  0  0  0
   32.4830   28.3040   47.4060 C   0  0  1  0  0  0  0  0  0  0  0  0
   33.7800   29.9780   47.4500 H   0  0  0  0  0  0  0  0  0  0  0  0
   34.8390   27.1680   47.9920 H   0  0  0  0  0  0  0  0  0  0  0  0
   31.9180   29.0980   49.3660 H   0  0  0  0  0  0  0  0  0  0  0  0
   31.8410   27.2670   49.2130 H   0  0  0  0  0  0  0  0  0  0  0  0
   32.5260   27.2850   47.0060 H   0  0  0  0  0  0  0  0  0  0  0  0
   35.7030   30.3800   49.1260 C   0  0  1  0  0  0  0  0  0  0  0  0
   35.7690   28.9740   48.8050 C   0  0  1  0  0  0  0  0  0  0  0  0
   36.0200   29.3530   50.2270 C   0  0  0  0  0  0  0  0  0  0  0  0
   34.8160   30.9820   49.3860 H   0  0  0  0  0  0  0  0  0  0  0  0
   36.7030   28.6530   48.2550 H   0  0  0  0  0  0  0  0  0  0  0  0
   37.0390   29.3180   50.6450 H   0  0  0  0  0  0  0  0  0  0  0  0
   35.2030   29.1130   50.9340 H   0  0  0  0  0  0  0  0  0  0  0  0
   36.8890   31.2970   48.8540 C   0  0  0  0  0  0  0  0  0  0  0  0
   37.0710   32.3720   49.7280 C   0  0  0  0  0  0  0  0  0  0  0  0
   38.1510   33.1890   49.4230 C   0  0  0  0  0  0  0  0  0  0  0  0
   38.9540   32.9340   48.3440 N   0  0  0  0  0  0  0  0  0  0  0  0
   38.7330   31.8750   47.5260 C   0  0  0  0  0  0  0  0  0  0  0  0
   37.6880   31.0460   47.7840 N   0  0  0  0  0  0  0  0  0  0  0  0
   36.4110   32.5170   50.5510 H   0  0  0  0  0  0  0  0  0  0  0  0
   38.3390   34.0380   50.0680 H   0  0  0  0  0  0  0  0  0  0  0  0
   39.3940   31.7230   46.6950 H   0  0  0  0  0  0  0  0  0  0  0  0
   34.4230   28.6500   46.0280 O   0  0  0  0  0  0  0  0  0  0  0  0
   35.0030   27.8510   45.9700 H   0  0  0  0  0  0  0  0  0  0  0  0
   31.5280   29.0940   46.8450 O   0  0  0  0  0  0  0  0  0  0  0  0
   27.7510   26.7140   47.5170 H   0  0  0  0  0  0  0  0  0  0  0  0
   28.1670   27.5550   47.0210 N   0  0  0  0  0  0  0  0  0  0  0  0
   29.4740   27.6680   47.3060 C   0  0  0  0  0  3  0  0  0  0  0  0
   30.2060   28.7010   46.7590 C   0  0  0  0  0  0  0  0  0  0  0  0
   29.5310   29.5970   45.9190 C   0  0  0  0  0  0  0  0  0  0  0  0
   29.9920   30.6030   45.3170 O   0  0  0  0  0  0  0  0  0  0  0  0
   28.2010   29.4400   45.6600 N   0  0  0  0  0  0  0  0  0  0  0  0
   27.5240   28.4180   46.2140 C   0  0  0  0  0  0  0  0  0  0  0  0
   26.3020   28.1680   46.0530 O   0  0  0  0  0  0  0  0  0  0  0  0
   27.6280   30.0580   45.0500 H   0  0  0  0  0  0  0  0  0  0  0  0
  1  5  1  0  0  0  0
  1  6  1  1  0  0  0
  1  2  1  0  0  0  0
  2  7  1  6  0  0  0
  2 12  1  0  0  0  0
  2  3  1  0  0  0  0
  4  9  1  0  0  0  0
  4  8  1  0  0  0  0
  4  3  1  0  0  0  0
  5 10  1  6  0  0  0
  5  4  1  0  0  0  0
 11 14  1  1  0  0  0
 11 13  1  0  0  0  0
 12 15  1  6  0  0  0
 12 11  1  0  0  0  0
 12 13  1  0  0  0  0
 13 16  1  0  0  0  0
 13 17  1  0  0  0  0
 18 11  1  0  0  0  0
 18 19  1  0  0  0  0
 19 24  1  0  0  0  0
 20 19  2  0  0  0  0
 20 25  1  0  0  0  0
 21 20  1  0  0  0  0
 22 23  1  0  0  0  0
 22 21  2  0  0  0  0
 23 18  2  0  0  0  0
 26 22  1  0  0  0  0
 27  1  1  0  0  0  0
 28 27  1  0  0  0  0
 29  5  1  0  0  0  0
 31 32  1  0  0  0  0
 31 30  1  0  0  0  0
 33 29  1  0  0  0  0
 33 32  2  0  0  0  0
 34 33  1  0  0  0  0
 35 34  2  0  0  0  0
 36 34  1  0  0  0  0
 36 37  1  0  0  0  0
 37 31  1  0  0  0  0
 38 37  2  0  0  0  0
 39 36  1  0  0  0  0
M  END
>  <minimizedAffinity>
-5.56897497

>  <minimizedRMSD>
1.21022093

$$$$
