
 OpenBabel03272505443D

 25 26  0  0  0  0  0  0  0  0999 V2000
   32.4160   27.9930   49.0170 O   0  0  0  0  0  0  0  0  0  0  0  0
   33.8050   28.2830   48.4700 P   0  0  2  0  0  0  0  0  0  0  0  0
   34.0930   27.1520   47.2490 O   0  0  0  0  0  0  0  0  0  0  0  0
   34.9970   26.7800   47.3180 H   0  0  0  0  0  0  0  0  0  0  0  0
   34.9080   28.0870   49.7580 O   0  0  0  0  0  0  0  0  0  0  0  0
   37.2740   30.3120   51.4160 C   0  0  0  0  0  0  0  0  0  0  0  0
   38.0290   30.7560   50.2940 C   0  0  0  0  0  0  0  0  0  0  0  0
   37.6580   30.2470   49.0470 C   0  0  0  0  0  0  0  0  0  0  0  0
   36.6250   29.3800   48.9690 N   0  0  0  0  0  0  0  0  0  0  0  0
   35.9270   28.9770   50.0530 C   0  0  0  0  0  0  0  0  0  0  0  0
   36.2540   29.4470   51.2820 N   0  0  0  0  0  0  0  0  0  0  0  0
   37.4980   30.6620   52.4360 H   0  0  0  0  0  0  0  0  0  0  0  0
   38.8280   31.4420   50.4510 H   0  0  0  0  0  0  0  0  0  0  0  0
   38.2150   30.5680   48.1750 H   0  0  0  0  0  0  0  0  0  0  0  0
   33.8040   29.8170   47.8310 O   0  0  0  0  0  0  0  0  0  0  0  0
   36.2640   30.6600   44.2770 H   0  0  0  0  0  0  0  0  0  0  0  0
   35.3080   30.5400   44.6720 N   0  0  0  0  0  0  0  0  0  0  0  0
   35.0820   30.2550   45.9830 C   0  0  0  0  0  0  0  0  0  0  0  0
   33.7880   30.1020   46.4810 C   0  0  0  0  0  0  0  0  0  0  0  0
   32.7110   30.2410   45.6380 C   0  0  0  0  0  0  0  0  0  0  0  0
   31.5860   30.0860   46.1710 O   0  0  0  0  0  0  0  0  0  0  0  0
   32.9440   30.5240   44.3420 N   0  0  0  0  0  0  0  0  0  0  0  0
   34.2020   30.6670   43.8830 C   0  0  0  0  0  0  0  0  0  0  0  0
   34.3660   30.9320   42.6590 O   0  0  0  0  0  0  0  0  0  0  0  0
   32.1120   30.6230   43.7270 H   0  0  0  0  0  0  0  0  0  0  0  0
  2  1  2  1  0  0  0
  2  5  1  0  0  0  0
  3  4  1  0  0  0  0
  3  2  1  0  0  0  0
  5 10  1  0  0  0  0
  6 12  1  0  0  0  0
  7 13  1  0  0  0  0
  7  6  2  0  0  0  0
  8  7  1  0  0  0  0
  9  8  2  0  0  0  0
  9 10  1  0  0  0  0
 10 11  2  0  0  0  0
 11  6  1  0  0  0  0
 14  8  1  0  0  0  0
 15  2  1  0  0  0  0
 16 17  1  0  0  0  0
 17 18  1  0  0  0  0
 18 19  2  0  0  0  0
 19 15  1  0  0  0  0
 20 21  2  0  0  0  0
 20 19  1  0  0  0  0
 22 20  1  0  0  0  0
 23 22  1  0  0  0  0
 23 17  1  0  0  0  0
 24 23  2  0  0  0  0
 25 22  1  0  0  0  0
M  END
>  <minimizedAffinity>
-4.46863747

>  <minimizedRMSD>
1.80716681

$$$$
