
     RDKit          3D

 47 49  0  0  0  0  0  0  0  0999 V2000
   37.6027   30.4488   48.5154 Cl  0  0  0  0  0  0  0  0  0  0  0  0
   36.4483   30.3167   47.1831 C   0  0  0  0  0  0  0  0  0  0  0  0
   36.8160   30.7012   45.9421 C   0  0  0  0  0  0  0  0  0  0  0  0
   35.9222   30.6010   44.8996 C   0  0  0  0  0  0  0  0  0  0  0  0
   34.6517   30.1022   45.1533 C   0  0  0  0  0  0  0  0  0  0  0  0
   34.3382   29.7215   46.4707 C   0  0  0  0  0  0  0  0  0  0  0  0
   35.2012   29.8142   47.4954 C   0  0  0  0  0  0  0  0  0  0  0  0
   39.8226   32.8407   45.9950 C   0  0  0  0  0  0  0  0  0  0  0  0
   40.6864   32.1028   45.1184 C   0  0  0  0  0  0  0  0  0  0  0  0
   40.1976   30.9069   44.5511 C   0  0  0  0  0  0  0  0  0  0  0  0
   38.9371   30.5062   44.8563 N   0  0  0  0  0  0  0  0  0  0  0  0
   38.1482   31.2259   45.6871 C   0  0  0  0  0  0  0  0  0  0  0  0
   38.5952   32.3676   46.2377 N   0  0  0  0  0  0  0  0  0  0  0  0
   41.0704   30.2153   43.7009 N   0  0  0  0  0  0  0  0  0  0  0  0
   34.8312   29.4175   48.8200 C   0  0  0  0  0  0  0  0  0  0  0  0
   34.1750   28.1343   49.0527 C   0  0  0  0  0  0  0  0  0  0  0  0
   32.8591   28.2871   49.3956 O   0  0  0  0  0  0  0  0  0  0  0  0
   32.6608   26.6951   47.3172 O   0  0  0  0  0  0  0  0  0  0  0  0
   31.8686   27.5222   48.2977 P   0  0  2  0  0  0  0  0  0  0  0  0
   31.0334   28.7818   47.4509 O   0  0  0  0  0  0  0  0  0  0  0  0
   30.6965   26.5898   48.9993 O   0  0  0  0  0  0  0  0  0  0  0  0
   29.8490   27.3585   49.7658 C   0  0  0  0  0  0  0  0  0  0  0  0
   29.3192   26.6499   50.8433 F   0  0  0  0  0  0  0  0  0  0  0  0
   30.5014   28.4384   50.3221 F   0  0  0  0  0  0  0  0  0  0  0  0
   28.7911   27.8084   48.9821 F   0  0  0  0  0  0  0  0  0  0  0  0
   36.2427   30.9193   43.8988 H   0  0  0  0  0  0  0  0  0  0  0  0
   34.0308   30.0652   44.2707 H   0  0  0  0  0  0  0  0  0  0  0  0
   33.3621   29.3867   46.4462 H   0  0  0  0  0  0  0  0  0  0  0  0
   40.2355   33.7445   46.4042 H   0  0  0  0  0  0  0  0  0  0  0  0
   41.6797   32.4661   44.9092 H   0  0  0  0  0  0  0  0  0  0  0  0
   42.0250   29.8857   43.9355 H   0  0  0  0  0  0  0  0  0  0  0  0
   40.5625   30.1038   42.7931 H   0  0  0  0  0  0  0  0  0  0  0  0
   35.7374   29.4612   49.4707 H   0  0  0  0  0  0  0  0  0  0  0  0
   34.1808   30.2393   49.2454 H   0  0  0  0  0  0  0  0  0  0  0  0
   34.6573   27.5103   49.8577 H   0  0  0  0  0  0  0  0  0  0  0  0
   34.2562   27.5006   48.1287 H   0  0  0  0  0  0  0  0  0  0  0  0
   30.2330   28.8661   43.1142 H   0  0  0  0  0  0  0  0  0  0  0  0
   29.8688   28.6606   44.0781 N   0  0  0  0  0  0  0  0  0  0  0  0
   30.6489   28.8377   45.1810 C   0  0  0  0  0  0  0  0  0  0  0  0
   30.1266   28.5527   46.4478 C   0  0  0  0  0  0  0  0  0  0  0  0
   28.8396   28.1042   46.5112 C   0  0  0  0  0  0  0  0  0  0  0  0
   28.4340   27.8678   47.6764 O   0  0  0  0  0  0  0  0  0  0  0  0
   28.0753   27.9312   45.4245 N   0  0  0  0  0  0  0  0  0  0  0  0
   28.5944   28.2115   44.2012 C   0  0  0  0  0  0  0  0  0  0  0  0
   27.8474   28.0368   43.2055 O   0  0  0  0  0  0  0  0  0  0  0  0
   31.6551   29.2004   44.9861 H   0  0  0  0  0  0  0  0  0  0  0  0
   27.0950   27.5849   45.5282 H   0  0  0  0  0  0  0  0  0  0  0  0
  2  7  2  0
  2  1  1  0
  3  2  1  0
  4  5  1  0
  4  3  2  0
  5  6  2  0
  6  7  1  0
  7 15  1  0
  8 13  2  0
  9  8  1  0
 10 11  1  0
 10  9  2  0
 11 12  2  0
 12  3  1  0
 12 13  1  0
 14 10  1  0
 15 16  1  0
 16 17  1  0
 19 18  2  0
 19 21  1  1
 19 17  1  0
 20 19  1  0
 21 22  1  0
 22 24  1  0
 22 23  1  0
 25 22  1  0
  4 26  1  0
  5 27  1  0
  6 28  1  0
  8 29  1  0
  9 30  1  0
 14 31  1  0
 14 32  1  0
 15 33  1  0
 15 34  1  0
 16 35  1  0
 16 36  1  0
 37 38  1  0
 38 39  1  0
 39 40  2  0
 40 41  1  0
 41 42  2  0
 41 43  1  0
 43 44  1  0
 44 45  2  0
 44 38  1  0
 39 46  1  0
 43 47  1  0
 20 40  1  0
M  ISO  8  26  14  27  14  28  14  29  14  30  14  33   8  34   8  35   8
M  ISO  2  36   8  37   9
M  END
>  <DihAtoms>  (1) 
18,19,39,38

>  <DihDeg>  (1) 
-179.99986109455955

$$$$
