
 OpenBabel03272504423D

 46 48  0  0  0  0  0  0  0  0999 V2000
   34.6690   29.2870   48.8520 C   0  0  0  0  0  0  0  0  0  0  0  0
   35.5650   29.2620   49.5170 H   0  0  0  0  0  0  0  0  0  0  0  0
   34.0520   30.1220   49.2990 H   0  0  0  0  0  0  0  0  0  0  0  0
   37.4360   30.3590   48.6640 Cl  0  0  0  0  0  0  0  0  0  0  0  0
   36.3290   30.2400   47.2900 C   0  0  0  0  0  0  0  0  0  0  0  0
   36.7340   30.6540   46.0710 C   0  0  0  0  0  0  0  0  0  0  0  0
   35.8780   30.5650   44.9970 C   0  0  0  0  0  0  0  0  0  0  0  0
   34.6070   30.0450   45.1960 C   0  0  0  0  0  0  0  0  0  0  0  0
   34.2530   29.6330   46.4940 C   0  0  0  0  0  0  0  0  0  0  0  0
   35.0790   29.7150   47.5490 C   0  0  0  0  0  0  0  0  0  0  0  0
   36.2290   30.9070   44.0140 H   0  0  0  0  0  0  0  0  0  0  0  0
   34.0170   30.0180   44.2920 H   0  0  0  0  0  0  0  0  0  0  0  0
   33.2830   29.2870   46.4290 H   0  0  0  0  0  0  0  0  0  0  0  0
   39.7260   32.8040   46.3090 C   0  0  0  0  0  0  0  0  0  0  0  0
   40.6090   32.1250   45.4050 C   0  0  0  0  0  0  0  0  0  0  0  0
   40.1390   30.9630   44.7570 C   0  0  0  0  0  0  0  0  0  0  0  0
   38.8760   30.5370   45.0140 N   0  0  0  0  0  0  0  0  0  0  0  0
   38.0670   31.2010   45.8730 C   0  0  0  0  0  0  0  0  0  0  0  0
   38.4970   32.3100   46.5000 N   0  0  0  0  0  0  0  0  0  0  0  0
   40.1250   33.6840   46.7790 H   0  0  0  0  0  0  0  0  0  0  0  0
   41.6040   32.5060   45.2370 H   0  0  0  0  0  0  0  0  0  0  0  0
   41.0310   30.3290   43.8830 N   0  0  0  0  0  0  0  0  0  0  0  0
   41.9840   29.9920   44.1140 H   0  0  0  0  0  0  0  0  0  0  0  0
   40.5400   30.2700   42.9610 H   0  0  0  0  0  0  0  0  0  0  0  0
   33.9490   28.0280   49.0250 C   0  0  0  0  0  0  0  0  0  0  0  0
   34.3530   27.3770   49.8520 H   0  0  0  0  0  0  0  0  0  0  0  0
   34.0660   27.4020   48.1010 H   0  0  0  0  0  0  0  0  0  0  0  0
   32.6210   28.2300   49.2840 O   0  0  0  0  0  0  0  0  0  0  0  0
   32.4900   26.3480   47.4570 O   0  0  0  0  0  0  0  0  0  0  0  0
   31.6740   27.3480   48.2380 P   0  0  2  0  0  0  0  0  0  0  0  0
   30.9690   28.4970   47.1480 O   0  0  0  0  0  0  0  0  0  0  0  0
   26.9810   27.7780   45.4070 H   0  0  0  0  0  0  0  0  0  0  0  0
   28.0210   27.8000   45.2590 N   0  0  0  0  0  0  0  0  0  0  0  0
   28.8720   28.1300   46.2710 C   0  0  0  0  0  3  0  0  0  0  0  0
   30.2520   28.1480   46.0330 C   0  0  0  0  0  0  0  0  0  0  0  0
   30.6770   27.8270   44.7770 C   0  0  0  0  0  0  0  0  0  0  0  0
   31.9250   27.8620   44.6330 O   0  0  0  0  0  0  0  0  0  0  0  0
   29.8380   27.5040   43.7850 N   0  0  0  0  0  0  0  0  0  0  0  0
   28.5020   27.4910   44.0280 C   0  0  0  0  0  0  0  0  0  0  0  0
   27.7450   27.1820   43.0720 O   0  0  0  0  0  0  0  0  0  0  0  0
   30.2160   27.2670   42.8400 H   0  0  0  0  0  0  0  0  0  0  0  0
   30.4060   26.5840   48.9740 O   0  0  0  0  0  0  0  0  0  0  0  0
   29.7810   27.4200   49.8730 C   0  0  0  0  0  0  0  0  0  0  0  0
   29.3210   26.7400   50.9990 F   0  0  0  0  0  0  0  0  0  0  0  0
   30.6390   28.3860   50.3540 F   0  0  0  0  0  0  0  0  0  0  0  0
   28.6910   28.0300   49.2610 F   0  0  0  0  0  0  0  0  0  0  0  0
  1 25  1  0  0  0  0
  1  3  1  0  0  0  0
  1  2  1  0  0  0  0
  5 10  1  0  0  0  0
  5  4  1  0  0  0  0
  6  5  2  0  0  0  0
  7  8  2  0  0  0  0
  7  6  1  0  0  0  0
  8  9  1  0  0  0  0
  9 10  2  0  0  0  0
 10  1  1  0  0  0  0
 11  7  1  0  0  0  0
 12  8  1  0  0  0  0
 13  9  1  0  0  0  0
 14 19  1  0  0  0  0
 14 20  1  0  0  0  0
 15 14  2  0  0  0  0
 16 17  2  0  0  0  0
 16 15  1  0  0  0  0
 17 18  1  0  0  0  0
 18  6  1  0  0  0  0
 18 19  2  0  0  0  0
 21 15  1  0  0  0  0
 22 23  1  0  0  0  0
 22 16  1  0  0  0  0
 24 22  1  0  0  0  0
 25 28  1  0  0  0  0
 25 26  1  0  0  0  0
 27 25  1  0  0  0  0
 30 29  2  6  0  0  0
 30 42  1  0  0  0  0
 30 28  1  0  0  0  0
 31 30  1  0  0  0  0
 33 32  1  0  0  0  0
 33 34  1  0  0  0  0
 35 34  2  0  0  0  0
 35 31  1  0  0  0  0
 36 35  1  0  0  0  0
 37 36  2  0  0  0  0
 38 39  1  0  0  0  0
 38 36  1  0  0  0  0
 39 33  1  0  0  0  0
 40 39  2  0  0  0  0
 41 38  1  0  0  0  0
 42 43  1  0  0  0  0
 43 45  1  0  0  0  0
 43 44  1  0  0  0  0
 46 43  1  0  0  0  0
M  END
>  <minimizedAffinity>
-5.8501873

>  <minimizedRMSD>
0.529677808

$$$$
