
 OpenBabel03262522193D

 25 26  0  0  0  0  0  0  0  0999 V2000
   38.4860   33.0870   49.2940 O   0  0  0  0  0  0  0  0  0  0  0  0
   38.0830   31.6340   49.1580 P   0  0  1  0  0  0  0  0  0  0  0  0
   38.6920   30.7660   50.4820 O   0  0  0  0  0  0  0  0  0  0  0  0
   38.7640   31.4070   51.2250 H   0  0  0  0  0  0  0  0  0  0  0  0
   36.4000   31.5360   49.2580 O   0  0  0  0  0  0  0  0  0  0  0  0
   35.7690   29.3130   49.8940 C   0  0  0  0  0  0  0  0  0  0  0  0
   35.6150   30.4310   49.0610 C   0  0  0  0  0  0  0  0  0  0  0  0
   34.6480   30.3380   48.0600 C   0  0  0  0  0  0  0  0  0  0  0  0
   33.9170   29.1960   47.9430 N   0  0  0  0  0  0  0  0  0  0  0  0
   34.1080   28.1480   48.7760 C   0  0  0  0  0  0  0  0  0  0  0  0
   35.0410   28.2050   49.7600 N   0  0  0  0  0  0  0  0  0  0  0  0
   36.4940   29.2900   50.6990 H   0  0  0  0  0  0  0  0  0  0  0  0
   34.4980   31.1790   47.3940 H   0  0  0  0  0  0  0  0  0  0  0  0
   33.5200   27.2650   48.6610 H   0  0  0  0  0  0  0  0  0  0  0  0
   38.7000   31.0710   47.7080 O   0  0  0  0  0  0  0  0  0  0  0  0
   35.9360   31.0730   44.1010 H   0  0  0  0  0  0  0  0  0  0  0  0
   36.7800   31.4830   44.5880 N   0  0  0  0  0  0  0  0  0  0  0  0
   37.1100   30.9690   45.7880 C   0  0  0  0  0  0  0  0  0  0  0  0
   38.2020   31.4620   46.4730 C   0  0  0  0  0  0  0  0  0  0  0  0
   38.9330   32.4970   45.8790 C   0  0  0  0  0  0  0  0  0  0  0  0
   39.9500   33.0510   46.3770 O   0  0  0  0  0  0  0  0  0  0  0  0
   38.5740   32.9900   44.6740 N   0  0  0  0  0  0  0  0  0  0  0  0
   37.5120   32.4850   44.0440 C   0  0  0  0  0  0  0  0  0  0  0  0
   37.1060   32.8730   42.9340 O   0  0  0  0  0  0  0  0  0  0  0  0
   39.0510   33.7500   44.1590 H   0  0  0  0  0  0  0  0  0  0  0  0
  2  5  1  0  0  0  0
  2  1  2  1  0  0  0
  2  3  1  0  0  0  0
  3  4  1  0  0  0  0
  6 12  1  0  0  0  0
  7  5  1  0  0  0  0
  7  6  2  0  0  0  0
  8  7  1  0  0  0  0
  9  8  2  0  0  0  0
  9 10  1  0  0  0  0
 10 11  2  0  0  0  0
 11  6  1  0  0  0  0
 13  8  1  0  0  0  0
 14 10  1  0  0  0  0
 15  2  1  0  0  0  0
 16 17  1  0  0  0  0
 17 18  1  0  0  0  0
 18 19  2  0  0  0  0
 19 15  1  0  0  0  0
 20 21  2  0  0  0  0
 20 19  1  0  0  0  0
 22 20  1  0  0  0  0
 23 17  1  0  0  0  0
 23 22  1  0  0  0  0
 24 23  2  0  0  0  0
 25 22  1  0  0  0  0
M  END
>  <minimizedAffinity>
-5.65905571

>  <minimizedRMSD>
3.51042008

$$$$
