
 OpenBabel03272506413D

 20 21  0  0  0  0  0  0  0  0999 V2000
   34.0130   29.1050   49.6950 S   0  0  0  0  0  0  0  0  0  0  0  0
   33.9370   25.3980   46.6790 H   0  0  0  0  0  0  0  0  0  0  0  0
   33.8790   26.4350   46.7970 N   0  0  0  0  0  0  0  0  0  0  0  0
   33.9650   27.0880   47.9880 C   0  0  0  0  0  0  0  0  0  0  0  0
   33.8730   28.4730   48.0290 C   0  0  0  0  0  0  0  0  0  0  0  0
   33.6940   29.1930   46.8620 C   0  0  0  0  0  0  0  0  0  0  0  0
   33.6270   30.4420   47.0400 O   0  0  0  0  0  0  0  0  0  0  0  0
   33.6130   28.5200   45.6980 N   0  0  0  0  0  0  0  0  0  0  0  0
   33.7030   27.1910   45.6790 C   0  0  0  0  0  0  0  0  0  0  0  0
   33.6230   26.5900   44.5640 O   0  0  0  0  0  0  0  0  0  0  0  0
   33.4780   29.1150   44.8540 H   0  0  0  0  0  0  0  0  0  0  0  0
   37.4460   30.0470   51.4530 C   0  0  0  0  0  0  0  0  0  0  0  0
   38.0880   30.8870   50.5470 C   0  0  0  0  0  0  0  0  0  0  0  0
   37.4450   31.1830   49.3400 C   0  0  0  0  0  0  0  0  0  0  0  0
   36.2090   30.6310   49.1060 N   0  0  0  0  0  0  0  0  0  0  0  0
   35.6180   29.8160   50.0150 C   0  0  0  0  0  0  0  0  0  0  0  0
   36.2320   29.5270   51.1790 N   0  0  0  0  0  0  0  0  0  0  0  0
   37.9670   29.8340   52.3780 H   0  0  0  0  0  0  0  0  0  0  0  0
   39.0530   31.3290   50.7120 H   0  0  0  0  0  0  0  0  0  0  0  0
   37.8590   31.8330   48.5550 H   0  0  0  0  0  0  0  0  0  0  0  0
  1 16  1  0  0  0  0
  2  3  1  0  0  0  0
  3  4  1  0  0  0  0
  4  5  2  0  0  0  0
  5  1  1  0  0  0  0
  6  7  2  0  0  0  0
  6  5  1  0  0  0  0
  8  6  1  0  0  0  0
  9  8  1  0  0  0  0
  9  3  1  0  0  0  0
 10  9  2  0  0  0  0
 11  8  1  0  0  0  0
 12 18  1  0  0  0  0
 13 19  1  0  0  0  0
 13 12  2  0  0  0  0
 14 13  1  0  0  0  0
 15 14  2  0  0  0  0
 15 16  1  0  0  0  0
 16 17  2  0  0  0  0
 17 12  1  0  0  0  0
 20 14  1  0  0  0  0
M  END
>  <minimizedAffinity>
-3.90465569

>  <minimizedRMSD>
3.30497193

$$$$
