
 OpenBabel03272506443D

 33 35  0  0  1  0  0  0  0  0999 V2000
   32.2260   28.1740   47.5930 C   0  0  2  0  0  0  0  0  0  0  0  0
   33.5280   28.1480   48.3780 C   0  0  1  0  0  0  0  0  0  0  0  0
   34.0740   26.9060   48.2490 O   0  0  0  0  0  0  0  0  0  0  0  0
   33.3710   26.1980   47.3010 C   0  0  0  0  0  0  0  0  0  0  0  0
   32.6120   27.2370   46.4560 C   0  0  1  0  0  0  0  0  0  0  0  0
   31.4210   27.7360   48.1980 H   0  0  0  0  0  0  0  0  0  0  0  0
   33.3460   28.4780   49.4110 H   0  0  0  0  0  0  0  0  0  0  0  0
   34.0150   25.5520   46.6900 H   0  0  0  0  0  0  0  0  0  0  0  0
   32.5800   25.6270   47.8430 H   0  0  0  0  0  0  0  0  0  0  0  0
   33.3620   27.7180   45.8330 H   0  0  0  0  0  0  0  0  0  0  0  0
   31.9390   29.4580   47.1400 O   0  0  0  0  0  0  0  0  0  0  0  0
   32.5710   29.6660   46.4060 H   0  0  0  0  0  0  0  0  0  0  0  0
   34.6460   29.3500   47.5630 S   0  0  0  0  0  0  0  0  0  0  0  0
   37.2270   29.3480   50.5730 C   0  0  0  0  0  0  0  0  0  0  0  0
   37.7660   30.6380   50.5840 C   0  0  0  0  0  0  0  0  0  0  0  0
   37.3070   31.5510   49.6110 C   0  0  0  0  0  0  0  0  0  0  0  0
   36.3760   31.1270   48.7280 N   0  0  0  0  0  0  0  0  0  0  0  0
   35.8750   29.8740   48.7450 C   0  0  0  0  0  0  0  0  0  0  0  0
   36.2930   28.9870   49.6580 N   0  0  0  0  0  0  0  0  0  0  0  0
   37.5440   28.6110   51.2980 H   0  0  0  0  0  0  0  0  0  0  0  0
   38.4980   30.9200   51.3020 H   0  0  0  0  0  0  0  0  0  0  0  0
   37.6970   32.5620   49.5810 H   0  0  0  0  0  0  0  0  0  0  0  0
   31.5310   26.6470   45.8530 O   0  0  0  0  0  0  0  0  0  0  0  0
   29.5630   29.1860   42.6770 H   0  0  0  0  0  0  0  0  0  0  0  0
   30.0640   28.3150   42.9120 N   0  0  0  0  0  0  0  0  0  0  0  0
   30.3980   28.1790   44.2030 C   0  0  0  0  0  3  0  0  0  0  0  0
   31.0690   27.0470   44.6080 C   0  0  0  0  0  0  0  0  0  0  0  0
   31.3830   26.0690   43.6610 C   0  0  0  0  0  0  0  0  0  0  0  0
   31.9880   24.9760   43.8450 O   0  0  0  0  0  0  0  0  0  0  0  0
   31.0350   26.2230   42.3510 N   0  0  0  0  0  0  0  0  0  0  0  0
   30.3710   27.3600   41.9930 C   0  0  0  0  0  0  0  0  0  0  0  0
   30.0170   27.5740   40.8080 O   0  0  0  0  0  0  0  0  0  0  0  0
   31.2280   25.5550   41.5960 H   0  0  0  0  0  0  0  0  0  0  0  0
  1  6  1  1  0  0  0
  1  2  1  0  0  0  0
  2  7  1  1  0  0  0
  3  2  1  0  0  0  0
  4  9  1  0  0  0  0
  4  3  1  0  0  0  0
  5 10  1  6  0  0  0
  5  4  1  0  0  0  0
  5  1  1  0  0  0  0
  8  4  1  0  0  0  0
 11  1  1  0  0  0  0
 12 11  1  0  0  0  0
 13  2  1  0  0  0  0
 13 18  1  0  0  0  0
 14 15  1  0  0  0  0
 14 20  1  0  0  0  0
 15 21  1  0  0  0  0
 16 15  2  0  0  0  0
 17 18  2  0  0  0  0
 17 16  1  0  0  0  0
 18 19  1  0  0  0  0
 19 14  2  0  0  0  0
 22 16  1  0  0  0  0
 23  5  1  0  0  0  0
 24 25  1  0  0  0  0
 25 26  1  0  0  0  0
 26 27  2  0  0  0  0
 27 23  1  0  0  0  0
 28 29  2  0  0  0  0
 28 27  1  0  0  0  0
 30 28  1  0  0  0  0
 31 30  1  0  0  0  0
 31 25  1  0  0  0  0
 32 31  2  0  0  0  0
 33 30  1  0  0  0  0
M  END
>  <minimizedAffinity>
-3.74277878

>  <minimizedRMSD>
1.22389364

$$$$
