
 OpenBabel03272503423D

 42 45  0  0  1  0  0  0  0  0999 V2000
   39.9840   31.3060   41.7880 C   0  0  2  0  0  0  0  0  0  0  0  0
   39.5870   32.4520   42.7400 C   0  0  1  0  0  0  0  0  0  0  0  0
   38.3600   32.9310   42.0400 C   0  0  0  0  0  0  0  0  0  0  0  0
   38.5600   32.7810   40.6890 O   0  0  0  0  0  0  0  0  0  0  0  0
   39.6840   32.0440   40.4710 C   0  0  0  0  0  0  0  0  0  0  0  0
   41.0410   31.0670   41.8770 H   0  0  0  0  0  0  0  0  0  0  0  0
   40.3520   33.2360   42.7590 H   0  0  0  0  0  0  0  0  0  0  0  0
   37.4100   32.5080   42.4080 H   0  0  0  0  0  0  0  0  0  0  0  0
   38.2950   34.0390   42.2310 H   0  0  0  0  0  0  0  0  0  0  0  0
   40.5660   32.7140   40.3180 H   0  0  0  0  0  0  0  0  0  0  0  0
   39.6520   31.3320   39.6280 H   0  0  0  0  0  0  0  0  0  0  0  0
   38.3890   31.2570   45.9010 C   0  0  0  0  0  0  0  0  0  0  0  0
   39.7190   31.1710   46.1270 C   0  0  0  0  0  0  0  0  0  0  0  0
   40.2990   31.6220   44.9350 C   0  0  0  0  0  0  0  0  0  0  0  0
   39.3420   31.9500   44.0680 N   0  0  0  0  0  0  0  0  0  0  0  0
   38.1590   31.7270   44.6610 N   0  0  0  0  0  0  0  0  0  0  0  0
   40.2110   30.8250   47.0430 H   0  0  0  0  0  0  0  0  0  0  0  0
   41.3850   31.6820   44.7720 H   0  0  0  0  0  0  0  0  0  0  0  0
   36.4950   30.6230   49.0840 C   0  0  0  0  0  0  0  0  0  0  0  0
   37.5200   30.9790   48.2180 C   0  0  0  0  0  0  0  0  0  0  0  0
   37.3510   30.8980   46.8530 C   0  0  0  0  0  0  0  0  0  0  0  0
   36.1450   30.4570   46.4070 N   0  0  0  0  0  0  0  0  0  0  0  0
   35.1510   30.1120   47.2780 C   0  0  0  0  0  0  0  0  0  0  0  0
   35.3190   30.1920   48.5870 N   0  0  0  0  0  0  0  0  0  0  0  0
   38.4990   31.3370   48.5370 H   0  0  0  0  0  0  0  0  0  0  0  0
   34.1990   29.7630   46.8850 H   0  0  0  0  0  0  0  0  0  0  0  0
   36.8350   30.7650   50.4250 O   0  0  0  0  0  0  0  0  0  0  0  0
   36.8770   29.6830   51.3340 C   0  0  0  0  0  0  0  0  0  0  0  0
   35.6160   29.2270   51.6570 F   0  0  0  0  0  0  0  0  0  0  0  0
   37.5740   30.0750   52.4510 F   0  0  0  0  0  0  0  0  0  0  0  0
   37.6050   28.6590   50.7520 F   0  0  0  0  0  0  0  0  0  0  0  0
   39.0580   30.3200   41.9750 O   0  0  0  0  0  0  0  0  0  0  0  0
   36.9330   26.6860   43.2290 H   0  0  0  0  0  0  0  0  0  0  0  0
   37.8360   27.1170   42.9310 N   0  0  0  0  0  0  0  0  0  0  0  0
   37.9540   28.4420   42.6240 C   0  0  0  0  0  0  0  0  0  0  0  0
   39.1820   28.9870   42.2290 C   0  0  0  0  0  0  0  0  0  0  0  0
   40.2550   28.1200   42.1690 C   0  0  0  0  0  0  0  0  0  0  0  0
   41.3090   28.7000   41.8060 O   0  0  0  0  0  0  0  0  0  0  0  0
   40.0970   26.8200   42.4790 N   0  0  0  0  0  0  0  0  0  0  0  0
   38.9140   26.3210   42.8550 C   0  0  0  0  0  0  0  0  0  0  0  0
   38.8740   25.0730   43.1280 O   0  0  0  0  0  0  0  0  0  0  0  0
   40.9610   26.2460   42.4050 H   0  0  0  0  0  0  0  0  0  0  0  0
  1  6  1  1  0  0  0
  1 32  1  0  0  0  0
  1  2  1  0  0  0  0
  2  7  1  1  0  0  0
  2 15  1  0  0  0  0
  3  9  1  0  0  0  0
  3  8  1  0  0  0  0
  3  2  1  0  0  0  0
  4  3  1  0  0  0  0
  5  4  1  0  0  0  0
  5  1  1  0  0  0  0
 10  5  1  0  0  0  0
 11  5  1  0  0  0  0
 12 13  1  0  0  0  0
 12 21  1  0  0  0  0
 13 17  1  0  0  0  0
 14 13  2  0  0  0  0
 15 16  1  0  0  0  0
 15 14  1  0  0  0  0
 16 12  2  0  0  0  0
 18 14  1  0  0  0  0
 19 27  1  0  0  0  0
 20 25  1  0  0  0  0
 20 19  2  0  0  0  0
 21 20  1  0  0  0  0
 22 21  2  0  0  0  0
 22 23  1  0  0  0  0
 23 24  2  0  0  0  0
 24 19  1  0  0  0  0
 26 23  1  0  0  0  0
 27 28  1  0  0  0  0
 28 29  1  0  0  0  0
 28 30  1  0  0  0  0
 31 28  1  0  0  0  0
 32 36  1  0  0  0  0
 34 33  1  0  0  0  0
 35 34  1  0  0  0  0
 36 35  2  0  0  0  0
 37 36  1  0  0  0  0
 37 39  1  0  0  0  0
 38 37  2  0  0  0  0
 39 40  1  0  0  0  0
 40 34  1  0  0  0  0
 40 41  2  0  0  0  0
 42 39  1  0  0  0  0
M  END
>  <minimizedAffinity>
-6.69688845

>  <minimizedRMSD>
0.792871416

$$$$
