
 OpenBabel03272504423D

 46 48  0  0  0  0  0  0  0  0999 V2000
   34.4860   29.2640   48.8410 C   0  0  0  0  0  0  0  0  0  0  0  0
   35.3650   29.2570   49.5280 H   0  0  0  0  0  0  0  0  0  0  0  0
   33.8520   30.1020   49.2570 H   0  0  0  0  0  0  0  0  0  0  0  0
   37.2500   30.3510   48.7020 Cl  0  0  0  0  0  0  0  0  0  0  0  0
   36.1780   30.2000   47.3040 C   0  0  0  0  0  0  0  0  0  0  0  0
   36.6110   30.5950   46.0880 C   0  0  0  0  0  0  0  0  0  0  0  0
   35.7820   30.4810   44.9940 C   0  0  0  0  0  0  0  0  0  0  0  0
   34.5100   29.9560   45.1710 C   0  0  0  0  0  0  0  0  0  0  0  0
   34.1260   29.5640   46.4670 C   0  0  0  0  0  0  0  0  0  0  0  0
   34.9250   29.6710   47.5410 C   0  0  0  0  0  0  0  0  0  0  0  0
   36.1550   30.8080   44.0150 H   0  0  0  0  0  0  0  0  0  0  0  0
   33.9430   29.9090   44.2540 H   0  0  0  0  0  0  0  0  0  0  0  0
   33.1600   29.2110   46.3840 H   0  0  0  0  0  0  0  0  0  0  0  0
   39.5970   32.7430   46.3960 C   0  0  0  0  0  0  0  0  0  0  0  0
   40.4900   32.0840   45.4870 C   0  0  0  0  0  0  0  0  0  0  0  0
   40.0280   30.9350   44.8120 C   0  0  0  0  0  0  0  0  0  0  0  0
   38.7620   30.5020   45.0480 N   0  0  0  0  0  0  0  0  0  0  0  0
   37.9450   31.1480   45.9130 C   0  0  0  0  0  0  0  0  0  0  0  0
   38.3670   32.2440   46.5660 N   0  0  0  0  0  0  0  0  0  0  0  0
   39.9910   33.6130   46.8880 H   0  0  0  0  0  0  0  0  0  0  0  0
   41.4860   32.4690   45.3360 H   0  0  0  0  0  0  0  0  0  0  0  0
   40.9280   30.3190   43.9330 N   0  0  0  0  0  0  0  0  0  0  0  0
   41.8790   29.9780   44.1660 H   0  0  0  0  0  0  0  0  0  0  0  0
   40.4460   30.2790   43.0060 H   0  0  0  0  0  0  0  0  0  0  0  0
   33.7700   28.0030   49.0190 C   0  0  0  0  0  0  0  0  0  0  0  0
   34.1780   27.3550   49.8460 H   0  0  0  0  0  0  0  0  0  0  0  0
   33.8860   27.3750   48.0950 H   0  0  0  0  0  0  0  0  0  0  0  0
   32.4420   28.2020   49.2810 O   0  0  0  0  0  0  0  0  0  0  0  0
   32.3160   26.3640   47.4090 O   0  0  0  0  0  0  0  0  0  0  0  0
   31.4940   27.3280   48.2280 P   0  0  2  0  0  0  0  0  0  0  0  0
   30.7500   28.4900   47.1790 O   0  0  0  0  0  0  0  0  0  0  0  0
   28.9550   25.9360   44.0630 H   0  0  0  0  0  0  0  0  0  0  0  0
   28.8370   26.7480   44.7190 N   0  0  0  0  0  0  0  0  0  0  0  0
   29.8440   27.1380   45.5500 C   0  0  0  0  0  3  0  0  0  0  0  0
   29.6470   28.2240   46.4100 C   0  0  0  0  0  0  0  0  0  0  0  0
   28.4320   28.8460   46.3690 C   0  0  0  0  0  0  0  0  0  0  0  0
   28.3230   29.8110   47.1650 O   0  0  0  0  0  0  0  0  0  0  0  0
   27.4450   28.4600   45.5510 N   0  0  0  0  0  0  0  0  0  0  0  0
   27.6490   27.4040   44.7220 C   0  0  0  0  0  0  0  0  0  0  0  0
   26.6990   27.0710   43.9680 O   0  0  0  0  0  0  0  0  0  0  0  0
   26.5330   28.9710   45.5590 H   0  0  0  0  0  0  0  0  0  0  0  0
   30.2530   26.5210   48.9650 O   0  0  0  0  0  0  0  0  0  0  0  0
   29.6380   27.3170   49.9060 C   0  0  0  0  0  0  0  0  0  0  0  0
   29.3740   26.6330   51.0910 F   0  0  0  0  0  0  0  0  0  0  0  0
   30.4300   28.3860   50.2680 F   0  0  0  0  0  0  0  0  0  0  0  0
   28.4290   27.7860   49.4000 F   0  0  0  0  0  0  0  0  0  0  0  0
  1 25  1  0  0  0  0
  1  3  1  0  0  0  0
  1  2  1  0  0  0  0
  5 10  1  0  0  0  0
  5  4  1  0  0  0  0
  6  5  2  0  0  0  0
  7  8  2  0  0  0  0
  7  6  1  0  0  0  0
  8  9  1  0  0  0  0
  9 10  2  0  0  0  0
 10  1  1  0  0  0  0
 11  7  1  0  0  0  0
 12  8  1  0  0  0  0
 13  9  1  0  0  0  0
 14 19  1  0  0  0  0
 14 20  1  0  0  0  0
 15 14  2  0  0  0  0
 16 17  2  0  0  0  0
 16 15  1  0  0  0  0
 17 18  1  0  0  0  0
 18  6  1  0  0  0  0
 18 19  2  0  0  0  0
 21 15  1  0  0  0  0
 22 23  1  0  0  0  0
 22 16  1  0  0  0  0
 24 22  1  0  0  0  0
 25 28  1  0  0  0  0
 25 26  1  0  0  0  0
 27 25  1  0  0  0  0
 30 29  2  6  0  0  0
 30 42  1  0  0  0  0
 30 28  1  0  0  0  0
 31 30  1  0  0  0  0
 32 33  1  0  0  0  0
 33 39  1  0  0  0  0
 33 34  1  0  0  0  0
 34 35  2  0  0  0  0
 35 31  1  0  0  0  0
 36 35  1  0  0  0  0
 36 37  2  0  0  0  0
 38 41  1  0  0  0  0
 38 36  1  0  0  0  0
 39 38  1  0  0  0  0
 40 39  2  0  0  0  0
 42 43  1  0  0  0  0
 43 45  1  0  0  0  0
 43 44  1  0  0  0  0
 46 43  1  0  0  0  0
M  END
>  <minimizedAffinity>
-6.03755713

>  <minimizedRMSD>
0.58028084

$$$$
