
 OpenBabel03272505093D

 30 32  0  0  0  0  0  0  0  0999 V2000
   36.4280   30.9790   45.7700 Cl  0  0  0  0  0  0  0  0  0  0  0  0
   36.7750   30.8840   47.4790 C   0  0  0  0  0  0  0  0  0  0  0  0
   38.0500   31.1890   47.8690 C   0  0  0  0  0  0  0  0  0  0  0  0
   38.3510   31.1180   49.2320 C   0  0  0  0  0  0  0  0  0  0  0  0
   37.3740   30.7510   50.1250 C   0  0  0  0  0  0  0  0  0  0  0  0
   36.1050   30.4580   49.6520 C   0  0  0  0  0  0  0  0  0  0  0  0
   35.7460   30.5080   48.3260 C   0  0  0  0  0  0  0  0  0  0  0  0
   39.3520   31.3540   49.5660 H   0  0  0  0  0  0  0  0  0  0  0  0
   37.6000   30.6950   51.1810 H   0  0  0  0  0  0  0  0  0  0  0  0
   35.3410   30.1680   50.3750 H   0  0  0  0  0  0  0  0  0  0  0  0
   40.2840   33.3080   45.8950 C   0  0  0  0  0  0  0  0  0  0  0  0
   40.9600   32.4080   45.0580 C   0  0  0  0  0  0  0  0  0  0  0  0
   40.6260   31.0650   45.1930 C   0  0  0  0  0  0  0  0  0  0  0  0
   39.6830   30.6900   46.1090 N   0  0  0  0  0  0  0  0  0  0  0  0
   39.0660   31.5760   46.8820 C   0  0  0  0  0  0  0  0  0  0  0  0
   39.3720   32.8830   46.7680 N   0  0  0  0  0  0  0  0  0  0  0  0
   40.4720   34.3690   45.8640 H   0  0  0  0  0  0  0  0  0  0  0  0
   41.6940   32.7930   44.3620 H   0  0  0  0  0  0  0  0  0  0  0  0
   41.1230   30.3550   44.5710 H   0  0  0  0  0  0  0  0  0  0  0  0
   34.1290   30.1410   47.7070 S   0  0  0  0  0  0  0  0  0  0  0  0
   33.9600   26.6500   44.3110 H   0  0  0  0  0  0  0  0  0  0  0  0
   33.9640   26.8540   45.3330 N   0  0  0  0  0  0  0  0  0  0  0  0
   34.0340   28.1620   45.6430 C   0  0  0  0  0  3  0  0  0  0  0  0
   34.0420   28.4910   47.0000 C   0  0  0  0  0  0  0  0  0  0  0  0
   33.9780   27.4740   47.9560 C   0  0  0  0  0  0  0  0  0  0  0  0
   33.9800   27.6800   49.1930 O   0  0  0  0  0  0  0  0  0  0  0  0
   33.9090   26.1800   47.5860 N   0  0  0  0  0  0  0  0  0  0  0  0
   33.9030   25.8990   46.2710 C   0  0  0  0  0  0  0  0  0  0  0  0
   33.8410   24.7330   45.8440 O   0  0  0  0  0  0  0  0  0  0  0  0
   33.8600   25.3920   48.2820 H   0  0  0  0  0  0  0  0  0  0  0  0
  1  2  1  0  0  0  0
  2  3  2  0  0  0  0
  2  7  1  0  0  0  0
  3  4  1  0  0  0  0
  4  8  1  0  0  0  0
  4  5  2  0  0  0  0
  5  9  1  0  0  0  0
  6  5  1  0  0  0  0
  6 10  1  0  0  0  0
  7  6  2  0  0  0  0
 11 16  1  0  0  0  0
 12 13  1  0  0  0  0
 12 11  2  0  0  0  0
 13 14  2  0  0  0  0
 14 15  1  0  0  0  0
 15  3  1  0  0  0  0
 16 15  2  0  0  0  0
 17 11  1  0  0  0  0
 18 12  1  0  0  0  0
 19 13  1  0  0  0  0
 20  7  1  0  0  0  0
 21 22  1  0  0  0  0
 22 23  1  0  0  0  0
 22 28  1  0  0  0  0
 23 24  2  0  0  0  0
 24 20  1  0  0  0  0
 24 25  1  0  0  0  0
 25 26  2  0  0  0  0
 27 25  1  0  0  0  0
 27 30  1  0  0  0  0
 28 27  1  0  0  0  0
 29 28  2  0  0  0  0
M  END
>  <minimizedAffinity>
-5.57530451

>  <minimizedRMSD>
1.25923753

$$$$
