REMARK  Name = 
REMARK  3 active torsions:
REMARK  status: ('A' for Active; 'I' for Inactive)
REMARK    1  A    between atoms: C_3  and  C_10
REMARK    2  A    between atoms: C_7  and  N_16
REMARK    3  A    between atoms: C_14  and  C_27
REMARK                            x       y       z     vdW  Elec       q    Type
REMARK                         _______ _______ _______ _____ _____    ______ ____
ROOT
ATOM      1  F   UNL     1      38.454  30.443  47.313  0.00  0.00    +0.000 F 
ATOM      2  C   UNL     1      38.750  31.666  47.788  0.00  0.00    +0.000 A 
ATOM      3  C   UNL     1      38.235  32.067  48.989  0.00  0.00    +0.000 A 
ATOM      4  C   UNL     1      38.575  33.329  49.423  0.00  0.00    +0.000 A 
ATOM      5  C   UNL     1      39.396  34.173  48.703  0.00  0.00    +0.000 A 
ATOM      6  C   UNL     1      39.909  33.752  47.492  0.00  0.00    +0.000 A 
ATOM      7  C   UNL     1      39.575  32.492  47.047  0.00  0.00    +0.000 A 
ATOM      8  H   UNL     1      38.167  33.654  50.379  0.00  0.00    +0.000 HD
ATOM      9  H   UNL     1      39.657  35.164  49.055  0.00  0.00    +0.000 HD
ATOM     10  H   UNL     1      40.551  34.357  46.885  0.00  0.00    +0.000 HD
ENDROOT
BRANCH   3  13
ATOM     11  C   UNL     1      36.928  29.599  51.533  0.00  0.00    +0.000 A 
ATOM     12  C   UNL     1      37.791  30.481  50.860  0.00  0.00    +0.000 A 
ATOM     13  C   UNL     1      37.374  31.147  49.715  0.00  0.00    +0.000 A 
ATOM     14  N   UNL     1      36.093  30.906  49.277  0.00  0.00    +0.000 NA
ATOM     15  C   UNL     1      35.281  30.058  49.935  0.00  0.00    +0.000 A 
ATOM     16  N   UNL     1      35.684  29.419  51.036  0.00  0.00    +0.000 NA
ATOM     17  H   UNL     1      37.271  29.089  52.425  0.00  0.00    +0.000 HD
ATOM     18  H   UNL     1      38.774  30.634  51.239  0.00  0.00    +0.000 HD
ATOM     19  H   UNL     1      34.304  29.966  49.479  0.00  0.00    +0.000 HD
ENDBRANCH   3  13
BRANCH   7  22
ATOM     20  C   UNL     1      39.200  32.152  44.678  0.00  0.00    +0.000 C 
ATOM     21  O   UNL     1      38.085  32.710  44.997  0.00  0.00    +0.000 OA
ATOM     22  N   UNL     1      40.077  32.006  45.785  0.00  0.00    +0.000 N 
ATOM     23  H   UNL     1      40.995  31.576  45.642  0.00  0.00    +0.000 HD
BRANCH  20  27
ATOM     24  H   UNL     1      38.436  29.262  41.344  0.00  0.00    +0.000 HD
ATOM     25  N   UNL     1      38.949  30.123  41.625  0.00  0.00    +0.000 N 
ATOM     26  C   UNL     1      38.791  30.594  42.873  0.00  0.00    +0.000 A 
ATOM     27  C   UNL     1      39.452  31.747  43.315  0.00  0.00    +0.000 A 
ATOM     28  C   UNL     1      40.253  32.318  42.351  0.00  0.00    +0.000 A 
ATOM     29  O   UNL     1      40.858  33.338  42.692  0.00  0.00    +0.000 OA
ATOM     30  N   UNL     1      40.402  31.837  41.107  0.00  0.00    +0.000 N 
ATOM     31  C   UNL     1      39.747  30.727  40.727  0.00  0.00    +0.000 A 
ATOM     32  O   UNL     1      39.847  30.237  39.588  0.00  0.00    +0.000 OA
ATOM     33  H   UNL     1      41.030  32.340  40.451  0.00  0.00    +0.000 HD
ENDBRANCH  20  27
ENDBRANCH   7  22
TORSDOF 3
