
 OpenBabel03272504243D

 40 42  0  0  1  0  0  0  0  0999 V2000
   37.9270   25.4330   35.2070 C   0  0  2  0  0  0  0  0  0  0  0  0
   37.4090   25.7890   33.8260 C   0  0  1  0  0  0  0  0  0  0  0  0
   37.9300   27.2270   33.7610 C   0  0  0  0  0  0  0  0  0  0  0  0
   39.2590   27.0320   34.1030 O   0  0  0  0  0  0  0  0  0  0  0  0
   39.3120   26.1010   35.1200 C   0  0  0  0  0  0  0  0  0  0  0  0
   37.3080   25.9150   35.9800 H   0  0  0  0  0  0  0  0  0  0  0  0
   36.3100   25.7510   33.7500 H   0  0  0  0  0  0  0  0  0  0  0  0
   37.8720   27.5250   32.6930 H   0  0  0  0  0  0  0  0  0  0  0  0
   37.3750   27.8700   34.4530 H   0  0  0  0  0  0  0  0  0  0  0  0
   39.5480   26.5850   36.0930 H   0  0  0  0  0  0  0  0  0  0  0  0
   40.0310   25.2940   34.8470 H   0  0  0  0  0  0  0  0  0  0  0  0
   38.0730   25.0070   32.9140 O   0  0  0  0  0  0  0  0  0  0  0  0
   35.7490   24.9350   31.7340 O   0  0  0  0  0  0  0  0  0  0  0  0
   37.2220   24.8180   31.4690 P   0  0  1  0  0  0  0  0  0  0  0  0
   37.6640   26.0700   30.3810 O   0  0  0  0  0  0  0  0  0  0  0  0
   38.5790   26.3380   30.6260 H   0  0  0  0  0  0  0  0  0  0  0  0
   37.5930   23.3160   30.7710 O   0  0  0  0  0  0  0  0  0  0  0  0
   38.0150   22.4900   31.7920 C   0  0  0  0  0  0  0  0  0  0  0  0
   38.9550   21.9580   31.5520 H   0  0  0  0  0  0  0  0  0  0  0  0
   38.2620   23.1390   32.6720 H   0  0  0  0  0  0  0  0  0  0  0  0
   36.9970   21.5030   32.2150 C   0  0  0  0  0  0  0  0  0  0  0  0
   36.4810   20.6880   31.2370 C   0  0  0  0  0  0  0  0  0  0  0  0
   35.5150   19.7360   31.5740 C   0  0  0  0  0  0  0  0  0  0  0  0
   35.1370   19.6740   32.8830 N   0  0  0  0  0  0  0  0  0  0  0  0
   35.6600   20.4870   33.8250 C   0  0  0  0  0  0  0  0  0  0  0  0
   36.5900   21.4030   33.4920 N   0  0  0  0  0  0  0  0  0  0  0  0
   36.7120   20.6610   30.1890 H   0  0  0  0  0  0  0  0  0  0  0  0
   35.0550   19.0520   30.8640 H   0  0  0  0  0  0  0  0  0  0  0  0
   35.3230   20.3940   34.8500 H   0  0  0  0  0  0  0  0  0  0  0  0
   38.0230   24.0650   35.2830 O   0  0  0  0  0  0  0  0  0  0  0  0
   41.7680   21.5120   35.3630 H   0  0  0  0  0  0  0  0  0  0  0  0
   40.9910   21.9660   35.8900 N   0  0  0  0  0  0  0  0  0  0  0  0
   40.0600   22.6880   35.2520 C   0  0  0  0  0  3  0  0  0  0  0  0
   39.0030   23.3120   35.9070 C   0  0  0  0  0  0  0  0  0  0  0  0
   38.9400   23.1600   37.2780 C   0  0  0  0  0  0  0  0  0  0  0  0
   38.0380   23.6680   38.0140 O   0  0  0  0  0  0  0  0  0  0  0  0
   39.8750   22.4300   37.9490 N   0  0  0  0  0  0  0  0  0  0  0  0
   40.8600   21.8630   37.2310 C   0  0  0  0  0  0  0  0  0  0  0  0
   41.7420   21.1830   37.8160 O   0  0  0  0  0  0  0  0  0  0  0  0
   39.8300   22.3140   38.9750 H   0  0  0  0  0  0  0  0  0  0  0  0
  1 30  1  0  0  0  0
  1  6  1  1  0  0  0
  2  7  1  6  0  0  0
  2  1  1  0  0  0  0
  3  2  1  0  0  0  0
  3  4  1  0  0  0  0
  3  9  1  0  0  0  0
  4  5  1  0  0  0  0
  5  1  1  0  0  0  0
  5 10  1  0  0  0  0
  8  3  1  0  0  0  0
 11  5  1  0  0  0  0
 12  2  1  0  0  0  0
 14 13  2  1  0  0  0
 14 12  1  0  0  0  0
 15 16  1  0  0  0  0
 15 14  1  0  0  0  0
 17 14  1  0  0  0  0
 17 18  1  0  0  0  0
 18 21  1  0  0  0  0
 18 20  1  0  0  0  0
 19 18  1  0  0  0  0
 21 26  1  0  0  0  0
 22 23  1  0  0  0  0
 22 21  2  0  0  0  0
 23 24  2  0  0  0  0
 24 25  1  0  0  0  0
 25 29  1  0  0  0  0
 26 25  2  0  0  0  0
 27 22  1  0  0  0  0
 28 23  1  0  0  0  0
 30 34  1  0  0  0  0
 31 32  1  0  0  0  0
 32 38  1  0  0  0  0
 33 32  1  0  0  0  0
 33 34  2  0  0  0  0
 34 35  1  0  0  0  0
 35 37  1  0  0  0  0
 35 36  2  0  0  0  0
 37 40  1  0  0  0  0
 38 39  2  0  0  0  0
 38 37  1  0  0  0  0
M  END
>  <minimizedAffinity>
-5.45741796

$$$$

 OpenBabel03272504243D

 40 42  0  0  1  0  0  0  0  0999 V2000
   36.9260   21.4090   32.8700 C   0  0  2  0  0  0  0  0  0  0  0  0
   36.3410   22.0130   31.6070 C   0  0  1  0  0  0  0  0  0  0  0  0
   35.3990   20.8670   31.2330 C   0  0  0  0  0  0  0  0  0  0  0  0
   34.7260   20.6870   32.4310 O   0  0  0  0  0  0  0  0  0  0  0  0
   35.6390   20.8020   33.4600 C   0  0  0  0  0  0  0  0  0  0  0  0
   37.6490   20.6180   32.6140 H   0  0  0  0  0  0  0  0  0  0  0  0
   37.0940   22.1930   30.8230 H   0  0  0  0  0  0  0  0  0  0  0  0
   34.6940   21.2840   30.4830 H   0  0  0  0  0  0  0  0  0  0  0  0
   35.9680   19.9920   30.8980 H   0  0  0  0  0  0  0  0  0  0  0  0
   35.8700   19.8080   33.9020 H   0  0  0  0  0  0  0  0  0  0  0  0
   35.2620   21.5370   34.2100 H   0  0  0  0  0  0  0  0  0  0  0  0
   35.6150   23.1210   31.9680 O   0  0  0  0  0  0  0  0  0  0  0  0
   37.3790   24.2300   30.4010 O   0  0  0  0  0  0  0  0  0  0  0  0
   36.2090   24.5460   31.2890 P   0  0  1  0  0  0  0  0  0  0  0  0
   34.9900   25.2660   30.3200 O   0  0  0  0  0  0  0  0  0  0  0  0
   34.1290   24.9760   30.7000 H   0  0  0  0  0  0  0  0  0  0  0  0
   36.6590   25.6290   32.5170 O   0  0  0  0  0  0  0  0  0  0  0  0
   37.7080   26.3790   32.0280 C   0  0  0  0  0  0  0  0  0  0  0  0
   38.4570   26.6240   32.8040 H   0  0  0  0  0  0  0  0  0  0  0  0
   38.2560   25.7490   31.2800 H   0  0  0  0  0  0  0  0  0  0  0  0
   37.2810   27.6280   31.3580 C   0  0  0  0  0  0  0  0  0  0  0  0
   36.5080   28.4920   32.0950 C   0  0  0  0  0  0  0  0  0  0  0  0
   36.0730   29.6880   31.5170 C   0  0  0  0  0  0  0  0  0  0  0  0
   36.4510   29.9270   30.2290 N   0  0  0  0  0  0  0  0  0  0  0  0
   37.2120   29.0610   29.5270 C   0  0  0  0  0  0  0  0  0  0  0  0
   37.6260   27.9100   30.0910 N   0  0  0  0  0  0  0  0  0  0  0  0
   36.1610   28.3940   33.1050 H   0  0  0  0  0  0  0  0  0  0  0  0
   35.4590   30.4280   32.0280 H   0  0  0  0  0  0  0  0  0  0  0  0
   37.4830   29.3020   28.5060 H   0  0  0  0  0  0  0  0  0  0  0  0
   37.4090   22.4340   33.6460 O   0  0  0  0  0  0  0  0  0  0  0  0
   38.4330   22.3680   38.0600 H   0  0  0  0  0  0  0  0  0  0  0  0
   38.7620   22.3260   37.0720 N   0  0  0  0  0  0  0  0  0  0  0  0
   37.8920   22.4050   36.0560 C   0  0  0  0  0  3  0  0  0  0  0  0
   38.2770   22.3560   34.7210 C   0  0  0  0  0  0  0  0  0  0  0  0
   39.6270   22.2180   34.4650 C   0  0  0  0  0  0  0  0  0  0  0  0
   40.1330   22.1570   33.3020 O   0  0  0  0  0  0  0  0  0  0  0  0
   40.5310   22.1360   35.4810 N   0  0  0  0  0  0  0  0  0  0  0  0
   40.0650   22.1930   36.7400 C   0  0  0  0  0  0  0  0  0  0  0  0
   40.8700   22.1200   37.7050 O   0  0  0  0  0  0  0  0  0  0  0  0
   41.5430   22.0330   35.2930 H   0  0  0  0  0  0  0  0  0  0  0  0
  1  6  1  6  0  0  0
  1  5  1  0  0  0  0
  1 30  1  0  0  0  0
  2  7  1  6  0  0  0
  2 12  1  0  0  0  0
  2  1  1  0  0  0  0
  3  2  1  0  0  0  0
  3  4  1  0  0  0  0
  4  5  1  0  0  0  0
  5 10  1  0  0  0  0
  5 11  1  0  0  0  0
  8  3  1  0  0  0  0
  9  3  1  0  0  0  0
 14 13  2  6  0  0  0
 14 12  1  0  0  0  0
 14 17  1  0  0  0  0
 15 16  1  0  0  0  0
 15 14  1  0  0  0  0
 18 17  1  0  0  0  0
 18 19  1  0  0  0  0
 20 18  1  0  0  0  0
 21 18  1  0  0  0  0
 21 22  1  0  0  0  0
 22 27  1  0  0  0  0
 23 28  1  0  0  0  0
 23 22  2  0  0  0  0
 24 23  1  0  0  0  0
 25 26  1  0  0  0  0
 25 24  2  0  0  0  0
 26 21  2  0  0  0  0
 29 25  1  0  0  0  0
 30 34  1  0  0  0  0
 32 31  1  0  0  0  0
 33 32  1  0  0  0  0
 34 33  2  0  0  0  0
 35 34  1  0  0  0  0
 35 37  1  0  0  0  0
 36 35  2  0  0  0  0
 37 38  1  0  0  0  0
 38 32  1  0  0  0  0
 38 39  2  0  0  0  0
 40 37  1  0  0  0  0
M  END
>  <minimizedAffinity>
-5.32567167

$$$$

 OpenBabel03272504243D

 40 42  0  0  1  0  0  0  0  0999 V2000
   38.0160   22.7150   32.6360 C   0  0  2  0  0  0  0  0  0  0  0  0
   37.2620   23.5130   31.5890 C   0  0  1  0  0  0  0  0  0  0  0  0
   36.3150   22.4100   31.1130 C   0  0  0  0  0  0  0  0  0  0  0  0
   35.8010   21.9740   32.3240 O   0  0  0  0  0  0  0  0  0  0  0  0
   36.8300   21.9420   33.2430 C   0  0  0  0  0  0  0  0  0  0  0  0
   38.7240   22.0250   32.1510 H   0  0  0  0  0  0  0  0  0  0  0  0
   37.9070   23.8760   30.7720 H   0  0  0  0  0  0  0  0  0  0  0  0
   35.5110   22.9220   30.5430 H   0  0  0  0  0  0  0  0  0  0  0  0
   36.8640   21.6440   30.5530 H   0  0  0  0  0  0  0  0  0  0  0  0
   37.1430   20.8970   33.4570 H   0  0  0  0  0  0  0  0  0  0  0  0
   36.5280   22.5030   34.1580 H   0  0  0  0  0  0  0  0  0  0  0  0
   36.5540   24.4940   32.2370 O   0  0  0  0  0  0  0  0  0  0  0  0
   37.9990   26.1290   30.8100 O   0  0  0  0  0  0  0  0  0  0  0  0
   36.6580   25.9940   31.4720 P   0  0  1  0  0  0  0  0  0  0  0  0
   35.4550   26.0960   30.2520 O   0  0  0  0  0  0  0  0  0  0  0  0
   34.7210   25.5030   30.5390 H   0  0  0  0  0  0  0  0  0  0  0  0
   36.4140   27.2380   32.6010 O   0  0  0  0  0  0  0  0  0  0  0  0
   35.7840   28.2690   31.9360 C   0  0  0  0  0  0  0  0  0  0  0  0
   36.2150   28.4590   30.9350 H   0  0  0  0  0  0  0  0  0  0  0  0
   34.7260   27.9520   31.7450 H   0  0  0  0  0  0  0  0  0  0  0  0
   35.7570   29.5370   32.6980 C   0  0  0  0  0  0  0  0  0  0  0  0
   35.5640   29.4390   34.0560 C   0  0  0  0  0  0  0  0  0  0  0  0
   35.5280   30.6010   34.8310 C   0  0  0  0  0  0  0  0  0  0  0  0
   35.6910   31.7860   34.1770 N   0  0  0  0  0  0  0  0  0  0  0  0
   35.8780   31.8560   32.8420 C   0  0  0  0  0  0  0  0  0  0  0  0
   35.9110   30.7310   32.1020 N   0  0  0  0  0  0  0  0  0  0  0  0
   35.4280   28.5600   34.6560 H   0  0  0  0  0  0  0  0  0  0  0  0
   35.3810   30.6140   35.9090 H   0  0  0  0  0  0  0  0  0  0  0  0
   36.0020   32.8250   32.3750 H   0  0  0  0  0  0  0  0  0  0  0  0
   38.5610   23.6010   33.5330 O   0  0  0  0  0  0  0  0  0  0  0  0
   39.7070   21.4890   37.3750 H   0  0  0  0  0  0  0  0  0  0  0  0
   39.2740   22.3160   36.9120 N   0  0  0  0  0  0  0  0  0  0  0  0
   39.2110   22.3990   35.5760 C   0  0  0  0  0  3  0  0  0  0  0  0
   38.6440   23.4800   34.9090 C   0  0  0  0  0  0  0  0  0  0  0  0
   38.1320   24.4970   35.6900 C   0  0  0  0  0  0  0  0  0  0  0  0
   37.5840   25.5460   35.2290 O   0  0  0  0  0  0  0  0  0  0  0  0
   38.1840   24.4350   37.0490 N   0  0  0  0  0  0  0  0  0  0  0  0
   38.7510   23.3510   37.6060 C   0  0  0  0  0  0  0  0  0  0  0  0
   38.8180   23.2590   38.8590 O   0  0  0  0  0  0  0  0  0  0  0  0
   37.8000   25.1950   37.6370 H   0  0  0  0  0  0  0  0  0  0  0  0
  1  6  1  6  0  0  0
  1  5  1  0  0  0  0
  1 30  1  0  0  0  0
  2  7  1  6  0  0  0
  2 12  1  0  0  0  0
  2  1  1  0  0  0  0
  3  2  1  0  0  0  0
  3  4  1  0  0  0  0
  4  5  1  0  0  0  0
  5 10  1  0  0  0  0
  5 11  1  0  0  0  0
  8  3  1  0  0  0  0
  9  3  1  0  0  0  0
 14 13  2  6  0  0  0
 14 12  1  0  0  0  0
 14 17  1  0  0  0  0
 15 16  1  0  0  0  0
 15 14  1  0  0  0  0
 18 17  1  0  0  0  0
 18 21  1  0  0  0  0
 19 18  1  0  0  0  0
 20 18  1  0  0  0  0
 21 22  1  0  0  0  0
 22 27  1  0  0  0  0
 22 23  2  0  0  0  0
 23 28  1  0  0  0  0
 24 23  1  0  0  0  0
 25 24  2  0  0  0  0
 26 21  2  0  0  0  0
 26 25  1  0  0  0  0
 29 25  1  0  0  0  0
 30 34  1  0  0  0  0
 32 31  1  0  0  0  0
 32 38  1  0  0  0  0
 33 32  1  0  0  0  0
 34 33  2  0  0  0  0
 34 35  1  0  0  0  0
 35 37  1  0  0  0  0
 36 35  2  0  0  0  0
 37 38  1  0  0  0  0
 37 40  1  0  0  0  0
 38 39  2  0  0  0  0
M  END
>  <minimizedAffinity>
-5.24966908

$$$$

 OpenBabel03272504243D

 40 42  0  0  1  0  0  0  0  0999 V2000
   35.5640   28.5890   32.3960 C   0  0  2  0  0  0  0  0  0  0  0  0
   36.4880   27.4050   32.6120 C   0  0  1  0  0  0  0  0  0  0  0  0
   36.6260   26.9660   31.1520 C   0  0  0  0  0  0  0  0  0  0  0  0
   36.9750   28.1680   30.5560 O   0  0  0  0  0  0  0  0  0  0  0  0
   36.2170   29.1700   31.1270 C   0  0  0  0  0  0  0  0  0  0  0  0
   34.5420   28.2400   32.1840 H   0  0  0  0  0  0  0  0  0  0  0  0
   36.0410   26.6130   33.2340 H   0  0  0  0  0  0  0  0  0  0  0  0
   37.4990   26.2800   31.1200 H   0  0  0  0  0  0  0  0  0  0  0  0
   35.6860   26.5370   30.7870 H   0  0  0  0  0  0  0  0  0  0  0  0
   35.4220   29.5150   30.4300 H   0  0  0  0  0  0  0  0  0  0  0  0
   36.8870   29.9930   31.4690 H   0  0  0  0  0  0  0  0  0  0  0  0
   37.6880   27.8860   33.0740 O   0  0  0  0  0  0  0  0  0  0  0  0
   39.7660   26.7100   34.1200 O   0  0  0  0  0  0  0  0  0  0  0  0
   38.3080   26.9820   34.3560 P   0  0  1  0  0  0  0  0  0  0  0  0
   38.1670   27.8840   35.8090 O   0  0  0  0  0  0  0  0  0  0  0  0
   37.4010   28.4890   35.6840 H   0  0  0  0  0  0  0  0  0  0  0  0
   37.4420   25.5300   34.5140 O   0  0  0  0  0  0  0  0  0  0  0  0
   38.3680   24.5270   34.7060 C   0  0  0  0  0  0  0  0  0  0  0  0
   38.1560   23.6260   34.1000 H   0  0  0  0  0  0  0  0  0  0  0  0
   39.3570   24.9030   34.3350 H   0  0  0  0  0  0  0  0  0  0  0  0
   38.5260   24.1300   36.1220 C   0  0  0  0  0  0  0  0  0  0  0  0
   39.6070   23.3360   36.4260 C   0  0  0  0  0  0  0  0  0  0  0  0
   39.8100   22.9270   37.7470 C   0  0  0  0  0  0  0  0  0  0  0  0
   38.9040   23.3510   38.6730 N   0  0  0  0  0  0  0  0  0  0  0  0
   37.8500   24.1310   38.3480 C   0  0  0  0  0  0  0  0  0  0  0  0
   37.6610   24.5200   37.0730 N   0  0  0  0  0  0  0  0  0  0  0  0
   40.3680   22.9540   35.7730 H   0  0  0  0  0  0  0  0  0  0  0  0
   40.6370   22.3000   38.0740 H   0  0  0  0  0  0  0  0  0  0  0  0
   37.1610   24.4390   39.1250 H   0  0  0  0  0  0  0  0  0  0  0  0
   35.7000   29.4330   33.4710 O   0  0  0  0  0  0  0  0  0  0  0  0
   31.3900   30.1110   34.6990 H   0  0  0  0  0  0  0  0  0  0  0  0
   32.4020   30.2800   34.8810 N   0  0  0  0  0  0  0  0  0  0  0  0
   33.3400   29.7580   34.0790 C   0  0  0  0  0  3  0  0  0  0  0  0
   34.7030   29.9550   34.2770 C   0  0  0  0  0  0  0  0  0  0  0  0
   35.0710   30.7290   35.3590 C   0  0  0  0  0  0  0  0  0  0  0  0
   36.2730   30.9980   35.6700 O   0  0  0  0  0  0  0  0  0  0  0  0
   34.1370   31.2710   36.1890 N   0  0  0  0  0  0  0  0  0  0  0  0
   32.8430   31.0270   35.9180 C   0  0  0  0  0  0  0  0  0  0  0  0
   31.9510   31.5100   36.6620 O   0  0  0  0  0  0  0  0  0  0  0  0
   34.4100   31.8510   36.9990 H   0  0  0  0  0  0  0  0  0  0  0  0
  1  6  1  6  0  0  0
  1  2  1  0  0  0  0
  1 30  1  0  0  0  0
  2 12  1  0  0  0  0
  2  7  1  1  0  0  0
  3  2  1  0  0  0  0
  4  5  1  0  0  0  0
  4  3  1  0  0  0  0
  5 11  1  0  0  0  0
  5  1  1  0  0  0  0
  8  3  1  0  0  0  0
  9  3  1  0  0  0  0
 10  5  1  0  0  0  0
 12 14  1  0  0  0  0
 14 13  2  6  0  0  0
 14 17  1  0  0  0  0
 14 15  1  0  0  0  0
 16 15  1  0  0  0  0
 17 18  1  0  0  0  0
 18 21  1  0  0  0  0
 19 18  1  0  0  0  0
 20 18  1  0  0  0  0
 21 22  2  0  0  0  0
 21 26  1  0  0  0  0
 22 23  1  0  0  0  0
 23 28  1  0  0  0  0
 23 24  2  0  0  0  0
 25 24  1  0  0  0  0
 25 29  1  0  0  0  0
 26 25  2  0  0  0  0
 27 22  1  0  0  0  0
 30 34  1  0  0  0  0
 31 32  1  0  0  0  0
 32 38  1  0  0  0  0
 33 34  2  0  0  0  0
 33 32  1  0  0  0  0
 34 35  1  0  0  0  0
 35 36  2  0  0  0  0
 35 37  1  0  0  0  0
 37 40  1  0  0  0  0
 38 37  1  0  0  0  0
 38 39  2  0  0  0  0
M  END
>  <minimizedAffinity>
-5.23355246

$$$$

 OpenBabel03272504243D

 40 42  0  0  1  0  0  0  0  0999 V2000
   37.8940   25.4980   35.4070 C   0  0  2  0  0  0  0  0  0  0  0  0
   37.3700   26.1980   34.1660 C   0  0  1  0  0  0  0  0  0  0  0  0
   36.8560   27.4740   34.8370 C   0  0  0  0  0  0  0  0  0  0  0  0
   37.9730   27.8470   35.5670 O   0  0  0  0  0  0  0  0  0  0  0  0
   38.5340   26.7090   36.1100 C   0  0  0  0  0  0  0  0  0  0  0  0
   37.0560   25.1000   36.0000 H   0  0  0  0  0  0  0  0  0  0  0  0
   36.5580   25.6460   33.6660 H   0  0  0  0  0  0  0  0  0  0  0  0
   36.6990   28.2070   34.0180 H   0  0  0  0  0  0  0  0  0  0  0  0
   35.9690   27.2610   35.4440 H   0  0  0  0  0  0  0  0  0  0  0  0
   38.3360   26.6470   37.2020 H   0  0  0  0  0  0  0  0  0  0  0  0
   39.6210   26.6760   35.8600 H   0  0  0  0  0  0  0  0  0  0  0  0
   38.4450   26.4890   33.3630 O   0  0  0  0  0  0  0  0  0  0  0  0
   38.8960   26.5030   30.7950 O   0  0  0  0  0  0  0  0  0  0  0  0
   38.4400   25.6160   31.9190 P   0  0  1  0  0  0  0  0  0  0  0  0
   39.5440   24.3080   32.0410 O   0  0  0  0  0  0  0  0  0  0  0  0
   39.5960   24.0800   32.9980 H   0  0  0  0  0  0  0  0  0  0  0  0
   36.8840   25.0090   31.6140 O   0  0  0  0  0  0  0  0  0  0  0  0
   37.0420   23.7550   31.0600 C   0  0  0  0  0  0  0  0  0  0  0  0
   36.5550   23.6590   30.0720 H   0  0  0  0  0  0  0  0  0  0  0  0
   38.1360   23.6070   30.8640 H   0  0  0  0  0  0  0  0  0  0  0  0
   36.5760   22.6570   31.9370 C   0  0  0  0  0  0  0  0  0  0  0  0
   35.4780   21.9500   31.5110 C   0  0  0  0  0  0  0  0  0  0  0  0
   34.9890   20.9010   32.2950 C   0  0  0  0  0  0  0  0  0  0  0  0
   35.6490   20.6400   33.4600 N   0  0  0  0  0  0  0  0  0  0  0  0
   36.7260   21.3510   33.8560 C   0  0  0  0  0  0  0  0  0  0  0  0
   37.1900   22.3610   33.0940 N   0  0  0  0  0  0  0  0  0  0  0  0
   34.8970   22.0780   30.6180 H   0  0  0  0  0  0  0  0  0  0  0  0
   34.1280   20.2900   32.0340 H   0  0  0  0  0  0  0  0  0  0  0  0
   37.2110   21.1000   34.7910 H   0  0  0  0  0  0  0  0  0  0  0  0
   38.8360   24.5810   35.0090 O   0  0  0  0  0  0  0  0  0  0  0  0
   39.4720   21.9680   38.6570 H   0  0  0  0  0  0  0  0  0  0  0  0
   39.8360   22.3290   37.7500 N   0  0  0  0  0  0  0  0  0  0  0  0
   39.1130   23.1840   37.0130 C   0  0  0  0  0  3  0  0  0  0  0  0
   39.5530   23.6970   35.7970 C   0  0  0  0  0  0  0  0  0  0  0  0
   40.7960   23.2860   35.3580 C   0  0  0  0  0  0  0  0  0  0  0  0
   41.3320   23.6650   34.2710 O   0  0  0  0  0  0  0  0  0  0  0  0
   41.5490   22.4180   36.0890 N   0  0  0  0  0  0  0  0  0  0  0  0
   41.0420   21.9750   37.2530 C   0  0  0  0  0  0  0  0  0  0  0  0
   41.7080   21.1720   37.9560 O   0  0  0  0  0  0  0  0  0  0  0  0
   42.4800   22.1090   35.7640 H   0  0  0  0  0  0  0  0  0  0  0  0
  1  6  1  1  0  0  0
  1  5  1  0  0  0  0
  2  7  1  6  0  0  0
  2  3  1  0  0  0  0
  2  1  1  0  0  0  0
  3  9  1  0  0  0  0
  3  4  1  0  0  0  0
  4  5  1  0  0  0  0
  5 10  1  0  0  0  0
  8  3  1  0  0  0  0
 11  5  1  0  0  0  0
 12  2  1  0  0  0  0
 14 13  2  6  0  0  0
 14 15  1  0  0  0  0
 14 12  1  0  0  0  0
 15 16  1  0  0  0  0
 17 14  1  0  0  0  0
 18 17  1  0  0  0  0
 18 21  1  0  0  0  0
 19 18  1  0  0  0  0
 20 18  1  0  0  0  0
 21 26  1  0  0  0  0
 22 21  2  0  0  0  0
 22 23  1  0  0  0  0
 23 24  2  0  0  0  0
 24 25  1  0  0  0  0
 25 29  1  0  0  0  0
 26 25  2  0  0  0  0
 27 22  1  0  0  0  0
 28 23  1  0  0  0  0
 30  1  1  0  0  0  0
 30 34  1  0  0  0  0
 32 31  1  0  0  0  0
 33 32  1  0  0  0  0
 34 33  2  0  0  0  0
 35 34  1  0  0  0  0
 35 37  1  0  0  0  0
 36 35  2  0  0  0  0
 37 38  1  0  0  0  0
 38 32  1  0  0  0  0
 38 39  2  0  0  0  0
 40 37  1  0  0  0  0
M  END
>  <minimizedAffinity>
-5.17708969

$$$$

 OpenBabel03272504243D

 40 42  0  0  1  0  0  0  0  0999 V2000
   37.0170   21.7810   32.7690 C   0  0  2  0  0  0  0  0  0  0  0  0
   36.3960   22.3700   31.5160 C   0  0  1  0  0  0  0  0  0  0  0  0
   35.5930   21.1450   31.0730 C   0  0  0  0  0  0  0  0  0  0  0  0
   34.9200   20.8430   32.2460 O   0  0  0  0  0  0  0  0  0  0  0  0
   35.7920   21.0140   33.3020 C   0  0  0  0  0  0  0  0  0  0  0  0
   37.8270   21.0850   32.5000 H   0  0  0  0  0  0  0  0  0  0  0  0
   37.1410   22.6630   30.7580 H   0  0  0  0  0  0  0  0  0  0  0  0
   34.8630   21.5130   30.3220 H   0  0  0  0  0  0  0  0  0  0  0  0
   36.2610   20.3520   30.7190 H   0  0  0  0  0  0  0  0  0  0  0  0
   36.1220   20.0330   33.7100 H   0  0  0  0  0  0  0  0  0  0  0  0
   35.3220   21.6720   34.0690 H   0  0  0  0  0  0  0  0  0  0  0  0
   35.5450   23.3760   31.9010 O   0  0  0  0  0  0  0  0  0  0  0  0
   37.1700   24.7380   30.3840 O   0  0  0  0  0  0  0  0  0  0  0  0
   35.8750   24.8440   31.1380 P   0  0  1  0  0  0  0  0  0  0  0  0
   34.6320   25.1880   30.0050 O   0  0  0  0  0  0  0  0  0  0  0  0
   33.8230   24.7380   30.3400 H   0  0  0  0  0  0  0  0  0  0  0  0
   35.9450   26.0920   32.2870 O   0  0  0  0  0  0  0  0  0  0  0  0
   37.2010   26.6540   32.1950 C   0  0  0  0  0  0  0  0  0  0  0  0
   37.8210   26.1910   31.4050 H   0  0  0  0  0  0  0  0  0  0  0  0
   37.0720   27.7220   31.8790 H   0  0  0  0  0  0  0  0  0  0  0  0
   37.9520   26.6370   33.4700 C   0  0  0  0  0  0  0  0  0  0  0  0
   39.2930   26.9310   33.4020 C   0  0  0  0  0  0  0  0  0  0  0  0
   40.0570   26.9310   34.5720 C   0  0  0  0  0  0  0  0  0  0  0  0
   39.4100   26.6320   35.7340 N   0  0  0  0  0  0  0  0  0  0  0  0
   38.0910   26.3460   35.7740 C   0  0  0  0  0  0  0  0  0  0  0  0
   37.3620   26.3480   34.6410 N   0  0  0  0  0  0  0  0  0  0  0  0
   39.8880   27.1760   32.5430 H   0  0  0  0  0  0  0  0  0  0  0  0
   41.1220   27.1520   34.6090 H   0  0  0  0  0  0  0  0  0  0  0  0
   37.6280   26.1160   36.7260 H   0  0  0  0  0  0  0  0  0  0  0  0
   37.3680   22.8200   33.5950 O   0  0  0  0  0  0  0  0  0  0  0  0
   38.2070   22.1130   37.9930 H   0  0  0  0  0  0  0  0  0  0  0  0
   38.5650   22.3910   37.0550 N   0  0  0  0  0  0  0  0  0  0  0  0
   37.7510   22.4170   35.9900 C   0  0  0  0  0  3  0  0  0  0  0  0
   38.1780   22.7810   34.7170 C   0  0  0  0  0  0  0  0  0  0  0  0
   39.5080   23.1270   34.5800 C   0  0  0  0  0  0  0  0  0  0  0  0
   40.0450   23.4810   33.4850 O   0  0  0  0  0  0  0  0  0  0  0  0
   40.3540   23.1090   35.6470 N   0  0  0  0  0  0  0  0  0  0  0  0
   39.8520   22.7430   36.8390 C   0  0  0  0  0  0  0  0  0  0  0  0
   40.6030   22.7140   37.8470 O   0  0  0  0  0  0  0  0  0  0  0  0
   41.3500   23.3680   35.5470 H   0  0  0  0  0  0  0  0  0  0  0  0
  1  6  1  6  0  0  0
  1  5  1  0  0  0  0
  1 30  1  0  0  0  0
  2  7  1  6  0  0  0
  2 12  1  0  0  0  0
  2  1  1  0  0  0  0
  3  2  1  0  0  0  0
  3  4  1  0  0  0  0
  4  5  1  0  0  0  0
  5 10  1  0  0  0  0
  5 11  1  0  0  0  0
  8  3  1  0  0  0  0
  9  3  1  0  0  0  0
 14 13  2  6  0  0  0
 14 12  1  0  0  0  0
 14 17  1  0  0  0  0
 15 16  1  0  0  0  0
 15 14  1  0  0  0  0
 18 17  1  0  0  0  0
 18 21  1  0  0  0  0
 19 18  1  0  0  0  0
 20 18  1  0  0  0  0
 21 26  1  0  0  0  0
 22 21  2  0  0  0  0
 22 23  1  0  0  0  0
 23 28  1  0  0  0  0
 23 24  2  0  0  0  0
 24 25  1  0  0  0  0
 25 29  1  0  0  0  0
 26 25  2  0  0  0  0
 27 22  1  0  0  0  0
 30 34  1  0  0  0  0
 32 31  1  0  0  0  0
 33 32  1  0  0  0  0
 34 33  2  0  0  0  0
 35 34  1  0  0  0  0
 35 37  1  0  0  0  0
 36 35  2  0  0  0  0
 37 38  1  0  0  0  0
 38 32  1  0  0  0  0
 38 39  2  0  0  0  0
 40 37  1  0  0  0  0
M  END
>  <minimizedAffinity>
-5.119524

$$$$

 OpenBabel03272504243D

 40 42  0  0  1  0  0  0  0  0999 V2000
   37.6770   25.5270   35.5580 C   0  0  2  0  0  0  0  0  0  0  0  0
   37.2290   26.2430   34.2970 C   0  0  1  0  0  0  0  0  0  0  0  0
   37.1990   27.6680   34.8540 C   0  0  0  0  0  0  0  0  0  0  0  0
   38.4600   27.7450   35.4250 O   0  0  0  0  0  0  0  0  0  0  0  0
   38.7270   26.5420   36.0460 C   0  0  0  0  0  0  0  0  0  0  0  0
   36.8410   25.4560   36.2710 H   0  0  0  0  0  0  0  0  0  0  0  0
   36.2350   25.9230   33.9450 H   0  0  0  0  0  0  0  0  0  0  0  0
   37.1620   28.3400   33.9710 H   0  0  0  0  0  0  0  0  0  0  0  0
   36.3730   27.7890   35.5630 H   0  0  0  0  0  0  0  0  0  0  0  0
   38.6580   26.6390   37.1520 H   0  0  0  0  0  0  0  0  0  0  0  0
   39.7160   26.1580   35.7010 H   0  0  0  0  0  0  0  0  0  0  0  0
   38.2310   26.1220   33.3670 O   0  0  0  0  0  0  0  0  0  0  0  0
   38.4650   24.2250   31.5940 O   0  0  0  0  0  0  0  0  0  0  0  0
   37.6950   25.4760   31.9030 P   0  0  1  0  0  0  0  0  0  0  0  0
   36.0370   25.0550   32.0400 O   0  0  0  0  0  0  0  0  0  0  0  0
   35.6570   25.6530   32.7250 H   0  0  0  0  0  0  0  0  0  0  0  0
   37.8800   26.6210   30.6630 O   0  0  0  0  0  0  0  0  0  0  0  0
   36.7960   27.4720   30.7350 C   0  0  0  0  0  0  0  0  0  0  0  0
   35.8560   26.9970   30.3970 H   0  0  0  0  0  0  0  0  0  0  0  0
   36.6300   27.7180   31.8160 H   0  0  0  0  0  0  0  0  0  0  0  0
   36.9890   28.7400   29.9960 C   0  0  0  0  0  0  0  0  0  0  0  0
   36.4780   29.8770   30.5750 C   0  0  0  0  0  0  0  0  0  0  0  0
   36.6270   31.1050   29.9260 C   0  0  0  0  0  0  0  0  0  0  0  0
   37.2850   31.0990   28.7320 N   0  0  0  0  0  0  0  0  0  0  0  0
   37.7780   29.9670   28.1840 C   0  0  0  0  0  0  0  0  0  0  0  0
   37.6290   28.7870   28.8160 N   0  0  0  0  0  0  0  0  0  0  0  0
   35.9490   29.9830   31.5030 H   0  0  0  0  0  0  0  0  0  0  0  0
   36.2540   32.0520   30.3120 H   0  0  0  0  0  0  0  0  0  0  0  0
   38.2930   30.0200   27.2330 H   0  0  0  0  0  0  0  0  0  0  0  0
   38.2510   24.3360   35.1870 O   0  0  0  0  0  0  0  0  0  0  0  0
   39.5860   22.0830   38.8870 H   0  0  0  0  0  0  0  0  0  0  0  0
   39.7790   22.3690   37.9030 N   0  0  0  0  0  0  0  0  0  0  0  0
   38.9120   23.1360   37.2280 C   0  0  0  0  0  3  0  0  0  0  0  0
   39.1230   23.5460   35.9160 C   0  0  0  0  0  0  0  0  0  0  0  0
   40.2910   23.1250   35.3110 C   0  0  0  0  0  0  0  0  0  0  0  0
   40.6240   23.4160   34.1200 O   0  0  0  0  0  0  0  0  0  0  0  0
   41.1880   22.3460   35.9760 N   0  0  0  0  0  0  0  0  0  0  0  0
   40.8990   22.0000   37.2420 C   0  0  0  0  0  0  0  0  0  0  0  0
   41.7030   21.2800   37.8890 O   0  0  0  0  0  0  0  0  0  0  0  0
   42.0640   22.0310   35.5250 H   0  0  0  0  0  0  0  0  0  0  0  0
  1  5  1  0  0  0  0
  1  6  1  1  0  0  0
  2  7  1  6  0  0  0
  2  3  1  0  0  0  0
  2  1  1  0  0  0  0
  3  4  1  0  0  0  0
  3  9  1  0  0  0  0
  4  5  1  0  0  0  0
  5 10  1  0  0  0  0
  8  3  1  0  0  0  0
 11  5  1  0  0  0  0
 12  2  1  0  0  0  0
 14 13  2  6  0  0  0
 14 15  1  0  0  0  0
 14 12  1  0  0  0  0
 15 16  1  0  0  0  0
 17 18  1  0  0  0  0
 17 14  1  0  0  0  0
 18 20  1  0  0  0  0
 19 18  1  0  0  0  0
 21 22  1  0  0  0  0
 21 18  1  0  0  0  0
 22 27  1  0  0  0  0
 23 28  1  0  0  0  0
 23 22  2  0  0  0  0
 24 23  1  0  0  0  0
 25 24  2  0  0  0  0
 25 26  1  0  0  0  0
 26 21  2  0  0  0  0
 29 25  1  0  0  0  0
 30  1  1  0  0  0  0
 30 34  1  0  0  0  0
 32 31  1  0  0  0  0
 33 32  1  0  0  0  0
 34 33  2  0  0  0  0
 35 34  1  0  0  0  0
 35 37  1  0  0  0  0
 36 35  2  0  0  0  0
 37 38  1  0  0  0  0
 38 39  2  0  0  0  0
 38 32  1  0  0  0  0
 40 37  1  0  0  0  0
M  END
>  <minimizedAffinity>
-5.11635923

$$$$

 OpenBabel03272504243D

 40 42  0  0  1  0  0  0  0  0999 V2000
   35.3060   29.4500   32.4740 C   0  0  2  0  0  0  0  0  0  0  0  0
   36.0010   28.2560   31.8470 C   0  0  1  0  0  0  0  0  0  0  0  0
   36.3620   28.8940   30.5030 C   0  0  0  0  0  0  0  0  0  0  0  0
   36.9810   30.0580   30.9310 O   0  0  0  0  0  0  0  0  0  0  0  0
   36.2670   30.5580   32.0020 C   0  0  0  0  0  0  0  0  0  0  0  0
   34.3070   29.5850   32.0300 H   0  0  0  0  0  0  0  0  0  0  0  0
   35.3380   27.3860   31.7180 H   0  0  0  0  0  0  0  0  0  0  0  0
   37.1240   28.2290   30.0440 H   0  0  0  0  0  0  0  0  0  0  0  0
   35.4630   29.0560   29.8980 H   0  0  0  0  0  0  0  0  0  0  0  0
   35.6790   31.4540   31.7060 H   0  0  0  0  0  0  0  0  0  0  0  0
   36.9610   30.7520   32.8530 H   0  0  0  0  0  0  0  0  0  0  0  0
   37.1410   28.0050   32.5700 O   0  0  0  0  0  0  0  0  0  0  0  0
   36.3490   25.5590   32.1380 O   0  0  0  0  0  0  0  0  0  0  0  0
   37.3630   26.3660   32.8980 P   0  0  1  0  0  0  0  0  0  0  0  0
   38.9230   25.8850   32.3700 O   0  0  0  0  0  0  0  0  0  0  0  0
   39.4880   26.6910   32.4100 H   0  0  0  0  0  0  0  0  0  0  0  0
   37.2280   26.0860   34.5680 O   0  0  0  0  0  0  0  0  0  0  0  0
   38.5110   26.0050   35.0680 C   0  0  0  0  0  0  0  0  0  0  0  0
   39.2710   25.8660   34.2770 H   0  0  0  0  0  0  0  0  0  0  0  0
   38.7540   26.9930   35.5380 H   0  0  0  0  0  0  0  0  0  0  0  0
   38.6820   24.9510   36.0920 C   0  0  0  0  0  0  0  0  0  0  0  0
   39.6000   23.9650   35.8190 C   0  0  0  0  0  0  0  0  0  0  0  0
   39.8070   22.9410   36.7470 C   0  0  0  0  0  0  0  0  0  0  0  0
   39.0680   22.9850   37.8920 N   0  0  0  0  0  0  0  0  0  0  0  0
   38.1710   23.9650   38.1370 C   0  0  0  0  0  0  0  0  0  0  0  0
   37.9780   24.9480   37.2360 N   0  0  0  0  0  0  0  0  0  0  0  0
   40.2240   23.8460   34.9540 H   0  0  0  0  0  0  0  0  0  0  0  0
   40.5120   22.1240   36.6110 H   0  0  0  0  0  0  0  0  0  0  0  0
   37.6110   23.9500   39.0640 H   0  0  0  0  0  0  0  0  0  0  0  0
   35.3400   29.2920   33.8380 O   0  0  0  0  0  0  0  0  0  0  0  0
   36.3330   32.3930   36.9900 H   0  0  0  0  0  0  0  0  0  0  0  0
   35.6060   31.8560   36.4710 N   0  0  0  0  0  0  0  0  0  0  0  0
   35.9520   30.9640   35.5320 C   0  0  0  0  0  3  0  0  0  0  0  0
   35.0220   30.2210   34.8130 C   0  0  0  0  0  0  0  0  0  0  0  0
   33.6900   30.4370   35.1050 C   0  0  0  0  0  0  0  0  0  0  0  0
   32.7270   29.8370   34.5340 O   0  0  0  0  0  0  0  0  0  0  0  0
   33.3140   31.3370   36.0540 N   0  0  0  0  0  0  0  0  0  0  0  0
   34.2830   32.0100   36.6990 C   0  0  0  0  0  0  0  0  0  0  0  0
   33.9740   32.8510   37.5820 O   0  0  0  0  0  0  0  0  0  0  0  0
   32.3170   31.5010   36.2750 H   0  0  0  0  0  0  0  0  0  0  0  0
  1  6  1  6  0  0  0
  1 30  1  0  0  0  0
  2  7  1  6  0  0  0
  2  1  1  0  0  0  0
  2 12  1  0  0  0  0
  3  4  1  0  0  0  0
  3  2  1  0  0  0  0
  4  5  1  0  0  0  0
  5  1  1  0  0  0  0
  5 11  1  0  0  0  0
  8  3  1  0  0  0  0
  9  3  1  0  0  0  0
 10  5  1  0  0  0  0
 12 14  1  0  0  0  0
 14 13  2  6  0  0  0
 14 17  1  0  0  0  0
 15 16  1  0  0  0  0
 15 14  1  0  0  0  0
 17 18  1  0  0  0  0
 18 20  1  0  0  0  0
 18 21  1  0  0  0  0
 19 18  1  0  0  0  0
 21 26  1  0  0  0  0
 22 21  2  0  0  0  0
 22 23  1  0  0  0  0
 23 24  2  0  0  0  0
 24 25  1  0  0  0  0
 25 29  1  0  0  0  0
 26 25  2  0  0  0  0
 27 22  1  0  0  0  0
 28 23  1  0  0  0  0
 30 34  1  0  0  0  0
 32 38  1  0  0  0  0
 32 31  1  0  0  0  0
 33 32  1  0  0  0  0
 34 35  1  0  0  0  0
 34 33  2  0  0  0  0
 35 37  1  0  0  0  0
 36 35  2  0  0  0  0
 37 40  1  0  0  0  0
 37 38  1  0  0  0  0
 38 39  2  0  0  0  0
M  END
>  <minimizedAffinity>
-5.1029892

$$$$

 OpenBabel03272504243D

 40 42  0  0  1  0  0  0  0  0999 V2000
   37.9710   23.3710   32.6690 C   0  0  2  0  0  0  0  0  0  0  0  0
   37.8430   24.8060   32.1920 C   0  0  1  0  0  0  0  0  0  0  0  0
   37.3710   24.5210   30.7650 C   0  0  0  0  0  0  0  0  0  0  0  0
   36.3190   23.6530   31.0120 O   0  0  0  0  0  0  0  0  0  0  0  0
   36.6980   22.7930   32.0240 C   0  0  0  0  0  0  0  0  0  0  0  0
   38.8720   22.9070   32.2390 H   0  0  0  0  0  0  0  0  0  0  0  0
   38.7990   25.3540   32.2020 H   0  0  0  0  0  0  0  0  0  0  0  0
   36.9640   25.4800   30.3800 H   0  0  0  0  0  0  0  0  0  0  0  0
   38.1830   24.0900   30.1680 H   0  0  0  0  0  0  0  0  0  0  0  0
   36.9160   21.7780   31.6250 H   0  0  0  0  0  0  0  0  0  0  0  0
   35.9170   22.7910   32.8200 H   0  0  0  0  0  0  0  0  0  0  0  0
   36.8360   25.4000   32.9110 O   0  0  0  0  0  0  0  0  0  0  0  0
   37.3670   26.7130   35.1000 O   0  0  0  0  0  0  0  0  0  0  0  0
   37.3000   26.8650   33.6070 P   0  0  1  0  0  0  0  0  0  0  0  0
   38.8670   27.2890   33.0490 O   0  0  0  0  0  0  0  0  0  0  0  0
   38.9660   26.8710   32.1620 H   0  0  0  0  0  0  0  0  0  0  0  0
   36.2030   28.0860   33.1730 O   0  0  0  0  0  0  0  0  0  0  0  0
   35.7450   27.7850   31.9080 C   0  0  0  0  0  0  0  0  0  0  0  0
   35.8790   26.7190   31.6460 H   0  0  0  0  0  0  0  0  0  0  0  0
   34.6360   27.9510   31.9010 H   0  0  0  0  0  0  0  0  0  0  0  0
   36.3450   28.6220   30.8460 C   0  0  0  0  0  0  0  0  0  0  0  0
   36.1700   29.9810   30.9560 C   0  0  0  0  0  0  0  0  0  0  0  0
   36.7120   30.8260   29.9840 C   0  0  0  0  0  0  0  0  0  0  0  0
   37.3970   30.2350   28.9640 N   0  0  0  0  0  0  0  0  0  0  0  0
   37.5540   28.8970   28.8770 C   0  0  0  0  0  0  0  0  0  0  0  0
   37.0270   28.0900   29.8180 N   0  0  0  0  0  0  0  0  0  0  0  0
   35.6520   30.5350   31.7150 H   0  0  0  0  0  0  0  0  0  0  0  0
   36.6220   31.9100   29.9950 H   0  0  0  0  0  0  0  0  0  0  0  0
   38.1080   28.4820   28.0440 H   0  0  0  0  0  0  0  0  0  0  0  0
   37.8930   23.3720   34.0400 O   0  0  0  0  0  0  0  0  0  0  0  0
   41.8540   21.5130   35.2230 H   0  0  0  0  0  0  0  0  0  0  0  0
   40.9300   21.8960   35.5160 N   0  0  0  0  0  0  0  0  0  0  0  0
   40.0610   22.3620   34.6090 C   0  0  0  0  0  3  0  0  0  0  0  0
   38.8160   22.8830   34.9480 C   0  0  0  0  0  0  0  0  0  0  0  0
   38.4940   22.9060   36.2900 C   0  0  0  0  0  0  0  0  0  0  0  0
   37.3980   23.3500   36.7550 O   0  0  0  0  0  0  0  0  0  0  0  0
   39.3600   22.4390   37.2310 N   0  0  0  0  0  0  0  0  0  0  0  0
   40.5410   21.9540   36.8090 C   0  0  0  0  0  0  0  0  0  0  0  0
   41.3680   21.5130   37.6490 O   0  0  0  0  0  0  0  0  0  0  0  0
   39.1210   22.4550   38.2370 H   0  0  0  0  0  0  0  0  0  0  0  0
  1  6  1  6  0  0  0
  1 30  1  0  0  0  0
  2  7  1  1  0  0  0
  2  1  1  0  0  0  0
  2 12  1  0  0  0  0
  3  4  1  0  0  0  0
  3  2  1  0  0  0  0
  4  5  1  0  0  0  0
  5  1  1  0  0  0  0
  5 11  1  0  0  0  0
  8  3  1  0  0  0  0
  9  3  1  0  0  0  0
 10  5  1  0  0  0  0
 12 14  1  0  0  0  0
 14 13  2  1  0  0  0
 15 14  1  0  0  0  0
 16 15  1  0  0  0  0
 17 14  1  0  0  0  0
 18 17  1  0  0  0  0
 19 18  1  0  0  0  0
 20 18  1  0  0  0  0
 21 22  1  0  0  0  0
 21 18  1  0  0  0  0
 22 27  1  0  0  0  0
 23 28  1  0  0  0  0
 23 22  2  0  0  0  0
 24 23  1  0  0  0  0
 25 24  2  0  0  0  0
 25 26  1  0  0  0  0
 26 21  2  0  0  0  0
 29 25  1  0  0  0  0
 30 34  1  0  0  0  0
 31 32  1  0  0  0  0
 32 38  1  0  0  0  0
 33 34  2  0  0  0  0
 33 32  1  0  0  0  0
 34 35  1  0  0  0  0
 35 36  2  0  0  0  0
 35 37  1  0  0  0  0
 37 40  1  0  0  0  0
 38 37  1  0  0  0  0
 38 39  2  0  0  0  0
M  END
>  <minimizedAffinity>
-5.0702405

$$$$
