
 OpenBabel03272504423D

 46 48  0  0  0  0  0  0  0  0999 V2000
   34.5300   29.0870   48.7730 C   0  0  0  0  0  0  0  0  0  0  0  0
   35.4360   28.8880   49.3940 H   0  0  0  0  0  0  0  0  0  0  0  0
   34.0450   29.9540   49.3120 H   0  0  0  0  0  0  0  0  0  0  0  0
   37.2880   30.1900   48.6560 Cl  0  0  0  0  0  0  0  0  0  0  0  0
   36.1980   30.1120   47.2670 C   0  0  0  0  0  0  0  0  0  0  0  0
   36.6130   30.5750   46.0680 C   0  0  0  0  0  0  0  0  0  0  0  0
   35.7690   30.5170   44.9820 C   0  0  0  0  0  0  0  0  0  0  0  0
   34.5010   29.9780   45.1470 C   0  0  0  0  0  0  0  0  0  0  0  0
   34.1360   29.5150   46.4250 C   0  0  0  0  0  0  0  0  0  0  0  0
   34.9500   29.5660   47.4910 C   0  0  0  0  0  0  0  0  0  0  0  0
   36.1280   30.8990   44.0160 H   0  0  0  0  0  0  0  0  0  0  0  0
   33.9210   29.9800   44.2360 H   0  0  0  0  0  0  0  0  0  0  0  0
   33.1700   29.1640   46.3360 H   0  0  0  0  0  0  0  0  0  0  0  0
   39.5740   32.7520   46.4050 C   0  0  0  0  0  0  0  0  0  0  0  0
   40.4810   32.1030   45.5030 C   0  0  0  0  0  0  0  0  0  0  0  0
   40.0360   30.9500   44.8220 C   0  0  0  0  0  0  0  0  0  0  0  0
   38.7740   30.5040   45.0480 N   0  0  0  0  0  0  0  0  0  0  0  0
   37.9420   31.1400   45.9050 C   0  0  0  0  0  0  0  0  0  0  0  0
   38.3480   32.2400   46.5640 N   0  0  0  0  0  0  0  0  0  0  0  0
   39.9550   33.6250   46.9020 H   0  0  0  0  0  0  0  0  0  0  0  0
   41.4750   32.4980   45.3600 H   0  0  0  0  0  0  0  0  0  0  0  0
   40.9510   30.3440   43.9510 N   0  0  0  0  0  0  0  0  0  0  0  0
   41.9030   30.0130   44.1920 H   0  0  0  0  0  0  0  0  0  0  0  0
   40.4770   30.3010   43.0190 H   0  0  0  0  0  0  0  0  0  0  0  0
   33.6530   27.9230   48.8770 C   0  0  0  0  0  0  0  0  0  0  0  0
   34.0170   27.1360   49.5970 H   0  0  0  0  0  0  0  0  0  0  0  0
   33.6160   27.3950   47.8870 H   0  0  0  0  0  0  0  0  0  0  0  0
   32.3880   28.2690   49.2660 O   0  0  0  0  0  0  0  0  0  0  0  0
   31.8920   26.7770   47.1620 O   0  0  0  0  0  0  0  0  0  0  0  0
   31.2500   27.5350   48.2970 P   0  0  2  0  0  0  0  0  0  0  0  0
   30.2710   28.8150   47.6580 O   0  0  0  0  0  0  0  0  0  0  0  0
   27.3130   26.9730   44.9530 H   0  0  0  0  0  0  0  0  0  0  0  0
   28.0710   27.6900   45.0810 N   0  0  0  0  0  0  0  0  0  0  0  0
   28.7170   27.8310   46.2730 C   0  0  0  0  0  3  0  0  0  0  0  0
   29.7210   28.7970   46.4020 C   0  0  0  0  0  0  0  0  0  0  0  0
   30.0060   29.5600   45.3060 C   0  0  0  0  0  0  0  0  0  0  0  0
   30.9150   30.4060   45.4910 O   0  0  0  0  0  0  0  0  0  0  0  0
   29.3680   29.4180   44.1360 N   0  0  0  0  0  0  0  0  0  0  0  0
   28.3950   28.4770   44.0240 C   0  0  0  0  0  0  0  0  0  0  0  0
   27.8210   28.3730   42.9110 O   0  0  0  0  0  0  0  0  0  0  0  0
   29.6250   30.0280   43.3280 H   0  0  0  0  0  0  0  0  0  0  0  0
   30.2190   26.5410   49.1220 O   0  0  0  0  0  0  0  0  0  0  0  0
   29.4540   27.2570   50.0160 C   0  0  0  0  0  0  0  0  0  0  0  0
   29.2180   26.5540   51.1960 F   0  0  0  0  0  0  0  0  0  0  0  0
   30.0780   28.4240   50.4030 F   0  0  0  0  0  0  0  0  0  0  0  0
   28.2230   27.5580   49.4400 F   0  0  0  0  0  0  0  0  0  0  0  0
  1 25  1  0  0  0  0
  1  3  1  0  0  0  0
  1  2  1  0  0  0  0
  5 10  1  0  0  0  0
  5  4  1  0  0  0  0
  6  5  2  0  0  0  0
  7  8  2  0  0  0  0
  7  6  1  0  0  0  0
  8  9  1  0  0  0  0
  9 10  2  0  0  0  0
 10  1  1  0  0  0  0
 11  7  1  0  0  0  0
 12  8  1  0  0  0  0
 13  9  1  0  0  0  0
 14 19  1  0  0  0  0
 14 20  1  0  0  0  0
 15 14  2  0  0  0  0
 16 17  2  0  0  0  0
 16 15  1  0  0  0  0
 17 18  1  0  0  0  0
 18  6  1  0  0  0  0
 18 19  2  0  0  0  0
 21 15  1  0  0  0  0
 22 23  1  0  0  0  0
 22 16  1  0  0  0  0
 24 22  1  0  0  0  0
 25 28  1  0  0  0  0
 25 26  1  0  0  0  0
 27 25  1  0  0  0  0
 30 29  2  6  0  0  0
 30 42  1  0  0  0  0
 30 28  1  0  0  0  0
 31 30  1  0  0  0  0
 32 33  1  0  0  0  0
 33 34  1  0  0  0  0
 34 35  2  0  0  0  0
 35 31  1  0  0  0  0
 36 37  2  0  0  0  0
 36 35  1  0  0  0  0
 38 36  1  0  0  0  0
 39 38  1  0  0  0  0
 39 33  1  0  0  0  0
 40 39  2  0  0  0  0
 41 38  1  0  0  0  0
 42 43  1  0  0  0  0
 43 45  1  0  0  0  0
 43 44  1  0  0  0  0
 46 43  1  0  0  0  0
M  END
>  <minimizedAffinity>
-5.73348141

>  <minimizedRMSD>
0.685281634

$$$$
