
 OpenBabel03272509193D

 34 36  0  0  0  0  0  0  0  0999 V2000
   37.9610   31.2510   47.8370 C   0  0  0  0  0  0  0  0  0  0  0  0
   36.9760   31.2410   48.8120 C   0  0  0  0  0  0  0  0  0  0  0  0
   37.0210   32.3260   49.6890 C   0  0  0  0  0  0  0  0  0  0  0  0
   37.9960   33.3290   49.5660 C   0  0  0  0  0  0  0  0  0  0  0  0
   38.9440   33.2410   48.5430 C   0  0  0  0  0  0  0  0  0  0  0  0
   38.9240   32.1820   47.6630 C   0  0  0  0  0  0  0  0  0  0  0  0
   36.2810   32.3730   50.4660 H   0  0  0  0  0  0  0  0  0  0  0  0
   38.0150   34.1610   50.2530 H   0  0  0  0  0  0  0  0  0  0  0  0
   39.6880   34.0160   48.4580 H   0  0  0  0  0  0  0  0  0  0  0  0
   34.8510   30.2340   48.1120 C   0  0  0  0  0  0  0  0  0  0  0  0
   35.9840   30.2150   48.9320 C   0  0  0  0  0  0  0  0  0  0  0  0
   36.1070   29.1770   49.8560 C   0  0  0  0  0  0  0  0  0  0  0  0
   35.1110   28.2440   49.8990 N   0  0  0  0  0  0  0  0  0  0  0  0
   34.0310   28.2990   49.0860 C   0  0  0  0  0  0  0  0  0  0  0  0
   33.8980   29.2940   48.1920 N   0  0  0  0  0  0  0  0  0  0  0  0
   34.7650   31.0470   47.3980 H   0  0  0  0  0  0  0  0  0  0  0  0
   33.2900   27.5200   49.1870 H   0  0  0  0  0  0  0  0  0  0  0  0
   37.2730   29.0990   50.7460 C   0  0  0  0  0  0  0  0  0  0  0  0
   37.1220   29.6310   51.7160 H   0  0  0  0  0  0  0  0  0  0  0  0
   37.6250   28.0720   50.9570 H   0  0  0  0  0  0  0  0  0  0  0  0
   38.1230   29.6330   50.2530 H   0  0  0  0  0  0  0  0  0  0  0  0
   37.9920   30.1820   46.9020 O   0  0  0  0  0  0  0  0  0  0  0  0
   37.1500   29.8900   46.4190 H   0  0  0  0  0  0  0  0  0  0  0  0
   39.8800   32.1460   46.6780 O   0  0  0  0  0  0  0  0  0  0  0  0
   37.5390   33.2260   42.9630 H   0  0  0  0  0  0  0  0  0  0  0  0
   38.3810   32.7280   43.3550 N   0  0  0  0  0  0  0  0  0  0  0  0
   38.4690   32.8270   44.6890 C   0  0  0  0  0  3  0  0  0  0  0  0
   39.5120   32.2310   45.3540 C   0  0  0  0  0  0  0  0  0  0  0  0
   40.4450   31.5390   44.5840 C   0  0  0  0  0  0  0  0  0  0  0  0
   41.4730   30.9200   44.9640 O   0  0  0  0  0  0  0  0  0  0  0  0
   40.3310   31.4540   43.2250 N   0  0  0  0  0  0  0  0  0  0  0  0
   39.2760   32.0640   42.6130 C   0  0  0  0  0  0  0  0  0  0  0  0
   39.0260   32.0820   41.3890 O   0  0  0  0  0  0  0  0  0  0  0  0
   40.9590   30.9730   42.5790 H   0  0  0  0  0  0  0  0  0  0  0  0
  1  2  1  0  0  0  0
  2 11  1  0  0  0  0
  2  3  2  0  0  0  0
  3  7  1  0  0  0  0
  4  3  1  0  0  0  0
  4  8  1  0  0  0  0
  5  4  2  0  0  0  0
  6  1  2  0  0  0  0
  6  5  1  0  0  0  0
  9  5  1  0  0  0  0
 10 15  2  0  0  0  0
 10 11  1  0  0  0  0
 11 12  2  0  0  0  0
 12 13  1  0  0  0  0
 12 18  1  0  0  0  0
 14 17  1  0  0  0  0
 14 13  2  0  0  0  0
 15 14  1  0  0  0  0
 16 10  1  0  0  0  0
 18 20  1  0  0  0  0
 18 19  1  0  0  0  0
 21 18  1  0  0  0  0
 22  1  1  0  0  0  0
 23 22  1  0  0  0  0
 24  6  1  0  0  0  0
 25 26  1  0  0  0  0
 26 27  1  0  0  0  0
 27 28  2  0  0  0  0
 28 24  1  0  0  0  0
 29 30  2  0  0  0  0
 29 28  1  0  0  0  0
 31 29  1  0  0  0  0
 32 31  1  0  0  0  0
 32 26  1  0  0  0  0
 33 32  2  0  0  0  0
 34 31  1  0  0  0  0
M  END
>  <minimizedAffinity>
-6.6589098

>  <minimizedRMSD>
0.40855515

$$$$
