
     RDKit          3D

 31 33  0  0  0  0  0  0  0  0999 V2000
   36.3687   30.4813   46.3888 Cl  0  0  0  0  0  0  0  0  0  0  0  0
   36.8026   30.5408   48.0799 C   0  0  0  0  0  0  0  0  0  0  0  0
   38.0214   31.0810   48.3864 C   0  0  0  0  0  0  0  0  0  0  0  0
   38.3906   31.1393   49.7328 C   0  0  0  0  0  0  0  0  0  0  0  0
   37.5332   30.6605   50.6927 C   0  0  0  0  0  0  0  0  0  0  0  0
   36.3149   30.1276   50.3033 C   0  0  0  0  0  0  0  0  0  0  0  0
   35.8935   30.0418   48.9966 C   0  0  0  0  0  0  0  0  0  0  0  0
   39.9966   33.4217   46.3878 C   0  0  0  0  0  0  0  0  0  0  0  0
   40.5670   32.6223   45.3857 C   0  0  0  0  0  0  0  0  0  0  0  0
   40.2533   31.2678   45.4200 C   0  0  0  0  0  0  0  0  0  0  0  0
   39.4278   30.7882   46.3990 N   0  0  0  0  0  0  0  0  0  0  0  0
   38.9096   31.5821   47.3288 C   0  0  0  0  0  0  0  0  0  0  0  0
   39.1986   32.8966   47.3164 N   0  0  0  0  0  0  0  0  0  0  0  0
   34.3390   29.3701   48.4837 S   0  0  0  0  0  0  0  0  0  0  0  0
   39.3485   31.5615   50.0021 H   0  0  0  0  0  0  0  0  0  0  0  0
   37.8116   30.7019   51.7374 H   0  0  0  0  0  0  0  0  0  0  0  0
   35.6463   29.7518   51.0788 H   0  0  0  0  0  0  0  0  0  0  0  0
   40.1801   34.4835   46.4454 H   0  0  0  0  0  0  0  0  0  0  0  0
   41.2096   33.0873   44.6501 H   0  0  0  0  0  0  0  0  0  0  0  0
   40.6707   30.6331   44.6723 H   0  0  0  0  0  0  0  0  0  0  0  0
   33.7771   24.5792   49.1801 H   0  0  0  0  0  0  0  0  0  0  0  0
   34.1524   25.3169   48.5456 N   0  0  0  0  0  0  0  0  0  0  0  0
   33.9627   26.5766   48.9788 C   0  0  0  0  0  0  0  0  0  0  0  0
   34.4469   27.6038   48.1652 C   0  0  0  0  0  0  0  0  0  0  0  0
   35.0914   27.2890   46.9668 C   0  0  0  0  0  0  0  0  0  0  0  0
   35.5553   28.1474   46.1787 O   0  0  0  0  0  0  0  0  0  0  0  0
   35.2526   26.0062   46.5841 N   0  0  0  0  0  0  0  0  0  0  0  0
   34.7745   25.0431   47.3910 C   0  0  0  0  0  0  0  0  0  0  0  0
   34.8807   23.8352   47.1138 O   0  0  0  0  0  0  0  0  0  0  0  0
   33.4876   26.9270   49.8704 H   0  0  0  0  0  0  0  0  0  0  0  0
   35.7335   25.7370   45.6874 H   0  0  0  0  0  0  0  0  0  0  0  0
  1  2  1  0
  2  3  2  0
  2  7  1  0
  3  4  1  0
  4  5  2  0
  6  5  1  0
  7  6  2  0
  8 13  2  0
  9 10  2  0
  9  8  1  0
 10 11  1  0
 11 12  2  0
 12  3  1  0
 13 12  1  0
 14  7  1  0
  4 15  1  0
  5 16  1  0
  6 17  1  0
  8 18  1  0
  9 19  1  0
 10 20  1  0
 21 22  1  0
 22 23  1  0
 23 24  2  0
 24 25  1  0
 25 26  2  0
 25 27  1  0
 27 28  1  0
 28 29  2  0
 28 22  1  0
 23 30  1  0
 27 31  1  0
 14 24  1  0
M  ISO  7  15  14  16  14  17  14  18  14  19  14  20  14  21   9
M  END
>  <DihAtoms>  (1) 
6,13,23,22

>  <DihDeg>  (1) 
-90.00139947796627

$$$$
