
     RDKit          3D

 34 36  0  0  0  0  0  0  0  0999 V2000
   34.7998   29.5433   47.5160 S   0  0  0  0  0  0  0  0  0  0  0  0
   37.3679   29.4711   50.5374 C   0  0  0  0  0  0  0  0  0  0  0  0
   37.9794   30.7277   50.5182 C   0  0  0  0  0  0  0  0  0  0  0  0
   37.5754   31.6407   49.5201 C   0  0  0  0  0  0  0  0  0  0  0  0
   36.6240   31.2485   48.6437 N   0  0  0  0  0  0  0  0  0  0  0  0
   36.0535   30.0265   48.6904 C   0  0  0  0  0  0  0  0  0  0  0  0
   36.4180   29.1403   49.6271 N   0  0  0  0  0  0  0  0  0  0  0  0
   32.3854   28.3568   47.4766 C   0  0  2  0  0  0  0  0  0  0  0  0
   33.6310   28.4018   48.3478 C   0  0  1  0  0  0  0  0  0  0  0  0
   34.1856   27.1566   48.3546 O   0  0  0  0  0  0  0  0  0  0  0  0
   33.5490   26.3722   47.4213 C   0  0  0  0  0  0  0  0  0  0  0  0
   32.8481   27.3347   46.4467 C   0  0  1  0  0  0  0  0  0  0  0  0
   32.1273   29.5994   46.9050 O   0  0  0  0  0  0  0  0  0  0  0  0
   31.8115   26.6925   45.8220 O   0  0  0  0  0  0  0  0  0  0  0  0
   37.6414   28.7356   51.2814 H   0  0  0  0  0  0  0  0  0  0  0  0
   38.7237   30.9868   51.2316 H   0  0  0  0  0  0  0  0  0  0  0  0
   38.0216   32.6268   49.4660 H   0  0  0  0  0  0  0  0  0  0  0  0
   31.5411   27.9633   48.0604 H   0  0  0  0  0  0  0  0  0  0  0  0
   33.3792   28.8122   49.3361 H   0  0  0  0  0  0  0  0  0  0  0  0
   34.2344   25.6832   46.9092 H   0  0  0  0  0  0  0  0  0  0  0  0
   32.7237   25.8398   47.9528 H   0  0  0  0  0  0  0  0  0  0  0  0
   33.6380   27.7701   45.8403 H   0  0  0  0  0  0  0  0  0  0  0  0
   32.8069   29.7522   46.2007 H   0  0  0  0  0  0  0  0  0  0  0  0
   32.6930   25.2510   41.6321 H   0  0  0  0  0  0  0  0  0  0  0  0
   32.1439   25.8765   42.2439 N   0  0  0  0  0  0  0  0  0  0  0  0
   32.4205   25.7818   43.5519 C   0  0  0  0  0  0  0  0  0  0  0  0
   31.7355   26.5792   44.4416 C   0  0  0  0  0  0  0  0  0  0  0  0
   30.7710   27.4647   43.9567 C   0  0  0  0  0  0  0  0  0  0  0  0
   30.0509   28.2653   44.6156 O   0  0  0  0  0  0  0  0  0  0  0  0
   30.5024   27.5478   42.6220 N   0  0  0  0  0  0  0  0  0  0  0  0
   31.2037   26.7400   41.7743 C   0  0  0  0  0  0  0  0  0  0  0  0
   31.0132   26.7589   40.5343 O   0  0  0  0  0  0  0  0  0  0  0  0
   33.1265   25.1522   44.0429 H   0  0  0  0  0  0  0  0  0  0  0  0
   29.8119   28.1696   42.1856 H   0  0  0  0  0  0  0  0  0  0  0  0
  1  6  1  0
  3  2  2  0
  4  3  1  0
  5  6  1  0
  5  4  2  0
  6  7  2  0
  7  2  1  0
  8 13  1  0
  8  9  1  0
  9  1  1  0
  9 10  1  0
 11 10  1  0
 12 14  1  0
 12 11  1  0
 12  8  1  0
  2 15  1  0
  3 16  1  0
  4 17  1  0
  8 18  1  1
  9 19  1  1
 11 20  1  0
 11 21  1  0
 12 22  1  6
 13 23  1  0
 24 25  1  0
 25 26  1  0
 26 27  2  0
 27 28  1  0
 28 29  2  0
 28 30  1  0
 30 31  1  0
 31 32  2  0
 31 25  1  0
 26 33  1  0
 30 34  1  0
 14 27  1  0
M  ISO  8  15  14  16  14  17  14  18  13  19  13  20  13  21  13  22  13
M  ISO  2  23   3  24   9
M  END
>  <DihAtoms>  (1) 
11,13,26,25

>  <DihDeg>  (1) 
-0.012588674582106925

$$$$
