
 OpenBabel03272508283D

 39 42  0  0  1  0  0  0  0  0999 V2000
   33.8230   29.0640   47.2720 C   0  0  2  0  0  0  0  0  0  0  0  0
   34.6220   28.2080   48.2470 C   0  0  2  0  0  0  0  0  0  0  0  0
   33.7650   27.9350   49.2800 O   0  0  0  0  0  0  0  0  0  0  0  0
   32.4660   28.0310   48.8720 C   0  0  0  0  0  0  0  0  0  0  0  0
   32.4620   28.3670   47.3920 C   0  0  1  0  0  0  0  0  0  0  0  0
   33.6690   30.0920   47.6170 H   0  0  0  0  0  0  0  0  0  0  0  0
   34.9070   27.3040   47.6760 H   0  0  0  0  0  0  0  0  0  0  0  0
   31.9780   28.8300   49.4760 H   0  0  0  0  0  0  0  0  0  0  0  0
   31.9880   27.0390   49.0560 H   0  0  0  0  0  0  0  0  0  0  0  0
   32.5350   27.4210   46.8430 H   0  0  0  0  0  0  0  0  0  0  0  0
   35.7060   30.4360   48.9990 C   0  0  1  0  0  0  0  0  0  0  0  0
   35.7880   29.0260   48.6990 C   0  0  1  0  0  0  0  0  0  0  0  0
   35.9610   29.4230   50.1290 C   0  0  0  0  0  0  0  0  0  0  0  0
   34.8070   31.0420   49.2030 H   0  0  0  0  0  0  0  0  0  0  0  0
   36.7500   28.6980   48.2060 H   0  0  0  0  0  0  0  0  0  0  0  0
   36.9570   29.3930   50.6010 H   0  0  0  0  0  0  0  0  0  0  0  0
   35.1080   29.1920   50.7930 H   0  0  0  0  0  0  0  0  0  0  0  0
   36.9060   31.3490   48.7800 C   0  0  0  0  0  0  0  0  0  0  0  0
   37.0930   32.3810   49.7040 C   0  0  0  0  0  0  0  0  0  0  0  0
   38.1860   33.1970   49.4470 C   0  0  0  0  0  0  0  0  0  0  0  0
   38.9950   32.9820   48.3650 N   0  0  0  0  0  0  0  0  0  0  0  0
   38.7680   31.9650   47.4960 C   0  0  0  0  0  0  0  0  0  0  0  0
   37.7110   31.1380   47.7060 N   0  0  0  0  0  0  0  0  0  0  0  0
   36.4270   32.4960   50.5280 H   0  0  0  0  0  0  0  0  0  0  0  0
   38.3780   34.0130   50.1320 H   0  0  0  0  0  0  0  0  0  0  0  0
   39.4350   31.8440   46.6650 H   0  0  0  0  0  0  0  0  0  0  0  0
   34.2930   29.0290   45.9800 O   0  0  0  0  0  0  0  0  0  0  0  0
   34.9110   28.2840   45.7730 H   0  0  0  0  0  0  0  0  0  0  0  0
   31.4340   29.1690   47.0060 O   0  0  0  0  0  0  0  0  0  0  0  0
   28.5430   26.6840   44.5900 H   0  0  0  0  0  0  0  0  0  0  0  0
   29.0310   27.6230   44.6540 N   0  0  0  0  0  0  0  0  0  0  0  0
   29.8230   27.6660   45.7390 C   0  0  0  0  0  3  0  0  0  0  0  0
   30.5520   28.8050   46.0070 C   0  0  0  0  0  0  0  0  0  0  0  0
   30.4250   29.8790   45.1150 C   0  0  0  0  0  0  0  0  0  0  0  0
   30.9890   31.0050   45.1600 O   0  0  0  0  0  0  0  0  0  0  0  0
   29.6070   29.7860   44.0270 N   0  0  0  0  0  0  0  0  0  0  0  0
   28.9130   28.6560   43.8020 C   0  0  0  0  0  0  0  0  0  0  0  0
   28.1310   28.4490   42.8380 O   0  0  0  0  0  0  0  0  0  0  0  0
   29.4580   30.5340   43.3210 H   0  0  0  0  0  0  0  0  0  0  0  0
  1  5  1  0  0  0  0
  1  6  1  1  0  0  0
  1  2  1  0  0  0  0
  2  7  1  6  0  0  0
  2 12  1  0  0  0  0
  2  3  1  0  0  0  0
  4  9  1  0  0  0  0
  4  3  1  0  0  0  0
  4  8  1  0  0  0  0
  5 10  1  6  0  0  0
  5  4  1  0  0  0  0
 11 14  1  6  0  0  0
 11 13  1  0  0  0  0
 12 15  1  6  0  0  0
 12 11  1  0  0  0  0
 12 13  1  0  0  0  0
 13 16  1  0  0  0  0
 13 17  1  0  0  0  0
 18 11  1  0  0  0  0
 18 19  1  0  0  0  0
 19 24  1  0  0  0  0
 20 19  2  0  0  0  0
 20 25  1  0  0  0  0
 21 20  1  0  0  0  0
 22 23  1  0  0  0  0
 22 21  2  0  0  0  0
 23 18  2  0  0  0  0
 26 22  1  0  0  0  0
 27  1  1  0  0  0  0
 28 27  1  0  0  0  0
 29  5  1  0  0  0  0
 30 31  1  0  0  0  0
 31 32  1  0  0  0  0
 32 33  2  0  0  0  0
 33 29  1  0  0  0  0
 34 35  2  0  0  0  0
 34 33  1  0  0  0  0
 36 34  1  0  0  0  0
 37 36  1  0  0  0  0
 37 31  1  0  0  0  0
 38 37  2  0  0  0  0
 39 36  1  0  0  0  0
M  END
>  <minimizedAffinity>
-4.94869041

>  <minimizedRMSD>
0.199136883

$$$$
