
 OpenBabel03272504233D

 40 42  0  0  1  0  0  0  0  0999 V2000
   38.8790   32.3070   47.7600 C   0  0  2  0  0  0  0  0  0  0  0  0
   38.2040   31.3870   48.7610 C   0  0  1  0  0  0  0  0  0  0  0  0
   38.7590   32.0140   50.0420 C   0  0  0  0  0  0  0  0  0  0  0  0
   38.4480   33.3480   49.8290 O   0  0  0  0  0  0  0  0  0  0  0  0
   38.6940   33.6430   48.5030 C   0  0  0  0  0  0  0  0  0  0  0  0
   39.9470   32.0530   47.6720 H   0  0  0  0  0  0  0  0  0  0  0  0
   38.5100   30.3340   48.6580 H   0  0  0  0  0  0  0  0  0  0  0  0
   38.1290   31.6250   50.8700 H   0  0  0  0  0  0  0  0  0  0  0  0
   39.8310   31.8100   50.1390 H   0  0  0  0  0  0  0  0  0  0  0  0
   39.6160   34.2550   48.3940 H   0  0  0  0  0  0  0  0  0  0  0  0
   37.7930   34.1260   48.0570 H   0  0  0  0  0  0  0  0  0  0  0  0
   36.8500   31.6010   48.6810 O   0  0  0  0  0  0  0  0  0  0  0  0
   35.9010   29.8470   47.0020 O   0  0  0  0  0  0  0  0  0  0  0  0
   35.9720   30.1760   48.4650 P   0  0  1  0  0  0  0  0  0  0  0  0
   36.7780   28.8850   49.2580 O   0  0  0  0  0  0  0  0  0  0  0  0
   37.2870   29.2910   49.9980 H   0  0  0  0  0  0  0  0  0  0  0  0
   34.4160   30.3500   49.1220 O   0  0  0  0  0  0  0  0  0  0  0  0
   34.1490   29.2000   49.8360 C   0  0  0  0  0  0  0  0  0  0  0  0
   35.0660   28.6790   50.1670 H   0  0  0  0  0  0  0  0  0  0  0  0
   33.6250   29.5020   50.7800 H   0  0  0  0  0  0  0  0  0  0  0  0
   33.2830   28.2420   49.1130 C   0  0  0  0  0  0  0  0  0  0  0  0
   33.9120   27.3490   48.2770 C   0  0  0  0  0  0  0  0  0  0  0  0
   33.1490   26.4190   47.5660 C   0  0  0  0  0  0  0  0  0  0  0  0
   31.7980   26.4560   47.7500 N   0  0  0  0  0  0  0  0  0  0  0  0
   31.2050   27.3440   48.5760 C   0  0  0  0  0  0  0  0  0  0  0  0
   31.9480   28.2380   49.2570 N   0  0  0  0  0  0  0  0  0  0  0  0
   34.9590   27.2420   48.0690 H   0  0  0  0  0  0  0  0  0  0  0  0
   33.5640   25.6780   46.8860 H   0  0  0  0  0  0  0  0  0  0  0  0
   30.1280   27.3290   48.6840 H   0  0  0  0  0  0  0  0  0  0  0  0
   38.1550   32.2670   46.5930 O   0  0  0  0  0  0  0  0  0  0  0  0
   37.9610   32.8960   42.1090 H   0  0  0  0  0  0  0  0  0  0  0  0
   38.4740   32.5100   42.9300 N   0  0  0  0  0  0  0  0  0  0  0  0
   37.9850   32.6450   44.1700 C   0  0  0  0  0  0  0  0  0  0  0  0
   38.6290   32.1470   45.2980 C   0  0  0  0  0  0  0  0  0  0  0  0
   39.8250   31.4890   45.0950 C   0  0  0  0  0  0  0  0  0  0  0  0
   40.5290   30.9820   46.0220 O   0  0  0  0  0  0  0  0  0  0  0  0
   40.3430   31.3390   43.8440 N   0  0  0  0  0  0  0  0  0  0  0  0
   39.6490   31.8530   42.8140 C   0  0  0  0  0  0  0  0  0  0  0  0
   40.0960   31.7350   41.6430 O   0  0  0  0  0  0  0  0  0  0  0  0
   41.2390   30.8470   43.6890 H   0  0  0  0  0  0  0  0  0  0  0  0
  1  6  1  6  0  0  0
  1  5  1  0  0  0  0
  1  2  1  0  0  0  0
  2  7  1  6  0  0  0
  2  3  1  0  0  0  0
  3  9  1  0  0  0  0
  3  8  1  0  0  0  0
  4  3  1  0  0  0  0
  5  4  1  0  0  0  0
 10  5  1  0  0  0  0
 11  5  1  0  0  0  0
 12  2  1  0  0  0  0
 14 13  2  6  0  0  0
 14 12  1  0  0  0  0
 14 17  1  0  0  0  0
 14 15  1  0  0  0  0
 15 16  1  0  0  0  0
 17 18  1  0  0  0  0
 18 19  1  0  0  0  0
 18 20  1  0  0  0  0
 21 26  1  0  0  0  0
 21 18  1  0  0  0  0
 22 21  2  0  0  0  0
 23 24  2  0  0  0  0
 23 22  1  0  0  0  0
 24 25  1  0  0  0  0
 25 29  1  0  0  0  0
 25 26  2  0  0  0  0
 27 22  1  0  0  0  0
 28 23  1  0  0  0  0
 30  1  1  0  0  0  0
 31 32  1  0  0  0  0
 32 33  1  0  0  0  0
 33 34  2  0  0  0  0
 34 30  1  0  0  0  0
 35 34  1  0  0  0  0
 35 36  2  0  0  0  0
 37 35  1  0  0  0  0
 38 32  1  0  0  0  0
 38 37  1  0  0  0  0
 39 38  2  0  0  0  0
 40 37  1  0  0  0  0
M  END
>  <minimizedAffinity>
-5.18692875

>  <minimizedRMSD>
0.302000761

$$$$
