
 OpenBabel03262522163D

 46 49  0  0  1  0  0  0  0  0999 V2000
   39.6490   32.2510   43.8320 C   0  0  0  0  0  0  0  0  0  0  0  0
   38.5770   32.0840   43.9730 H   0  0  0  0  0  0  0  0  0  0  0  0
   39.7850   32.7440   42.8460 H   0  0  0  0  0  0  0  0  0  0  0  0
   40.0100   28.9560   42.5560 C   0  0  1  0  0  0  0  0  0  0  0  0
   40.4830   30.3990   42.3970 C   0  0  0  0  0  0  0  0  0  0  0  0
   40.3440   30.9030   43.8180 C   0  0  2  0  0  0  0  0  0  0  0  0
   39.6780   29.9690   44.5450 O   0  0  0  0  0  0  0  0  0  0  0  0
   38.9820   29.1400   43.6660 C   0  0  0  0  0  0  0  0  0  0  0  0
   40.8770   28.3840   42.9290 H   0  0  0  0  0  0  0  0  0  0  0  0
   41.4930   30.4560   41.9880 H   0  0  0  0  0  0  0  0  0  0  0  0
   39.7300   30.8920   41.7730 H   0  0  0  0  0  0  0  0  0  0  0  0
   41.3810   31.0710   44.1790 H   0  0  0  0  0  0  0  0  0  0  0  0
   38.7820   28.1940   44.1890 H   0  0  0  0  0  0  0  0  0  0  0  0
   38.1100   29.6470   43.2430 H   0  0  0  0  0  0  0  0  0  0  0  0
   39.4240   28.4930   41.4030 O   0  0  0  0  0  0  0  0  0  0  0  0
   38.0050   24.1830   41.4890 H   0  0  0  0  0  0  0  0  0  0  0  0
   38.6780   24.8880   41.1090 N   0  0  0  0  0  0  0  0  0  0  0  0
   38.5010   26.1330   41.5720 C   0  0  0  0  0  0  0  0  0  0  0  0
   39.3330   27.1400   41.1370 C   0  0  0  0  0  0  0  0  0  0  0  0
   40.3360   26.7990   40.2180 C   0  0  0  0  0  0  0  0  0  0  0  0
   41.2080   27.5690   39.6890 O   0  0  0  0  0  0  0  0  0  0  0  0
   40.4740   25.5130   39.7780 N   0  0  0  0  0  0  0  0  0  0  0  0
   39.6390   24.5590   40.2290 C   0  0  0  0  0  0  0  0  0  0  0  0
   39.7570   23.3680   39.8300 O   0  0  0  0  0  0  0  0  0  0  0  0
   41.1980   25.2010   39.0990 H   0  0  0  0  0  0  0  0  0  0  0  0
   40.4340   33.2560   45.1110 S   0  0  0  0  0  0  0  0  0  0  0  0
   37.7350   31.7920   47.6410 C   0  0  0  0  0  0  0  0  0  0  0  0
   37.9690   32.5040   48.8330 C   0  0  0  0  0  0  0  0  0  0  0  0
   38.9510   33.4520   48.9120 C   0  0  0  0  0  0  0  0  0  0  0  0
   39.6940   33.6680   47.7630 C   0  0  0  0  0  0  0  0  0  0  0  0
   39.4570   32.9730   46.6190 C   0  0  0  0  0  0  0  0  0  0  0  0
   38.4770   32.0250   46.5370 N   0  0  0  0  0  0  0  0  0  0  0  0
   37.3630   32.3020   49.7050 H   0  0  0  0  0  0  0  0  0  0  0  0
   39.1470   34.0110   49.8200 H   0  0  0  0  0  0  0  0  0  0  0  0
   40.4860   34.4050   47.7590 H   0  0  0  0  0  0  0  0  0  0  0  0
   36.6840   30.8140   47.6460 C   0  0  0  0  0  0  0  0  0  0  0  0
   36.1920   30.4050   46.5970 O   0  0  0  0  0  0  0  0  0  0  0  0
   37.0290   29.6450   49.7910 C   0  0  0  0  0  0  0  0  0  0  0  0
   36.1390   30.2480   48.8910 C   0  0  0  0  0  0  0  0  0  0  0  0
   34.7760   30.2930   49.2060 C   0  0  0  0  0  0  0  0  0  0  0  0
   34.3520   29.7450   50.3820 N   0  0  0  0  0  0  0  0  0  0  0  0
   35.2340   29.1690   51.2300 C   0  0  0  0  0  0  0  0  0  0  0  0
   36.5420   29.1210   50.9400 N   0  0  0  0  0  0  0  0  0  0  0  0
   38.0780   29.6240   49.5240 H   0  0  0  0  0  0  0  0  0  0  0  0
   34.1030   30.7630   48.5010 H   0  0  0  0  0  0  0  0  0  0  0  0
   34.8990   28.7330   52.1680 H   0  0  0  0  0  0  0  0  0  0  0  0
  1  2  1  0  0  0  0
  1 26  1  0  0  0  0
  3  1  1  0  0  0  0
  4  9  1  1  0  0  0
  4  8  1  0  0  0  0
  5  4  1  0  0  0  0
  5  6  1  0  0  0  0
  6  1  1  0  0  0  0
  6 12  1  1  0  0  0
  6  7  1  0  0  0  0
  8 13  1  0  0  0  0
  8  7  1  0  0  0  0
 10  5  1  0  0  0  0
 11  5  1  0  0  0  0
 14  8  1  0  0  0  0
 15  4  1  0  0  0  0
 17 16  1  0  0  0  0
 17 18  1  0  0  0  0
 19 15  1  0  0  0  0
 19 18  2  0  0  0  0
 20 19  1  0  0  0  0
 21 20  2  0  0  0  0
 22 20  1  0  0  0  0
 22 23  1  0  0  0  0
 23 17  1  0  0  0  0
 24 23  2  0  0  0  0
 25 22  1  0  0  0  0
 26 31  1  0  0  0  0
 27 36  1  0  0  0  0
 27 28  1  0  0  0  0
 28 29  2  0  0  0  0
 28 33  1  0  0  0  0
 29 34  1  0  0  0  0
 30 29  1  0  0  0  0
 31 30  2  0  0  0  0
 32 31  1  0  0  0  0
 32 27  2  0  0  0  0
 35 30  1  0  0  0  0
 36 39  1  0  0  0  0
 37 36  2  0  0  0  0
 38 43  1  0  0  0  0
 39 40  1  0  0  0  0
 39 38  2  0  0  0  0
 40 41  2  0  0  0  0
 41 42  1  0  0  0  0
 42 46  1  0  0  0  0
 43 42  2  0  0  0  0
 44 38  1  0  0  0  0
 45 40  1  0  0  0  0
M  END
>  <minimizedAffinity>
-5.78429508

>  <minimizedRMSD>
1.61842501

$$$$
