REMARK  Name = 
REMARK  1 active torsions:
REMARK  status: ('A' for Active; 'I' for Inactive)
REMARK    1  A    between atoms: N_12  and  C_23
REMARK                            x       y       z     vdW  Elec       q    Type
REMARK                         _______ _______ _______ _____ _____    ______ ____
ROOT
ATOM      1  C   UNL     1      37.476  30.253  51.329  0.00  0.00    +0.000 A 
ATOM      2  C   UNL     1      38.157  30.978  50.312  0.00  0.00    +0.000 A 
ATOM      3  C   UNL     1      37.837  30.730  48.993  0.00  0.00    +0.000 A 
ATOM      4  N   UNL     1      36.883  29.799  48.737  0.00  0.00    +0.000 NA
ATOM      5  C   UNL     1      36.233  29.105  49.693  0.00  0.00    +0.000 A 
ATOM      6  N   UNL     1      36.533  29.337  50.994  0.00  0.00    +0.000 NA
ATOM      7  N   UNL     1      38.459  31.410  47.921  0.00  0.00    +0.000 N 
ATOM      8  C   UNL     1      38.679  30.824  46.729  0.00  0.00    +0.000 A 
ATOM      9  C   UNL     1      39.290  31.512  45.684  0.00  0.00    +0.000 A 
ATOM     10  C   UNL     1      39.671  32.843  45.912  0.00  0.00    +0.000 A 
ATOM     11  O   UNL     1      40.222  33.502  45.005  0.00  0.00    +0.000 OA
ATOM     12  N   UNL     1      39.443  33.424  47.119  0.00  0.00    +0.000 N 
ATOM     13  C   UNL     1      38.845  32.673  48.068  0.00  0.00    +0.000 A 
ATOM     14  O   UNL     1      38.649  33.246  49.171  0.00  0.00    +0.000 OA
ATOM     15  H   UNL     1      37.700  30.421  52.385  0.00  0.00    +0.000 HD
ATOM     16  H   UNL     1      38.877  31.652  50.691  0.00  0.00    +0.000 HD
ATOM     17  H   UNL     1      35.481  28.375  49.423  0.00  0.00    +0.000 HD
ATOM     18  H   UNL     1      38.371  29.795  46.593  0.00  0.00    +0.000 HD
ATOM     19  H   UNL     1      39.471  31.053  44.726  0.00  0.00    +0.000 HD
ENDROOT
BRANCH  12  23
ATOM     20  H   UNL     1      38.627  37.730  48.344  0.00  0.00    +0.000 HD
ATOM     21  N   UNL     1      39.306  36.997  48.030  0.00  0.00    +0.000 N 
ATOM     22  C   UNL     1      38.902  35.719  47.793  0.00  0.00    +0.000 A 
ATOM     23  C   UNL     1      39.819  34.772  47.379  0.00  0.00    +0.000 A 
ATOM     24  C   UNL     1      41.149  35.095  47.197  0.00  0.00    +0.000 A 
ATOM     25  O   UNL     1      42.038  34.274  46.819  0.00  0.00    +0.000 OA
ATOM     26  N   UNL     1      41.523  36.378  47.441  0.00  0.00    +0.000 N 
ATOM     27  C   UNL     1      40.611  37.289  47.845  0.00  0.00    +0.000 A 
ATOM     28  O   UNL     1      41.061  38.467  48.048  0.00  0.00    +0.000 OA
ATOM     29  H   UNL     1      42.538  36.624  47.302  0.00  0.00    +0.000 HD
ENDBRANCH  12  23
TORSDOF 1
