
 OpenBabel03272504423D

 46 48  0  0  0  0  0  0  0  0999 V2000
   34.5360   29.1060   48.7850 C   0  0  0  0  0  0  0  0  0  0  0  0
   35.4430   28.9150   49.4080 H   0  0  0  0  0  0  0  0  0  0  0  0
   34.0470   29.9740   49.3180 H   0  0  0  0  0  0  0  0  0  0  0  0
   37.2950   30.2070   48.6590 Cl  0  0  0  0  0  0  0  0  0  0  0  0
   36.2030   30.1220   47.2710 C   0  0  0  0  0  0  0  0  0  0  0  0
   36.6170   30.5780   46.0700 C   0  0  0  0  0  0  0  0  0  0  0  0
   35.7720   30.5160   44.9850 C   0  0  0  0  0  0  0  0  0  0  0  0
   34.5030   29.9780   45.1540 C   0  0  0  0  0  0  0  0  0  0  0  0
   34.1400   29.5220   46.4350 C   0  0  0  0  0  0  0  0  0  0  0  0
   34.9550   29.5780   47.5000 C   0  0  0  0  0  0  0  0  0  0  0  0
   36.1290   30.8920   44.0170 H   0  0  0  0  0  0  0  0  0  0  0  0
   33.9230   29.9760   44.2440 H   0  0  0  0  0  0  0  0  0  0  0  0
   33.1740   29.1700   46.3490 H   0  0  0  0  0  0  0  0  0  0  0  0
   39.5810   32.7540   46.3940 C   0  0  0  0  0  0  0  0  0  0  0  0
   40.4850   32.1020   45.4920 C   0  0  0  0  0  0  0  0  0  0  0  0
   40.0380   30.9470   44.8160 C   0  0  0  0  0  0  0  0  0  0  0  0
   38.7750   30.5040   45.0450 N   0  0  0  0  0  0  0  0  0  0  0  0
   37.9470   31.1430   45.9030 C   0  0  0  0  0  0  0  0  0  0  0  0
   38.3540   32.2440   46.5570 N   0  0  0  0  0  0  0  0  0  0  0  0
   39.9640   33.6290   46.8870 H   0  0  0  0  0  0  0  0  0  0  0  0
   41.4790   32.4960   45.3460 H   0  0  0  0  0  0  0  0  0  0  0  0
   40.9500   30.3390   43.9440 N   0  0  0  0  0  0  0  0  0  0  0  0
   41.9030   30.0070   44.1830 H   0  0  0  0  0  0  0  0  0  0  0  0
   40.4740   30.2930   43.0130 H   0  0  0  0  0  0  0  0  0  0  0  0
   33.6660   27.9380   48.8970 C   0  0  0  0  0  0  0  0  0  0  0  0
   34.0110   27.1770   49.6530 H   0  0  0  0  0  0  0  0  0  0  0  0
   33.6670   27.3780   47.9230 H   0  0  0  0  0  0  0  0  0  0  0  0
   32.3850   28.2850   49.2300 O   0  0  0  0  0  0  0  0  0  0  0  0
   31.9690   26.6590   47.2110 O   0  0  0  0  0  0  0  0  0  0  0  0
   31.2860   27.4720   48.2810 P   0  0  2  0  0  0  0  0  0  0  0  0
   30.3010   28.6920   47.5420 O   0  0  0  0  0  0  0  0  0  0  0  0
   30.9360   30.2440   43.4620 H   0  0  0  0  0  0  0  0  0  0  0  0
   30.3890   29.6050   44.0910 N   0  0  0  0  0  0  0  0  0  0  0  0
   30.6590   29.5230   45.4240 C   0  0  0  0  0  3  0  0  0  0  0  0
   29.9070   28.6590   46.2290 C   0  0  0  0  0  0  0  0  0  0  0  0
   28.9250   27.9310   45.6230 C   0  0  0  0  0  0  0  0  0  0  0  0
   28.2890   27.1780   46.4010 O   0  0  0  0  0  0  0  0  0  0  0  0
   28.6610   28.0140   44.3120 N   0  0  0  0  0  0  0  0  0  0  0  0
   29.3980   28.8570   43.5420 C   0  0  0  0  0  0  0  0  0  0  0  0
   29.1220   28.9070   42.3180 O   0  0  0  0  0  0  0  0  0  0  0  0
   27.8970   27.4350   43.8970 H   0  0  0  0  0  0  0  0  0  0  0  0
   30.2510   26.5110   49.1400 O   0  0  0  0  0  0  0  0  0  0  0  0
   29.4790   27.2610   50.0000 C   0  0  0  0  0  0  0  0  0  0  0  0
   29.1910   26.5830   51.1830 F   0  0  0  0  0  0  0  0  0  0  0  0
   30.1240   28.4170   50.3870 F   0  0  0  0  0  0  0  0  0  0  0  0
   28.2750   27.5850   49.3830 F   0  0  0  0  0  0  0  0  0  0  0  0
  1 25  1  0  0  0  0
  1  3  1  0  0  0  0
  1  2  1  0  0  0  0
  5 10  1  0  0  0  0
  5  4  1  0  0  0  0
  6  5  2  0  0  0  0
  7  8  2  0  0  0  0
  7  6  1  0  0  0  0
  8  9  1  0  0  0  0
  9 10  2  0  0  0  0
 10  1  1  0  0  0  0
 11  7  1  0  0  0  0
 12  8  1  0  0  0  0
 13  9  1  0  0  0  0
 14 19  1  0  0  0  0
 14 20  1  0  0  0  0
 15 14  2  0  0  0  0
 16 17  2  0  0  0  0
 16 15  1  0  0  0  0
 17 18  1  0  0  0  0
 18  6  1  0  0  0  0
 18 19  2  0  0  0  0
 21 15  1  0  0  0  0
 22 23  1  0  0  0  0
 22 16  1  0  0  0  0
 24 22  1  0  0  0  0
 25 28  1  0  0  0  0
 25 26  1  0  0  0  0
 27 25  1  0  0  0  0
 30 29  2  6  0  0  0
 30 42  1  0  0  0  0
 30 28  1  0  0  0  0
 31 30  1  0  0  0  0
 32 33  1  0  0  0  0
 33 34  1  0  0  0  0
 34 35  2  0  0  0  0
 35 31  1  0  0  0  0
 36 35  1  0  0  0  0
 36 37  2  0  0  0  0
 38 36  1  0  0  0  0
 39 33  1  0  0  0  0
 39 38  1  0  0  0  0
 40 39  2  0  0  0  0
 41 38  1  0  0  0  0
 42 43  1  0  0  0  0
 43 45  1  0  0  0  0
 43 44  1  0  0  0  0
 46 43  1  0  0  0  0
M  END
>  <minimizedAffinity>
-5.68773556

>  <minimizedRMSD>
0.693733633

$$$$
