
 OpenBabel03272506443D

 33 35  0  0  1  0  0  0  0  0999 V2000
   32.3520   28.3080   47.5770 C   0  0  2  0  0  0  0  0  0  0  0  0
   33.6400   28.3220   48.3870 C   0  0  1  0  0  0  0  0  0  0  0  0
   34.1970   27.0800   48.3160 O   0  0  0  0  0  0  0  0  0  0  0  0
   33.5160   26.3320   47.3830 C   0  0  0  0  0  0  0  0  0  0  0  0
   32.7660   27.3310   46.4850 C   0  0  1  0  0  0  0  0  0  0  0  0
   31.5390   27.8870   48.1840 H   0  0  0  0  0  0  0  0  0  0  0  0
   33.4360   28.6910   49.4020 H   0  0  0  0  0  0  0  0  0  0  0  0
   34.1770   25.6670   46.8100 H   0  0  0  0  0  0  0  0  0  0  0  0
   32.7200   25.7750   47.9330 H   0  0  0  0  0  0  0  0  0  0  0  0
   33.5240   27.7930   45.8580 H   0  0  0  0  0  0  0  0  0  0  0  0
   32.0640   29.5710   47.0700 O   0  0  0  0  0  0  0  0  0  0  0  0
   32.7080   29.7550   46.3400 H   0  0  0  0  0  0  0  0  0  0  0  0
   34.7640   29.5010   47.5460 S   0  0  0  0  0  0  0  0  0  0  0  0
   37.3760   29.4670   50.5300 C   0  0  0  0  0  0  0  0  0  0  0  0
   37.9710   30.7310   50.5000 C   0  0  0  0  0  0  0  0  0  0  0  0
   37.5410   31.6370   49.5060 C   0  0  0  0  0  0  0  0  0  0  0  0
   36.5830   31.2310   48.6440 N   0  0  0  0  0  0  0  0  0  0  0  0
   36.0280   30.0020   48.7010 C   0  0  0  0  0  0  0  0  0  0  0  0
   36.4170   29.1220   49.6340 N   0  0  0  0  0  0  0  0  0  0  0  0
   37.6680   28.7370   51.2710 H   0  0  0  0  0  0  0  0  0  0  0  0
   38.7230   31.0010   51.2020 H   0  0  0  0  0  0  0  0  0  0  0  0
   37.9750   32.6290   49.4440 H   0  0  0  0  0  0  0  0  0  0  0  0
   31.7010   26.7090   45.8860 O   0  0  0  0  0  0  0  0  0  0  0  0
   29.7920   29.0760   42.5440 H   0  0  0  0  0  0  0  0  0  0  0  0
   30.2970   28.2220   42.8330 N   0  0  0  0  0  0  0  0  0  0  0  0
   30.5970   28.1500   44.1380 C   0  0  0  0  0  3  0  0  0  0  0  0
   31.2690   27.0460   44.6120 C   0  0  0  0  0  0  0  0  0  0  0  0
   31.6200   26.0310   43.7200 C   0  0  0  0  0  0  0  0  0  0  0  0
   32.2340   24.9560   43.9700 O   0  0  0  0  0  0  0  0  0  0  0  0
   31.3080   26.1200   42.3950 N   0  0  0  0  0  0  0  0  0  0  0  0
   30.6400   27.2320   41.9670 C   0  0  0  0  0  0  0  0  0  0  0  0
   30.3180   27.3860   40.7640 O   0  0  0  0  0  0  0  0  0  0  0  0
   31.5290   25.4210   41.6760 H   0  0  0  0  0  0  0  0  0  0  0  0
  1  6  1  1  0  0  0
  1  2  1  0  0  0  0
  2  7  1  1  0  0  0
  3  2  1  0  0  0  0
  4  9  1  0  0  0  0
  4  3  1  0  0  0  0
  5 10  1  6  0  0  0
  5  4  1  0  0  0  0
  5  1  1  0  0  0  0
  8  4  1  0  0  0  0
 11  1  1  0  0  0  0
 12 11  1  0  0  0  0
 13  2  1  0  0  0  0
 13 18  1  0  0  0  0
 14 20  1  0  0  0  0
 15 14  1  0  0  0  0
 15 21  1  0  0  0  0
 16 15  2  0  0  0  0
 17 18  2  0  0  0  0
 17 16  1  0  0  0  0
 18 19  1  0  0  0  0
 19 14  2  0  0  0  0
 22 16  1  0  0  0  0
 23  5  1  0  0  0  0
 24 25  1  0  0  0  0
 25 26  1  0  0  0  0
 26 27  2  0  0  0  0
 27 23  1  0  0  0  0
 28 29  2  0  0  0  0
 28 27  1  0  0  0  0
 30 28  1  0  0  0  0
 31 30  1  0  0  0  0
 31 25  1  0  0  0  0
 32 31  2  0  0  0  0
 33 30  1  0  0  0  0
M  END
>  <minimizedAffinity>
-3.72994018

>  <minimizedRMSD>
1.00180614

$$$$
