
     RDKit          3D

 41 43  0  0  0  0  0  0  0  0999 V2000
   36.0380   29.9453   46.9667 O   0  0  0  0  0  0  0  0  0  0  0  0
   36.0272   30.2282   48.4424 P   0  0  2  0  0  0  0  0  0  0  0  0
   36.7978   28.9167   49.2369 O   0  0  0  0  0  0  0  0  0  0  0  0
   34.4362   30.3724   49.0174 O   0  0  0  0  0  0  0  0  0  0  0  0
   34.1729   29.2418   49.7632 C   0  0  0  0  0  0  0  0  0  0  0  0
   33.3143   28.2595   49.0660 C   0  0  0  0  0  0  0  0  0  0  0  0
   33.9416   27.3835   48.2119 C   0  0  0  0  0  0  0  0  0  0  0  0
   33.1854   26.4319   47.5240 C   0  0  0  0  0  0  0  0  0  0  0  0
   31.8405   26.4311   47.7479 N   0  0  0  0  0  0  0  0  0  0  0  0
   31.2474   27.3019   48.5918 C   0  0  0  0  0  0  0  0  0  0  0  0
   31.9841   28.2166   49.2513 N   0  0  0  0  0  0  0  0  0  0  0  0
   36.8812   31.6501   48.7501 O   0  0  0  0  0  0  0  0  0  0  0  0
   38.8576   32.4681   47.8092 C   0  0  2  0  0  0  0  0  0  0  0  0
   38.2412   31.4638   48.7646 C   0  0  1  0  0  0  0  0  0  0  0  0
   38.8310   32.0109   50.0672 C   0  0  0  0  0  0  0  0  0  0  0  0
   38.4844   33.3495   49.9618 O   0  0  0  0  0  0  0  0  0  0  0  0
   38.6733   33.7434   48.6527 C   0  0  0  0  0  0  0  0  0  0  0  0
   38.0909   32.4943   46.6697 O   0  0  0  0  0  0  0  0  0  0  0  0
   37.2617   29.3018   50.0159 H   0  0  0  0  0  0  0  0  0  0  0  0
   35.0923   28.7351   50.1109 H   0  0  0  0  0  0  0  0  0  0  0  0
   33.6460   29.5684   50.6966 H   0  0  0  0  0  0  0  0  0  0  0  0
   34.9854   27.3070   47.9720 H   0  0  0  0  0  0  0  0  0  0  0  0
   33.6003   25.7033   46.8315 H   0  0  0  0  0  0  0  0  0  0  0  0
   30.1744   27.2561   48.7318 H   0  0  0  0  0  0  0  0  0  0  0  0
   39.9267   32.2474   47.6642 H   0  0  0  0  0  0  0  0  0  0  0  0
   38.5654   30.4277   48.5758 H   0  0  0  0  0  0  0  0  0  0  0  0
   38.2421   31.5491   50.8874 H   0  0  0  0  0  0  0  0  0  0  0  0
   39.9096   31.8264   50.1104 H   0  0  0  0  0  0  0  0  0  0  0  0
   39.5768   34.3833   48.5551 H   0  0  0  0  0  0  0  0  0  0  0  0
   37.7461   34.2349   48.2757 H   0  0  0  0  0  0  0  0  0  0  0  0
   38.0276   30.3238   42.6913 H   0  0  0  0  0  0  0  0  0  0  0  0
   38.4197   31.0910   43.2783 N   0  0  0  0  0  0  0  0  0  0  0  0
   38.0042   31.2706   44.5395 C   0  0  0  0  0  0  0  0  0  0  0  0
   38.4949   32.2780   45.3644 C   0  0  0  0  0  0  0  0  0  0  0  0
   39.4535   33.1132   44.8256 C   0  0  0  0  0  0  0  0  0  0  0  0
   39.9957   34.0762   45.4518 O   0  0  0  0  0  0  0  0  0  0  0  0
   39.8919   32.9512   43.5470 N   0  0  0  0  0  0  0  0  0  0  0  0
   39.3600   31.9495   42.8246 C   0  0  0  0  0  0  0  0  0  0  0  0
   39.7399   31.7682   41.6391 O   0  0  0  0  0  0  0  0  0  0  0  0
   37.2542   30.6096   44.9466 H   0  0  0  0  0  0  0  0  0  0  0  0
   40.6097   33.5754   43.1412 H   0  0  0  0  0  0  0  0  0  0  0  0
  2  1  2  0
  2 12  1  6
  2  4  1  0
  2  3  1  0
  4  5  1  0
  6 11  1  0
  6  5  1  0
  7  6  2  0
  8  9  2  0
  8  7  1  0
  9 10  1  0
 10 11  2  0
 13 18  1  0
 13 17  1  0
 13 14  1  0
 14 12  1  0
 14 15  1  0
 16 15  1  0
 17 16  1  0
  3 19  1  0
  5 20  1  0
  5 21  1  0
  7 22  1  0
  8 23  1  0
 10 24  1  0
 13 25  1  6
 14 26  1  6
 15 27  1  0
 15 28  1  0
 17 29  1  0
 17 30  1  0
 31 32  1  0
 32 33  1  0
 33 34  2  0
 34 35  1  0
 35 36  2  0
 35 37  1  0
 37 38  1  0
 38 39  2  0
 38 32  1  0
 33 40  1  0
 37 41  1  0
 18 34  1  0
M  ISO  8  19   3  20   8  21   8  22  14  23  14  24  14  25  13  26  13
M  ISO  5  27  13  28  13  29  13  30  13  31   9
M  END
>  <DihAtoms>  (1) 
12,17,33,32

>  <DihDeg>  (1) 
0.0011714650652050352

$$$$
