
 OpenBabel03272505093D

 30 32  0  0  0  0  0  0  0  0999 V2000
   36.3910   30.8550   45.7020 Cl  0  0  0  0  0  0  0  0  0  0  0  0
   36.6840   30.7550   47.4210 C   0  0  0  0  0  0  0  0  0  0  0  0
   37.9360   31.0940   47.8540 C   0  0  0  0  0  0  0  0  0  0  0  0
   38.1950   31.0210   49.2260 C   0  0  0  0  0  0  0  0  0  0  0  0
   37.2000   30.6180   50.0830 C   0  0  0  0  0  0  0  0  0  0  0  0
   35.9570   30.2910   49.5670 C   0  0  0  0  0  0  0  0  0  0  0  0
   35.6400   30.3420   48.2300 C   0  0  0  0  0  0  0  0  0  0  0  0
   39.1760   31.2840   49.5950 H   0  0  0  0  0  0  0  0  0  0  0  0
   37.3930   30.5590   51.1460 H   0  0  0  0  0  0  0  0  0  0  0  0
   35.1790   29.9720   50.2620 H   0  0  0  0  0  0  0  0  0  0  0  0
   40.1930   33.2920   45.9960 C   0  0  0  0  0  0  0  0  0  0  0  0
   40.9010   32.4230   45.1520 C   0  0  0  0  0  0  0  0  0  0  0  0
   40.5800   31.0730   45.2420 C   0  0  0  0  0  0  0  0  0  0  0  0
   39.6180   30.6620   46.1230 N   0  0  0  0  0  0  0  0  0  0  0  0
   38.9720   31.5210   46.9040 C   0  0  0  0  0  0  0  0  0  0  0  0
   39.2650   32.8330   46.8340 N   0  0  0  0  0  0  0  0  0  0  0  0
   40.3690   34.3560   45.9990 H   0  0  0  0  0  0  0  0  0  0  0  0
   41.6470   32.8360   44.4860 H   0  0  0  0  0  0  0  0  0  0  0  0
   41.1010   30.3870   44.6140 H   0  0  0  0  0  0  0  0  0  0  0  0
   34.0550   29.9330   47.5560 S   0  0  0  0  0  0  0  0  0  0  0  0
   33.8200   25.1130   48.2400 H   0  0  0  0  0  0  0  0  0  0  0  0
   33.8220   25.8820   47.5360 N   0  0  0  0  0  0  0  0  0  0  0  0
   33.9240   27.1190   48.0560 C   0  0  0  0  0  3  0  0  0  0  0  0
   33.9310   28.1850   47.1540 C   0  0  0  0  0  0  0  0  0  0  0  0
   33.8350   27.9300   45.7840 C   0  0  0  0  0  0  0  0  0  0  0  0
   33.8350   28.8270   44.9070 O   0  0  0  0  0  0  0  0  0  0  0  0
   33.7360   26.6680   45.3200 N   0  0  0  0  0  0  0  0  0  0  0  0
   33.7320   25.6660   46.2160 C   0  0  0  0  0  0  0  0  0  0  0  0
   33.6430   24.4730   45.8740 O   0  0  0  0  0  0  0  0  0  0  0  0
   33.6620   26.4440   44.2940 H   0  0  0  0  0  0  0  0  0  0  0  0
  1  2  1  0  0  0  0
  2  3  2  0  0  0  0
  2  7  1  0  0  0  0
  3  4  1  0  0  0  0
  4  8  1  0  0  0  0
  4  5  2  0  0  0  0
  5  9  1  0  0  0  0
  6  5  1  0  0  0  0
  6 10  1  0  0  0  0
  7  6  2  0  0  0  0
 11 17  1  0  0  0  0
 11 16  1  0  0  0  0
 12 13  1  0  0  0  0
 12 11  2  0  0  0  0
 13 14  2  0  0  0  0
 14 15  1  0  0  0  0
 15  3  1  0  0  0  0
 16 15  2  0  0  0  0
 18 12  1  0  0  0  0
 19 13  1  0  0  0  0
 20  7  1  0  0  0  0
 22 23  1  0  0  0  0
 22 21  1  0  0  0  0
 24 20  1  0  0  0  0
 24 23  2  0  0  0  0
 25 24  1  0  0  0  0
 26 25  2  0  0  0  0
 27 25  1  0  0  0  0
 27 28  1  0  0  0  0
 28 22  1  0  0  0  0
 29 28  2  0  0  0  0
 30 27  1  0  0  0  0
M  END
>  <minimizedAffinity>
-5.50646925

>  <minimizedRMSD>
1.15513396

$$$$
