REMARK  Name = 
REMARK  5 active torsions:
REMARK  status: ('A' for Active; 'I' for Inactive)
REMARK    1  A    between atoms: S_1  and  C_6
REMARK    2  A    between atoms: S_1  and  C_9
REMARK    3  A    between atoms: C_8  and  O_13
REMARK    4  A    between atoms: C_12  and  O_14
REMARK    5  A    between atoms: O_14  and  C_27
REMARK                            x       y       z     vdW  Elec       q    Type
REMARK                         _______ _______ _______ _____ _____    ______ ____
ROOT
ATOM      1  C   UNL     1      32.385  28.357  47.477  0.00  0.00    +0.000 C 
ATOM      2  C   UNL     1      33.631  28.402  48.348  0.00  0.00    +0.000 C 
ATOM      3  O   UNL     1      34.186  27.157  48.355  0.00  0.00    +0.000 OA
ATOM      4  C   UNL     1      33.549  26.372  47.421  0.00  0.00    +0.000 C 
ATOM      5  C   UNL     1      32.848  27.335  46.447  0.00  0.00    +0.000 C 
ATOM      6  H   UNL     1      31.541  27.963  48.060  0.00  0.00    +0.000 HD
ATOM      7  H   UNL     1      33.379  28.812  49.336  0.00  0.00    +0.000 HD
ATOM      8  H   UNL     1      34.234  25.683  46.909  0.00  0.00    +0.000 HD
ATOM      9  H   UNL     1      32.724  25.840  47.953  0.00  0.00    +0.000 HD
ATOM     10  H   UNL     1      33.638  27.770  45.840  0.00  0.00    +0.000 HD
ENDROOT
BRANCH   1  11
ATOM     11  O   UNL     1      32.127  29.599  46.905  0.00  0.00    +0.000 OA
ATOM     12  H   UNL     1      32.807  29.752  46.201  0.00  0.00    +0.000 HD
ENDBRANCH   1  11
BRANCH   2  13
ATOM     13  S   UNL     1      34.800  29.543  47.516  0.00  0.00    +0.000 S 
BRANCH  13  18
ATOM     14  C   UNL     1      37.368  29.471  50.537  0.00  0.00    +0.000 A 
ATOM     15  C   UNL     1      37.979  30.728  50.518  0.00  0.00    +0.000 A 
ATOM     16  C   UNL     1      37.575  31.641  49.520  0.00  0.00    +0.000 A 
ATOM     17  N   UNL     1      36.624  31.248  48.644  0.00  0.00    +0.000 NA
ATOM     18  C   UNL     1      36.053  30.026  48.690  0.00  0.00    +0.000 A 
ATOM     19  N   UNL     1      36.418  29.140  49.627  0.00  0.00    +0.000 NA
ATOM     20  H   UNL     1      37.641  28.736  51.281  0.00  0.00    +0.000 HD
ATOM     21  H   UNL     1      38.724  30.987  51.232  0.00  0.00    +0.000 HD
ATOM     22  H   UNL     1      38.022  32.627  49.466  0.00  0.00    +0.000 HD
ENDBRANCH  13  18
ENDBRANCH   2  13
BRANCH   5  23
ATOM     23  O   UNL     1      31.811  26.692  45.822  0.00  0.00    +0.000 OA
BRANCH  23  27
ATOM     24  H   UNL     1      30.786  27.691  41.537  0.00  0.00    +0.000 HD
ATOM     25  N   UNL     1      31.236  27.038  42.199  0.00  0.00    +0.000 N 
ATOM     26  C   UNL     1      31.162  27.392  43.489  0.00  0.00    +0.000 A 
ATOM     27  C   UNL     1      31.735  26.579  44.442  0.00  0.00    +0.000 A 
ATOM     28  C   UNL     1      32.379  25.408  44.037  0.00  0.00    +0.000 A 
ATOM     29  O   UNL     1      32.956  24.549  44.761  0.00  0.00    +0.000 OA
ATOM     30  N   UNL     1      32.445  25.063  42.719  0.00  0.00    +0.000 N 
ATOM     31  C   UNL     1      31.864  25.896  41.807  0.00  0.00    +0.000 A 
ATOM     32  O   UNL     1      31.883  25.647  40.578  0.00  0.00    +0.000 OA
ATOM     33  H   UNL     1      32.897  24.223  42.340  0.00  0.00    +0.000 HD
ENDBRANCH  23  27
ENDBRANCH   5  23
TORSDOF 5
