
 OpenBabel03272503433D

 42 45  0  0  1  0  0  0  0  0999 V2000
   37.9490   23.2320   31.8850 C   0  0  2  0  0  0  0  0  0  0  0  0
   37.1140   24.1560   30.9770 C   0  0  1  0  0  0  0  0  0  0  0  0
   35.7670   23.5540   31.1950 C   0  0  0  0  0  0  0  0  0  0  0  0
   35.9320   22.2010   31.3600 O   0  0  0  0  0  0  0  0  0  0  0  0
   37.2550   21.9130   31.5010 C   0  0  0  0  0  0  0  0  0  0  0  0
   38.9960   23.2300   31.5920 H   0  0  0  0  0  0  0  0  0  0  0  0
   37.4140   24.0580   29.9270 H   0  0  0  0  0  0  0  0  0  0  0  0
   35.1560   24.0360   31.9780 H   0  0  0  0  0  0  0  0  0  0  0  0
   35.1950   23.6910   30.2350 H   0  0  0  0  0  0  0  0  0  0  0  0
   37.7030   21.6390   30.5130 H   0  0  0  0  0  0  0  0  0  0  0  0
   37.5140   21.1170   32.2200 H   0  0  0  0  0  0  0  0  0  0  0  0
   36.7650   27.5700   32.0130 C   0  0  0  0  0  0  0  0  0  0  0  0
   38.1120   27.4640   32.0670 C   0  0  0  0  0  0  0  0  0  0  0  0
   38.3670   26.1450   31.6740 C   0  0  0  0  0  0  0  0  0  0  0  0
   37.2180   25.5260   31.4080 N   0  0  0  0  0  0  0  0  0  0  0  0
   36.2240   26.4040   31.6160 N   0  0  0  0  0  0  0  0  0  0  0  0
   38.8230   28.2460   32.3550 H   0  0  0  0  0  0  0  0  0  0  0  0
   39.3770   25.7160   31.6070 H   0  0  0  0  0  0  0  0  0  0  0  0
   34.9850   30.3050   33.8760 C   0  0  0  0  0  0  0  0  0  0  0  0
   35.7170   29.1520   33.6250 C   0  0  0  0  0  0  0  0  0  0  0  0
   36.0030   28.7660   32.3340 C   0  0  0  0  0  0  0  0  0  0  0  0
   35.5370   29.5610   31.3350 N   0  0  0  0  0  0  0  0  0  0  0  0
   34.8180   30.6900   31.6070 C   0  0  0  0  0  0  0  0  0  0  0  0
   34.5470   31.0570   32.8480 N   0  0  0  0  0  0  0  0  0  0  0  0
   36.1080   28.4910   34.3980 H   0  0  0  0  0  0  0  0  0  0  0  0
   34.4600   31.3030   30.7820 H   0  0  0  0  0  0  0  0  0  0  0  0
   34.7880   30.5450   35.2320 O   0  0  0  0  0  0  0  0  0  0  0  0
   35.3890   31.6220   35.9240 C   0  0  0  0  0  0  0  0  0  0  0  0
   35.1680   32.8300   35.2980 F   0  0  0  0  0  0  0  0  0  0  0  0
   36.7320   31.3620   36.0600 F   0  0  0  0  0  0  0  0  0  0  0  0
   34.8620   31.6590   37.2040 F   0  0  0  0  0  0  0  0  0  0  0  0
   37.6160   23.5610   33.1680 O   0  0  0  0  0  0  0  0  0  0  0  0
   40.7030   24.5060   36.1460 H   0  0  0  0  0  0  0  0  0  0  0  0
   39.9060   23.8900   35.8720 N   0  0  0  0  0  0  0  0  0  0  0  0
   39.2150   24.0550   34.7070 C   0  0  0  0  0  3  0  0  0  0  0  0
   38.1500   23.2080   34.3700 C   0  0  0  0  0  0  0  0  0  0  0  0
   37.8430   22.2100   35.2730 C   0  0  0  0  0  0  0  0  0  0  0  0
   36.8770   21.5050   34.8840 O   0  0  0  0  0  0  0  0  0  0  0  0
   38.5480   22.0810   36.4120 N   0  0  0  0  0  0  0  0  0  0  0  0
   39.5620   22.9010   36.7120 C   0  0  0  0  0  0  0  0  0  0  0  0
   40.1660   22.6910   37.8190 O   0  0  0  0  0  0  0  0  0  0  0  0
   38.2440   21.3010   37.0280 H   0  0  0  0  0  0  0  0  0  0  0  0
  1  6  1  6  0  0  0
  1 32  1  0  0  0  0
  2  7  1  6  0  0  0
  2  3  1  0  0  0  0
  2 15  1  0  0  0  0
  2  1  1  0  0  0  0
  3  4  1  0  0  0  0
  3  8  1  0  0  0  0
  4  5  1  0  0  0  0
  5  1  1  0  0  0  0
  5 11  1  0  0  0  0
  9  3  1  0  0  0  0
 10  5  1  0  0  0  0
 12 13  1  0  0  0  0
 12 21  1  0  0  0  0
 13 17  1  0  0  0  0
 14 13  2  0  0  0  0
 15 16  1  0  0  0  0
 15 14  1  0  0  0  0
 16 12  2  0  0  0  0
 18 14  1  0  0  0  0
 19 27  1  0  0  0  0
 20 19  1  0  0  0  0
 20 25  1  0  0  0  0
 21 20  2  0  0  0  0
 22 23  2  0  0  0  0
 22 21  1  0  0  0  0
 23 24  1  0  0  0  0
 24 19  2  0  0  0  0
 26 23  1  0  0  0  0
 27 28  1  0  0  0  0
 28 30  1  0  0  0  0
 28 31  1  0  0  0  0
 29 28  1  0  0  0  0
 32 36  1  0  0  0  0
 34 33  1  0  0  0  0
 34 40  1  0  0  0  0
 35 34  1  0  0  0  0
 36 35  2  0  0  0  0
 36 37  1  0  0  0  0
 37 39  1  0  0  0  0
 38 37  2  0  0  0  0
 39 40  1  0  0  0  0
 39 42  1  0  0  0  0
 40 41  2  0  0  0  0
M  END
>  <minimizedAffinity>
-6.38037825

$$$$

 OpenBabel03272503433D

 42 45  0  0  1  0  0  0  0  0999 V2000
   38.6650   22.7710   32.2420 C   0  0  2  0  0  0  0  0  0  0  0  0
   37.7760   22.8410   30.9850 C   0  0  1  0  0  0  0  0  0  0  0  0
   37.0750   21.5300   31.1130 C   0  0  0  0  0  0  0  0  0  0  0  0
   37.9580   20.6320   31.6610 O   0  0  0  0  0  0  0  0  0  0  0  0
   39.0630   21.2890   32.1080 C   0  0  0  0  0  0  0  0  0  0  0  0
   39.5290   23.4230   32.1520 H   0  0  0  0  0  0  0  0  0  0  0  0
   38.3800   22.8680   30.0710 H   0  0  0  0  0  0  0  0  0  0  0  0
   36.0930   21.5660   31.6160 H   0  0  0  0  0  0  0  0  0  0  0  0
   36.8680   21.1740   30.0650 H   0  0  0  0  0  0  0  0  0  0  0  0
   39.8630   21.2850   31.3260 H   0  0  0  0  0  0  0  0  0  0  0  0
   39.5090   20.9230   33.0480 H   0  0  0  0  0  0  0  0  0  0  0  0
   36.1000   26.0060   31.1510 C   0  0  0  0  0  0  0  0  0  0  0  0
   35.0220   25.1930   31.1010 C   0  0  0  0  0  0  0  0  0  0  0  0
   35.5670   23.9050   31.0320 C   0  0  0  0  0  0  0  0  0  0  0  0
   36.8970   23.9800   31.0440 N   0  0  0  0  0  0  0  0  0  0  0  0
   37.2320   25.2780   31.1180 N   0  0  0  0  0  0  0  0  0  0  0  0
   33.9680   25.4950   31.1120 H   0  0  0  0  0  0  0  0  0  0  0  0
   34.9590   22.9900   30.9780 H   0  0  0  0  0  0  0  0  0  0  0  0
   35.4220   29.5240   32.2860 C   0  0  0  0  0  0  0  0  0  0  0  0
   35.4370   28.1350   32.2580 C   0  0  0  0  0  0  0  0  0  0  0  0
   36.0550   27.4570   31.2310 C   0  0  0  0  0  0  0  0  0  0  0  0
   36.6420   28.2080   30.2620 N   0  0  0  0  0  0  0  0  0  0  0  0
   36.6140   29.5730   30.3110 C   0  0  0  0  0  0  0  0  0  0  0  0
   36.0190   30.2190   31.2990 N   0  0  0  0  0  0  0  0  0  0  0  0
   34.9780   27.5000   33.0160 H   0  0  0  0  0  0  0  0  0  0  0  0
   37.0940   30.1420   29.5170 H   0  0  0  0  0  0  0  0  0  0  0  0
   34.7560   30.0430   33.3910 O   0  0  0  0  0  0  0  0  0  0  0  0
   35.4220   30.5440   34.5330 C   0  0  0  0  0  0  0  0  0  0  0  0
   36.0780   31.7290   34.2740 F   0  0  0  0  0  0  0  0  0  0  0  0
   36.2840   29.5800   34.9970 F   0  0  0  0  0  0  0  0  0  0  0  0
   34.4800   30.7450   35.5280 F   0  0  0  0  0  0  0  0  0  0  0  0
   37.8250   22.9180   33.3090 O   0  0  0  0  0  0  0  0  0  0  0  0
   38.4930   21.3700   37.3640 H   0  0  0  0  0  0  0  0  0  0  0  0
   38.4000   22.2070   36.7480 N   0  0  0  0  0  0  0  0  0  0  0  0
   38.1710   22.1110   35.4060 C   0  0  0  0  0  3  0  0  0  0  0  0
   38.0500   23.2570   34.6080 C   0  0  0  0  0  0  0  0  0  0  0  0
   38.1760   24.4740   35.2490 C   0  0  0  0  0  0  0  0  0  0  0  0
   38.0530   25.4390   34.4530 O   0  0  0  0  0  0  0  0  0  0  0  0
   38.4020   24.5250   36.5740 N   0  0  0  0  0  0  0  0  0  0  0  0
   38.5130   23.4180   37.3160 C   0  0  0  0  0  0  0  0  0  0  0  0
   38.7280   23.5790   38.5660 O   0  0  0  0  0  0  0  0  0  0  0  0
   38.4810   25.4850   36.9670 H   0  0  0  0  0  0  0  0  0  0  0  0
  1  6  1  6  0  0  0
  1 32  1  0  0  0  0
  2  7  1  6  0  0  0
  2 15  1  0  0  0  0
  2  3  1  0  0  0  0
  2  1  1  0  0  0  0
  3  8  1  0  0  0  0
  3  4  1  0  0  0  0
  4  5  1  0  0  0  0
  5  1  1  0  0  0  0
  5 11  1  0  0  0  0
  9  3  1  0  0  0  0
 10  5  1  0  0  0  0
 12 21  1  0  0  0  0
 13 17  1  0  0  0  0
 13 12  1  0  0  0  0
 14 15  1  0  0  0  0
 14 13  2  0  0  0  0
 15 16  1  0  0  0  0
 16 12  2  0  0  0  0
 18 14  1  0  0  0  0
 19 27  1  0  0  0  0
 20 19  1  0  0  0  0
 20 25  1  0  0  0  0
 21 20  2  0  0  0  0
 22 23  2  0  0  0  0
 22 21  1  0  0  0  0
 23 24  1  0  0  0  0
 24 19  2  0  0  0  0
 26 23  1  0  0  0  0
 27 28  1  0  0  0  0
 28 30  1  0  0  0  0
 28 31  1  0  0  0  0
 29 28  1  0  0  0  0
 32 36  1  0  0  0  0
 34 40  1  0  0  0  0
 34 33  1  0  0  0  0
 35 34  1  0  0  0  0
 36 37  1  0  0  0  0
 36 35  2  0  0  0  0
 37 39  1  0  0  0  0
 38 37  2  0  0  0  0
 39 42  1  0  0  0  0
 39 40  1  0  0  0  0
 40 41  2  0  0  0  0
M  END
>  <minimizedAffinity>
-6.22119236

$$$$

 OpenBabel03272503433D

 42 45  0  0  1  0  0  0  0  0999 V2000
   38.7490   26.2470   30.8160 C   0  0  2  0  0  0  0  0  0  0  0  0
   38.8160   27.3710   31.8690 C   0  0  1  0  0  0  0  0  0  0  0  0
   37.9030   28.3580   31.2260 C   0  0  0  0  0  0  0  0  0  0  0  0
   38.0630   28.2560   29.8650 O   0  0  0  0  0  0  0  0  0  0  0  0
   38.8050   27.1530   29.5720 C   0  0  0  0  0  0  0  0  0  0  0  0
   39.6200   25.5990   30.8730 H   0  0  0  0  0  0  0  0  0  0  0  0
   39.8300   27.7790   31.9520 H   0  0  0  0  0  0  0  0  0  0  0  0
   36.8530   28.3210   31.5630 H   0  0  0  0  0  0  0  0  0  0  0  0
   38.2800   29.3790   31.5150 H   0  0  0  0  0  0  0  0  0  0  0  0
   39.8850   27.4240   29.4710 H   0  0  0  0  0  0  0  0  0  0  0  0
   38.5140   26.5880   28.6700 H   0  0  0  0  0  0  0  0  0  0  0  0
   38.1480   25.8180   35.0320 C   0  0  0  0  0  0  0  0  0  0  0  0
   37.1180   26.6930   34.9970 C   0  0  0  0  0  0  0  0  0  0  0  0
   37.2810   27.3670   33.7820 C   0  0  0  0  0  0  0  0  0  0  0  0
   38.3560   26.8980   33.1500 N   0  0  0  0  0  0  0  0  0  0  0  0
   38.8960   25.9390   33.9190 N   0  0  0  0  0  0  0  0  0  0  0  0
   36.3420   26.8270   35.7600 H   0  0  0  0  0  0  0  0  0  0  0  0
   36.6040   28.1600   33.4310 H   0  0  0  0  0  0  0  0  0  0  0  0
   39.4260   22.8920   37.0130 C   0  0  0  0  0  0  0  0  0  0  0  0
   39.2010   23.7580   35.9500 C   0  0  0  0  0  0  0  0  0  0  0  0
   38.4170   24.8790   36.1080 C   0  0  0  0  0  0  0  0  0  0  0  0
   37.8830   25.0890   37.3400 N   0  0  0  0  0  0  0  0  0  0  0  0
   38.1180   24.2240   38.3700 C   0  0  0  0  0  0  0  0  0  0  0  0
   38.8720   23.1480   38.2130 N   0  0  0  0  0  0  0  0  0  0  0  0
   39.6110   23.6230   34.9500 H   0  0  0  0  0  0  0  0  0  0  0  0
   37.6740   24.4230   39.3430 H   0  0  0  0  0  0  0  0  0  0  0  0
   40.2380   21.8140   36.6780 O   0  0  0  0  0  0  0  0  0  0  0  0
   41.6120   21.7470   37.0070 C   0  0  0  0  0  0  0  0  0  0  0  0
   41.8510   20.9050   38.0720 F   0  0  0  0  0  0  0  0  0  0  0  0
   42.0660   23.0200   37.2570 F   0  0  0  0  0  0  0  0  0  0  0  0
   42.2990   21.2930   35.8930 F   0  0  0  0  0  0  0  0  0  0  0  0
   37.5010   25.7020   30.9230 O   0  0  0  0  0  0  0  0  0  0  0  0
   38.7290   21.4890   30.7470 H   0  0  0  0  0  0  0  0  0  0  0  0
   37.9500   22.1720   30.8700 N   0  0  0  0  0  0  0  0  0  0  0  0
   38.1420   23.5230   30.8310 C   0  0  0  0  0  3  0  0  0  0  0  0
   37.0720   24.4120   30.9990 C   0  0  0  0  0  0  0  0  0  0  0  0
   35.8270   23.8510   31.2030 C   0  0  0  0  0  0  0  0  0  0  0  0
   34.9340   24.7260   31.3420 O   0  0  0  0  0  0  0  0  0  0  0  0
   35.6800   22.5140   31.2340 N   0  0  0  0  0  0  0  0  0  0  0  0
   36.7160   21.6840   31.0710 C   0  0  0  0  0  0  0  0  0  0  0  0
   36.4660   20.4310   31.1180 O   0  0  0  0  0  0  0  0  0  0  0  0
   34.7060   22.1860   31.3920 H   0  0  0  0  0  0  0  0  0  0  0  0
  1  6  1  1  0  0  0
  1 32  1  0  0  0  0
  1  2  1  0  0  0  0
  2  7  1  1  0  0  0
  2 15  1  0  0  0  0
  3  9  1  0  0  0  0
  3  8  1  0  0  0  0
  3  2  1  0  0  0  0
  4  3  1  0  0  0  0
  5  4  1  0  0  0  0
  5  1  1  0  0  0  0
 10  5  1  0  0  0  0
 11  5  1  0  0  0  0
 12 21  1  0  0  0  0
 13 12  1  0  0  0  0
 13 17  1  0  0  0  0
 14 13  2  0  0  0  0
 15 14  1  0  0  0  0
 15 16  1  0  0  0  0
 16 12  2  0  0  0  0
 18 14  1  0  0  0  0
 19 24  1  0  0  0  0
 20 21  1  0  0  0  0
 20 19  2  0  0  0  0
 21 22  2  0  0  0  0
 22 23  1  0  0  0  0
 23 26  1  0  0  0  0
 24 23  2  0  0  0  0
 25 20  1  0  0  0  0
 27 28  1  0  0  0  0
 27 19  1  0  0  0  0
 28 30  1  0  0  0  0
 28 29  1  0  0  0  0
 31 28  1  0  0  0  0
 32 36  1  0  0  0  0
 33 34  1  0  0  0  0
 34 40  1  0  0  0  0
 35 34  1  0  0  0  0
 35 36  2  0  0  0  0
 36 37  1  0  0  0  0
 37 39  1  0  0  0  0
 37 38  2  0  0  0  0
 39 42  1  0  0  0  0
 40 41  2  0  0  0  0
 40 39  1  0  0  0  0
M  END
>  <minimizedAffinity>
-6.10833073

$$$$

 OpenBabel03272503433D

 42 45  0  0  1  0  0  0  0  0999 V2000
   34.7470   29.1990   31.9880 C   0  0  2  0  0  0  0  0  0  0  0  0
   35.9260   28.6220   31.1800 C   0  0  1  0  0  0  0  0  0  0  0  0
   36.8860   29.7560   31.3120 C   0  0  0  0  0  0  0  0  0  0  0  0
   36.1610   30.9220   31.3230 O   0  0  0  0  0  0  0  0  0  0  0  0
   34.8360   30.6380   31.4460 C   0  0  0  0  0  0  0  0  0  0  0  0
   33.8080   28.7280   31.7090 H   0  0  0  0  0  0  0  0  0  0  0  0
   35.6520   28.4680   30.1300 H   0  0  0  0  0  0  0  0  0  0  0  0
   37.6130   29.6650   32.1370 H   0  0  0  0  0  0  0  0  0  0  0  0
   37.4980   29.7690   30.3670 H   0  0  0  0  0  0  0  0  0  0  0  0
   34.3510   30.5880   30.4390 H   0  0  0  0  0  0  0  0  0  0  0  0
   34.2390   31.3240   32.0720 H   0  0  0  0  0  0  0  0  0  0  0  0
   37.4760   25.9130   32.9450 C   0  0  0  0  0  0  0  0  0  0  0  0
   36.5710   25.2130   32.2260 C   0  0  0  0  0  0  0  0  0  0  0  0
   35.8940   26.1890   31.4840 C   0  0  0  0  0  0  0  0  0  0  0  0
   36.3920   27.3920   31.7670 N   0  0  0  0  0  0  0  0  0  0  0  0
   37.3710   27.2270   32.6700 N   0  0  0  0  0  0  0  0  0  0  0  0
   36.4180   24.1280   32.2360 H   0  0  0  0  0  0  0  0  0  0  0  0
   35.0790   25.9610   30.7820 H   0  0  0  0  0  0  0  0  0  0  0  0
   39.0140   23.9920   35.7850 C   0  0  0  0  0  0  0  0  0  0  0  0
   38.0620   24.5130   34.9190 C   0  0  0  0  0  0  0  0  0  0  0  0
   38.4300   25.3400   33.8810 C   0  0  0  0  0  0  0  0  0  0  0  0
   39.7550   25.6150   33.7520 N   0  0  0  0  0  0  0  0  0  0  0  0
   40.6730   25.0910   34.6170 C   0  0  0  0  0  0  0  0  0  0  0  0
   40.3150   24.2970   35.6110 N   0  0  0  0  0  0  0  0  0  0  0  0
   36.9930   24.3150   34.9890 H   0  0  0  0  0  0  0  0  0  0  0  0
   41.7260   25.3340   34.4840 H   0  0  0  0  0  0  0  0  0  0  0  0
   38.4700   23.1780   36.7730 O   0  0  0  0  0  0  0  0  0  0  0  0
   38.3280   23.5840   38.1200 C   0  0  0  0  0  0  0  0  0  0  0  0
   37.3300   22.8880   38.7690 F   0  0  0  0  0  0  0  0  0  0  0  0
   38.1010   24.9390   38.1490 F   0  0  0  0  0  0  0  0  0  0  0  0
   39.5360   23.3710   38.7640 F   0  0  0  0  0  0  0  0  0  0  0  0
   35.1400   29.1840   33.2960 O   0  0  0  0  0  0  0  0  0  0  0  0
   36.7050   31.9430   36.3330 H   0  0  0  0  0  0  0  0  0  0  0  0
   35.8720   31.4570   35.9340 N   0  0  0  0  0  0  0  0  0  0  0  0
   35.9550   30.6120   34.8660 C   0  0  0  0  0  3  0  0  0  0  0  0
   34.8160   29.9750   34.3560 C   0  0  0  0  0  0  0  0  0  0  0  0
   33.6180   30.2490   34.9870 C   0  0  0  0  0  0  0  0  0  0  0  0
   32.6570   29.6340   34.4590 O   0  0  0  0  0  0  0  0  0  0  0  0
   33.5790   31.0890   36.0370 N   0  0  0  0  0  0  0  0  0  0  0  0
   34.6800   31.6850   36.5080 C   0  0  0  0  0  0  0  0  0  0  0  0
   34.5320   32.4640   37.5100 O   0  0  0  0  0  0  0  0  0  0  0  0
   32.6340   31.2320   36.4460 H   0  0  0  0  0  0  0  0  0  0  0  0
  1  6  1  6  0  0  0
  1 32  1  0  0  0  0
  2  7  1  6  0  0  0
  2  3  1  0  0  0  0
  2 15  1  0  0  0  0
  2  1  1  0  0  0  0
  3  4  1  0  0  0  0
  3  8  1  0  0  0  0
  4  5  1  0  0  0  0
  5  1  1  0  0  0  0
  5 11  1  0  0  0  0
  9  3  1  0  0  0  0
 10  5  1  0  0  0  0
 12 21  1  0  0  0  0
 13 17  1  0  0  0  0
 13 12  1  0  0  0  0
 14 15  1  0  0  0  0
 14 13  2  0  0  0  0
 15 16  1  0  0  0  0
 16 12  2  0  0  0  0
 18 14  1  0  0  0  0
 19 27  1  0  0  0  0
 20 25  1  0  0  0  0
 20 19  2  0  0  0  0
 21 20  1  0  0  0  0
 22 21  2  0  0  0  0
 22 23  1  0  0  0  0
 23 24  2  0  0  0  0
 24 19  1  0  0  0  0
 26 23  1  0  0  0  0
 27 28  1  0  0  0  0
 28 30  1  0  0  0  0
 28 31  1  0  0  0  0
 28 29  1  0  0  0  0
 32 36  1  0  0  0  0
 34 33  1  0  0  0  0
 34 40  1  0  0  0  0
 35 34  1  0  0  0  0
 36 35  2  0  0  0  0
 36 37  1  0  0  0  0
 37 39  1  0  0  0  0
 38 37  2  0  0  0  0
 39 42  1  0  0  0  0
 39 40  1  0  0  0  0
 40 41  2  0  0  0  0
M  END
>  <minimizedAffinity>
-5.98582792

$$$$

 OpenBabel03272503433D

 42 45  0  0  1  0  0  0  0  0999 V2000
   39.6890   23.7750   35.2520 C   0  0  2  0  0  0  0  0  0  0  0  0
   38.1580   23.9510   35.2150 C   0  0  1  0  0  0  0  0  0  0  0  0
   37.9250   24.3280   36.6390 C   0  0  0  0  0  0  0  0  0  0  0  0
   38.8310   23.6430   37.4110 O   0  0  0  0  0  0  0  0  0  0  0  0
   39.7620   23.0530   36.6100 C   0  0  0  0  0  0  0  0  0  0  0  0
   40.0330   23.1350   34.4440 H   0  0  0  0  0  0  0  0  0  0  0  0
   37.6550   23.0070   34.9790 H   0  0  0  0  0  0  0  0  0  0  0  0
   37.8850   25.4120   36.8410 H   0  0  0  0  0  0  0  0  0  0  0  0
   36.9080   23.9300   36.9140 H   0  0  0  0  0  0  0  0  0  0  0  0
   39.4690   21.9980   36.3820 H   0  0  0  0  0  0  0  0  0  0  0  0
   40.8000   23.0410   36.9860 H   0  0  0  0  0  0  0  0  0  0  0  0
   37.0850   26.8250   33.3600 C   0  0  0  0  0  0  0  0  0  0  0  0
   37.4330   26.0210   32.3310 C   0  0  0  0  0  0  0  0  0  0  0  0
   37.8770   24.8460   32.9500 C   0  0  0  0  0  0  0  0  0  0  0  0
   37.7840   24.9740   34.2720 N   0  0  0  0  0  0  0  0  0  0  0  0
   37.2950   26.1970   34.5310 N   0  0  0  0  0  0  0  0  0  0  0  0
   37.3740   26.2560   31.2620 H   0  0  0  0  0  0  0  0  0  0  0  0
   38.2400   23.9680   32.3960 H   0  0  0  0  0  0  0  0  0  0  0  0
   35.4340   30.1240   34.0800 C   0  0  0  0  0  0  0  0  0  0  0  0
   35.9200   28.8340   34.2570 C   0  0  0  0  0  0  0  0  0  0  0  0
   36.5570   28.1740   33.2300 C   0  0  0  0  0  0  0  0  0  0  0  0
   36.6830   28.8410   32.0530 N   0  0  0  0  0  0  0  0  0  0  0  0
   36.1970   30.1080   31.9020 C   0  0  0  0  0  0  0  0  0  0  0  0
   35.5860   30.7380   32.8900 N   0  0  0  0  0  0  0  0  0  0  0  0
   35.8380   28.2690   35.1850 H   0  0  0  0  0  0  0  0  0  0  0  0
   36.3150   30.6110   30.9440 H   0  0  0  0  0  0  0  0  0  0  0  0
   34.8200   30.6390   35.2160 O   0  0  0  0  0  0  0  0  0  0  0  0
   35.3420   31.7250   35.9550 C   0  0  0  0  0  0  0  0  0  0  0  0
   35.0350   32.9400   35.3810 F   0  0  0  0  0  0  0  0  0  0  0  0
   36.7000   31.5550   36.0830 F   0  0  0  0  0  0  0  0  0  0  0  0
   34.8140   31.6700   37.2340 F   0  0  0  0  0  0  0  0  0  0  0  0
   40.2110   25.0310   35.3790 O   0  0  0  0  0  0  0  0  0  0  0  0
   41.6790   28.3100   32.8520 H   0  0  0  0  0  0  0  0  0  0  0  0
   41.9150   27.4770   33.4360 N   0  0  0  0  0  0  0  0  0  0  0  0
   40.9660   26.7300   34.0710 C   0  0  0  0  0  3  0  0  0  0  0  0
   41.3190   25.6170   34.8450 C   0  0  0  0  0  0  0  0  0  0  0  0
   42.6650   25.3220   34.9290 C   0  0  0  0  0  0  0  0  0  0  0  0
   42.8810   24.3100   35.6440 O   0  0  0  0  0  0  0  0  0  0  0  0
   43.5700   26.0840   34.2880 N   0  0  0  0  0  0  0  0  0  0  0  0
   43.2100   27.1420   33.5530 C   0  0  0  0  0  0  0  0  0  0  0  0
   44.1490   27.7980   32.9860 O   0  0  0  0  0  0  0  0  0  0  0  0
   44.5580   25.7840   34.4100 H   0  0  0  0  0  0  0  0  0  0  0  0
  1  6  1  6  0  0  0
  1 32  1  0  0  0  0
  1  5  1  0  0  0  0
  2  7  1  6  0  0  0
  2  1  1  0  0  0  0
  2  3  1  0  0  0  0
  3  8  1  0  0  0  0
  3  9  1  0  0  0  0
  3  4  1  0  0  0  0
  5 11  1  0  0  0  0
  5  4  1  0  0  0  0
 10  5  1  0  0  0  0
 12 16  2  0  0  0  0
 13 14  2  0  0  0  0
 13 12  1  0  0  0  0
 14 15  1  0  0  0  0
 15 16  1  0  0  0  0
 15  2  1  0  0  0  0
 17 13  1  0  0  0  0
 18 14  1  0  0  0  0
 19 20  1  0  0  0  0
 19 27  1  0  0  0  0
 20 25  1  0  0  0  0
 21 12  1  0  0  0  0
 21 20  2  0  0  0  0
 22 21  1  0  0  0  0
 23 22  2  0  0  0  0
 23 24  1  0  0  0  0
 24 19  2  0  0  0  0
 26 23  1  0  0  0  0
 27 28  1  0  0  0  0
 28 30  1  0  0  0  0
 28 31  1  0  0  0  0
 29 28  1  0  0  0  0
 33 34  1  0  0  0  0
 34 40  1  0  0  0  0
 34 35  1  0  0  0  0
 35 36  2  0  0  0  0
 36 37  1  0  0  0  0
 36 32  1  0  0  0  0
 37 38  2  0  0  0  0
 39 42  1  0  0  0  0
 39 37  1  0  0  0  0
 40 39  1  0  0  0  0
 41 40  2  0  0  0  0
M  END
>  <minimizedAffinity>
-5.93148375

$$$$

 OpenBabel03272503433D

 42 45  0  0  1  0  0  0  0  0999 V2000
   33.6900   31.7310   33.9880 C   0  0  2  0  0  0  0  0  0  0  0  0
   35.0200   31.6130   33.2180 C   0  0  1  0  0  0  0  0  0  0  0  0
   35.9190   32.3110   34.1820 C   0  0  0  0  0  0  0  0  0  0  0  0
   35.1980   33.3160   34.7790 O   0  0  0  0  0  0  0  0  0  0  0  0
   33.8800   33.1820   34.4680 C   0  0  0  0  0  0  0  0  0  0  0  0
   32.8370   31.6430   33.3210 H   0  0  0  0  0  0  0  0  0  0  0  0
   34.9780   32.1560   32.2670 H   0  0  0  0  0  0  0  0  0  0  0  0
   36.4540   31.6540   34.8900 H   0  0  0  0  0  0  0  0  0  0  0  0
   36.7190   32.8130   33.5690 H   0  0  0  0  0  0  0  0  0  0  0  0
   33.6220   33.8070   33.5770 H   0  0  0  0  0  0  0  0  0  0  0  0
   33.1570   33.4210   35.2670 H   0  0  0  0  0  0  0  0  0  0  0  0
   36.2200   28.2350   33.1620 C   0  0  0  0  0  0  0  0  0  0  0  0
   35.4110   28.1960   32.0800 C   0  0  0  0  0  0  0  0  0  0  0  0
   34.8770   29.4880   32.0040 C   0  0  0  0  0  0  0  0  0  0  0  0
   35.3610   30.2310   32.9970 N   0  0  0  0  0  0  0  0  0  0  0  0
   36.1930   29.4610   33.7170 N   0  0  0  0  0  0  0  0  0  0  0  0
   35.2290   27.3360   31.4240 H   0  0  0  0  0  0  0  0  0  0  0  0
   34.1680   29.8070   31.2270 H   0  0  0  0  0  0  0  0  0  0  0  0
   37.9940   25.8150   35.4240 C   0  0  0  0  0  0  0  0  0  0  0  0
   37.2290   26.8950   35.0010 C   0  0  0  0  0  0  0  0  0  0  0  0
   37.0100   27.1220   33.6600 C   0  0  0  0  0  0  0  0  0  0  0  0
   37.5740   26.2450   32.7870 N   0  0  0  0  0  0  0  0  0  0  0  0
   38.3220   25.1900   33.2260 C   0  0  0  0  0  0  0  0  0  0  0  0
   38.5290   24.9770   34.5150 N   0  0  0  0  0  0  0  0  0  0  0  0
   36.7620   27.6170   35.6700 H   0  0  0  0  0  0  0  0  0  0  0  0
   38.7580   24.5100   32.4990 H   0  0  0  0  0  0  0  0  0  0  0  0
   38.1120   25.7360   36.8070 O   0  0  0  0  0  0  0  0  0  0  0  0
   38.0170   24.5220   37.5260 C   0  0  0  0  0  0  0  0  0  0  0  0
   36.9720   23.7380   37.0860 F   0  0  0  0  0  0  0  0  0  0  0  0
   37.9030   24.8130   38.8650 F   0  0  0  0  0  0  0  0  0  0  0  0
   39.2090   23.8340   37.3710 F   0  0  0  0  0  0  0  0  0  0  0  0
   33.7940   30.8850   35.0550 O   0  0  0  0  0  0  0  0  0  0  0  0
   31.0180   27.4850   35.2030 H   0  0  0  0  0  0  0  0  0  0  0  0
   31.4060   28.3240   35.6880 N   0  0  0  0  0  0  0  0  0  0  0  0
   32.3590   29.1230   35.1270 C   0  0  0  0  0  3  0  0  0  0  0  0
   32.8570   30.2430   35.8060 C   0  0  0  0  0  0  0  0  0  0  0  0
   32.3360   30.4880   37.0610 C   0  0  0  0  0  0  0  0  0  0  0  0
   32.8430   31.5110   37.5900 O   0  0  0  0  0  0  0  0  0  0  0  0
   31.3970   29.6760   37.5790 N   0  0  0  0  0  0  0  0  0  0  0  0
   30.9350   28.6130   36.9120 C   0  0  0  0  0  0  0  0  0  0  0  0
   30.0430   27.9070   37.4950 O   0  0  0  0  0  0  0  0  0  0  0  0
   31.0640   29.9410   38.5280 H   0  0  0  0  0  0  0  0  0  0  0  0
  1  6  1  6  0  0  0
  1  5  1  0  0  0  0
  1 32  1  0  0  0  0
  2  7  1  6  0  0  0
  2  1  1  0  0  0  0
  2  3  1  0  0  0  0
  3  4  1  0  0  0  0
  3  8  1  0  0  0  0
  5  4  1  0  0  0  0
  5 11  1  0  0  0  0
  9  3  1  0  0  0  0
 10  5  1  0  0  0  0
 12 21  1  0  0  0  0
 12 16  2  0  0  0  0
 13 12  1  0  0  0  0
 14 13  2  0  0  0  0
 14 15  1  0  0  0  0
 15  2  1  0  0  0  0
 15 16  1  0  0  0  0
 17 13  1  0  0  0  0
 18 14  1  0  0  0  0
 19 27  1  0  0  0  0
 20 19  1  0  0  0  0
 20 25  1  0  0  0  0
 21 20  2  0  0  0  0
 22 23  2  0  0  0  0
 22 21  1  0  0  0  0
 23 24  1  0  0  0  0
 24 19  2  0  0  0  0
 26 23  1  0  0  0  0
 27 28  1  0  0  0  0
 28 30  1  0  0  0  0
 29 28  1  0  0  0  0
 31 28  1  0  0  0  0
 32 36  1  0  0  0  0
 33 34  1  0  0  0  0
 34 40  1  0  0  0  0
 35 34  1  0  0  0  0
 35 36  2  0  0  0  0
 36 37  1  0  0  0  0
 37 39  1  0  0  0  0
 37 38  2  0  0  0  0
 39 42  1  0  0  0  0
 40 41  2  0  0  0  0
 40 39  1  0  0  0  0
M  END
>  <minimizedAffinity>
-5.85183191

$$$$

 OpenBabel03272503433D

 42 45  0  0  1  0  0  0  0  0999 V2000
   34.9810   28.6660   32.3280 C   0  0  2  0  0  0  0  0  0  0  0  0
   36.1860   28.3050   31.4380 C   0  0  1  0  0  0  0  0  0  0  0  0
   36.7640   29.6670   31.2510 C   0  0  0  0  0  0  0  0  0  0  0  0
   35.7240   30.5630   31.2050 O   0  0  0  0  0  0  0  0  0  0  0  0
   34.5690   29.9450   31.5750 C   0  0  0  0  0  0  0  0  0  0  0  0
   34.2060   27.9060   32.2710 H   0  0  0  0  0  0  0  0  0  0  0  0
   35.8610   27.8880   30.4780 H   0  0  0  0  0  0  0  0  0  0  0  0
   37.5680   29.9400   31.9560 H   0  0  0  0  0  0  0  0  0  0  0  0
   37.2380   29.6760   30.2290 H   0  0  0  0  0  0  0  0  0  0  0  0
   34.0180   29.5750   30.6750 H   0  0  0  0  0  0  0  0  0  0  0  0
   33.8630   30.5390   32.1810 H   0  0  0  0  0  0  0  0  0  0  0  0
   37.8740   25.6760   33.1990 C   0  0  0  0  0  0  0  0  0  0  0  0
   38.9220   26.5020   32.9850 C   0  0  0  0  0  0  0  0  0  0  0  0
   38.3700   27.5850   32.2900 C   0  0  0  0  0  0  0  0  0  0  0  0
   37.0640   27.3860   32.1160 N   0  0  0  0  0  0  0  0  0  0  0  0
   36.7520   26.2070   32.6760 N   0  0  0  0  0  0  0  0  0  0  0  0
   39.9620   26.3410   33.2950 H   0  0  0  0  0  0  0  0  0  0  0  0
   38.9550   28.4530   31.9540 H   0  0  0  0  0  0  0  0  0  0  0  0
   37.5180   22.0390   34.0720 C   0  0  0  0  0  0  0  0  0  0  0  0
   37.4310   23.2320   33.3660 C   0  0  0  0  0  0  0  0  0  0  0  0
   37.9380   24.4000   33.8920 C   0  0  0  0  0  0  0  0  0  0  0  0
   38.5180   24.3230   35.1190 N   0  0  0  0  0  0  0  0  0  0  0  0
   38.5910   23.1380   35.7940 C   0  0  0  0  0  0  0  0  0  0  0  0
   38.1040   22.0190   35.2850 N   0  0  0  0  0  0  0  0  0  0  0  0
   36.9740   23.3330   32.3820 H   0  0  0  0  0  0  0  0  0  0  0  0
   39.0620   23.1140   36.7740 H   0  0  0  0  0  0  0  0  0  0  0  0
   36.9570   20.9610   33.3950 O   0  0  0  0  0  0  0  0  0  0  0  0
   35.6510   20.4810   33.6480 C   0  0  0  0  0  0  0  0  0  0  0  0
   35.2640   20.6890   34.9550 F   0  0  0  0  0  0  0  0  0  0  0  0
   35.6000   19.1500   33.3120 F   0  0  0  0  0  0  0  0  0  0  0  0
   34.7780   21.1380   32.7960 F   0  0  0  0  0  0  0  0  0  0  0  0
   35.4970   29.0050   33.5460 O   0  0  0  0  0  0  0  0  0  0  0  0
   36.7020   32.2020   36.3060 H   0  0  0  0  0  0  0  0  0  0  0  0
   35.9320   31.5960   35.9450 N   0  0  0  0  0  0  0  0  0  0  0  0
   36.1260   30.6590   34.9720 C   0  0  0  0  0  3  0  0  0  0  0  0
   35.0690   29.8630   34.5130 C   0  0  0  0  0  0  0  0  0  0  0  0
   33.8340   30.0770   35.0920 C   0  0  0  0  0  0  0  0  0  0  0  0
   32.9520   29.3170   34.6150 O   0  0  0  0  0  0  0  0  0  0  0  0
   33.6840   31.0110   36.0490 N   0  0  0  0  0  0  0  0  0  0  0  0
   34.7080   31.7600   36.4730 C   0  0  0  0  0  0  0  0  0  0  0  0
   34.4570   32.6180   37.3860 O   0  0  0  0  0  0  0  0  0  0  0  0
   32.7190   31.0990   36.4260 H   0  0  0  0  0  0  0  0  0  0  0  0
  1  6  1  1  0  0  0
  1 32  1  0  0  0  0
  2  7  1  6  0  0  0
  2 15  1  0  0  0  0
  2  1  1  0  0  0  0
  3  2  1  0  0  0  0
  3  8  1  0  0  0  0
  4  3  1  0  0  0  0
  4  5  1  0  0  0  0
  5 11  1  0  0  0  0
  5  1  1  0  0  0  0
  9  3  1  0  0  0  0
 10  5  1  0  0  0  0
 12 21  1  0  0  0  0
 13 12  1  0  0  0  0
 13 17  1  0  0  0  0
 14 13  2  0  0  0  0
 15 14  1  0  0  0  0
 15 16  1  0  0  0  0
 16 12  2  0  0  0  0
 18 14  1  0  0  0  0
 19 24  1  0  0  0  0
 20 21  1  0  0  0  0
 20 19  2  0  0  0  0
 21 22  2  0  0  0  0
 22 23  1  0  0  0  0
 23 26  1  0  0  0  0
 24 23  2  0  0  0  0
 25 20  1  0  0  0  0
 27 28  1  0  0  0  0
 27 19  1  0  0  0  0
 28 29  1  0  0  0  0
 30 28  1  0  0  0  0
 31 28  1  0  0  0  0
 32 36  1  0  0  0  0
 34 33  1  0  0  0  0
 34 40  1  0  0  0  0
 35 34  1  0  0  0  0
 36 35  2  0  0  0  0
 36 37  1  0  0  0  0
 37 39  1  0  0  0  0
 38 37  2  0  0  0  0
 39 42  1  0  0  0  0
 39 40  1  0  0  0  0
 40 41  2  0  0  0  0
M  END
>  <minimizedAffinity>
-5.83386707

$$$$

 OpenBabel03272503433D

 42 45  0  0  1  0  0  0  0  0999 V2000
   38.6040   22.4890   32.4230 C   0  0  2  0  0  0  0  0  0  0  0  0
   37.7440   22.5670   31.1460 C   0  0  1  0  0  0  0  0  0  0  0  0
   36.9640   21.3060   31.3040 C   0  0  0  0  0  0  0  0  0  0  0  0
   37.7800   20.3770   31.9000 O   0  0  0  0  0  0  0  0  0  0  0  0
   38.9150   20.9820   32.3470 C   0  0  0  0  0  0  0  0  0  0  0  0
   39.5080   23.0850   32.3280 H   0  0  0  0  0  0  0  0  0  0  0  0
   38.3660   22.5260   30.2440 H   0  0  0  0  0  0  0  0  0  0  0  0
   35.9770   21.4190   31.7850 H   0  0  0  0  0  0  0  0  0  0  0  0
   36.7550   20.9270   30.2650 H   0  0  0  0  0  0  0  0  0  0  0  0
   39.7280   20.9020   31.5830 H   0  0  0  0  0  0  0  0  0  0  0  0
   39.3200   20.6230   33.3090 H   0  0  0  0  0  0  0  0  0  0  0  0
   36.2610   25.8310   31.1640 C   0  0  0  0  0  0  0  0  0  0  0  0
   35.1360   25.0820   31.1300 C   0  0  0  0  0  0  0  0  0  0  0  0
   35.6040   23.7630   31.1200 C   0  0  0  0  0  0  0  0  0  0  0  0
   36.9350   23.7590   31.1480 N   0  0  0  0  0  0  0  0  0  0  0  0
   37.3470   25.0360   31.1750 N   0  0  0  0  0  0  0  0  0  0  0  0
   34.1030   25.4470   31.1150 H   0  0  0  0  0  0  0  0  0  0  0  0
   34.9420   22.8840   31.0940 H   0  0  0  0  0  0  0  0  0  0  0  0
   37.2230   29.4100   30.5390 C   0  0  0  0  0  0  0  0  0  0  0  0
   37.2280   28.0220   30.4820 C   0  0  0  0  0  0  0  0  0  0  0  0
   36.3020   27.2840   31.1860 C   0  0  0  0  0  0  0  0  0  0  0  0
   35.3980   27.9770   31.9280 N   0  0  0  0  0  0  0  0  0  0  0  0
   35.4130   29.3420   31.9690 C   0  0  0  0  0  0  0  0  0  0  0  0
   36.3040   30.0460   31.2910 N   0  0  0  0  0  0  0  0  0  0  0  0
   37.9360   27.4330   29.9000 H   0  0  0  0  0  0  0  0  0  0  0  0
   34.6740   29.8630   32.5740 H   0  0  0  0  0  0  0  0  0  0  0  0
   38.2240   29.9930   29.7710 O   0  0  0  0  0  0  0  0  0  0  0  0
   38.0330   30.4050   28.4310 C   0  0  0  0  0  0  0  0  0  0  0  0
   36.8470   31.0870   28.2620 F   0  0  0  0  0  0  0  0  0  0  0  0
   38.1010   29.2990   27.6180 F   0  0  0  0  0  0  0  0  0  0  0  0
   39.0930   31.2230   28.0760 F   0  0  0  0  0  0  0  0  0  0  0  0
   37.7550   22.7230   33.4660 O   0  0  0  0  0  0  0  0  0  0  0  0
   37.9980   21.5360   37.6880 H   0  0  0  0  0  0  0  0  0  0  0  0
   38.0610   22.3070   36.9870 N   0  0  0  0  0  0  0  0  0  0  0  0
   37.8800   22.1030   35.6500 C   0  0  0  0  0  3  0  0  0  0  0  0
   37.9700   23.1630   34.7370 C   0  0  0  0  0  0  0  0  0  0  0  0
   38.2480   24.4100   35.2610 C   0  0  0  0  0  0  0  0  0  0  0  0
   38.3090   25.2920   34.3670 O   0  0  0  0  0  0  0  0  0  0  0  0
   38.4200   24.5690   36.5860 N   0  0  0  0  0  0  0  0  0  0  0  0
   38.3290   23.5430   37.4390 C   0  0  0  0  0  0  0  0  0  0  0  0
   38.5080   23.8030   38.6770 O   0  0  0  0  0  0  0  0  0  0  0  0
   38.6240   25.5430   36.8860 H   0  0  0  0  0  0  0  0  0  0  0  0
  1  6  1  6  0  0  0
  1 32  1  0  0  0  0
  2  7  1  6  0  0  0
  2 15  1  0  0  0  0
  2  3  1  0  0  0  0
  2  1  1  0  0  0  0
  3  8  1  0  0  0  0
  3  4  1  0  0  0  0
  4  5  1  0  0  0  0
  5  1  1  0  0  0  0
  5 11  1  0  0  0  0
  9  3  1  0  0  0  0
 10  5  1  0  0  0  0
 12 16  2  0  0  0  0
 12 21  1  0  0  0  0
 13 12  1  0  0  0  0
 14 13  2  0  0  0  0
 14 15  1  0  0  0  0
 15 16  1  0  0  0  0
 17 13  1  0  0  0  0
 18 14  1  0  0  0  0
 19 24  1  0  0  0  0
 20 19  2  0  0  0  0
 20 21  1  0  0  0  0
 21 22  2  0  0  0  0
 22 23  1  0  0  0  0
 23 26  1  0  0  0  0
 24 23  2  0  0  0  0
 25 20  1  0  0  0  0
 27 19  1  0  0  0  0
 28 27  1  0  0  0  0
 29 28  1  0  0  0  0
 30 28  1  0  0  0  0
 31 28  1  0  0  0  0
 32 36  1  0  0  0  0
 34 40  1  0  0  0  0
 34 33  1  0  0  0  0
 35 34  1  0  0  0  0
 36 37  1  0  0  0  0
 36 35  2  0  0  0  0
 37 39  1  0  0  0  0
 38 37  2  0  0  0  0
 39 42  1  0  0  0  0
 39 40  1  0  0  0  0
 40 41  2  0  0  0  0
M  END
>  <minimizedAffinity>
-5.73419476

$$$$

 OpenBabel03272503433D

 42 45  0  0  1  0  0  0  0  0999 V2000
   37.4360   28.0730   30.0030 C   0  0  2  0  0  0  0  0  0  0  0  0
   38.8080   27.3730   29.9670 C   0  0  1  0  0  0  0  0  0  0  0  0
   39.6690   28.5460   29.6430 C   0  0  0  0  0  0  0  0  0  0  0  0
   38.9530   29.3790   28.8180 O   0  0  0  0  0  0  0  0  0  0  0  0
   37.6540   28.9750   28.7740 C   0  0  0  0  0  0  0  0  0  0  0  0
   36.6270   27.3660   29.8370 H   0  0  0  0  0  0  0  0  0  0  0  0
   38.8540   26.6270   29.1640 H   0  0  0  0  0  0  0  0  0  0  0  0
   40.1270   29.0510   30.5110 H   0  0  0  0  0  0  0  0  0  0  0  0
   40.5290   28.1540   29.0310 H   0  0  0  0  0  0  0  0  0  0  0  0
   37.4840   28.3010   27.8980 H   0  0  0  0  0  0  0  0  0  0  0  0
   36.8900   29.7710   28.7390 H   0  0  0  0  0  0  0  0  0  0  0  0
   39.1100   25.4620   32.9860 C   0  0  0  0  0  0  0  0  0  0  0  0
   40.0640   26.3900   33.2210 C   0  0  0  0  0  0  0  0  0  0  0  0
   40.0350   27.2060   32.0840 C   0  0  0  0  0  0  0  0  0  0  0  0
   39.1050   26.7650   31.2390 N   0  0  0  0  0  0  0  0  0  0  0  0
   38.5290   25.6850   31.7920 N   0  0  0  0  0  0  0  0  0  0  0  0
   40.7040   26.4660   34.1070 H   0  0  0  0  0  0  0  0  0  0  0  0
   40.6950   28.0740   31.9420 H   0  0  0  0  0  0  0  0  0  0  0  0
   37.9100   23.5110   35.9650 C   0  0  0  0  0  0  0  0  0  0  0  0
   38.2340   24.5830   35.1450 C   0  0  0  0  0  0  0  0  0  0  0  0
   38.7530   24.3770   33.8860 C   0  0  0  0  0  0  0  0  0  0  0  0
   38.9290   23.0870   33.4960 N   0  0  0  0  0  0  0  0  0  0  0  0
   38.6040   22.0480   34.3200 C   0  0  0  0  0  0  0  0  0  0  0  0
   38.1060   22.2510   35.5280 N   0  0  0  0  0  0  0  0  0  0  0  0
   38.1060   25.6300   35.4210 H   0  0  0  0  0  0  0  0  0  0  0  0
   38.7590   21.0280   33.9750 H   0  0  0  0  0  0  0  0  0  0  0  0
   37.3990   23.8990   37.1990 O   0  0  0  0  0  0  0  0  0  0  0  0
   38.0820   23.6960   38.4200 C   0  0  0  0  0  0  0  0  0  0  0  0
   37.5290   22.6730   39.1610 F   0  0  0  0  0  0  0  0  0  0  0  0
   38.0910   24.8790   39.1200 F   0  0  0  0  0  0  0  0  0  0  0  0
   39.4030   23.3970   38.1310 F   0  0  0  0  0  0  0  0  0  0  0  0
   37.4320   28.8410   31.1320 O   0  0  0  0  0  0  0  0  0  0  0  0
   35.6920   28.1090   35.0980 H   0  0  0  0  0  0  0  0  0  0  0  0
   35.6420   28.6410   34.2020 N   0  0  0  0  0  0  0  0  0  0  0  0
   36.5360   28.4580   33.1860 C   0  0  0  0  0  3  0  0  0  0  0  0
   36.4380   29.1900   31.9950 C   0  0  0  0  0  0  0  0  0  0  0  0
   35.4000   30.0960   31.9080 C   0  0  0  0  0  0  0  0  0  0  0  0
   35.3960   30.7020   30.8060 O   0  0  0  0  0  0  0  0  0  0  0  0
   34.5410   30.2470   32.9320 N   0  0  0  0  0  0  0  0  0  0  0  0
   34.6520   29.5370   34.0600 C   0  0  0  0  0  0  0  0  0  0  0  0
   33.7830   29.7580   34.9710 O   0  0  0  0  0  0  0  0  0  0  0  0
   33.7920   30.9520   32.7740 H   0  0  0  0  0  0  0  0  0  0  0  0
  1  6  1  6  0  0  0
  1 32  1  0  0  0  0
  2  7  1  6  0  0  0
  2  1  1  0  0  0  0
  2 15  1  0  0  0  0
  3  2  1  0  0  0  0
  3  8  1  0  0  0  0
  4  3  1  0  0  0  0
  5  4  1  0  0  0  0
  5  1  1  0  0  0  0
  9  3  1  0  0  0  0
 10  5  1  0  0  0  0
 11  5  1  0  0  0  0
 12 13  1  0  0  0  0
 12 21  1  0  0  0  0
 13 17  1  0  0  0  0
 14 13  2  0  0  0  0
 15 16  1  0  0  0  0
 15 14  1  0  0  0  0
 16 12  2  0  0  0  0
 18 14  1  0  0  0  0
 19 27  1  0  0  0  0
 20 25  1  0  0  0  0
 20 19  2  0  0  0  0
 21 20  1  0  0  0  0
 22 21  2  0  0  0  0
 22 23  1  0  0  0  0
 23 24  2  0  0  0  0
 24 19  1  0  0  0  0
 26 23  1  0  0  0  0
 27 28  1  0  0  0  0
 28 30  1  0  0  0  0
 28 29  1  0  0  0  0
 31 28  1  0  0  0  0
 32 36  1  0  0  0  0
 34 33  1  0  0  0  0
 35 34  1  0  0  0  0
 36 35  2  0  0  0  0
 37 36  1  0  0  0  0
 37 39  1  0  0  0  0
 38 37  2  0  0  0  0
 39 40  1  0  0  0  0
 40 34  1  0  0  0  0
 40 41  2  0  0  0  0
 42 39  1  0  0  0  0
M  END
>  <minimizedAffinity>
-5.73287821

$$$$
