
 OpenBabel03272505093D

 30 32  0  0  0  0  0  0  0  0999 V2000
   36.4130   30.9500   45.7370 Cl  0  0  0  0  0  0  0  0  0  0  0  0
   36.7420   30.8300   47.4480 C   0  0  0  0  0  0  0  0  0  0  0  0
   38.0110   31.1380   47.8560 C   0  0  0  0  0  0  0  0  0  0  0  0
   38.2990   31.0490   49.2210 C   0  0  0  0  0  0  0  0  0  0  0  0
   37.3150   30.6610   50.0980 C   0  0  0  0  0  0  0  0  0  0  0  0
   36.0530   30.3670   49.6070 C   0  0  0  0  0  0  0  0  0  0  0  0
   35.7080   30.4350   48.2780 C   0  0  0  0  0  0  0  0  0  0  0  0
   39.2940   31.2860   49.5690 H   0  0  0  0  0  0  0  0  0  0  0  0
   37.5300   30.5910   51.1550 H   0  0  0  0  0  0  0  0  0  0  0  0
   35.2840   30.0610   50.3180 H   0  0  0  0  0  0  0  0  0  0  0  0
   40.2510   33.3020   45.9380 C   0  0  0  0  0  0  0  0  0  0  0  0
   40.9410   32.4190   45.0940 C   0  0  0  0  0  0  0  0  0  0  0  0
   40.6150   31.0720   45.2050 C   0  0  0  0  0  0  0  0  0  0  0  0
   39.6650   30.6770   46.1050 N   0  0  0  0  0  0  0  0  0  0  0  0
   39.0350   31.5470   46.8850 C   0  0  0  0  0  0  0  0  0  0  0  0
   39.3330   32.8570   46.7950 N   0  0  0  0  0  0  0  0  0  0  0  0
   40.4330   34.3650   45.9260 H   0  0  0  0  0  0  0  0  0  0  0  0
   41.6790   32.8200   44.4120 H   0  0  0  0  0  0  0  0  0  0  0  0
   41.1230   30.3760   44.5770 H   0  0  0  0  0  0  0  0  0  0  0  0
   34.0990   30.0670   47.6380 S   0  0  0  0  0  0  0  0  0  0  0  0
   34.0050   26.6100   44.2040 H   0  0  0  0  0  0  0  0  0  0  0  0
   33.9870   26.8040   45.2280 N   0  0  0  0  0  0  0  0  0  0  0  0
   34.0490   28.1080   45.5510 C   0  0  0  0  0  3  0  0  0  0  0  0
   34.0290   28.4230   46.9120 C   0  0  0  0  0  0  0  0  0  0  0  0
   33.9460   27.3970   47.8570 C   0  0  0  0  0  0  0  0  0  0  0  0
   33.9220   27.5910   49.0950 O   0  0  0  0  0  0  0  0  0  0  0  0
   33.8850   26.1060   47.4720 N   0  0  0  0  0  0  0  0  0  0  0  0
   33.9070   25.8390   46.1550 C   0  0  0  0  0  0  0  0  0  0  0  0
   33.8560   24.6780   45.7140 O   0  0  0  0  0  0  0  0  0  0  0  0
   33.8220   25.3110   48.1580 H   0  0  0  0  0  0  0  0  0  0  0  0
  1  2  1  0  0  0  0
  2  3  2  0  0  0  0
  2  7  1  0  0  0  0
  3  4  1  0  0  0  0
  4  8  1  0  0  0  0
  4  5  2  0  0  0  0
  5  9  1  0  0  0  0
  6  5  1  0  0  0  0
  6 10  1  0  0  0  0
  7  6  2  0  0  0  0
 11 16  1  0  0  0  0
 12 13  1  0  0  0  0
 12 11  2  0  0  0  0
 13 14  2  0  0  0  0
 14 15  1  0  0  0  0
 15  3  1  0  0  0  0
 16 15  2  0  0  0  0
 17 11  1  0  0  0  0
 18 12  1  0  0  0  0
 19 13  1  0  0  0  0
 20  7  1  0  0  0  0
 21 22  1  0  0  0  0
 22 23  1  0  0  0  0
 22 28  1  0  0  0  0
 23 24  2  0  0  0  0
 24 20  1  0  0  0  0
 24 25  1  0  0  0  0
 25 26  2  0  0  0  0
 27 25  1  0  0  0  0
 27 30  1  0  0  0  0
 28 27  1  0  0  0  0
 29 28  2  0  0  0  0
M  END
>  <minimizedAffinity>
-5.55783319

>  <minimizedRMSD>
1.27635038

$$$$
