
 OpenBabel03272504233D

 40 42  0  0  1  0  0  0  0  0999 V2000
   38.9080   32.3760   47.8260 C   0  0  2  0  0  0  0  0  0  0  0  0
   38.1790   31.3750   48.7030 C   0  0  1  0  0  0  0  0  0  0  0  0
   38.6620   31.8860   50.0630 C   0  0  0  0  0  0  0  0  0  0  0  0
   38.3610   33.2340   49.9510 O   0  0  0  0  0  0  0  0  0  0  0  0
   38.6800   33.6430   48.6720 C   0  0  0  0  0  0  0  0  0  0  0  0
   39.9790   32.1280   47.7750 H   0  0  0  0  0  0  0  0  0  0  0  0
   38.4920   30.3340   48.5260 H   0  0  0  0  0  0  0  0  0  0  0  0
   37.9880   31.4280   50.8180 H   0  0  0  0  0  0  0  0  0  0  0  0
   39.7270   31.6700   50.2010 H   0  0  0  0  0  0  0  0  0  0  0  0
   39.6050   34.2590   48.6680 H   0  0  0  0  0  0  0  0  0  0  0  0
   37.8040   34.1660   48.2210 H   0  0  0  0  0  0  0  0  0  0  0  0
   36.8320   31.5990   48.5670 O   0  0  0  0  0  0  0  0  0  0  0  0
   35.8120   29.8200   46.9580 O   0  0  0  0  0  0  0  0  0  0  0  0
   35.9420   30.1750   48.4120 P   0  0  1  0  0  0  0  0  0  0  0  0
   36.7730   28.8950   49.1960 O   0  0  0  0  0  0  0  0  0  0  0  0
   37.3110   29.3110   49.9080 H   0  0  0  0  0  0  0  0  0  0  0  0
   34.4130   30.3660   49.1240 O   0  0  0  0  0  0  0  0  0  0  0  0
   34.1540   29.2160   49.8390 C   0  0  0  0  0  0  0  0  0  0  0  0
   35.0750   28.6960   50.1630 H   0  0  0  0  0  0  0  0  0  0  0  0
   33.6360   29.5150   50.7870 H   0  0  0  0  0  0  0  0  0  0  0  0
   33.2850   28.2560   49.1220 C   0  0  0  0  0  0  0  0  0  0  0  0
   33.9110   27.3540   48.2940 C   0  0  0  0  0  0  0  0  0  0  0  0
   33.1450   26.4220   47.5890 C   0  0  0  0  0  0  0  0  0  0  0  0
   31.7950   26.4660   47.7700 N   0  0  0  0  0  0  0  0  0  0  0  0
   31.2040   27.3620   48.5890 C   0  0  0  0  0  0  0  0  0  0  0  0
   31.9500   28.2580   49.2650 N   0  0  0  0  0  0  0  0  0  0  0  0
   34.9580   27.2420   48.0870 H   0  0  0  0  0  0  0  0  0  0  0  0
   33.5580   25.6750   46.9140 H   0  0  0  0  0  0  0  0  0  0  0  0
   30.1260   27.3520   48.6950 H   0  0  0  0  0  0  0  0  0  0  0  0
   38.2490   32.4410   46.6220 O   0  0  0  0  0  0  0  0  0  0  0  0
   38.4560   29.4580   43.2160 H   0  0  0  0  0  0  0  0  0  0  0  0
   38.7550   30.3740   43.6130 N   0  0  0  0  0  0  0  0  0  0  0  0
   38.3140   30.7780   44.8120 C   0  0  0  0  0  3  0  0  0  0  0  0
   38.6820   31.9910   45.3870 C   0  0  0  0  0  0  0  0  0  0  0  0
   39.5420   32.7890   44.6610 C   0  0  0  0  0  0  0  0  0  0  0  0
   39.9680   33.9210   45.0500 O   0  0  0  0  0  0  0  0  0  0  0  0
   40.0030   32.4010   43.4400 N   0  0  0  0  0  0  0  0  0  0  0  0
   39.5930   31.2120   42.9650 C   0  0  0  0  0  0  0  0  0  0  0  0
   39.9980   30.8180   41.8400 O   0  0  0  0  0  0  0  0  0  0  0  0
   40.6480   32.9970   42.8930 H   0  0  0  0  0  0  0  0  0  0  0  0
  1  6  1  6  0  0  0
  1  5  1  0  0  0  0
  1  2  1  0  0  0  0
  2  7  1  6  0  0  0
  2  3  1  0  0  0  0
  3  9  1  0  0  0  0
  3  8  1  0  0  0  0
  4  3  1  0  0  0  0
  5  4  1  0  0  0  0
 10  5  1  0  0  0  0
 11  5  1  0  0  0  0
 12  2  1  0  0  0  0
 14 13  2  6  0  0  0
 14 12  1  0  0  0  0
 14 17  1  0  0  0  0
 14 15  1  0  0  0  0
 15 16  1  0  0  0  0
 17 18  1  0  0  0  0
 18 19  1  0  0  0  0
 18 20  1  0  0  0  0
 21 26  1  0  0  0  0
 21 18  1  0  0  0  0
 22 21  2  0  0  0  0
 23 24  2  0  0  0  0
 23 22  1  0  0  0  0
 24 25  1  0  0  0  0
 25 29  1  0  0  0  0
 25 26  2  0  0  0  0
 27 22  1  0  0  0  0
 28 23  1  0  0  0  0
 30  1  1  0  0  0  0
 31 32  1  0  0  0  0
 32 33  1  0  0  0  0
 33 34  2  0  0  0  0
 34 30  1  0  0  0  0
 35 36  2  0  0  0  0
 35 34  1  0  0  0  0
 37 35  1  0  0  0  0
 38 37  1  0  0  0  0
 38 32  1  0  0  0  0
 39 38  2  0  0  0  0
 40 37  1  0  0  0  0
M  END
>  <minimizedAffinity>
-5.0342927

>  <minimizedRMSD>
0.38522166

$$$$
