
 OpenBabel03272508283D

 39 42  0  0  1  0  0  0  0  0999 V2000
   33.5900   28.8930   47.1510 C   0  0  2  0  0  0  0  0  0  0  0  0
   34.3330   28.0520   48.1810 C   0  0  2  0  0  0  0  0  0  0  0  0
   33.4360   27.8370   49.1930 O   0  0  0  0  0  0  0  0  0  0  0  0
   32.1530   27.9510   48.7380 C   0  0  0  0  0  0  0  0  0  0  0  0
   32.2070   28.2360   47.2490 C   0  0  1  0  0  0  0  0  0  0  0  0
   33.4520   29.9370   47.4570 H   0  0  0  0  0  0  0  0  0  0  0  0
   34.6120   27.1220   47.6510 H   0  0  0  0  0  0  0  0  0  0  0  0
   31.6670   28.7820   49.2990 H   0  0  0  0  0  0  0  0  0  0  0  0
   31.6440   26.9790   48.9390 H   0  0  0  0  0  0  0  0  0  0  0  0
   32.2730   27.2700   46.7340 H   0  0  0  0  0  0  0  0  0  0  0  0
   35.4310   30.2590   48.9730 C   0  0  1  0  0  0  0  0  0  0  0  0
   35.5050   28.8550   48.6450 C   0  0  1  0  0  0  0  0  0  0  0  0
   35.6860   29.2230   50.0810 C   0  0  0  0  0  0  0  0  0  0  0  0
   34.5350   30.8650   49.1930 H   0  0  0  0  0  0  0  0  0  0  0  0
   36.4630   28.5330   48.1410 H   0  0  0  0  0  0  0  0  0  0  0  0
   36.6830   29.1780   50.5480 H   0  0  0  0  0  0  0  0  0  0  0  0
   34.8340   28.9820   50.7450 H   0  0  0  0  0  0  0  0  0  0  0  0
   36.6340   31.1710   48.7680 C   0  0  0  0  0  0  0  0  0  0  0  0
   36.8990   32.1050   49.7720 C   0  0  0  0  0  0  0  0  0  0  0  0
   37.9910   32.9260   49.5260 C   0  0  0  0  0  0  0  0  0  0  0  0
   38.7280   32.8040   48.3790 N   0  0  0  0  0  0  0  0  0  0  0  0
   38.4270   31.8780   47.4340 C   0  0  0  0  0  0  0  0  0  0  0  0
   37.3680   31.0520   47.6300 N   0  0  0  0  0  0  0  0  0  0  0  0
   36.2870   32.1510   50.6430 H   0  0  0  0  0  0  0  0  0  0  0  0
   38.2420   33.6690   50.2720 H   0  0  0  0  0  0  0  0  0  0  0  0
   39.0400   31.8280   46.5550 H   0  0  0  0  0  0  0  0  0  0  0  0
   34.1010   28.8020   45.8780 O   0  0  0  0  0  0  0  0  0  0  0  0
   34.7040   28.0350   45.7170 H   0  0  0  0  0  0  0  0  0  0  0  0
   31.2140   29.0500   46.8030 O   0  0  0  0  0  0  0  0  0  0  0  0
   28.8290   27.1880   43.4530 H   0  0  0  0  0  0  0  0  0  0  0  0
   28.7700   27.6180   44.4210 N   0  0  0  0  0  0  0  0  0  0  0  0
   29.9900   27.9860   44.8460 C   0  0  0  0  0  3  0  0  0  0  0  0
   30.1350   28.5690   46.0860 C   0  0  0  0  0  0  0  0  0  0  0  0
   28.9760   28.7510   46.8540 C   0  0  0  0  0  0  0  0  0  0  0  0
   28.8710   29.2560   48.0030 O   0  0  0  0  0  0  0  0  0  0  0  0
   27.7590   28.3590   46.3790 N   0  0  0  0  0  0  0  0  0  0  0  0
   27.6610   27.7940   45.1630 C   0  0  0  0  0  0  0  0  0  0  0  0
   26.6010   27.3940   44.6160 O   0  0  0  0  0  0  0  0  0  0  0  0
   26.8560   28.4580   46.8840 H   0  0  0  0  0  0  0  0  0  0  0  0
  1  5  1  0  0  0  0
  1  6  1  1  0  0  0
  1  2  1  0  0  0  0
  2  7  1  6  0  0  0
  2 12  1  0  0  0  0
  2  3  1  0  0  0  0
  4  9  1  0  0  0  0
  4  3  1  0  0  0  0
  4  8  1  0  0  0  0
  5 10  1  6  0  0  0
  5  4  1  0  0  0  0
 11 14  1  6  0  0  0
 11 13  1  0  0  0  0
 12 15  1  6  0  0  0
 12 11  1  0  0  0  0
 12 13  1  0  0  0  0
 13 16  1  0  0  0  0
 13 17  1  0  0  0  0
 18 11  1  0  0  0  0
 18 19  1  0  0  0  0
 19 24  1  0  0  0  0
 20 19  2  0  0  0  0
 20 25  1  0  0  0  0
 21 20  1  0  0  0  0
 22 23  1  0  0  0  0
 22 21  2  0  0  0  0
 23 18  2  0  0  0  0
 26 22  1  0  0  0  0
 27  1  1  0  0  0  0
 28 27  1  0  0  0  0
 29  5  1  0  0  0  0
 30 31  1  0  0  0  0
 31 32  1  0  0  0  0
 31 37  1  0  0  0  0
 32 33  2  0  0  0  0
 33 29  1  0  0  0  0
 33 34  1  0  0  0  0
 34 35  2  0  0  0  0
 36 34  1  0  0  0  0
 36 39  1  0  0  0  0
 37 36  1  0  0  0  0
 38 37  2  0  0  0  0
M  END
>  <minimizedAffinity>
-5.38047218

>  <minimizedRMSD>
0.687464714

$$$$
