
 OpenBabel03272509193D

 34 36  0  0  0  0  0  0  0  0999 V2000
   37.8890   31.2890   48.0320 C   0  0  0  0  0  0  0  0  0  0  0  0
   36.8080   31.2510   48.8990 C   0  0  0  0  0  0  0  0  0  0  0  0
   36.7280   32.3390   49.7700 C   0  0  0  0  0  0  0  0  0  0  0  0
   37.6790   33.3710   49.7440 C   0  0  0  0  0  0  0  0  0  0  0  0
   38.7320   33.3090   48.8270 C   0  0  0  0  0  0  0  0  0  0  0  0
   38.8370   32.2480   47.9560 C   0  0  0  0  0  0  0  0  0  0  0  0
   35.9100   32.3640   50.4650 H   0  0  0  0  0  0  0  0  0  0  0  0
   37.6010   34.2040   50.4250 H   0  0  0  0  0  0  0  0  0  0  0  0
   39.4570   34.1070   48.8160 H   0  0  0  0  0  0  0  0  0  0  0  0
   34.7640   30.2110   48.0270 C   0  0  0  0  0  0  0  0  0  0  0  0
   35.8400   30.1950   48.9190 C   0  0  0  0  0  0  0  0  0  0  0  0
   35.9330   29.1290   49.8160 C   0  0  0  0  0  0  0  0  0  0  0  0
   34.9630   28.1690   49.7630 N   0  0  0  0  0  0  0  0  0  0  0  0
   33.9380   28.2230   48.8820 C   0  0  0  0  0  0  0  0  0  0  0  0
   33.8360   29.2440   48.0130 N   0  0  0  0  0  0  0  0  0  0  0  0
   34.7020   31.0450   47.3350 H   0  0  0  0  0  0  0  0  0  0  0  0
   33.2160   27.4210   48.9090 H   0  0  0  0  0  0  0  0  0  0  0  0
   37.0390   29.0540   50.7790 C   0  0  0  0  0  0  0  0  0  0  0  0
   36.8100   29.5480   51.7530 H   0  0  0  0  0  0  0  0  0  0  0  0
   37.4070   28.0300   50.9800 H   0  0  0  0  0  0  0  0  0  0  0  0
   37.9040   29.6260   50.3610 H   0  0  0  0  0  0  0  0  0  0  0  0
   38.0510   30.2190   47.1110 O   0  0  0  0  0  0  0  0  0  0  0  0
   37.2730   29.9010   46.5450 H   0  0  0  0  0  0  0  0  0  0  0  0
   39.8910   32.2390   47.0760 O   0  0  0  0  0  0  0  0  0  0  0  0
   37.9780   33.2020   43.0930 H   0  0  0  0  0  0  0  0  0  0  0  0
   38.7550   32.6960   43.5930 N   0  0  0  0  0  0  0  0  0  0  0  0
   38.7150   32.8630   44.9220 C   0  0  0  0  0  0  0  0  0  0  0  0
   39.6600   32.2660   45.7190 C   0  0  0  0  0  0  0  0  0  0  0  0
   40.6340   31.4990   45.0820 C   0  0  0  0  0  0  0  0  0  0  0  0
   41.5920   30.8640   45.5960 O   0  0  0  0  0  0  0  0  0  0  0  0
   40.6530   31.3440   43.7260 N   0  0  0  0  0  0  0  0  0  0  0  0
   39.6890   31.9590   42.9800 C   0  0  0  0  0  0  0  0  0  0  0  0
   39.5640   31.9190   41.7380 O   0  0  0  0  0  0  0  0  0  0  0  0
   41.3210   30.8050   43.1710 H   0  0  0  0  0  0  0  0  0  0  0  0
  1  2  1  0  0  0  0
  2 11  1  0  0  0  0
  2  3  2  0  0  0  0
  3  7  1  0  0  0  0
  4  3  1  0  0  0  0
  4  8  1  0  0  0  0
  5  4  2  0  0  0  0
  6  1  2  0  0  0  0
  6  5  1  0  0  0  0
  9  5  1  0  0  0  0
 10 11  1  0  0  0  0
 11 12  2  0  0  0  0
 12 18  1  0  0  0  0
 13 12  1  0  0  0  0
 14 17  1  0  0  0  0
 14 13  2  0  0  0  0
 15 10  2  0  0  0  0
 15 14  1  0  0  0  0
 16 10  1  0  0  0  0
 18 20  1  0  0  0  0
 18 19  1  0  0  0  0
 21 18  1  0  0  0  0
 22  1  1  0  0  0  0
 23 22  1  0  0  0  0
 24  6  1  0  0  0  0
 25 26  1  0  0  0  0
 26 27  1  0  0  0  0
 27 28  2  0  0  0  0
 28 24  1  0  0  0  0
 29 30  2  0  0  0  0
 29 28  1  0  0  0  0
 31 29  1  0  0  0  0
 32 26  1  0  0  0  0
 32 31  1  0  0  0  0
 33 32  2  0  0  0  0
 34 31  1  0  0  0  0
M  END
>  <minimizedAffinity>
-6.68224859

>  <minimizedRMSD>
0.687202811

$$$$
