
 OpenBabel03272505443D

 25 26  0  0  0  0  0  0  0  0999 V2000
   36.8520   27.1920   35.0460 O   0  0  0  0  0  0  0  0  0  0  0  0
   37.9920   26.1840   35.0550 P   0  0  2  0  0  0  0  0  0  0  0  0
   39.3470   26.9860   35.6660 O   0  0  0  0  0  0  0  0  0  0  0  0
   40.1460   26.7830   35.1370 H   0  0  0  0  0  0  0  0  0  0  0  0
   38.2470   25.6940   33.4400 O   0  0  0  0  0  0  0  0  0  0  0  0
   35.4730   24.8600   31.2250 C   0  0  0  0  0  0  0  0  0  0  0  0
   35.5720   23.4400   31.2230 C   0  0  0  0  0  0  0  0  0  0  0  0
   36.5970   22.8810   31.9910 C   0  0  0  0  0  0  0  0  0  0  0  0
   37.4230   23.6970   32.6830 N   0  0  0  0  0  0  0  0  0  0  0  0
   37.3030   25.0420   32.6650 C   0  0  0  0  0  0  0  0  0  0  0  0
   36.3230   25.6250   31.9330 N   0  0  0  0  0  0  0  0  0  0  0  0
   34.6950   25.3840   30.6480 H   0  0  0  0  0  0  0  0  0  0  0  0
   34.8760   22.8770   30.6470 H   0  0  0  0  0  0  0  0  0  0  0  0
   36.6970   21.8030   32.0080 H   0  0  0  0  0  0  0  0  0  0  0  0
   37.5730   24.9330   36.0660 O   0  0  0  0  0  0  0  0  0  0  0  0
   41.0140   22.2780   35.3620 H   0  0  0  0  0  0  0  0  0  0  0  0
   40.3380   22.6720   36.0490 N   0  0  0  0  0  0  0  0  0  0  0  0
   39.3610   23.5530   35.7010 C   0  0  0  0  0  3  0  0  0  0  0  0
   38.4710   24.0620   36.6460 C   0  0  0  0  0  0  0  0  0  0  0  0
   38.5730   23.6710   37.9600 C   0  0  0  0  0  0  0  0  0  0  0  0
   37.7320   24.1790   38.7400 O   0  0  0  0  0  0  0  0  0  0  0  0
   39.5430   22.7990   38.2950 N   0  0  0  0  0  0  0  0  0  0  0  0
   40.3920   22.3210   37.3670 C   0  0  0  0  0  0  0  0  0  0  0  0
   41.2830   21.5050   37.7340 O   0  0  0  0  0  0  0  0  0  0  0  0
   39.5980   22.5210   39.2960 H   0  0  0  0  0  0  0  0  0  0  0  0
  2  1  2  6  0  0  0
  2  3  1  0  0  0  0
  2 15  1  0  0  0  0
  4  3  1  0  0  0  0
  5  2  1  0  0  0  0
  6 11  1  0  0  0  0
  7  6  2  0  0  0  0
  7  8  1  0  0  0  0
  8 14  1  0  0  0  0
  8  9  2  0  0  0  0
 10  9  1  0  0  0  0
 10  5  1  0  0  0  0
 11 10  2  0  0  0  0
 12  6  1  0  0  0  0
 13  7  1  0  0  0  0
 15 19  1  0  0  0  0
 16 17  1  0  0  0  0
 17 23  1  0  0  0  0
 18 17  1  0  0  0  0
 18 19  2  0  0  0  0
 19 20  1  0  0  0  0
 20 22  1  0  0  0  0
 20 21  2  0  0  0  0
 22 25  1  0  0  0  0
 23 24  2  0  0  0  0
 23 22  1  0  0  0  0
M  END
>  <minimizedAffinity>
-5.3514905

$$$$

 OpenBabel03272505443D

 25 26  0  0  0  0  0  0  0  0999 V2000
   41.0650   26.7400   34.7540 O   0  0  0  0  0  0  0  0  0  0  0  0
   39.5510   26.6320   34.6570 P   0  0  2  0  0  0  0  0  0  0  0  0
   38.9140   27.5780   35.9040 O   0  0  0  0  0  0  0  0  0  0  0  0
   38.1850   27.1120   36.3630 H   0  0  0  0  0  0  0  0  0  0  0  0
   39.1460   24.9870   34.8680 O   0  0  0  0  0  0  0  0  0  0  0  0
   39.7720   22.8230   37.7350 C   0  0  0  0  0  0  0  0  0  0  0  0
   38.7540   23.2780   38.6200 C   0  0  0  0  0  0  0  0  0  0  0  0
   37.9270   24.3030   38.1520 C   0  0  0  0  0  0  0  0  0  0  0  0
   38.1310   24.7990   36.9110 N   0  0  0  0  0  0  0  0  0  0  0  0
   39.1060   24.3460   36.0940 C   0  0  0  0  0  0  0  0  0  0  0  0
   39.9300   23.3540   36.5100 N   0  0  0  0  0  0  0  0  0  0  0  0
   40.4670   22.0190   38.0230 H   0  0  0  0  0  0  0  0  0  0  0  0
   38.6680   22.8280   39.5810 H   0  0  0  0  0  0  0  0  0  0  0  0
   37.1430   24.6690   38.8030 H   0  0  0  0  0  0  0  0  0  0  0  0
   39.0780   27.2440   33.1860 O   0  0  0  0  0  0  0  0  0  0  0  0
   37.1940   24.7600   30.0770 H   0  0  0  0  0  0  0  0  0  0  0  0
   37.0680   25.4850   30.8140 N   0  0  0  0  0  0  0  0  0  0  0  0
   38.0980   25.9530   31.5700 C   0  0  0  0  0  3  0  0  0  0  0  0
   37.8960   26.9260   32.5500 C   0  0  0  0  0  0  0  0  0  0  0  0
   36.6350   27.4290   32.7630 C   0  0  0  0  0  0  0  0  0  0  0  0
   36.5470   28.2980   33.6620 O   0  0  0  0  0  0  0  0  0  0  0  0
   35.6220   26.9600   32.0090 N   0  0  0  0  0  0  0  0  0  0  0  0
   35.8390   26.0200   31.0700 C   0  0  0  0  0  0  0  0  0  0  0  0
   34.8550   25.6140   30.3910 O   0  0  0  0  0  0  0  0  0  0  0  0
   34.6790   27.3560   32.1920 H   0  0  0  0  0  0  0  0  0  0  0  0
  2  1  2  1  0  0  0
  2  5  1  0  0  0  0
  2  3  1  0  0  0  0
  3  4  1  0  0  0  0
  5 10  1  0  0  0  0
  6 12  1  0  0  0  0
  6  7  1  0  0  0  0
  7 13  1  0  0  0  0
  8  7  2  0  0  0  0
  8 14  1  0  0  0  0
  9  8  1  0  0  0  0
 10 11  1  0  0  0  0
 10  9  2  0  0  0  0
 11  6  2  0  0  0  0
 15  2  1  0  0  0  0
 16 17  1  0  0  0  0
 17 23  1  0  0  0  0
 17 18  1  0  0  0  0
 18 19  2  0  0  0  0
 19 20  1  0  0  0  0
 19 15  1  0  0  0  0
 20 21  2  0  0  0  0
 22 25  1  0  0  0  0
 22 20  1  0  0  0  0
 23 22  1  0  0  0  0
 24 23  2  0  0  0  0
M  END
>  <minimizedAffinity>
-5.08722353

$$$$

 OpenBabel03272505443D

 25 26  0  0  0  0  0  0  0  0999 V2000
   36.9390   27.0880   34.6280 O   0  0  0  0  0  0  0  0  0  0  0  0
   38.1360   26.4840   35.3460 P   0  0  2  0  0  0  0  0  0  0  0  0
   38.5510   27.5530   36.5870 O   0  0  0  0  0  0  0  0  0  0  0  0
   39.5210   27.6860   36.6290 H   0  0  0  0  0  0  0  0  0  0  0  0
   39.3980   26.3510   34.2050 O   0  0  0  0  0  0  0  0  0  0  0  0
   38.4690   25.2630   30.8500 C   0  0  0  0  0  0  0  0  0  0  0  0
   38.9840   26.3460   30.0840 C   0  0  0  0  0  0  0  0  0  0  0  0
   39.6140   27.3730   30.7920 C   0  0  0  0  0  0  0  0  0  0  0  0
   39.7030   27.2880   32.1380 N   0  0  0  0  0  0  0  0  0  0  0  0
   39.2040   26.2450   32.8380 C   0  0  0  0  0  0  0  0  0  0  0  0
   38.5850   25.2290   32.1900 N   0  0  0  0  0  0  0  0  0  0  0  0
   37.9580   24.4120   30.3740 H   0  0  0  0  0  0  0  0  0  0  0  0
   38.8680   26.3290   29.0260 H   0  0  0  0  0  0  0  0  0  0  0  0
   40.0160   28.2110   30.2360 H   0  0  0  0  0  0  0  0  0  0  0  0
   37.6730   25.0230   35.9910 O   0  0  0  0  0  0  0  0  0  0  0  0
   41.0740   22.2900   35.3940 H   0  0  0  0  0  0  0  0  0  0  0  0
   40.3850   22.6980   36.0600 N   0  0  0  0  0  0  0  0  0  0  0  0
   39.4410   23.6030   35.6820 C   0  0  0  0  0  3  0  0  0  0  0  0
   38.5310   24.1300   36.5980 C   0  0  0  0  0  0  0  0  0  0  0  0
   38.5790   23.7330   37.9140 C   0  0  0  0  0  0  0  0  0  0  0  0
   37.7240   24.2580   38.6660 O   0  0  0  0  0  0  0  0  0  0  0  0
   39.5170   22.8370   38.2780 N   0  0  0  0  0  0  0  0  0  0  0  0
   40.3860   22.3420   37.3770 C   0  0  0  0  0  0  0  0  0  0  0  0
   41.2450   21.5050   37.7710 O   0  0  0  0  0  0  0  0  0  0  0  0
   39.5310   22.5550   39.2790 H   0  0  0  0  0  0  0  0  0  0  0  0
  2  1  2  6  0  0  0
  2 15  1  0  0  0  0
  2  3  1  0  0  0  0
  3  4  1  0  0  0  0
  5  2  1  0  0  0  0
  6 11  1  0  0  0  0
  7  8  1  0  0  0  0
  7  6  2  0  0  0  0
  8  9  2  0  0  0  0
  9 10  1  0  0  0  0
 10  5  1  0  0  0  0
 11 10  2  0  0  0  0
 12  6  1  0  0  0  0
 13  7  1  0  0  0  0
 14  8  1  0  0  0  0
 15 19  1  0  0  0  0
 16 17  1  0  0  0  0
 17 23  1  0  0  0  0
 18 17  1  0  0  0  0
 18 19  2  0  0  0  0
 19 20  1  0  0  0  0
 20 22  1  0  0  0  0
 20 21  2  0  0  0  0
 22 25  1  0  0  0  0
 23 24  2  0  0  0  0
 23 22  1  0  0  0  0
M  END
>  <minimizedAffinity>
-5.04782438

$$$$

 OpenBabel03272505443D

 25 26  0  0  0  0  0  0  0  0999 V2000
   38.5170   26.9940   36.6760 O   0  0  0  0  0  0  0  0  0  0  0  0
   38.0800   26.3200   35.3840 P   0  0  2  0  0  0  0  0  0  0  0  0
   39.3720   26.4540   34.3040 O   0  0  0  0  0  0  0  0  0  0  0  0
   39.0610   26.7170   33.4120 H   0  0  0  0  0  0  0  0  0  0  0  0
   36.7120   27.1630   34.8100 O   0  0  0  0  0  0  0  0  0  0  0  0
   37.2410   28.4120   31.4240 C   0  0  0  0  0  0  0  0  0  0  0  0
   36.3990   29.5590   31.4460 C   0  0  0  0  0  0  0  0  0  0  0  0
   35.7110   29.8100   32.6350 C   0  0  0  0  0  0  0  0  0  0  0  0
   35.8760   28.9720   33.6830 N   0  0  0  0  0  0  0  0  0  0  0  0
   36.6830   27.8910   33.6320 C   0  0  0  0  0  0  0  0  0  0  0  0
   37.3680   27.6100   32.4970 N   0  0  0  0  0  0  0  0  0  0  0  0
   37.8200   28.1390   30.5280 H   0  0  0  0  0  0  0  0  0  0  0  0
   36.3300   30.1630   30.5720 H   0  0  0  0  0  0  0  0  0  0  0  0
   35.0620   30.6770   32.6820 H   0  0  0  0  0  0  0  0  0  0  0  0
   37.7790   24.7180   35.7080 O   0  0  0  0  0  0  0  0  0  0  0  0
   41.3040   22.1000   35.3740 H   0  0  0  0  0  0  0  0  0  0  0  0
   40.5700   22.5050   35.9910 N   0  0  0  0  0  0  0  0  0  0  0  0
   39.6110   23.3570   35.5350 C   0  0  0  0  0  3  0  0  0  0  0  0
   38.6400   23.8820   36.3880 C   0  0  0  0  0  0  0  0  0  0  0  0
   38.6420   23.5370   37.7190 C   0  0  0  0  0  0  0  0  0  0  0  0
   37.7330   24.0560   38.4110 O   0  0  0  0  0  0  0  0  0  0  0  0
   39.5940   22.6930   38.1610 N   0  0  0  0  0  0  0  0  0  0  0  0
   40.5220   22.1990   37.3200 C   0  0  0  0  0  0  0  0  0  0  0  0
   41.3930   21.4110   37.7850 O   0  0  0  0  0  0  0  0  0  0  0  0
   39.5720   22.4490   39.1710 H   0  0  0  0  0  0  0  0  0  0  0  0
  2 15  1  0  0  0  0
  2  1  2  1  0  0  0
  3  2  1  0  0  0  0
  4  3  1  0  0  0  0
  5  2  1  0  0  0  0
  6  7  2  0  0  0  0
  6 11  1  0  0  0  0
  7  8  1  0  0  0  0
  8 14  1  0  0  0  0
  8  9  2  0  0  0  0
 10  9  1  0  0  0  0
 10  5  1  0  0  0  0
 11 10  2  0  0  0  0
 12  6  1  0  0  0  0
 13  7  1  0  0  0  0
 15 19  1  0  0  0  0
 16 17  1  0  0  0  0
 17 23  1  0  0  0  0
 18 17  1  0  0  0  0
 18 19  2  0  0  0  0
 19 20  1  0  0  0  0
 20 22  1  0  0  0  0
 20 21  2  0  0  0  0
 22 25  1  0  0  0  0
 23 24  2  0  0  0  0
 23 22  1  0  0  0  0
M  END
>  <minimizedAffinity>
-5.01869154

$$$$

 OpenBabel03272505443D

 25 26  0  0  0  0  0  0  0  0999 V2000
   36.7190   27.2650   34.9870 O   0  0  0  0  0  0  0  0  0  0  0  0
   37.9720   26.4380   35.2330 P   0  0  2  0  0  0  0  0  0  0  0  0
   38.9770   27.3610   36.2290 O   0  0  0  0  0  0  0  0  0  0  0  0
   39.9060   27.3330   35.9180 H   0  0  0  0  0  0  0  0  0  0  0  0
   38.7030   26.1620   33.7150 O   0  0  0  0  0  0  0  0  0  0  0  0
   42.2070   27.1710   33.6590 C   0  0  0  0  0  0  0  0  0  0  0  0
   42.7400   26.1770   32.7920 C   0  0  0  0  0  0  0  0  0  0  0  0
   41.8410   25.2310   32.2930 C   0  0  0  0  0  0  0  0  0  0  0  0
   40.5390   25.3060   32.6500 N   0  0  0  0  0  0  0  0  0  0  0  0
   40.0630   26.2630   33.4750 C   0  0  0  0  0  0  0  0  0  0  0  0
   40.9020   27.1990   33.9810 N   0  0  0  0  0  0  0  0  0  0  0  0
   42.8440   27.9550   34.0970 H   0  0  0  0  0  0  0  0  0  0  0  0
   43.7800   26.1950   32.5660 H   0  0  0  0  0  0  0  0  0  0  0  0
   42.2180   24.4620   31.6300 H   0  0  0  0  0  0  0  0  0  0  0  0
   37.5300   25.0400   36.0150 O   0  0  0  0  0  0  0  0  0  0  0  0
   40.9070   22.2920   35.3590 H   0  0  0  0  0  0  0  0  0  0  0  0
   40.2450   22.7190   36.0410 N   0  0  0  0  0  0  0  0  0  0  0  0
   39.2850   23.6120   35.6750 C   0  0  0  0  0  3  0  0  0  0  0  0
   38.4130   24.1660   36.6130 C   0  0  0  0  0  0  0  0  0  0  0  0
   38.5170   23.8080   37.9360 C   0  0  0  0  0  0  0  0  0  0  0  0
   37.6930   24.3550   38.7080 O   0  0  0  0  0  0  0  0  0  0  0  0
   39.4690   22.9230   38.2880 N   0  0  0  0  0  0  0  0  0  0  0  0
   40.3010   22.4020   37.3660 C   0  0  0  0  0  0  0  0  0  0  0  0
   41.1770   21.5770   37.7490 O   0  0  0  0  0  0  0  0  0  0  0  0
   39.5260   22.6710   39.2950 H   0  0  0  0  0  0  0  0  0  0  0  0
  2  1  2  6  0  0  0
  2 15  1  0  0  0  0
  2  3  1  0  0  0  0
  4  3  1  0  0  0  0
  5  2  1  0  0  0  0
  6 11  1  0  0  0  0
  6 12  1  0  0  0  0
  7  6  2  0  0  0  0
  8  9  2  0  0  0  0
  8  7  1  0  0  0  0
  9 10  1  0  0  0  0
 10  5  1  0  0  0  0
 10 11  2  0  0  0  0
 13  7  1  0  0  0  0
 14  8  1  0  0  0  0
 15 19  1  0  0  0  0
 16 17  1  0  0  0  0
 17 23  1  0  0  0  0
 18 17  1  0  0  0  0
 18 19  2  0  0  0  0
 19 20  1  0  0  0  0
 20 22  1  0  0  0  0
 20 21  2  0  0  0  0
 22 25  1  0  0  0  0
 23 24  2  0  0  0  0
 23 22  1  0  0  0  0
M  END
>  <minimizedAffinity>
-4.85895729

$$$$

 OpenBabel03272505443D

 25 26  0  0  0  0  0  0  0  0999 V2000
   40.6490   26.7970   34.8930 O   0  0  0  0  0  0  0  0  0  0  0  0
   39.1280   26.7890   34.8700 P   0  0  2  0  0  0  0  0  0  0  0  0
   38.6160   27.7500   36.1620 O   0  0  0  0  0  0  0  0  0  0  0  0
   37.8810   27.3240   36.6500 H   0  0  0  0  0  0  0  0  0  0  0  0
   38.6270   25.1700   35.0760 O   0  0  0  0  0  0  0  0  0  0  0  0
   39.7530   22.8380   37.6440 C   0  0  0  0  0  0  0  0  0  0  0  0
   38.8740   23.1910   38.7060 C   0  0  0  0  0  0  0  0  0  0  0  0
   37.9570   24.2130   38.4490 C   0  0  0  0  0  0  0  0  0  0  0  0
   37.9500   24.8020   37.2320 N   0  0  0  0  0  0  0  0  0  0  0  0
   38.7970   24.4440   36.2430 C   0  0  0  0  0  0  0  0  0  0  0  0
   39.7030   23.4580   36.4510 N   0  0  0  0  0  0  0  0  0  0  0  0
   40.5070   22.0440   37.7600 H   0  0  0  0  0  0  0  0  0  0  0  0
   38.9520   22.6720   39.6320 H   0  0  0  0  0  0  0  0  0  0  0  0
   37.2750   24.5030   39.2380 H   0  0  0  0  0  0  0  0  0  0  0  0
   38.6250   27.4570   33.4340 O   0  0  0  0  0  0  0  0  0  0  0  0
   41.1860   26.8850   29.8980 H   0  0  0  0  0  0  0  0  0  0  0  0
   40.2850   26.6640   30.3720 N   0  0  0  0  0  0  0  0  0  0  0  0
   39.9550   27.1590   31.5960 C   0  0  0  0  0  3  0  0  0  0  0  0
   38.7400   26.8450   32.2040 C   0  0  0  0  0  0  0  0  0  0  0  0
   37.8480   26.0200   31.5600 C   0  0  0  0  0  0  0  0  0  0  0  0
   36.7820   25.7910   32.1800 O   0  0  0  0  0  0  0  0  0  0  0  0
   38.1830   25.5350   30.3490 N   0  0  0  0  0  0  0  0  0  0  0  0
   39.3620   25.8510   29.7820 C   0  0  0  0  0  0  0  0  0  0  0  0
   39.6270   25.3700   28.6450 O   0  0  0  0  0  0  0  0  0  0  0  0
   37.4910   24.9130   29.8860 H   0  0  0  0  0  0  0  0  0  0  0  0
  2  1  2  6  0  0  0
  2  5  1  0  0  0  0
  2  3  1  0  0  0  0
  3  4  1  0  0  0  0
  5 10  1  0  0  0  0
  6 12  1  0  0  0  0
  6  7  1  0  0  0  0
  7 13  1  0  0  0  0
  8  7  2  0  0  0  0
  8 14  1  0  0  0  0
  9  8  1  0  0  0  0
 10 11  1  0  0  0  0
 10  9  2  0  0  0  0
 11  6  2  0  0  0  0
 15  2  1  0  0  0  0
 16 17  1  0  0  0  0
 17 18  1  0  0  0  0
 18 19  2  0  0  0  0
 19 15  1  0  0  0  0
 20 21  2  0  0  0  0
 20 19  1  0  0  0  0
 22 20  1  0  0  0  0
 23 22  1  0  0  0  0
 23 17  1  0  0  0  0
 24 23  2  0  0  0  0
 25 22  1  0  0  0  0
M  END
>  <minimizedAffinity>
-4.75555801

$$$$

 OpenBabel03272505443D

 25 26  0  0  0  0  0  0  0  0999 V2000
   39.3780   27.2230   33.5910 O   0  0  0  0  0  0  0  0  0  0  0  0
   38.4070   26.5980   34.5800 P   0  0  2  0  0  0  0  0  0  0  0  0
   38.5460   27.4730   36.0190 O   0  0  0  0  0  0  0  0  0  0  0  0
   38.5780   26.8750   36.7940 H   0  0  0  0  0  0  0  0  0  0  0  0
   38.8860   24.9740   34.8030 O   0  0  0  0  0  0  0  0  0  0  0  0
   39.8070   22.8880   37.6490 C   0  0  0  0  0  0  0  0  0  0  0  0
   38.8080   23.2820   38.5830 C   0  0  0  0  0  0  0  0  0  0  0  0
   37.8900   24.2430   38.1520 C   0  0  0  0  0  0  0  0  0  0  0  0
   37.9940   24.7400   36.8990 N   0  0  0  0  0  0  0  0  0  0  0  0
   38.9550   24.3450   36.0350 C   0  0  0  0  0  0  0  0  0  0  0  0
   39.8640   23.4150   36.4130 N   0  0  0  0  0  0  0  0  0  0  0  0
   40.5700   22.1360   37.9040 H   0  0  0  0  0  0  0  0  0  0  0  0
   38.8030   22.8370   39.5500 H   0  0  0  0  0  0  0  0  0  0  0  0
   37.1180   24.5630   38.8410 H   0  0  0  0  0  0  0  0  0  0  0  0
   36.8690   26.7530   33.9700 O   0  0  0  0  0  0  0  0  0  0  0  0
   35.4480   30.8380   33.1410 H   0  0  0  0  0  0  0  0  0  0  0  0
   35.7320   29.9140   32.7530 N   0  0  0  0  0  0  0  0  0  0  0  0
   36.1310   28.8760   33.5390 C   0  0  0  0  0  3  0  0  0  0  0  0
   36.5050   27.6500   32.9880 C   0  0  0  0  0  0  0  0  0  0  0  0
   36.4720   27.4760   31.6250 C   0  0  0  0  0  0  0  0  0  0  0  0
   36.8250   26.3430   31.2180 O   0  0  0  0  0  0  0  0  0  0  0  0
   36.0760   28.5080   30.8560 N   0  0  0  0  0  0  0  0  0  0  0  0
   35.7200   29.6830   31.4090 C   0  0  0  0  0  0  0  0  0  0  0  0
   35.3570   30.6190   30.6430 O   0  0  0  0  0  0  0  0  0  0  0  0
   36.0620   28.3490   29.8290 H   0  0  0  0  0  0  0  0  0  0  0  0
  2  1  2  6  0  0  0
  2  5  1  0  0  0  0
  2  3  1  0  0  0  0
  3  4  1  0  0  0  0
  5 10  1  0  0  0  0
  6 12  1  0  0  0  0
  6  7  1  0  0  0  0
  7 13  1  0  0  0  0
  8  7  2  0  0  0  0
  8 14  1  0  0  0  0
  9  8  1  0  0  0  0
 10 11  1  0  0  0  0
 10  9  2  0  0  0  0
 11  6  2  0  0  0  0
 15  2  1  0  0  0  0
 17 16  1  0  0  0  0
 17 18  1  0  0  0  0
 19 18  2  0  0  0  0
 19 15  1  0  0  0  0
 20 19  1  0  0  0  0
 21 20  2  0  0  0  0
 22 23  1  0  0  0  0
 22 20  1  0  0  0  0
 23 17  1  0  0  0  0
 24 23  2  0  0  0  0
 25 22  1  0  0  0  0
M  END
>  <minimizedAffinity>
-4.67404461

$$$$

 OpenBabel03272505443D

 25 26  0  0  0  0  0  0  0  0999 V2000
   38.2220   26.7340   37.1330 O   0  0  0  0  0  0  0  0  0  0  0  0
   38.2820   26.3130   35.6730 P   0  0  2  0  0  0  0  0  0  0  0  0
   39.7790   26.8250   35.0790 O   0  0  0  0  0  0  0  0  0  0  0  0
   39.6850   27.2390   34.1950 H   0  0  0  0  0  0  0  0  0  0  0  0
   37.0010   27.1010   34.8650 O   0  0  0  0  0  0  0  0  0  0  0  0
   36.5000   28.9810   31.7810 C   0  0  0  0  0  0  0  0  0  0  0  0
   37.5400   28.4310   30.9800 C   0  0  0  0  0  0  0  0  0  0  0  0
   38.3360   27.4490   31.5740 C   0  0  0  0  0  0  0  0  0  0  0  0
   38.0850   27.0780   32.8490 N   0  0  0  0  0  0  0  0  0  0  0  0
   37.0890   27.6180   33.5840 C   0  0  0  0  0  0  0  0  0  0  0  0
   36.2940   28.5750   33.0460 N   0  0  0  0  0  0  0  0  0  0  0  0
   35.8250   29.7600   31.3930 H   0  0  0  0  0  0  0  0  0  0  0  0
   37.6640   28.7860   29.9840 H   0  0  0  0  0  0  0  0  0  0  0  0
   39.1360   27.0120   30.9890 H   0  0  0  0  0  0  0  0  0  0  0  0
   38.1850   24.6550   35.6040 O   0  0  0  0  0  0  0  0  0  0  0  0
   39.5110   22.0640   38.9080 H   0  0  0  0  0  0  0  0  0  0  0  0
   39.7080   22.4410   37.9570 N   0  0  0  0  0  0  0  0  0  0  0  0
   38.8740   23.3080   37.3200 C   0  0  0  0  0  3  0  0  0  0  0  0
   39.1680   23.7950   36.0470 C   0  0  0  0  0  0  0  0  0  0  0  0
   40.3210   23.3980   35.4130 C   0  0  0  0  0  0  0  0  0  0  0  0
   40.5040   23.8850   34.2710 O   0  0  0  0  0  0  0  0  0  0  0  0
   41.1400   22.5400   36.0510 N   0  0  0  0  0  0  0  0  0  0  0  0
   40.8370   22.0810   37.2800 C   0  0  0  0  0  0  0  0  0  0  0  0
   41.6380   21.2780   37.8340 O   0  0  0  0  0  0  0  0  0  0  0  0
   42.0040   22.2550   35.5480 H   0  0  0  0  0  0  0  0  0  0  0  0
  2  1  2  1  0  0  0
  3  2  1  0  0  0  0
  4  3  1  0  0  0  0
  5  2  1  0  0  0  0
  6 11  1  0  0  0  0
  7  8  1  0  0  0  0
  7  6  2  0  0  0  0
  8  9  2  0  0  0  0
  9 10  1  0  0  0  0
 10  5  1  0  0  0  0
 11 10  2  0  0  0  0
 12  6  1  0  0  0  0
 13  7  1  0  0  0  0
 14  8  1  0  0  0  0
 15  2  1  0  0  0  0
 15 19  1  0  0  0  0
 17 16  1  0  0  0  0
 18 17  1  0  0  0  0
 19 18  2  0  0  0  0
 20 19  1  0  0  0  0
 20 22  1  0  0  0  0
 21 20  2  0  0  0  0
 22 23  1  0  0  0  0
 23 24  2  0  0  0  0
 23 17  1  0  0  0  0
 25 22  1  0  0  0  0
M  END
>  <minimizedAffinity>
-4.62596035

$$$$

 OpenBabel03272505443D

 25 26  0  0  0  0  0  0  0  0999 V2000
   39.2280   26.4660   33.7070 O   0  0  0  0  0  0  0  0  0  0  0  0
   37.9300   25.6880   33.8570 P   0  0  2  0  0  0  0  0  0  0  0  0
   36.9390   26.5880   34.8890 O   0  0  0  0  0  0  0  0  0  0  0  0
   36.5050   26.0120   35.5530 H   0  0  0  0  0  0  0  0  0  0  0  0
   38.3210   24.1770   34.5490 O   0  0  0  0  0  0  0  0  0  0  0  0
   37.8580   24.1200   38.1660 C   0  0  0  0  0  0  0  0  0  0  0  0
   38.9620   23.3060   38.5470 C   0  0  0  0  0  0  0  0  0  0  0  0
   39.7820   22.8380   37.5170 C   0  0  0  0  0  0  0  0  0  0  0  0
   39.4940   23.1750   36.2400 N   0  0  0  0  0  0  0  0  0  0  0  0
   38.4390   23.9510   35.9100 C   0  0  0  0  0  0  0  0  0  0  0  0
   37.6180   24.4240   36.8780 N   0  0  0  0  0  0  0  0  0  0  0  0
   37.1610   24.5310   38.9120 H   0  0  0  0  0  0  0  0  0  0  0  0
   39.1110   23.0910   39.5790 H   0  0  0  0  0  0  0  0  0  0  0  0
   40.6300   22.2160   37.7770 H   0  0  0  0  0  0  0  0  0  0  0  0
   37.2210   25.5630   32.3590 O   0  0  0  0  0  0  0  0  0  0  0  0
   35.6370   29.1540   30.3610 H   0  0  0  0  0  0  0  0  0  0  0  0
   36.3780   28.4220   30.3890 N   0  0  0  0  0  0  0  0  0  0  0  0
   36.3990   27.4300   31.3200 C   0  0  0  0  0  3  0  0  0  0  0  0
   37.4040   26.4630   31.3300 C   0  0  0  0  0  0  0  0  0  0  0  0
   38.3990   26.5040   30.3820 C   0  0  0  0  0  0  0  0  0  0  0  0
   39.2610   25.5960   30.4670 O   0  0  0  0  0  0  0  0  0  0  0  0
   38.3700   27.4890   29.4650 N   0  0  0  0  0  0  0  0  0  0  0  0
   37.3900   28.4120   29.4750 C   0  0  0  0  0  0  0  0  0  0  0  0
   37.4090   29.3150   28.5920 O   0  0  0  0  0  0  0  0  0  0  0  0
   39.1350   27.4970   28.7610 H   0  0  0  0  0  0  0  0  0  0  0  0
  2  1  2  6  0  0  0
  2  5  1  0  0  0  0
  2  3  1  0  0  0  0
  3  4  1  0  0  0  0
  5 10  1  0  0  0  0
  6  7  1  0  0  0  0
  6 12  1  0  0  0  0
  7 13  1  0  0  0  0
  8 14  1  0  0  0  0
  8  7  2  0  0  0  0
  9  8  1  0  0  0  0
 10  9  2  0  0  0  0
 10 11  1  0  0  0  0
 11  6  2  0  0  0  0
 15  2  1  0  0  0  0
 16 17  1  0  0  0  0
 17 18  1  0  0  0  0
 18 19  2  0  0  0  0
 19 15  1  0  0  0  0
 20 21  2  0  0  0  0
 20 19  1  0  0  0  0
 22 23  1  0  0  0  0
 22 20  1  0  0  0  0
 23 17  1  0  0  0  0
 24 23  2  0  0  0  0
 25 22  1  0  0  0  0
M  END
>  <minimizedAffinity>
-4.55771542

$$$$
