
 OpenBabel03272504203D

 28 29  0  0  0  0  0  0  0  0999 V2000
   38.9550   31.5530   43.3760 O   0  0  0  0  0  0  0  0  0  0  0  0
   39.0070   30.2240   44.1100 P   0  0  2  0  0  0  0  0  0  0  0  0
   40.0090   29.2100   43.1680 O   0  0  0  0  0  0  0  0  0  0  0  0
   40.7710   29.7400   42.8010 H   0  0  0  0  0  0  0  0  0  0  0  0
   37.4580   29.5570   44.2120 O   0  0  0  0  0  0  0  0  0  0  0  0
   36.5650   30.4940   43.7530 C   0  0  0  0  0  0  0  0  0  0  0  0
   36.9440   31.5470   43.8710 H   0  0  0  0  0  0  0  0  0  0  0  0
   36.4740   30.3610   42.6490 H   0  0  0  0  0  0  0  0  0  0  0  0
   35.2530   30.4470   44.4470 C   0  0  0  0  0  0  0  0  0  0  0  0
   35.2260   29.9660   45.7540 C   0  0  0  0  0  0  0  0  0  0  0  0
   34.0160   29.9080   46.4350 C   0  0  0  0  0  0  0  0  0  0  0  0
   32.9050   30.3370   45.7640 N   0  0  0  0  0  0  0  0  0  0  0  0
   32.9570   30.7970   44.5030 C   0  0  0  0  0  0  0  0  0  0  0  0
   34.1260   30.8530   43.8460 N   0  0  0  0  0  0  0  0  0  0  0  0
   36.1190   29.6370   46.2490 H   0  0  0  0  0  0  0  0  0  0  0  0
   33.9290   29.5430   47.4540 H   0  0  0  0  0  0  0  0  0  0  0  0
   32.0210   31.1210   44.0410 H   0  0  0  0  0  0  0  0  0  0  0  0
   39.6870   30.4910   45.6240 O   0  0  0  0  0  0  0  0  0  0  0  0
   37.0800   31.0310   49.1510 H   0  0  0  0  0  0  0  0  0  0  0  0
   37.7500   31.4260   48.4770 N   0  0  0  0  0  0  0  0  0  0  0  0
   38.3210   30.7530   47.4640 C   0  0  0  0  0  0  0  0  0  0  0  0
   39.2260   31.3530   46.5820 C   0  0  0  0  0  0  0  0  0  0  0  0
   39.5100   32.6880   46.8040 C   0  0  0  0  0  0  0  0  0  0  0  0
   40.3360   33.1570   45.9660 O   0  0  0  0  0  0  0  0  0  0  0  0
   38.9330   33.3520   47.8220 N   0  0  0  0  0  0  0  0  0  0  0  0
   38.0670   32.7380   48.6470 C   0  0  0  0  0  0  0  0  0  0  0  0
   37.5610   33.4120   49.5800 O   0  0  0  0  0  0  0  0  0  0  0  0
   39.2060   34.3670   47.9200 H   0  0  0  0  0  0  0  0  0  0  0  0
  2  1  2  6  0  0  0
  2  5  1  0  0  0  0
  2 18  1  0  0  0  0
  3  2  1  0  0  0  0
  4  3  1  0  0  0  0
  6  7  1  0  0  0  0
  6  5  1  0  0  0  0
  6  9  1  0  0  0  0
  8  6  1  0  0  0  0
  9 10  1  0  0  0  0
 10 15  1  0  0  0  0
 10 11  2  0  0  0  0
 11 16  1  0  0  0  0
 12 11  1  0  0  0  0
 13 12  2  0  0  0  0
 14  9  2  0  0  0  0
 14 13  1  0  0  0  0
 17 13  1  0  0  0  0
 18 22  1  0  0  0  0
 20 26  1  0  0  0  0
 20 19  1  0  0  0  0
 21 20  1  0  0  0  0
 22 23  1  0  0  0  0
 22 21  2  0  0  0  0
 23 25  1  0  0  0  0
 24 23  2  0  0  0  0
 25 28  1  0  0  0  0
 25 26  1  0  0  0  0
 26 27  2  0  0  0  0
M  END
>  <minimizedAffinity>
-4.43154097

>  <minimizedRMSD>
5.24816084

$$$$
