
 OpenBabel03272505093D

 30 32  0  0  0  0  0  0  0  0999 V2000
   36.3250   31.0070   45.3720 Cl  0  0  0  0  0  0  0  0  0  0  0  0
   36.5610   30.6480   47.0650 C   0  0  0  0  0  0  0  0  0  0  0  0
   37.8150   30.8520   47.5700 C   0  0  0  0  0  0  0  0  0  0  0  0
   38.0290   30.5700   48.9230 C   0  0  0  0  0  0  0  0  0  0  0  0
   36.9900   30.1060   49.6920 C   0  0  0  0  0  0  0  0  0  0  0  0
   35.7470   29.9260   49.1070 C   0  0  0  0  0  0  0  0  0  0  0  0
   35.4730   30.1830   47.7840 C   0  0  0  0  0  0  0  0  0  0  0  0
   39.0120   30.7220   49.3470 H   0  0  0  0  0  0  0  0  0  0  0  0
   37.1480   29.8870   50.7390 H   0  0  0  0  0  0  0  0  0  0  0  0
   34.9330   29.5560   49.7320 H   0  0  0  0  0  0  0  0  0  0  0  0
   40.1490   33.1880   45.9980 C   0  0  0  0  0  0  0  0  0  0  0  0
   40.9170   32.3830   45.1440 C   0  0  0  0  0  0  0  0  0  0  0  0
   40.6100   31.0270   45.1270 C   0  0  0  0  0  0  0  0  0  0  0  0
   39.6040   30.5500   45.9200 N   0  0  0  0  0  0  0  0  0  0  0  0
   38.9010   31.3490   46.7140 C   0  0  0  0  0  0  0  0  0  0  0  0
   39.1790   32.6660   46.7470 N   0  0  0  0  0  0  0  0  0  0  0  0
   40.3100   34.2510   46.0800 H   0  0  0  0  0  0  0  0  0  0  0  0
   41.6960   32.8460   44.5510 H   0  0  0  0  0  0  0  0  0  0  0  0
   41.1770   30.3880   44.4880 H   0  0  0  0  0  0  0  0  0  0  0  0
   33.8900   29.9640   47.0240 S   0  0  0  0  0  0  0  0  0  0  0  0
   34.0280   25.1620   47.8440 H   0  0  0  0  0  0  0  0  0  0  0  0
   33.4270   25.9700   47.5750 N   0  0  0  0  0  0  0  0  0  0  0  0
   34.0680   27.1510   47.5260 C   0  0  0  0  0  3  0  0  0  0  0  0
   33.3080   28.2690   47.1700 C   0  0  0  0  0  0  0  0  0  0  0  0
   31.9490   28.1160   46.8880 C   0  0  0  0  0  0  0  0  0  0  0  0
   31.1940   29.0640   46.5620 O   0  0  0  0  0  0  0  0  0  0  0  0
   31.3600   26.9060   46.9540 N   0  0  0  0  0  0  0  0  0  0  0  0
   32.1200   25.8530   47.2990 C   0  0  0  0  0  0  0  0  0  0  0  0
   31.6580   24.7010   47.3830 O   0  0  0  0  0  0  0  0  0  0  0  0
   30.3390   26.7590   46.7470 H   0  0  0  0  0  0  0  0  0  0  0  0
  1  2  1  0  0  0  0
  2  3  2  0  0  0  0
  2  7  1  0  0  0  0
  3  4  1  0  0  0  0
  4  8  1  0  0  0  0
  4  5  2  0  0  0  0
  5  9  1  0  0  0  0
  6  5  1  0  0  0  0
  6 10  1  0  0  0  0
  7  6  2  0  0  0  0
 11 17  1  0  0  0  0
 11 16  1  0  0  0  0
 12 11  2  0  0  0  0
 13 12  1  0  0  0  0
 13 14  2  0  0  0  0
 14 15  1  0  0  0  0
 15 16  2  0  0  0  0
 15  3  1  0  0  0  0
 18 12  1  0  0  0  0
 19 13  1  0  0  0  0
 20 24  1  0  0  0  0
 20  7  1  0  0  0  0
 22 21  1  0  0  0  0
 23 22  1  0  0  0  0
 24 23  2  0  0  0  0
 25 27  1  0  0  0  0
 25 24  1  0  0  0  0
 26 25  2  0  0  0  0
 27 28  1  0  0  0  0
 28 29  2  0  0  0  0
 28 22  1  0  0  0  0
 30 27  1  0  0  0  0
M  END
>  <minimizedAffinity>
-5.45280552

>  <minimizedRMSD>
1.50490177

$$$$
