
 OpenBabel03272509193D

 34 36  0  0  0  0  0  0  0  0999 V2000
   37.7720   31.2960   48.1430 C   0  0  0  0  0  0  0  0  0  0  0  0
   37.0820   31.5680   49.3140 C   0  0  0  0  0  0  0  0  0  0  0  0
   37.4300   32.7740   49.9230 C   0  0  0  0  0  0  0  0  0  0  0  0
   38.4040   33.6210   49.3700 C   0  0  0  0  0  0  0  0  0  0  0  0
   39.0400   33.2490   48.1820 C   0  0  0  0  0  0  0  0  0  0  0  0
   38.7160   32.0650   47.5590 C   0  0  0  0  0  0  0  0  0  0  0  0
   36.9280   33.0390   50.8350 H   0  0  0  0  0  0  0  0  0  0  0  0
   38.6610   34.5500   49.8550 H   0  0  0  0  0  0  0  0  0  0  0  0
   39.7860   33.9060   47.7660 H   0  0  0  0  0  0  0  0  0  0  0  0
   34.8110   30.6380   49.3070 C   0  0  0  0  0  0  0  0  0  0  0  0
   36.0880   30.7000   49.8730 C   0  0  0  0  0  0  0  0  0  0  0  0
   36.3530   29.8990   50.9840 C   0  0  0  0  0  0  0  0  0  0  0  0
   35.3450   29.1030   51.4490 N   0  0  0  0  0  0  0  0  0  0  0  0
   34.1220   29.0730   50.8710 C   0  0  0  0  0  0  0  0  0  0  0  0
   33.8520   29.8400   49.8000 N   0  0  0  0  0  0  0  0  0  0  0  0
   34.6160   31.2650   48.4440 H   0  0  0  0  0  0  0  0  0  0  0  0
   33.3830   28.4150   51.3030 H   0  0  0  0  0  0  0  0  0  0  0  0
   37.6750   29.9180   51.6250 C   0  0  0  0  0  0  0  0  0  0  0  0
   37.7570   30.6740   52.4430 H   0  0  0  0  0  0  0  0  0  0  0  0
   38.0140   28.9390   52.0130 H   0  0  0  0  0  0  0  0  0  0  0  0
   38.4270   30.2360   50.8610 H   0  0  0  0  0  0  0  0  0  0  0  0
   37.4820   30.0860   47.4570 O   0  0  0  0  0  0  0  0  0  0  0  0
   36.5240   29.8170   47.2640 H   0  0  0  0  0  0  0  0  0  0  0  0
   39.3730   31.7490   46.3950 O   0  0  0  0  0  0  0  0  0  0  0  0
   36.4470   32.6630   43.0700 H   0  0  0  0  0  0  0  0  0  0  0  0
   37.4520   32.6910   43.3860 N   0  0  0  0  0  0  0  0  0  0  0  0
   37.6210   32.2060   44.6230 C   0  0  0  0  0  3  0  0  0  0  0  0
   38.8750   32.1740   45.1840 C   0  0  0  0  0  0  0  0  0  0  0  0
   39.9280   32.6620   44.4110 C   0  0  0  0  0  0  0  0  0  0  0  0
   41.1500   32.7350   44.7070 O   0  0  0  0  0  0  0  0  0  0  0  0
   39.7270   33.1520   43.1520 N   0  0  0  0  0  0  0  0  0  0  0  0
   38.4620   33.1600   42.6430 C   0  0  0  0  0  0  0  0  0  0  0  0
   38.1090   33.5710   41.5170 O   0  0  0  0  0  0  0  0  0  0  0  0
   40.4310   33.5290   42.5140 H   0  0  0  0  0  0  0  0  0  0  0  0
  1  2  1  0  0  0  0
  2 11  1  0  0  0  0
  2  3  2  0  0  0  0
  3  7  1  0  0  0  0
  4  8  1  0  0  0  0
  4  3  1  0  0  0  0
  5  4  2  0  0  0  0
  6  1  2  0  0  0  0
  6  5  1  0  0  0  0
  9  5  1  0  0  0  0
 10 15  2  0  0  0  0
 10 11  1  0  0  0  0
 11 12  2  0  0  0  0
 12 13  1  0  0  0  0
 12 18  1  0  0  0  0
 14 17  1  0  0  0  0
 14 13  2  0  0  0  0
 15 14  1  0  0  0  0
 16 10  1  0  0  0  0
 18 20  1  0  0  0  0
 18 19  1  0  0  0  0
 21 18  1  0  0  0  0
 22  1  1  0  0  0  0
 23 22  1  0  0  0  0
 24  6  1  0  0  0  0
 25 26  1  0  0  0  0
 26 27  1  0  0  0  0
 27 28  2  0  0  0  0
 28 24  1  0  0  0  0
 29 30  2  0  0  0  0
 29 28  1  0  0  0  0
 31 29  1  0  0  0  0
 32 31  1  0  0  0  0
 32 26  1  0  0  0  0
 33 32  2  0  0  0  0
 34 31  1  0  0  0  0
M  END
>  <minimizedAffinity>
-6.20163059

>  <minimizedRMSD>
1.05903745

$$$$
