
 OpenBabel03272506443D

 33 35  0  0  1  0  0  0  0  0999 V2000
   32.2220   28.1550   47.6010 C   0  0  2  0  0  0  0  0  0  0  0  0
   33.5170   28.1330   48.3980 C   0  0  1  0  0  0  0  0  0  0  0  0
   34.0730   26.8960   48.2660 O   0  0  0  0  0  0  0  0  0  0  0  0
   33.3830   26.1900   47.3070 C   0  0  0  0  0  0  0  0  0  0  0  0
   32.6250   27.2280   46.4620 C   0  0  1  0  0  0  0  0  0  0  0  0
   31.4140   27.7070   48.1960 H   0  0  0  0  0  0  0  0  0  0  0  0
   33.3230   28.4560   49.4310 H   0  0  0  0  0  0  0  0  0  0  0  0
   34.0380   25.5510   46.6990 H   0  0  0  0  0  0  0  0  0  0  0  0
   32.5910   25.6090   47.8390 H   0  0  0  0  0  0  0  0  0  0  0  0
   33.3770   27.7180   45.8490 H   0  0  0  0  0  0  0  0  0  0  0  0
   31.9290   29.4400   47.1540 O   0  0  0  0  0  0  0  0  0  0  0  0
   32.5660   29.6570   46.4270 H   0  0  0  0  0  0  0  0  0  0  0  0
   34.6330   29.3490   47.6000 S   0  0  0  0  0  0  0  0  0  0  0  0
   37.2680   29.3040   50.5630 C   0  0  0  0  0  0  0  0  0  0  0  0
   37.7350   30.6190   50.6480 C   0  0  0  0  0  0  0  0  0  0  0  0
   37.2070   31.5640   49.7420 C   0  0  0  0  0  0  0  0  0  0  0  0
   36.2840   31.1440   48.8490 N   0  0  0  0  0  0  0  0  0  0  0  0
   35.8540   29.8660   48.7940 C   0  0  0  0  0  0  0  0  0  0  0  0
   36.3390   28.9480   49.6420 N   0  0  0  0  0  0  0  0  0  0  0  0
   37.6400   28.5420   51.2340 H   0  0  0  0  0  0  0  0  0  0  0  0
   38.4640   30.8970   51.3710 H   0  0  0  0  0  0  0  0  0  0  0  0
   37.5400   32.5950   49.7700 H   0  0  0  0  0  0  0  0  0  0  0  0
   31.5540   26.6340   45.8460 O   0  0  0  0  0  0  0  0  0  0  0  0
   31.6450   26.5760   41.3300 H   0  0  0  0  0  0  0  0  0  0  0  0
   31.1970   26.9310   42.1900 N   0  0  0  0  0  0  0  0  0  0  0  0
   31.7390   26.4950   43.3360 C   0  0  0  0  0  3  0  0  0  0  0  0
   31.2050   26.9170   44.5330 C   0  0  0  0  0  0  0  0  0  0  0  0
   30.1140   27.7870   44.5210 C   0  0  0  0  0  0  0  0  0  0  0  0
   29.4990   28.2750   45.5090 O   0  0  0  0  0  0  0  0  0  0  0  0
   29.5750   28.2220   43.3450 N   0  0  0  0  0  0  0  0  0  0  0  0
   30.1340   27.7790   42.1810 C   0  0  0  0  0  0  0  0  0  0  0  0
   29.6950   28.1340   41.0600 O   0  0  0  0  0  0  0  0  0  0  0  0
   28.7770   28.8590   43.2490 H   0  0  0  0  0  0  0  0  0  0  0  0
  1  6  1  1  0  0  0
  1  2  1  0  0  0  0
  2  7  1  1  0  0  0
  3  2  1  0  0  0  0
  4  9  1  0  0  0  0
  4  3  1  0  0  0  0
  5 10  1  6  0  0  0
  5  4  1  0  0  0  0
  5  1  1  0  0  0  0
  8  4  1  0  0  0  0
 11  1  1  0  0  0  0
 12 11  1  0  0  0  0
 13  2  1  0  0  0  0
 13 18  1  0  0  0  0
 14 15  1  0  0  0  0
 14 20  1  0  0  0  0
 15 21  1  0  0  0  0
 16 22  1  0  0  0  0
 16 15  2  0  0  0  0
 17 16  1  0  0  0  0
 18 17  2  0  0  0  0
 18 19  1  0  0  0  0
 19 14  2  0  0  0  0
 23  5  1  0  0  0  0
 24 25  1  0  0  0  0
 25 26  1  0  0  0  0
 26 27  2  0  0  0  0
 27 23  1  0  0  0  0
 28 27  1  0  0  0  0
 28 29  2  0  0  0  0
 30 28  1  0  0  0  0
 31 25  1  0  0  0  0
 31 30  1  0  0  0  0
 32 31  2  0  0  0  0
 33 30  1  0  0  0  0
M  END
>  <minimizedAffinity>
-3.81366515

>  <minimizedRMSD>
1.38867521

$$$$
