
 OpenBabel03272502313D

 28 29  0  0  1  0  0  0  0  0999 V2000
   37.2530   30.3360   48.4560 C   0  0  2  0  0  0  0  0  0  0  0  0
   37.6090   29.2750   48.4780 H   0  0  0  0  0  0  0  0  0  0  0  0
   38.1930   31.0950   47.6380 N   0  0  0  0  0  0  0  0  0  0  0  0
   38.6980   30.5380   46.5350 C   0  0  0  0  0  3  0  0  0  0  0  0
   39.4910   31.4170   45.7740 C   0  0  0  0  0  0  0  0  0  0  0  0
   39.9420   31.0440   44.8450 H   0  0  0  0  0  0  0  0  0  0  0  0
   39.6770   32.7440   46.2140 C   0  0  0  0  0  0  0  0  0  0  0  0
   40.3680   33.5340   45.5510 O   0  0  0  0  0  0  0  0  0  0  0  0
   39.1160   33.1670   47.3420 N   0  0  0  0  0  0  0  0  0  0  0  0
   38.3660   32.3430   48.0690 C   0  0  0  0  0  0  0  0  0  0  0  0
   37.8550   32.8120   49.1400 O   0  0  0  0  0  0  0  0  0  0  0  0
   39.2500   34.1680   47.6800 H   0  0  0  0  0  0  0  0  0  0  0  0
   35.1060   29.3680   47.9820 C   0  0  0  0  0  3  0  0  0  0  0  0
   35.9180   30.3850   47.7680 C   0  0  0  0  0  3  0  0  0  0  0  0
   32.1300   30.2990   45.9360 C   0  0  0  0  0  0  0  0  0  0  0  0
   33.4040   30.2960   46.5120 C   0  0  0  0  0  0  0  0  0  0  0  0
   33.7970   29.3100   47.4020 C   0  0  0  0  0  0  0  0  0  0  0  0
   32.8860   28.3370   47.6910 N   0  0  0  0  0  0  0  0  0  0  0  0
   31.6620   28.3490   47.1310 C   0  0  0  0  0  0  0  0  0  0  0  0
   31.2890   29.3180   46.2680 N   0  0  0  0  0  0  0  0  0  0  0  0
   31.8560   31.1030   45.2410 H   0  0  0  0  0  0  0  0  0  0  0  0
   34.0100   31.1210   46.1900 H   0  0  0  0  0  0  0  0  0  0  0  0
   30.9230   27.5840   47.3430 H   0  0  0  0  0  0  0  0  0  0  0  0
   37.0580   31.0360   50.1270 S   0  0  0  0  0  0  0  0  0  0  0  0
   36.9730   29.7290   51.3530 C   0  0  0  0  0  0  0  0  0  0  0  0
   37.5570   30.0480   52.5590 F   0  0  0  0  0  0  0  0  0  0  0  0
   35.6600   29.2780   51.5080 F   0  0  0  0  0  0  0  0  0  0  0  0
   37.6610   28.6160   50.7940 F   0  0  0  0  0  0  0  0  0  0  0  0
  1  2  1  1  0  0  0
  1 24  1  0  0  0  0
  3 10  1  0  0  0  0
  3  1  1  0  0  0  0
  4  3  1  0  0  0  0
  5  7  1  0  0  0  0
  5  4  2  0  0  0  0
  6  5  1  0  0  0  0
  7  9  1  0  0  0  0
  8  7  2  0  0  0  0
  9 12  1  0  0  0  0
  9 10  1  0  0  0  0
 10 11  2  0  0  0  0
 14 13  2  0  0  0  0
 14  1  1  0  0  0  0
 15 20  2  0  0  0  0
 15 16  1  0  0  0  0
 16 17  2  0  0  0  0
 17 18  1  0  0  0  0
 17 13  1  0  0  0  0
 19 23  1  0  0  0  0
 19 18  2  0  0  0  0
 20 19  1  0  0  0  0
 21 15  1  0  0  0  0
 22 16  1  0  0  0  0
 24 25  1  0  0  0  0
 25 27  1  0  0  0  0
 25 26  1  0  0  0  0
 28 25  1  0  0  0  0
M  END
>  <minimizedAffinity>
-6.48559046

>  <minimizedRMSD>
5.54687834

$$$$
