
 OpenBabel03272502313D

 28 29  0  0  1  0  0  0  0  0999 V2000
   37.2440   30.2970   48.4020 C   0  0  2  0  0  0  0  0  0  0  0  0
   37.6030   29.2370   48.4080 H   0  0  0  0  0  0  0  0  0  0  0  0
   38.1850   31.0730   47.6010 N   0  0  0  0  0  0  0  0  0  0  0  0
   38.7050   30.5310   46.4970 C   0  0  0  0  0  3  0  0  0  0  0  0
   39.4970   31.4250   45.7530 C   0  0  0  0  0  0  0  0  0  0  0  0
   39.9590   31.0640   44.8230 H   0  0  0  0  0  0  0  0  0  0  0  0
   39.6670   32.7480   46.2070 C   0  0  0  0  0  0  0  0  0  0  0  0
   40.3570   33.5500   45.5570 O   0  0  0  0  0  0  0  0  0  0  0  0
   39.0910   33.1560   47.3330 N   0  0  0  0  0  0  0  0  0  0  0  0
   38.3420   32.3180   48.0450 C   0  0  0  0  0  0  0  0  0  0  0  0
   37.8170   32.7720   49.1150 O   0  0  0  0  0  0  0  0  0  0  0  0
   39.2140   34.1550   47.6820 H   0  0  0  0  0  0  0  0  0  0  0  0
   35.0770   29.3630   47.9550 C   0  0  0  0  0  3  0  0  0  0  0  0
   35.9120   30.3540   47.7110 C   0  0  0  0  0  3  0  0  0  0  0  0
   32.1030   30.3260   45.9210 C   0  0  0  0  0  0  0  0  0  0  0  0
   33.3770   30.3130   46.4970 C   0  0  0  0  0  0  0  0  0  0  0  0
   33.7680   29.3150   47.3740 C   0  0  0  0  0  0  0  0  0  0  0  0
   32.8550   28.3410   47.6520 N   0  0  0  0  0  0  0  0  0  0  0  0
   31.6310   28.3630   47.0920 C   0  0  0  0  0  0  0  0  0  0  0  0
   31.2600   29.3430   46.2400 N   0  0  0  0  0  0  0  0  0  0  0  0
   31.8310   31.1390   45.2360 H   0  0  0  0  0  0  0  0  0  0  0  0
   33.9860   31.1400   46.1850 H   0  0  0  0  0  0  0  0  0  0  0  0
   30.8900   27.5970   47.2940 H   0  0  0  0  0  0  0  0  0  0  0  0
   37.0420   30.9690   50.0840 S   0  0  0  0  0  0  0  0  0  0  0  0
   37.0450   29.6460   51.2960 C   0  0  0  0  0  0  0  0  0  0  0  0
   37.7460   28.5250   50.9060 F   0  0  0  0  0  0  0  0  0  0  0  0
   37.4610   30.1170   52.5450 F   0  0  0  0  0  0  0  0  0  0  0  0
   35.6830   29.2860   51.4940 F   0  0  0  0  0  0  0  0  0  0  0  0
  1  2  1  1  0  0  0
  1 24  1  0  0  0  0
  3 10  1  0  0  0  0
  3  1  1  0  0  0  0
  4  3  1  0  0  0  0
  5  7  1  0  0  0  0
  5  4  2  0  0  0  0
  6  5  1  0  0  0  0
  7  9  1  0  0  0  0
  8  7  2  0  0  0  0
  9 12  1  0  0  0  0
  9 10  1  0  0  0  0
 10 11  2  0  0  0  0
 14 13  2  0  0  0  0
 14  1  1  0  0  0  0
 15 20  2  0  0  0  0
 15 16  1  0  0  0  0
 16 17  2  0  0  0  0
 17 18  1  0  0  0  0
 17 13  1  0  0  0  0
 19 23  1  0  0  0  0
 19 18  2  0  0  0  0
 20 19  1  0  0  0  0
 21 15  1  0  0  0  0
 22 16  1  0  0  0  0
 24 25  1  0  0  0  0
 25 28  1  0  0  0  0
 25 27  1  0  0  0  0
 26 25  1  0  0  0  0
M  END
>  <minimizedAffinity>
-6.43909931

>  <minimizedRMSD>
5.61691999

$$$$
