REMARK  Name = 
REMARK  5 active torsions:
REMARK  status: ('A' for Active; 'I' for Inactive)
REMARK    1  A    between atoms: C_1  and  C_5
REMARK    2  A    between atoms: C_2  and  C_9
REMARK    3  A    between atoms: C_9  and  S_10
REMARK    4  A    between atoms: C_9  and  N_21
REMARK    5  A    between atoms: S_10  and  C_11
REMARK                            x       y       z     vdW  Elec       q    Type
REMARK                         _______ _______ _______ _____ _____    ______ ____
ROOT
ATOM      1  C   UNL     1      37.358  32.482  49.842  0.00  0.00    +0.000 C 
ATOM      2  H   UNL     1      38.006  32.474  50.755  0.00  0.00    +0.000 HD
ENDROOT
BRANCH   1   3
ATOM      3  N   UNL     1      36.529  33.681  49.904  0.00  0.00    +0.000 N 
ATOM      4  C   UNL     1      35.559  33.756  50.819  0.00  0.00    +0.000 A 
ATOM      5  C   UNL     1      34.917  35.008  50.854  0.00  0.00    +0.000 A 
ATOM      6  H   UNL     1      34.109  35.162  51.584  0.00  0.00    +0.000 HD
ATOM      7  C   UNL     1      35.329  36.026  49.971  0.00  0.00    +0.000 A 
ATOM      8  O   UNL     1      34.778  37.139  49.994  0.00  0.00    +0.000 OA
ATOM      9  N   UNL     1      36.312  35.812  49.102  0.00  0.00    +0.000 N 
ATOM     10  C   UNL     1      36.923  34.631  49.060  0.00  0.00    +0.000 A 
ATOM     11  O   UNL     1      37.859  34.489  48.204  0.00  0.00    +0.000 OA
ATOM     12  H   UNL     1      36.630  36.576  48.432  0.00  0.00    +0.000 HD
ENDBRANCH   1   3
BRANCH   1  14
ATOM     13  C   UNL     1      38.255  31.571  47.808  0.00  0.00    +0.000 C 
ATOM     14  C   UNL     1      38.234  32.604  48.628  0.00  0.00    +0.000 C 
BRANCH  13  17
ATOM     15  C   UNL     1      40.531  32.764  45.105  0.00  0.00    +0.000 A 
ATOM     16  C   UNL     1      39.774  32.699  46.279  0.00  0.00    +0.000 A 
ATOM     17  C   UNL     1      39.033  31.575  46.605  0.00  0.00    +0.000 A 
ATOM     18  N   UNL     1      39.075  30.530  45.730  0.00  0.00    +0.000 NA
ATOM     19  C   UNL     1      39.807  30.602  44.603  0.00  0.00    +0.000 A 
ATOM     20  N   UNL     1      40.523  31.705  44.294  0.00  0.00    +0.000 NA
ATOM     21  H   UNL     1      41.099  33.676  44.881  0.00  0.00    +0.000 HD
ATOM     22  H   UNL     1      39.839  33.594  46.868  0.00  0.00    +0.000 HD
ATOM     23  H   UNL     1      39.859  29.782  43.895  0.00  0.00    +0.000 HD
ENDBRANCH  13  17
ENDBRANCH   1  14
BRANCH   1  24
ATOM     24  S   UNL     1      36.371  30.959  49.681  0.00  0.00    +0.000 S 
BRANCH  24  25
ATOM     25  C   UNL     1      36.742  29.822  51.019  0.00  0.00    +0.000 C 
ATOM     26  F   UNL     1      37.544  30.354  52.005  0.00  0.00    +0.000 F 
ATOM     27  F   UNL     1      35.570  29.266  51.538  0.00  0.00    +0.000 F 
ATOM     28  F   UNL     1      37.419  28.720  50.426  0.00  0.00    +0.000 F 
ENDBRANCH  24  25
ENDBRANCH   1  24
TORSDOF 5
