
 OpenBabel03272506383D

 38 40  0  0  1  0  0  0  0  0999 V2000
   34.3720   28.8290   50.0600 O   0  0  0  0  0  0  0  0  0  0  0  0
   34.1780   29.0870   48.8600 C   0  0  0  0  0  0  0  0  0  0  0  0
   34.9420   30.1020   48.1700 C   0  0  2  0  0  0  0  0  0  0  0  0
   34.4790   29.8640   46.6930 C   0  0  0  0  0  0  0  0  0  0  0  0
   33.1050   29.2920   46.8630 C   0  0  0  0  0  0  0  0  0  0  0  0
   33.1980   28.4280   48.0270 N   0  0  0  0  0  0  0  0  0  0  0  0
   34.6760   31.1420   48.4220 H   0  0  0  0  0  0  0  0  0  0  0  0
   34.4470   30.8650   46.2230 H   0  0  0  0  0  0  0  0  0  0  0  0
   35.1760   29.1940   46.1740 H   0  0  0  0  0  0  0  0  0  0  0  0
   32.9140   28.6050   46.0050 H   0  0  0  0  0  0  0  0  0  0  0  0
   32.3060   30.0250   46.8980 H   0  0  0  0  0  0  0  0  0  0  0  0
   32.4710   27.2100   48.2570 C   0  0  0  0  0  0  0  0  0  0  0  0
   32.8610   26.3940   47.6290 H   0  0  0  0  0  0  0  0  0  0  0  0
   32.6720   26.8750   49.3140 H   0  0  0  0  0  0  0  0  0  0  0  0
   31.0580   27.3080   48.1300 N   0  0  0  0  0  0  0  0  0  0  0  0
   30.5600   26.8460   46.9520 C   0  0  0  0  0  3  0  0  0  0  0  0
   29.2040   26.8750   46.6770 C   0  0  0  0  0  0  0  0  0  0  0  0
   28.8250   26.5020   45.7320 H   0  0  0  0  0  0  0  0  0  0  0  0
   28.3070   27.3850   47.6120 C   0  0  0  0  0  0  0  0  0  0  0  0
   27.0800   27.4180   47.3770 O   0  0  0  0  0  0  0  0  0  0  0  0
   28.8510   27.8320   48.7670 N   0  0  0  0  0  0  0  0  0  0  0  0
   30.1740   27.7840   48.9920 C   0  0  0  0  0  0  0  0  0  0  0  0
   30.6330   28.2100   50.0770 O   0  0  0  0  0  0  0  0  0  0  0  0
   28.2110   28.2230   49.4970 H   0  0  0  0  0  0  0  0  0  0  0  0
   36.3500   29.8640   48.1610 O   0  0  0  0  0  0  0  0  0  0  0  0
   37.1890   30.9730   48.2600 C   0  0  0  0  0  0  0  0  0  0  0  0
   37.3270   31.5390   49.5140 C   0  0  0  0  0  0  0  0  0  0  0  0
   38.1550   32.6440   49.6440 C   0  0  0  0  0  0  0  0  0  0  0  0
   38.7940   33.1200   48.5400 N   0  0  0  0  0  0  0  0  0  0  0  0
   38.6490   32.5600   47.3300 C   0  0  0  0  0  0  0  0  0  0  0  0
   37.8570   31.5060   47.2130 N   0  0  0  0  0  0  0  0  0  0  0  0
   40.2010   32.1370   45.5880 C   0  0  0  0  0  0  0  0  0  0  0  0
   40.4190   30.9370   45.9360 O   0  0  0  0  0  0  0  0  0  0  0  0
   39.3300   33.0860   46.1970 N   0  0  0  0  0  0  0  0  0  0  0  0
   36.8370   31.1830   50.3970 H   0  0  0  0  0  0  0  0  0  0  0  0
   38.2850   33.1080   50.6080 H   0  0  0  0  0  0  0  0  0  0  0  0
   40.7810   32.4170   44.7090 H   0  0  0  0  0  0  0  0  0  0  0  0
   39.2060   34.0570   45.8500 H   0  0  0  0  0  0  0  0  0  0  0  0
  2  1  2  0  0  0  0
  3  7  1  1  0  0  0
  3  2  1  0  0  0  0
  4  5  1  0  0  0  0
  4  3  1  0  0  0  0
  5 11  1  0  0  0  0
  5  6  1  0  0  0  0
  6 12  1  0  0  0  0
  6  2  1  0  0  0  0
  8  4  1  0  0  0  0
  9  4  1  0  0  0  0
 10  5  1  0  0  0  0
 12 14  1  0  0  0  0
 13 12  1  0  0  0  0
 15 12  1  0  0  0  0
 15 22  1  0  0  0  0
 16 15  1  0  0  0  0
 17 16  2  0  0  0  0
 17 19  1  0  0  0  0
 18 17  1  0  0  0  0
 19 21  1  0  0  0  0
 20 19  2  0  0  0  0
 21 22  1  0  0  0  0
 21 24  1  0  0  0  0
 22 23  2  0  0  0  0
 25  3  1  0  0  0  0
 25 26  1  0  0  0  0
 26 27  1  0  0  0  0
 27 28  2  0  0  0  0
 27 35  1  0  0  0  0
 28 36  1  0  0  0  0
 29 28  1  0  0  0  0
 30 29  2  0  0  0  0
 31 30  1  0  0  0  0
 31 26  2  0  0  0  0
 32 33  2  0  0  0  0
 32 34  1  0  0  0  0
 34 30  1  0  0  0  0
 37 32  1  0  0  0  0
 38 34  1  0  0  0  0
M  END
>  <minimizedAffinity>
-6.25042725

>  <minimizedRMSD>
1.61773574

$$$$
