REMARK  Name = 
REMARK  4 active torsions:
REMARK  status: ('A' for Active; 'I' for Inactive)
REMARK    1  A    between atoms: O_1  and  C_2
REMARK    2  A    between atoms: O_1  and  C_13
REMARK    3  A    between atoms: N_16  and  C_17
REMARK    4  A    between atoms: C_17  and  N_29
REMARK                            x       y       z     vdW  Elec       q    Type
REMARK                         _______ _______ _______ _____ _____    ______ ____
ROOT
ATOM      1  O   UNL     1      35.492  28.672  50.054  0.00  0.00    +0.000 OA
ATOM      2  C   UNL     1      35.264  29.050  48.892  0.00  0.00    +0.000 C 
ATOM      3  C   UNL     1      35.918  30.210  48.330  0.00  0.00    +0.000 C 
ATOM      4  C   UNL     1      35.469  30.104  46.834  0.00  0.00    +0.000 C 
ATOM      5  C   UNL     1      34.160  29.382  46.930  0.00  0.00    +0.000 C 
ATOM      6  N   UNL     1      34.347  28.400  47.984  0.00  0.00    +0.000 N 
ATOM      7  H   UNL     1      35.552  31.182  48.703  0.00  0.00    +0.000 HD
ATOM      8  H   UNL     1      35.334  31.145  46.486  0.00  0.00    +0.000 HD
ATOM      9  H   UNL     1      36.224  29.572  46.242  0.00  0.00    +0.000 HD
ATOM     10  H   UNL     1      34.030  28.786  45.996  0.00  0.00    +0.000 HD
ATOM     11  H   UNL     1      33.292  30.023  47.049  0.00  0.00    +0.000 HD
ENDROOT
BRANCH   6  12
ATOM     12  C   UNL     1      33.746  27.097  48.065  0.00  0.00    +0.000 C 
ATOM     13  H   UNL     1      33.667  26.637  47.068  0.00  0.00    +0.000 HD
ATOM     14  H   UNL     1      34.447  26.422  48.634  0.00  0.00    +0.000 HD
BRANCH  12  15
ATOM     15  N   UNL     1      32.498  27.041  48.743  0.00  0.00    +0.000 N 
ATOM     16  C   UNL     1      32.373  26.008  49.618  0.00  0.00    +0.000 A 
ATOM     17  C   UNL     1      31.215  25.817  50.353  0.00  0.00    +0.000 A 
ATOM     18  H   UNL     1      31.134  24.988  51.047  0.00  0.00    +0.000 HD
ATOM     19  C   UNL     1      30.140  26.689  50.212  0.00  0.00    +0.000 A 
ATOM     20  O   UNL     1      29.088  26.528  50.869  0.00  0.00    +0.000 OA
ATOM     21  N   UNL     1      30.312  27.700  49.329  0.00  0.00    +0.000 N 
ATOM     22  C   UNL     1      31.453  27.847  48.636  0.00  0.00    +0.000 A 
ATOM     23  O   UNL     1      31.569  28.798  47.830  0.00  0.00    +0.000 OA
ATOM     24  H   UNL     1      29.527  28.377  49.193  0.00  0.00    +0.000 HD
ENDBRANCH  12  15
ENDBRANCH   6  12
BRANCH   3  25
ATOM     25  O   UNL     1      37.342  30.116  48.298  0.00  0.00    +0.000 OA
BRANCH  25  26
ATOM     26  C   UNL     1      38.063  31.307  48.224  0.00  0.00    +0.000 A 
ATOM     27  C   UNL     1      38.217  32.016  49.402  0.00  0.00    +0.000 A 
ATOM     28  C   UNL     1      38.929  33.205  49.360  0.00  0.00    +0.000 A 
ATOM     29  N   UNL     1      39.444  33.621  48.170  0.00  0.00    +0.000 NA
ATOM     30  C   UNL     1      39.286  32.922  47.037  0.00  0.00    +0.000 A 
ATOM     31  N   UNL     1      38.605  31.788  47.084  0.00  0.00    +0.000 NA
ATOM     32  C   UNL     1      40.764  32.471  45.239  0.00  0.00    +0.000 C 
ATOM     33  O   UNL     1      41.130  31.343  45.689  0.00  0.00    +0.000 OA
ATOM     34  N   UNL     1      39.836  33.389  45.810  0.00  0.00    +0.000 N 
ATOM     35  H   UNL     1      37.822  31.710  50.349  0.00  0.00    +0.000 HD
ATOM     36  H   UNL     1      39.067  33.781  50.260  0.00  0.00    +0.000 HD
ATOM     37  H   UNL     1      41.256  32.711  44.296  0.00  0.00    +0.000 HD
ATOM     38  H   UNL     1      39.588  34.299  45.377  0.00  0.00    +0.000 HD
ENDBRANCH  25  26
ENDBRANCH   3  25
TORSDOF 4
