
     RDKit          3D

 49 53  0  0  0  0  0  0  0  0999 V2000
   36.9482   31.3886   47.3924 C   0  0  1  0  0  0  0  0  0  0  0  0
   38.1340   32.0016   48.0485 C   0  0  0  0  0  0  0  0  0  0  0  0
   38.4448   30.8967   47.1656 C   0  0  2  0  0  0  0  0  0  0  0  0
   39.1216   31.3731   45.9132 C   0  0  0  0  0  0  0  0  0  0  0  0
   39.6131   32.6734   46.0958 C   0  0  0  0  0  0  0  0  0  0  0  0
   40.3593   33.2679   45.1114 C   0  0  0  0  0  0  0  0  0  0  0  0
   40.6488   32.6028   43.9120 C   0  0  0  0  0  0  0  0  0  0  0  0
   40.1456   31.3166   43.7681 C   0  0  0  0  0  0  0  0  0  0  0  0
   40.3491   30.5649   42.6426 C   0  0  0  0  0  0  0  0  0  0  0  0
   39.8501   29.2933   42.4799 C   0  0  0  0  0  0  0  0  0  0  0  0
   39.1053   28.7411   43.5005 C   0  0  0  0  0  0  0  0  0  0  0  0
   38.8976   29.4955   44.6373 C   0  0  0  0  0  0  0  0  0  0  0  0
   39.4137   30.7646   44.7616 C   0  0  0  0  0  0  0  0  0  0  0  0
   34.4283   28.7651   48.3775 C   0  0  0  0  0  0  0  0  0  0  0  0
   35.1745   29.6861   47.5889 C   0  0  0  0  0  0  0  0  0  0  0  0
   36.1615   30.4127   48.1893 C   0  0  0  0  0  0  0  0  0  0  0  0
   36.3597   30.1911   49.5363 N   0  0  0  0  0  0  0  0  0  0  0  0
   35.6552   29.3244   50.2701 C   0  0  0  0  0  0  0  0  0  0  0  0
   34.6785   28.5969   49.7066 N   0  0  0  0  0  0  0  0  0  0  0  0
   35.9993   29.1844   51.7187 C   0  0  0  0  0  0  0  0  0  0  0  0
   37.3339   29.9171   51.9366 C   0  0  0  0  0  0  0  0  0  0  0  0
   36.5254   31.7002   46.4500 H   0  0  0  0  0  0  0  0  0  0  0  0
   38.1217   33.0757   47.8846 H   0  0  0  0  0  0  0  0  0  0  0  0
   38.1748   31.8071   49.1820 H   0  0  0  0  0  0  0  0  0  0  0  0
   38.4729   29.8329   47.3494 H   0  0  0  0  0  0  0  0  0  0  0  0
   39.5856   33.4149   46.8665 H   0  0  0  0  0  0  0  0  0  0  0  0
   40.8144   34.2476   45.0738 H   0  0  0  0  0  0  0  0  0  0  0  0
   41.2191   32.9478   43.0598 H   0  0  0  0  0  0  0  0  0  0  0  0
   40.9277   30.9656   41.8239 H   0  0  0  0  0  0  0  0  0  0  0  0
   40.0463   28.7470   41.5616 H   0  0  0  0  0  0  0  0  0  0  0  0
   38.6918   27.7584   43.4327 H   0  0  0  0  0  0  0  0  0  0  0  0
   38.2990   29.0355   45.4436 H   0  0  0  0  0  0  0  0  0  0  0  0
   33.6520   28.2027   47.8754 H   0  0  0  0  0  0  0  0  0  0  0  0
   34.9346   29.7802   46.5385 H   0  0  0  0  0  0  0  0  0  0  0  0
   35.2181   29.5929   52.3882 H   0  0  0  0  0  0  0  0  0  0  0  0
   36.1858   28.1009   51.8704 H   0  0  0  0  0  0  0  0  0  0  0  0
   38.0575   29.4035   51.2492 H   0  0  0  0  0  0  0  0  0  0  0  0
   37.2122   30.9350   51.5288 H   0  0  0  0  0  0  0  0  0  0  0  0
   37.7715   29.8522   53.3006 N   0  0  0  0  0  0  0  0  0  0  0  0
   38.5632   28.7904   53.6293 C   0  0  0  0  0  0  0  0  0  0  0  0
   39.0196   28.6765   54.9475 C   0  0  0  0  0  0  0  0  0  0  0  0
   39.6398   27.8836   55.2929 H   0  0  0  0  0  0  0  0  0  0  0  0
   38.5999   29.6873   55.7877 C   0  0  0  0  0  0  0  0  0  0  0  0
   39.0042   29.6048   56.9969 O   0  0  0  0  0  0  0  0  0  0  0  0
   37.8207   30.7427   55.4879 N   0  0  0  0  0  0  0  0  0  0  0  0
   37.4128   30.7949   54.1972 C   0  0  0  0  0  0  0  0  0  0  0  0
   36.6815   31.7576   53.8526 O   0  0  0  0  0  0  0  0  0  0  0  0
   38.8481   28.0367   52.9059 H   0  0  0  0  0  0  0  0  0  0  0  0
   37.5810   31.4356   56.2293 H   0  0  0  0  0  0  0  0  0  0  0  0
  1  2  1  0
  1 16  1  0
  3  1  1  0
  3  2  1  0
  4  5  2  0
  4  3  1  0
  6  5  1  0
  7  6  2  0
  8  7  1  0
  8 13  2  0
  9  8  1  0
 10  9  2  0
 10 11  1  0
 11 12  2  0
 12 13  1  0
 13  4  1  0
 14 19  2  0
 15 16  2  0
 15 14  1  0
 16 17  1  0
 17 18  2  0
 18 20  1  0
 19 18  1  0
 20 21  1  0
  1 22  1  6
  2 23  1  0
  2 24  1  0
  3 25  1  1
  5 26  1  0
  6 27  1  0
  7 28  1  0
  9 29  1  0
 10 30  1  0
 11 31  1  0
 12 32  1  0
 14 33  1  0
 15 34  1  0
 20 35  1  0
 20 36  1  0
 21 37  1  0
 21 38  1  0
 39 40  1  0
 40 41  2  0
 41 42  1  0
 41 43  1  0
 43 44  2  0
 43 45  1  0
 45 46  1  0
 46 47  2  0
 46 39  1  0
 40 48  1  0
 45 49  1  0
 21 39  1  0
M  ISO  8  22  13  23  13  24  13  25  13  26  14  27  14  28  14  29  14
M  ISO  8  30  14  31  14  32  14  33  14  34  14  35   8  36   8  37   8
M  ISO  2  38   8  42  16
M  END
>  <DihAtoms>  (1) 
19,20,38,39

>  <DihDeg>  (1) 
-90.00061662770231

$$$$
