
 OpenBabel03272506383D

 38 40  0  0  1  0  0  0  0  0999 V2000
   34.4980   28.7250   50.0300 O   0  0  0  0  0  0  0  0  0  0  0  0
   34.2480   29.0280   48.8500 C   0  0  0  0  0  0  0  0  0  0  0  0
   34.9700   30.0770   48.1670 C   0  0  2  0  0  0  0  0  0  0  0  0
   34.4430   29.8920   46.7040 C   0  0  0  0  0  0  0  0  0  0  0  0
   33.0840   29.2980   46.9140 C   0  0  0  0  0  0  0  0  0  0  0  0
   33.2370   28.3910   48.0380 N   0  0  0  0  0  0  0  0  0  0  0  0
   34.7060   31.1040   48.4720 H   0  0  0  0  0  0  0  0  0  0  0  0
   34.3810   30.9090   46.2760 H   0  0  0  0  0  0  0  0  0  0  0  0
   35.1210   29.2500   46.1290 H   0  0  0  0  0  0  0  0  0  0  0  0
   32.8600   28.6430   46.0390 H   0  0  0  0  0  0  0  0  0  0  0  0
   32.2800   30.0210   47.0130 H   0  0  0  0  0  0  0  0  0  0  0  0
   32.5320   27.1570   48.2520 C   0  0  0  0  0  0  0  0  0  0  0  0
   32.7640   26.4280   47.4600 H   0  0  0  0  0  0  0  0  0  0  0  0
   32.9290   26.6850   49.1960 H   0  0  0  0  0  0  0  0  0  0  0  0
   31.1270   27.2780   48.4260 N   0  0  0  0  0  0  0  0  0  0  0  0
   30.7480   27.8810   49.5840 C   0  0  0  0  0  3  0  0  0  0  0  0
   29.4130   28.0710   49.8990 C   0  0  0  0  0  0  0  0  0  0  0  0
   29.1290   28.5550   50.8270 H   0  0  0  0  0  0  0  0  0  0  0  0
   28.4160   27.6440   49.0260 C   0  0  0  0  0  0  0  0  0  0  0  0
   27.2070   27.8080   49.2990 O   0  0  0  0  0  0  0  0  0  0  0  0
   28.8430   27.0490   47.8880 N   0  0  0  0  0  0  0  0  0  0  0  0
   30.1490   26.8850   47.6240 C   0  0  0  0  0  0  0  0  0  0  0  0
   30.4990   26.3300   46.5570 O   0  0  0  0  0  0  0  0  0  0  0  0
   28.1250   26.7130   47.2070 H   0  0  0  0  0  0  0  0  0  0  0  0
   36.3780   29.8550   48.0850 O   0  0  0  0  0  0  0  0  0  0  0  0
   37.2120   30.9660   48.2110 C   0  0  0  0  0  0  0  0  0  0  0  0
   37.3260   31.5180   49.4740 C   0  0  0  0  0  0  0  0  0  0  0  0
   38.1480   32.6240   49.6310 C   0  0  0  0  0  0  0  0  0  0  0  0
   38.8040   33.1150   48.5430 N   0  0  0  0  0  0  0  0  0  0  0  0
   38.6820   32.5680   47.3260 C   0  0  0  0  0  0  0  0  0  0  0  0
   37.8960   31.5120   47.1830 N   0  0  0  0  0  0  0  0  0  0  0  0
   40.2650   32.1700   45.6060 C   0  0  0  0  0  0  0  0  0  0  0  0
   40.4820   30.9670   45.9440 O   0  0  0  0  0  0  0  0  0  0  0  0
   39.3810   33.1100   46.2100 N   0  0  0  0  0  0  0  0  0  0  0  0
   36.8220   31.1510   50.3440 H   0  0  0  0  0  0  0  0  0  0  0  0
   38.2590   33.0780   50.6020 H   0  0  0  0  0  0  0  0  0  0  0  0
   40.8600   32.4620   44.7400 H   0  0  0  0  0  0  0  0  0  0  0  0
   39.2590   34.0830   45.8720 H   0  0  0  0  0  0  0  0  0  0  0  0
  2  1  2  0  0  0  0
  3  7  1  1  0  0  0
  3  2  1  0  0  0  0
  4  5  1  0  0  0  0
  4  3  1  0  0  0  0
  5 11  1  0  0  0  0
  5  6  1  0  0  0  0
  6 12  1  0  0  0  0
  6  2  1  0  0  0  0
  8  4  1  0  0  0  0
  9  4  1  0  0  0  0
 10  5  1  0  0  0  0
 12 15  1  0  0  0  0
 12 14  1  0  0  0  0
 13 12  1  0  0  0  0
 15 16  1  0  0  0  0
 16 17  2  0  0  0  0
 17 18  1  0  0  0  0
 19 20  2  0  0  0  0
 19 17  1  0  0  0  0
 21 19  1  0  0  0  0
 22 21  1  0  0  0  0
 22 15  1  0  0  0  0
 23 22  2  0  0  0  0
 24 21  1  0  0  0  0
 25  3  1  0  0  0  0
 25 26  1  0  0  0  0
 26 27  1  0  0  0  0
 27 28  2  0  0  0  0
 27 35  1  0  0  0  0
 28 36  1  0  0  0  0
 29 28  1  0  0  0  0
 30 29  2  0  0  0  0
 31 30  1  0  0  0  0
 31 26  2  0  0  0  0
 32 33  2  0  0  0  0
 32 34  1  0  0  0  0
 34 30  1  0  0  0  0
 37 32  1  0  0  0  0
 38 34  1  0  0  0  0
M  END
>  <minimizedAffinity>
-6.38731718

>  <minimizedRMSD>
1.57830834

$$$$
