
     RDKit          3D

 37 39  0  0  0  0  0  0  0  0999 V2000
   39.4812   31.7973   46.5337 C   0  0  0  0  0  0  0  0  0  0  0  0
   39.7798   30.6701   45.7778 C   0  0  0  0  0  0  0  0  0  0  0  0
   40.2065   30.8277   44.5023 C   0  0  0  0  0  0  0  0  0  0  0  0
   40.3307   32.0877   43.9976 C   0  0  0  0  0  0  0  0  0  0  0  0
   40.0314   33.2040   44.7571 C   0  0  0  0  0  0  0  0  0  0  0  0
   39.6126   32.9971   46.0143 N   0  0  0  0  0  0  0  0  0  0  0  0
   40.1829   34.5832   44.1587 C   0  0  0  0  0  0  0  0  0  0  0  0
   39.0312   31.8437   47.8547 O   0  0  0  0  0  0  0  0  0  0  0  0
   38.0955   30.3684   49.4209 C   0  0  0  0  0  0  0  0  0  0  0  0
   37.9795   31.0533   48.2092 C   0  0  0  0  0  0  0  0  0  0  0  0
   36.8115   30.8773   47.4663 C   0  0  0  0  0  0  0  0  0  0  0  0
   35.8730   30.0512   47.9788 N   0  0  0  0  0  0  0  0  0  0  0  0
   36.0185   29.4259   49.1199 C   0  0  0  0  0  0  0  0  0  0  0  0
   37.1455   29.5598   49.8947 N   0  0  0  0  0  0  0  0  0  0  0  0
   34.5753   28.4075   49.4996 S   0  0  0  0  0  0  0  0  0  0  0  0
   33.5359   29.4458   50.5835 C   0  0  0  0  0  0  0  0  0  0  0  0
   39.6303   29.7346   46.3217 H   0  0  0  0  0  0  0  0  0  0  0  0
   40.4254   29.9120   43.9579 H   0  0  0  0  0  0  0  0  0  0  0  0
   40.6723   32.2181   42.9778 H   0  0  0  0  0  0  0  0  0  0  0  0
   40.4278   35.3025   44.9578 H   0  0  0  0  0  0  0  0  0  0  0  0
   41.0684   34.5028   43.4745 H   0  0  0  0  0  0  0  0  0  0  0  0
   39.2969   34.8577   43.5686 H   0  0  0  0  0  0  0  0  0  0  0  0
   38.9569   30.4223   50.0913 H   0  0  0  0  0  0  0  0  0  0  0  0
   36.7338   31.4147   46.5272 H   0  0  0  0  0  0  0  0  0  0  0  0
   34.1126   29.8102   51.4550 H   0  0  0  0  0  0  0  0  0  0  0  0
   32.6349   28.8663   50.8898 H   0  0  0  0  0  0  0  0  0  0  0  0
   33.0803   30.5622   49.7775 N   0  0  0  0  0  0  0  0  0  0  0  0
   33.3317   31.8727   50.0388 C   0  0  0  0  0  0  0  0  0  0  0  0
   32.8381   32.8381   49.1891 C   0  0  0  0  0  0  0  0  0  0  0  0
   33.0503   33.8950   49.4153 H   0  0  0  0  0  0  0  0  0  0  0  0
   32.0908   32.5558   48.0682 C   0  0  0  0  0  0  0  0  0  0  0  0
   31.6350   33.4240   47.2856 O   0  0  0  0  0  0  0  0  0  0  0  0
   31.8548   31.2560   47.8297 N   0  0  0  0  0  0  0  0  0  0  0  0
   32.3386   30.3032   48.6633 C   0  0  0  0  0  0  0  0  0  0  0  0
   32.0904   29.0888   48.3972 O   0  0  0  0  0  0  0  0  0  0  0  0
   33.9186   32.0737   50.9212 H   0  0  0  0  0  0  0  0  0  0  0  0
   31.2896   30.9214   46.9939 H   0  0  0  0  0  0  0  0  0  0  0  0
  1  8  1  0
  2  1  2  0
  3  2  1  0
  4  3  2  0
  4  5  1  0
  5  6  2  0
  6  1  1  0
  7  5  1  0
  8 10  1  0
  9 14  2  0
 10  9  1  0
 11 12  1  0
 11 10  2  0
 12 13  2  0
 13 15  1  0
 13 14  1  0
 15 16  1  0
  2 17  1  0
  3 18  1  0
  4 19  1  0
  7 20  1  0
  7 21  1  0
  7 22  1  0
  9 23  1  0
 11 24  1  0
 16 25  1  0
 16 26  1  0
 27 28  1  0
 28 29  2  0
 29 30  1  0
 29 31  1  0
 31 32  2  0
 31 33  1  0
 33 34  1  0
 34 35  2  0
 34 27  1  0
 28 36  1  0
 33 37  1  0
 16 27  1  0
M  ISO  8  17  14  18  14  19  14  20   8  21   8  22   8  23  14  24  14
M  ISO  3  25   8  26   8  30  16
M  END
>  <DihAtoms>  (1) 
14,15,26,27

>  <DihDeg>  (1) 
-90.0283965700736

$$$$
