
 OpenBabel03272509363D

 48 52  0  0  1  0  0  0  0  0999 V2000
   35.2320   29.6070   33.6490 C   0  0  1  0  0  0  0  0  0  0  0  0
   33.9350   29.2730   33.0020 C   0  0  0  0  0  0  0  0  0  0  0  0
   33.9510   29.0880   34.4380 C   0  0  2  0  0  0  0  0  0  0  0  0
   35.5130   30.5800   34.0200 H   0  0  0  0  0  0  0  0  0  0  0  0
   33.6140   30.1070   32.3850 H   0  0  0  0  0  0  0  0  0  0  0  0
   33.9880   28.3320   32.3420 H   0  0  0  0  0  0  0  0  0  0  0  0
   34.2540   28.2420   35.0380 H   0  0  0  0  0  0  0  0  0  0  0  0
   33.1250   30.1320   35.1320 C   0  0  0  0  0  0  0  0  0  0  0  0
   31.7630   29.8200   35.0220 C   0  0  0  0  0  0  0  0  0  0  0  0
   30.8300   30.5870   35.6720 C   0  0  0  0  0  0  0  0  0  0  0  0
   31.2060   31.6870   36.4550 C   0  0  0  0  0  0  0  0  0  0  0  0
   32.5640   31.9640   36.5410 C   0  0  0  0  0  0  0  0  0  0  0  0
   33.0610   33.0140   37.2640 C   0  0  0  0  0  0  0  0  0  0  0  0
   34.4020   33.3080   37.3520 C   0  0  0  0  0  0  0  0  0  0  0  0
   35.2990   32.5060   36.6780 C   0  0  0  0  0  0  0  0  0  0  0  0
   34.8030   31.4460   35.9480 C   0  0  0  0  0  0  0  0  0  0  0  0
   33.4530   31.1840   35.8840 C   0  0  0  0  0  0  0  0  0  0  0  0
   31.1720   29.0710   34.5380 H   0  0  0  0  0  0  0  0  0  0  0  0
   29.7530   30.5010   35.7030 H   0  0  0  0  0  0  0  0  0  0  0  0
   30.5840   32.3700   37.0170 H   0  0  0  0  0  0  0  0  0  0  0  0
   32.3870   33.6620   37.8050 H   0  0  0  0  0  0  0  0  0  0  0  0
   34.7340   34.1570   37.9430 H   0  0  0  0  0  0  0  0  0  0  0  0
   36.3520   32.6830   36.7080 H   0  0  0  0  0  0  0  0  0  0  0  0
   35.5370   30.8140   35.4150 H   0  0  0  0  0  0  0  0  0  0  0  0
   37.7790   27.1440   32.3640 C   0  0  0  0  0  0  0  0  0  0  0  0
   36.7610   28.1390   32.3880 C   0  0  0  0  0  0  0  0  0  0  0  0
   36.3020   28.5780   33.5960 C   0  0  0  0  0  0  0  0  0  0  0  0
   36.8740   28.0130   34.7170 N   0  0  0  0  0  0  0  0  0  0  0  0
   37.8300   27.0790   34.6860 C   0  0  0  0  0  0  0  0  0  0  0  0
   38.2990   26.6270   33.5130 N   0  0  0  0  0  0  0  0  0  0  0  0
   38.1220   26.8140   31.3920 H   0  0  0  0  0  0  0  0  0  0  0  0
   36.3830   28.5150   31.4460 H   0  0  0  0  0  0  0  0  0  0  0  0
   38.3630   26.5730   35.9890 C   0  0  0  0  0  0  0  0  0  0  0  0
   39.4670   26.4950   36.0020 H   0  0  0  0  0  0  0  0  0  0  0  0
   37.9610   27.2660   36.7560 H   0  0  0  0  0  0  0  0  0  0  0  0
   37.7220   25.1950   36.2320 C   0  0  0  0  0  0  0  0  0  0  0  0
   36.9560   25.3730   37.0320 H   0  0  0  0  0  0  0  0  0  0  0  0
   37.1460   24.9440   35.3240 H   0  0  0  0  0  0  0  0  0  0  0  0
   38.6850   24.2130   36.6370 N   0  0  0  0  0  0  0  0  0  0  0  0
   39.7110   23.9820   35.7690 C   0  0  0  0  0  3  0  0  0  0  0  0
   40.6820   23.0330   36.1120 C   0  0  0  0  0  0  0  0  0  0  0  0
   41.5150   22.7890   35.4980 H   0  0  0  0  0  0  0  0  0  0  0  0
   40.4760   22.4230   37.3330 C   0  0  0  0  0  0  0  0  0  0  0  0
   41.3490   21.5520   37.6690 O   0  0  0  0  0  0  0  0  0  0  0  0
   39.4730   22.6320   38.2050 N   0  0  0  0  0  0  0  0  0  0  0  0
   38.5690   23.5620   37.8130 C   0  0  0  0  0  0  0  0  0  0  0  0
   37.6070   23.8050   38.5840 O   0  0  0  0  0  0  0  0  0  0  0  0
   39.4430   22.0940   39.0980 H   0  0  0  0  0  0  0  0  0  0  0  0
  1  4  1  1  0  0  0
  1  3  1  0  0  0  0
  2  1  1  0  0  0  0
  2  3  1  0  0  0  0
  3  7  1  1  0  0  0
  3  8  1  0  0  0  0
  5  2  1  0  0  0  0
  6  2  1  0  0  0  0
  8 17  1  0  0  0  0
  9  8  2  0  0  0  0
  9 10  1  0  0  0  0
 10 19  1  0  0  0  0
 10 11  2  0  0  0  0
 11 12  1  0  0  0  0
 11 20  1  0  0  0  0
 12 13  1  0  0  0  0
 13 14  2  0  0  0  0
 13 21  1  0  0  0  0
 14 22  1  0  0  0  0
 15 23  1  0  0  0  0
 15 14  1  0  0  0  0
 16 15  2  0  0  0  0
 17 16  1  0  0  0  0
 17 12  2  0  0  0  0
 18  9  1  0  0  0  0
 24 16  1  0  0  0  0
 25 26  2  0  0  0  0
 25 30  1  0  0  0  0
 26 27  1  0  0  0  0
 27  1  1  0  0  0  0
 27 28  2  0  0  0  0
 29 28  1  0  0  0  0
 29 33  1  0  0  0  0
 30 29  2  0  0  0  0
 31 25  1  0  0  0  0
 32 26  1  0  0  0  0
 33 34  1  0  0  0  0
 33 36  1  0  0  0  0
 33 35  1  0  0  0  0
 36 39  1  0  0  0  0
 36 37  1  0  0  0  0
 38 36  1  0  0  0  0
 39 46  1  0  0  0  0
 40 41  2  0  0  0  0
 40 39  1  0  0  0  0
 41 43  1  0  0  0  0
 42 41  1  0  0  0  0
 43 44  2  0  0  0  0
 43 45  1  0  0  0  0
 45 48  1  0  0  0  0
 46 45  1  0  0  0  0
 46 47  2  0  0  0  0
M  END
>  <minimizedAffinity>
-7.30068493

$$$$

 OpenBabel03272509363D

 48 52  0  0  1  0  0  0  0  0999 V2000
   36.9530   24.2240   31.1240 C   0  0  1  0  0  0  0  0  0  0  0  0
   38.1670   23.9950   30.2940 C   0  0  0  0  0  0  0  0  0  0  0  0
   38.0700   23.1400   31.4590 C   0  0  2  0  0  0  0  0  0  0  0  0
   36.0030   23.7320   30.9890 H   0  0  0  0  0  0  0  0  0  0  0  0
   37.8730   23.8430   29.2600 H   0  0  0  0  0  0  0  0  0  0  0  0
   38.9150   24.8690   30.3360 H   0  0  0  0  0  0  0  0  0  0  0  0
   38.3860   23.2970   32.4790 H   0  0  0  0  0  0  0  0  0  0  0  0
   37.7620   21.7220   31.0700 C   0  0  0  0  0  0  0  0  0  0  0  0
   38.5080   21.3610   29.9390 C   0  0  0  0  0  0  0  0  0  0  0  0
   38.4590   20.0730   29.4710 C   0  0  0  0  0  0  0  0  0  0  0  0
   37.6770   19.0950   30.1000 C   0  0  0  0  0  0  0  0  0  0  0  0
   36.9530   19.4910   31.2170 C   0  0  0  0  0  0  0  0  0  0  0  0
   36.1440   18.6370   31.9150 C   0  0  0  0  0  0  0  0  0  0  0  0
   35.4130   19.0150   33.0180 C   0  0  0  0  0  0  0  0  0  0  0  0
   35.4960   20.3230   33.4480 C   0  0  0  0  0  0  0  0  0  0  0  0
   36.3110   21.1880   32.7480 C   0  0  0  0  0  0  0  0  0  0  0  0
   37.0270   20.7710   31.6480 C   0  0  0  0  0  0  0  0  0  0  0  0
   39.1880   21.8420   29.2680 H   0  0  0  0  0  0  0  0  0  0  0  0
   38.9570   19.6170   28.6260 H   0  0  0  0  0  0  0  0  0  0  0  0
   37.5470   18.0530   29.8410 H   0  0  0  0  0  0  0  0  0  0  0  0
   36.0550   17.6060   31.6060 H   0  0  0  0  0  0  0  0  0  0  0  0
   34.7880   18.2890   33.5290 H   0  0  0  0  0  0  0  0  0  0  0  0
   34.9530   20.6750   34.2980 H   0  0  0  0  0  0  0  0  0  0  0  0
   36.3650   22.2310   33.1080 H   0  0  0  0  0  0  0  0  0  0  0  0
   36.4140   27.6120   32.6850 C   0  0  0  0  0  0  0  0  0  0  0  0
   36.3570   26.5310   31.7600 C   0  0  0  0  0  0  0  0  0  0  0  0
   36.9880   25.3630   32.0760 C   0  0  0  0  0  0  0  0  0  0  0  0
   37.6400   25.3230   33.2910 N   0  0  0  0  0  0  0  0  0  0  0  0
   37.6900   26.3420   34.1560 C   0  0  0  0  0  0  0  0  0  0  0  0
   37.0800   27.5020   33.8700 N   0  0  0  0  0  0  0  0  0  0  0  0
   35.9060   28.5250   32.4080 H   0  0  0  0  0  0  0  0  0  0  0  0
   35.8150   26.6710   30.8340 H   0  0  0  0  0  0  0  0  0  0  0  0
   38.4260   26.1400   35.4420 C   0  0  0  0  0  0  0  0  0  0  0  0
   39.5110   25.9800   35.2960 H   0  0  0  0  0  0  0  0  0  0  0  0
   38.1910   27.0340   36.0550 H   0  0  0  0  0  0  0  0  0  0  0  0
   37.7900   24.9240   36.1380 C   0  0  0  0  0  0  0  0  0  0  0  0
   37.2130   25.3560   36.9970 H   0  0  0  0  0  0  0  0  0  0  0  0
   37.0310   24.5190   35.4470 H   0  0  0  0  0  0  0  0  0  0  0  0
   38.7730   23.9820   36.5880 N   0  0  0  0  0  0  0  0  0  0  0  0
   39.7700   23.6840   35.7050 C   0  0  0  0  0  3  0  0  0  0  0  0
   40.7580   22.7700   36.0900 C   0  0  0  0  0  0  0  0  0  0  0  0
   41.5700   22.4790   35.4690 H   0  0  0  0  0  0  0  0  0  0  0  0
   40.5990   22.2610   37.3630 C   0  0  0  0  0  0  0  0  0  0  0  0
   41.4890   21.4240   37.7380 O   0  0  0  0  0  0  0  0  0  0  0  0
   39.6260   22.5380   38.2510 N   0  0  0  0  0  0  0  0  0  0  0  0
   38.7030   23.4290   37.8160 C   0  0  0  0  0  0  0  0  0  0  0  0
   37.7670   23.7310   38.5990 O   0  0  0  0  0  0  0  0  0  0  0  0
   39.6320   22.0750   39.1850 H   0  0  0  0  0  0  0  0  0  0  0  0
  1  4  1  6  0  0  0
  1  3  1  0  0  0  0
  1 27  1  0  0  0  0
  2  6  1  0  0  0  0
  2  1  1  0  0  0  0
  2  3  1  0  0  0  0
  3  7  1  1  0  0  0
  5  2  1  0  0  0  0
  8  3  1  0  0  0  0
  8 17  1  0  0  0  0
  9  8  2  0  0  0  0
 10  9  1  0  0  0  0
 10 11  2  0  0  0  0
 11 12  1  0  0  0  0
 12 17  2  0  0  0  0
 12 13  1  0  0  0  0
 13 14  2  0  0  0  0
 14 15  1  0  0  0  0
 14 22  1  0  0  0  0
 15 23  1  0  0  0  0
 16 24  1  0  0  0  0
 16 15  2  0  0  0  0
 17 16  1  0  0  0  0
 18  9  1  0  0  0  0
 19 10  1  0  0  0  0
 20 11  1  0  0  0  0
 21 13  1  0  0  0  0
 25 30  1  0  0  0  0
 26 27  1  0  0  0  0
 26 25  2  0  0  0  0
 27 28  2  0  0  0  0
 28 29  1  0  0  0  0
 29 33  1  0  0  0  0
 30 29  2  0  0  0  0
 31 25  1  0  0  0  0
 32 26  1  0  0  0  0
 33 35  1  0  0  0  0
 33 36  1  0  0  0  0
 34 33  1  0  0  0  0
 36 39  1  0  0  0  0
 36 37  1  0  0  0  0
 38 36  1  0  0  0  0
 39 46  1  0  0  0  0
 40 41  2  0  0  0  0
 40 39  1  0  0  0  0
 41 43  1  0  0  0  0
 42 41  1  0  0  0  0
 43 44  2  0  0  0  0
 43 45  1  0  0  0  0
 45 48  1  0  0  0  0
 46 45  1  0  0  0  0
 46 47  2  0  0  0  0
M  END
>  <minimizedAffinity>
-7.09822559

$$$$

 OpenBabel03272509363D

 48 52  0  0  1  0  0  0  0  0999 V2000
   35.8970   29.3640   33.4060 C   0  0  1  0  0  0  0  0  0  0  0  0
   34.4390   29.5260   33.1610 C   0  0  0  0  0  0  0  0  0  0  0  0
   34.7940   29.3580   34.5540 C   0  0  2  0  0  0  0  0  0  0  0  0
   36.5940   30.1690   33.5800 H   0  0  0  0  0  0  0  0  0  0  0  0
   34.2700   30.4140   32.5590 H   0  0  0  0  0  0  0  0  0  0  0  0
   33.9690   28.6250   32.6180 H   0  0  0  0  0  0  0  0  0  0  0  0
   34.9380   28.4650   35.1440 H   0  0  0  0  0  0  0  0  0  0  0  0
   34.6200   30.6390   35.3190 C   0  0  0  0  0  0  0  0  0  0  0  0
   35.8490   31.3040   35.4300 C   0  0  0  0  0  0  0  0  0  0  0  0
   35.9050   32.5480   36.0040 C   0  0  0  0  0  0  0  0  0  0  0  0
   34.7520   33.1820   36.4870 C   0  0  0  0  0  0  0  0  0  0  0  0
   33.5540   32.4920   36.3590 C   0  0  0  0  0  0  0  0  0  0  0  0
   32.3600   32.9950   36.7990 C   0  0  0  0  0  0  0  0  0  0  0  0
   31.1650   32.3220   36.6890 C   0  0  0  0  0  0  0  0  0  0  0  0
   31.1640   31.0720   36.1040 C   0  0  0  0  0  0  0  0  0  0  0  0
   32.3650   30.5610   35.6590 C   0  0  0  0  0  0  0  0  0  0  0  0
   33.5400   31.2670   35.7880 C   0  0  0  0  0  0  0  0  0  0  0  0
   36.8660   31.1120   35.1570 H   0  0  0  0  0  0  0  0  0  0  0  0
   36.7480   33.2030   36.1730 H   0  0  0  0  0  0  0  0  0  0  0  0
   34.6510   34.1510   36.9570 H   0  0  0  0  0  0  0  0  0  0  0  0
   32.3240   33.9710   37.2620 H   0  0  0  0  0  0  0  0  0  0  0  0
   30.2510   32.7750   37.0580 H   0  0  0  0  0  0  0  0  0  0  0  0
   30.2690   30.5020   35.9900 H   0  0  0  0  0  0  0  0  0  0  0  0
   32.3430   29.5590   35.1930 H   0  0  0  0  0  0  0  0  0  0  0  0
   36.6310   25.9680   31.9470 C   0  0  0  0  0  0  0  0  0  0  0  0
   36.0690   27.2640   32.1250 C   0  0  0  0  0  0  0  0  0  0  0  0
   36.4760   28.0130   33.1900 C   0  0  0  0  0  0  0  0  0  0  0  0
   37.4180   27.4450   34.0220 N   0  0  0  0  0  0  0  0  0  0  0  0
   37.9420   26.2270   33.8480 C   0  0  0  0  0  0  0  0  0  0  0  0
   37.5600   25.4670   32.8110 N   0  0  0  0  0  0  0  0  0  0  0  0
   36.2900   25.3960   31.0940 H   0  0  0  0  0  0  0  0  0  0  0  0
   35.3360   27.6120   31.4100 H   0  0  0  0  0  0  0  0  0  0  0  0
   38.9670   25.7540   34.8300 C   0  0  0  0  0  0  0  0  0  0  0  0
   39.8270   25.2520   34.3450 H   0  0  0  0  0  0  0  0  0  0  0  0
   39.2520   26.6560   35.4090 H   0  0  0  0  0  0  0  0  0  0  0  0
   38.2540   24.7910   35.7950 C   0  0  0  0  0  0  0  0  0  0  0  0
   37.8110   25.4550   36.5840 H   0  0  0  0  0  0  0  0  0  0  0  0
   37.3940   24.3680   35.2500 H   0  0  0  0  0  0  0  0  0  0  0  0
   39.1530   23.8290   36.3630 N   0  0  0  0  0  0  0  0  0  0  0  0
   40.2350   23.4940   35.6020 C   0  0  0  0  0  3  0  0  0  0  0  0
   41.1470   22.5590   36.1070 C   0  0  0  0  0  0  0  0  0  0  0  0
   42.0160   22.2380   35.5840 H   0  0  0  0  0  0  0  0  0  0  0  0
   40.8300   22.0700   37.3580 C   0  0  0  0  0  0  0  0  0  0  0  0
   41.6480   21.2150   37.8400 O   0  0  0  0  0  0  0  0  0  0  0  0
   39.7710   22.3840   38.1260 N   0  0  0  0  0  0  0  0  0  0  0  0
   38.9280   23.2940   37.5810 C   0  0  0  0  0  0  0  0  0  0  0  0
   37.9180   23.6310   38.2490 O   0  0  0  0  0  0  0  0  0  0  0  0
   39.6570   21.9330   39.0600 H   0  0  0  0  0  0  0  0  0  0  0  0
  1  4  1  6  0  0  0
  1  3  1  0  0  0  0
  2  1  1  0  0  0  0
  2  3  1  0  0  0  0
  3  7  1  1  0  0  0
  3  8  1  0  0  0  0
  5  2  1  0  0  0  0
  6  2  1  0  0  0  0
  8  9  2  0  0  0  0
  8 17  1  0  0  0  0
  9 10  1  0  0  0  0
 10 19  1  0  0  0  0
 10 11  2  0  0  0  0
 11 20  1  0  0  0  0
 12 11  1  0  0  0  0
 12 13  1  0  0  0  0
 13 21  1  0  0  0  0
 14 13  2  0  0  0  0
 14 22  1  0  0  0  0
 15 14  1  0  0  0  0
 16 17  1  0  0  0  0
 16 15  2  0  0  0  0
 17 12  2  0  0  0  0
 18  9  1  0  0  0  0
 23 15  1  0  0  0  0
 24 16  1  0  0  0  0
 25 26  2  0  0  0  0
 25 30  1  0  0  0  0
 26 27  1  0  0  0  0
 27  1  1  0  0  0  0
 27 28  2  0  0  0  0
 29 28  1  0  0  0  0
 29 33  1  0  0  0  0
 30 29  2  0  0  0  0
 31 25  1  0  0  0  0
 32 26  1  0  0  0  0
 33 35  1  0  0  0  0
 33 36  1  0  0  0  0
 34 33  1  0  0  0  0
 36 39  1  0  0  0  0
 36 37  1  0  0  0  0
 38 36  1  0  0  0  0
 39 46  1  0  0  0  0
 40 41  2  0  0  0  0
 40 39  1  0  0  0  0
 41 43  1  0  0  0  0
 42 41  1  0  0  0  0
 43 44  2  0  0  0  0
 43 45  1  0  0  0  0
 45 48  1  0  0  0  0
 46 45  1  0  0  0  0
 46 47  2  0  0  0  0
M  END
>  <minimizedAffinity>
-7.03850031

$$$$

 OpenBabel03272509363D

 48 52  0  0  1  0  0  0  0  0999 V2000
   38.1640   27.2730   33.7260 C   0  0  1  0  0  0  0  0  0  0  0  0
   37.9680   27.3530   35.1980 C   0  0  0  0  0  0  0  0  0  0  0  0
   37.4320   26.1540   34.5890 C   0  0  2  0  0  0  0  0  0  0  0  0
   39.0220   26.8440   33.2320 H   0  0  0  0  0  0  0  0  0  0  0  0
   38.9200   27.5560   35.6790 H   0  0  0  0  0  0  0  0  0  0  0  0
   37.2210   28.1720   35.5110 H   0  0  0  0  0  0  0  0  0  0  0  0
   36.4720   25.9610   34.1320 H   0  0  0  0  0  0  0  0  0  0  0  0
   38.2500   24.9470   34.9490 C   0  0  0  0  0  0  0  0  0  0  0  0
   38.9060   24.4550   33.8120 C   0  0  0  0  0  0  0  0  0  0  0  0
   39.7920   23.4140   33.9300 C   0  0  0  0  0  0  0  0  0  0  0  0
   40.0630   22.8230   35.1710 C   0  0  0  0  0  0  0  0  0  0  0  0
   39.3950   23.3390   36.2730 C   0  0  0  0  0  0  0  0  0  0  0  0
   39.5630   22.8450   37.5380 C   0  0  0  0  0  0  0  0  0  0  0  0
   38.9020   23.3370   38.6400 C   0  0  0  0  0  0  0  0  0  0  0  0
   38.0210   24.3840   38.4670 C   0  0  0  0  0  0  0  0  0  0  0  0
   37.8480   24.8860   37.1940 C   0  0  0  0  0  0  0  0  0  0  0  0
   38.5280   24.3650   36.1160 C   0  0  0  0  0  0  0  0  0  0  0  0
   38.9330   24.6850   32.7670 H   0  0  0  0  0  0  0  0  0  0  0  0
   40.3810   22.9100   33.1780 H   0  0  0  0  0  0  0  0  0  0  0  0
   40.7310   22.0060   35.4070 H   0  0  0  0  0  0  0  0  0  0  0  0
   40.2450   22.0250   37.7100 H   0  0  0  0  0  0  0  0  0  0  0  0
   39.0790   22.9010   39.6190 H   0  0  0  0  0  0  0  0  0  0  0  0
   37.4790   24.8100   39.2840 H   0  0  0  0  0  0  0  0  0  0  0  0
   37.1390   25.7250   37.0760 H   0  0  0  0  0  0  0  0  0  0  0  0
   36.4570   28.7850   30.7240 C   0  0  0  0  0  0  0  0  0  0  0  0
   37.3810   28.0490   31.5190 C   0  0  0  0  0  0  0  0  0  0  0  0
   37.2080   28.0250   32.8720 C   0  0  0  0  0  0  0  0  0  0  0  0
   36.1300   28.7270   33.3700 N   0  0  0  0  0  0  0  0  0  0  0  0
   35.2660   29.4160   32.6170 C   0  0  0  0  0  0  0  0  0  0  0  0
   35.4130   29.4590   31.2840 N   0  0  0  0  0  0  0  0  0  0  0  0
   36.6200   28.7870   29.6550 H   0  0  0  0  0  0  0  0  0  0  0  0
   38.1930   27.5320   31.0230 H   0  0  0  0  0  0  0  0  0  0  0  0
   34.1360   30.1160   33.3030 C   0  0  0  0  0  0  0  0  0  0  0  0
   34.1880   31.2170   33.2040 H   0  0  0  0  0  0  0  0  0  0  0  0
   33.2150   29.6780   32.8670 H   0  0  0  0  0  0  0  0  0  0  0  0
   34.1850   29.7050   34.7850 C   0  0  0  0  0  0  0  0  0  0  0  0
   33.3160   29.0080   34.9170 H   0  0  0  0  0  0  0  0  0  0  0  0
   35.0850   29.0790   34.9150 H   0  0  0  0  0  0  0  0  0  0  0  0
   34.0910   30.8330   35.6650 N   0  0  0  0  0  0  0  0  0  0  0  0
   32.8320   31.2880   35.9270 C   0  0  0  0  0  3  0  0  0  0  0  0
   32.6790   32.3880   36.7800 C   0  0  0  0  0  0  0  0  0  0  0  0
   31.7380   32.8090   37.0400 H   0  0  0  0  0  0  0  0  0  0  0  0
   33.8640   32.8990   37.2700 C   0  0  0  0  0  0  0  0  0  0  0  0
   33.7500   33.9040   38.0510 O   0  0  0  0  0  0  0  0  0  0  0  0
   35.1150   32.4690   37.0260 N   0  0  0  0  0  0  0  0  0  0  0  0
   35.1930   31.4030   36.1940 C   0  0  0  0  0  0  0  0  0  0  0  0
   36.3360   30.9520   35.9260 O   0  0  0  0  0  0  0  0  0  0  0  0
   35.9250   32.9550   37.4690 H   0  0  0  0  0  0  0  0  0  0  0  0
  1  4  1  6  0  0  0
  1  3  1  0  0  0  0
  1  2  1  0  0  0  0
  2  6  1  0  0  0  0
  2  5  1  0  0  0  0
  3  7  1  6  0  0  0
  3  8  1  0  0  0  0
  3  2  1  0  0  0  0
  8 17  1  0  0  0  0
  9 10  1  0  0  0  0
  9  8  2  0  0  0  0
 10 11  2  0  0  0  0
 11 20  1  0  0  0  0
 11 12  1  0  0  0  0
 12 13  1  0  0  0  0
 13 21  1  0  0  0  0
 13 14  2  0  0  0  0
 14 22  1  0  0  0  0
 15 14  1  0  0  0  0
 15 23  1  0  0  0  0
 16 15  2  0  0  0  0
 17 12  2  0  0  0  0
 17 16  1  0  0  0  0
 18  9  1  0  0  0  0
 19 10  1  0  0  0  0
 24 16  1  0  0  0  0
 25 30  2  0  0  0  0
 25 26  1  0  0  0  0
 26 27  2  0  0  0  0
 27 28  1  0  0  0  0
 27  1  1  0  0  0  0
 29 33  1  0  0  0  0
 29 28  2  0  0  0  0
 30 29  1  0  0  0  0
 31 25  1  0  0  0  0
 32 26  1  0  0  0  0
 33 36  1  0  0  0  0
 34 33  1  0  0  0  0
 35 33  1  0  0  0  0
 36 38  1  0  0  0  0
 36 37  1  0  0  0  0
 36 39  1  0  0  0  0
 39 40  1  0  0  0  0
 39 46  1  0  0  0  0
 40 41  2  0  0  0  0
 41 42  1  0  0  0  0
 41 43  1  0  0  0  0
 43 44  2  0  0  0  0
 45 43  1  0  0  0  0
 45 48  1  0  0  0  0
 46 45  1  0  0  0  0
 47 46  2  0  0  0  0
M  END
>  <minimizedAffinity>
-6.97459841

$$$$

 OpenBabel03272509363D

 48 52  0  0  1  0  0  0  0  0999 V2000
   40.3280   26.7700   34.7900 C   0  0  1  0  0  0  0  0  0  0  0  0
   38.9000   26.9300   35.1750 C   0  0  0  0  0  0  0  0  0  0  0  0
   39.2740   25.5770   34.8200 C   0  0  2  0  0  0  0  0  0  0  0  0
   41.1370   26.5520   35.4680 H   0  0  0  0  0  0  0  0  0  0  0  0
   38.8400   27.4350   36.1350 H   0  0  0  0  0  0  0  0  0  0  0  0
   38.2890   27.5330   34.4080 H   0  0  0  0  0  0  0  0  0  0  0  0
   39.3080   25.0820   33.8610 H   0  0  0  0  0  0  0  0  0  0  0  0
   39.3090   24.6860   36.0280 C   0  0  0  0  0  0  0  0  0  0  0  0
   38.2170   24.9630   36.8620 C   0  0  0  0  0  0  0  0  0  0  0  0
   37.9940   24.1950   37.9760 C   0  0  0  0  0  0  0  0  0  0  0  0
   38.8370   23.1250   38.3060 C   0  0  0  0  0  0  0  0  0  0  0  0
   39.9070   22.8810   37.4560 C   0  0  0  0  0  0  0  0  0  0  0  0
   40.8080   21.8750   37.6710 C   0  0  0  0  0  0  0  0  0  0  0  0
   41.8790   21.6250   36.8440 C   0  0  0  0  0  0  0  0  0  0  0  0
   42.0590   22.4280   35.7370 C   0  0  0  0  0  0  0  0  0  0  0  0
   41.1530   23.4440   35.5160 C   0  0  0  0  0  0  0  0  0  0  0  0
   40.0940   23.6620   36.3680 C   0  0  0  0  0  0  0  0  0  0  0  0
   37.4100   25.6660   36.8820 H   0  0  0  0  0  0  0  0  0  0  0  0
   37.2170   24.2580   38.7250 H   0  0  0  0  0  0  0  0  0  0  0  0
   38.7800   22.4440   39.1440 H   0  0  0  0  0  0  0  0  0  0  0  0
   40.6980   21.2260   38.5280 H   0  0  0  0  0  0  0  0  0  0  0  0
   42.5600   20.8100   37.0690 H   0  0  0  0  0  0  0  0  0  0  0  0
   42.8710   22.2830   35.0580 H   0  0  0  0  0  0  0  0  0  0  0  0
   41.3130   24.0760   34.6230 H   0  0  0  0  0  0  0  0  0  0  0  0
   42.2840   27.9660   31.7990 C   0  0  0  0  0  0  0  0  0  0  0  0
   41.9550   27.6070   33.1370 C   0  0  0  0  0  0  0  0  0  0  0  0
   40.7010   27.1410   33.4000 C   0  0  0  0  0  0  0  0  0  0  0  0
   39.8370   27.0510   32.3280 N   0  0  0  0  0  0  0  0  0  0  0  0
   40.1530   27.3890   31.0740 C   0  0  0  0  0  0  0  0  0  0  0  0
   41.3780   27.8530   30.7860 N   0  0  0  0  0  0  0  0  0  0  0  0
   43.2860   28.3340   31.6190 H   0  0  0  0  0  0  0  0  0  0  0  0
   42.7120   27.7170   33.9020 H   0  0  0  0  0  0  0  0  0  0  0  0
   39.1100   27.2210   30.0150 C   0  0  0  0  0  0  0  0  0  0  0  0
   39.1770   27.9890   29.2200 H   0  0  0  0  0  0  0  0  0  0  0  0
   39.2420   26.1860   29.6390 H   0  0  0  0  0  0  0  0  0  0  0  0
   37.7420   27.2870   30.7160 C   0  0  0  0  0  0  0  0  0  0  0  0
   37.9570   27.7460   31.7170 H   0  0  0  0  0  0  0  0  0  0  0  0
   37.1390   28.0350   30.1730 H   0  0  0  0  0  0  0  0  0  0  0  0
   37.1390   25.9930   30.8500 N   0  0  0  0  0  0  0  0  0  0  0  0
   37.9350   24.9250   30.5560 C   0  0  0  0  0  3  0  0  0  0  0  0
   37.3980   23.6370   30.6690 C   0  0  0  0  0  0  0  0  0  0  0  0
   37.9440   22.7480   30.4610 H   0  0  0  0  0  0  0  0  0  0  0  0
   36.0810   23.6010   31.0790 C   0  0  0  0  0  0  0  0  0  0  0  0
   35.5690   22.4350   31.1900 O   0  0  0  0  0  0  0  0  0  0  0  0
   35.2770   24.6390   31.3740 N   0  0  0  0  0  0  0  0  0  0  0  0
   35.8560   25.8560   31.2440 C   0  0  0  0  0  0  0  0  0  0  0  0
   35.1580   26.8680   31.5060 O   0  0  0  0  0  0  0  0  0  0  0  0
   34.2940   24.4620   31.6740 H   0  0  0  0  0  0  0  0  0  0  0  0
  1  3  1  0  0  0  0
  1  2  1  0  0  0  0
  1  4  1  1  0  0  0
  2  5  1  0  0  0  0
  3  7  1  6  0  0  0
  3  2  1  0  0  0  0
  3  8  1  0  0  0  0
  6  2  1  0  0  0  0
  8 17  2  0  0  0  0
  8  9  1  0  0  0  0
  9 18  1  0  0  0  0
  9 10  2  0  0  0  0
 10 11  1  0  0  0  0
 10 19  1  0  0  0  0
 11 20  1  0  0  0  0
 12 13  1  0  0  0  0
 12 11  2  0  0  0  0
 13 21  1  0  0  0  0
 14 22  1  0  0  0  0
 14 13  2  0  0  0  0
 15 14  1  0  0  0  0
 16 15  2  0  0  0  0
 16 17  1  0  0  0  0
 17 12  1  0  0  0  0
 23 15  1  0  0  0  0
 24 16  1  0  0  0  0
 25 26  1  0  0  0  0
 26 27  2  0  0  0  0
 26 32  1  0  0  0  0
 27  1  1  0  0  0  0
 28 27  1  0  0  0  0
 29 28  2  0  0  0  0
 30 29  1  0  0  0  0
 30 25  2  0  0  0  0
 31 25  1  0  0  0  0
 33 36  1  0  0  0  0
 33 29  1  0  0  0  0
 34 33  1  0  0  0  0
 35 33  1  0  0  0  0
 36 39  1  0  0  0  0
 36 37  1  0  0  0  0
 38 36  1  0  0  0  0
 39 46  1  0  0  0  0
 40 41  2  0  0  0  0
 40 39  1  0  0  0  0
 41 43  1  0  0  0  0
 42 41  1  0  0  0  0
 43 44  2  0  0  0  0
 43 45  1  0  0  0  0
 45 48  1  0  0  0  0
 46 45  1  0  0  0  0
 46 47  2  0  0  0  0
M  END
>  <minimizedAffinity>
-6.79380178

$$$$

 OpenBabel03272509363D

 48 52  0  0  1  0  0  0  0  0999 V2000
   36.0790   29.7970   32.6770 C   0  0  1  0  0  0  0  0  0  0  0  0
   34.6460   30.0540   32.3680 C   0  0  0  0  0  0  0  0  0  0  0  0
   34.8700   29.3380   33.6060 C   0  0  2  0  0  0  0  0  0  0  0  0
   36.7270   30.4580   33.2300 H   0  0  0  0  0  0  0  0  0  0  0  0
   34.5060   31.1110   32.1600 H   0  0  0  0  0  0  0  0  0  0  0  0
   34.2630   29.4520   31.4650 H   0  0  0  0  0  0  0  0  0  0  0  0
   34.9870   28.2820   33.8000 H   0  0  0  0  0  0  0  0  0  0  0  0
   34.5780   30.2030   34.7980 C   0  0  0  0  0  0  0  0  0  0  0  0
   35.7370   30.8860   35.1920 C   0  0  0  0  0  0  0  0  0  0  0  0
   35.6760   31.8130   36.2000 C   0  0  0  0  0  0  0  0  0  0  0  0
   34.4710   32.1010   36.8550 C   0  0  0  0  0  0  0  0  0  0  0  0
   33.3450   31.4050   36.4370 C   0  0  0  0  0  0  0  0  0  0  0  0
   32.1110   31.5860   37.0000 C   0  0  0  0  0  0  0  0  0  0  0  0
   30.9870   30.8980   36.6040 C   0  0  0  0  0  0  0  0  0  0  0  0
   31.1030   29.9760   35.5860 C   0  0  0  0  0  0  0  0  0  0  0  0
   32.3450   29.7900   35.0140 C   0  0  0  0  0  0  0  0  0  0  0  0
   33.4460   30.4980   35.4390 C   0  0  0  0  0  0  0  0  0  0  0  0
   36.7660   30.9100   34.8970 H   0  0  0  0  0  0  0  0  0  0  0  0
   36.4520   32.4280   36.6330 H   0  0  0  0  0  0  0  0  0  0  0  0
   34.2800   32.8010   37.6570 H   0  0  0  0  0  0  0  0  0  0  0  0
   31.9840   32.3010   37.8000 H   0  0  0  0  0  0  0  0  0  0  0  0
   30.0360   31.0870   37.0920 H   0  0  0  0  0  0  0  0  0  0  0  0
   30.2670   29.4120   35.2340 H   0  0  0  0  0  0  0  0  0  0  0  0
   32.4170   29.0470   34.1990 H   0  0  0  0  0  0  0  0  0  0  0  0
   37.9300   27.6960   30.1540 C   0  0  0  0  0  0  0  0  0  0  0  0
   37.3300   28.8200   30.7890 C   0  0  0  0  0  0  0  0  0  0  0  0
   36.7220   28.6430   31.9980 C   0  0  0  0  0  0  0  0  0  0  0  0
   36.7410   27.3650   32.5180 N   0  0  0  0  0  0  0  0  0  0  0  0
   37.3080   26.3140   31.9160 C   0  0  0  0  0  0  0  0  0  0  0  0
   37.9100   26.4580   30.7260 N   0  0  0  0  0  0  0  0  0  0  0  0
   38.4040   27.8660   29.1970 H   0  0  0  0  0  0  0  0  0  0  0  0
   37.3740   29.7800   30.2910 H   0  0  0  0  0  0  0  0  0  0  0  0
   37.2590   24.9920   32.6140 C   0  0  0  0  0  0  0  0  0  0  0  0
   36.3790   24.8880   33.2770 H   0  0  0  0  0  0  0  0  0  0  0  0
   37.2930   24.2350   31.8040 H   0  0  0  0  0  0  0  0  0  0  0  0
   38.5610   24.8620   33.4230 C   0  0  0  0  0  0  0  0  0  0  0  0
   39.1720   24.1070   32.8610 H   0  0  0  0  0  0  0  0  0  0  0  0
   39.1030   25.8170   33.3150 H   0  0  0  0  0  0  0  0  0  0  0  0
   38.3220   24.4430   34.7730 N   0  0  0  0  0  0  0  0  0  0  0  0
   38.1590   23.1020   34.9670 C   0  0  0  0  0  3  0  0  0  0  0  0
   37.9220   22.6350   36.2650 C   0  0  0  0  0  0  0  0  0  0  0  0
   37.7830   21.6090   36.5090 H   0  0  0  0  0  0  0  0  0  0  0  0
   37.8800   23.6230   37.2280 C   0  0  0  0  0  0  0  0  0  0  0  0
   37.6650   23.2210   38.4220 O   0  0  0  0  0  0  0  0  0  0  0  0
   38.0370   24.9490   37.0620 N   0  0  0  0  0  0  0  0  0  0  0  0
   38.2630   25.3350   35.7830 C   0  0  0  0  0  0  0  0  0  0  0  0
   38.4190   26.5620   35.5610 O   0  0  0  0  0  0  0  0  0  0  0  0
   37.9800   25.5840   37.8880 H   0  0  0  0  0  0  0  0  0  0  0  0
  1  4  1  1  0  0  0
  1  3  1  0  0  0  0
  2  1  1  0  0  0  0
  2  3  1  0  0  0  0
  3  7  1  1  0  0  0
  3  8  1  0  0  0  0
  5  2  1  0  0  0  0
  6  2  1  0  0  0  0
  8  9  2  0  0  0  0
  8 17  1  0  0  0  0
  9 10  1  0  0  0  0
 10 19  1  0  0  0  0
 10 11  2  0  0  0  0
 11 20  1  0  0  0  0
 12 11  1  0  0  0  0
 12 13  1  0  0  0  0
 13 21  1  0  0  0  0
 14 13  2  0  0  0  0
 14 22  1  0  0  0  0
 15 14  1  0  0  0  0
 16 17  1  0  0  0  0
 16 15  2  0  0  0  0
 17 12  2  0  0  0  0
 18  9  1  0  0  0  0
 23 15  1  0  0  0  0
 24 16  1  0  0  0  0
 25 30  2  0  0  0  0
 25 26  1  0  0  0  0
 26 27  2  0  0  0  0
 27 28  1  0  0  0  0
 27  1  1  0  0  0  0
 29 28  2  0  0  0  0
 29 33  1  0  0  0  0
 30 29  1  0  0  0  0
 31 25  1  0  0  0  0
 32 26  1  0  0  0  0
 33 34  1  0  0  0  0
 33 36  1  0  0  0  0
 35 33  1  0  0  0  0
 36 39  1  0  0  0  0
 37 36  1  0  0  0  0
 38 36  1  0  0  0  0
 39 40  1  0  0  0  0
 39 46  1  0  0  0  0
 40 41  2  0  0  0  0
 41 42  1  0  0  0  0
 41 43  1  0  0  0  0
 43 44  2  0  0  0  0
 45 43  1  0  0  0  0
 45 48  1  0  0  0  0
 46 45  1  0  0  0  0
 47 46  2  0  0  0  0
M  END
>  <minimizedAffinity>
-6.71691895

$$$$

 OpenBabel03272509363D

 48 52  0  0  1  0  0  0  0  0999 V2000
   35.9550   29.1850   34.0450 C   0  0  1  0  0  0  0  0  0  0  0  0
   35.6110   30.5640   33.6040 C   0  0  0  0  0  0  0  0  0  0  0  0
   34.4710   29.6850   33.7600 C   0  0  2  0  0  0  0  0  0  0  0  0
   36.0350   28.8590   35.0700 H   0  0  0  0  0  0  0  0  0  0  0  0
   36.0660   31.2830   34.2790 H   0  0  0  0  0  0  0  0  0  0  0  0
   35.9620   30.7970   32.5330 H   0  0  0  0  0  0  0  0  0  0  0  0
   34.0160   28.9890   33.0710 H   0  0  0  0  0  0  0  0  0  0  0  0
   33.6510   30.0620   34.9600 C   0  0  0  0  0  0  0  0  0  0  0  0
   34.2890   31.0830   35.6770 C   0  0  0  0  0  0  0  0  0  0  0  0
   33.6660   31.6540   36.7570 C   0  0  0  0  0  0  0  0  0  0  0  0
   32.3920   31.2400   37.1680 C   0  0  0  0  0  0  0  0  0  0  0  0
   31.7920   30.2260   36.4340 C   0  0  0  0  0  0  0  0  0  0  0  0
   30.5560   29.7250   36.7370 C   0  0  0  0  0  0  0  0  0  0  0  0
   29.9510   28.7140   36.0250 C   0  0  0  0  0  0  0  0  0  0  0  0
   30.6210   28.1740   34.9480 C   0  0  0  0  0  0  0  0  0  0  0  0
   31.8670   28.6760   34.6380 C   0  0  0  0  0  0  0  0  0  0  0  0
   32.4390   29.6880   35.3750 C   0  0  0  0  0  0  0  0  0  0  0  0
   35.2150   31.6170   35.6150 H   0  0  0  0  0  0  0  0  0  0  0  0
   33.9980   32.4410   37.4200 H   0  0  0  0  0  0  0  0  0  0  0  0
   31.7900   31.5980   37.9920 H   0  0  0  0  0  0  0  0  0  0  0  0
   30.0030   30.1250   37.5740 H   0  0  0  0  0  0  0  0  0  0  0  0
   28.9670   28.3600   36.3170 H   0  0  0  0  0  0  0  0  0  0  0  0
   30.2020   27.3880   34.3570 H   0  0  0  0  0  0  0  0  0  0  0  0
   32.3880   28.2310   33.7710 H   0  0  0  0  0  0  0  0  0  0  0  0
   37.1790   27.7710   30.7730 C   0  0  0  0  0  0  0  0  0  0  0  0
   36.7380   28.7000   31.7570 C   0  0  0  0  0  0  0  0  0  0  0  0
   36.4290   28.2380   33.0030 C   0  0  0  0  0  0  0  0  0  0  0  0
   36.5740   26.8830   33.2130 N   0  0  0  0  0  0  0  0  0  0  0  0
   36.9890   26.0150   32.2840 C   0  0  0  0  0  0  0  0  0  0  0  0
   37.2980   26.4410   31.0500 N   0  0  0  0  0  0  0  0  0  0  0  0
   37.4160   28.1650   29.7940 H   0  0  0  0  0  0  0  0  0  0  0  0
   36.6610   29.7450   31.4840 H   0  0  0  0  0  0  0  0  0  0  0  0
   37.1100   24.5750   32.6680 C   0  0  0  0  0  0  0  0  0  0  0  0
   36.2620   24.2220   33.2870 H   0  0  0  0  0  0  0  0  0  0  0  0
   37.2140   24.0260   31.7100 H   0  0  0  0  0  0  0  0  0  0  0  0
   38.4360   24.4230   33.4330 C   0  0  0  0  0  0  0  0  0  0  0  0
   39.0050   23.6410   32.8640 H   0  0  0  0  0  0  0  0  0  0  0  0
   39.0000   25.3610   33.2880 H   0  0  0  0  0  0  0  0  0  0  0  0
   38.2340   24.0350   34.7980 N   0  0  0  0  0  0  0  0  0  0  0  0
   38.1790   25.0480   35.7100 C   0  0  0  0  0  3  0  0  0  0  0  0
   37.9830   24.7280   37.0590 C   0  0  0  0  0  0  0  0  0  0  0  0
   37.9280   25.4510   37.8370 H   0  0  0  0  0  0  0  0  0  0  0  0
   37.8650   23.3770   37.3140 C   0  0  0  0  0  0  0  0  0  0  0  0
   37.6850   23.0590   38.5380 O   0  0  0  0  0  0  0  0  0  0  0  0
   37.9150   22.3610   36.4330 N   0  0  0  0  0  0  0  0  0  0  0  0
   38.1070   22.7380   35.1460 C   0  0  0  0  0  0  0  0  0  0  0  0
   38.1630   21.8350   34.2730 O   0  0  0  0  0  0  0  0  0  0  0  0
   37.8090   21.3790   36.7700 H   0  0  0  0  0  0  0  0  0  0  0  0
  1  4  1  1  0  0  0
  2  3  1  0  0  0  0
  2  1  1  0  0  0  0
  2  5  1  0  0  0  0
  3  7  1  6  0  0  0
  3  1  1  0  0  0  0
  3  8  1  0  0  0  0
  6  2  1  0  0  0  0
  8 17  2  0  0  0  0
  8  9  1  0  0  0  0
  9 10  2  0  0  0  0
 10 11  1  0  0  0  0
 10 19  1  0  0  0  0
 11 20  1  0  0  0  0
 12 13  1  0  0  0  0
 12 11  2  0  0  0  0
 13 21  1  0  0  0  0
 14 22  1  0  0  0  0
 14 13  2  0  0  0  0
 15 14  1  0  0  0  0
 16 15  2  0  0  0  0
 16 17  1  0  0  0  0
 17 12  1  0  0  0  0
 18  9  1  0  0  0  0
 23 15  1  0  0  0  0
 24 16  1  0  0  0  0
 25 30  2  0  0  0  0
 25 26  1  0  0  0  0
 26 27  2  0  0  0  0
 27 28  1  0  0  0  0
 27  1  1  0  0  0  0
 29 33  1  0  0  0  0
 29 28  2  0  0  0  0
 30 29  1  0  0  0  0
 31 25  1  0  0  0  0
 32 26  1  0  0  0  0
 33 34  1  0  0  0  0
 33 36  1  0  0  0  0
 35 33  1  0  0  0  0
 36 39  1  0  0  0  0
 37 36  1  0  0  0  0
 38 36  1  0  0  0  0
 39 46  1  0  0  0  0
 39 40  1  0  0  0  0
 40 41  2  0  0  0  0
 41 43  1  0  0  0  0
 41 42  1  0  0  0  0
 43 44  2  0  0  0  0
 45 48  1  0  0  0  0
 45 43  1  0  0  0  0
 46 45  1  0  0  0  0
 47 46  2  0  0  0  0
M  END
>  <minimizedAffinity>
-6.65238428

$$$$

 OpenBabel03272509363D

 48 52  0  0  1  0  0  0  0  0999 V2000
   38.4310   26.9160   34.5160 C   0  0  1  0  0  0  0  0  0  0  0  0
   38.1450   27.2840   35.9280 C   0  0  0  0  0  0  0  0  0  0  0  0
   37.6430   25.9830   35.5370 C   0  0  2  0  0  0  0  0  0  0  0  0
   39.3160   26.4050   34.1700 H   0  0  0  0  0  0  0  0  0  0  0  0
   39.0670   27.5870   36.4160 H   0  0  0  0  0  0  0  0  0  0  0  0
   37.3830   28.1420   36.0270 H   0  0  0  0  0  0  0  0  0  0  0  0
   36.7130   25.6960   35.0700 H   0  0  0  0  0  0  0  0  0  0  0  0
   38.4340   24.8790   36.1780 C   0  0  0  0  0  0  0  0  0  0  0  0
   38.0810   24.7570   37.5290 C   0  0  0  0  0  0  0  0  0  0  0  0
   38.6070   23.7400   38.2850 C   0  0  0  0  0  0  0  0  0  0  0  0
   39.4980   22.8080   37.7360 C   0  0  0  0  0  0  0  0  0  0  0  0
   39.8220   22.9610   36.3950 C   0  0  0  0  0  0  0  0  0  0  0  0
   40.6870   22.1250   35.7430 C   0  0  0  0  0  0  0  0  0  0  0  0
   41.0270   22.2680   34.4170 C   0  0  0  0  0  0  0  0  0  0  0  0
   40.4700   23.3080   33.7020 C   0  0  0  0  0  0  0  0  0  0  0  0
   39.5980   24.1530   34.3550 C   0  0  0  0  0  0  0  0  0  0  0  0
   39.2830   23.9770   35.6830 C   0  0  0  0  0  0  0  0  0  0  0  0
   37.4420   25.2710   38.2170 H   0  0  0  0  0  0  0  0  0  0  0  0
   38.4540   23.4920   39.3260 H   0  0  0  0  0  0  0  0  0  0  0  0
   39.9830   21.9660   38.2100 H   0  0  0  0  0  0  0  0  0  0  0  0
   41.1410   21.3000   36.2720 H   0  0  0  0  0  0  0  0  0  0  0  0
   41.7200   21.5710   33.9560 H   0  0  0  0  0  0  0  0  0  0  0  0
   40.6950   23.4700   32.6700 H   0  0  0  0  0  0  0  0  0  0  0  0
   39.1620   24.9800   33.7650 H   0  0  0  0  0  0  0  0  0  0  0  0
   36.7920   27.6260   31.1970 C   0  0  0  0  0  0  0  0  0  0  0  0
   37.6580   27.0670   32.1780 C   0  0  0  0  0  0  0  0  0  0  0  0
   37.5310   27.4750   33.4740 C   0  0  0  0  0  0  0  0  0  0  0  0
   36.5530   28.4130   33.7330 N   0  0  0  0  0  0  0  0  0  0  0  0
   35.7420   28.9330   32.8060 C   0  0  0  0  0  0  0  0  0  0  0  0
   35.8460   28.5520   31.5240 N   0  0  0  0  0  0  0  0  0  0  0  0
   36.9160   27.2850   30.1780 H   0  0  0  0  0  0  0  0  0  0  0  0
   38.3920   26.3360   31.8640 H   0  0  0  0  0  0  0  0  0  0  0  0
   34.7190   29.9320   33.2460 C   0  0  0  0  0  0  0  0  0  0  0  0
   35.0910   30.9730   33.2100 H   0  0  0  0  0  0  0  0  0  0  0  0
   33.8400   29.7550   32.5920 H   0  0  0  0  0  0  0  0  0  0  0  0
   34.3090   29.5540   34.6800 C   0  0  0  0  0  0  0  0  0  0  0  0
   33.3590   28.9700   34.5610 H   0  0  0  0  0  0  0  0  0  0  0  0
   35.0560   28.8290   35.0470 H   0  0  0  0  0  0  0  0  0  0  0  0
   34.1150   30.7080   35.5100 N   0  0  0  0  0  0  0  0  0  0  0  0
   32.8230   31.1050   35.6960 C   0  0  0  0  0  3  0  0  0  0  0  0
   32.5740   32.2250   36.4970 C   0  0  0  0  0  0  0  0  0  0  0  0
   31.6010   32.6060   36.6960 H   0  0  0  0  0  0  0  0  0  0  0  0
   33.7050   32.8150   37.0220 C   0  0  0  0  0  0  0  0  0  0  0  0
   33.5030   33.8410   37.7570 O   0  0  0  0  0  0  0  0  0  0  0  0
   34.9880   32.4430   36.8530 N   0  0  0  0  0  0  0  0  0  0  0  0
   35.1600   31.3530   36.0680 C   0  0  0  0  0  0  0  0  0  0  0  0
   36.3360   30.9530   35.8700 O   0  0  0  0  0  0  0  0  0  0  0  0
   35.7490   32.9870   37.3140 H   0  0  0  0  0  0  0  0  0  0  0  0
  1  4  1  6  0  0  0
  1  3  1  0  0  0  0
  1  2  1  0  0  0  0
  2  6  1  0  0  0  0
  2  5  1  0  0  0  0
  3  7  1  6  0  0  0
  3  2  1  0  0  0  0
  3  8  1  0  0  0  0
  8  9  1  0  0  0  0
  9 18  1  0  0  0  0
  9 10  2  0  0  0  0
 10 19  1  0  0  0  0
 11 20  1  0  0  0  0
 11 10  1  0  0  0  0
 12 11  2  0  0  0  0
 13 21  1  0  0  0  0
 13 12  1  0  0  0  0
 14 13  2  0  0  0  0
 15 16  2  0  0  0  0
 15 14  1  0  0  0  0
 16 17  1  0  0  0  0
 17  8  2  0  0  0  0
 17 12  1  0  0  0  0
 22 14  1  0  0  0  0
 23 15  1  0  0  0  0
 24 16  1  0  0  0  0
 25 30  2  0  0  0  0
 25 26  1  0  0  0  0
 26 27  2  0  0  0  0
 27 28  1  0  0  0  0
 27  1  1  0  0  0  0
 29 33  1  0  0  0  0
 29 28  2  0  0  0  0
 30 29  1  0  0  0  0
 31 25  1  0  0  0  0
 32 26  1  0  0  0  0
 33 36  1  0  0  0  0
 34 33  1  0  0  0  0
 35 33  1  0  0  0  0
 36 38  1  0  0  0  0
 36 39  1  0  0  0  0
 37 36  1  0  0  0  0
 39 40  1  0  0  0  0
 39 46  1  0  0  0  0
 40 41  2  0  0  0  0
 41 42  1  0  0  0  0
 41 43  1  0  0  0  0
 43 44  2  0  0  0  0
 45 43  1  0  0  0  0
 45 48  1  0  0  0  0
 46 45  1  0  0  0  0
 47 46  2  0  0  0  0
M  END
>  <minimizedAffinity>
-6.60611725

$$$$

 OpenBabel03272509363D

 48 52  0  0  1  0  0  0  0  0999 V2000
   38.9090   26.1550   34.4030 C   0  0  1  0  0  0  0  0  0  0  0  0
   37.7250   26.4000   35.2710 C   0  0  0  0  0  0  0  0  0  0  0  0
   38.0240   25.0010   35.0510 C   0  0  2  0  0  0  0  0  0  0  0  0
   39.9270   26.0640   34.7470 H   0  0  0  0  0  0  0  0  0  0  0  0
   38.0000   27.0810   36.0720 H   0  0  0  0  0  0  0  0  0  0  0  0
   36.8320   26.8510   34.7010 H   0  0  0  0  0  0  0  0  0  0  0  0
   37.7260   24.3310   34.2580 H   0  0  0  0  0  0  0  0  0  0  0  0
   38.5710   24.3580   36.2920 C   0  0  0  0  0  0  0  0  0  0  0  0
   37.8060   24.7330   37.4050 C   0  0  0  0  0  0  0  0  0  0  0  0
   38.0660   24.1800   38.6330 C   0  0  0  0  0  0  0  0  0  0  0  0
   39.0870   23.2360   38.8070 C   0  0  0  0  0  0  0  0  0  0  0  0
   39.8220   22.8890   37.6820 C   0  0  0  0  0  0  0  0  0  0  0  0
   40.8520   21.9890   37.7200 C   0  0  0  0  0  0  0  0  0  0  0  0
   41.5970   21.6410   36.6160 C   0  0  0  0  0  0  0  0  0  0  0  0
   41.2950   22.2270   35.4050 C   0  0  0  0  0  0  0  0  0  0  0  0
   40.2580   23.1360   35.3620 C   0  0  0  0  0  0  0  0  0  0  0  0
   39.5360   23.4580   36.4890 C   0  0  0  0  0  0  0  0  0  0  0  0
   36.9800   25.3850   37.5990 H   0  0  0  0  0  0  0  0  0  0  0  0
   37.5890   24.3440   39.5890 H   0  0  0  0  0  0  0  0  0  0  0  0
   39.3980   22.7240   39.7080 H   0  0  0  0  0  0  0  0  0  0  0  0
   41.1150   21.5100   38.6510 H   0  0  0  0  0  0  0  0  0  0  0  0
   42.4020   20.9190   36.7110 H   0  0  0  0  0  0  0  0  0  0  0  0
   41.8370   21.9970   34.5140 H   0  0  0  0  0  0  0  0  0  0  0  0
   40.0310   23.5940   34.3820 H   0  0  0  0  0  0  0  0  0  0  0  0
   38.4260   27.5360   30.9300 C   0  0  0  0  0  0  0  0  0  0  0  0
   38.6340   27.4730   32.3370 C   0  0  0  0  0  0  0  0  0  0  0  0
   38.7040   26.2490   32.9350 C   0  0  0  0  0  0  0  0  0  0  0  0
   38.5680   25.1500   32.1110 N   0  0  0  0  0  0  0  0  0  0  0  0
   38.3740   25.2170   30.7900 C   0  0  0  0  0  0  0  0  0  0  0  0
   38.2980   26.4070   30.1760 N   0  0  0  0  0  0  0  0  0  0  0  0
   38.3740   28.5200   30.4830 H   0  0  0  0  0  0  0  0  0  0  0  0
   38.7280   28.4000   32.8870 H   0  0  0  0  0  0  0  0  0  0  0  0
   38.2590   23.9340   30.0290 C   0  0  0  0  0  0  0  0  0  0  0  0
   37.2660   23.8000   29.5590 H   0  0  0  0  0  0  0  0  0  0  0  0
   39.0940   23.9540   29.2990 H   0  0  0  0  0  0  0  0  0  0  0  0
   38.5430   22.7950   31.0230 C   0  0  0  0  0  0  0  0  0  0  0  0
   39.3910   22.2200   30.5640 H   0  0  0  0  0  0  0  0  0  0  0  0
   38.9620   23.2590   31.9330 H   0  0  0  0  0  0  0  0  0  0  0  0
   37.3970   21.9600   31.2330 N   0  0  0  0  0  0  0  0  0  0  0  0
   36.4530   22.4390   32.0940 C   0  0  0  0  0  3  0  0  0  0  0  0
   35.3110   21.6660   32.3370 C   0  0  0  0  0  0  0  0  0  0  0  0
   34.5260   21.9590   32.9910 H   0  0  0  0  0  0  0  0  0  0  0  0
   35.2760   20.4680   31.6530 C   0  0  0  0  0  0  0  0  0  0  0  0
   34.2440   19.7440   31.8580 O   0  0  0  0  0  0  0  0  0  0  0  0
   36.1940   19.9740   30.8000 N   0  0  0  0  0  0  0  0  0  0  0  0
   37.2730   20.7710   30.6090 C   0  0  0  0  0  0  0  0  0  0  0  0
   38.1670   20.3660   29.8230 O   0  0  0  0  0  0  0  0  0  0  0  0
   36.0350   19.0470   30.3510 H   0  0  0  0  0  0  0  0  0  0  0  0
  1  4  1  1  0  0  0
  1  3  1  0  0  0  0
  1  2  1  0  0  0  0
  2  5  1  0  0  0  0
  3  7  1  6  0  0  0
  3  2  1  0  0  0  0
  3  8  1  0  0  0  0
  6  2  1  0  0  0  0
  8 17  2  0  0  0  0
  8  9  1  0  0  0  0
  9 18  1  0  0  0  0
  9 10  2  0  0  0  0
 10 11  1  0  0  0  0
 10 19  1  0  0  0  0
 11 20  1  0  0  0  0
 12 13  1  0  0  0  0
 12 11  2  0  0  0  0
 13 21  1  0  0  0  0
 14 22  1  0  0  0  0
 14 13  2  0  0  0  0
 15 14  1  0  0  0  0
 16 15  2  0  0  0  0
 16 17  1  0  0  0  0
 17 12  1  0  0  0  0
 23 15  1  0  0  0  0
 24 16  1  0  0  0  0
 25 26  1  0  0  0  0
 26 32  1  0  0  0  0
 26 27  2  0  0  0  0
 27  1  1  0  0  0  0
 28 27  1  0  0  0  0
 29 28  2  0  0  0  0
 30 29  1  0  0  0  0
 30 25  2  0  0  0  0
 31 25  1  0  0  0  0
 33 29  1  0  0  0  0
 33 36  1  0  0  0  0
 34 33  1  0  0  0  0
 35 33  1  0  0  0  0
 36 39  1  0  0  0  0
 36 38  1  0  0  0  0
 37 36  1  0  0  0  0
 39 40  1  0  0  0  0
 40 41  2  0  0  0  0
 41 42  1  0  0  0  0
 43 44  2  0  0  0  0
 43 41  1  0  0  0  0
 45 43  1  0  0  0  0
 46 45  1  0  0  0  0
 46 39  1  0  0  0  0
 47 46  2  0  0  0  0
 48 45  1  0  0  0  0
M  END
>  <minimizedAffinity>
-6.54517746

$$$$
