
 OpenBabel03272506383D

 38 40  0  0  1  0  0  0  0  0999 V2000
   34.4140   28.9670   50.0100 O   0  0  0  0  0  0  0  0  0  0  0  0
   34.2610   29.2280   48.8040 C   0  0  0  0  0  0  0  0  0  0  0  0
   35.0700   30.2200   48.1340 C   0  0  2  0  0  0  0  0  0  0  0  0
   34.6430   29.9910   46.6460 C   0  0  0  0  0  0  0  0  0  0  0  0
   33.2510   29.4550   46.7780 C   0  0  0  0  0  0  0  0  0  0  0  0
   33.2880   28.5920   47.9460 N   0  0  0  0  0  0  0  0  0  0  0  0
   34.8240   31.2680   48.3770 H   0  0  0  0  0  0  0  0  0  0  0  0
   34.6500   30.9910   46.1730 H   0  0  0  0  0  0  0  0  0  0  0  0
   35.3360   29.3010   46.1480 H   0  0  0  0  0  0  0  0  0  0  0  0
   33.0650   28.7710   45.9160 H   0  0  0  0  0  0  0  0  0  0  0  0
   32.4700   30.2090   46.7890 H   0  0  0  0  0  0  0  0  0  0  0  0
   32.5230   27.3930   48.1570 C   0  0  0  0  0  0  0  0  0  0  0  0
   32.7160   26.6580   47.3610 H   0  0  0  0  0  0  0  0  0  0  0  0
   32.8990   26.8980   49.0970 H   0  0  0  0  0  0  0  0  0  0  0  0
   31.1260   27.5840   48.3360 N   0  0  0  0  0  0  0  0  0  0  0  0
   30.7490   27.8540   49.6140 C   0  0  0  0  0  3  0  0  0  0  0  0
   29.4220   28.0620   49.9500 C   0  0  0  0  0  0  0  0  0  0  0  0
   29.1400   28.2770   50.9740 H   0  0  0  0  0  0  0  0  0  0  0  0
   28.4310   27.9990   48.9750 C   0  0  0  0  0  0  0  0  0  0  0  0
   27.2290   28.1840   49.2640 O   0  0  0  0  0  0  0  0  0  0  0  0
   28.8560   27.7260   47.7200 N   0  0  0  0  0  0  0  0  0  0  0  0
   30.1550   27.5310   47.4390 C   0  0  0  0  0  0  0  0  0  0  0  0
   30.5030   27.2830   46.2620 O   0  0  0  0  0  0  0  0  0  0  0  0
   28.1420   27.6700   46.9570 H   0  0  0  0  0  0  0  0  0  0  0  0
   36.4700   29.9460   48.1650 O   0  0  0  0  0  0  0  0  0  0  0  0
   37.3360   31.0350   48.2630 C   0  0  0  0  0  0  0  0  0  0  0  0
   37.5110   31.5810   49.5220 C   0  0  0  0  0  0  0  0  0  0  0  0
   38.3660   32.6650   49.6510 C   0  0  0  0  0  0  0  0  0  0  0  0
   38.9930   33.1430   48.5410 N   0  0  0  0  0  0  0  0  0  0  0  0
   38.8130   32.6020   47.3270 C   0  0  0  0  0  0  0  0  0  0  0  0
   37.9950   31.5680   47.2110 N   0  0  0  0  0  0  0  0  0  0  0  0
   40.3200   32.1710   45.5490 C   0  0  0  0  0  0  0  0  0  0  0  0
   40.5190   30.9610   45.8760 O   0  0  0  0  0  0  0  0  0  0  0  0
   39.4830   33.1300   46.1870 N   0  0  0  0  0  0  0  0  0  0  0  0
   37.0300   31.2230   50.4090 H   0  0  0  0  0  0  0  0  0  0  0  0
   38.5240   33.1130   50.6180 H   0  0  0  0  0  0  0  0  0  0  0  0
   40.8890   32.4500   44.6620 H   0  0  0  0  0  0  0  0  0  0  0  0
   39.3730   34.1080   45.8560 H   0  0  0  0  0  0  0  0  0  0  0  0
  2  1  2  0  0  0  0
  3 25  1  0  0  0  0
  3  7  1  1  0  0  0
  3  2  1  0  0  0  0
  4  5  1  0  0  0  0
  4  3  1  0  0  0  0
  5 11  1  0  0  0  0
  5  6  1  0  0  0  0
  6 12  1  0  0  0  0
  6  2  1  0  0  0  0
  8  4  1  0  0  0  0
  9  4  1  0  0  0  0
 10  5  1  0  0  0  0
 12 15  1  0  0  0  0
 12 14  1  0  0  0  0
 13 12  1  0  0  0  0
 15 16  1  0  0  0  0
 16 17  2  0  0  0  0
 17 18  1  0  0  0  0
 19 20  2  0  0  0  0
 19 17  1  0  0  0  0
 21 19  1  0  0  0  0
 22 21  1  0  0  0  0
 22 15  1  0  0  0  0
 23 22  2  0  0  0  0
 24 21  1  0  0  0  0
 25 26  1  0  0  0  0
 26 27  1  0  0  0  0
 27 28  2  0  0  0  0
 27 35  1  0  0  0  0
 28 36  1  0  0  0  0
 29 28  1  0  0  0  0
 30 29  2  0  0  0  0
 31 30  1  0  0  0  0
 31 26  2  0  0  0  0
 32 33  2  0  0  0  0
 32 34  1  0  0  0  0
 34 30  1  0  0  0  0
 37 32  1  0  0  0  0
 38 34  1  0  0  0  0
M  END
>  <minimizedAffinity>
-6.41125774

>  <minimizedRMSD>
1.65236807

$$$$
