
 OpenBabel03272506383D

 38 40  0  0  1  0  0  0  0  0999 V2000
   33.8190   29.1030   48.8300 O   0  0  0  0  0  0  0  0  0  0  0  0
   34.0510   29.3540   47.6350 C   0  0  0  0  0  0  0  0  0  0  0  0
   35.0770   30.2930   47.2430 C   0  0  2  0  0  0  0  0  0  0  0  0
   35.1070   30.0660   45.6940 C   0  0  0  0  0  0  0  0  0  0  0  0
   33.7120   29.6060   45.3990 C   0  0  0  0  0  0  0  0  0  0  0  0
   33.3480   28.7590   46.5210 N   0  0  0  0  0  0  0  0  0  0  0  0
   34.8270   31.3560   47.4030 H   0  0  0  0  0  0  0  0  0  0  0  0
   35.3100   31.0580   45.2490 H   0  0  0  0  0  0  0  0  0  0  0  0
   35.8790   29.3340   45.4270 H   0  0  0  0  0  0  0  0  0  0  0  0
   33.7580   28.9210   44.5200 H   0  0  0  0  0  0  0  0  0  0  0  0
   33.0060   30.4000   45.1760 H   0  0  0  0  0  0  0  0  0  0  0  0
   32.4910   27.6050   46.4890 C   0  0  0  0  0  0  0  0  0  0  0  0
   32.3550   27.2450   45.4580 H   0  0  0  0  0  0  0  0  0  0  0  0
   33.0200   26.7610   47.0170 H   0  0  0  0  0  0  0  0  0  0  0  0
   31.2360   27.7590   47.1370 N   0  0  0  0  0  0  0  0  0  0  0  0
   30.4820   28.7930   46.6780 C   0  0  0  0  0  3  0  0  0  0  0  0
   29.2340   29.0730   47.2090 C   0  0  0  0  0  0  0  0  0  0  0  0
   28.6490   29.9020   46.8290 H   0  0  0  0  0  0  0  0  0  0  0  0
   28.7160   28.2920   48.2380 C   0  0  0  0  0  0  0  0  0  0  0  0
   27.5920   28.5340   48.7260 O   0  0  0  0  0  0  0  0  0  0  0  0
   29.5030   27.2760   48.6590 N   0  0  0  0  0  0  0  0  0  0  0  0
   30.7070   27.0400   48.1160 C   0  0  0  0  0  0  0  0  0  0  0  0
   31.4020   26.0870   48.5380 O   0  0  0  0  0  0  0  0  0  0  0  0
   29.1500   26.6640   49.4320 H   0  0  0  0  0  0  0  0  0  0  0  0
   36.3860   29.9460   47.6940 O   0  0  0  0  0  0  0  0  0  0  0  0
   37.2730   30.9890   47.9580 C   0  0  0  0  0  0  0  0  0  0  0  0
   37.3760   31.4000   49.2750 C   0  0  0  0  0  0  0  0  0  0  0  0
   38.2500   32.4360   49.5690 C   0  0  0  0  0  0  0  0  0  0  0  0
   38.9640   33.0010   48.5560 N   0  0  0  0  0  0  0  0  0  0  0  0
   38.8520   32.5910   47.2850 C   0  0  0  0  0  0  0  0  0  0  0  0
   38.0170   31.6010   47.0110 N   0  0  0  0  0  0  0  0  0  0  0  0
   40.4650   32.2870   45.5740 C   0  0  0  0  0  0  0  0  0  0  0  0
   40.6080   31.0450   45.7890 O   0  0  0  0  0  0  0  0  0  0  0  0
   39.6130   33.2060   46.2510 N   0  0  0  0  0  0  0  0  0  0  0  0
   36.8260   30.9730   50.0880 H   0  0  0  0  0  0  0  0  0  0  0  0
   38.3540   32.7800   50.5850 H   0  0  0  0  0  0  0  0  0  0  0  0
   41.1010   32.6340   44.7590 H   0  0  0  0  0  0  0  0  0  0  0  0
   39.5530   34.2150   46.0150 H   0  0  0  0  0  0  0  0  0  0  0  0
  2  1  2  0  0  0  0
  3  7  1  1  0  0  0
  3  2  1  0  0  0  0
  3 25  1  0  0  0  0
  4  3  1  0  0  0  0
  5  4  1  0  0  0  0
  5  6  1  0  0  0  0
  6  2  1  0  0  0  0
  8  4  1  0  0  0  0
  9  4  1  0  0  0  0
 10  5  1  0  0  0  0
 11  5  1  0  0  0  0
 12  6  1  0  0  0  0
 12 14  1  0  0  0  0
 12 15  1  0  0  0  0
 13 12  1  0  0  0  0
 15 22  1  0  0  0  0
 16 15  1  0  0  0  0
 16 17  2  0  0  0  0
 17 19  1  0  0  0  0
 18 17  1  0  0  0  0
 19 21  1  0  0  0  0
 19 20  2  0  0  0  0
 21 24  1  0  0  0  0
 22 23  2  0  0  0  0
 22 21  1  0  0  0  0
 25 26  1  0  0  0  0
 26 27  1  0  0  0  0
 27 28  2  0  0  0  0
 27 35  1  0  0  0  0
 28 36  1  0  0  0  0
 29 28  1  0  0  0  0
 30 29  2  0  0  0  0
 31 30  1  0  0  0  0
 31 26  2  0  0  0  0
 32 33  2  0  0  0  0
 32 34  1  0  0  0  0
 34 30  1  0  0  0  0
 37 32  1  0  0  0  0
 38 34  1  0  0  0  0
M  END
>  <minimizedAffinity>
-5.85834503

>  <minimizedRMSD>
1.67688489

$$$$
