
 OpenBabel03272509353D

 48 52  0  0  1  0  0  0  0  0999 V2000
   32.8240   33.4760   43.4650 C   0  0  1  0  0  0  0  0  0  0  0  0
   33.9600   33.1540   42.5610 C   0  0  0  0  0  0  0  0  0  0  0  0
   32.7170   33.4440   41.8780 C   0  0  2  0  0  0  0  0  0  0  0  0
   32.5710   34.4610   43.8240 H   0  0  0  0  0  0  0  0  0  0  0  0
   34.8110   33.7810   42.8120 H   0  0  0  0  0  0  0  0  0  0  0  0
   34.2890   32.0530   42.6230 H   0  0  0  0  0  0  0  0  0  0  0  0
   31.8880   32.8040   41.6160 H   0  0  0  0  0  0  0  0  0  0  0  0
   32.7760   34.7720   41.1780 C   0  0  0  0  0  0  0  0  0  0  0  0
   34.0490   34.9670   40.6240 C   0  0  0  0  0  0  0  0  0  0  0  0
   34.2960   36.0710   39.8490 C   0  0  0  0  0  0  0  0  0  0  0  0
   33.2990   37.0210   39.5920 C   0  0  0  0  0  0  0  0  0  0  0  0
   32.0510   36.7930   40.1570 C   0  0  0  0  0  0  0  0  0  0  0  0
   30.9960   37.6490   39.9910 C   0  0  0  0  0  0  0  0  0  0  0  0
   29.7570   37.4430   40.5520 C   0  0  0  0  0  0  0  0  0  0  0  0
   29.5610   36.3160   41.3230 C   0  0  0  0  0  0  0  0  0  0  0  0
   30.6210   35.4510   41.4930 C   0  0  0  0  0  0  0  0  0  0  0  0
   31.8470   35.6920   40.9160 C   0  0  0  0  0  0  0  0  0  0  0  0
   34.9830   34.4450   40.6150 H   0  0  0  0  0  0  0  0  0  0  0  0
   35.2010   36.3850   39.3470 H   0  0  0  0  0  0  0  0  0  0  0  0
   33.3540   37.9290   39.0060 H   0  0  0  0  0  0  0  0  0  0  0  0
   31.1140   38.5400   39.3930 H   0  0  0  0  0  0  0  0  0  0  0  0
   28.9590   38.1600   40.3830 H   0  0  0  0  0  0  0  0  0  0  0  0
   28.6210   36.1020   41.7840 H   0  0  0  0  0  0  0  0  0  0  0  0
   30.4440   34.5540   42.1140 H   0  0  0  0  0  0  0  0  0  0  0  0
   30.0830   31.2140   44.7210 C   0  0  0  0  0  0  0  0  0  0  0  0
   30.7450   32.3150   44.1080 C   0  0  0  0  0  0  0  0  0  0  0  0
   32.1090   32.3330   44.0900 C   0  0  0  0  0  0  0  0  0  0  0  0
   32.7490   31.2610   44.6760 N   0  0  0  0  0  0  0  0  0  0  0  0
   32.1210   30.2300   45.2500 C   0  0  0  0  0  0  0  0  0  0  0  0
   30.7810   30.1860   45.2850 N   0  0  0  0  0  0  0  0  0  0  0  0
   29.0020   31.2270   44.7220 H   0  0  0  0  0  0  0  0  0  0  0  0
   30.1430   33.1040   43.6760 H   0  0  0  0  0  0  0  0  0  0  0  0
   32.9550   29.1330   45.8330 C   0  0  0  0  0  0  0  0  0  0  0  0
   32.5240   28.7120   46.7610 H   0  0  0  0  0  0  0  0  0  0  0  0
   33.0630   28.3870   45.0190 H   0  0  0  0  0  0  0  0  0  0  0  0
   34.3490   29.7240   46.1050 C   0  0  0  0  0  0  0  0  0  0  0  0
   35.0410   29.1430   45.4390 H   0  0  0  0  0  0  0  0  0  0  0  0
   34.3470   30.7510   45.7010 H   0  0  0  0  0  0  0  0  0  0  0  0
   34.7280   29.6080   47.4830 N   0  0  0  0  0  0  0  0  0  0  0  0
   33.8980   28.8700   48.2760 C   0  0  0  0  0  3  0  0  0  0  0  0
   34.2200   28.7240   49.6300 C   0  0  0  0  0  0  0  0  0  0  0  0
   33.6320   28.1670   50.3210 H   0  0  0  0  0  0  0  0  0  0  0  0
   35.3780   29.3660   50.0160 C   0  0  0  0  0  0  0  0  0  0  0  0
   35.6930   29.2460   51.2480 O   0  0  0  0  0  0  0  0  0  0  0  0
   36.2120   30.0980   49.2540 N   0  0  0  0  0  0  0  0  0  0  0  0
   35.8450   30.2010   47.9540 C   0  0  0  0  0  0  0  0  0  0  0  0
   36.5830   30.8720   47.1890 O   0  0  0  0  0  0  0  0  0  0  0  0
   37.0600   30.5290   49.6820 H   0  0  0  0  0  0  0  0  0  0  0  0
  1  4  1  1  0  0  0
  1 27  1  0  0  0  0
  2  6  1  0  0  0  0
  2  5  1  0  0  0  0
  2  1  1  0  0  0  0
  3  7  1  6  0  0  0
  3  2  1  0  0  0  0
  3  1  1  0  0  0  0
  8  3  1  0  0  0  0
  9  8  2  0  0  0  0
 10  9  1  0  0  0  0
 11 10  2  0  0  0  0
 11 12  1  0  0  0  0
 12 17  1  0  0  0  0
 13 12  2  0  0  0  0
 13 14  1  0  0  0  0
 14 15  2  0  0  0  0
 15 16  1  0  0  0  0
 15 23  1  0  0  0  0
 16 24  1  0  0  0  0
 17  8  1  0  0  0  0
 17 16  2  0  0  0  0
 18  9  1  0  0  0  0
 19 10  1  0  0  0  0
 20 11  1  0  0  0  0
 21 13  1  0  0  0  0
 22 14  1  0  0  0  0
 25 31  1  0  0  0  0
 25 30  1  0  0  0  0
 26 25  2  0  0  0  0
 27 26  1  0  0  0  0
 27 28  2  0  0  0  0
 28 29  1  0  0  0  0
 29 30  2  0  0  0  0
 29 33  1  0  0  0  0
 32 26  1  0  0  0  0
 33 36  1  0  0  0  0
 33 34  1  0  0  0  0
 35 33  1  0  0  0  0
 36 39  1  0  0  0  0
 37 36  1  0  0  0  0
 38 36  1  0  0  0  0
 39 46  1  0  0  0  0
 39 40  1  0  0  0  0
 40 41  2  0  0  0  0
 41 43  1  0  0  0  0
 41 42  1  0  0  0  0
 43 44  2  0  0  0  0
 45 48  1  0  0  0  0
 45 43  1  0  0  0  0
 46 45  1  0  0  0  0
 47 46  2  0  0  0  0
M  END
>  <minimizedAffinity>
-4.82633162

>  <minimizedRMSD>
8.17487144

$$$$
