
 OpenBabel03272507523D

 32 34  0  0  0  0  0  0  0  0999 V2000
   37.1680   31.2500   47.4770 N   0  0  0  0  0  0  0  0  0  0  0  0
   37.7650   32.1710   48.2340 C   0  0  0  0  0  0  0  0  0  0  0  0
   38.8500   32.8830   47.7300 C   0  0  0  0  0  0  0  0  0  0  0  0
   39.2080   32.5530   46.4560 C   0  0  0  0  0  0  0  0  0  0  0  0
   40.1990   33.2090   46.0050 O   0  0  0  0  0  0  0  0  0  0  0  0
   38.6410   31.6460   45.6700 N   0  0  0  0  0  0  0  0  0  0  0  0
   37.5900   30.9830   46.2100 C   0  0  0  0  0  0  0  0  0  0  0  0
   37.0330   30.1110   45.4770 O   0  0  0  0  0  0  0  0  0  0  0  0
   37.4000   32.3580   49.2410 H   0  0  0  0  0  0  0  0  0  0  0  0
   39.3600   33.6390   48.3190 H   0  0  0  0  0  0  0  0  0  0  0  0
   36.8940   32.7230   43.3040 Br  0  0  0  0  0  0  0  0  0  0  0  0
   38.4980   31.7040   43.1430 C   0  0  0  0  0  0  0  0  0  0  0  0
   39.0700   31.3570   44.3500 C   0  0  0  0  0  0  0  0  0  0  0  0
   40.2420   30.6160   44.3600 C   0  0  0  0  0  0  0  0  0  0  0  0
   40.7960   30.2760   45.2500 H   0  0  0  0  0  0  0  0  0  0  0  0
   40.8560   30.2110   43.1780 C   0  0  0  0  0  0  0  0  0  0  0  0
   41.7730   29.6300   43.1540 H   0  0  0  0  0  0  0  0  0  0  0  0
   40.2590   30.5740   41.9660 C   0  0  0  0  0  3  0  0  0  0  0  0
   39.0940   31.3120   41.9630 C   0  0  0  0  0  3  0  0  0  0  0  0
   35.9200   30.2890   49.3240 C   0  0  0  0  0  0  0  0  0  0  0  0
   36.0490   30.4780   47.9380 C   0  0  0  0  0  0  0  0  0  0  0  0
   35.0960   29.9140   47.0820 C   0  0  0  0  0  0  0  0  0  0  0  0
   34.0860   29.2040   47.6420 N   0  0  0  0  0  0  0  0  0  0  0  0
   33.9660   29.0260   48.9480 C   0  0  0  0  0  0  0  0  0  0  0  0
   34.8740   29.5620   49.7840 N   0  0  0  0  0  0  0  0  0  0  0  0
   35.2190   30.0770   46.0070 H   0  0  0  0  0  0  0  0  0  0  0  0
   33.1510   28.4540   49.3870 H   0  0  0  0  0  0  0  0  0  0  0  0
   37.5390   30.2280   51.3620 C   0  0  0  0  0  0  0  0  0  0  0  0
   37.5400   29.0020   51.5670 O   0  0  0  0  0  0  0  0  0  0  0  0
   36.8170   30.8230   50.2740 N   0  0  0  0  0  0  0  0  0  0  0  0
   38.1160   30.7520   52.0680 H   0  0  0  0  0  0  0  0  0  0  0  0
   37.0470   31.8570   50.2290 H   0  0  0  0  0  0  0  0  0  0  0  0
  1 21  1  0  0  0  0
  1  2  1  0  0  0  0
  2  9  1  0  0  0  0
  3  2  2  0  0  0  0
  3 10  1  0  0  0  0
  4  3  1  0  0  0  0
  5  4  2  0  0  0  0
  6  7  1  0  0  0  0
  6  4  1  0  0  0  0
  7  1  1  0  0  0  0
  8  7  2  0  0  0  0
 12 11  1  0  0  0  0
 12 13  1  0  0  0  0
 13 14  2  0  0  0  0
 13  6  1  0  0  0  0
 14 15  1  0  0  0  0
 16 14  1  0  0  0  0
 17 16  1  0  0  0  0
 18 16  2  0  0  0  0
 19 18  1  0  0  0  0
 19 12  2  0  0  0  0
 20 25  1  0  0  0  0
 20 30  1  0  0  0  0
 21 20  2  0  0  0  0
 22 23  2  0  0  0  0
 22 21  1  0  0  0  0
 23 24  1  0  0  0  0
 24 27  1  0  0  0  0
 24 25  2  0  0  0  0
 26 22  1  0  0  0  0
 28 29  2  0  0  0  0
 28 31  1  0  0  0  0
 30 28  1  0  0  0  0
 32 30  1  0  0  0  0
M  END
>  <minimizedAffinity>
-5.65913725

>  <minimizedRMSD>
2.66950512

$$$$
