
 OpenBabel03272507333D

 36 39  0  0  1  0  0  0  0  0999 V2000
   35.9210   29.2900   49.8250 C   0  0  0  0  0  0  0  0  0  0  0  0
   34.9850   29.8930   50.6400 C   0  0  0  0  0  0  0  0  0  0  0  0
   33.7280   29.3810   50.2860 C   0  0  0  0  0  0  0  0  0  0  0  0
   33.9840   28.4910   49.2670 C   0  0  0  0  0  0  0  0  0  0  0  0
   35.2770   28.4700   49.0310 O   0  0  0  0  0  0  0  0  0  0  0  0
   35.1220   30.6310   51.4250 H   0  0  0  0  0  0  0  0  0  0  0  0
   32.7380   29.5910   50.6780 H   0  0  0  0  0  0  0  0  0  0  0  0
   37.3400   29.5910   49.9230 C   0  0  0  0  0  0  0  0  0  0  0  0
   38.0340   28.9730   50.7400 O   0  0  0  0  0  0  0  0  0  0  0  0
   37.8530   30.6080   49.0470 C   0  0  0  0  0  0  0  0  0  0  0  0
   38.2090   31.8150   49.6240 C   0  0  0  0  0  0  0  0  0  0  0  0
   38.7110   32.8260   48.7980 C   0  0  0  0  0  0  0  0  0  0  0  0
   38.8240   32.5640   47.4520 N   0  0  0  0  0  0  0  0  0  0  0  0
   38.4710   31.3850   46.9300 C   0  0  0  0  0  0  0  0  0  0  0  0
   37.9870   30.4100   47.7160 N   0  0  0  0  0  0  0  0  0  0  0  0
   38.1070   31.9840   50.6800 H   0  0  0  0  0  0  0  0  0  0  0  0
   38.9830   33.7600   49.2670 H   0  0  0  0  0  0  0  0  0  0  0  0
   38.5820   31.2370   45.8640 H   0  0  0  0  0  0  0  0  0  0  0  0
   32.9830   27.6910   48.5620 C   0  0  0  0  0  0  0  0  0  0  0  0
   31.7770   27.7220   48.9810 O   0  0  0  0  0  0  0  0  0  0  0  0
   33.3710   26.8490   47.3810 C   0  0  1  0  0  0  0  0  0  0  0  0
   32.0890   26.1420   46.7860 C   0  0  0  0  0  0  0  0  0  0  0  0
   32.8660   27.1540   46.0410 C   0  0  1  0  0  0  0  0  0  0  0  0
   34.1220   26.0350   47.5990 H   0  0  0  0  0  0  0  0  0  0  0  0
   32.2090   25.0900   46.4740 H   0  0  0  0  0  0  0  0  0  0  0  0
   31.1370   26.3440   47.2630 H   0  0  0  0  0  0  0  0  0  0  0  0
   33.5240   26.7620   45.2090 H   0  0  0  0  0  0  0  0  0  0  0  0
   30.2260   26.9830   44.3440 Br  0  0  0  0  0  0  0  0  0  0  0  0
   31.1350   28.5260   44.9830 C   0  0  0  0  0  0  0  0  0  0  0  0
   32.2990   28.4900   45.7270 C   0  0  0  0  0  0  0  0  0  0  0  0
   32.8880   29.6660   46.1490 C   0  0  0  0  0  0  0  0  0  0  0  0
   33.7950   29.6040   46.7270 H   0  0  0  0  0  0  0  0  0  0  0  0
   32.3510   30.8990   45.8490 C   0  0  0  0  0  0  0  0  0  0  0  0
   32.8470   31.7950   46.2020 H   0  0  0  0  0  0  0  0  0  0  0  0
   31.1840   30.9260   45.1050 C   0  0  0  0  0  3  0  0  0  0  0  0
   30.5770   29.7670   44.6730 C   0  0  0  0  0  3  0  0  0  0  0  0
  1  8  1  0  0  0  0
  1  2  2  0  0  0  0
  2  6  1  0  0  0  0
  3  2  1  0  0  0  0
  3  7  1  0  0  0  0
  4  3  2  0  0  0  0
  5  4  1  0  0  0  0
  5  1  1  0  0  0  0
  8  9  2  0  0  0  0
 10 11  1  0  0  0  0
 10  8  1  0  0  0  0
 11 16  1  0  0  0  0
 12 17  1  0  0  0  0
 12 11  2  0  0  0  0
 13 12  1  0  0  0  0
 14 13  2  0  0  0  0
 14 15  1  0  0  0  0
 15 10  2  0  0  0  0
 18 14  1  0  0  0  0
 19 20  2  0  0  0  0
 19  4  1  0  0  0  0
 21 24  1  1  0  0  0
 21 19  1  0  0  0  0
 22 26  1  0  0  0  0
 22 21  1  0  0  0  0
 23 27  1  6  0  0  0
 23 22  1  0  0  0  0
 23 21  1  0  0  0  0
 25 22  1  0  0  0  0
 28 29  1  0  0  0  0
 29 30  1  0  0  0  0
 30 23  1  0  0  0  0
 30 31  2  0  0  0  0
 31 32  1  0  0  0  0
 33 31  1  0  0  0  0
 33 34  1  0  0  0  0
 35 33  2  0  0  0  0
 36 29  2  0  0  0  0
 36 35  1  0  0  0  0
M  END
>  <minimizedAffinity>
-5.35507107

>  <minimizedRMSD>
2.69015169

$$$$
