
 OpenBabel03272503493D

 37 39  0  0  1  0  0  0  0  0999 V2000
   33.2770   27.2720   45.8240 C   0  0  1  0  0  0  0  0  0  0  0  0
   33.9090   27.4300   47.2230 C   0  0  2  0  0  0  0  0  0  0  0  0
   33.6990   26.2230   47.8090 O   0  0  0  0  0  0  0  0  0  0  0  0
   34.0770   25.3070   46.8380 C   0  0  0  0  0  0  0  0  0  0  0  0
   33.6940   25.8610   45.4790 C   0  0  2  0  0  0  0  0  0  0  0  0
   33.7520   28.0140   45.1340 H   0  0  0  0  0  0  0  0  0  0  0  0
   34.9590   27.7320   47.0390 H   0  0  0  0  0  0  0  0  0  0  0  0
   33.4720   24.3920   47.0070 H   0  0  0  0  0  0  0  0  0  0  0  0
   35.1340   25.0220   46.8880 H   0  0  0  0  0  0  0  0  0  0  0  0
   32.7640   25.3680   45.1000 H   0  0  0  0  0  0  0  0  0  0  0  0
   31.9150   27.4790   45.8820 O   0  0  0  0  0  0  0  0  0  0  0  0
   31.6490   28.0720   45.1370 H   0  0  0  0  0  0  0  0  0  0  0  0
   33.2450   28.5010   47.7780 O   0  0  0  0  0  0  0  0  0  0  0  0
   35.3350   29.7830   46.7930 O   0  0  0  0  0  0  0  0  0  0  0  0
   34.0610   29.9630   47.6130 P   0  0  1  0  0  0  0  0  0  0  0  0
   33.1230   31.0580   46.7260 O   0  0  0  0  0  0  0  0  0  0  0  0
   32.3000   31.2140   47.2760 H   0  0  0  0  0  0  0  0  0  0  0  0
   34.3440   30.5540   49.1880 O   0  0  0  0  0  0  0  0  0  0  0  0
   35.5920   30.4580   49.7900 C   0  0  0  0  0  0  0  0  0  0  0  0
   35.9760   29.4490   50.7010 C   0  0  0  0  0  0  0  0  0  0  0  0
   37.2620   29.4870   51.2210 C   0  0  0  0  0  0  0  0  0  0  0  0
   38.0930   30.4940   50.8320 N   0  0  0  0  0  0  0  0  0  0  0  0
   37.6970   31.4480   49.9570 C   0  0  0  0  0  0  0  0  0  0  0  0
   36.4400   31.4330   49.4320 N   0  0  0  0  0  0  0  0  0  0  0  0
   35.2270   28.7270   50.9140 H   0  0  0  0  0  0  0  0  0  0  0  0
   37.5400   28.7100   51.9140 H   0  0  0  0  0  0  0  0  0  0  0  0
   38.4040   32.2270   49.6840 H   0  0  0  0  0  0  0  0  0  0  0  0
   34.7510   25.8610   44.6390 O   0  0  0  0  0  0  0  0  0  0  0  0
   36.8860   23.4830   45.1000 Br  0  0  0  0  0  0  0  0  0  0  0  0
   36.1170   24.1060   43.4990 C   0  0  0  0  0  0  0  0  0  0  0  0
   35.2320   25.1420   43.6170 C   0  0  0  0  0  0  0  0  0  0  0  0
   34.6670   25.5970   42.4160 C   0  0  0  0  0  0  0  0  0  0  0  0
   33.9420   26.4060   42.2730 H   0  0  0  0  0  0  0  0  0  0  0  0
   34.9900   25.0240   41.1790 C   0  0  0  0  0  0  0  0  0  0  0  0
   34.5840   25.3370   40.2280 H   0  0  0  0  0  0  0  0  0  0  0  0
   35.8940   23.9840   41.1600 C   0  0  0  0  0  3  0  0  0  0  0  0
   36.4760   23.5020   42.3150 C   0  0  0  0  0  3  0  0  0  0  0  0
  1  6  1  6  0  0  0
  1 11  1  0  0  0  0
  1  2  1  0  0  0  0
  2  7  1  6  0  0  0
  2 13  1  0  0  0  0
  2  3  1  0  0  0  0
  4  9  1  0  0  0  0
  4  8  1  0  0  0  0
  4  3  1  0  0  0  0
  5 10  1  6  0  0  0
  5  1  1  0  0  0  0
  5  4  1  0  0  0  0
 12 11  1  0  0  0  0
 15 14  2  6  0  0  0
 15 13  1  0  0  0  0
 15 18  1  0  0  0  0
 16 17  1  0  0  0  0
 16 15  1  0  0  0  0
 18 19  1  0  0  0  0
 19 20  1  0  0  0  0
 20 25  1  0  0  0  0
 20 21  2  0  0  0  0
 21 26  1  0  0  0  0
 22 21  1  0  0  0  0
 23 22  2  0  0  0  0
 24 19  2  0  0  0  0
 24 23  1  0  0  0  0
 27 23  1  0  0  0  0
 28  5  1  0  0  0  0
 30 31  1  0  0  0  0
 30 29  1  0  0  0  0
 31 28  1  0  0  0  0
 32 31  2  0  0  0  0
 33 32  1  0  0  0  0
 34 32  1  0  0  0  0
 35 34  1  0  0  0  0
 36 34  2  0  0  0  0
 36 37  1  0  0  0  0
 37 30  2  0  0  0  0
M  END
>  <minimizedAffinity>
-4.20074081

>  <minimizedRMSD>
0.94286406

$$$$
