REMARK  Name = 
REMARK  2 active torsions:
REMARK  status: ('A' for Active; 'I' for Inactive)
REMARK    1  A    between atoms: C_1  and  C_22
REMARK    2  A    between atoms: C_5  and  C_9
REMARK                            x       y       z     vdW  Elec       q    Type
REMARK                         _______ _______ _______ _____ _____    ______ ____
ROOT
ATOM      1  C   UNL     1      37.978  33.175  49.429  0.00  0.00    +0.000 A 
ATOM      2  C   UNL     1      39.008  33.161  48.467  0.00  0.00    +0.000 A 
ATOM      3  C   UNL     1      39.017  32.113  47.530  0.00  0.00    +0.000 A 
ATOM      4  N   UNL     1      38.028  31.176  47.611  0.00  0.00    +0.000 NA
ATOM      5  C   UNL     1      37.059  31.227  48.550  0.00  0.00    +0.000 A 
ATOM      6  N   UNL     1      37.041  32.221  49.447  0.00  0.00    +0.000 NA
ATOM      7  H   UNL     1      39.776  33.895  48.410  0.00  0.00    +0.000 HD
ATOM      8  H   UNL     1      39.746  32.004  46.760  0.00  0.00    +0.000 HD
ENDROOT
BRANCH   5  11
ATOM      9 BR   UNL     1      37.275  29.359  51.053  0.00  0.00    +0.000 Br
ATOM     10  C   UNL     1      35.952  29.309  49.661  0.00  0.00    +0.000 A 
ATOM     11  C   UNL     1      36.007  30.218  48.627  0.00  0.00    +0.000 A 
ATOM     12  C   UNL     1      35.011  30.123  47.661  0.00  0.00    +0.000 A 
ATOM     13  C   UNL     1      33.998  29.185  47.689  0.00  0.00    +0.000 A 
ATOM     14  C   UNL     1      33.996  28.307  48.743  0.00  0.00    +0.000 A 
ATOM     15  C   UNL     1      34.968  28.376  49.715  0.00  0.00    +0.000 A 
ATOM     16  H   UNL     1      35.020  30.819  46.833  0.00  0.00    +0.000 HD
ATOM     17  H   UNL     1      33.246  29.157  46.907  0.00  0.00    +0.000 HD
ATOM     18  H   UNL     1      33.206  27.566  48.778  0.00  0.00    +0.000 HD
ATOM     19  H   UNL     1      34.913  27.652  50.525  0.00  0.00    +0.000 HD
ENDBRANCH   5  11
BRANCH   1  22
ATOM     20 BR   UNL     1      40.276  35.189  49.095  0.00  0.00    +0.000 Br
ATOM     21  C   UNL     1      38.886  35.234  50.418  0.00  0.00    +0.000 A 
ATOM     22  C   UNL     1      37.929  34.241  50.419  0.00  0.00    +0.000 A 
ATOM     23  C   UNL     1      36.984  34.376  51.411  0.00  0.00    +0.000 A 
ATOM     24  H   UNL     1      36.204  33.633  51.473  0.00  0.00    +0.000 HD
ATOM     25  C   UNL     1      36.999  35.414  52.318  0.00  0.00    +0.000 A 
ATOM     26  H   UNL     1      36.211  35.442  53.070  0.00  0.00    +0.000 HD
ATOM     27  C   UNL     1      37.974  36.380  52.275  0.00  0.00    +0.000 A 
ATOM     28  C   UNL     1      38.944  36.290  51.300  0.00  0.00    +0.000 A 
ENDBRANCH   1  22
TORSDOF 2
