
 OpenBabel03272500263D

 34 36  0  0  0  0  0  0  0  0999 V2000
   39.8850   31.6900   46.5480 C   0  0  0  0  0  0  0  0  0  0  0  0
   40.9200   31.9760   46.8700 H   0  0  0  0  0  0  0  0  0  0  0  0
   39.8470   30.5860   46.7890 H   0  0  0  0  0  0  0  0  0  0  0  0
   39.8140   31.8810   45.1260 C   0  0  0  0  0  0  0  0  0  0  0  0
   39.5470   33.1010   44.5930 C   0  0  0  0  0  0  0  0  0  0  0  0
   39.4770   33.2920   43.2080 C   0  0  0  0  0  0  0  0  0  0  0  0
   39.6970   32.1550   42.4400 N   0  0  0  0  0  0  0  0  0  0  0  0
   39.9590   30.9630   42.9940 C   0  0  0  0  0  0  0  0  0  0  0  0
   40.0100   30.8550   44.3330 N   0  0  0  0  0  0  0  0  0  0  0  0
   39.3720   33.9960   45.1560 H   0  0  0  0  0  0  0  0  0  0  0  0
   39.2700   34.2310   42.7550 H   0  0  0  0  0  0  0  0  0  0  0  0
   37.4750   29.1000   42.8590 Br  0  0  0  0  0  0  0  0  0  0  0  0
   39.1550   28.8710   41.9850 C   0  0  0  0  0  0  0  0  0  0  0  0
   40.1820   29.8000   42.1440 C   0  0  0  0  0  0  0  0  0  0  0  0
   41.3790   29.6180   41.5090 C   0  0  0  0  0  0  0  0  0  0  0  0
   42.2080   30.3330   41.6150 H   0  0  0  0  0  0  0  0  0  0  0  0
   41.6400   28.5250   40.6870 C   0  0  0  0  0  0  0  0  0  0  0  0
   42.5980   28.4050   40.1960 H   0  0  0  0  0  0  0  0  0  0  0  0
   40.6250   27.5850   40.5150 C   0  0  0  0  0  3  0  0  0  0  0  0
   39.4160   27.7890   41.1710 C   0  0  0  0  0  3  0  0  0  0  0  0
   38.9000   32.3260   47.4330 C   0  0  0  0  0  0  0  0  0  0  0  0
   38.1800   32.9990   46.9220 H   0  0  0  0  0  0  0  0  0  0  0  0
   39.4060   33.0040   48.1820 H   0  0  0  0  0  0  0  0  0  0  0  0
   38.1130   31.3870   48.2560 C   0  0  0  0  0  0  0  0  0  0  0  0
   37.0410   30.6830   47.7120 C   0  0  0  0  0  0  0  0  0  0  0  0
   36.5050   29.8950   48.6980 C   0  0  0  0  0  0  0  0  0  0  0  0
   37.2330   30.1200   49.8050 N   0  0  0  0  0  0  0  0  0  0  0  0
   38.1600   30.9940   49.5110 N   0  0  0  0  0  0  0  0  0  0  0  0
   36.6660   30.7230   46.6880 H   0  0  0  0  0  0  0  0  0  0  0  0
   35.6560   29.1990   48.6720 H   0  0  0  0  0  0  0  0  0  0  0  0
   37.0660   29.5250   51.1300 C   0  0  0  0  0  0  0  0  0  0  0  0
   37.8410   28.3830   51.2350 F   0  0  0  0  0  0  0  0  0  0  0  0
   35.7620   29.1800   51.3810 F   0  0  0  0  0  0  0  0  0  0  0  0
   37.4870   30.3850   52.1240 F   0  0  0  0  0  0  0  0  0  0  0  0
  1  3  1  0  0  0  0
  1  2  1  0  0  0  0
  1 21  1  0  0  0  0
  4  1  1  0  0  0  0
  5  4  1  0  0  0  0
  5 10  1  0  0  0  0
  6  5  2  0  0  0  0
  7  8  2  0  0  0  0
  7  6  1  0  0  0  0
  8  9  1  0  0  0  0
  9  4  2  0  0  0  0
 11  6  1  0  0  0  0
 13 14  1  0  0  0  0
 13 12  1  0  0  0  0
 14  8  1  0  0  0  0
 15 16  1  0  0  0  0
 15 14  2  0  0  0  0
 17 15  1  0  0  0  0
 18 17  1  0  0  0  0
 19 17  2  0  0  0  0
 19 20  1  0  0  0  0
 20 13  2  0  0  0  0
 21 23  1  0  0  0  0
 21 24  1  0  0  0  0
 22 21  1  0  0  0  0
 24 28  2  0  0  0  0
 25 24  1  0  0  0  0
 25 26  2  0  0  0  0
 26 27  1  0  0  0  0
 27 31  1  0  0  0  0
 28 27  1  0  0  0  0
 29 25  1  0  0  0  0
 30 26  1  0  0  0  0
 31 32  1  0  0  0  0
 31 33  1  0  0  0  0
 31 34  1  0  0  0  0
M  END
>  <minimizedAffinity>
-6.16033983

>  <minimizedRMSD>
0.850846827

$$$$
