
     RDKit          3D

 30 32  0  0  0  0  0  0  0  0999 V2000
   37.9785   33.1748   49.4288 C   0  0  0  0  0  0  0  0  0  0  0  0
   39.0080   33.1606   48.4670 C   0  0  0  0  0  0  0  0  0  0  0  0
   39.0166   32.1130   47.5300 C   0  0  0  0  0  0  0  0  0  0  0  0
   38.0279   31.1761   47.6110 N   0  0  0  0  0  0  0  0  0  0  0  0
   37.0589   31.2274   48.5502 C   0  0  0  0  0  0  0  0  0  0  0  0
   37.0415   32.2212   49.4474 N   0  0  0  0  0  0  0  0  0  0  0  0
   37.2754   29.3593   51.0534 Br  0  0  0  0  0  0  0  0  0  0  0  0
   35.9523   29.3091   49.6611 C   0  0  0  0  0  0  0  0  0  0  0  0
   36.0066   30.2180   48.6267 C   0  0  0  0  0  0  0  0  0  0  0  0
   35.0114   30.1234   47.6607 C   0  0  0  0  0  0  0  0  0  0  0  0
   33.9975   29.1851   47.6892 C   0  0  0  0  0  0  0  0  0  0  0  0
   33.9956   28.3073   48.7426 C   0  0  0  0  0  0  0  0  0  0  0  0
   34.9676   28.3757   49.7148 C   0  0  0  0  0  0  0  0  0  0  0  0
   39.7761   33.8954   48.4103 H   0  0  0  0  0  0  0  0  0  0  0  0
   39.7461   32.0035   46.7602 H   0  0  0  0  0  0  0  0  0  0  0  0
   35.0197   30.8188   46.8333 H   0  0  0  0  0  0  0  0  0  0  0  0
   33.2458   29.1575   46.9070 H   0  0  0  0  0  0  0  0  0  0  0  0
   33.2063   27.5662   48.7775 H   0  0  0  0  0  0  0  0  0  0  0  0
   34.9126   27.6522   50.5246 H   0  0  0  0  0  0  0  0  0  0  0  0
   40.6143   34.7478   49.5865 Br  0  0  0  0  0  0  0  0  0  0  0  0
   39.0282   35.0493   50.6238 C   0  0  0  0  0  0  0  0  0  0  0  0
   37.9293   34.2407   50.4194 C   0  0  0  0  0  0  0  0  0  0  0  0
   36.8516   34.5487   51.2178 C   0  0  0  0  0  0  0  0  0  0  0  0
   35.9557   33.9569   51.1124 H   0  0  0  0  0  0  0  0  0  0  0  0
   36.8752   35.5758   52.1381 C   0  0  0  0  0  0  0  0  0  0  0  0
   35.9758   35.7487   52.7282 H   0  0  0  0  0  0  0  0  0  0  0  0
   37.9944   36.3534   52.3048 C   0  0  0  0  0  0  0  0  0  0  0  0
   39.1014   36.0849   51.5280 C   0  0  0  0  0  0  0  0  0  0  0  0
   37.9129   37.1324   53.0507 H   0  0  0  0  0  0  0  0  0  0  0  0
   39.9658   36.6995   51.6693 H   0  0  0  0  0  0  0  0  0  0  0  0
  1  6  1  0
  2  1  2  0
  3  4  2  0
  3  2  1  0
  4  5  1  0
  5  9  1  0
  5  6  2  0
  8 13  2  0
  8  7  1  0
  9  8  1  0
 10 11  1  0
 10  9  2  0
 11 12  2  0
 12 13  1  0
  2 14  1  0
  3 15  1  0
 10 16  1  0
 11 17  1  0
 12 18  1  0
 13 19  1  0
 20 21  1  0
 21 22  2  0
 22 23  1  0
 23 24  1  0
 23 25  2  0
 25 26  1  0
 25 27  1  0
 27 28  2  0
 28 21  1  0
 27 29  1  0
 28 30  1  0
  1 22  1  0
M  ISO  8  14  14  15  14  16  14  17  14  18  14  19  14  24  15  26  16
M  END
>  <DihAtoms>  (1) 
5,0,21,20

>  <DihDeg>  (1) 
0.006442170644976144

$$$$
