
 OpenBabel03272508023D

 28 30  0  0  0  0  0  0  0  0999 V2000
   35.3530   29.8740   45.9910 C   0  0  0  0  0  0  0  0  0  0  0  0
   36.0800   30.2440   44.8810 C   0  0  0  0  0  0  0  0  0  0  0  0
   35.5530   29.6030   43.7500 C   0  0  0  0  0  0  0  0  0  0  0  0
   34.5130   28.8660   44.2380 N   0  0  0  0  0  0  0  0  0  0  0  0
   34.4110   29.0340   45.5480 N   0  0  0  0  0  0  0  0  0  0  0  0
   36.9220   30.9200   44.8920 H   0  0  0  0  0  0  0  0  0  0  0  0
   35.8830   29.6720   42.7230 H   0  0  0  0  0  0  0  0  0  0  0  0
   31.9040   30.2010   43.1360 Br  0  0  0  0  0  0  0  0  0  0  0  0
   32.4430   28.4080   42.9230 C   0  0  0  0  0  0  0  0  0  0  0  0
   33.6390   28.0230   43.4950 C   0  0  0  0  0  0  0  0  0  0  0  0
   34.0170   26.6950   43.3250 C   0  0  0  0  0  0  0  0  0  0  0  0
   34.9500   26.3070   43.7450 H   0  0  0  0  0  0  0  0  0  0  0  0
   33.2870   25.7750   42.6410 C   0  0  0  0  0  0  0  0  0  0  0  0
   33.5670   24.7430   42.5010 H   0  0  0  0  0  0  0  0  0  0  0  0
   32.0790   26.1960   42.0740 C   0  0  0  0  0  3  0  0  0  0  0  0
   31.6570   27.5200   42.2160 C   0  0  0  0  0  3  0  0  0  0  0  0
   35.5740   30.3150   47.3710 C   0  0  0  0  0  0  0  0  0  0  0  0
   36.8200   30.9280   47.6710 C   0  0  0  0  0  0  0  0  0  0  0  0
   37.0070   31.3430   49.0000 C   0  0  0  0  0  0  0  0  0  0  0  0
   36.0150   31.1420   49.9010 N   0  0  0  0  0  0  0  0  0  0  0  0
   34.8450   30.5560   49.5720 C   0  0  0  0  0  0  0  0  0  0  0  0
   34.6440   30.1500   48.3020 N   0  0  0  0  0  0  0  0  0  0  0  0
   37.5820   31.0680   46.9230 H   0  0  0  0  0  0  0  0  0  0  0  0
   34.0940   30.4180   50.3120 H   0  0  0  0  0  0  0  0  0  0  0  0
   38.3130   31.9900   49.3390 C   0  0  0  0  0  0  0  0  0  0  0  0
   37.9990   33.3080   49.6320 F   0  0  0  0  0  0  0  0  0  0  0  0
   38.8930   31.4380   50.4630 F   0  0  0  0  0  0  0  0  0  0  0  0
   39.1980   31.9810   48.2850 F   0  0  0  0  0  0  0  0  0  0  0  0
  1 17  1  0  0  0  0
  2  6  1  0  0  0  0
  2  1  1  0  0  0  0
  3  4  1  0  0  0  0
  3  2  2  0  0  0  0
  4  5  1  0  0  0  0
  5  1  2  0  0  0  0
  7  3  1  0  0  0  0
  9  8  1  0  0  0  0
  9 10  1  0  0  0  0
 10  4  1  0  0  0  0
 11 10  2  0  0  0  0
 11 12  1  0  0  0  0
 13 11  1  0  0  0  0
 14 13  1  0  0  0  0
 15 16  1  0  0  0  0
 15 13  2  0  0  0  0
 16  9  2  0  0  0  0
 17 18  2  0  0  0  0
 17 22  1  0  0  0  0
 18 19  1  0  0  0  0
 19 25  1  0  0  0  0
 19 20  2  0  0  0  0
 21 20  1  0  0  0  0
 21 24  1  0  0  0  0
 22 21  2  0  0  0  0
 23 18  1  0  0  0  0
 25 26  1  0  0  0  0
 25 27  1  0  0  0  0
 28 25  1  0  0  0  0
M  END
>  <minimizedAffinity>
-4.55002213

>  <minimizedRMSD>
6.14902306

$$$$
