
 OpenBabel03272507343D

 36 39  0  0  1  0  0  0  0  0999 V2000
   35.9170   29.2220   49.8440 C   0  0  0  0  0  0  0  0  0  0  0  0
   34.9450   29.7000   50.6990 C   0  0  0  0  0  0  0  0  0  0  0  0
   33.7120   29.1940   50.2580 C   0  0  0  0  0  0  0  0  0  0  0  0
   34.0190   28.4340   49.1510 C   0  0  0  0  0  0  0  0  0  0  0  0
   35.3170   28.4790   48.9460 O   0  0  0  0  0  0  0  0  0  0  0  0
   35.0410   30.3470   51.5660 H   0  0  0  0  0  0  0  0  0  0  0  0
   32.7090   29.3280   50.6470 H   0  0  0  0  0  0  0  0  0  0  0  0
   37.3220   29.5530   50.0100 C   0  0  0  0  0  0  0  0  0  0  0  0
   37.9950   28.9350   50.8450 O   0  0  0  0  0  0  0  0  0  0  0  0
   37.8500   30.5970   49.1770 C   0  0  0  0  0  0  0  0  0  0  0  0
   38.1980   31.7850   49.8000 C   0  0  0  0  0  0  0  0  0  0  0  0
   38.7130   32.8220   49.0150 C   0  0  0  0  0  0  0  0  0  0  0  0
   38.8470   32.6050   47.6630 N   0  0  0  0  0  0  0  0  0  0  0  0
   38.5010   31.4450   47.0970 C   0  0  0  0  0  0  0  0  0  0  0  0
   38.0050   30.4440   47.8420 N   0  0  0  0  0  0  0  0  0  0  0  0
   38.0790   31.9180   50.8580 H   0  0  0  0  0  0  0  0  0  0  0  0
   38.9790   33.7400   49.5200 H   0  0  0  0  0  0  0  0  0  0  0  0
   38.6290   31.3330   46.0280 H   0  0  0  0  0  0  0  0  0  0  0  0
   33.0600   27.6900   48.3360 C   0  0  0  0  0  0  0  0  0  0  0  0
   31.8780   27.5250   48.7900 O   0  0  0  0  0  0  0  0  0  0  0  0
   33.4620   27.1310   47.0030 C   0  0  1  0  0  0  0  0  0  0  0  0
   33.1070   25.5920   46.9400 C   0  0  0  0  0  0  0  0  0  0  0  0
   32.4610   26.6000   46.0750 C   0  0  1  0  0  0  0  0  0  0  0  0
   34.5610   27.2230   46.7560 H   0  0  0  0  0  0  0  0  0  0  0  0
   33.8560   24.9340   46.4670 H   0  0  0  0  0  0  0  0  0  0  0  0
   32.6320   25.1510   47.8090 H   0  0  0  0  0  0  0  0  0  0  0  0
   32.7930   26.6140   44.9940 H   0  0  0  0  0  0  0  0  0  0  0  0
   31.7650   29.4320   44.9000 Br  0  0  0  0  0  0  0  0  0  0  0  0
   30.6130   28.1730   45.7410 C   0  0  0  0  0  0  0  0  0  0  0  0
   31.0250   26.9470   46.2260 C   0  0  0  0  0  0  0  0  0  0  0  0
   30.1140   26.0970   46.8230 C   0  0  0  0  0  0  0  0  0  0  0  0
   30.4670   25.1480   47.1910 H   0  0  0  0  0  0  0  0  0  0  0  0
   28.7850   26.4320   46.9560 C   0  0  0  0  0  0  0  0  0  0  0  0
   28.1060   25.7330   47.4320 H   0  0  0  0  0  0  0  0  0  0  0  0
   28.3800   27.6610   46.4690 C   0  0  0  0  0  3  0  0  0  0  0  0
   29.2690   28.5270   45.8690 C   0  0  0  0  0  3  0  0  0  0  0  0
  1  8  1  0  0  0  0
  1  2  2  0  0  0  0
  2  6  1  0  0  0  0
  3  7  1  0  0  0  0
  3  2  1  0  0  0  0
  4  3  2  0  0  0  0
  5  4  1  0  0  0  0
  5  1  1  0  0  0  0
  8  9  2  0  0  0  0
 10 11  1  0  0  0  0
 10  8  1  0  0  0  0
 11 16  1  0  0  0  0
 12 17  1  0  0  0  0
 12 11  2  0  0  0  0
 13 12  1  0  0  0  0
 14 13  2  0  0  0  0
 14 15  1  0  0  0  0
 15 10  2  0  0  0  0
 18 14  1  0  0  0  0
 19 20  2  0  0  0  0
 19  4  1  0  0  0  0
 21 24  1  6  0  0  0
 21 19  1  0  0  0  0
 22 21  1  0  0  0  0
 22 26  1  0  0  0  0
 23 27  1  6  0  0  0
 23 30  1  0  0  0  0
 23 22  1  0  0  0  0
 23 21  1  0  0  0  0
 25 22  1  0  0  0  0
 28 29  1  0  0  0  0
 29 36  2  0  0  0  0
 29 30  1  0  0  0  0
 30 31  2  0  0  0  0
 31 33  1  0  0  0  0
 31 32  1  0  0  0  0
 33 34  1  0  0  0  0
 35 33  2  0  0  0  0
 36 35  1  0  0  0  0
M  END
>  <minimizedAffinity>
-5.41506958

>  <minimizedRMSD>
1.31246638

$$$$
