
 OpenBabel03272502203D

 28 30  0  0  0  0  0  0  0  0999 V2000
   37.8000   31.8490   46.9130 C   0  0  0  0  0  0  0  0  0  0  0  0
   38.0070   31.7030   45.5260 C   0  0  0  0  0  0  0  0  0  0  0  0
   37.1990   30.7840   44.8350 C   0  0  0  0  0  0  0  0  0  0  0  0
   36.2660   30.0910   45.5500 N   0  0  0  0  0  0  0  0  0  0  0  0
   36.1010   30.2610   46.8790 C   0  0  0  0  0  0  0  0  0  0  0  0
   36.8650   31.1340   47.5470 N   0  0  0  0  0  0  0  0  0  0  0  0
   38.7370   32.2470   44.9750 H   0  0  0  0  0  0  0  0  0  0  0  0
   37.2680   30.5940   43.7880 H   0  0  0  0  0  0  0  0  0  0  0  0
   37.1290   29.1880   49.6350 Br  0  0  0  0  0  0  0  0  0  0  0  0
   35.3830   28.9650   48.8660 C   0  0  0  0  0  0  0  0  0  0  0  0
   35.1000   29.5130   47.6330 C   0  0  0  0  0  0  0  0  0  0  0  0
   33.8120   29.3140   47.1450 C   0  0  0  0  0  0  0  0  0  0  0  0
   32.8330   28.6120   47.8200 C   0  0  0  0  0  0  0  0  0  0  0  0
   33.1750   28.0900   49.0410 C   0  0  0  0  0  0  0  0  0  0  0  0
   34.4410   28.2700   49.5510 C   0  0  0  0  0  0  0  0  0  0  0  0
   33.5510   29.7290   46.1810 H   0  0  0  0  0  0  0  0  0  0  0  0
   31.8440   28.4880   47.3900 H   0  0  0  0  0  0  0  0  0  0  0  0
   32.4160   27.5380   49.5820 H   0  0  0  0  0  0  0  0  0  0  0  0
   34.6510   27.8320   50.5240 H   0  0  0  0  0  0  0  0  0  0  0  0
   36.7890   32.2170   49.7910 Br  0  0  0  0  0  0  0  0  0  0  0  0
   38.3030   33.0750   48.9830 C   0  0  0  0  0  0  0  0  0  0  0  0
   38.6140   32.7890   47.6690 C   0  0  0  0  0  0  0  0  0  0  0  0
   39.7190   33.4610   47.1970 C   0  0  0  0  0  0  0  0  0  0  0  0
   40.0220   33.2860   46.1760 H   0  0  0  0  0  0  0  0  0  0  0  0
   40.4440   34.3410   47.9720 C   0  0  0  0  0  0  0  0  0  0  0  0
   41.3040   34.8290   47.5160 H   0  0  0  0  0  0  0  0  0  0  0  0
   40.0940   34.5920   49.2770 C   0  0  0  0  0  3  0  0  0  0  0  0
   38.9960   33.9430   49.7970 C   0  0  0  0  0  3  0  0  0  0  0  0
  1  6  1  0  0  0  0
  1 22  1  0  0  0  0
  2  1  2  0  0  0  0
  3  2  1  0  0  0  0
  3  4  2  0  0  0  0
  4  5  1  0  0  0  0
  5  6  2  0  0  0  0
  5 11  1  0  0  0  0
  7  2  1  0  0  0  0
  8  3  1  0  0  0  0
 10 15  1  0  0  0  0
 10  9  1  0  0  0  0
 11 10  2  0  0  0  0
 12 11  1  0  0  0  0
 12 13  2  0  0  0  0
 13 14  1  0  0  0  0
 14 15  2  0  0  0  0
 14 18  1  0  0  0  0
 15 19  1  0  0  0  0
 16 12  1  0  0  0  0
 17 13  1  0  0  0  0
 21 20  1  0  0  0  0
 21 28  1  0  0  0  0
 22 21  2  0  0  0  0
 23 22  1  0  0  0  0
 23 25  2  0  0  0  0
 24 23  1  0  0  0  0
 25 27  1  0  0  0  0
 26 25  1  0  0  0  0
 27 28  2  0  0  0  0
M  END
>  <minimizedAffinity>
-5.1393013

>  <minimizedRMSD>
2.73765254

$$$$
