
 OpenBabel03272507523D

 32 34  0  0  0  0  0  0  0  0999 V2000
   36.2930   31.1780   48.9030 N   0  0  0  0  0  0  0  0  0  0  0  0
   36.4060   31.9980   49.9480 C   0  0  0  0  0  0  0  0  0  0  0  0
   37.4750   32.8880   50.0170 C   0  0  0  0  0  0  0  0  0  0  0  0
   38.3360   32.8290   48.9610 C   0  0  0  0  0  0  0  0  0  0  0  0
   39.3080   33.6440   49.0320 O   0  0  0  0  0  0  0  0  0  0  0  0
   38.2590   32.0300   47.9030 N   0  0  0  0  0  0  0  0  0  0  0  0
   37.2010   31.1850   47.8870 C   0  0  0  0  0  0  0  0  0  0  0  0
   37.1080   30.4120   46.8870 O   0  0  0  0  0  0  0  0  0  0  0  0
   35.6620   31.9660   50.7400 H   0  0  0  0  0  0  0  0  0  0  0  0
   37.5980   33.5690   50.8530 H   0  0  0  0  0  0  0  0  0  0  0  0
   39.9450   34.6290   47.4390 Br  0  0  0  0  0  0  0  0  0  0  0  0
   40.0550   33.0210   46.4200 C   0  0  0  0  0  0  0  0  0  0  0  0
   39.1970   32.0260   46.8400 C   0  0  0  0  0  0  0  0  0  0  0  0
   39.1880   30.8100   46.1740 C   0  0  0  0  0  0  0  0  0  0  0  0
   38.5540   29.9390   46.4070 H   0  0  0  0  0  0  0  0  0  0  0  0
   40.0270   30.5670   45.0900 C   0  0  0  0  0  0  0  0  0  0  0  0
   40.0420   29.6260   44.5490 H   0  0  0  0  0  0  0  0  0  0  0  0
   40.8900   31.5900   44.6820 C   0  0  0  0  0  3  0  0  0  0  0  0
   40.8940   32.7990   45.3480 C   0  0  0  0  0  3  0  0  0  0  0  0
   35.0000   29.3530   49.8450 C   0  0  0  0  0  0  0  0  0  0  0  0
   35.2190   30.2340   48.7740 C   0  0  0  0  0  0  0  0  0  0  0  0
   34.3940   30.1550   47.6470 C   0  0  0  0  0  0  0  0  0  0  0  0
   33.4130   29.2180   47.6470 N   0  0  0  0  0  0  0  0  0  0  0  0
   33.2090   28.3880   48.6560 C   0  0  0  0  0  0  0  0  0  0  0  0
   33.9940   28.4520   49.7480 N   0  0  0  0  0  0  0  0  0  0  0  0
   34.5850   30.8540   46.8270 H   0  0  0  0  0  0  0  0  0  0  0  0
   32.4200   27.6390   48.6460 H   0  0  0  0  0  0  0  0  0  0  0  0
   37.1370   29.0260   51.2960 C   0  0  0  0  0  0  0  0  0  0  0  0
   37.9430   28.7580   50.3890 O   0  0  0  0  0  0  0  0  0  0  0  0
   35.7650   29.3570   51.0310 N   0  0  0  0  0  0  0  0  0  0  0  0
   37.5780   28.9800   52.2500 H   0  0  0  0  0  0  0  0  0  0  0  0
   35.2990   29.6520   51.9360 H   0  0  0  0  0  0  0  0  0  0  0  0
  1  2  1  0  0  0  0
  2  3  2  0  0  0  0
  2  9  1  0  0  0  0
  3 10  1  0  0  0  0
  4  5  2  0  0  0  0
  4  3  1  0  0  0  0
  6  4  1  0  0  0  0
  7  6  1  0  0  0  0
  7  1  1  0  0  0  0
  8  7  2  0  0  0  0
 12 13  1  0  0  0  0
 12 11  1  0  0  0  0
 13  6  1  0  0  0  0
 14 15  1  0  0  0  0
 14 13  2  0  0  0  0
 16 14  1  0  0  0  0
 17 16  1  0  0  0  0
 18 16  2  0  0  0  0
 18 19  1  0  0  0  0
 19 12  2  0  0  0  0
 20 30  1  0  0  0  0
 21  1  1  0  0  0  0
 21 20  2  0  0  0  0
 22 23  2  0  0  0  0
 22 21  1  0  0  0  0
 23 24  1  0  0  0  0
 24 25  2  0  0  0  0
 25 20  1  0  0  0  0
 26 22  1  0  0  0  0
 27 24  1  0  0  0  0
 28 31  1  0  0  0  0
 29 28  2  0  0  0  0
 30 28  1  0  0  0  0
 30 32  1  0  0  0  0
M  END
>  <minimizedAffinity>
-5.79367638

>  <minimizedRMSD>
0.982711136

$$$$
