
 OpenBabel03272509013D

 31 33  0  0  0  0  0  0  0  0999 V2000
   38.8030   32.0070   48.4970 Cl  0  0  0  0  0  0  0  0  0  0  0  0
   37.3640   31.1830   47.9620 C   0  0  0  0  0  0  0  0  0  0  0  0
   37.1820   30.9400   46.6090 C   0  0  0  0  0  0  0  0  0  0  0  0
   36.0610   30.2950   46.1360 C   0  0  0  0  0  0  0  0  0  0  0  0
   35.0800   29.8710   47.0070 C   0  0  0  0  0  0  0  0  0  0  0  0
   35.2250   30.0950   48.3530 C   0  0  0  0  0  0  0  0  0  0  0  0
   34.0520   29.6200   49.5660 Cl  0  0  0  0  0  0  0  0  0  0  0  0
   36.3660   30.7450   48.7970 C   0  0  0  0  0  0  0  0  0  0  0  0
   35.8790   30.0840   45.0910 H   0  0  0  0  0  0  0  0  0  0  0  0
   34.1870   29.3620   46.6720 H   0  0  0  0  0  0  0  0  0  0  0  0
   39.0820   32.9570   44.2110 C   0  0  0  0  0  0  0  0  0  0  0  0
   40.1700   32.1400   43.8960 C   0  0  0  0  0  0  0  0  0  0  0  0
   40.2340   30.8840   44.5240 C   0  0  0  0  0  0  0  0  0  0  0  0
   39.2450   30.5270   45.4000 N   0  0  0  0  0  0  0  0  0  0  0  0
   38.2030   31.3720   45.6690 C   0  0  0  0  0  0  0  0  0  0  0  0
   38.1430   32.5650   45.0710 N   0  0  0  0  0  0  0  0  0  0  0  0
   39.0900   33.9070   43.6960 H   0  0  0  0  0  0  0  0  0  0  0  0
   40.9890   32.3470   43.2170 H   0  0  0  0  0  0  0  0  0  0  0  0
   41.0120   30.1340   44.3900 H   0  0  0  0  0  0  0  0  0  0  0  0
   36.5660   31.0030   50.2700 C   0  0  0  0  0  0  0  0  0  0  0  0
   37.1170   31.9590   50.3630 H   0  0  0  0  0  0  0  0  0  0  0  0
   35.5590   31.0700   50.7100 H   0  0  0  0  0  0  0  0  0  0  0  0
   36.7110   31.3970   53.2940 Br  0  0  0  0  0  0  0  0  0  0  0  0
   37.4210   29.9340   52.2700 C   0  0  0  0  0  0  0  0  0  0  0  0
   37.2810   29.8620   50.8980 C   0  0  0  0  0  0  0  0  0  0  0  0
   37.8070   28.7800   50.1830 C   0  0  0  0  0  0  0  0  0  0  0  0
   37.6690   28.7740   49.1050 H   0  0  0  0  0  0  0  0  0  0  0  0
   38.4730   27.7820   50.8810 C   0  0  0  0  0  0  0  0  0  0  0  0
   38.8840   26.9380   50.3070 H   0  0  0  0  0  0  0  0  0  0  0  0
   38.6330   27.8200   52.2630 C   0  0  0  0  0  3  0  0  0  0  0  0
   38.0970   28.9140   52.9500 C   0  0  0  0  0  3  0  0  0  0  0  0
  2  1  1  0  0  0  0
  2  8  1  0  0  0  0
  3  2  2  0  0  0  0
  4  3  1  0  0  0  0
  4  5  2  0  0  0  0
  5  6  1  0  0  0  0
  6  8  2  0  0  0  0
  6  7  1  0  0  0  0
  8 20  1  0  0  0  0
  9  4  1  0  0  0  0
 10  5  1  0  0  0  0
 11 16  1  0  0  0  0
 12 11  2  0  0  0  0
 12 13  1  0  0  0  0
 13 14  2  0  0  0  0
 14 15  1  0  0  0  0
 15  3  1  0  0  0  0
 16 15  2  0  0  0  0
 17 11  1  0  0  0  0
 18 12  1  0  0  0  0
 19 13  1  0  0  0  0
 20 21  1  0  0  0  0
 20 22  1  0  0  0  0
 20 25  1  0  0  0  0
 24 31  1  0  0  0  0
 24 23  1  0  0  0  0
 25 24  2  0  0  0  0
 26 28  2  0  0  0  0
 26 25  1  0  0  0  0
 27 26  1  0  0  0  0
 28 30  1  0  0  0  0
 29 28  1  0  0  0  0
 30 31  2  0  0  0  0
M  END
>  <minimizedAffinity>
0.787988126

>  <minimizedRMSD>
1.55304301

$$$$
