
     RDKit          3D

 39 41  0  0  0  0  0  0  0  0999 V2000
   35.3565   29.8313   46.7689 O   0  0  0  0  0  0  0  0  0  0  0  0
   34.0970   29.9964   47.6147 P   0  0  2  0  0  0  0  0  0  0  0  0
   33.1018   31.0320   46.7177 O   0  0  0  0  0  0  0  0  0  0  0  0
   34.3991   30.6456   49.1626 O   0  0  0  0  0  0  0  0  0  0  0  0
   35.6343   30.5114   49.7834 C   0  0  0  0  0  0  0  0  0  0  0  0
   35.9731   29.4898   50.6991 C   0  0  0  0  0  0  0  0  0  0  0  0
   37.2516   29.4885   51.2375 C   0  0  0  0  0  0  0  0  0  0  0  0
   38.1195   30.4686   50.8606 N   0  0  0  0  0  0  0  0  0  0  0  0
   37.7657   31.4354   49.9802 C   0  0  0  0  0  0  0  0  0  0  0  0
   36.5169   31.4593   49.4371 N   0  0  0  0  0  0  0  0  0  0  0  0
   33.3328   28.5146   47.8449 O   0  0  0  0  0  0  0  0  0  0  0  0
   33.0845   27.3431   45.8719 C   0  0  1  0  0  0  0  0  0  0  0  0
   33.9218   27.4764   47.1612 C   0  0  2  0  0  0  0  0  0  0  0  0
   33.8281   26.2479   47.7336 O   0  0  0  0  0  0  0  0  0  0  0  0
   34.0669   25.3686   46.6878 C   0  0  0  0  0  0  0  0  0  0  0  0
   33.4679   25.9522   45.4217 C   0  0  2  0  0  0  0  0  0  0  0  0
   31.7441   27.5184   46.1463 O   0  0  0  0  0  0  0  0  0  0  0  0
   34.3816   25.9996   44.4295 O   0  0  0  0  0  0  0  0  0  0  0  0
   32.2883   31.1787   47.2837 H   0  0  0  0  0  0  0  0  0  0  0  0
   35.1986   28.7923   50.9014 H   0  0  0  0  0  0  0  0  0  0  0  0
   37.4959   28.7035   51.9343 H   0  0  0  0  0  0  0  0  0  0  0  0
   38.5014   32.1907   49.7179 H   0  0  0  0  0  0  0  0  0  0  0  0
   33.4332   28.1153   45.1409 H   0  0  0  0  0  0  0  0  0  0  0  0
   34.9259   27.8058   46.8259 H   0  0  0  0  0  0  0  0  0  0  0  0
   33.5118   24.4357   46.9191 H   0  0  0  0  0  0  0  0  0  0  0  0
   35.1236   25.1063   46.5653 H   0  0  0  0  0  0  0  0  0  0  0  0
   32.4991   25.4490   45.1764 H   0  0  0  0  0  0  0  0  0  0  0  0
   31.3546   28.1250   45.4697 H   0  0  0  0  0  0  0  0  0  0  0  0
   31.8327   25.8457   42.4528 Br  0  0  0  0  0  0  0  0  0  0  0  0
   33.6431   25.4666   42.1018 C   0  0  0  0  0  0  0  0  0  0  0  0
   34.5077   25.6242   43.1507 C   0  0  0  0  0  0  0  0  0  0  0  0
   35.8538   25.3390   42.8761 C   0  0  0  0  0  0  0  0  0  0  0  0
   36.7098   25.3956   43.5572 H   0  0  0  0  0  0  0  0  0  0  0  0
   36.2817   24.9202   41.6090 C   0  0  0  0  0  0  0  0  0  0  0  0
   37.3024   24.6889   41.3471 H   0  0  0  0  0  0  0  0  0  0  0  0
   35.3348   24.7903   40.6144 C   0  0  0  0  0  0  0  0  0  0  0  0
   34.0008   25.0590   40.8359 C   0  0  0  0  0  0  0  0  0  0  0  0
   35.6193   24.4700   39.6214 H   0  0  0  0  0  0  0  0  0  0  0  0
   33.2371   24.9664   40.0771 H   0  0  0  0  0  0  0  0  0  0  0  0
  2  1  2  0
  2 11  1  1
  2  4  1  0
  3  2  1  0
  4  5  1  0
  5  6  2  0
  6  7  1  0
  8  7  2  0
  9  8  1  0
 10  5  1  0
 10  9  2  0
 12 17  1  0
 12 13  1  0
 13 14  1  0
 13 11  1  0
 15 14  1  0
 16 18  1  0
 16 12  1  0
 16 15  1  0
  3 19  1  0
  6 20  1  0
  7 21  1  0
  9 22  1  0
 12 23  1  6
 13 24  1  6
 15 25  1  0
 15 26  1  0
 16 27  1  6
 17 28  1  0
 29 30  1  0
 30 31  2  0
 31 32  1  0
 32 33  1  0
 32 34  2  0
 34 35  1  0
 34 36  1  0
 36 37  2  0
 37 30  1  0
 36 38  1  0
 37 39  1  0
 18 31  1  0
M  ISO  8  19   3  20  14  21  14  22  14  23  13  24  13  25  13  26  13
M  ISO  4  27  13  28   3  33  15  35  16
M  END
>  <DihAtoms>  (1) 
15,17,30,29

>  <DihDeg>  (1) 
0.1331685001171346

$$$$
