
 OpenBabel03272504093D

 33 35  0  0  0  0  0  0  0  0999 V2000
   37.1810   30.6260   50.0980 C   0  0  0  0  0  0  0  0  0  0  0  0
   36.8590   30.5640   48.7340 C   0  0  0  0  0  0  0  0  0  0  0  0
   35.6360   29.9780   48.3310 C   0  0  0  0  0  0  0  0  0  0  0  0
   34.8270   29.4970   49.3070 N   0  0  0  0  0  0  0  0  0  0  0  0
   35.1790   29.5780   50.6290 C   0  0  0  0  0  0  0  0  0  0  0  0
   36.3530   30.1410   51.0180 N   0  0  0  0  0  0  0  0  0  0  0  0
   34.2630   29.0470   51.5980 N   0  0  0  0  0  0  0  0  0  0  0  0
   38.1150   31.0760   50.4080 H   0  0  0  0  0  0  0  0  0  0  0  0
   33.9220   29.7220   52.3260 H   0  0  0  0  0  0  0  0  0  0  0  0
   33.9040   28.0720   51.6470 H   0  0  0  0  0  0  0  0  0  0  0  0
   38.0030   33.3610   49.1090 Cl  0  0  0  0  0  0  0  0  0  0  0  0
   38.4440   32.3540   47.7610 C   0  0  0  0  0  0  0  0  0  0  0  0
   37.8380   31.1340   47.7700 C   0  0  0  0  0  0  0  0  0  0  0  0
   38.1280   30.2400   46.7280 C   0  0  0  0  0  0  0  0  0  0  0  0
   38.9880   30.5490   45.7180 C   0  0  0  0  0  0  0  0  0  0  0  0
   39.5930   31.8080   45.7410 C   0  0  0  0  0  0  0  0  0  0  0  0
   40.7100   32.2620   44.4870 Cl  0  0  0  0  0  0  0  0  0  0  0  0
   39.3110   32.6840   46.7570 C   0  0  0  0  0  0  0  0  0  0  0  0
   37.7280   29.2420   46.6200 H   0  0  0  0  0  0  0  0  0  0  0  0
   39.2480   29.9080   44.8910 H   0  0  0  0  0  0  0  0  0  0  0  0
   39.7480   33.6780   46.8450 H   0  0  0  0  0  0  0  0  0  0  0  0
   35.3280   29.9240   46.9160 C   0  0  0  0  0  0  0  0  0  0  0  0
   35.8690   30.7910   46.4330 H   0  0  0  0  0  0  0  0  0  0  0  0
   35.8170   29.0010   46.4830 H   0  0  0  0  0  0  0  0  0  0  0  0
   34.1590   27.1040   46.9530 Br  0  0  0  0  0  0  0  0  0  0  0  0
   33.2220   28.7270   46.5080 C   0  0  0  0  0  0  0  0  0  0  0  0
   33.9080   29.9330   46.5500 C   0  0  0  0  0  0  0  0  0  0  0  0
   33.2490   31.1150   46.2390 C   0  0  0  0  0  0  0  0  0  0  0  0
   33.7230   32.0680   46.2460 H   0  0  0  0  0  0  0  0  0  0  0  0
   31.9070   31.1120   45.8820 C   0  0  0  0  0  0  0  0  0  0  0  0
   31.3880   32.0560   45.6290 H   0  0  0  0  0  0  0  0  0  0  0  0
   31.2360   29.9090   45.8440 C   0  0  0  0  0  3  0  0  0  0  0  0
   31.8790   28.7090   46.1530 C   0  0  0  0  0  3  0  0  0  0  0  0
  1  8  1  0  0  0  0
  1  6  1  0  0  0  0
  2  1  2  0  0  0  0
  3  2  1  0  0  0  0
  3  4  2  0  0  0  0
  4  5  1  0  0  0  0
  5  6  2  0  0  0  0
  5  7  1  0  0  0  0
  7 10  1  0  0  0  0
  7  9  1  0  0  0  0
 12 13  1  0  0  0  0
 12 11  1  0  0  0  0
 13  2  1  0  0  0  0
 14 13  2  0  0  0  0
 15 16  2  0  0  0  0
 15 14  1  0  0  0  0
 16 18  1  0  0  0  0
 17 16  1  0  0  0  0
 18 21  1  0  0  0  0
 18 12  2  0  0  0  0
 19 14  1  0  0  0  0
 20 15  1  0  0  0  0
 22  3  1  0  0  0  0
 23 22  1  0  0  0  0
 24 22  1  0  0  0  0
 26 27  1  0  0  0  0
 26 25  1  0  0  0  0
 27 22  1  0  0  0  0
 28 29  1  0  0  0  0
 28 27  2  0  0  0  0
 30 28  1  0  0  0  0
 31 30  1  0  0  0  0
 32 30  2  0  0  0  0
 32 33  1  0  0  0  0
 33 26  2  0  0  0  0
M  END
>  <minimizedAffinity>
-5.18965006

>  <minimizedRMSD>
0.823341906

$$$$
