
 OpenBabel03272507333D

 36 39  0  0  1  0  0  0  0  0999 V2000
   35.8420   29.1940   49.8240 C   0  0  0  0  0  0  0  0  0  0  0  0
   34.9130   29.7050   50.7060 C   0  0  0  0  0  0  0  0  0  0  0  0
   33.6510   29.2440   50.3010 C   0  0  0  0  0  0  0  0  0  0  0  0
   33.8990   28.4750   49.1860 C   0  0  0  0  0  0  0  0  0  0  0  0
   35.1910   28.4740   48.9430 O   0  0  0  0  0  0  0  0  0  0  0  0
   35.0570   30.3470   51.5710 H   0  0  0  0  0  0  0  0  0  0  0  0
   32.6650   29.4130   50.7190 H   0  0  0  0  0  0  0  0  0  0  0  0
   37.2630   29.4750   49.9490 C   0  0  0  0  0  0  0  0  0  0  0  0
   37.9450   28.8050   50.7360 O   0  0  0  0  0  0  0  0  0  0  0  0
   37.7950   30.5330   49.1360 C   0  0  0  0  0  0  0  0  0  0  0  0
   38.1540   31.7040   49.7820 C   0  0  0  0  0  0  0  0  0  0  0  0
   38.6730   32.7540   49.0170 C   0  0  0  0  0  0  0  0  0  0  0  0
   38.7980   32.5640   47.6590 N   0  0  0  0  0  0  0  0  0  0  0  0
   38.4410   31.4190   47.0710 C   0  0  0  0  0  0  0  0  0  0  0  0
   37.9410   30.4070   47.7970 N   0  0  0  0  0  0  0  0  0  0  0  0
   38.0420   31.8160   50.8430 H   0  0  0  0  0  0  0  0  0  0  0  0
   38.9480   33.6590   49.5390 H   0  0  0  0  0  0  0  0  0  0  0  0
   38.5620   31.3290   45.9990 H   0  0  0  0  0  0  0  0  0  0  0  0
   32.8910   27.7660   48.3980 C   0  0  0  0  0  0  0  0  0  0  0  0
   31.8110   27.4080   48.9780 O   0  0  0  0  0  0  0  0  0  0  0  0
   33.1280   27.4630   46.9480 C   0  0  1  0  0  0  0  0  0  0  0  0
   32.6270   26.0010   46.6180 C   0  0  0  0  0  0  0  0  0  0  0  0
   32.0100   27.2120   46.0370 C   0  0  1  0  0  0  0  0  0  0  0  0
   34.2070   27.5210   46.6160 H   0  0  0  0  0  0  0  0  0  0  0  0
   33.2700   25.4000   45.9530 H   0  0  0  0  0  0  0  0  0  0  0  0
   32.1860   25.4280   47.4250 H   0  0  0  0  0  0  0  0  0  0  0  0
   32.2520   27.4220   44.9520 H   0  0  0  0  0  0  0  0  0  0  0  0
   31.5420   30.3010   45.6920 Br  0  0  0  0  0  0  0  0  0  0  0  0
   30.3200   28.9680   46.2780 C   0  0  0  0  0  0  0  0  0  0  0  0
   30.6300   27.6260   46.3950 C   0  0  0  0  0  0  0  0  0  0  0  0
   29.6730   26.7310   46.8310 C   0  0  0  0  0  0  0  0  0  0  0  0
   29.9470   25.6910   46.9110 H   0  0  0  0  0  0  0  0  0  0  0  0
   28.3960   27.1290   47.1600 C   0  0  0  0  0  0  0  0  0  0  0  0
   27.6790   26.3910   47.4970 H   0  0  0  0  0  0  0  0  0  0  0  0
   28.0940   28.4750   47.0410 C   0  0  0  0  0  3  0  0  0  0  0  0
   29.0300   29.3880   46.6090 C   0  0  0  0  0  3  0  0  0  0  0  0
  1  8  1  0  0  0  0
  1  2  2  0  0  0  0
  2  6  1  0  0  0  0
  3  2  1  0  0  0  0
  3  7  1  0  0  0  0
  4  3  2  0  0  0  0
  5  4  1  0  0  0  0
  5  1  1  0  0  0  0
  8  9  2  0  0  0  0
 10 11  1  0  0  0  0
 10  8  1  0  0  0  0
 11 16  1  0  0  0  0
 12 17  1  0  0  0  0
 12 11  2  0  0  0  0
 13 12  1  0  0  0  0
 14 13  2  0  0  0  0
 14 15  1  0  0  0  0
 15 10  2  0  0  0  0
 18 14  1  0  0  0  0
 19 20  2  0  0  0  0
 19  4  1  0  0  0  0
 21 24  1  6  0  0  0
 21 19  1  0  0  0  0
 22 21  1  0  0  0  0
 22 26  1  0  0  0  0
 23 27  1  6  0  0  0
 23 30  1  0  0  0  0
 23 22  1  0  0  0  0
 23 21  1  0  0  0  0
 25 22  1  0  0  0  0
 28 29  1  0  0  0  0
 29 30  2  0  0  0  0
 29 36  1  0  0  0  0
 30 31  1  0  0  0  0
 31 32  1  0  0  0  0
 31 33  2  0  0  0  0
 33 34  1  0  0  0  0
 35 33  1  0  0  0  0
 36 35  2  0  0  0  0
M  END
>  <minimizedAffinity>
-5.54425955

>  <minimizedRMSD>
1.47946763

$$$$
