
     RDKit          3D

 41 44  0  0  0  0  0  0  0  0999 V2000
   35.4962   28.9185   49.1541 C   0  0  0  0  0  0  0  0  0  0  0  0
   35.4299   30.0976   48.4072 C   0  0  0  0  0  0  0  0  0  0  0  0
   34.3310   30.2532   47.5577 C   0  0  0  0  0  0  0  0  0  0  0  0
   33.4049   29.2618   47.5088 N   0  0  0  0  0  0  0  0  0  0  0  0
   33.4934   28.1460   48.2326 C   0  0  0  0  0  0  0  0  0  0  0  0
   34.5517   27.9648   49.0701 N   0  0  0  0  0  0  0  0  0  0  0  0
   36.4628   31.0530   48.5446 N   0  0  0  0  0  0  0  0  0  0  0  0
   36.6340   31.7637   49.6534 C   0  0  0  0  0  0  0  0  0  0  0  0
   37.6673   32.6890   49.7307 C   0  0  0  0  0  0  0  0  0  0  0  0
   38.4457   32.7848   48.6069 C   0  0  0  0  0  0  0  0  0  0  0  0
   39.3998   33.6267   48.6538 O   0  0  0  0  0  0  0  0  0  0  0  0
   38.3138   32.0956   47.4744 N   0  0  0  0  0  0  0  0  0  0  0  0
   37.2836   31.1998   47.4497 C   0  0  0  0  0  0  0  0  0  0  0  0
   37.1389   30.5305   46.3770 O   0  0  0  0  0  0  0  0  0  0  0  0
   32.5268   27.1448   48.1597 O   0  0  0  0  0  0  0  0  0  0  0  0
   31.2045   27.5678   48.2702 C   0  0  0  0  0  0  0  0  0  0  0  0
   30.7713   27.7115   49.5699 C   0  0  0  0  0  0  0  0  0  0  0  0
   29.4902   28.1226   49.8416 C   0  0  0  0  0  0  0  0  0  0  0  0
   28.6228   28.3961   48.7719 C   0  0  0  0  0  0  0  0  0  0  0  0
   29.0751   28.2461   47.4644 C   0  0  0  0  0  0  0  0  0  0  0  0
   30.3553   27.8352   47.2265 C   0  0  0  0  0  0  0  0  0  0  0  0
   36.3376   28.7539   49.8320 H   0  0  0  0  0  0  0  0  0  0  0  0
   34.2846   31.1651   46.9838 H   0  0  0  0  0  0  0  0  0  0  0  0
   35.9799   31.6297   50.4928 H   0  0  0  0  0  0  0  0  0  0  0  0
   37.8603   33.2950   50.5967 H   0  0  0  0  0  0  0  0  0  0  0  0
   38.9415   32.2145   46.6502 H   0  0  0  0  0  0  0  0  0  0  0  0
   31.3870   27.5178   50.4338 H   0  0  0  0  0  0  0  0  0  0  0  0
   29.1347   28.2403   50.8600 H   0  0  0  0  0  0  0  0  0  0  0  0
   27.6188   28.7183   48.9986 H   0  0  0  0  0  0  0  0  0  0  0  0
   28.4116   28.4553   46.6387 H   0  0  0  0  0  0  0  0  0  0  0  0
   31.8836   25.2271   47.1976 Br  0  0  0  0  0  0  0  0  0  0  0  0
   31.5662   26.4687   45.7800 C   0  0  0  0  0  0  0  0  0  0  0  0
   30.8465   27.6680   45.8620 C   0  0  0  0  0  0  0  0  0  0  0  0
   30.7278   28.4323   44.7196 C   0  0  0  0  0  0  0  0  0  0  0  0
   30.1459   29.3242   44.9375 H   0  0  0  0  0  0  0  0  0  0  0  0
   31.2920   28.0316   43.5555 C   0  0  0  0  0  0  0  0  0  0  0  0
   31.1292   28.7238   42.7155 H   0  0  0  0  0  0  0  0  0  0  0  0
   32.0063   26.8580   43.4403 C   0  0  0  0  0  0  0  0  0  0  0  0
   32.1412   26.0737   44.5660 C   0  0  0  0  0  0  0  0  0  0  0  0
   32.4297   26.5924   42.4951 H   0  0  0  0  0  0  0  0  0  0  0  0
   32.7084   25.1689   44.4195 H   0  0  0  0  0  0  0  0  0  0  0  0
  2  7  1  0
  2  1  2  0
  3  2  1  0
  4  3  2  0
  4  5  1  0
  5  6  2  0
  6  1  1  0
  7  8  1  0
  8  9  2  0
 10 11  2  0
 10  9  1  0
 12 10  1  0
 13 12  1  0
 13  7  1  0
 14 13  2  0
 15  5  1  0
 15 16  1  0
 16 17  2  0
 17 18  1  0
 19 18  2  0
 20 19  1  0
 21 20  2  0
 21 16  1  0
  1 22  1  0
  3 23  1  0
  8 24  1  0
  9 25  1  0
 12 26  1  0
 17 27  1  0
 18 28  1  0
 19 29  1  0
 20 30  1  0
 31 32  1  0
 32 33  2  0
 33 34  1  0
 34 35  1  0
 34 36  2  0
 36 37  1  0
 36 38  1  0
 38 39  2  0
 39 32  1  0
 38 40  1  0
 39 41  1  0
 21 33  1  0
M  ISO  8  22  14  23  14  24  14  25  14  26   9  27  14  28  14  29  14
M  ISO  3  30  14  35  15  37  16
M  END
>  <DihAtoms>  (1) 
19,20,32,31

>  <DihDeg>  (1) 
-90.852936134958

$$$$
