
     RDKit          3D

 39 41  0  0  0  0  0  0  0  0999 V2000
   35.3565   29.8313   46.7689 O   0  0  0  0  0  0  0  0  0  0  0  0
   34.0970   29.9964   47.6147 P   0  0  2  0  0  0  0  0  0  0  0  0
   33.1018   31.0320   46.7177 O   0  0  0  0  0  0  0  0  0  0  0  0
   34.3991   30.6456   49.1626 O   0  0  0  0  0  0  0  0  0  0  0  0
   35.6343   30.5114   49.7834 C   0  0  0  0  0  0  0  0  0  0  0  0
   35.9731   29.4898   50.6991 C   0  0  0  0  0  0  0  0  0  0  0  0
   37.2516   29.4885   51.2375 C   0  0  0  0  0  0  0  0  0  0  0  0
   38.1195   30.4686   50.8606 N   0  0  0  0  0  0  0  0  0  0  0  0
   37.7657   31.4354   49.9802 C   0  0  0  0  0  0  0  0  0  0  0  0
   36.5169   31.4593   49.4371 N   0  0  0  0  0  0  0  0  0  0  0  0
   33.3328   28.5146   47.8449 O   0  0  0  0  0  0  0  0  0  0  0  0
   33.0845   27.3431   45.8719 C   0  0  1  0  0  0  0  0  0  0  0  0
   33.9218   27.4764   47.1612 C   0  0  2  0  0  0  0  0  0  0  0  0
   33.8281   26.2479   47.7336 O   0  0  0  0  0  0  0  0  0  0  0  0
   34.0669   25.3686   46.6878 C   0  0  0  0  0  0  0  0  0  0  0  0
   33.4679   25.9522   45.4217 C   0  0  2  0  0  0  0  0  0  0  0  0
   31.7441   27.5184   46.1463 O   0  0  0  0  0  0  0  0  0  0  0  0
   34.3816   25.9996   44.4295 O   0  0  0  0  0  0  0  0  0  0  0  0
   32.2883   31.1787   47.2837 H   0  0  0  0  0  0  0  0  0  0  0  0
   35.1986   28.7923   50.9014 H   0  0  0  0  0  0  0  0  0  0  0  0
   37.4959   28.7035   51.9343 H   0  0  0  0  0  0  0  0  0  0  0  0
   38.5014   32.1907   49.7179 H   0  0  0  0  0  0  0  0  0  0  0  0
   33.4332   28.1153   45.1409 H   0  0  0  0  0  0  0  0  0  0  0  0
   34.9259   27.8058   46.8259 H   0  0  0  0  0  0  0  0  0  0  0  0
   33.5118   24.4357   46.9191 H   0  0  0  0  0  0  0  0  0  0  0  0
   35.1236   25.1063   46.5653 H   0  0  0  0  0  0  0  0  0  0  0  0
   32.4991   25.4490   45.1764 H   0  0  0  0  0  0  0  0  0  0  0  0
   31.3546   28.1250   45.4697 H   0  0  0  0  0  0  0  0  0  0  0  0
   33.5395   27.9553   42.0018 Br  0  0  0  0  0  0  0  0  0  0  0  0
   34.2452   26.2110   41.9426 C   0  0  0  0  0  0  0  0  0  0  0  0
   34.5077   25.6242   43.1507 C   0  0  0  0  0  0  0  0  0  0  0  0
   35.0335   24.3247   43.0930 C   0  0  0  0  0  0  0  0  0  0  0  0
   35.3154   23.6714   43.9259 H   0  0  0  0  0  0  0  0  0  0  0  0
   35.2732   23.6728   41.8758 C   0  0  0  0  0  0  0  0  0  0  0  0
   35.6752   22.6765   41.7774 H   0  0  0  0  0  0  0  0  0  0  0  0
   34.9762   24.3465   40.7093 C   0  0  0  0  0  0  0  0  0  0  0  0
   34.4582   25.6242   40.7151 C   0  0  0  0  0  0  0  0  0  0  0  0
   35.1447   23.8826   39.7471 H   0  0  0  0  0  0  0  0  0  0  0  0
   34.2160   26.1764   39.8184 H   0  0  0  0  0  0  0  0  0  0  0  0
  2  1  2  0
  2 11  1  1
  2  4  1  0
  3  2  1  0
  4  5  1  0
  5  6  2  0
  6  7  1  0
  8  7  2  0
  9  8  1  0
 10  5  1  0
 10  9  2  0
 12 17  1  0
 12 13  1  0
 13 14  1  0
 13 11  1  0
 15 14  1  0
 16 18  1  0
 16 12  1  0
 16 15  1  0
  3 19  1  0
  6 20  1  0
  7 21  1  0
  9 22  1  0
 12 23  1  6
 13 24  1  6
 15 25  1  0
 15 26  1  0
 16 27  1  6
 17 28  1  0
 29 30  1  0
 30 31  2  0
 31 32  1  0
 32 33  1  0
 32 34  2  0
 34 35  1  0
 34 36  1  0
 36 37  2  0
 37 30  1  0
 36 38  1  0
 37 39  1  0
 18 31  1  0
M  ISO  8  19   3  20  14  21  14  22  14  23  13  24  13  25  13  26  13
M  ISO  4  27  13  28   3  33  15  35  16
M  END
>  <DihAtoms>  (1) 
15,17,30,29

>  <DihDeg>  (1) 
0.1331685001171346

$$$$
