REMARK  Name = 
REMARK  5 active torsions:
REMARK  status: ('A' for Active; 'I' for Inactive)
REMARK    1  A    between atoms: C_1  and  C_2
REMARK    2  A    between atoms: C_1  and  C_11
REMARK    3  A    between atoms: N_5  and  C_7
REMARK    4  A    between atoms: C_11  and  C_12
REMARK    5  A    between atoms: C_16  and  C_28
REMARK                            x       y       z     vdW  Elec       q    Type
REMARK                         _______ _______ _______ _____ _____    ______ ____
ROOT
ATOM      1  C   UNL     1      39.836  31.594  46.443  0.00  0.00    +0.000 C 
ATOM      2  H   UNL     1      40.864  31.875  46.789  0.00  0.00    +0.000 HD
ATOM      3  H   UNL     1      39.782  30.493  46.697  0.00  0.00    +0.000 HD
ENDROOT
BRANCH   1   4
ATOM      4  C   UNL     1      39.803  31.767  45.018  0.00  0.00    +0.000 A 
ATOM      5  C   UNL     1      39.241  32.868  44.456  0.00  0.00    +0.000 A 
ATOM      6  C   UNL     1      39.207  33.042  43.068  0.00  0.00    +0.000 A 
ATOM      7  N   UNL     1      39.783  32.017  42.327  0.00  0.00    +0.000 NA
ATOM      8  C   UNL     1      40.331  30.941  42.909  0.00  0.00    +0.000 A 
ATOM      9  N   UNL     1      40.327  30.842  44.249  0.00  0.00    +0.000 NA
ATOM     10  H   UNL     1      38.789  33.675  44.998  0.00  0.00    +0.000 HD
ATOM     11  H   UNL     1      38.776  33.890  42.593  0.00  0.00    +0.000 HD
BRANCH   8  14
ATOM     12 BR   UNL     1      41.484  32.041  40.244  0.00  0.00    +0.000 Br
ATOM     13  C   UNL     1      41.482  30.236  40.856  0.00  0.00    +0.000 A 
ATOM     14  C   UNL     1      40.922  29.893  42.087  0.00  0.00    +0.000 A 
ATOM     15  C   UNL     1      40.930  28.592  42.509  0.00  0.00    +0.000 A 
ATOM     16  H   UNL     1      40.496  28.292  43.473  0.00  0.00    +0.000 HD
ATOM     17  C   UNL     1      41.483  27.558  41.758  0.00  0.00    +0.000 A 
ATOM     18  H   UNL     1      41.476  26.536  42.116  0.00  0.00    +0.000 HD
ATOM     19  C   UNL     1      42.048  27.880  40.525  0.00  0.00    +0.000 A 
ATOM     20  C   UNL     1      42.029  29.209  40.116  0.00  0.00    +0.000 A 
ENDBRANCH   8  14
ENDBRANCH   1   4
BRANCH   1  21
ATOM     21  C   UNL     1      38.833  32.249  47.294  0.00  0.00    +0.000 C 
ATOM     22  H   UNL     1      38.102  32.882  46.750  0.00  0.00    +0.000 HD
ATOM     23  H   UNL     1      39.321  32.971  48.013  0.00  0.00    +0.000 HD
BRANCH  21  24
ATOM     24  C   UNL     1      38.062  31.332  48.157  0.00  0.00    +0.000 A 
ATOM     25  C   UNL     1      36.970  30.627  47.657  0.00  0.00    +0.000 A 
ATOM     26  C   UNL     1      36.455  29.863  48.673  0.00  0.00    +0.000 A 
ATOM     27  N   UNL     1      37.216  30.103  49.754  0.00  0.00    +0.000 N 
ATOM     28  N   UNL     1      38.142  30.963  49.417  0.00  0.00    +0.000 NA
ATOM     29  H   UNL     1      36.566  30.651  46.643  0.00  0.00    +0.000 HD
ATOM     30  H   UNL     1      35.601  29.174  48.684  0.00  0.00    +0.000 HD
BRANCH  27  31
ATOM     31  C   UNL     1      37.082  29.534  51.094  0.00  0.00    +0.000 C 
ATOM     32  F   UNL     1      37.846  28.385  51.198  0.00  0.00    +0.000 F 
ATOM     33  F   UNL     1      35.782  29.211  51.391  0.00  0.00    +0.000 F 
ATOM     34  F   UNL     1      37.543  30.407  52.059  0.00  0.00    +0.000 F 
ENDBRANCH  27  31
ENDBRANCH  21  24
ENDBRANCH   1  21
TORSDOF 5
