
 OpenBabel03272507333D

 36 39  0  0  1  0  0  0  0  0999 V2000
   35.8420   29.1940   49.8250 C   0  0  0  0  0  0  0  0  0  0  0  0
   34.9120   29.7040   50.7070 C   0  0  0  0  0  0  0  0  0  0  0  0
   33.6510   29.2430   50.3020 C   0  0  0  0  0  0  0  0  0  0  0  0
   33.8980   28.4740   49.1860 C   0  0  0  0  0  0  0  0  0  0  0  0
   35.1910   28.4740   48.9440 O   0  0  0  0  0  0  0  0  0  0  0  0
   35.0570   30.3460   51.5720 H   0  0  0  0  0  0  0  0  0  0  0  0
   32.6640   29.4110   50.7200 H   0  0  0  0  0  0  0  0  0  0  0  0
   37.2630   29.4740   49.9500 C   0  0  0  0  0  0  0  0  0  0  0  0
   37.9440   28.8050   50.7380 O   0  0  0  0  0  0  0  0  0  0  0  0
   37.7940   30.5320   49.1370 C   0  0  0  0  0  0  0  0  0  0  0  0
   38.1560   31.7020   49.7820 C   0  0  0  0  0  0  0  0  0  0  0  0
   38.6750   32.7520   49.0160 C   0  0  0  0  0  0  0  0  0  0  0  0
   38.7980   32.5620   47.6590 N   0  0  0  0  0  0  0  0  0  0  0  0
   38.4390   31.4170   47.0710 C   0  0  0  0  0  0  0  0  0  0  0  0
   37.9400   30.4050   47.7970 N   0  0  0  0  0  0  0  0  0  0  0  0
   38.0440   31.8150   50.8440 H   0  0  0  0  0  0  0  0  0  0  0  0
   38.9510   33.6570   49.5380 H   0  0  0  0  0  0  0  0  0  0  0  0
   38.5600   31.3260   45.9990 H   0  0  0  0  0  0  0  0  0  0  0  0
   32.8900   27.7660   48.3980 C   0  0  0  0  0  0  0  0  0  0  0  0
   31.8110   27.4080   48.9780 O   0  0  0  0  0  0  0  0  0  0  0  0
   33.1280   27.4640   46.9480 C   0  0  1  0  0  0  0  0  0  0  0  0
   32.6270   26.0020   46.6180 C   0  0  0  0  0  0  0  0  0  0  0  0
   32.0100   27.2120   46.0370 C   0  0  1  0  0  0  0  0  0  0  0  0
   34.2070   27.5220   46.6170 H   0  0  0  0  0  0  0  0  0  0  0  0
   33.2710   25.4010   45.9520 H   0  0  0  0  0  0  0  0  0  0  0  0
   32.1860   25.4280   47.4250 H   0  0  0  0  0  0  0  0  0  0  0  0
   32.2520   27.4230   44.9520 H   0  0  0  0  0  0  0  0  0  0  0  0
   31.5420   30.3020   45.6920 Br  0  0  0  0  0  0  0  0  0  0  0  0
   30.3200   28.9680   46.2780 C   0  0  0  0  0  0  0  0  0  0  0  0
   30.6300   27.6270   46.3950 C   0  0  0  0  0  0  0  0  0  0  0  0
   29.6730   26.7300   46.8310 C   0  0  0  0  0  0  0  0  0  0  0  0
   29.9470   25.6910   46.9110 H   0  0  0  0  0  0  0  0  0  0  0  0
   28.3970   27.1290   47.1600 C   0  0  0  0  0  0  0  0  0  0  0  0
   27.6790   26.3900   47.4970 H   0  0  0  0  0  0  0  0  0  0  0  0
   28.0930   28.4730   47.0410 C   0  0  0  0  0  3  0  0  0  0  0  0
   29.0300   29.3880   46.6080 C   0  0  0  0  0  3  0  0  0  0  0  0
  1  8  1  0  0  0  0
  1  2  2  0  0  0  0
  2  6  1  0  0  0  0
  3  2  1  0  0  0  0
  3  7  1  0  0  0  0
  4  3  2  0  0  0  0
  5  4  1  0  0  0  0
  5  1  1  0  0  0  0
  8  9  2  0  0  0  0
 10 11  1  0  0  0  0
 10  8  1  0  0  0  0
 11 16  1  0  0  0  0
 12 17  1  0  0  0  0
 12 11  2  0  0  0  0
 13 12  1  0  0  0  0
 14 13  2  0  0  0  0
 14 15  1  0  0  0  0
 15 10  2  0  0  0  0
 18 14  1  0  0  0  0
 19 20  2  0  0  0  0
 19  4  1  0  0  0  0
 21 24  1  6  0  0  0
 21 19  1  0  0  0  0
 22 21  1  0  0  0  0
 22 26  1  0  0  0  0
 23 27  1  6  0  0  0
 23 30  1  0  0  0  0
 23 22  1  0  0  0  0
 23 21  1  0  0  0  0
 25 22  1  0  0  0  0
 28 29  1  0  0  0  0
 29 30  2  0  0  0  0
 29 36  1  0  0  0  0
 30 31  1  0  0  0  0
 31 32  1  0  0  0  0
 31 33  2  0  0  0  0
 33 34  1  0  0  0  0
 35 33  1  0  0  0  0
 36 35  2  0  0  0  0
M  END
>  <minimizedAffinity>
-5.54417324

>  <minimizedRMSD>
1.45009661

$$$$
