
 OpenBabel03272503493D

 37 39  0  0  1  0  0  0  0  0999 V2000
   33.2110   27.3240   45.8470 C   0  0  1  0  0  0  0  0  0  0  0  0
   33.9210   27.4580   47.2110 C   0  0  2  0  0  0  0  0  0  0  0  0
   33.7470   26.2400   47.7850 O   0  0  0  0  0  0  0  0  0  0  0  0
   34.0710   25.3430   46.7780 C   0  0  0  0  0  0  0  0  0  0  0  0
   33.6110   25.9210   45.4520 C   0  0  2  0  0  0  0  0  0  0  0  0
   33.6450   28.0800   45.1450 H   0  0  0  0  0  0  0  0  0  0  0  0
   34.9590   27.7660   46.9730 H   0  0  0  0  0  0  0  0  0  0  0  0
   33.4790   24.4230   46.9630 H   0  0  0  0  0  0  0  0  0  0  0  0
   35.1300   25.0600   46.7620 H   0  0  0  0  0  0  0  0  0  0  0  0
   32.6620   25.4320   45.1170 H   0  0  0  0  0  0  0  0  0  0  0  0
   31.8540   27.5260   45.9850 O   0  0  0  0  0  0  0  0  0  0  0  0
   31.5460   28.1310   45.2670 H   0  0  0  0  0  0  0  0  0  0  0  0
   33.2870   28.5170   47.8220 O   0  0  0  0  0  0  0  0  0  0  0  0
   35.3450   29.8120   46.7880 O   0  0  0  0  0  0  0  0  0  0  0  0
   34.0790   29.9870   47.6220 P   0  0  1  0  0  0  0  0  0  0  0  0
   33.1130   31.0530   46.7280 O   0  0  0  0  0  0  0  0  0  0  0  0
   32.2950   31.2060   47.2870 H   0  0  0  0  0  0  0  0  0  0  0  0
   34.3750   30.6100   49.1820 O   0  0  0  0  0  0  0  0  0  0  0  0
   35.6150   30.4890   49.7930 C   0  0  0  0  0  0  0  0  0  0  0  0
   35.9710   29.4760   50.7110 C   0  0  0  0  0  0  0  0  0  0  0  0
   37.2540   29.4880   51.2390 C   0  0  0  0  0  0  0  0  0  0  0  0
   38.1100   30.4760   50.8520 N   0  0  0  0  0  0  0  0  0  0  0  0
   37.7400   31.4350   49.9700 C   0  0  0  0  0  0  0  0  0  0  0  0
   36.4860   31.4440   49.4370 N   0  0  0  0  0  0  0  0  0  0  0  0
   35.2060   28.7710   50.9210 H   0  0  0  0  0  0  0  0  0  0  0  0
   37.5110   28.7090   51.9370 H   0  0  0  0  0  0  0  0  0  0  0  0
   38.4650   32.1970   49.7000 H   0  0  0  0  0  0  0  0  0  0  0  0
   34.6190   25.9400   44.5540 O   0  0  0  0  0  0  0  0  0  0  0  0
   35.8210   28.6690   43.3170 Br  0  0  0  0  0  0  0  0  0  0  0  0
   35.2700   27.0970   42.4380 C   0  0  0  0  0  0  0  0  0  0  0  0
   34.7980   26.0920   43.2370 C   0  0  0  0  0  0  0  0  0  0  0  0
   34.3910   24.9280   42.5690 C   0  0  0  0  0  0  0  0  0  0  0  0
   33.9840   24.0070   43.0020 H   0  0  0  0  0  0  0  0  0  0  0  0
   34.4660   24.8040   41.1750 C   0  0  0  0  0  0  0  0  0  0  0  0
   34.1670   23.9310   40.6160 H   0  0  0  0  0  0  0  0  0  0  0  0
   34.9570   25.8720   40.4550 C   0  0  0  0  0  3  0  0  0  0  0  0
   35.3690   27.0380   41.0650 C   0  0  0  0  0  3  0  0  0  0  0  0
  1  6  1  6  0  0  0
  1 11  1  0  0  0  0
  1  2  1  0  0  0  0
  2  7  1  6  0  0  0
  2  3  1  0  0  0  0
  2 13  1  0  0  0  0
  4  8  1  0  0  0  0
  4  3  1  0  0  0  0
  5 10  1  6  0  0  0
  5  1  1  0  0  0  0
  5  4  1  0  0  0  0
  9  4  1  0  0  0  0
 12 11  1  0  0  0  0
 15 14  2  6  0  0  0
 15 13  1  0  0  0  0
 15 18  1  0  0  0  0
 16 17  1  0  0  0  0
 16 15  1  0  0  0  0
 18 19  1  0  0  0  0
 19 20  1  0  0  0  0
 20 25  1  0  0  0  0
 20 21  2  0  0  0  0
 21 26  1  0  0  0  0
 22 21  1  0  0  0  0
 23 22  2  0  0  0  0
 24 19  2  0  0  0  0
 24 23  1  0  0  0  0
 27 23  1  0  0  0  0
 28  5  1  0  0  0  0
 30 31  1  0  0  0  0
 30 29  1  0  0  0  0
 31 28  1  0  0  0  0
 32 33  1  0  0  0  0
 32 31  2  0  0  0  0
 34 32  1  0  0  0  0
 35 34  1  0  0  0  0
 36 37  1  0  0  0  0
 36 34  2  0  0  0  0
 37 30  2  0  0  0  0
M  END
>  <minimizedAffinity>
-4.07372427

>  <minimizedRMSD>
0.685337901

$$$$
