
 OpenBabel03272504003D

 31 33  0  0  0  0  0  0  0  0999 V2000
   36.0880   30.2830   45.3530 C   0  0  0  0  0  0  0  0  0  0  0  0
   34.7470   30.1870   45.6880 C   0  0  0  0  0  0  0  0  0  0  0  0
   34.6550   30.0970   47.0510 C   0  0  0  0  0  0  0  0  0  0  0  0
   35.9050   30.1360   47.5180 N   0  0  0  0  0  0  0  0  0  0  0  0
   36.7370   30.2460   46.5200 N   0  0  0  0  0  0  0  0  0  0  0  0
   33.8900   30.1810   45.0180 H   0  0  0  0  0  0  0  0  0  0  0  0
   33.7500   30.0120   47.6100 H   0  0  0  0  0  0  0  0  0  0  0  0
   38.2310   32.0500   47.7600 Br  0  0  0  0  0  0  0  0  0  0  0  0
   37.4320   30.9270   49.0990 C   0  0  0  0  0  0  0  0  0  0  0  0
   36.3510   30.0770   48.8680 C   0  0  0  0  0  0  0  0  0  0  0  0
   35.8700   29.3220   49.9140 C   0  0  0  0  0  0  0  0  0  0  0  0
   35.0360   28.6980   49.6400 H   0  0  0  0  0  0  0  0  0  0  0  0
   36.4620   29.4220   51.1570 C   0  0  0  0  0  0  0  0  0  0  0  0
   36.0470   28.8080   51.9460 H   0  0  0  0  0  0  0  0  0  0  0  0
   37.5320   30.2600   51.3980 C   0  0  0  0  0  0  0  0  0  0  0  0
   38.0110   31.0160   50.3400 C   0  0  0  0  0  0  0  0  0  0  0  0
   36.5190   30.3860   43.9440 C   0  0  0  0  0  0  0  0  0  0  0  0
   35.6210   30.4840   43.2620 H   0  0  0  0  0  0  0  0  0  0  0  0
   37.0050   31.3620   43.8430 H   0  0  0  0  0  0  0  0  0  0  0  0
   37.2540   29.1910   43.4720 C   0  0  0  0  0  0  0  0  0  0  0  0
   37.1980   28.4300   44.3110 H   0  0  0  0  0  0  0  0  0  0  0  0
   36.7280   28.6520   42.6300 H   0  0  0  0  0  0  0  0  0  0  0  0
   38.6420   29.3220   43.1210 C   0  0  0  0  0  0  0  0  0  0  0  0
   39.3580   30.4310   43.4740 C   0  0  0  0  0  0  0  0  0  0  0  0
   40.7200   30.5570   43.1190 C   0  0  0  0  0  0  0  0  0  0  0  0
   41.2470   29.4890   42.4070 N   0  0  0  0  0  0  0  0  0  0  0  0
   40.5010   28.4130   42.0810 C   0  0  0  0  0  0  0  0  0  0  0  0
   39.1940   28.3340   42.4420 N   0  0  0  0  0  0  0  0  0  0  0  0
   39.0610   31.3080   44.0230 H   0  0  0  0  0  0  0  0  0  0  0  0
   41.3650   31.3690   43.3420 H   0  0  0  0  0  0  0  0  0  0  0  0
   40.9990   27.6290   41.5230 H   0  0  0  0  0  0  0  0  0  0  0  0
  1  2  1  0  0  0  0
  1  5  2  0  0  0  0
  2  3  2  0  0  0  0
  3  4  1  0  0  0  0
  3  7  1  0  0  0  0
  4 10  1  0  0  0  0
  5  4  1  0  0  0  0
  6  2  1  0  0  0  0
  8  9  1  0  0  0  0
  9 16  1  0  0  0  0
 10  9  2  0  0  0  0
 10 11  1  0  0  0  0
 11 13  2  0  0  0  0
 12 11  1  0  0  0  0
 13 15  1  0  0  0  0
 13 14  1  0  0  0  0
 16 15  2  0  0  0  0
 17  1  1  0  0  0  0
 18 17  1  0  0  0  0
 19 17  1  0  0  0  0
 20 17  1  0  0  0  0
 20 21  1  0  0  0  0
 22 20  1  0  0  0  0
 23 20  1  0  0  0  0
 23 24  1  0  0  0  0
 24 29  1  0  0  0  0
 25 30  1  0  0  0  0
 25 24  2  0  0  0  0
 26 25  1  0  0  0  0
 27 26  2  0  0  0  0
 27 28  1  0  0  0  0
 28 23  2  0  0  0  0
 31 27  1  0  0  0  0
M  END
>  <minimizedAffinity>
-5.35108614

>  <minimizedRMSD>
4.27849293

$$$$
