
 OpenBabel03272507343D

 36 39  0  0  1  0  0  0  0  0999 V2000
   35.8930   29.2970   49.7930 C   0  0  0  0  0  0  0  0  0  0  0  0
   34.9980   29.8860   50.6620 C   0  0  0  0  0  0  0  0  0  0  0  0
   33.7170   29.4280   50.3200 C   0  0  0  0  0  0  0  0  0  0  0  0
   33.9180   28.5820   49.2520 C   0  0  0  0  0  0  0  0  0  0  0  0
   35.2040   28.5360   48.9780 O   0  0  0  0  0  0  0  0  0  0  0  0
   35.1790   30.5800   51.4790 H   0  0  0  0  0  0  0  0  0  0  0  0
   32.7450   29.6460   50.7500 H   0  0  0  0  0  0  0  0  0  0  0  0
   37.3220   29.5530   49.8640 C   0  0  0  0  0  0  0  0  0  0  0  0
   38.0180   28.8840   50.6390 O   0  0  0  0  0  0  0  0  0  0  0  0
   37.8440   30.5860   49.0140 C   0  0  0  0  0  0  0  0  0  0  0  0
   38.2010   31.7800   49.6190 C   0  0  0  0  0  0  0  0  0  0  0  0
   38.7100   32.8070   48.8180 C   0  0  0  0  0  0  0  0  0  0  0  0
   38.8300   32.5740   47.4660 N   0  0  0  0  0  0  0  0  0  0  0  0
   38.4760   31.4080   46.9180 C   0  0  0  0  0  0  0  0  0  0  0  0
   37.9850   30.4170   47.6790 N   0  0  0  0  0  0  0  0  0  0  0  0
   38.0920   31.9260   50.6770 H   0  0  0  0  0  0  0  0  0  0  0  0
   38.9820   33.7300   49.3080 H   0  0  0  0  0  0  0  0  0  0  0  0
   38.5920   31.2830   45.8490 H   0  0  0  0  0  0  0  0  0  0  0  0
   32.8750   27.8460   48.5390 C   0  0  0  0  0  0  0  0  0  0  0  0
   31.7850   27.5920   49.1530 O   0  0  0  0  0  0  0  0  0  0  0  0
   33.0890   27.3970   47.1230 C   0  0  1  0  0  0  0  0  0  0  0  0
   32.5550   25.9210   46.9440 C   0  0  0  0  0  0  0  0  0  0  0  0
   31.9550   27.0810   46.2520 C   0  0  1  0  0  0  0  0  0  0  0  0
   34.1650   27.4000   46.7760 H   0  0  0  0  0  0  0  0  0  0  0  0
   33.1780   25.2430   46.3350 H   0  0  0  0  0  0  0  0  0  0  0  0
   32.1120   25.4390   47.8080 H   0  0  0  0  0  0  0  0  0  0  0  0
   32.1880   27.1780   45.1500 H   0  0  0  0  0  0  0  0  0  0  0  0
   31.5760   30.1540   45.7060 Br  0  0  0  0  0  0  0  0  0  0  0  0
   30.3160   28.8960   46.3790 C   0  0  0  0  0  0  0  0  0  0  0  0
   30.5870   27.5570   46.5820 C   0  0  0  0  0  0  0  0  0  0  0  0
   29.6060   26.7200   47.0740 C   0  0  0  0  0  0  0  0  0  0  0  0
   29.8490   25.6800   47.2220 H   0  0  0  0  0  0  0  0  0  0  0  0
   28.3420   27.1760   47.3750 C   0  0  0  0  0  0  0  0  0  0  0  0
   27.6040   26.4810   47.7590 H   0  0  0  0  0  0  0  0  0  0  0  0
   28.0770   28.5180   47.1680 C   0  0  0  0  0  3  0  0  0  0  0  0
   29.0400   29.3750   46.6780 C   0  0  0  0  0  3  0  0  0  0  0  0
  1  8  1  0  0  0  0
  1  2  2  0  0  0  0
  2  6  1  0  0  0  0
  3  2  1  0  0  0  0
  3  7  1  0  0  0  0
  4  3  2  0  0  0  0
  5  4  1  0  0  0  0
  5  1  1  0  0  0  0
  8  9  2  0  0  0  0
 10 11  1  0  0  0  0
 10  8  1  0  0  0  0
 11 16  1  0  0  0  0
 12 17  1  0  0  0  0
 12 11  2  0  0  0  0
 13 12  1  0  0  0  0
 14 13  2  0  0  0  0
 14 15  1  0  0  0  0
 15 10  2  0  0  0  0
 18 14  1  0  0  0  0
 19 20  2  0  0  0  0
 19  4  1  0  0  0  0
 21 24  1  6  0  0  0
 21 19  1  0  0  0  0
 22 21  1  0  0  0  0
 22 26  1  0  0  0  0
 23 27  1  6  0  0  0
 23 30  1  0  0  0  0
 23 22  1  0  0  0  0
 23 21  1  0  0  0  0
 25 22  1  0  0  0  0
 28 29  1  0  0  0  0
 29 30  2  0  0  0  0
 29 36  1  0  0  0  0
 30 31  1  0  0  0  0
 31 32  1  0  0  0  0
 31 33  2  0  0  0  0
 33 34  1  0  0  0  0
 35 33  1  0  0  0  0
 36 35  2  0  0  0  0
M  END
>  <minimizedAffinity>
-5.54122591

>  <minimizedRMSD>
1.86497235

$$$$
