
     RDKit          3D

 34 36  0  0  0  0  0  0  0  0999 V2000
   35.6455   29.3355   49.8398 C   0  0  0  0  0  0  0  0  0  0  0  0
   35.7466   30.2800   48.8062 C   0  0  0  0  0  0  0  0  0  0  0  0
   34.9137   30.1591   47.6876 C   0  0  0  0  0  0  0  0  0  0  0  0
   34.0410   29.1215   47.6607 N   0  0  0  0  0  0  0  0  0  0  0  0
   33.9465   28.2317   48.6346 C   0  0  0  0  0  0  0  0  0  0  0  0
   34.7410   28.3347   49.7171 N   0  0  0  0  0  0  0  0  0  0  0  0
   37.6591   30.0366   51.3330 C   0  0  0  0  0  0  0  0  0  0  0  0
   38.2025   30.8382   50.5528 O   0  0  0  0  0  0  0  0  0  0  0  0
   36.4278   29.3719   51.0136 N   0  0  0  0  0  0  0  0  0  0  0  0
   36.7148   31.3292   48.9605 N   0  0  0  0  0  0  0  0  0  0  0  0
   36.5510   32.3347   49.8203 C   0  0  0  0  0  0  0  0  0  0  0  0
   37.5304   33.3194   49.9275 C   0  0  0  0  0  0  0  0  0  0  0  0
   38.6051   33.1480   49.1058 C   0  0  0  0  0  0  0  0  0  0  0  0
   39.4928   34.0508   49.2108 O   0  0  0  0  0  0  0  0  0  0  0  0
   38.8057   32.1637   48.2379 N   0  0  0  0  0  0  0  0  0  0  0  0
   37.8227   31.2336   48.1742 C   0  0  0  0  0  0  0  0  0  0  0  0
   37.9938   30.2844   47.3517 O   0  0  0  0  0  0  0  0  0  0  0  0
   35.0133   30.9088   46.8968 H   0  0  0  0  0  0  0  0  0  0  0  0
   33.2431   27.4028   48.6034 H   0  0  0  0  0  0  0  0  0  0  0  0
   38.2034   29.9158   52.2252 H   0  0  0  0  0  0  0  0  0  0  0  0
   36.0985   28.8269   51.8608 H   0  0  0  0  0  0  0  0  0  0  0  0
   35.6542   32.3794   50.4319 H   0  0  0  0  0  0  0  0  0  0  0  0
   37.4301   34.1516   50.6166 H   0  0  0  0  0  0  0  0  0  0  0  0
   40.1988   34.8133   47.3164 Br  0  0  0  0  0  0  0  0  0  0  0  0
   40.7485   33.0422   46.8733 C   0  0  0  0  0  0  0  0  0  0  0  0
   39.9539   32.0521   47.4137 C   0  0  0  0  0  0  0  0  0  0  0  0
   40.2561   30.7229   47.1601 C   0  0  0  0  0  0  0  0  0  0  0  0
   39.7053   29.8425   47.5291 H   0  0  0  0  0  0  0  0  0  0  0  0
   41.3451   30.3618   46.3712 C   0  0  0  0  0  0  0  0  0  0  0  0
   41.6063   29.3307   46.1553 H   0  0  0  0  0  0  0  0  0  0  0  0
   42.1367   31.3819   45.8338 C   0  0  0  0  0  0  0  0  0  0  0  0
   41.8314   32.7032   46.0893 C   0  0  0  0  0  0  0  0  0  0  0  0
   43.0157   31.1866   45.1997 H   0  0  0  0  0  0  0  0  0  0  0  0
   42.3783   33.5669   45.7226 H   0  0  0  0  0  0  0  0  0  0  0  0
  1  9  1  0
  2 10  1  0
  2  1  2  0
  3  2  1  0
  4  3  2  0
  4  5  1  0
  5  6  2  0
  6  1  1  0
  8  7  2  0
  9  7  1  0
 10 11  1  0
 11 12  2  0
 13 14  2  0
 13 12  1  0
 15 13  1  0
 16 15  1  0
 16 10  1  0
 17 16  2  0
  3 18  1  0
  5 19  1  0
  7 20  1  0
  9 21  1  0
 11 22  1  0
 12 23  1  0
 24 25  1  0
 25 26  2  0
 26 27  1  0
 27 28  1  0
 27 29  2  0
 29 30  1  0
 29 31  1  0
 31 32  2  0
 32 25  1  0
 31 33  1  0
 32 34  1  0
 15 26  1  0
M  ISO  7  18  14  19  14  20   6  22  14  23  14  28  15  30  16
M  END
>  <DihAtoms>  (1) 
12,14,25,24

>  <DihDeg>  (1) 
73.96544947955667

$$$$
