REMARK  Name = 
REMARK  5 active torsions:
REMARK  status: ('A' for Active; 'I' for Inactive)
REMARK    1  A    between atoms: C_3  and  C_7
REMARK    2  A    between atoms: C_5  and  O_17
REMARK    3  A    between atoms: C_11  and  C_13
REMARK    4  A    between atoms: O_17  and  C_20
REMARK    5  A    between atoms: N_23  and  C_34
REMARK                            x       y       z     vdW  Elec       q    Type
REMARK                         _______ _______ _______ _____ _____    ______ ____
ROOT
ATOM      1  C   UNL     1      37.822  30.387  51.095  0.00  0.00    +0.000 A 
ATOM      2  C   UNL     1      38.219  30.980  49.881  0.00  0.00    +0.000 A 
ATOM      3  C   UNL     1      37.583  30.560  48.729  0.00  0.00    +0.000 A 
ATOM      4  N   UNL     1      36.635  29.619  48.851  0.00  0.00    +0.000 NA
ATOM      5  C   UNL     1      36.262  29.059  50.014  0.00  0.00    +0.000 A 
ATOM      6  N   UNL     1      36.866  29.452  51.140  0.00  0.00    +0.000 NA
ATOM      7  H   UNL     1      38.306  30.702  51.999  0.00  0.00    +0.000 HD
ATOM      8  H   UNL     1      38.985  31.733  49.816  0.00  0.00    +0.000 HD
ENDROOT
BRANCH   3   9
ATOM      9  C   UNL     1      37.894  31.090  47.425  0.00  0.00    +0.000 A 
ATOM     10  C   UNL     1      37.107  30.766  46.323  0.00  0.00    +0.000 A 
ATOM     11  C   UNL     1      37.355  31.245  45.053  0.00  0.00    +0.000 A 
ATOM     12  N   UNL     1      38.412  32.069  44.865  0.00  0.00    +0.000 NA
ATOM     13  C   UNL     1      39.156  32.369  45.936  0.00  0.00    +0.000 A 
ATOM     14  N   UNL     1      38.935  31.915  47.181  0.00  0.00    +0.000 NA
ATOM     15  H   UNL     1      36.256  30.108  46.452  0.00  0.00    +0.000 HD
ATOM     16  H   UNL     1      36.720  30.973  44.213  0.00  0.00    +0.000 HD
BRANCH  13  17
ATOM     17  C   UNL     1      40.324  33.273  45.756  0.00  0.00    +0.000 C 
ATOM     18  F   UNL     1      40.435  34.056  46.926  0.00  0.00    +0.000 F 
ATOM     19  F   UNL     1      41.471  32.570  45.511  0.00  0.00    +0.000 F 
ATOM     20  F   UNL     1      40.108  34.191  44.744  0.00  0.00    +0.000 F 
ENDBRANCH  13  17
ENDBRANCH   3   9
BRANCH   5  21
ATOM     21  O   UNL     1      35.263  28.100  49.953  0.00  0.00    +0.000 OA
BRANCH  21  24
ATOM     22  N   UNL     1      33.290  27.169  47.007  0.00  0.00    +0.000 N 
ATOM     23  C   UNL     1      34.172  27.013  48.003  0.00  0.00    +0.000 A 
ATOM     24  C   UNL     1      34.409  28.046  48.875  0.00  0.00    +0.000 A 
ATOM     25  C   UNL     1      33.712  29.247  48.693  0.00  0.00    +0.000 A 
ATOM     26  O   UNL     1      33.769  30.322  49.366  0.00  0.00    +0.000 OA
ATOM     27  N   UNL     1      32.833  29.340  47.664  0.00  0.00    +0.000 N 
ATOM     28  C   UNL     1      32.623  28.312  46.829  0.00  0.00    +0.000 A 
ATOM     29  O   UNL     1      31.806  28.376  45.861  0.00  0.00    +0.000 OA
ATOM     30  H   UNL     1      33.184  26.324  46.403  0.00  0.00    +0.000 HD
ATOM     31  H   UNL     1      34.740  26.131  48.205  0.00  0.00    +0.000 HD
BRANCH  27  34
ATOM     32 BR   UNL     1      30.058  28.937  46.269  0.00  0.00    +0.000 Br
ATOM     33  C   UNL     1      30.830  30.606  46.780  0.00  0.00    +0.000 A 
ATOM     34  C   UNL     1      32.069  30.507  47.380  0.00  0.00    +0.000 A 
ATOM     35  C   UNL     1      32.746  31.653  47.803  0.00  0.00    +0.000 A 
ATOM     36  H   UNL     1      33.711  31.695  48.281  0.00  0.00    +0.000 HD
ATOM     37  C   UNL     1      32.175  32.916  47.622  0.00  0.00    +0.000 A 
ATOM     38  H   UNL     1      32.654  33.833  47.929  0.00  0.00    +0.000 HD
ATOM     39  C   UNL     1      30.931  32.980  47.016  0.00  0.00    +0.000 A 
ATOM     40  C   UNL     1      30.259  31.849  46.597  0.00  0.00    +0.000 A 
ENDBRANCH  27  34
ENDBRANCH  21  24
ENDBRANCH   5  21
TORSDOF 5
