
 OpenBabel03272507333D

 36 39  0  0  1  0  0  0  0  0999 V2000
   35.6590   29.1100   49.6860 C   0  0  0  0  0  0  0  0  0  0  0  0
   34.6820   29.5290   50.5670 C   0  0  0  0  0  0  0  0  0  0  0  0
   33.4480   29.0930   50.0640 C   0  0  0  0  0  0  0  0  0  0  0  0
   33.7570   28.4300   48.8970 C   0  0  0  0  0  0  0  0  0  0  0  0
   35.0590   28.4650   48.7150 O   0  0  0  0  0  0  0  0  0  0  0  0
   34.7780   30.0920   51.4910 H   0  0  0  0  0  0  0  0  0  0  0  0
   32.4410   29.2120   50.4490 H   0  0  0  0  0  0  0  0  0  0  0  0
   37.0680   29.3940   49.9020 C   0  0  0  0  0  0  0  0  0  0  0  0
   37.7000   28.7220   50.7280 O   0  0  0  0  0  0  0  0  0  0  0  0
   37.6460   30.4560   49.1290 C   0  0  0  0  0  0  0  0  0  0  0  0
   37.9780   31.6190   49.8040 C   0  0  0  0  0  0  0  0  0  0  0  0
   38.5410   32.6740   49.0780 C   0  0  0  0  0  0  0  0  0  0  0  0
   38.7360   32.4960   47.7270 N   0  0  0  0  0  0  0  0  0  0  0  0
   38.4050   31.3590   47.1090 C   0  0  0  0  0  0  0  0  0  0  0  0
   37.8630   30.3420   47.7980 N   0  0  0  0  0  0  0  0  0  0  0  0
   37.8100   31.7220   50.8590 H   0  0  0  0  0  0  0  0  0  0  0  0
   38.7920   33.5720   49.6220 H   0  0  0  0  0  0  0  0  0  0  0  0
   38.5820   31.2780   46.0440 H   0  0  0  0  0  0  0  0  0  0  0  0
   32.7960   27.7850   48.0030 C   0  0  0  0  0  0  0  0  0  0  0  0
   32.6350   26.5220   48.0960 O   0  0  0  0  0  0  0  0  0  0  0  0
   32.0270   28.5910   46.9970 C   0  0  1  0  0  0  0  0  0  0  0  0
   31.3030   27.6240   45.9790 C   0  0  0  0  0  0  0  0  0  0  0  0
   30.5680   28.5000   46.9150 C   0  0  1  0  0  0  0  0  0  0  0  0
   32.6470   29.3080   46.3830 H   0  0  0  0  0  0  0  0  0  0  0  0
   31.3180   27.9280   44.9170 H   0  0  0  0  0  0  0  0  0  0  0  0
   31.4290   26.5570   46.1240 H   0  0  0  0  0  0  0  0  0  0  0  0
   30.0810   29.4140   46.4620 H   0  0  0  0  0  0  0  0  0  0  0  0
   27.9410   27.0650   45.9550 Br  0  0  0  0  0  0  0  0  0  0  0  0
   28.6000   27.2880   47.7250 C   0  0  0  0  0  0  0  0  0  0  0  0
   29.7770   27.9400   48.0400 C   0  0  0  0  0  0  0  0  0  0  0  0
   30.1740   28.0520   49.3580 C   0  0  0  0  0  0  0  0  0  0  0  0
   31.0970   28.5670   49.5710 H   0  0  0  0  0  0  0  0  0  0  0  0
   29.4290   27.5290   50.3910 C   0  0  0  0  0  0  0  0  0  0  0  0
   29.7800   27.6400   51.4100 H   0  0  0  0  0  0  0  0  0  0  0  0
   28.2530   26.8770   50.0680 C   0  0  0  0  0  0  0  0  0  0  0  0
   27.8340   26.7510   48.7610 C   0  0  0  0  0  0  0  0  0  0  0  0
  1  8  1  0  0  0  0
  1  2  2  0  0  0  0
  2  6  1  0  0  0  0
  3  7  1  0  0  0  0
  3  2  1  0  0  0  0
  4  3  2  0  0  0  0
  5  4  1  0  0  0  0
  5  1  1  0  0  0  0
  8  9  2  0  0  0  0
 10 11  1  0  0  0  0
 10  8  1  0  0  0  0
 11 16  1  0  0  0  0
 12 17  1  0  0  0  0
 12 11  2  0  0  0  0
 13 12  1  0  0  0  0
 14 13  2  0  0  0  0
 14 15  1  0  0  0  0
 15 10  2  0  0  0  0
 18 14  1  0  0  0  0
 19 20  2  0  0  0  0
 19  4  1  0  0  0  0
 21 24  1  6  0  0  0
 21 19  1  0  0  0  0
 22 26  1  0  0  0  0
 22 23  1  0  0  0  0
 22 21  1  0  0  0  0
 23 27  1  6  0  0  0
 23 21  1  0  0  0  0
 23 30  1  0  0  0  0
 25 22  1  0  0  0  0
 28 29  1  0  0  0  0
 29 30  2  0  0  0  0
 29 36  1  0  0  0  0
 30 31  1  0  0  0  0
 31 32  1  0  0  0  0
 31 33  2  0  0  0  0
 33 34  1  0  0  0  0
 35 33  1  0  0  0  0
 36 35  2  0  0  0  0
M  END
>  <minimizedAffinity>
-6.11761808

>  <minimizedRMSD>
2.41305447

$$$$
