
 OpenBabel03272502353D

 36 38  0  0  1  0  0  0  0  0999 V2000
   35.6160   29.9260   47.9420 C   0  0  0  0  0  3  0  0  0  0  0  0
   36.7780   30.3760   47.5880 C   0  0  0  0  0  3  0  0  0  0  0  0
   33.8920   29.4430   44.6740 C   0  0  0  0  0  0  0  0  0  0  0  0
   34.8460   29.7060   45.6380 C   0  0  0  0  0  0  0  0  0  0  0  0
   34.5840   29.6260   46.9810 C   0  0  0  0  0  0  0  0  0  0  0  0
   33.3280   29.2700   47.3180 N   0  0  0  0  0  0  0  0  0  0  0  0
   32.3900   29.0110   46.4130 C   0  0  0  0  0  0  0  0  0  0  0  0
   32.6740   29.0980   45.0830 N   0  0  0  0  0  0  0  0  0  0  0  0
   34.0670   29.4970   43.6090 H   0  0  0  0  0  0  0  0  0  0  0  0
   35.7880   29.9720   45.1990 H   0  0  0  0  0  0  0  0  0  0  0  0
   30.1910   30.7750   45.0510 Br  0  0  0  0  0  0  0  0  0  0  0  0
   29.9630   29.3220   46.2870 C   0  0  0  0  0  0  0  0  0  0  0  0
   31.0390   28.6280   46.8110 C   0  0  0  0  0  0  0  0  0  0  0  0
   30.8230   27.5850   47.7010 C   0  0  0  0  0  0  0  0  0  0  0  0
   31.6620   27.0220   48.1280 H   0  0  0  0  0  0  0  0  0  0  0  0
   29.5150   27.2460   48.0590 C   0  0  0  0  0  0  0  0  0  0  0  0
   29.3470   26.4410   48.7460 H   0  0  0  0  0  0  0  0  0  0  0  0
   28.4130   27.9220   47.5520 C   0  0  0  0  0  3  0  0  0  0  0  0
   28.6830   28.9550   46.6680 C   0  0  0  0  0  3  0  0  0  0  0  0
   37.7710   30.6700   48.6750 C   0  0  1  0  0  0  0  0  0  0  0  0
   38.4160   29.7920   48.8350 H   0  0  0  0  0  0  0  0  0  0  0  0
   38.5350   31.8800   48.3250 C   0  0  0  0  0  0  0  0  0  0  0  0
   38.6140   32.8160   49.3920 C   0  0  0  0  0  0  0  0  0  0  0  0
   39.2770   34.0150   49.3010 C   0  0  0  0  0  0  0  0  0  0  0  0
   39.9280   34.3900   48.1220 C   0  0  0  0  0  0  0  0  0  0  0  0
   39.8030   33.4230   47.1310 C   0  0  0  0  0  0  0  0  0  0  0  0
   39.1630   32.2450   47.1890 N   0  0  0  0  0  0  0  0  0  0  0  0
   38.1930   32.7570   50.4110 H   0  0  0  0  0  0  0  0  0  0  0  0
   39.3710   34.7660   50.0780 H   0  0  0  0  0  0  0  0  0  0  0  0
   40.4810   35.2810   47.8990 H   0  0  0  0  0  0  0  0  0  0  0  0
   40.2590   33.5690   46.1490 H   0  0  0  0  0  0  0  0  0  0  0  0
   36.8230   31.0850   50.1780 S   0  0  0  0  0  0  0  0  0  0  0  0
   36.8600   29.7400   51.3490 C   0  0  0  0  0  0  0  0  0  0  0  0
   37.5180   30.0580   52.5270 F   0  0  0  0  0  0  0  0  0  0  0  0
   35.5930   29.2410   51.5900 F   0  0  0  0  0  0  0  0  0  0  0  0
   37.5770   28.6940   50.7290 F   0  0  0  0  0  0  0  0  0  0  0  0
  2  1  2  0  0  0  0
  2 20  1  0  0  0  0
  3  8  2  0  0  0  0
  3  4  1  0  0  0  0
  4  5  2  0  0  0  0
  5  6  1  0  0  0  0
  5  1  1  0  0  0  0
  7 13  1  0  0  0  0
  7  6  2  0  0  0  0
  8  7  1  0  0  0  0
  9  3  1  0  0  0  0
 10  4  1  0  0  0  0
 11 12  1  0  0  0  0
 12 19  2  0  0  0  0
 12 13  1  0  0  0  0
 13 14  2  0  0  0  0
 14 16  1  0  0  0  0
 14 15  1  0  0  0  0
 16 17  1  0  0  0  0
 18 16  2  0  0  0  0
 19 18  1  0  0  0  0
 20 21  1  1  0  0  0
 20 32  1  0  0  0  0
 22 20  1  0  0  0  0
 22 23  1  0  0  0  0
 23 28  1  0  0  0  0
 24 23  2  0  0  0  0
 24 29  1  0  0  0  0
 25 24  1  0  0  0  0
 26 27  1  0  0  0  0
 26 25  2  0  0  0  0
 27 22  2  0  0  0  0
 30 25  1  0  0  0  0
 31 26  1  0  0  0  0
 32 33  1  0  0  0  0
 33 35  1  0  0  0  0
 33 34  1  0  0  0  0
 36 33  1  0  0  0  0
M  END
>  <minimizedAffinity>
-6.59035444

>  <minimizedRMSD>
0.764652252

$$$$
