
 OpenBabel03272510213D

 36 39  0  0  0  0  0  0  0  0999 V2000
   37.1740   29.6470   51.3280 Br  0  0  0  0  0  0  0  0  0  0  0  0
   36.0330   29.3710   49.8250 C   0  0  0  0  0  0  0  0  0  0  0  0
   36.1580   30.1610   48.6750 C   0  0  0  0  0  0  0  0  0  0  0  0
   35.3060   29.9060   47.6340 C   0  0  0  0  0  0  0  0  0  0  0  0
   34.3370   28.9120   47.6660 C   0  0  0  0  0  0  0  0  0  0  0  0
   34.2470   28.1650   48.7990 C   0  0  0  0  0  0  0  0  0  0  0  0
   35.0900   28.4000   49.8610 C   0  0  0  0  0  0  0  0  0  0  0  0
   35.3850   30.5070   46.7380 H   0  0  0  0  0  0  0  0  0  0  0  0
   33.4980   27.3820   48.8500 H   0  0  0  0  0  0  0  0  0  0  0  0
   34.9560   27.7620   50.7270 H   0  0  0  0  0  0  0  0  0  0  0  0
   37.9390   33.2480   49.4750 C   0  0  0  0  0  0  0  0  0  0  0  0
   39.0090   33.2560   48.5440 C   0  0  0  0  0  0  0  0  0  0  0  0
   39.0980   32.2050   47.6610 C   0  0  0  0  0  0  0  0  0  0  0  0
   38.1660   31.1920   47.7030 N   0  0  0  0  0  0  0  0  0  0  0  0
   37.1610   31.2140   48.6020 C   0  0  0  0  0  0  0  0  0  0  0  0
   37.0520   32.2510   49.4910 N   0  0  0  0  0  0  0  0  0  0  0  0
   37.8280   34.0480   50.1840 H   0  0  0  0  0  0  0  0  0  0  0  0
   39.7180   34.0720   48.5480 H   0  0  0  0  0  0  0  0  0  0  0  0
   39.9100   32.1620   46.9180 H   0  0  0  0  0  0  0  0  0  0  0  0
   33.4370   28.6480   46.5590 C   0  0  0  0  0  0  0  0  0  0  0  0
   33.2690   27.4290   45.9570 C   0  0  0  0  0  0  0  0  0  0  0  0
   32.4120   27.1900   44.9050 C   0  0  0  0  0  0  0  0  0  0  0  0
   31.6950   28.2060   44.4370 N   0  0  0  0  0  0  0  0  0  0  0  0
   31.8290   29.4300   45.0030 C   0  0  0  0  0  0  0  0  0  0  0  0
   32.6790   29.6210   46.0300 N   0  0  0  0  0  0  0  0  0  0  0  0
   33.8570   26.5780   46.3360 H   0  0  0  0  0  0  0  0  0  0  0  0
   32.3180   26.2100   44.4680 H   0  0  0  0  0  0  0  0  0  0  0  0
   29.0160   29.5100   46.1950 Br  0  0  0  0  0  0  0  0  0  0  0  0
   29.7530   30.7360   44.9580 C   0  0  0  0  0  0  0  0  0  0  0  0
   31.0450   30.5760   44.5020 C   0  0  0  0  0  0  0  0  0  0  0  0
   31.6230   31.4640   43.5880 C   0  0  0  0  0  0  0  0  0  0  0  0
   32.6380   31.3220   43.2420 H   0  0  0  0  0  0  0  0  0  0  0  0
   30.8670   32.5460   43.1220 C   0  0  0  0  0  0  0  0  0  0  0  0
   31.2740   33.2570   42.4150 H   0  0  0  0  0  0  0  0  0  0  0  0
   29.5850   32.6560   43.6110 C   0  0  0  0  0  3  0  0  0  0  0  0
   28.9820   31.8050   44.5100 C   0  0  0  0  0  3  0  0  0  0  0  0
  2  7  1  0  0  0  0
  2  1  1  0  0  0  0
  3  2  2  0  0  0  0
  4  5  2  0  0  0  0
  4  3  1  0  0  0  0
  5  6  1  0  0  0  0
  6  9  1  0  0  0  0
  6  7  2  0  0  0  0
  7 10  1  0  0  0  0
  8  4  1  0  0  0  0
 11 16  1  0  0  0  0
 11 17  1  0  0  0  0
 12 18  1  0  0  0  0
 12 11  2  0  0  0  0
 13 14  2  0  0  0  0
 13 12  1  0  0  0  0
 14 15  1  0  0  0  0
 15  3  1  0  0  0  0
 15 16  2  0  0  0  0
 19 13  1  0  0  0  0
 20  5  1  0  0  0  0
 21 26  1  0  0  0  0
 21 20  2  0  0  0  0
 22 21  1  0  0  0  0
 23 22  2  0  0  0  0
 23 24  1  0  0  0  0
 24 25  2  0  0  0  0
 25 20  1  0  0  0  0
 27 22  1  0  0  0  0
 29 28  1  0  0  0  0
 30 29  2  0  0  0  0
 30 24  1  0  0  0  0
 31 30  1  0  0  0  0
 32 31  1  0  0  0  0
 33 31  2  0  0  0  0
 33 35  1  0  0  0  0
 34 33  1  0  0  0  0
 35 36  2  0  0  0  0
 36 29  1  0  0  0  0
M  END
>  <minimizedAffinity>
-6.41517448

>  <minimizedRMSD>
0.915658951

$$$$
