
     RDKit          3D

 38 41  0  0  0  0  0  0  0  0999 V2000
   37.3110   29.3280   51.0289 Br  0  0  0  0  0  0  0  0  0  0  0  0
   35.9613   29.3247   49.6817 C   0  0  0  0  0  0  0  0  0  0  0  0
   35.9906   30.2552   48.6345 C   0  0  0  0  0  0  0  0  0  0  0  0
   34.9888   30.1941   47.7026 C   0  0  0  0  0  0  0  0  0  0  0  0
   33.9592   29.2629   47.7494 C   0  0  0  0  0  0  0  0  0  0  0  0
   33.9646   28.3769   48.7799 C   0  0  0  0  0  0  0  0  0  0  0  0
   34.9595   28.4157   49.7309 C   0  0  0  0  0  0  0  0  0  0  0  0
   37.9960   33.1939   49.4589 C   0  0  0  0  0  0  0  0  0  0  0  0
   39.0214   33.1733   48.4778 C   0  0  0  0  0  0  0  0  0  0  0  0
   39.0039   32.1536   47.5551 C   0  0  0  0  0  0  0  0  0  0  0  0
   38.0125   31.1982   47.6055 N   0  0  0  0  0  0  0  0  0  0  0  0
   37.0528   31.2465   48.5507 C   0  0  0  0  0  0  0  0  0  0  0  0
   37.0496   32.2533   49.4808 N   0  0  0  0  0  0  0  0  0  0  0  0
   32.9015   29.2047   46.7582 C   0  0  0  0  0  0  0  0  0  0  0  0
   32.2631   28.0605   46.3557 C   0  0  0  0  0  0  0  0  0  0  0  0
   31.2602   28.0181   45.4135 C   0  0  0  0  0  0  0  0  0  0  0  0
   30.8782   29.1590   44.8505 N   0  0  0  0  0  0  0  0  0  0  0  0
   31.4816   30.3158   45.2177 C   0  0  0  0  0  0  0  0  0  0  0  0
   32.4593   30.3136   46.1438 N   0  0  0  0  0  0  0  0  0  0  0  0
   34.9943   30.9041   46.8866 H   0  0  0  0  0  0  0  0  0  0  0  0
   33.1713   27.6399   48.8385 H   0  0  0  0  0  0  0  0  0  0  0  0
   34.8931   27.6759   50.5202 H   0  0  0  0  0  0  0  0  0  0  0  0
   37.9683   33.9709   50.2005 H   0  0  0  0  0  0  0  0  0  0  0  0
   39.7785   33.9437   48.4768 H   0  0  0  0  0  0  0  0  0  0  0  0
   39.7764   32.0905   46.7721 H   0  0  0  0  0  0  0  0  0  0  0  0
   32.5703   27.1078   46.8146 H   0  0  0  0  0  0  0  0  0  0  0  0
   30.7905   27.0893   45.1327 H   0  0  0  0  0  0  0  0  0  0  0  0
   33.5273   31.3194   43.1823 Br  0  0  0  0  0  0  0  0  0  0  0  0
   31.9110   32.1690   43.6685 C   0  0  0  0  0  0  0  0  0  0  0  0
   31.0773   31.5984   44.6084 C   0  0  0  0  0  0  0  0  0  0  0  0
   29.8733   32.1984   44.9929 C   0  0  0  0  0  0  0  0  0  0  0  0
   29.2327   31.7350   45.7321 H   0  0  0  0  0  0  0  0  0  0  0  0
   29.5038   33.4146   44.4059 C   0  0  0  0  0  0  0  0  0  0  0  0
   28.5814   33.9129   44.6742 H   0  0  0  0  0  0  0  0  0  0  0  0
   30.3724   33.9373   43.4757 C   0  0  0  0  0  0  0  0  0  0  0  0
   31.5643   33.3776   43.0716 C   0  0  0  0  0  0  0  0  0  0  0  0
   30.0473   34.8887   43.0404 H   0  0  0  0  0  0  0  0  0  0  0  0
   32.1748   33.8764   42.3281 H   0  0  0  0  0  0  0  0  0  0  0  0
  2  7  2  0
  2  1  1  0
  3  2  1  0
  4  5  1  0
  4  3  2  0
  5  6  2  0
  6  7  1  0
  8 13  2  0
  9  8  1  0
 10 11  1  0
 10  9  2  0
 11 12  2  0
 12  3  1  0
 12 13  1  0
 14  5  1  0
 15 14  2  0
 16 15  1  0
 17 18  1  0
 17 16  2  0
 18 19  2  0
 19 14  1  0
  4 20  1  0
  6 21  1  0
  7 22  1  0
  8 23  1  0
  9 24  1  0
 10 25  1  0
 15 26  1  0
 16 27  1  0
 28 29  1  0
 29 30  2  0
 30 31  1  0
 31 32  1  0
 31 33  2  0
 33 34  1  0
 33 35  1  0
 35 36  2  0
 36 29  1  0
 35 37  1  0
 36 38  1  0
 18 30  1  0
M  ISO  8  20  14  21  14  22  14  23  14  24  14  25  14  26  14  27  14
M  ISO  2  32  15  34  16
M  END
>  <DihAtoms>  (1) 
16,17,29,28

>  <DihDeg>  (1) 
-0.0007157845517853452

$$$$
