REMARK  Name = 
REMARK  3 active torsions:
REMARK  status: ('A' for Active; 'I' for Inactive)
REMARK    1  A    between atoms: C_3  and  C_12
REMARK    2  A    between atoms: C_5  and  C_14
REMARK    3  A    between atoms: C_18  and  C_30
REMARK                            x       y       z     vdW  Elec       q    Type
REMARK                         _______ _______ _______ _____ _____    ______ ____
ROOT
ATOM      1 BR   UNL     1      37.311  29.328  51.029  0.00  0.00    +0.000 Br
ATOM      2  C   UNL     1      35.961  29.325  49.682  0.00  0.00    +0.000 A 
ATOM      3  C   UNL     1      35.991  30.255  48.635  0.00  0.00    +0.000 A 
ATOM      4  C   UNL     1      34.989  30.194  47.703  0.00  0.00    +0.000 A 
ATOM      5  C   UNL     1      33.959  29.263  47.749  0.00  0.00    +0.000 A 
ATOM      6  C   UNL     1      33.965  28.377  48.780  0.00  0.00    +0.000 A 
ATOM      7  C   UNL     1      34.959  28.416  49.731  0.00  0.00    +0.000 A 
ATOM      8  H   UNL     1      34.994  30.904  46.887  0.00  0.00    +0.000 HD
ATOM      9  H   UNL     1      33.171  27.640  48.839  0.00  0.00    +0.000 HD
ATOM     10  H   UNL     1      34.893  27.676  50.520  0.00  0.00    +0.000 HD
ENDROOT
BRANCH   3  15
ATOM     11  C   UNL     1      37.996  33.194  49.459  0.00  0.00    +0.000 A 
ATOM     12  C   UNL     1      39.021  33.173  48.478  0.00  0.00    +0.000 A 
ATOM     13  C   UNL     1      39.004  32.154  47.555  0.00  0.00    +0.000 A 
ATOM     14  N   UNL     1      38.013  31.198  47.605  0.00  0.00    +0.000 NA
ATOM     15  C   UNL     1      37.053  31.247  48.551  0.00  0.00    +0.000 A 
ATOM     16  N   UNL     1      37.050  32.253  49.481  0.00  0.00    +0.000 NA
ATOM     17  H   UNL     1      37.968  33.971  50.200  0.00  0.00    +0.000 HD
ATOM     18  H   UNL     1      39.779  33.944  48.477  0.00  0.00    +0.000 HD
ATOM     19  H   UNL     1      39.776  32.090  46.772  0.00  0.00    +0.000 HD
ENDBRANCH   3  15
BRANCH   5  20
ATOM     20  C   UNL     1      32.901  29.205  46.758  0.00  0.00    +0.000 A 
ATOM     21  C   UNL     1      32.263  28.061  46.356  0.00  0.00    +0.000 A 
ATOM     22  C   UNL     1      31.260  28.018  45.413  0.00  0.00    +0.000 A 
ATOM     23  N   UNL     1      30.878  29.159  44.850  0.00  0.00    +0.000 NA
ATOM     24  C   UNL     1      31.482  30.316  45.218  0.00  0.00    +0.000 A 
ATOM     25  N   UNL     1      32.459  30.314  46.144  0.00  0.00    +0.000 NA
ATOM     26  H   UNL     1      32.570  27.108  46.815  0.00  0.00    +0.000 HD
ATOM     27  H   UNL     1      30.791  27.089  45.133  0.00  0.00    +0.000 HD
BRANCH  24  30
ATOM     28 BR   UNL     1      33.527  31.319  43.182  0.00  0.00    +0.000 Br
ATOM     29  C   UNL     1      31.911  32.169  43.669  0.00  0.00    +0.000 A 
ATOM     30  C   UNL     1      31.077  31.598  44.608  0.00  0.00    +0.000 A 
ATOM     31  C   UNL     1      29.873  32.198  44.993  0.00  0.00    +0.000 A 
ATOM     32  H   UNL     1      29.233  31.735  45.732  0.00  0.00    +0.000 HD
ATOM     33  C   UNL     1      29.504  33.415  44.406  0.00  0.00    +0.000 A 
ATOM     34  H   UNL     1      28.581  33.913  44.674  0.00  0.00    +0.000 HD
ATOM     35  C   UNL     1      30.372  33.937  43.476  0.00  0.00    +0.000 A 
ATOM     36  C   UNL     1      31.564  33.378  43.072  0.00  0.00    +0.000 A 
ENDBRANCH  24  30
ENDBRANCH   5  20
TORSDOF 3
