
 OpenBabel03272509543D

 43 46  0  0  0  0  0  0  0  0999 V2000
   34.1190   29.9610   48.0240 C   0  0  0  0  0  0  0  0  0  0  0  0
   33.1430   30.4230   48.2760 H   0  0  0  0  0  0  0  0  0  0  0  0
   34.8060   30.7830   47.7330 H   0  0  0  0  0  0  0  0  0  0  0  0
   33.8840   28.9730   46.9260 C   0  0  0  0  0  0  0  0  0  0  0  0
   34.7990   28.5620   46.4760 H   0  0  0  0  0  0  0  0  0  0  0  0
   33.3440   29.4780   46.0800 H   0  0  0  0  0  0  0  0  0  0  0  0
   33.0160   27.8410   47.3500 C   0  0  0  0  0  0  0  0  0  0  0  0
   33.4840   26.5520   47.1720 C   0  0  0  0  0  0  0  0  0  0  0  0
   32.7490   25.4630   47.5340 C   0  0  0  0  0  0  0  0  0  0  0  0
   31.5570   25.6270   48.0700 N   0  0  0  0  0  0  0  0  0  0  0  0
   31.0810   26.8960   48.2530 C   0  0  0  0  0  0  0  0  0  0  0  0
   31.7850   28.0020   47.9040 N   0  0  0  0  0  0  0  0  0  0  0  0
   34.4610   26.4080   46.7320 H   0  0  0  0  0  0  0  0  0  0  0  0
   33.1620   24.4590   47.3730 H   0  0  0  0  0  0  0  0  0  0  0  0
   28.8200   26.6450   46.1490 Br  0  0  0  0  0  0  0  0  0  0  0  0
   28.6330   27.0260   48.0220 C   0  0  0  0  0  0  0  0  0  0  0  0
   29.7590   27.1070   48.8470 C   0  0  0  0  0  0  0  0  0  0  0  0
   29.5870   27.3810   50.1820 C   0  0  0  0  0  0  0  0  0  0  0  0
   30.4420   27.4490   50.8360 H   0  0  0  0  0  0  0  0  0  0  0  0
   28.3410   27.5810   50.7390 C   0  0  0  0  0  0  0  0  0  0  0  0
   28.2170   27.7940   51.7820 H   0  0  0  0  0  0  0  0  0  0  0  0
   27.2640   27.4900   49.8850 C   0  0  0  0  0  3  0  0  0  0  0  0
   27.3460   27.2180   48.5320 C   0  0  0  0  0  3  0  0  0  0  0  0
   34.5530   29.3030   49.1960 O   0  0  0  0  0  0  0  0  0  0  0  0
   37.2670   30.0040   51.4760 C   0  0  0  0  0  0  0  0  0  0  0  0
   38.1310   30.7400   50.6320 C   0  0  0  0  0  0  0  0  0  0  0  0
   37.7120   30.9450   49.3220 C   0  0  0  0  0  0  0  0  0  0  0  0
   36.4960   30.4090   48.9770 N   0  0  0  0  0  0  0  0  0  0  0  0
   35.7100   29.7240   49.7920 C   0  0  0  0  0  0  0  0  0  0  0  0
   36.1160   29.5240   51.0690 N   0  0  0  0  0  0  0  0  0  0  0  0
   37.6300   29.8650   52.4950 H   0  0  0  0  0  0  0  0  0  0  0  0
   39.0850   31.1590   50.9040 H   0  0  0  0  0  0  0  0  0  0  0  0
   38.7920   33.6300   49.4670 F   0  0  0  0  0  0  0  0  0  0  0  0
   38.9610   32.9210   48.3600 C   0  0  0  0  0  0  0  0  0  0  0  0
   38.4510   31.6680   48.3100 C   0  0  0  0  0  0  0  0  0  0  0  0
   38.6880   31.0150   47.0980 C   0  0  0  0  0  0  0  0  0  0  0  0
   39.3730   31.5920   46.0660 C   0  0  0  0  0  0  0  0  0  0  0  0
   39.8710   32.8590   46.1600 C   0  0  0  0  0  0  0  0  0  0  0  0
   39.6570   33.5260   47.3290 C   0  0  0  0  0  0  0  0  0  0  0  0
   38.3320   29.9900   46.9130 H   0  0  0  0  0  0  0  0  0  0  0  0
   39.5420   31.0540   45.1330 H   0  0  0  0  0  0  0  0  0  0  0  0
   40.4090   33.2930   45.3280 H   0  0  0  0  0  0  0  0  0  0  0  0
   40.0380   34.5300   47.4360 H   0  0  0  0  0  0  0  0  0  0  0  0
  1  2  1  0  0  0  0
  1 24  1  0  0  0  0
  3  1  1  0  0  0  0
  4  7  1  0  0  0  0
  4  1  1  0  0  0  0
  5  4  1  0  0  0  0
  6  4  1  0  0  0  0
  7 12  1  0  0  0  0
  8  7  2  0  0  0  0
  8  9  1  0  0  0  0
  9 10  2  0  0  0  0
 10 11  1  0  0  0  0
 11 17  1  0  0  0  0
 12 11  2  0  0  0  0
 13  8  1  0  0  0  0
 14  9  1  0  0  0  0
 15 16  1  0  0  0  0
 16 23  2  0  0  0  0
 16 17  1  0  0  0  0
 17 18  2  0  0  0  0
 18 20  1  0  0  0  0
 18 19  1  0  0  0  0
 20 21  1  0  0  0  0
 22 20  2  0  0  0  0
 23 22  1  0  0  0  0
 24 29  1  0  0  0  0
 25 31  1  0  0  0  0
 26 32  1  0  0  0  0
 26 25  2  0  0  0  0
 27 26  1  0  0  0  0
 28 27  2  0  0  0  0
 28 29  1  0  0  0  0
 29 30  2  0  0  0  0
 30 25  1  0  0  0  0
 34 33  1  0  0  0  0
 35 34  1  0  0  0  0
 35 27  1  0  0  0  0
 36 35  2  0  0  0  0
 37 38  2  0  0  0  0
 37 36  1  0  0  0  0
 38 39  1  0  0  0  0
 39 43  1  0  0  0  0
 39 34  2  0  0  0  0
 40 36  1  0  0  0  0
 41 37  1  0  0  0  0
 42 38  1  0  0  0  0
M  END
>  <minimizedAffinity>
-7.38152933

>  <minimizedRMSD>
3.11765957

$$$$
