
 OpenBabel03272504513D

 42 45  0  0  1  0  0  0  0  0999 V2000
   41.5620   24.1630   35.3090 N   0  0  0  0  0  0  0  0  0  0  0  0
   42.9020   24.6840   35.5700 C   0  0  0  0  0  0  0  0  0  0  0  0
   43.7640   23.7600   36.3590 C   0  0  0  0  0  0  0  0  0  0  0  0
   43.4390   22.3040   36.0250 C   0  0  0  0  0  0  0  0  0  0  0  0
   42.0470   22.1100   36.5400 C   0  0  0  0  0  0  0  0  0  0  0  0
   41.0430   22.9200   35.7660 C   0  0  1  0  0  0  0  0  0  0  0  0
   43.3720   24.7720   34.5490 H   0  0  0  0  0  0  0  0  0  0  0  0
   42.9370   25.6740   36.0010 H   0  0  0  0  0  0  0  0  0  0  0  0
   43.6750   23.8700   37.4560 H   0  0  0  0  0  0  0  0  0  0  0  0
   44.8270   23.9300   36.0540 H   0  0  0  0  0  0  0  0  0  0  0  0
   43.3920   22.1500   34.9250 H   0  0  0  0  0  0  0  0  0  0  0  0
   44.1420   21.6390   36.5280 H   0  0  0  0  0  0  0  0  0  0  0  0
   41.7240   21.0590   36.6080 H   0  0  0  0  0  0  0  0  0  0  0  0
   42.0440   22.5520   37.5780 H   0  0  0  0  0  0  0  0  0  0  0  0
   40.8480   22.3180   34.8330 H   0  0  0  0  0  0  0  0  0  0  0  0
   38.3290   22.0420   34.2800 Br  0  0  0  0  0  0  0  0  0  0  0  0
   38.5040   22.6460   36.0530 C   0  0  0  0  0  0  0  0  0  0  0  0
   39.7610   22.9670   36.4950 C   0  0  0  0  0  0  0  0  0  0  0  0
   39.7550   23.4090   37.8290 C   0  0  0  0  0  0  0  0  0  0  0  0
   40.7260   23.6890   38.2680 H   0  0  0  0  0  0  0  0  0  0  0  0
   38.6490   23.5260   38.6400 C   0  0  0  0  0  0  0  0  0  0  0  0
   38.7770   23.8800   39.6530 H   0  0  0  0  0  0  0  0  0  0  0  0
   37.4320   23.1830   38.1120 C   0  0  0  0  0  3  0  0  0  0  0  0
   37.3630   22.7420   36.8140 C   0  0  0  0  0  3  0  0  0  0  0  0
   40.1420   26.1390   35.0250 C   0  0  0  0  0  0  0  0  0  0  0  0
   40.7380   24.9950   34.5120 C   0  0  0  0  0  0  0  0  0  0  0  0
   40.4830   24.7140   33.1830 C   0  0  0  0  0  0  0  0  0  0  0  0
   39.6830   25.5410   32.4540 N   0  0  0  0  0  0  0  0  0  0  0  0
   39.1260   26.6400   32.9890 C   0  0  0  0  0  0  0  0  0  0  0  0
   39.3640   26.9250   34.2710 N   0  0  0  0  0  0  0  0  0  0  0  0
   40.2720   26.4550   36.0420 H   0  0  0  0  0  0  0  0  0  0  0  0
   40.8890   23.8650   32.6640 H   0  0  0  0  0  0  0  0  0  0  0  0
   38.2820   27.5030   32.1900 C   0  0  0  0  0  0  0  0  0  0  0  0
   37.0870   27.9620   32.6880 C   0  0  0  0  0  0  0  0  0  0  0  0
   36.2480   28.7860   31.9720 C   0  0  0  0  0  0  0  0  0  0  0  0
   36.6840   29.1200   30.7260 C   0  0  0  0  0  0  0  0  0  0  0  0
   37.8900   28.6820   30.1730 C   0  0  0  0  0  0  0  0  0  0  0  0
   38.6840   27.8580   30.9430 N   0  0  0  0  0  0  0  0  0  0  0  0
   36.8120   27.6420   33.7020 H   0  0  0  0  0  0  0  0  0  0  0  0
   35.3260   29.1210   32.3970 H   0  0  0  0  0  0  0  0  0  0  0  0
   36.0760   29.7690   30.0980 H   0  0  0  0  0  0  0  0  0  0  0  0
   38.2050   28.9600   29.1960 H   0  0  0  0  0  0  0  0  0  0  0  0
  1  2  1  0  0  0  0
  1  6  1  0  0  0  0
  2  8  1  0  0  0  0
  2  3  1  0  0  0  0
  3  9  1  0  0  0  0
  4  3  1  0  0  0  0
  4 12  1  0  0  0  0
  4  5  1  0  0  0  0
  5 13  1  0  0  0  0
  5 14  1  0  0  0  0
  6 15  1  6  0  0  0
  6 18  1  0  0  0  0
  6  5  1  0  0  0  0
  7  2  1  0  0  0  0
 10  3  1  0  0  0  0
 11  4  1  0  0  0  0
 16 17  1  0  0  0  0
 17 18  2  0  0  0  0
 17 24  1  0  0  0  0
 18 19  1  0  0  0  0
 19 20  1  0  0  0  0
 19 21  2  0  0  0  0
 21 22  1  0  0  0  0
 23 21  1  0  0  0  0
 24 23  2  0  0  0  0
 25 31  1  0  0  0  0
 26 25  1  0  0  0  0
 26  1  1  0  0  0  0
 27 26  2  0  0  0  0
 28 29  2  0  0  0  0
 28 27  1  0  0  0  0
 29 30  1  0  0  0  0
 30 25  2  0  0  0  0
 32 27  1  0  0  0  0
 33 34  1  0  0  0  0
 33 29  1  0  0  0  0
 34 39  1  0  0  0  0
 35 40  1  0  0  0  0
 35 34  2  0  0  0  0
 36 35  1  0  0  0  0
 37 36  2  0  0  0  0
 37 38  1  0  0  0  0
 38 33  2  0  0  0  0
 41 36  1  0  0  0  0
 42 37  1  0  0  0  0
M  END
>  <minimizedAffinity>
-5.70990753

$$$$

 OpenBabel03272504513D

 42 45  0  0  1  0  0  0  0  0999 V2000
   36.5910   29.0460   32.1710 N   0  0  0  0  0  0  0  0  0  0  0  0
   37.0190   28.8220   30.7920 C   0  0  0  0  0  0  0  0  0  0  0  0
   36.7290   29.9630   29.8790 C   0  0  0  0  0  0  0  0  0  0  0  0
   36.8390   31.2920   30.6270 C   0  0  0  0  0  0  0  0  0  0  0  0
   35.7130   31.2550   31.6120 C   0  0  0  0  0  0  0  0  0  0  0  0
   35.9190   30.1990   32.6630 C   0  0  1  0  0  0  0  0  0  0  0  0
   38.1410   28.7370   30.8570 H   0  0  0  0  0  0  0  0  0  0  0  0
   36.6760   27.9000   30.3450 H   0  0  0  0  0  0  0  0  0  0  0  0
   35.7270   29.9360   29.4100 H   0  0  0  0  0  0  0  0  0  0  0  0
   37.5120   29.9780   29.0810 H   0  0  0  0  0  0  0  0  0  0  0  0
   37.7770   31.3360   31.2230 H   0  0  0  0  0  0  0  0  0  0  0  0
   36.7260   32.1240   29.9300 H   0  0  0  0  0  0  0  0  0  0  0  0
   35.4790   32.2250   32.0800 H   0  0  0  0  0  0  0  0  0  0  0  0
   34.8100   30.9150   31.0270 H   0  0  0  0  0  0  0  0  0  0  0  0
   36.6310   30.6660   33.4010 H   0  0  0  0  0  0  0  0  0  0  0  0
   35.6070   31.2990   35.6690 Br  0  0  0  0  0  0  0  0  0  0  0  0
   34.3280   30.3410   34.6760 C   0  0  0  0  0  0  0  0  0  0  0  0
   34.6620   29.9670   33.4010 C   0  0  0  0  0  0  0  0  0  0  0  0
   33.6270   29.2550   32.7700 C   0  0  0  0  0  0  0  0  0  0  0  0
   33.8100   28.9150   31.7380 H   0  0  0  0  0  0  0  0  0  0  0  0
   32.4060   28.9430   33.3220 C   0  0  0  0  0  0  0  0  0  0  0  0
   31.6910   28.3870   32.7310 H   0  0  0  0  0  0  0  0  0  0  0  0
   32.1590   29.3570   34.6040 C   0  0  0  0  0  3  0  0  0  0  0  0
   33.1260   30.0580   35.2800 C   0  0  0  0  0  3  0  0  0  0  0  0
   37.2740   28.2580   34.3880 C   0  0  0  0  0  0  0  0  0  0  0  0
   36.9050   28.0020   33.0750 C   0  0  0  0  0  0  0  0  0  0  0  0
   36.8590   26.6710   32.7000 C   0  0  0  0  0  0  0  0  0  0  0  0
   37.1690   25.6990   33.6010 N   0  0  0  0  0  0  0  0  0  0  0  0
   37.5220   25.9910   34.8640 C   0  0  0  0  0  0  0  0  0  0  0  0
   37.5690   27.2710   35.2430 N   0  0  0  0  0  0  0  0  0  0  0  0
   37.3410   29.2510   34.7890 H   0  0  0  0  0  0  0  0  0  0  0  0
   36.5800   26.3390   31.7170 H   0  0  0  0  0  0  0  0  0  0  0  0
   37.8440   24.9380   35.8030 C   0  0  0  0  0  0  0  0  0  0  0  0
   37.8400   25.1850   37.1550 C   0  0  0  0  0  0  0  0  0  0  0  0
   38.1380   24.2200   38.0900 C   0  0  0  0  0  0  0  0  0  0  0  0
   38.4380   22.9910   37.5840 C   0  0  0  0  0  0  0  0  0  0  0  0
   38.4550   22.6870   36.2200 C   0  0  0  0  0  0  0  0  0  0  0  0
   38.1480   23.7000   35.3360 N   0  0  0  0  0  0  0  0  0  0  0  0
   37.5870   26.2040   37.4750 H   0  0  0  0  0  0  0  0  0  0  0  0
   38.1230   24.4540   39.1330 H   0  0  0  0  0  0  0  0  0  0  0  0
   38.6830   22.1750   38.2610 H   0  0  0  0  0  0  0  0  0  0  0  0
   38.6930   21.7170   35.8540 H   0  0  0  0  0  0  0  0  0  0  0  0
  1  6  1  0  0  0  0
  1 26  1  0  0  0  0
  2  7  1  0  0  0  0
  2  1  1  0  0  0  0
  3  4  1  0  0  0  0
  3  2  1  0  0  0  0
  4 11  1  0  0  0  0
  4  5  1  0  0  0  0
  5 13  1  0  0  0  0
  5  6  1  0  0  0  0
  6 18  1  0  0  0  0
  6 15  1  1  0  0  0
  8  2  1  0  0  0  0
  9  3  1  0  0  0  0
 10  3  1  0  0  0  0
 12  4  1  0  0  0  0
 14  5  1  0  0  0  0
 17 24  1  0  0  0  0
 17 16  1  0  0  0  0
 18 17  2  0  0  0  0
 19 21  2  0  0  0  0
 19 18  1  0  0  0  0
 20 19  1  0  0  0  0
 21 23  1  0  0  0  0
 22 21  1  0  0  0  0
 23 24  2  0  0  0  0
 25 31  1  0  0  0  0
 25 30  1  0  0  0  0
 26 25  2  0  0  0  0
 27 26  1  0  0  0  0
 27 28  2  0  0  0  0
 28 29  1  0  0  0  0
 29 30  2  0  0  0  0
 29 33  1  0  0  0  0
 32 27  1  0  0  0  0
 33 34  1  0  0  0  0
 34 39  1  0  0  0  0
 34 35  2  0  0  0  0
 35 40  1  0  0  0  0
 36 35  1  0  0  0  0
 36 41  1  0  0  0  0
 37 36  2  0  0  0  0
 38 33  2  0  0  0  0
 38 37  1  0  0  0  0
 42 37  1  0  0  0  0
M  END
>  <minimizedAffinity>
-5.67233372

$$$$

 OpenBabel03272504513D

 42 45  0  0  1  0  0  0  0  0999 V2000
   37.0640   25.7840   32.5000 N   0  0  0  0  0  0  0  0  0  0  0  0
   36.1350   25.1530   31.5650 C   0  0  0  0  0  0  0  0  0  0  0  0
   36.5560   23.7950   31.1210 C   0  0  0  0  0  0  0  0  0  0  0  0
   37.3000   23.0680   32.2410 C   0  0  0  0  0  0  0  0  0  0  0  0
   38.5610   23.8550   32.4170 C   0  0  0  0  0  0  0  0  0  0  0  0
   38.2940   25.2330   32.9560 C   0  0  1  0  0  0  0  0  0  0  0  0
   35.1870   25.0190   32.1600 H   0  0  0  0  0  0  0  0  0  0  0  0
   35.8660   25.7510   30.7060 H   0  0  0  0  0  0  0  0  0  0  0  0
   37.2160   23.7840   30.2320 H   0  0  0  0  0  0  0  0  0  0  0  0
   35.6350   23.1970   30.9060 H   0  0  0  0  0  0  0  0  0  0  0  0
   36.7450   23.1460   33.2010 H   0  0  0  0  0  0  0  0  0  0  0  0
   37.5140   22.0410   31.9430 H   0  0  0  0  0  0  0  0  0  0  0  0
   39.3390   23.3510   33.0120 H   0  0  0  0  0  0  0  0  0  0  0  0
   38.9620   24.0200   31.3750 H   0  0  0  0  0  0  0  0  0  0  0  0
   38.1600   25.0840   34.0660 H   0  0  0  0  0  0  0  0  0  0  0  0
   39.1650   26.2470   30.0310 Br  0  0  0  0  0  0  0  0  0  0  0  0
   40.0360   26.6070   31.6580 C   0  0  0  0  0  0  0  0  0  0  0  0
   39.4940   26.0790   32.8010 C   0  0  0  0  0  0  0  0  0  0  0  0
   40.2400   26.4140   33.9440 C   0  0  0  0  0  0  0  0  0  0  0  0
   39.8740   26.0310   34.9110 H   0  0  0  0  0  0  0  0  0  0  0  0
   41.3850   27.1770   33.9700 C   0  0  0  0  0  0  0  0  0  0  0  0
   41.8680   27.3650   34.9190 H   0  0  0  0  0  0  0  0  0  0  0  0
   41.8560   27.6630   32.7780 C   0  0  0  0  0  3  0  0  0  0  0  0
   41.1760   27.3740   31.6210 C   0  0  0  0  0  3  0  0  0  0  0  0
   36.7270   27.3730   34.3330 C   0  0  0  0  0  0  0  0  0  0  0  0
   36.6620   27.0520   32.9840 C   0  0  0  0  0  0  0  0  0  0  0  0
   36.1860   28.0390   32.1420 C   0  0  0  0  0  0  0  0  0  0  0  0
   35.8090   29.2450   32.6510 N   0  0  0  0  0  0  0  0  0  0  0  0
   35.8880   29.5150   33.9640 C   0  0  0  0  0  0  0  0  0  0  0  0
   36.3480   28.5720   34.7910 N   0  0  0  0  0  0  0  0  0  0  0  0
   37.0820   26.6850   35.0770 H   0  0  0  0  0  0  0  0  0  0  0  0
   36.0940   27.9210   31.0770 H   0  0  0  0  0  0  0  0  0  0  0  0
   35.4840   30.8060   34.4790 C   0  0  0  0  0  0  0  0  0  0  0  0
   35.9070   31.2260   35.7160 C   0  0  0  0  0  0  0  0  0  0  0  0
   35.5540   32.4440   36.2520 C   0  0  0  0  0  0  0  0  0  0  0  0
   34.7500   33.2140   35.4670 C   0  0  0  0  0  0  0  0  0  0  0  0
   34.2920   32.8340   34.2020 C   0  0  0  0  0  0  0  0  0  0  0  0
   34.6830   31.6020   33.7250 N   0  0  0  0  0  0  0  0  0  0  0  0
   36.5530   30.5410   36.2820 H   0  0  0  0  0  0  0  0  0  0  0  0
   35.9050   32.7320   37.2190 H   0  0  0  0  0  0  0  0  0  0  0  0
   34.4270   34.1910   35.8210 H   0  0  0  0  0  0  0  0  0  0  0  0
   33.6640   33.4580   33.6110 H   0  0  0  0  0  0  0  0  0  0  0  0
  1  6  1  0  0  0  0
  1 26  1  0  0  0  0
  2  7  1  0  0  0  0
  2  1  1  0  0  0  0
  3  2  1  0  0  0  0
  3  4  1  0  0  0  0
  4  5  1  0  0  0  0
  4 11  1  0  0  0  0
  5  6  1  0  0  0  0
  5 13  1  0  0  0  0
  6 15  1  1  0  0  0
  8  2  1  0  0  0  0
  9  3  1  0  0  0  0
 10  3  1  0  0  0  0
 12  4  1  0  0  0  0
 14  5  1  0  0  0  0
 16 17  1  0  0  0  0
 17 18  1  0  0  0  0
 18  6  1  0  0  0  0
 18 19  2  0  0  0  0
 19 21  1  0  0  0  0
 19 20  1  0  0  0  0
 21 22  1  0  0  0  0
 23 21  2  0  0  0  0
 24 17  2  0  0  0  0
 24 23  1  0  0  0  0
 25 30  1  0  0  0  0
 25 31  1  0  0  0  0
 26 25  2  0  0  0  0
 27 28  2  0  0  0  0
 27 26  1  0  0  0  0
 28 29  1  0  0  0  0
 29 33  1  0  0  0  0
 29 30  2  0  0  0  0
 32 27  1  0  0  0  0
 33 34  1  0  0  0  0
 34 35  2  0  0  0  0
 34 39  1  0  0  0  0
 35 40  1  0  0  0  0
 36 41  1  0  0  0  0
 36 35  1  0  0  0  0
 37 36  2  0  0  0  0
 38 37  1  0  0  0  0
 38 33  2  0  0  0  0
 42 37  1  0  0  0  0
M  END
>  <minimizedAffinity>
-5.3944273

$$$$

 OpenBabel03272504513D

 42 45  0  0  1  0  0  0  0  0999 V2000
   36.4360   30.5590   31.5720 N   0  0  0  0  0  0  0  0  0  0  0  0
   36.9320   31.0870   30.3030 C   0  0  0  0  0  0  0  0  0  0  0  0
   36.9360   32.5740   30.2300 C   0  0  0  0  0  0  0  0  0  0  0  0
   37.2260   33.1800   31.6030 C   0  0  0  0  0  0  0  0  0  0  0  0
   36.0320   32.8110   32.4280 C   0  0  0  0  0  0  0  0  0  0  0  0
   35.9490   31.3280   32.6660 C   0  0  1  0  0  0  0  0  0  0  0  0
   38.0090   30.7570   30.2640 H   0  0  0  0  0  0  0  0  0  0  0  0
   36.4630   30.6790   29.4180 H   0  0  0  0  0  0  0  0  0  0  0  0
   35.9910   33.0220   29.8700 H   0  0  0  0  0  0  0  0  0  0  0  0
   37.7740   32.8880   29.5580 H   0  0  0  0  0  0  0  0  0  0  0  0
   38.1010   32.6850   32.0790 H   0  0  0  0  0  0  0  0  0  0  0  0
   37.3290   34.2630   31.5210 H   0  0  0  0  0  0  0  0  0  0  0  0
   35.9420   33.3600   33.3790 H   0  0  0  0  0  0  0  0  0  0  0  0
   35.1360   33.0570   31.7880 H   0  0  0  0  0  0  0  0  0  0  0  0
   36.6700   31.1340   33.5100 H   0  0  0  0  0  0  0  0  0  0  0  0
   35.4230   31.2770   35.8380 Br  0  0  0  0  0  0  0  0  0  0  0  0
   34.1830   30.8860   34.4790 C   0  0  0  0  0  0  0  0  0  0  0  0
   34.6130   30.9720   33.1800 C   0  0  0  0  0  0  0  0  0  0  0  0
   33.5970   30.6500   32.2640 C   0  0  0  0  0  0  0  0  0  0  0  0
   33.8550   30.6940   31.1940 H   0  0  0  0  0  0  0  0  0  0  0  0
   32.3080   30.2850   32.5790 C   0  0  0  0  0  0  0  0  0  0  0  0
   31.6170   30.0600   31.7780 H   0  0  0  0  0  0  0  0  0  0  0  0
   31.9670   30.2240   33.9040 C   0  0  0  0  0  3  0  0  0  0  0  0
   32.9110   30.5260   34.8550 C   0  0  0  0  0  3  0  0  0  0  0  0
   36.6670   28.5250   32.9170 C   0  0  0  0  0  0  0  0  0  0  0  0
   36.4730   29.1490   31.6930 C   0  0  0  0  0  0  0  0  0  0  0  0
   36.3170   28.3170   30.5990 C   0  0  0  0  0  0  0  0  0  0  0  0
   36.3600   26.9650   30.7610 N   0  0  0  0  0  0  0  0  0  0  0  0
   36.5500   26.4020   31.9650 C   0  0  0  0  0  0  0  0  0  0  0  0
   36.7010   27.1920   33.0310 N   0  0  0  0  0  0  0  0  0  0  0  0
   36.7970   29.0700   33.8320 H   0  0  0  0  0  0  0  0  0  0  0  0
   36.1520   28.6730   29.5990 H   0  0  0  0  0  0  0  0  0  0  0  0
   36.5890   24.9620   32.1090 C   0  0  0  0  0  0  0  0  0  0  0  0
   35.7030   24.1700   31.4190 C   0  0  0  0  0  0  0  0  0  0  0  0
   35.6980   22.7970   31.5190 C   0  0  0  0  0  0  0  0  0  0  0  0
   36.6370   22.2690   32.3530 C   0  0  0  0  0  0  0  0  0  0  0  0
   37.5600   23.0300   33.0760 C   0  0  0  0  0  0  0  0  0  0  0  0
   37.5110   24.4000   32.9310 N   0  0  0  0  0  0  0  0  0  0  0  0
   34.9800   24.6780   30.7690 H   0  0  0  0  0  0  0  0  0  0  0  0
   34.9910   22.2170   30.9640 H   0  0  0  0  0  0  0  0  0  0  0  0
   36.6960   21.1910   32.4840 H   0  0  0  0  0  0  0  0  0  0  0  0
   38.2830   22.5890   33.7200 H   0  0  0  0  0  0  0  0  0  0  0  0
  1 26  1  0  0  0  0
  1  6  1  0  0  0  0
  2  1  1  0  0  0  0
  3  2  1  0  0  0  0
  3  4  1  0  0  0  0
  4 11  1  0  0  0  0
  4  5  1  0  0  0  0
  5  6  1  0  0  0  0
  5 13  1  0  0  0  0
  6 18  1  0  0  0  0
  6 15  1  1  0  0  0
  7  2  1  0  0  0  0
  8  2  1  0  0  0  0
  9  3  1  0  0  0  0
 10  3  1  0  0  0  0
 12  4  1  0  0  0  0
 14  5  1  0  0  0  0
 17 24  1  0  0  0  0
 17 16  1  0  0  0  0
 18 17  2  0  0  0  0
 19 21  2  0  0  0  0
 19 18  1  0  0  0  0
 20 19  1  0  0  0  0
 21 23  1  0  0  0  0
 22 21  1  0  0  0  0
 23 24  2  0  0  0  0
 25 30  1  0  0  0  0
 25 31  1  0  0  0  0
 26 25  2  0  0  0  0
 27 28  2  0  0  0  0
 27 26  1  0  0  0  0
 28 29  1  0  0  0  0
 29 33  1  0  0  0  0
 29 30  2  0  0  0  0
 32 27  1  0  0  0  0
 33 38  1  0  0  0  0
 34 35  1  0  0  0  0
 34 33  2  0  0  0  0
 35 36  2  0  0  0  0
 36 41  1  0  0  0  0
 36 37  1  0  0  0  0
 37 42  1  0  0  0  0
 38 37  2  0  0  0  0
 39 34  1  0  0  0  0
 40 35  1  0  0  0  0
M  END
>  <minimizedAffinity>
-5.36399841

$$$$

 OpenBabel03272504513D

 42 45  0  0  1  0  0  0  0  0999 V2000
   38.6310   23.0010   35.2690 N   0  0  0  0  0  0  0  0  0  0  0  0
   39.4020   22.2890   36.2850 C   0  0  0  0  0  0  0  0  0  0  0  0
   39.4960   23.0090   37.5850 C   0  0  0  0  0  0  0  0  0  0  0  0
   38.2180   23.8060   37.8530 C   0  0  0  0  0  0  0  0  0  0  0  0
   38.2160   24.8640   36.7940 C   0  0  0  0  0  0  0  0  0  0  0  0
   38.0320   24.2830   35.4190 C   0  0  1  0  0  0  0  0  0  0  0  0
   38.8100   21.3490   36.4780 H   0  0  0  0  0  0  0  0  0  0  0  0
   40.3850   21.9630   35.9770 H   0  0  0  0  0  0  0  0  0  0  0  0
   40.3420   23.7180   37.6610 H   0  0  0  0  0  0  0  0  0  0  0  0
   39.5750   22.2480   38.4010 H   0  0  0  0  0  0  0  0  0  0  0  0
   37.3160   23.1810   37.6750 H   0  0  0  0  0  0  0  0  0  0  0  0
   38.2530   24.2460   38.8500 H   0  0  0  0  0  0  0  0  0  0  0  0
   37.5010   25.6840   36.9650 H   0  0  0  0  0  0  0  0  0  0  0  0
   39.2590   25.2940   36.7940 H   0  0  0  0  0  0  0  0  0  0  0  0
   36.9220   24.1040   35.3300 H   0  0  0  0  0  0  0  0  0  0  0  0
   41.1020   25.1080   34.9310 Br  0  0  0  0  0  0  0  0  0  0  0  0
   39.5930   25.7840   34.0350 C   0  0  0  0  0  0  0  0  0  0  0  0
   38.3650   25.2920   34.3940 C   0  0  0  0  0  0  0  0  0  0  0  0
   37.3230   25.8810   33.6580 C   0  0  0  0  0  0  0  0  0  0  0  0
   36.2980   25.5420   33.8810 H   0  0  0  0  0  0  0  0  0  0  0  0
   37.4620   26.8420   32.6830 C   0  0  0  0  0  0  0  0  0  0  0  0
   36.5780   27.2170   32.1870 H   0  0  0  0  0  0  0  0  0  0  0  0
   38.7280   27.2770   32.3900 C   0  0  0  0  0  3  0  0  0  0  0  0
   39.7950   26.7430   33.0710 C   0  0  0  0  0  3  0  0  0  0  0  0
   37.2350   21.8840   33.5950 C   0  0  0  0  0  0  0  0  0  0  0  0
   38.4770   22.3150   34.0400 C   0  0  0  0  0  0  0  0  0  0  0  0
   39.5530   22.0370   33.2170 C   0  0  0  0  0  0  0  0  0  0  0  0
   39.3590   21.3740   32.0430 N   0  0  0  0  0  0  0  0  0  0  0  0
   38.1390   20.9750   31.6490 C   0  0  0  0  0  0  0  0  0  0  0  0
   37.0890   21.2360   32.4320 N   0  0  0  0  0  0  0  0  0  0  0  0
   36.3310   22.0460   34.1500 H   0  0  0  0  0  0  0  0  0  0  0  0
   40.5640   22.3240   33.4410 H   0  0  0  0  0  0  0  0  0  0  0  0
   37.9600   20.2740   30.3960 C   0  0  0  0  0  0  0  0  0  0  0  0
   38.9170   20.3520   29.4120 C   0  0  0  0  0  0  0  0  0  0  0  0
   38.7980   19.7040   28.2030 C   0  0  0  0  0  0  0  0  0  0  0  0
   37.6600   18.9740   28.0430 C   0  0  0  0  0  0  0  0  0  0  0  0
   36.6570   18.8610   29.0110 C   0  0  0  0  0  0  0  0  0  0  0  0
   36.8390   19.5350   30.2000 N   0  0  0  0  0  0  0  0  0  0  0  0
   39.8030   20.9640   29.6250 H   0  0  0  0  0  0  0  0  0  0  0  0
   39.5660   19.7920   27.4650 H   0  0  0  0  0  0  0  0  0  0  0  0
   37.4930   18.4320   27.1150 H   0  0  0  0  0  0  0  0  0  0  0  0
   35.7780   18.2820   28.8580 H   0  0  0  0  0  0  0  0  0  0  0  0
  1  6  1  0  0  0  0
  1  2  1  0  0  0  0
  2  7  1  0  0  0  0
  2  3  1  0  0  0  0
  3  9  1  0  0  0  0
  3  4  1  0  0  0  0
  3 10  1  0  0  0  0
  4 12  1  0  0  0  0
  5 14  1  0  0  0  0
  5 13  1  0  0  0  0
  5  4  1  0  0  0  0
  6 15  1  6  0  0  0
  6  5  1  0  0  0  0
  8  2  1  0  0  0  0
 11  4  1  0  0  0  0
 17 18  1  0  0  0  0
 17 16  1  0  0  0  0
 18  6  1  0  0  0  0
 19 20  1  0  0  0  0
 19 18  2  0  0  0  0
 21 19  1  0  0  0  0
 22 21  1  0  0  0  0
 23 21  2  0  0  0  0
 23 24  1  0  0  0  0
 24 17  2  0  0  0  0
 25 26  1  0  0  0  0
 25 31  1  0  0  0  0
 26  1  1  0  0  0  0
 27 32  1  0  0  0  0
 27 26  2  0  0  0  0
 28 27  1  0  0  0  0
 29 28  2  0  0  0  0
 29 30  1  0  0  0  0
 30 25  2  0  0  0  0
 33 29  1  0  0  0  0
 34 39  1  0  0  0  0
 34 33  2  0  0  0  0
 35 34  1  0  0  0  0
 36 35  2  0  0  0  0
 36 37  1  0  0  0  0
 37 38  2  0  0  0  0
 38 33  1  0  0  0  0
 40 35  1  0  0  0  0
 41 36  1  0  0  0  0
 42 37  1  0  0  0  0
M  END
>  <minimizedAffinity>
-5.3164463

$$$$

 OpenBabel03272504513D

 42 45  0  0  1  0  0  0  0  0999 V2000
   37.0720   25.6080   32.3330 N   0  0  0  0  0  0  0  0  0  0  0  0
   36.0230   24.8530   31.6510 C   0  0  0  0  0  0  0  0  0  0  0  0
   36.4590   23.5100   31.1780 C   0  0  0  0  0  0  0  0  0  0  0  0
   37.4900   22.9100   32.1340 C   0  0  0  0  0  0  0  0  0  0  0  0
   38.6830   23.8040   31.9970 C   0  0  0  0  0  0  0  0  0  0  0  0
   38.4160   25.1850   32.5290 C   0  0  1  0  0  0  0  0  0  0  0  0
   35.2420   24.6790   32.4450 H   0  0  0  0  0  0  0  0  0  0  0  0
   35.5220   25.3780   30.8500 H   0  0  0  0  0  0  0  0  0  0  0  0
   36.9090   23.5000   30.1670 H   0  0  0  0  0  0  0  0  0  0  0  0
   35.5710   22.8290   31.1950 H   0  0  0  0  0  0  0  0  0  0  0  0
   37.1500   22.9990   33.1900 H   0  0  0  0  0  0  0  0  0  0  0  0
   37.7260   21.8880   31.8370 H   0  0  0  0  0  0  0  0  0  0  0  0
   39.6130   23.3980   32.4260 H   0  0  0  0  0  0  0  0  0  0  0  0
   38.8330   23.9400   30.8870 H   0  0  0  0  0  0  0  0  0  0  0  0
   38.5380   25.0900   33.6450 H   0  0  0  0  0  0  0  0  0  0  0  0
   40.4830   26.4040   34.6700 Br  0  0  0  0  0  0  0  0  0  0  0  0
   40.4390   26.7420   32.8210 C   0  0  0  0  0  0  0  0  0  0  0  0
   39.4730   26.1130   32.0800 C   0  0  0  0  0  0  0  0  0  0  0  0
   39.5430   26.4540   30.7190 C   0  0  0  0  0  0  0  0  0  0  0  0
   38.8020   25.9910   30.0480 H   0  0  0  0  0  0  0  0  0  0  0  0
   40.4540   27.3110   30.1440 C   0  0  0  0  0  0  0  0  0  0  0  0
   40.4030   27.4920   29.0790 H   0  0  0  0  0  0  0  0  0  0  0  0
   41.3840   27.8960   30.9620 C   0  0  0  0  0  3  0  0  0  0  0  0
   41.3740   27.6080   32.3040 C   0  0  0  0  0  3  0  0  0  0  0  0
   36.8300   27.1950   34.1840 C   0  0  0  0  0  0  0  0  0  0  0  0
   36.6710   26.8670   32.8450 C   0  0  0  0  0  0  0  0  0  0  0  0
   36.1020   27.8360   32.0390 C   0  0  0  0  0  0  0  0  0  0  0  0
   35.7310   29.0320   32.5730 N   0  0  0  0  0  0  0  0  0  0  0  0
   35.9020   29.3100   33.8760 C   0  0  0  0  0  0  0  0  0  0  0  0
   36.4520   28.3850   34.6670 N   0  0  0  0  0  0  0  0  0  0  0  0
   37.2610   26.5210   34.8990 H   0  0  0  0  0  0  0  0  0  0  0  0
   35.9330   27.7110   30.9850 H   0  0  0  0  0  0  0  0  0  0  0  0
   35.5010   30.5910   34.4180 C   0  0  0  0  0  0  0  0  0  0  0  0
   35.9680   31.0060   35.6410 C   0  0  0  0  0  0  0  0  0  0  0  0
   35.6190   32.2150   36.2010 C   0  0  0  0  0  0  0  0  0  0  0  0
   34.7740   32.9800   35.4560 C   0  0  0  0  0  0  0  0  0  0  0  0
   34.2720   32.6050   34.2070 C   0  0  0  0  0  0  0  0  0  0  0  0
   34.6610   31.3820   33.7030 N   0  0  0  0  0  0  0  0  0  0  0  0
   36.6450   30.3260   36.1750 H   0  0  0  0  0  0  0  0  0  0  0  0
   36.0050   32.5000   37.1560 H   0  0  0  0  0  0  0  0  0  0  0  0
   34.4530   33.9490   35.8310 H   0  0  0  0  0  0  0  0  0  0  0  0
   33.6130   33.2240   33.6470 H   0  0  0  0  0  0  0  0  0  0  0  0
  1  6  1  0  0  0  0
  1 26  1  0  0  0  0
  2  1  1  0  0  0  0
  2  7  1  0  0  0  0
  3 10  1  0  0  0  0
  3  2  1  0  0  0  0
  3  4  1  0  0  0  0
  4 11  1  0  0  0  0
  5  4  1  0  0  0  0
  5 13  1  0  0  0  0
  5  6  1  0  0  0  0
  6 15  1  1  0  0  0
  8  2  1  0  0  0  0
  9  3  1  0  0  0  0
 12  4  1  0  0  0  0
 14  5  1  0  0  0  0
 17 16  1  0  0  0  0
 18  6  1  0  0  0  0
 18 17  2  0  0  0  0
 19 18  1  0  0  0  0
 20 19  1  0  0  0  0
 21 19  2  0  0  0  0
 21 23  1  0  0  0  0
 22 21  1  0  0  0  0
 23 24  2  0  0  0  0
 24 17  1  0  0  0  0
 25 30  1  0  0  0  0
 25 31  1  0  0  0  0
 26 25  2  0  0  0  0
 27 28  2  0  0  0  0
 27 26  1  0  0  0  0
 28 29  1  0  0  0  0
 29 33  1  0  0  0  0
 29 30  2  0  0  0  0
 32 27  1  0  0  0  0
 33 34  1  0  0  0  0
 34 39  1  0  0  0  0
 34 35  2  0  0  0  0
 35 40  1  0  0  0  0
 36 41  1  0  0  0  0
 36 35  1  0  0  0  0
 37 36  2  0  0  0  0
 38 37  1  0  0  0  0
 38 33  2  0  0  0  0
 42 37  1  0  0  0  0
M  END
>  <minimizedAffinity>
-5.3012042

$$$$

 OpenBabel03272504513D

 42 45  0  0  1  0  0  0  0  0999 V2000
   39.4410   25.5430   30.7640 N   0  0  0  0  0  0  0  0  0  0  0  0
   39.6440   25.8490   29.3500 C   0  0  0  0  0  0  0  0  0  0  0  0
   40.4480   27.0790   29.1090 C   0  0  0  0  0  0  0  0  0  0  0  0
   41.5000   27.2590   30.2030 C   0  0  0  0  0  0  0  0  0  0  0  0
   40.7010   27.5230   31.4420 C   0  0  0  0  0  0  0  0  0  0  0  0
   39.9020   26.3210   31.8630 C   0  0  1  0  0  0  0  0  0  0  0  0
   40.2530   24.9830   28.9610 H   0  0  0  0  0  0  0  0  0  0  0  0
   38.7460   25.8760   28.7490 H   0  0  0  0  0  0  0  0  0  0  0  0
   39.8580   28.0150   29.0680 H   0  0  0  0  0  0  0  0  0  0  0  0
   41.0040   26.9490   28.1470 H   0  0  0  0  0  0  0  0  0  0  0  0
   42.0520   26.3100   30.3820 H   0  0  0  0  0  0  0  0  0  0  0  0
   42.1480   28.1030   29.9650 H   0  0  0  0  0  0  0  0  0  0  0  0
   41.2840   27.9160   32.2900 H   0  0  0  0  0  0  0  0  0  0  0  0
   39.9350   28.2980   31.1480 H   0  0  0  0  0  0  0  0  0  0  0  0
   40.6390   25.6630   32.4050 H   0  0  0  0  0  0  0  0  0  0  0  0
   40.1070   25.1810   34.8630 Br  0  0  0  0  0  0  0  0  0  0  0  0
   38.7920   26.3390   34.1810 C   0  0  0  0  0  0  0  0  0  0  0  0
   38.8910   26.7120   32.8660 C   0  0  0  0  0  0  0  0  0  0  0  0
   37.8480   27.5700   32.4790 C   0  0  0  0  0  0  0  0  0  0  0  0
   37.8500   27.9210   31.4340 H   0  0  0  0  0  0  0  0  0  0  0  0
   36.8240   28.0150   33.2830 C   0  0  0  0  0  0  0  0  0  0  0  0
   36.0790   28.6770   32.8640 H   0  0  0  0  0  0  0  0  0  0  0  0
   36.8040   27.5910   34.5850 C   0  0  0  0  0  3  0  0  0  0  0  0
   37.7930   26.7500   35.0320 C   0  0  0  0  0  3  0  0  0  0  0  0
   37.3770   24.2250   30.7370 C   0  0  0  0  0  0  0  0  0  0  0  0
   38.7290   24.3480   31.0260 C   0  0  0  0  0  0  0  0  0  0  0  0
   39.3400   23.2390   31.5810 C   0  0  0  0  0  0  0  0  0  0  0  0
   38.6170   22.1090   31.8160 N   0  0  0  0  0  0  0  0  0  0  0  0
   37.3080   22.0320   31.5210 C   0  0  0  0  0  0  0  0  0  0  0  0
   36.7040   23.0950   30.9830 N   0  0  0  0  0  0  0  0  0  0  0  0
   36.8010   25.0200   30.3030 H   0  0  0  0  0  0  0  0  0  0  0  0
   40.3820   23.2010   31.8420 H   0  0  0  0  0  0  0  0  0  0  0  0
   36.5640   20.8180   31.7790 C   0  0  0  0  0  0  0  0  0  0  0  0
   35.2010   20.8600   31.9460 C   0  0  0  0  0  0  0  0  0  0  0  0
   34.4450   19.7370   32.1920 C   0  0  0  0  0  0  0  0  0  0  0  0
   35.1420   18.5680   32.2590 C   0  0  0  0  0  0  0  0  0  0  0  0
   36.5260   18.4710   32.0960 C   0  0  0  0  0  0  0  0  0  0  0  0
   37.2240   19.6350   31.8520 N   0  0  0  0  0  0  0  0  0  0  0  0
   34.7190   21.8440   31.8770 H   0  0  0  0  0  0  0  0  0  0  0  0
   33.3860   19.8130   32.3160 H   0  0  0  0  0  0  0  0  0  0  0  0
   34.6150   17.6360   32.4500 H   0  0  0  0  0  0  0  0  0  0  0  0
   37.0440   17.5440   32.1520 H   0  0  0  0  0  0  0  0  0  0  0  0
  1 26  1  0  0  0  0
  1  6  1  0  0  0  0
  2  1  1  0  0  0  0
  3  2  1  0  0  0  0
  3  4  1  0  0  0  0
  4 11  1  0  0  0  0
  4  5  1  0  0  0  0
  5  6  1  0  0  0  0
  5 13  1  0  0  0  0
  6 15  1  1  0  0  0
  6 18  1  0  0  0  0
  7  2  1  0  0  0  0
  8  2  1  0  0  0  0
  9  3  1  0  0  0  0
 10  3  1  0  0  0  0
 12  4  1  0  0  0  0
 14  5  1  0  0  0  0
 17 16  1  0  0  0  0
 17 24  1  0  0  0  0
 18 17  2  0  0  0  0
 19 18  1  0  0  0  0
 19 21  2  0  0  0  0
 20 19  1  0  0  0  0
 21 23  1  0  0  0  0
 22 21  1  0  0  0  0
 23 24  2  0  0  0  0
 25 30  2  0  0  0  0
 25 26  1  0  0  0  0
 26 27  2  0  0  0  0
 27 28  1  0  0  0  0
 27 32  1  0  0  0  0
 29 33  1  0  0  0  0
 29 28  2  0  0  0  0
 30 29  1  0  0  0  0
 31 25  1  0  0  0  0
 33 38  2  0  0  0  0
 33 34  1  0  0  0  0
 34 35  2  0  0  0  0
 35 36  1  0  0  0  0
 35 40  1  0  0  0  0
 36 41  1  0  0  0  0
 37 42  1  0  0  0  0
 37 36  2  0  0  0  0
 38 37  1  0  0  0  0
 39 34  1  0  0  0  0
M  END
>  <minimizedAffinity>
-5.28632402

$$$$

 OpenBabel03272504513D

 42 45  0  0  1  0  0  0  0  0999 V2000
   36.8770   26.8060   31.5170 N   0  0  0  0  0  0  0  0  0  0  0  0
   35.8360   27.6450   32.1060 C   0  0  0  0  0  0  0  0  0  0  0  0
   36.0370   29.1030   31.8780 C   0  0  0  0  0  0  0  0  0  0  0  0
   36.6990   29.3500   30.5220 C   0  0  0  0  0  0  0  0  0  0  0  0
   38.0680   28.7630   30.6690 C   0  0  0  0  0  0  0  0  0  0  0  0
   38.0260   27.2660   30.8140 C   0  0  1  0  0  0  0  0  0  0  0  0
   34.8970   27.3570   31.5510 H   0  0  0  0  0  0  0  0  0  0  0  0
   35.6310   27.4630   33.1510 H   0  0  0  0  0  0  0  0  0  0  0  0
   36.6590   29.6080   32.6410 H   0  0  0  0  0  0  0  0  0  0  0  0
   35.0310   29.5920   31.8370 H   0  0  0  0  0  0  0  0  0  0  0  0
   36.1920   28.7700   29.7210 H   0  0  0  0  0  0  0  0  0  0  0  0
   36.7490   30.4210   30.3200 H   0  0  0  0  0  0  0  0  0  0  0  0
   38.7800   29.0540   29.8810 H   0  0  0  0  0  0  0  0  0  0  0  0
   38.4560   29.1430   31.6580 H   0  0  0  0  0  0  0  0  0  0  0  0
   37.9050   26.8800   29.7620 H   0  0  0  0  0  0  0  0  0  0  0  0
   39.6170   25.0790   29.0750 Br  0  0  0  0  0  0  0  0  0  0  0  0
   40.1620   25.8410   30.7060 C   0  0  0  0  0  0  0  0  0  0  0  0
   39.3320   26.7660   31.2850 C   0  0  0  0  0  0  0  0  0  0  0  0
   39.8480   27.2530   32.4980 C   0  0  0  0  0  0  0  0  0  0  0  0
   39.2450   28.0040   33.0330 H   0  0  0  0  0  0  0  0  0  0  0  0
   41.0380   26.8810   33.0800 C   0  0  0  0  0  0  0  0  0  0  0  0
   41.3250   27.3310   34.0200 H   0  0  0  0  0  0  0  0  0  0  0  0
   41.8030   25.9480   32.4300 C   0  0  0  0  0  3  0  0  0  0  0  0
   41.3600   25.4290   31.2390 C   0  0  0  0  0  3  0  0  0  0  0  0
   35.8330   24.6980   30.8350 C   0  0  0  0  0  0  0  0  0  0  0  0
   36.6830   25.4110   31.6680 C   0  0  0  0  0  0  0  0  0  0  0  0
   37.3300   24.6850   32.6510 C   0  0  0  0  0  0  0  0  0  0  0  0
   37.1130   23.3450   32.7610 N   0  0  0  0  0  0  0  0  0  0  0  0
   36.2810   22.6920   31.9330 C   0  0  0  0  0  0  0  0  0  0  0  0
   35.6500   23.3790   30.9770 N   0  0  0  0  0  0  0  0  0  0  0  0
   35.2810   25.1570   30.0370 H   0  0  0  0  0  0  0  0  0  0  0  0
   38.0200   25.1160   33.3530 H   0  0  0  0  0  0  0  0  0  0  0  0
   36.0710   21.2670   32.0700 C   0  0  0  0  0  0  0  0  0  0  0  0
   35.6290   20.7400   33.2590 C   0  0  0  0  0  0  0  0  0  0  0  0
   35.4110   19.3930   33.4430 C   0  0  0  0  0  0  0  0  0  0  0  0
   35.6660   18.6080   32.3590 C   0  0  0  0  0  0  0  0  0  0  0  0
   36.1170   19.0940   31.1280 C   0  0  0  0  0  0  0  0  0  0  0  0
   36.3140   20.4530   31.0110 N   0  0  0  0  0  0  0  0  0  0  0  0
   35.4490   21.4440   34.0820 H   0  0  0  0  0  0  0  0  0  0  0  0
   35.0660   19.0240   34.3850 H   0  0  0  0  0  0  0  0  0  0  0  0
   35.5180   17.5330   32.4250 H   0  0  0  0  0  0  0  0  0  0  0  0
   36.3060   18.4570   30.2980 H   0  0  0  0  0  0  0  0  0  0  0  0
  1 26  1  0  0  0  0
  1  2  1  0  0  0  0
  2  8  1  0  0  0  0
  3  2  1  0  0  0  0
  3  9  1  0  0  0  0
  4  5  1  0  0  0  0
  4  3  1  0  0  0  0
  5  6  1  0  0  0  0
  5 14  1  0  0  0  0
  6 15  1  6  0  0  0
  6 18  1  0  0  0  0
  6  1  1  0  0  0  0
  7  2  1  0  0  0  0
 10  3  1  0  0  0  0
 11  4  1  0  0  0  0
 12  4  1  0  0  0  0
 13  5  1  0  0  0  0
 16 17  1  0  0  0  0
 17 24  2  0  0  0  0
 17 18  1  0  0  0  0
 18 19  2  0  0  0  0
 19 20  1  0  0  0  0
 19 21  1  0  0  0  0
 21 22  1  0  0  0  0
 23 21  2  0  0  0  0
 24 23  1  0  0  0  0
 25 30  2  0  0  0  0
 25 26  1  0  0  0  0
 26 27  2  0  0  0  0
 27 28  1  0  0  0  0
 27 32  1  0  0  0  0
 29 33  1  0  0  0  0
 29 28  2  0  0  0  0
 30 29  1  0  0  0  0
 31 25  1  0  0  0  0
 33 34  1  0  0  0  0
 34 35  2  0  0  0  0
 34 39  1  0  0  0  0
 35 40  1  0  0  0  0
 36 41  1  0  0  0  0
 36 35  1  0  0  0  0
 37 36  2  0  0  0  0
 38 37  1  0  0  0  0
 38 33  2  0  0  0  0
 42 37  1  0  0  0  0
M  END
>  <minimizedAffinity>
-5.27687788

$$$$

 OpenBabel03272504513D

 42 45  0  0  1  0  0  0  0  0999 V2000
   35.1490   30.9190   34.5670 N   0  0  0  0  0  0  0  0  0  0  0  0
   35.8690   32.1310   34.1840 C   0  0  0  0  0  0  0  0  0  0  0  0
   35.4840   33.3350   34.9710 C   0  0  0  0  0  0  0  0  0  0  0  0
   35.1220   32.9480   36.4050 C   0  0  0  0  0  0  0  0  0  0  0  0
   33.8740   32.1320   36.2620 C   0  0  0  0  0  0  0  0  0  0  0  0
   34.1330   30.8280   35.5600 C   0  0  1  0  0  0  0  0  0  0  0  0
   36.9450   31.9090   34.4370 H   0  0  0  0  0  0  0  0  0  0  0  0
   35.8540   32.3640   33.1290 H   0  0  0  0  0  0  0  0  0  0  0  0
   34.6260   33.9010   34.5600 H   0  0  0  0  0  0  0  0  0  0  0  0
   36.3750   34.0090   35.0360 H   0  0  0  0  0  0  0  0  0  0  0  0
   35.8900   32.2730   36.8400 H   0  0  0  0  0  0  0  0  0  0  0  0
   34.9400   33.8440   37.0000 H   0  0  0  0  0  0  0  0  0  0  0  0
   33.3250   31.9630   37.2020 H   0  0  0  0  0  0  0  0  0  0  0  0
   33.2100   32.7160   35.5610 H   0  0  0  0  0  0  0  0  0  0  0  0
   34.5570   30.1530   36.3570 H   0  0  0  0  0  0  0  0  0  0  0  0
   32.3290   32.2650   33.3190 Br  0  0  0  0  0  0  0  0  0  0  0  0
   31.9450   30.6600   34.2210 C   0  0  0  0  0  0  0  0  0  0  0  0
   32.8560   30.2150   35.1440 C   0  0  0  0  0  0  0  0  0  0  0  0
   32.4510   29.0130   35.7500 C   0  0  0  0  0  0  0  0  0  0  0  0
   33.1260   28.5820   36.5070 H   0  0  0  0  0  0  0  0  0  0  0  0
   31.2890   28.3250   35.4880 C   0  0  0  0  0  0  0  0  0  0  0  0
   31.0910   27.4070   36.0250 H   0  0  0  0  0  0  0  0  0  0  0  0
   30.4360   28.8450   34.5500 C   0  0  0  0  0  3  0  0  0  0  0  0
   30.7690   30.0170   33.9180 C   0  0  0  0  0  3  0  0  0  0  0  0
   36.2630   28.7390   34.4930 C   0  0  0  0  0  0  0  0  0  0  0  0
   35.5340   29.7450   33.8750 C   0  0  0  0  0  0  0  0  0  0  0  0
   35.2050   29.5370   32.5480 C   0  0  0  0  0  0  0  0  0  0  0  0
   35.5960   28.3940   31.9210 N   0  0  0  0  0  0  0  0  0  0  0  0
   36.3020   27.4440   32.5560 C   0  0  0  0  0  0  0  0  0  0  0  0
   36.6270   27.6290   33.8390 N   0  0  0  0  0  0  0  0  0  0  0  0
   36.5720   28.7920   35.5190 H   0  0  0  0  0  0  0  0  0  0  0  0
   34.6360   30.2340   31.9590 H   0  0  0  0  0  0  0  0  0  0  0  0
   36.7030   26.2360   31.8670 C   0  0  0  0  0  0  0  0  0  0  0  0
   35.7900   25.2420   31.6160 C   0  0  0  0  0  0  0  0  0  0  0  0
   36.1170   24.0750   30.9630 C   0  0  0  0  0  0  0  0  0  0  0  0
   37.4200   23.9700   30.5770 C   0  0  0  0  0  0  0  0  0  0  0  0
   38.3880   24.9510   30.8070 C   0  0  0  0  0  0  0  0  0  0  0  0
   37.9930   26.0960   31.4660 N   0  0  0  0  0  0  0  0  0  0  0  0
   34.7610   25.4090   31.9620 H   0  0  0  0  0  0  0  0  0  0  0  0
   35.3760   23.3260   30.7880 H   0  0  0  0  0  0  0  0  0  0  0  0
   37.7570   23.0770   30.0550 H   0  0  0  0  0  0  0  0  0  0  0  0
   39.3980   24.8420   30.4930 H   0  0  0  0  0  0  0  0  0  0  0  0
  1  6  1  0  0  0  0
  2  7  1  0  0  0  0
  2  1  1  0  0  0  0
  2  3  1  0  0  0  0
  3 10  1  0  0  0  0
  3  4  1  0  0  0  0
  4 11  1  0  0  0  0
  4 12  1  0  0  0  0
  5  4  1  0  0  0  0
  5 13  1  0  0  0  0
  6  5  1  0  0  0  0
  6 15  1  1  0  0  0
  8  2  1  0  0  0  0
  9  3  1  0  0  0  0
 14  5  1  0  0  0  0
 16 17  1  0  0  0  0
 17 18  1  0  0  0  0
 18  6  1  0  0  0  0
 18 19  2  0  0  0  0
 19 20  1  0  0  0  0
 21 19  1  0  0  0  0
 21 22  1  0  0  0  0
 23 21  2  0  0  0  0
 24 17  2  0  0  0  0
 24 23  1  0  0  0  0
 25 31  1  0  0  0  0
 26 25  1  0  0  0  0
 26  1  1  0  0  0  0
 27 26  2  0  0  0  0
 28 27  1  0  0  0  0
 28 29  2  0  0  0  0
 29 30  1  0  0  0  0
 30 25  2  0  0  0  0
 32 27  1  0  0  0  0
 33 29  1  0  0  0  0
 34 33  1  0  0  0  0
 34 39  1  0  0  0  0
 35 34  2  0  0  0  0
 36 37  2  0  0  0  0
 36 35  1  0  0  0  0
 37 38  1  0  0  0  0
 38 33  2  0  0  0  0
 40 35  1  0  0  0  0
 41 36  1  0  0  0  0
 42 37  1  0  0  0  0
M  END
>  <minimizedAffinity>
-5.23133135

$$$$
