
 OpenBabel03272509543D

 43 46  0  0  0  0  0  0  0  0999 V2000
   33.9810   28.9730   48.3660 C   0  0  0  0  0  0  0  0  0  0  0  0
   32.9800   29.3590   48.6460 H   0  0  0  0  0  0  0  0  0  0  0  0
   34.5500   29.8220   47.9310 H   0  0  0  0  0  0  0  0  0  0  0  0
   33.7800   27.8450   47.4050 C   0  0  0  0  0  0  0  0  0  0  0  0
   34.4170   26.9670   47.5880 H   0  0  0  0  0  0  0  0  0  0  0  0
   34.0460   28.1870   46.3680 H   0  0  0  0  0  0  0  0  0  0  0  0
   32.3630   27.3950   47.3390 C   0  0  0  0  0  0  0  0  0  0  0  0
   32.1010   26.1150   46.8850 C   0  0  0  0  0  0  0  0  0  0  0  0
   30.8310   25.6300   46.7950 C   0  0  0  0  0  0  0  0  0  0  0  0
   29.8130   26.3890   47.1460 N   0  0  0  0  0  0  0  0  0  0  0  0
   30.0570   27.6570   47.5970 C   0  0  0  0  0  0  0  0  0  0  0  0
   31.3080   28.1730   47.6990 N   0  0  0  0  0  0  0  0  0  0  0  0
   32.9290   25.4850   46.5940 H   0  0  0  0  0  0  0  0  0  0  0  0
   30.6720   24.6070   46.4290 H   0  0  0  0  0  0  0  0  0  0  0  0
   29.1680   27.1200   50.5160 Br  0  0  0  0  0  0  0  0  0  0  0  0
   28.4310   28.4000   49.2890 C   0  0  0  0  0  0  0  0  0  0  0  0
   28.9450   28.5230   47.9940 C   0  0  0  0  0  0  0  0  0  0  0  0
   28.3910   29.4490   47.1440 C   0  0  0  0  0  0  0  0  0  0  0  0
   28.7730   29.5600   46.1410 H   0  0  0  0  0  0  0  0  0  0  0  0
   27.3440   30.2620   47.5220 C   0  0  0  0  0  0  0  0  0  0  0  0
   26.9200   30.9820   46.8500 H   0  0  0  0  0  0  0  0  0  0  0  0
   26.8730   30.1030   48.8050 C   0  0  0  0  0  3  0  0  0  0  0  0
   27.3680   29.1990   49.7260 C   0  0  0  0  0  3  0  0  0  0  0  0
   34.5680   28.5050   49.5620 O   0  0  0  0  0  0  0  0  0  0  0  0
   37.1080   29.9640   51.6780 C   0  0  0  0  0  0  0  0  0  0  0  0
   37.8780   30.6590   50.7160 C   0  0  0  0  0  0  0  0  0  0  0  0
   37.4620   30.5750   49.3910 C   0  0  0  0  0  0  0  0  0  0  0  0
   36.3410   29.8210   49.1480 N   0  0  0  0  0  0  0  0  0  0  0  0
   35.6410   29.1820   50.0720 C   0  0  0  0  0  0  0  0  0  0  0  0
   36.0440   29.2630   51.3640 N   0  0  0  0  0  0  0  0  0  0  0  0
   37.4650   30.0550   52.7030 H   0  0  0  0  0  0  0  0  0  0  0  0
   38.7570   31.2490   50.9080 H   0  0  0  0  0  0  0  0  0  0  0  0
   38.8500   33.1170   49.3290 F   0  0  0  0  0  0  0  0  0  0  0  0
   38.7650   32.3970   48.2200 C   0  0  0  0  0  0  0  0  0  0  0  0
   38.1140   31.2110   48.2670 C   0  0  0  0  0  0  0  0  0  0  0  0
   38.0860   30.5370   47.0440 C   0  0  0  0  0  0  0  0  0  0  0  0
   38.6640   31.0350   45.9100 C   0  0  0  0  0  0  0  0  0  0  0  0
   39.3120   32.2360   45.9070 C   0  0  0  0  0  0  0  0  0  0  0  0
   39.3580   32.9210   47.0850 C   0  0  0  0  0  0  0  0  0  0  0  0
   37.5910   29.5610   46.9310 H   0  0  0  0  0  0  0  0  0  0  0  0
   38.6250   30.4830   44.9700 H   0  0  0  0  0  0  0  0  0  0  0  0
   39.7610   32.6070   44.9960 H   0  0  0  0  0  0  0  0  0  0  0  0
   39.8630   33.8740   47.1160 H   0  0  0  0  0  0  0  0  0  0  0  0
  1  2  1  0  0  0  0
  1 24  1  0  0  0  0
  3  1  1  0  0  0  0
  4  5  1  0  0  0  0
  4  1  1  0  0  0  0
  6  4  1  0  0  0  0
  7  4  1  0  0  0  0
  7 12  1  0  0  0  0
  8  7  2  0  0  0  0
  9  8  1  0  0  0  0
  9 10  2  0  0  0  0
 10 11  1  0  0  0  0
 11 12  2  0  0  0  0
 11 17  1  0  0  0  0
 13  8  1  0  0  0  0
 14  9  1  0  0  0  0
 16 23  1  0  0  0  0
 16 15  1  0  0  0  0
 17 16  2  0  0  0  0
 18 20  2  0  0  0  0
 18 17  1  0  0  0  0
 19 18  1  0  0  0  0
 20 22  1  0  0  0  0
 21 20  1  0  0  0  0
 22 23  2  0  0  0  0
 24 29  1  0  0  0  0
 25 31  1  0  0  0  0
 26 32  1  0  0  0  0
 26 25  2  0  0  0  0
 27 26  1  0  0  0  0
 28 27  2  0  0  0  0
 28 29  1  0  0  0  0
 29 30  2  0  0  0  0
 30 25  1  0  0  0  0
 34 35  1  0  0  0  0
 34 33  1  0  0  0  0
 35 27  1  0  0  0  0
 36 35  2  0  0  0  0
 37 36  1  0  0  0  0
 38 37  2  0  0  0  0
 38 39  1  0  0  0  0
 39 43  1  0  0  0  0
 39 34  2  0  0  0  0
 40 36  1  0  0  0  0
 41 37  1  0  0  0  0
 42 38  1  0  0  0  0
M  END
>  <minimizedAffinity>
-7.31365967

>  <minimizedRMSD>
2.30914092

$$$$
