REMARK  Name = 
REMARK  1 active torsions:
REMARK  status: ('A' for Active; 'I' for Inactive)
REMARK    1  A    between atoms: C_3  and  C_12
REMARK                            x       y       z     vdW  Elec       q    Type
REMARK                         _______ _______ _______ _____ _____    ______ ____
ROOT
ATOM      1  C   UNL     1      37.296  30.183  51.431  0.00  0.00    +0.000 A 
ATOM      2  C   UNL     1      38.035  30.656  50.339  0.00  0.00    +0.000 A 
ATOM      3  C   UNL     1      37.680  30.344  49.028  0.00  0.00    +0.000 A 
ATOM      4  N   UNL     1      36.582  29.558  48.891  0.00  0.00    +0.000 NA
ATOM      5  C   UNL     1      35.875  29.106  49.942  0.00  0.00    +0.000 A 
ATOM      6  N   UNL     1      36.227  29.414  51.196  0.00  0.00    +0.000 NA
ATOM      7  H   UNL     1      37.584  30.435  52.444  0.00  0.00    +0.000 HD
ATOM      8  H   UNL     1      38.891  31.273  50.541  0.00  0.00    +0.000 HD
ATOM      9  H   UNL     1      35.023  28.488  49.640  0.00  0.00    +0.000 HD
ENDROOT
BRANCH   3  12
ATOM     10 BR   UNL     1      36.078  29.992  46.471  0.00  0.00    +0.000 Br
ATOM     11  C   UNL     1      37.833  30.731  46.637  0.00  0.00    +0.000 A 
ATOM     12  C   UNL     1      38.436  30.826  47.876  0.00  0.00    +0.000 A 
ATOM     13  C   UNL     1      39.702  31.367  47.938  0.00  0.00    +0.000 A 
ATOM     14  H   UNL     1      40.184  31.448  48.893  0.00  0.00    +0.000 HD
ATOM     15  C   UNL     1      40.335  31.796  46.785  0.00  0.00    +0.000 A 
ATOM     16  H   UNL     1      41.335  32.222  46.846  0.00  0.00    +0.000 HD
ATOM     17  C   UNL     1      39.727  31.701  45.530  0.00  0.00    +0.000 A 
ATOM     18  C   UNL     1      38.451  31.155  45.479  0.00  0.00    +0.000 A 
ENDBRANCH   3  12
TORSDOF 1
