
 OpenBabel03272504503D

 42 45  0  0  1  0  0  0  0  0999 V2000
   37.1650   31.0820   48.4290 N   0  0  0  0  0  0  0  0  0  0  0  0
   37.8470   31.1610   49.7190 C   0  0  0  0  0  0  0  0  0  0  0  0
   38.9820   32.1260   49.7420 C   0  0  0  0  0  0  0  0  0  0  0  0
   38.6950   33.3170   48.8290 C   0  0  0  0  0  0  0  0  0  0  0  0
   38.6810   32.7300   47.4520 C   0  0  0  0  0  0  0  0  0  0  0  0
   37.5190   31.7970   47.2500 C   0  0  1  0  0  0  0  0  0  0  0  0
   37.0660   31.5640   50.4250 H   0  0  0  0  0  0  0  0  0  0  0  0
   38.1640   30.2150   50.1330 H   0  0  0  0  0  0  0  0  0  0  0  0
   39.9550   31.7020   49.4280 H   0  0  0  0  0  0  0  0  0  0  0  0
   39.0730   32.5320   50.7810 H   0  0  0  0  0  0  0  0  0  0  0  0
   37.6740   33.7190   49.0100 H   0  0  0  0  0  0  0  0  0  0  0  0
   39.4830   34.0650   48.9300 H   0  0  0  0  0  0  0  0  0  0  0  0
   38.7280   33.4690   46.6360 H   0  0  0  0  0  0  0  0  0  0  0  0
   39.5980   32.0750   47.3920 H   0  0  0  0  0  0  0  0  0  0  0  0
   36.6430   32.4730   47.0380 H   0  0  0  0  0  0  0  0  0  0  0  0
   40.5010   31.2260   46.1890 Br  0  0  0  0  0  0  0  0  0  0  0  0
   38.8920   30.6430   45.4090 C   0  0  0  0  0  0  0  0  0  0  0  0
   37.7200   30.9950   46.0280 C   0  0  0  0  0  0  0  0  0  0  0  0
   36.5940   30.5050   45.3440 C   0  0  0  0  0  0  0  0  0  0  0  0
   35.6060   30.7410   45.7740 H   0  0  0  0  0  0  0  0  0  0  0  0
   36.6080   29.7590   44.1890 C   0  0  0  0  0  0  0  0  0  0  0  0
   35.6680   29.4410   43.7590 H   0  0  0  0  0  0  0  0  0  0  0  0
   37.8260   29.4550   43.6390 C   0  0  0  0  0  0  0  0  0  0  0  0
   38.9690   29.9010   44.2540 C   0  0  0  0  0  0  0  0  0  0  0  0
   36.0580   28.9800   49.0250 C   0  0  0  0  0  0  0  0  0  0  0  0
   36.0460   30.2160   48.3920 C   0  0  0  0  0  0  0  0  0  0  0  0
   34.8830   30.5520   47.7250 C   0  0  0  0  0  0  0  0  0  0  0  0
   33.8300   29.6880   47.7150 N   0  0  0  0  0  0  0  0  0  0  0  0
   33.8830   28.5000   48.3410 C   0  0  0  0  0  0  0  0  0  0  0  0
   34.9990   28.1610   48.9900 N   0  0  0  0  0  0  0  0  0  0  0  0
   36.9060   28.6170   49.5730 H   0  0  0  0  0  0  0  0  0  0  0  0
   34.7420   31.4810   47.2040 H   0  0  0  0  0  0  0  0  0  0  0  0
   32.7490   27.6020   48.3160 C   0  0  0  0  0  0  0  0  0  0  0  0
   32.8160   26.4140   47.6280 C   0  0  0  0  0  0  0  0  0  0  0  0
   31.7690   25.5230   47.5730 C   0  0  0  0  0  0  0  0  0  0  0  0
   30.6490   25.8990   48.2520 C   0  0  0  0  0  0  0  0  0  0  0  0
   30.5280   27.0940   48.9670 C   0  0  0  0  0  0  0  0  0  0  0  0
   31.6150   27.9410   48.9810 N   0  0  0  0  0  0  0  0  0  0  0  0
   33.7570   26.1920   47.1090 H   0  0  0  0  0  0  0  0  0  0  0  0
   31.8630   24.6100   47.0270 H   0  0  0  0  0  0  0  0  0  0  0  0
   29.7770   25.2470   48.2560 H   0  0  0  0  0  0  0  0  0  0  0  0
   29.6400   27.3600   49.4880 H   0  0  0  0  0  0  0  0  0  0  0  0
  1  2  1  0  0  0  0
  2  3  1  0  0  0  0
  2  8  1  0  0  0  0
  2  7  1  0  0  0  0
  3 10  1  0  0  0  0
  4 12  1  0  0  0  0
  4 11  1  0  0  0  0
  4  3  1  0  0  0  0
  5  4  1  0  0  0  0
  6 15  1  6  0  0  0
  6  5  1  0  0  0  0
  6  1  1  0  0  0  0
  9  3  1  0  0  0  0
 13  5  1  0  0  0  0
 14  5  1  0  0  0  0
 17 18  1  0  0  0  0
 17 16  1  0  0  0  0
 18  6  1  0  0  0  0
 19 20  1  0  0  0  0
 19 18  2  0  0  0  0
 21 19  1  0  0  0  0
 22 21  1  0  0  0  0
 23 21  2  0  0  0  0
 23 24  1  0  0  0  0
 24 17  2  0  0  0  0
 25 31  1  0  0  0  0
 26  1  1  0  0  0  0
 26 25  2  0  0  0  0
 27 26  1  0  0  0  0
 28 27  2  0  0  0  0
 28 29  1  0  0  0  0
 29 30  2  0  0  0  0
 30 25  1  0  0  0  0
 32 27  1  0  0  0  0
 33 29  1  0  0  0  0
 33 38  1  0  0  0  0
 34 33  2  0  0  0  0
 35 34  1  0  0  0  0
 35 36  2  0  0  0  0
 36 41  1  0  0  0  0
 36 37  1  0  0  0  0
 37 38  2  0  0  0  0
 37 42  1  0  0  0  0
 39 34  1  0  0  0  0
 40 35  1  0  0  0  0
M  END
>  <minimizedAffinity>
-5.57316256

>  <minimizedRMSD>
1.60365868

$$$$
