
 OpenBabel03272508373D

 44 47  0  0  1  0  0  0  0  0999 V2000
   40.3400   31.9270   44.5100 C   0  0  0  0  0  0  0  0  0  0  0  0
   41.4480   32.0990   44.4690 H   0  0  0  0  0  0  0  0  0  0  0  0
   40.2760   30.8480   44.8420 H   0  0  0  0  0  0  0  0  0  0  0  0
   39.8750   31.9670   43.1830 N   0  0  0  0  0  0  0  0  0  0  0  0
   39.1670   33.1200   42.7970 C   0  0  0  0  0  0  0  0  0  0  0  0
   37.7520   32.9230   42.3930 C   0  0  0  0  0  0  0  0  0  0  0  0
   37.5570   31.7590   41.6470 O   0  0  0  0  0  0  0  0  0  0  0  0
   38.0290   30.6680   42.3000 C   0  0  0  0  0  0  0  0  0  0  0  0
   39.4960   30.7720   42.5750 C   0  0  1  0  0  0  0  0  0  0  0  0
   39.3190   34.0560   43.3350 H   0  0  0  0  0  0  0  0  0  0  0  0
   39.7210   33.3680   41.8560 H   0  0  0  0  0  0  0  0  0  0  0  0
   37.6010   33.6890   41.5350 H   0  0  0  0  0  0  0  0  0  0  0  0
   36.9520   33.2630   43.0170 H   0  0  0  0  0  0  0  0  0  0  0  0
   37.9970   29.8850   41.4930 H   0  0  0  0  0  0  0  0  0  0  0  0
   37.4060   30.1970   43.0520 H   0  0  0  0  0  0  0  0  0  0  0  0
   39.6290   29.9880   43.4180 H   0  0  0  0  0  0  0  0  0  0  0  0
   39.2170   32.3210   39.8970 Br  0  0  0  0  0  0  0  0  0  0  0  0
   40.4010   30.8320   40.2300 C   0  0  0  0  0  0  0  0  0  0  0  0
   40.3760   30.2620   41.5140 C   0  0  0  0  0  0  0  0  0  0  0  0
   41.2700   29.2200   41.5890 C   0  0  0  0  0  0  0  0  0  0  0  0
   41.3740   28.6820   42.5150 H   0  0  0  0  0  0  0  0  0  0  0  0
   42.0900   28.7640   40.5860 C   0  0  0  0  0  0  0  0  0  0  0  0
   42.7680   27.9380   40.7180 H   0  0  0  0  0  0  0  0  0  0  0  0
   42.0370   29.3930   39.3620 C   0  0  0  0  0  3  0  0  0  0  0  0
   41.1800   30.4510   39.1610 C   0  0  0  0  0  3  0  0  0  0  0  0
   39.6910   32.7430   45.5140 C   0  0  0  0  0  0  0  0  0  0  0  0
   40.4940   33.0400   46.2670 H   0  0  0  0  0  0  0  0  0  0  0  0
   39.1940   33.6790   45.3180 H   0  0  0  0  0  0  0  0  0  0  0  0
   37.6740   31.0060   47.9190 C   0  0  0  0  0  0  0  0  0  0  0  0
   36.9480   30.7750   46.7660 C   0  0  0  0  0  0  0  0  0  0  0  0
   37.6300   31.4050   45.7200 C   0  0  0  0  0  0  0  0  0  0  0  0
   38.7060   31.9710   46.2650 N   0  0  0  0  0  0  0  0  0  0  0  0
   38.7320   31.7320   47.5820 N   0  0  0  0  0  0  0  0  0  0  0  0
   36.0050   30.1990   46.6970 H   0  0  0  0  0  0  0  0  0  0  0  0
   37.2070   31.3180   44.7880 H   0  0  0  0  0  0  0  0  0  0  0  0
   37.4600   30.1650   51.5690 C   0  0  0  0  0  0  0  0  0  0  0  0
   37.9470   30.6960   50.3950 C   0  0  0  0  0  0  0  0  0  0  0  0
   37.2620   30.4980   49.2040 C   0  0  0  0  0  0  0  0  0  0  0  0
   36.1260   29.7690   49.3120 N   0  0  0  0  0  0  0  0  0  0  0  0
   35.6570   29.2520   50.4750 C   0  0  0  0  0  0  0  0  0  0  0  0
   36.3400   29.4620   51.5880 N   0  0  0  0  0  0  0  0  0  0  0  0
   38.1060   30.4040   52.4170 H   0  0  0  0  0  0  0  0  0  0  0  0
   38.8610   31.2830   50.3050 H   0  0  0  0  0  0  0  0  0  0  0  0
   34.7370   28.6750   50.4910 H   0  0  0  0  0  0  0  0  0  0  0  0
  1  3  1  0  0  0  0
  1 26  1  0  0  0  0
  2  1  1  0  0  0  0
  4  1  1  0  0  0  0
  5  4  1  0  0  0  0
  5 10  1  0  0  0  0
  6  5  1  0  0  0  0
  6 13  1  0  0  0  0
  7  8  1  0  0  0  0
  7  6  1  0  0  0  0
  8  9  1  0  0  0  0
  8 15  1  0  0  0  0
  9  4  1  0  0  0  0
  9 16  1  1  0  0  0
 11  5  1  0  0  0  0
 12  6  1  0  0  0  0
 14  8  1  0  0  0  0
 17 18  1  0  0  0  0
 18 19  1  0  0  0  0
 19 20  2  0  0  0  0
 19  9  1  0  0  0  0
 20 21  1  0  0  0  0
 22 23  1  0  0  0  0
 22 20  1  0  0  0  0
 24 22  2  0  0  0  0
 25 24  1  0  0  0  0
 25 18  2  0  0  0  0
 26 32  1  0  0  0  0
 26 27  1  0  0  0  0
 28 26  1  0  0  0  0
 29 38  1  0  0  0  0
 30 29  1  0  0  0  0
 31 32  1  0  0  0  0
 31 30  2  0  0  0  0
 32 33  1  0  0  0  0
 33 29  2  0  0  0  0
 34 30  1  0  0  0  0
 35 31  1  0  0  0  0
 36 41  1  0  0  0  0
 36 42  1  0  0  0  0
 37 36  2  0  0  0  0
 38 39  2  0  0  0  0
 38 37  1  0  0  0  0
 39 40  1  0  0  0  0
 40 44  1  0  0  0  0
 40 41  2  0  0  0  0
 43 37  1  0  0  0  0
M  END
>  <minimizedAffinity>
-5.71710682

>  <minimizedRMSD>
0.940160453

$$$$
