
 OpenBabel03272508463D

 27 29  0  0  0  0  0  0  0  0999 V2000
   36.5540   28.6740   32.8020 C   0  0  0  0  0  0  0  0  0  0  0  0
   36.2710   29.6920   31.9120 C   0  0  0  0  0  0  0  0  0  0  0  0
   35.5530   30.5870   32.7110 C   0  0  0  0  0  0  0  0  0  0  0  0
   35.4360   30.1020   33.9900 C   0  0  0  0  0  0  0  0  0  0  0  0
   36.0530   28.9400   34.0160 O   0  0  0  0  0  0  0  0  0  0  0  0
   36.5620   29.7170   30.8800 H   0  0  0  0  0  0  0  0  0  0  0  0
   35.1620   31.5340   32.3130 H   0  0  0  0  0  0  0  0  0  0  0  0
   32.4240   29.3870   34.1830 Br  0  0  0  0  0  0  0  0  0  0  0  0
   33.4140   30.5180   35.3240 C   0  0  0  0  0  0  0  0  0  0  0  0
   34.7590   30.7430   35.1120 C   0  0  0  0  0  0  0  0  0  0  0  0
   35.4770   31.5710   35.9510 C   0  0  0  0  0  0  0  0  0  0  0  0
   36.5300   31.7560   35.7960 H   0  0  0  0  0  0  0  0  0  0  0  0
   34.8510   32.1850   37.0170 C   0  0  0  0  0  0  0  0  0  0  0  0
   35.4300   32.8180   37.6480 H   0  0  0  0  0  0  0  0  0  0  0  0
   33.5070   31.9410   37.2050 C   0  0  0  0  0  3  0  0  0  0  0  0
   32.7410   31.1090   36.3800 C   0  0  0  0  0  3  0  0  0  0  0  0
   37.3030   27.4580   32.4810 C   0  0  0  0  0  0  0  0  0  0  0  0
   38.5560   27.5000   32.6180 O   0  0  0  0  0  0  0  0  0  0  0  0
   36.5260   23.9510   31.9780 C   0  0  0  0  0  0  0  0  0  0  0  0
   35.3710   23.9710   31.2050 C   0  0  0  0  0  0  0  0  0  0  0  0
   34.8410   25.2120   30.8450 C   0  0  0  0  0  0  0  0  0  0  0  0
   35.4960   26.3120   31.2770 N   0  0  0  0  0  0  0  0  0  0  0  0
   36.6130   26.2620   32.0250 C   0  0  0  0  0  0  0  0  0  0  0  0
   37.1230   25.0710   32.3730 N   0  0  0  0  0  0  0  0  0  0  0  0
   36.8790   22.9560   32.2200 H   0  0  0  0  0  0  0  0  0  0  0  0
   34.8030   23.1330   30.8300 H   0  0  0  0  0  0  0  0  0  0  0  0
   33.9710   25.4290   30.2620 H   0  0  0  0  0  0  0  0  0  0  0  0
  1  5  1  0  0  0  0
  2  3  1  0  0  0  0
  2  1  2  0  0  0  0
  3  4  2  0  0  0  0
  4  5  1  0  0  0  0
  4 10  1  0  0  0  0
  6  2  1  0  0  0  0
  7  3  1  0  0  0  0
  8  9  1  0  0  0  0
  9 16  1  0  0  0  0
 10  9  2  0  0  0  0
 10 11  1  0  0  0  0
 11 13  2  0  0  0  0
 12 11  1  0  0  0  0
 13 15  1  0  0  0  0
 13 14  1  0  0  0  0
 16 15  2  0  0  0  0
 17 18  2  0  0  0  0
 17  1  1  0  0  0  0
 19 25  1  0  0  0  0
 19 24  1  0  0  0  0
 20 19  2  0  0  0  0
 21 20  1  0  0  0  0
 21 22  2  0  0  0  0
 22 23  1  0  0  0  0
 23 24  2  0  0  0  0
 23 17  1  0  0  0  0
 26 20  1  0  0  0  0
 27 21  1  0  0  0  0
M  END
>  <minimizedAffinity>
-5.50690269

$$$$

 OpenBabel03272508463D

 27 29  0  0  0  0  0  0  0  0999 V2000
   38.1450   25.5180   35.8220 C   0  0  0  0  0  0  0  0  0  0  0  0
   38.3560   26.7320   36.4480 C   0  0  0  0  0  0  0  0  0  0  0  0
   38.0830   27.6410   35.4220 C   0  0  0  0  0  0  0  0  0  0  0  0
   37.7340   26.9770   34.2720 C   0  0  0  0  0  0  0  0  0  0  0  0
   37.7810   25.6910   34.5440 O   0  0  0  0  0  0  0  0  0  0  0  0
   38.6550   26.8630   37.4700 H   0  0  0  0  0  0  0  0  0  0  0  0
   38.1540   28.7270   35.5750 H   0  0  0  0  0  0  0  0  0  0  0  0
   40.0130   26.8340   32.1730 Br  0  0  0  0  0  0  0  0  0  0  0  0
   38.2940   27.5830   31.9570 C   0  0  0  0  0  0  0  0  0  0  0  0
   37.3790   27.5740   32.9890 C   0  0  0  0  0  0  0  0  0  0  0  0
   36.1240   28.1240   32.8240 C   0  0  0  0  0  0  0  0  0  0  0  0
   35.3970   28.1230   33.6230 H   0  0  0  0  0  0  0  0  0  0  0  0
   35.7720   28.6920   31.6160 C   0  0  0  0  0  0  0  0  0  0  0  0
   34.7970   29.1090   31.5170 H   0  0  0  0  0  0  0  0  0  0  0  0
   36.7070   28.6870   30.6030 C   0  0  0  0  0  3  0  0  0  0  0  0
   37.9900   28.1400   30.7270 C   0  0  0  0  0  3  0  0  0  0  0  0
   38.2950   24.2070   36.4540 C   0  0  0  0  0  0  0  0  0  0  0  0
   37.2640   23.6930   36.9660 O   0  0  0  0  0  0  0  0  0  0  0  0
   40.9520   21.9520   37.4640 C   0  0  0  0  0  0  0  0  0  0  0  0
   41.9900   22.2430   36.5870 C   0  0  0  0  0  0  0  0  0  0  0  0
   41.7810   23.2340   35.6240 C   0  0  0  0  0  0  0  0  0  0  0  0
   40.5740   23.8420   35.6170 N   0  0  0  0  0  0  0  0  0  0  0  0
   39.5870   23.5400   36.4790 C   0  0  0  0  0  0  0  0  0  0  0  0
   39.7860   22.5880   37.4040 N   0  0  0  0  0  0  0  0  0  0  0  0
   41.1840   21.1760   38.1810 H   0  0  0  0  0  0  0  0  0  0  0  0
   42.9720   21.7960   36.5410 H   0  0  0  0  0  0  0  0  0  0  0  0
   42.4500   23.5930   34.8710 H   0  0  0  0  0  0  0  0  0  0  0  0
  1  2  2  0  0  0  0
  1 17  1  0  0  0  0
  2  6  1  0  0  0  0
  3  7  1  0  0  0  0
  3  2  1  0  0  0  0
  4  5  1  0  0  0  0
  4  3  2  0  0  0  0
  5  1  1  0  0  0  0
  9  8  1  0  0  0  0
  9 10  1  0  0  0  0
 10  4  1  0  0  0  0
 11 10  2  0  0  0  0
 11 12  1  0  0  0  0
 13 11  1  0  0  0  0
 14 13  1  0  0  0  0
 15 16  1  0  0  0  0
 15 13  2  0  0  0  0
 16  9  2  0  0  0  0
 17 23  1  0  0  0  0
 17 18  2  0  0  0  0
 19 25  1  0  0  0  0
 20 19  2  0  0  0  0
 21 20  1  0  0  0  0
 22 21  2  0  0  0  0
 22 23  1  0  0  0  0
 23 24  2  0  0  0  0
 24 19  1  0  0  0  0
 26 20  1  0  0  0  0
 27 21  1  0  0  0  0
M  END
>  <minimizedAffinity>
-5.41593361

$$$$

 OpenBabel03272508463D

 27 29  0  0  0  0  0  0  0  0999 V2000
   36.2260   28.6350   32.9310 C   0  0  0  0  0  0  0  0  0  0  0  0
   35.9580   29.7030   32.0980 C   0  0  0  0  0  0  0  0  0  0  0  0
   35.0920   30.4740   32.8810 C   0  0  0  0  0  0  0  0  0  0  0  0
   34.8810   29.8730   34.0960 C   0  0  0  0  0  0  0  0  0  0  0  0
   35.5810   28.7590   34.1000 O   0  0  0  0  0  0  0  0  0  0  0  0
   36.3520   29.8370   31.1100 H   0  0  0  0  0  0  0  0  0  0  0  0
   34.6720   31.4220   32.5170 H   0  0  0  0  0  0  0  0  0  0  0  0
   36.1980   32.1580   35.7270 Br  0  0  0  0  0  0  0  0  0  0  0  0
   34.4980   31.3840   35.9960 C   0  0  0  0  0  0  0  0  0  0  0  0
   34.0430   30.3660   35.1830 C   0  0  0  0  0  0  0  0  0  0  0  0
   32.7980   29.8060   35.3860 C   0  0  0  0  0  0  0  0  0  0  0  0
   32.4290   29.0080   34.7570 H   0  0  0  0  0  0  0  0  0  0  0  0
   31.9920   30.2610   36.4100 C   0  0  0  0  0  0  0  0  0  0  0  0
   31.0370   29.8100   36.5430 H   0  0  0  0  0  0  0  0  0  0  0  0
   32.4740   31.2800   37.2060 C   0  0  0  0  0  3  0  0  0  0  0  0
   33.7280   31.8770   37.0360 C   0  0  0  0  0  3  0  0  0  0  0  0
   37.0970   27.5060   32.6010 C   0  0  0  0  0  0  0  0  0  0  0  0
   38.3360   27.6650   32.7730 O   0  0  0  0  0  0  0  0  0  0  0  0
   36.6540   23.9520   32.0240 C   0  0  0  0  0  0  0  0  0  0  0  0
   35.5430   23.8830   31.1920 C   0  0  0  0  0  0  0  0  0  0  0  0
   34.9260   25.0790   30.8170 C   0  0  0  0  0  0  0  0  0  0  0  0
   35.4600   26.2250   31.2940 N   0  0  0  0  0  0  0  0  0  0  0  0
   36.5380   26.2610   32.0980 C   0  0  0  0  0  0  0  0  0  0  0  0
   37.1310   25.1140   32.4600 N   0  0  0  0  0  0  0  0  0  0  0  0
   37.0800   22.9880   32.2730 H   0  0  0  0  0  0  0  0  0  0  0  0
   35.0700   23.0040   30.7790 H   0  0  0  0  0  0  0  0  0  0  0  0
   34.0710   25.2290   30.1920 H   0  0  0  0  0  0  0  0  0  0  0  0
  1  5  1  0  0  0  0
  2  3  1  0  0  0  0
  2  1  2  0  0  0  0
  3  4  2  0  0  0  0
  4  5  1  0  0  0  0
  4 10  1  0  0  0  0
  6  2  1  0  0  0  0
  7  3  1  0  0  0  0
  8  9  1  0  0  0  0
  9 16  1  0  0  0  0
 10 11  1  0  0  0  0
 10  9  2  0  0  0  0
 11 13  2  0  0  0  0
 12 11  1  0  0  0  0
 13 14  1  0  0  0  0
 13 15  1  0  0  0  0
 16 15  2  0  0  0  0
 17 18  2  0  0  0  0
 17  1  1  0  0  0  0
 19 25  1  0  0  0  0
 19 24  1  0  0  0  0
 20 19  2  0  0  0  0
 21 20  1  0  0  0  0
 21 22  2  0  0  0  0
 22 23  1  0  0  0  0
 23 24  2  0  0  0  0
 23 17  1  0  0  0  0
 26 20  1  0  0  0  0
 27 21  1  0  0  0  0
M  END
>  <minimizedAffinity>
-5.39716244

$$$$

 OpenBabel03272508463D

 27 29  0  0  0  0  0  0  0  0999 V2000
   37.6880   24.0340   32.6720 C   0  0  0  0  0  0  0  0  0  0  0  0
   38.2690   25.2860   32.7290 C   0  0  0  0  0  0  0  0  0  0  0  0
   38.6710   25.3610   34.0660 C   0  0  0  0  0  0  0  0  0  0  0  0
   38.3360   24.2100   34.7330 C   0  0  0  0  0  0  0  0  0  0  0  0
   37.7410   23.4220   33.8630 O   0  0  0  0  0  0  0  0  0  0  0  0
   38.3520   25.9730   31.9090 H   0  0  0  0  0  0  0  0  0  0  0  0
   39.1820   26.2470   34.4680 H   0  0  0  0  0  0  0  0  0  0  0  0
   40.8020   22.3820   35.1770 Br  0  0  0  0  0  0  0  0  0  0  0  0
   39.6520   23.1030   36.4890 C   0  0  0  0  0  0  0  0  0  0  0  0
   38.5870   23.9070   36.1380 C   0  0  0  0  0  0  0  0  0  0  0  0
   37.7510   24.4310   37.1030 C   0  0  0  0  0  0  0  0  0  0  0  0
   36.9130   25.0610   36.8410 H   0  0  0  0  0  0  0  0  0  0  0  0
   37.9740   24.1530   38.4360 C   0  0  0  0  0  0  0  0  0  0  0  0
   37.3130   24.5710   39.1580 H   0  0  0  0  0  0  0  0  0  0  0  0
   39.0470   23.3480   38.7570 C   0  0  0  0  0  3  0  0  0  0  0  0
   39.9200   22.7960   37.8120 C   0  0  0  0  0  3  0  0  0  0  0  0
   37.0890   23.4360   31.4780 C   0  0  0  0  0  0  0  0  0  0  0  0
   37.1160   24.1170   30.4170 O   0  0  0  0  0  0  0  0  0  0  0  0
   36.6450   19.8720   30.9700 C   0  0  0  0  0  0  0  0  0  0  0  0
   35.4350   19.5930   31.5940 C   0  0  0  0  0  0  0  0  0  0  0  0
   34.7510   20.6460   32.2060 C   0  0  0  0  0  0  0  0  0  0  0  0
   35.3200   21.8700   32.1450 N   0  0  0  0  0  0  0  0  0  0  0  0
   36.4930   22.1110   31.5320 C   0  0  0  0  0  0  0  0  0  0  0  0
   37.1530   21.1010   30.9450 N   0  0  0  0  0  0  0  0  0  0  0  0
   37.1190   19.0090   30.5180 H   0  0  0  0  0  0  0  0  0  0  0  0
   34.9300   18.6420   31.6780 H   0  0  0  0  0  0  0  0  0  0  0  0
   33.8190   20.6290   32.7300 H   0  0  0  0  0  0  0  0  0  0  0  0
  1  2  2  0  0  0  0
  1  5  1  0  0  0  0
  2  3  1  0  0  0  0
  3  7  1  0  0  0  0
  3  4  2  0  0  0  0
  4 10  1  0  0  0  0
  5  4  1  0  0  0  0
  6  2  1  0  0  0  0
  8  9  1  0  0  0  0
  9 16  1  0  0  0  0
 10  9  2  0  0  0  0
 10 11  1  0  0  0  0
 11 13  2  0  0  0  0
 12 11  1  0  0  0  0
 13 15  1  0  0  0  0
 13 14  1  0  0  0  0
 16 15  2  0  0  0  0
 17 23  1  0  0  0  0
 17  1  1  0  0  0  0
 18 17  2  0  0  0  0
 19 20  1  0  0  0  0
 20 26  1  0  0  0  0
 20 21  2  0  0  0  0
 21 27  1  0  0  0  0
 22 21  1  0  0  0  0
 23 22  2  0  0  0  0
 24 19  2  0  0  0  0
 24 23  1  0  0  0  0
 25 19  1  0  0  0  0
M  END
>  <minimizedAffinity>
-5.32615471

$$$$

 OpenBabel03272508463D

 27 29  0  0  0  0  0  0  0  0999 V2000
   37.2430   26.5450   33.7660 C   0  0  0  0  0  0  0  0  0  0  0  0
   37.5270   27.5830   34.6320 C   0  0  0  0  0  0  0  0  0  0  0  0
   38.1490   26.9170   35.6930 C   0  0  0  0  0  0  0  0  0  0  0  0
   38.2140   25.5690   35.4410 C   0  0  0  0  0  0  0  0  0  0  0  0
   37.6570   25.3720   34.2650 O   0  0  0  0  0  0  0  0  0  0  0  0
   37.2960   28.6170   34.4630 H   0  0  0  0  0  0  0  0  0  0  0  0
   38.5140   27.4540   36.5800 H   0  0  0  0  0  0  0  0  0  0  0  0
   40.8310   24.3400   34.3210 Br  0  0  0  0  0  0  0  0  0  0  0  0
   39.9550   23.9070   35.9350 C   0  0  0  0  0  0  0  0  0  0  0  0
   38.7880   24.5440   36.3040 C   0  0  0  0  0  0  0  0  0  0  0  0
   38.1530   24.2220   37.4870 C   0  0  0  0  0  0  0  0  0  0  0  0
   37.2390   24.7120   37.7880 H   0  0  0  0  0  0  0  0  0  0  0  0
   38.6840   23.2530   38.3150 C   0  0  0  0  0  0  0  0  0  0  0  0
   38.1720   23.0250   39.2210 H   0  0  0  0  0  0  0  0  0  0  0  0
   39.8510   22.6340   37.9200 C   0  0  0  0  0  3  0  0  0  0  0  0
   40.5280   22.9290   36.7310 C   0  0  0  0  0  3  0  0  0  0  0  0
   36.5790   26.6870   32.4690 C   0  0  0  0  0  0  0  0  0  0  0  0
   36.1860   25.6300   31.9050 O   0  0  0  0  0  0  0  0  0  0  0  0
   35.0910   29.9080   31.7160 C   0  0  0  0  0  0  0  0  0  0  0  0
   35.9650   30.4750   30.7970 C   0  0  0  0  0  0  0  0  0  0  0  0
   37.0930   29.7420   30.4230 C   0  0  0  0  0  0  0  0  0  0  0  0
   37.2530   28.5240   30.9860 N   0  0  0  0  0  0  0  0  0  0  0  0
   36.3880   28.0000   31.8740 C   0  0  0  0  0  0  0  0  0  0  0  0
   35.3050   28.7030   32.2360 N   0  0  0  0  0  0  0  0  0  0  0  0
   34.2400   30.5320   31.9590 H   0  0  0  0  0  0  0  0  0  0  0  0
   35.8950   31.4380   30.3130 H   0  0  0  0  0  0  0  0  0  0  0  0
   37.8720   30.0060   29.7390 H   0  0  0  0  0  0  0  0  0  0  0  0
  1  5  1  0  0  0  0
  1  2  2  0  0  0  0
  2  3  1  0  0  0  0
  3  7  1  0  0  0  0
  4  3  2  0  0  0  0
  4 10  1  0  0  0  0
  5  4  1  0  0  0  0
  6  2  1  0  0  0  0
  8  9  1  0  0  0  0
  9 10  2  0  0  0  0
  9 16  1  0  0  0  0
 10 11  1  0  0  0  0
 11 12  1  0  0  0  0
 11 13  2  0  0  0  0
 13 14  1  0  0  0  0
 15 13  1  0  0  0  0
 16 15  2  0  0  0  0
 17  1  1  0  0  0  0
 18 17  2  0  0  0  0
 19 25  1  0  0  0  0
 19 24  1  0  0  0  0
 20 19  2  0  0  0  0
 21 20  1  0  0  0  0
 21 22  2  0  0  0  0
 22 23  1  0  0  0  0
 23 24  2  0  0  0  0
 23 17  1  0  0  0  0
 26 20  1  0  0  0  0
 27 21  1  0  0  0  0
M  END
>  <minimizedAffinity>
-5.3225131

$$$$

 OpenBabel03272508463D

 27 29  0  0  0  0  0  0  0  0999 V2000
   38.5560   25.2630   34.0070 C   0  0  0  0  0  0  0  0  0  0  0  0
   39.6890   26.0200   34.2310 C   0  0  0  0  0  0  0  0  0  0  0  0
   39.4640   27.1320   33.4130 C   0  0  0  0  0  0  0  0  0  0  0  0
   38.2640   27.0110   32.7580 C   0  0  0  0  0  0  0  0  0  0  0  0
   37.7340   25.8690   33.1380 O   0  0  0  0  0  0  0  0  0  0  0  0
   40.4980   25.7550   34.8840 H   0  0  0  0  0  0  0  0  0  0  0  0
   40.1860   27.9580   33.3450 H   0  0  0  0  0  0  0  0  0  0  0  0
   35.9980   28.7280   33.9980 Br  0  0  0  0  0  0  0  0  0  0  0  0
   36.6570   28.7950   32.2310 C   0  0  0  0  0  0  0  0  0  0  0  0
   37.6780   27.9620   31.8200 C   0  0  0  0  0  0  0  0  0  0  0  0
   38.1550   28.0170   30.5260 C   0  0  0  0  0  0  0  0  0  0  0  0
   38.9530   27.3710   30.1910 H   0  0  0  0  0  0  0  0  0  0  0  0
   37.6110   28.9120   29.6260 C   0  0  0  0  0  0  0  0  0  0  0  0
   37.9990   28.9320   28.6350 H   0  0  0  0  0  0  0  0  0  0  0  0
   36.5930   29.7320   30.0650 C   0  0  0  0  0  3  0  0  0  0  0  0
   36.0790   29.7100   31.3670 C   0  0  0  0  0  3  0  0  0  0  0  0
   38.2710   23.9690   34.6280 C   0  0  0  0  0  0  0  0  0  0  0  0
   37.8350   23.0540   33.8780 O   0  0  0  0  0  0  0  0  0  0  0  0
   39.7720   22.8020   37.7170 C   0  0  0  0  0  0  0  0  0  0  0  0
   38.9610   23.3410   38.7080 C   0  0  0  0  0  0  0  0  0  0  0  0
   37.8730   24.1240   38.3160 C   0  0  0  0  0  0  0  0  0  0  0  0
   37.6870   24.3010   36.9900 N   0  0  0  0  0  0  0  0  0  0  0  0
   38.4890   23.7660   36.0510 C   0  0  0  0  0  0  0  0  0  0  0  0
   39.5350   23.0140   36.4260 N   0  0  0  0  0  0  0  0  0  0  0  0
   40.5940   22.2070   38.0940 H   0  0  0  0  0  0  0  0  0  0  0  0
   39.0560   23.2380   39.7800 H   0  0  0  0  0  0  0  0  0  0  0  0
   37.1450   24.6190   38.9240 H   0  0  0  0  0  0  0  0  0  0  0  0
  1  2  2  0  0  0  0
  1 17  1  0  0  0  0
  2  6  1  0  0  0  0
  3  2  1  0  0  0  0
  4  5  1  0  0  0  0
  4  3  2  0  0  0  0
  5  1  1  0  0  0  0
  7  3  1  0  0  0  0
  9  8  1  0  0  0  0
 10  9  1  0  0  0  0
 10  4  1  0  0  0  0
 11 10  2  0  0  0  0
 12 11  1  0  0  0  0
 13 15  2  0  0  0  0
 13 11  1  0  0  0  0
 14 13  1  0  0  0  0
 15 16  1  0  0  0  0
 16  9  2  0  0  0  0
 17 23  1  0  0  0  0
 18 17  2  0  0  0  0
 19 25  1  0  0  0  0
 19 20  1  0  0  0  0
 20 26  1  0  0  0  0
 21 20  2  0  0  0  0
 21 27  1  0  0  0  0
 22 21  1  0  0  0  0
 23 24  1  0  0  0  0
 23 22  2  0  0  0  0
 24 19  2  0  0  0  0
M  END
>  <minimizedAffinity>
-5.22862816

$$$$

 OpenBabel03272508463D

 27 29  0  0  0  0  0  0  0  0999 V2000
   36.3140   28.5650   33.1030 C   0  0  0  0  0  0  0  0  0  0  0  0
   36.0050   29.5040   32.1380 C   0  0  0  0  0  0  0  0  0  0  0  0
   35.3370   30.4810   32.8850 C   0  0  0  0  0  0  0  0  0  0  0  0
   35.2720   30.1130   34.2060 C   0  0  0  0  0  0  0  0  0  0  0  0
   35.8720   28.9470   34.3090 O   0  0  0  0  0  0  0  0  0  0  0  0
   36.2490   29.4320   31.0960 H   0  0  0  0  0  0  0  0  0  0  0  0
   34.9420   31.3950   32.4210 H   0  0  0  0  0  0  0  0  0  0  0  0
   32.2990   29.3740   34.6850 Br  0  0  0  0  0  0  0  0  0  0  0  0
   33.3350   30.6420   35.6230 C   0  0  0  0  0  0  0  0  0  0  0  0
   34.6560   30.8640   35.2940 C   0  0  0  0  0  0  0  0  0  0  0  0
   35.4080   31.7930   35.9850 C   0  0  0  0  0  0  0  0  0  0  0  0
   36.4440   31.9770   35.7370 H   0  0  0  0  0  0  0  0  0  0  0  0
   34.8410   32.5120   37.0170 C   0  0  0  0  0  0  0  0  0  0  0  0
   35.4440   33.2220   37.5320 H   0  0  0  0  0  0  0  0  0  0  0  0
   33.5180   32.2680   37.3240 C   0  0  0  0  0  3  0  0  0  0  0  0
   32.7190   31.3360   36.6510 C   0  0  0  0  0  3  0  0  0  0  0  0
   37.0300   27.3120   32.8600 C   0  0  0  0  0  0  0  0  0  0  0  0
   36.4070   26.4020   32.2480 O   0  0  0  0  0  0  0  0  0  0  0  0
   40.6470   27.0590   32.7640 C   0  0  0  0  0  0  0  0  0  0  0  0
   41.0030   26.8330   34.0890 C   0  0  0  0  0  0  0  0  0  0  0  0
   39.9840   26.7660   35.0420 C   0  0  0  0  0  0  0  0  0  0  0  0
   38.7160   26.9250   34.6020 N   0  0  0  0  0  0  0  0  0  0  0  0
   38.4020   27.1420   33.3120 C   0  0  0  0  0  0  0  0  0  0  0  0
   39.3790   27.2080   32.3950 N   0  0  0  0  0  0  0  0  0  0  0  0
   41.4870   27.0990   32.0820 H   0  0  0  0  0  0  0  0  0  0  0  0
   41.9910   26.6980   34.5020 H   0  0  0  0  0  0  0  0  0  0  0  0
   40.0580   26.6020   36.0960 H   0  0  0  0  0  0  0  0  0  0  0  0
  1  5  1  0  0  0  0
  2  3  1  0  0  0  0
  2  1  2  0  0  0  0
  3  4  2  0  0  0  0
  4  5  1  0  0  0  0
  4 10  1  0  0  0  0
  6  2  1  0  0  0  0
  7  3  1  0  0  0  0
  8  9  1  0  0  0  0
  9 16  1  0  0  0  0
 10  9  2  0  0  0  0
 10 11  1  0  0  0  0
 11 13  2  0  0  0  0
 12 11  1  0  0  0  0
 13 15  1  0  0  0  0
 13 14  1  0  0  0  0
 16 15  2  0  0  0  0
 17  1  1  0  0  0  0
 17 23  1  0  0  0  0
 18 17  2  0  0  0  0
 19 20  1  0  0  0  0
 20 26  1  0  0  0  0
 20 21  2  0  0  0  0
 21 27  1  0  0  0  0
 22 21  1  0  0  0  0
 23 22  2  0  0  0  0
 24 19  2  0  0  0  0
 24 23  1  0  0  0  0
 25 19  1  0  0  0  0
M  END
>  <minimizedAffinity>
-5.22473574

$$$$

 OpenBabel03272508463D

 27 29  0  0  0  0  0  0  0  0999 V2000
   36.4490   25.9150   32.1620 C   0  0  0  0  0  0  0  0  0  0  0  0
   35.5220   25.9910   31.1410 C   0  0  0  0  0  0  0  0  0  0  0  0
   35.2980   24.6420   30.8480 C   0  0  0  0  0  0  0  0  0  0  0  0
   36.0590   23.8420   31.6620 C   0  0  0  0  0  0  0  0  0  0  0  0
   36.7470   24.6400   32.4490 O   0  0  0  0  0  0  0  0  0  0  0  0
   35.1220   26.8970   30.7280 H   0  0  0  0  0  0  0  0  0  0  0  0
   34.5960   24.3290   30.0620 H   0  0  0  0  0  0  0  0  0  0  0  0
   38.5890   22.6870   30.2890 Br  0  0  0  0  0  0  0  0  0  0  0  0
   37.1730   21.7280   31.0860 C   0  0  0  0  0  0  0  0  0  0  0  0
   36.1050   22.3840   31.6620 C   0  0  0  0  0  0  0  0  0  0  0  0
   35.0720   21.6750   32.2430 C   0  0  0  0  0  0  0  0  0  0  0  0
   34.2300   22.1760   32.6980 H   0  0  0  0  0  0  0  0  0  0  0  0
   35.1000   20.2950   32.2520 C   0  0  0  0  0  0  0  0  0  0  0  0
   34.2900   19.7750   32.7070 H   0  0  0  0  0  0  0  0  0  0  0  0
   36.1800   19.6670   31.6690 C   0  0  0  0  0  3  0  0  0  0  0  0
   37.2480   20.3450   31.0690 C   0  0  0  0  0  3  0  0  0  0  0  0
   37.0380   27.0620   32.8530 C   0  0  0  0  0  0  0  0  0  0  0  0
   36.2980   28.0660   33.0390 O   0  0  0  0  0  0  0  0  0  0  0  0
   40.6630   27.1660   32.7420 C   0  0  0  0  0  0  0  0  0  0  0  0
   41.0450   26.9740   34.0640 C   0  0  0  0  0  0  0  0  0  0  0  0
   40.0420   26.8060   35.0210 C   0  0  0  0  0  0  0  0  0  0  0  0
   38.7620   26.8410   34.5870 N   0  0  0  0  0  0  0  0  0  0  0  0
   38.4220   27.0280   33.2990 C   0  0  0  0  0  0  0  0  0  0  0  0
   39.3840   27.1900   32.3780 N   0  0  0  0  0  0  0  0  0  0  0  0
   41.4920   27.2890   32.0560 H   0  0  0  0  0  0  0  0  0  0  0  0
   42.0440   26.9370   34.4730 H   0  0  0  0  0  0  0  0  0  0  0  0
   40.1360   26.6500   36.0750 H   0  0  0  0  0  0  0  0  0  0  0  0
  1  5  1  0  0  0  0
  1 17  1  0  0  0  0
  2  1  2  0  0  0  0
  3  2  1  0  0  0  0
  3  4  2  0  0  0  0
  4  5  1  0  0  0  0
  6  2  1  0  0  0  0
  7  3  1  0  0  0  0
  8  9  1  0  0  0  0
  9 10  1  0  0  0  0
 10  4  1  0  0  0  0
 10 11  2  0  0  0  0
 11 13  1  0  0  0  0
 11 12  1  0  0  0  0
 13 14  1  0  0  0  0
 15 13  2  0  0  0  0
 16  9  2  0  0  0  0
 16 15  1  0  0  0  0
 17 18  2  0  0  0  0
 17 23  1  0  0  0  0
 19 20  1  0  0  0  0
 20 26  1  0  0  0  0
 20 21  2  0  0  0  0
 21 27  1  0  0  0  0
 22 21  1  0  0  0  0
 23 22  2  0  0  0  0
 24 19  2  0  0  0  0
 24 23  1  0  0  0  0
 25 19  1  0  0  0  0
M  END
>  <minimizedAffinity>
-5.16014767

$$$$

 OpenBabel03272508463D

 27 29  0  0  0  0  0  0  0  0999 V2000
   37.9460   24.4360   33.6800 C   0  0  0  0  0  0  0  0  0  0  0  0
   37.2780   25.1540   32.7070 C   0  0  0  0  0  0  0  0  0  0  0  0
   36.6470   24.1400   31.9780 C   0  0  0  0  0  0  0  0  0  0  0  0
   36.9430   22.9100   32.5110 C   0  0  0  0  0  0  0  0  0  0  0  0
   37.7320   23.1200   33.5420 O   0  0  0  0  0  0  0  0  0  0  0  0
   37.2880   26.2210   32.6010 H   0  0  0  0  0  0  0  0  0  0  0  0
   36.0130   24.3610   31.1080 H   0  0  0  0  0  0  0  0  0  0  0  0
   38.8430   21.6050   30.4380 Br  0  0  0  0  0  0  0  0  0  0  0  0
   37.2200   20.9130   31.1060 C   0  0  0  0  0  0  0  0  0  0  0  0
   36.4760   21.6140   32.0330 C   0  0  0  0  0  0  0  0  0  0  0  0
   35.2900   21.1010   32.5180 C   0  0  0  0  0  0  0  0  0  0  0  0
   34.6970   21.6390   33.2440 H   0  0  0  0  0  0  0  0  0  0  0  0
   34.8340   19.8750   32.0760 C   0  0  0  0  0  0  0  0  0  0  0  0
   33.9160   19.5050   32.4680 H   0  0  0  0  0  0  0  0  0  0  0  0
   35.5990   19.1980   31.1500 C   0  0  0  0  0  3  0  0  0  0  0  0
   36.8070   19.6790   30.6320 C   0  0  0  0  0  3  0  0  0  0  0  0
   38.7820   25.0180   34.7310 C   0  0  0  0  0  0  0  0  0  0  0  0
   39.4330   26.0580   34.4400 O   0  0  0  0  0  0  0  0  0  0  0  0
   37.9850   24.2860   38.1930 C   0  0  0  0  0  0  0  0  0  0  0  0
   38.9040   23.3060   38.5490 C   0  0  0  0  0  0  0  0  0  0  0  0
   39.8200   22.8810   37.5840 C   0  0  0  0  0  0  0  0  0  0  0  0
   39.7460   23.4600   36.3660 N   0  0  0  0  0  0  0  0  0  0  0  0
   38.8450   24.4080   36.0500 C   0  0  0  0  0  0  0  0  0  0  0  0
   37.9630   24.8160   36.9740 N   0  0  0  0  0  0  0  0  0  0  0  0
   37.3070   24.5660   38.9900 H   0  0  0  0  0  0  0  0  0  0  0  0
   39.0150   22.8070   39.5000 H   0  0  0  0  0  0  0  0  0  0  0  0
   40.5940   22.1470   37.6670 H   0  0  0  0  0  0  0  0  0  0  0  0
  1 17  1  0  0  0  0
  2  1  2  0  0  0  0
  3  4  2  0  0  0  0
  3  2  1  0  0  0  0
  4  5  1  0  0  0  0
  5  1  1  0  0  0  0
  6  2  1  0  0  0  0
  7  3  1  0  0  0  0
  8  9  1  0  0  0  0
  9 10  1  0  0  0  0
 10  4  1  0  0  0  0
 10 11  2  0  0  0  0
 11 12  1  0  0  0  0
 13 14  1  0  0  0  0
 13 11  1  0  0  0  0
 15 13  2  0  0  0  0
 16  9  2  0  0  0  0
 16 15  1  0  0  0  0
 17 23  1  0  0  0  0
 18 17  2  0  0  0  0
 19 20  1  0  0  0  0
 19 25  1  0  0  0  0
 20 26  1  0  0  0  0
 21 27  1  0  0  0  0
 21 20  2  0  0  0  0
 22 21  1  0  0  0  0
 23 22  2  0  0  0  0
 23 24  1  0  0  0  0
 24 19  2  0  0  0  0
M  END
>  <minimizedAffinity>
-5.14537144

$$$$
