
 OpenBabel03272510173D

 28 30  0  0  0  0  0  0  0  0999 V2000
   37.3190   29.3560   51.0990 Br  0  0  0  0  0  0  0  0  0  0  0  0
   35.9850   29.3070   49.7410 C   0  0  0  0  0  0  0  0  0  0  0  0
   36.0050   30.2000   48.6900 C   0  0  0  0  0  0  0  0  0  0  0  0
   35.0060   30.1190   47.7270 C   0  0  0  0  0  0  0  0  0  0  0  0
   33.9970   29.1640   47.8030 C   0  0  0  0  0  0  0  0  0  0  0  0
   34.0000   28.2900   48.8570 C   0  0  0  0  0  0  0  0  0  0  0  0
   34.9880   28.3660   49.8140 C   0  0  0  0  0  0  0  0  0  0  0  0
   35.0780   30.8460   46.9300 H   0  0  0  0  0  0  0  0  0  0  0  0
   33.2020   27.5590   48.8880 H   0  0  0  0  0  0  0  0  0  0  0  0
   34.9720   27.6660   50.6380 H   0  0  0  0  0  0  0  0  0  0  0  0
   37.9580   33.1860   49.4490 C   0  0  0  0  0  0  0  0  0  0  0  0
   38.9980   33.1720   48.4720 C   0  0  0  0  0  0  0  0  0  0  0  0
   38.9980   32.1150   47.5630 C   0  0  0  0  0  0  0  0  0  0  0  0
   38.0220   31.1560   47.6430 N   0  0  0  0  0  0  0  0  0  0  0  0
   37.0580   31.2160   48.5880 C   0  0  0  0  0  0  0  0  0  0  0  0
   37.0220   32.2310   49.4950 N   0  0  0  0  0  0  0  0  0  0  0  0
   37.9050   33.9720   50.1740 H   0  0  0  0  0  0  0  0  0  0  0  0
   39.7270   33.9610   48.4750 H   0  0  0  0  0  0  0  0  0  0  0  0
   39.7720   32.0710   46.8070 H   0  0  0  0  0  0  0  0  0  0  0  0
   31.3050   27.6060   48.2720 Br  0  0  0  0  0  0  0  0  0  0  0  0
   31.7890   28.5920   46.7250 C   0  0  0  0  0  0  0  0  0  0  0  0
   33.0220   29.2060   46.7190 C   0  0  0  0  0  0  0  0  0  0  0  0
   33.3690   29.9310   45.5750 C   0  0  0  0  0  0  0  0  0  0  0  0
   34.2990   30.4630   45.4260 H   0  0  0  0  0  0  0  0  0  0  0  0
   32.4780   30.0090   44.5010 C   0  0  0  0  0  0  0  0  0  0  0  0
   32.7110   30.5670   43.5870 H   0  0  0  0  0  0  0  0  0  0  0  0
   31.2500   29.3840   44.5370 C   0  0  0  0  0  3  0  0  0  0  0  0
   30.9140   28.6710   45.6690 C   0  0  0  0  0  3  0  0  0  0  0  0
  2  7  1  0  0  0  0
  2  1  1  0  0  0  0
  3  2  2  0  0  0  0
  4  5  2  0  0  0  0
  4  3  1  0  0  0  0
  5  6  1  0  0  0  0
  6  9  1  0  0  0  0
  6  7  2  0  0  0  0
  7 10  1  0  0  0  0
  8  4  1  0  0  0  0
 11 16  1  0  0  0  0
 11 17  1  0  0  0  0
 12 18  1  0  0  0  0
 12 11  2  0  0  0  0
 13 14  2  0  0  0  0
 13 12  1  0  0  0  0
 14 15  1  0  0  0  0
 15  3  1  0  0  0  0
 15 16  2  0  0  0  0
 19 13  1  0  0  0  0
 21 20  1  0  0  0  0
 22 21  1  0  0  0  0
 22  5  1  0  0  0  0
 23 22  2  0  0  0  0
 24 23  1  0  0  0  0
 25 27  2  0  0  0  0
 25 23  1  0  0  0  0
 26 25  1  0  0  0  0
 27 28  1  0  0  0  0
 28 21  2  0  0  0  0
M  END
>  <minimizedAffinity>
-6.17288494

>  <minimizedRMSD>
0.255968302

$$$$
