
 OpenBabel03272509533D

 43 46  0  0  0  0  0  0  0  0999 V2000
   34.4700   28.5220   48.1620 C   0  0  0  0  0  0  0  0  0  0  0  0
   33.8720   29.4540   48.2270 H   0  0  0  0  0  0  0  0  0  0  0  0
   35.2810   28.7030   47.4260 H   0  0  0  0  0  0  0  0  0  0  0  0
   33.5460   27.4160   47.7600 C   0  0  0  0  0  0  0  0  0  0  0  0
   33.6210   26.5080   48.3760 H   0  0  0  0  0  0  0  0  0  0  0  0
   33.7960   27.0820   46.7160 H   0  0  0  0  0  0  0  0  0  0  0  0
   32.1210   27.8450   47.7230 C   0  0  0  0  0  0  0  0  0  0  0  0
   31.3240   27.5700   48.8190 C   0  0  0  0  0  0  0  0  0  0  0  0
   30.0100   27.9300   48.8610 C   0  0  0  0  0  0  0  0  0  0  0  0
   29.4710   28.5590   47.8370 N   0  0  0  0  0  0  0  0  0  0  0  0
   30.2470   28.8380   46.7470 C   0  0  0  0  0  0  0  0  0  0  0  0
   31.5570   28.4950   46.6710 N   0  0  0  0  0  0  0  0  0  0  0  0
   31.7580   27.0540   49.6640 H   0  0  0  0  0  0  0  0  0  0  0  0
   29.4170   27.6900   49.7530 H   0  0  0  0  0  0  0  0  0  0  0  0
   32.1240   31.0690   45.7000 Br  0  0  0  0  0  0  0  0  0  0  0  0
   30.4040   30.5740   45.0080 C   0  0  0  0  0  0  0  0  0  0  0  0
   29.6730   29.5360   45.5950 C   0  0  0  0  0  0  0  0  0  0  0  0
   28.4440   29.2100   45.0710 C   0  0  0  0  0  0  0  0  0  0  0  0
   27.8630   28.4130   45.5110 H   0  0  0  0  0  0  0  0  0  0  0  0
   27.9060   29.8680   43.9870 C   0  0  0  0  0  0  0  0  0  0  0  0
   26.9470   29.6060   43.5870 H   0  0  0  0  0  0  0  0  0  0  0  0
   28.6660   30.8820   43.4450 C   0  0  0  0  0  3  0  0  0  0  0  0
   29.9080   31.2760   43.9050 C   0  0  0  0  0  3  0  0  0  0  0  0
   34.9790   28.2930   49.4600 O   0  0  0  0  0  0  0  0  0  0  0  0
   37.3030   30.1780   51.4850 C   0  0  0  0  0  0  0  0  0  0  0  0
   38.0360   30.8500   50.4800 C   0  0  0  0  0  0  0  0  0  0  0  0
   37.6730   30.6040   49.1600 C   0  0  0  0  0  0  0  0  0  0  0  0
   36.6350   29.7280   48.9640 N   0  0  0  0  0  0  0  0  0  0  0  0
   35.9670   29.1130   49.9280 C   0  0  0  0  0  0  0  0  0  0  0  0
   36.3190   29.3520   51.2150 N   0  0  0  0  0  0  0  0  0  0  0  0
   37.6160   30.3960   52.5060 H   0  0  0  0  0  0  0  0  0  0  0  0
   38.8510   31.5360   50.6350 H   0  0  0  0  0  0  0  0  0  0  0  0
   38.9850   33.1780   48.9390 F   0  0  0  0  0  0  0  0  0  0  0  0
   38.9160   32.3910   47.8750 C   0  0  0  0  0  0  0  0  0  0  0  0
   38.2990   31.1910   47.9960 C   0  0  0  0  0  0  0  0  0  0  0  0
   38.2840   30.4470   46.8140 C   0  0  0  0  0  0  0  0  0  0  0  0
   38.8420   30.8940   45.6490 C   0  0  0  0  0  0  0  0  0  0  0  0
   39.4540   32.1110   45.5710 C   0  0  0  0  0  0  0  0  0  0  0  0
   39.4870   32.8640   46.7070 C   0  0  0  0  0  0  0  0  0  0  0  0
   37.8180   29.4520   46.7630 H   0  0  0  0  0  0  0  0  0  0  0  0
   38.8140   30.2870   44.7430 H   0  0  0  0  0  0  0  0  0  0  0  0
   39.8870   32.4410   44.6370 H   0  0  0  0  0  0  0  0  0  0  0  0
   39.9630   33.8320   46.6790 H   0  0  0  0  0  0  0  0  0  0  0  0
  1  2  1  0  0  0  0
  1 24  1  0  0  0  0
  3  1  1  0  0  0  0
  4  1  1  0  0  0  0
  4  5  1  0  0  0  0
  6  4  1  0  0  0  0
  7  4  1  0  0  0  0
  7  8  1  0  0  0  0
  8  9  2  0  0  0  0
  8 13  1  0  0  0  0
  9 14  1  0  0  0  0
 10  9  1  0  0  0  0
 11 10  2  0  0  0  0
 12 11  1  0  0  0  0
 12  7  2  0  0  0  0
 16 17  1  0  0  0  0
 16 15  1  0  0  0  0
 17 11  1  0  0  0  0
 18 19  1  0  0  0  0
 18 17  2  0  0  0  0
 20 18  1  0  0  0  0
 21 20  1  0  0  0  0
 22 23  1  0  0  0  0
 22 20  2  0  0  0  0
 23 16  2  0  0  0  0
 24 29  1  0  0  0  0
 25 31  1  0  0  0  0
 26 32  1  0  0  0  0
 26 25  2  0  0  0  0
 27 26  1  0  0  0  0
 28 27  2  0  0  0  0
 28 29  1  0  0  0  0
 29 30  2  0  0  0  0
 30 25  1  0  0  0  0
 34 35  1  0  0  0  0
 34 33  1  0  0  0  0
 35 27  1  0  0  0  0
 36 35  2  0  0  0  0
 37 36  1  0  0  0  0
 38 37  2  0  0  0  0
 38 39  1  0  0  0  0
 39 34  2  0  0  0  0
 40 36  1  0  0  0  0
 41 37  1  0  0  0  0
 42 38  1  0  0  0  0
 43 39  1  0  0  0  0
M  END
>  <minimizedAffinity>
-6.67159939

>  <minimizedRMSD>
0.17017144

$$$$
