
     RDKit          3D

 29 31  0  0  0  0  0  0  0  0999 V2000
   35.1967   30.4401   48.9776 C   0  0  0  0  0  0  0  0  0  0  0  0
   34.3303   30.2055   49.8633 O   0  0  0  0  0  0  0  0  0  0  0  0
   33.3291   30.0830   45.8885 C   0  0  0  0  0  0  0  0  0  0  0  0
   34.3115   30.0034   44.9100 C   0  0  0  0  0  0  0  0  0  0  0  0
   35.6479   30.0732   45.3114 C   0  0  0  0  0  0  0  0  0  0  0  0
   35.8894   30.2140   46.6328 N   0  0  0  0  0  0  0  0  0  0  0  0
   34.9165   30.2884   47.5592 C   0  0  0  0  0  0  0  0  0  0  0  0
   33.6324   30.2217   47.1765 N   0  0  0  0  0  0  0  0  0  0  0  0
   36.5173   30.8780   49.4340 C   0  0  0  0  0  0  0  0  0  0  0  0
   37.3153   30.1957   50.3321 C   0  0  0  0  0  0  0  0  0  0  0  0
   38.4357   31.0281   50.4167 C   0  0  0  0  0  0  0  0  0  0  0  0
   38.2806   32.1261   49.6078 C   0  0  0  0  0  0  0  0  0  0  0  0
   37.1082   32.0089   49.0240 O   0  0  0  0  0  0  0  0  0  0  0  0
   32.3176   30.0221   45.5062 H   0  0  0  0  0  0  0  0  0  0  0  0
   34.1856   29.8911   43.8426 H   0  0  0  0  0  0  0  0  0  0  0  0
   36.5344   30.0307   44.7131 H   0  0  0  0  0  0  0  0  0  0  0  0
   37.0683   29.2651   50.8043 H   0  0  0  0  0  0  0  0  0  0  0  0
   39.2924   30.7826   51.0608 H   0  0  0  0  0  0  0  0  0  0  0  0
   37.4453   34.7369   51.0581 Br  0  0  0  0  0  0  0  0  0  0  0  0
   38.9888   34.4448   50.0118 C   0  0  0  0  0  0  0  0  0  0  0  0
   39.2287   33.2194   49.4239 C   0  0  0  0  0  0  0  0  0  0  0  0
   40.3594   33.0137   48.6603 C   0  0  0  0  0  0  0  0  0  0  0  0
   40.5594   32.0591   48.1944 H   0  0  0  0  0  0  0  0  0  0  0  0
   41.2667   34.0374   48.4763 C   0  0  0  0  0  0  0  0  0  0  0  0
   42.1297   33.8499   47.8826 H   0  0  0  0  0  0  0  0  0  0  0  0
   41.0000   35.2510   49.0764 C   0  0  0  0  0  0  0  0  0  0  0  0
   39.8674   35.5041   49.8580 C   0  0  0  0  0  0  0  0  0  0  0  0
   41.7254   36.0505   48.9223 H   0  0  0  0  0  0  0  0  0  0  0  0
   39.6951   36.4702   50.3113 H   0  0  0  0  0  0  0  0  0  0  0  0
  1  9  1  0
  1  2  2  0
  3  8  2  0
  4  5  2  0
  4  3  1  0
  5  6  1  0
  6  7  2  0
  7  1  1  0
  8  7  1  0
  9 10  2  0
 10 11  1  0
 12 11  2  0
 13  9  1  0
 13 12  1  0
  3 14  1  0
  4 15  1  0
  5 16  1  0
 10 17  1  0
 11 18  1  0
 19 20  1  0
 20 21  2  0
 21 22  1  0
 22 23  1  0
 22 24  2  0
 24 25  1  0
 24 26  1  0
 26 27  2  0
 27 20  1  0
 26 28  1  0
 27 29  1  0
 12 21  1  0
M  ISO  7  14  14  15  14  16  14  17  14  18  14  23  15  25  16
M  END
>  <DihAtoms>  (1) 
10,11,20,19

>  <DihDeg>  (1) 
179.9990433805224

$$$$
