REMARK  Name = 
REMARK  2 active torsions:
REMARK  status: ('A' for Active; 'I' for Inactive)
REMARK    1  A    between atoms: C_5  and  C_9
REMARK    2  A    between atoms: C_11  and  C_22
REMARK                            x       y       z     vdW  Elec       q    Type
REMARK                         _______ _______ _______ _____ _____    ______ ____
ROOT
ATOM      1 BR   UNL     1      37.271  29.356  51.052  0.00  0.00    +0.000 Br
ATOM      2  C   UNL     1      35.961  29.315  49.670  0.00  0.00    +0.000 A 
ATOM      3  C   UNL     1      36.004  30.209  48.621  0.00  0.00    +0.000 A 
ATOM      4  C   UNL     1      35.022  30.133  47.640  0.00  0.00    +0.000 A 
ATOM      5  C   UNL     1      34.008  29.183  47.697  0.00  0.00    +0.000 A 
ATOM      6  C   UNL     1      33.988  28.308  48.749  0.00  0.00    +0.000 A 
ATOM      7  C   UNL     1      34.959  28.378  49.724  0.00  0.00    +0.000 A 
ATOM      8  H   UNL     1      35.112  30.861  46.845  0.00  0.00    +0.000 HD
ATOM      9  H   UNL     1      33.186  27.581  48.765  0.00  0.00    +0.000 HD
ATOM     10  H   UNL     1      34.924  27.677  50.547  0.00  0.00    +0.000 HD
ENDROOT
BRANCH   3  15
ATOM     11  C   UNL     1      37.974  33.168  49.437  0.00  0.00    +0.000 A 
ATOM     12  C   UNL     1      39.016  33.165  48.462  0.00  0.00    +0.000 A 
ATOM     13  C   UNL     1      39.011  32.125  47.534  0.00  0.00    +0.000 A 
ATOM     14  N   UNL     1      38.029  31.171  47.595  0.00  0.00    +0.000 NA
ATOM     15  C   UNL     1      37.064  31.220  48.539  0.00  0.00    +0.000 A 
ATOM     16  N   UNL     1      37.032  32.218  49.464  0.00  0.00    +0.000 NA
ATOM     17  H   UNL     1      37.925  33.941  50.176  0.00  0.00    +0.000 HD
ATOM     18  H   UNL     1      39.750  33.950  48.480  0.00  0.00    +0.000 HD
ATOM     19  H   UNL     1      39.786  32.090  46.779  0.00  0.00    +0.000 HD
ENDBRANCH   3  15
BRANCH   5  22
ATOM     20 BR   UNL     1      33.771  26.593  45.930  0.00  0.00    +0.000 Br
ATOM     21  C   UNL     1      32.800  28.207  45.708  0.00  0.00    +0.000 A 
ATOM     22  C   UNL     1      33.053  29.231  46.595  0.00  0.00    +0.000 A 
ATOM     23  C   UNL     1      32.333  30.417  46.424  0.00  0.00    +0.000 A 
ATOM     24  H   UNL     1      32.424  31.302  47.040  0.00  0.00    +0.000 HD
ATOM     25  C   UNL     1      31.402  30.526  45.386  0.00  0.00    +0.000 A 
ATOM     26  H   UNL     1      30.818  31.437  45.218  0.00  0.00    +0.000 HD
ATOM     27  C   UNL     1      31.172  29.483  44.515  0.00  0.00    +0.000 A 
ATOM     28  C   UNL     1      31.885  28.317  44.689  0.00  0.00    +0.000 A 
ENDBRANCH   5  22
TORSDOF 2
