REMARK  Name = 
REMARK  6 active torsions:
REMARK  status: ('A' for Active; 'I' for Inactive)
REMARK    1  A    between atoms: C_1  and  C_2
REMARK    2  A    between atoms: C_1  and  C_9
REMARK    3  A    between atoms: C_1  and  S_16
REMARK    4  A    between atoms: C_8  and  C_12
REMARK    5  A    between atoms: C_14  and  C_32
REMARK    6  A    between atoms: S_16  and  C_17
REMARK                            x       y       z     vdW  Elec       q    Type
REMARK                         _______ _______ _______ _____ _____    ______ ____
ROOT
ATOM      1  C   UNL     1      35.568  29.972  47.884  0.00  0.00    +0.000 C 
ATOM      2  C   UNL     1      36.712  30.477  47.547  0.00  0.00    +0.000 C 
ENDROOT
BRANCH   1   5
ATOM      3  C   UNL     1      33.758  29.801  44.632  0.00  0.00    +0.000 A 
ATOM      4  C   UNL     1      34.729  29.999  45.594  0.00  0.00    +0.000 A 
ATOM      5  C   UNL     1      34.521  29.731  46.922  0.00  0.00    +0.000 A 
ATOM      6  N   UNL     1      33.302  29.256  47.246  0.00  0.00    +0.000 NA
ATOM      7  C   UNL     1      32.349  29.055  46.342  0.00  0.00    +0.000 A 
ATOM      8  N   UNL     1      32.578  29.329  45.027  0.00  0.00    +0.000 NA
ATOM      9  H   UNL     1      33.890  30.002  43.578  0.00  0.00    +0.000 HD
ATOM     10  H   UNL     1      35.637  30.379  45.167  0.00  0.00    +0.000 HD
BRANCH   7  13
ATOM     11 BR   UNL     1      32.539  26.643  48.329  0.00  0.00    +0.000 Br
ATOM     12  C   UNL     1      30.967  27.471  47.600  0.00  0.00    +0.000 A 
ATOM     13  C   UNL     1      31.038  28.539  46.725  0.00  0.00    +0.000 A 
ATOM     14  C   UNL     1      29.874  29.103  46.226  0.00  0.00    +0.000 A 
ATOM     15  H   UNL     1      29.907  29.951  45.530  0.00  0.00    +0.000 HD
ATOM     16  C   UNL     1      28.636  28.584  46.614  0.00  0.00    +0.000 A 
ATOM     17  H   UNL     1      27.735  29.019  46.229  0.00  0.00    +0.000 HD
ATOM     18  C   UNL     1      28.528  27.512  47.491  0.00  0.00    +0.000 A 
ATOM     19  C   UNL     1      29.721  26.985  47.960  0.00  0.00    +0.000 A 
ENDBRANCH   7  13
ENDBRANCH   1   5
BRANCH   2  20
ATOM     20  C   UNL     1      37.723  30.699  48.634  0.00  0.00    +0.000 C 
ATOM     21  H   UNL     1      38.344  29.798  48.753  0.00  0.00    +0.000 HD
BRANCH  20  22
ATOM     22  C   UNL     1      38.517  31.901  48.326  0.00  0.00    +0.000 A 
ATOM     23  C   UNL     1      38.569  32.826  49.404  0.00  0.00    +0.000 A 
ATOM     24  C   UNL     1      39.252  34.016  49.350  0.00  0.00    +0.000 A 
ATOM     25  C   UNL     1      39.953  34.392  48.200  0.00  0.00    +0.000 A 
ATOM     26  C   UNL     1      39.851  33.436  47.196  0.00  0.00    +0.000 A 
ATOM     27  N   UNL     1      39.193  32.267  47.218  0.00  0.00    +0.000 NA
ATOM     28  H   UNL     1      38.109  32.764  50.406  0.00  0.00    +0.000 HD
ATOM     29  H   UNL     1      39.327  34.758  50.137  0.00  0.00    +0.000 HD
ATOM     30  H   UNL     1      40.527  35.277  48.007  0.00  0.00    +0.000 HD
ATOM     31  H   UNL     1      40.346  33.585  46.233  0.00  0.00    +0.000 HD
ENDBRANCH  20  22
BRANCH  20  32
ATOM     32  S   UNL     1      36.800  31.079  50.162  0.00  0.00    +0.000 S 
BRANCH  32  33
ATOM     33  C   UNL     1      36.874  29.715  51.310  0.00  0.00    +0.000 C 
ATOM     34  F   UNL     1      37.576  30.013  52.468  0.00  0.00    +0.000 F 
ATOM     35  F   UNL     1      35.615  29.217  51.588  0.00  0.00    +0.000 F 
ATOM     36  F   UNL     1      37.565  28.677  50.648  0.00  0.00    +0.000 F 
ENDBRANCH  32  33
ENDBRANCH  20  32
ENDBRANCH   2  20
TORSDOF 6
