
 OpenBabel03272509513D

 33 35  0  0  0  0  0  0  0  0999 V2000
   36.4160   29.5480   31.5840 C   0  0  0  0  0  0  0  0  0  0  0  0
   35.7710   30.3620   32.5210 C   0  0  0  0  0  0  0  0  0  0  0  0
   35.5230   29.8640   33.7790 C   0  0  0  0  0  0  0  0  0  0  0  0
   35.9460   28.5750   33.9900 N   0  0  0  0  0  0  0  0  0  0  0  0
   36.5550   27.8100   33.0970 C   0  0  0  0  0  0  0  0  0  0  0  0
   36.7900   28.3160   31.8780 N   0  0  0  0  0  0  0  0  0  0  0  0
   36.5940   29.9860   30.5980 H   0  0  0  0  0  0  0  0  0  0  0  0
   35.4680   31.3230   32.2700 H   0  0  0  0  0  0  0  0  0  0  0  0
   32.3390   29.4240   34.3080 Br  0  0  0  0  0  0  0  0  0  0  0  0
   33.5550   30.4600   35.2910 C   0  0  0  0  0  0  0  0  0  0  0  0
   34.8530   30.5120   34.8920 C   0  0  0  0  0  0  0  0  0  0  0  0
   35.6260   31.3490   35.6910 C   0  0  0  0  0  0  0  0  0  0  0  0
   36.7020   31.5130   35.5170 H   0  0  0  0  0  0  0  0  0  0  0  0
   35.1400   32.0490   36.7710 C   0  0  0  0  0  0  0  0  0  0  0  0
   35.7690   32.6800   37.3580 H   0  0  0  0  0  0  0  0  0  0  0  0
   33.8150   31.9480   37.1180 C   0  0  0  0  0  3  0  0  0  0  0  0
   33.0290   31.1410   36.3590 C   0  0  0  0  0  3  0  0  0  0  0  0
   36.8700   26.5650   33.5660 O   0  0  0  0  0  0  0  0  0  0  0  0
   37.3530   26.4400   34.9000 C   0  0  0  0  0  0  0  0  0  0  0  0
   36.6250   26.0410   35.6030 H   0  0  0  0  0  0  0  0  0  0  0  0
   37.5520   27.4980   35.2360 H   0  0  0  0  0  0  0  0  0  0  0  0
   38.6790   25.7350   34.9010 C   0  0  0  0  0  0  0  0  0  0  0  0
   38.7070   25.1080   33.9680 H   0  0  0  0  0  0  0  0  0  0  0  0
   39.5520   26.4170   34.8450 H   0  0  0  0  0  0  0  0  0  0  0  0
   38.8040   24.7750   36.0360 C   0  0  0  0  0  0  0  0  0  0  0  0
   37.9630   24.9800   37.1220 C   0  0  0  0  0  0  0  0  0  0  0  0
   37.9650   24.1760   38.2350 C   0  0  0  0  0  0  0  0  0  0  0  0
   38.8150   23.1590   38.2580 N   0  0  0  0  0  0  0  0  0  0  0  0
   39.6440   22.9490   37.2010 C   0  0  0  0  0  0  0  0  0  0  0  0
   39.6560   23.7300   36.0970 N   0  0  0  0  0  0  0  0  0  0  0  0
   37.2550   25.8230   37.1060 H   0  0  0  0  0  0  0  0  0  0  0  0
   37.2920   24.3920   39.0320 H   0  0  0  0  0  0  0  0  0  0  0  0
   40.3160   22.1040   37.2760 H   0  0  0  0  0  0  0  0  0  0  0  0
  1  6  2  0  0  0  0
  1  2  1  0  0  0  0
  2  3  2  0  0  0  0
  3  4  1  0  0  0  0
  3 11  1  0  0  0  0
  5 18  1  0  0  0  0
  5  4  2  0  0  0  0
  6  5  1  0  0  0  0
  7  1  1  0  0  0  0
  8  2  1  0  0  0  0
  9 10  1  0  0  0  0
 10 17  1  0  0  0  0
 11 10  2  0  0  0  0
 11 12  1  0  0  0  0
 12 14  2  0  0  0  0
 13 12  1  0  0  0  0
 14 16  1  0  0  0  0
 14 15  1  0  0  0  0
 17 16  2  0  0  0  0
 18 19  1  0  0  0  0
 19 22  1  0  0  0  0
 19 21  1  0  0  0  0
 19 20  1  0  0  0  0
 22 25  1  0  0  0  0
 23 22  1  0  0  0  0
 24 22  1  0  0  0  0
 25 30  2  0  0  0  0
 25 26  1  0  0  0  0
 26 27  2  0  0  0  0
 27 28  1  0  0  0  0
 27 32  1  0  0  0  0
 29 33  1  0  0  0  0
 29 28  2  0  0  0  0
 30 29  1  0  0  0  0
 31 26  1  0  0  0  0
M  END
>  <minimizedAffinity>
-5.63267803

$$$$

 OpenBabel03272509513D

 33 35  0  0  0  0  0  0  0  0999 V2000
   37.6780   27.3890   35.1140 C   0  0  0  0  0  0  0  0  0  0  0  0
   38.5560   26.5480   35.8070 C   0  0  0  0  0  0  0  0  0  0  0  0
   38.7620   25.2700   35.3420 C   0  0  0  0  0  0  0  0  0  0  0  0
   38.0570   24.9400   34.2110 N   0  0  0  0  0  0  0  0  0  0  0  0
   37.2260   25.7410   33.5620 C   0  0  0  0  0  0  0  0  0  0  0  0
   37.0420   26.9840   34.0300 N   0  0  0  0  0  0  0  0  0  0  0  0
   37.5470   28.3960   35.5180 H   0  0  0  0  0  0  0  0  0  0  0  0
   39.0360   26.8760   36.6670 H   0  0  0  0  0  0  0  0  0  0  0  0
   37.7760   23.5330   37.9160 Br  0  0  0  0  0  0  0  0  0  0  0  0
   39.3820   23.3930   36.9570 C   0  0  0  0  0  0  0  0  0  0  0  0
   39.6000   24.2270   35.9070 C   0  0  0  0  0  0  0  0  0  0  0  0
   40.8460   24.0350   35.3180 C   0  0  0  0  0  0  0  0  0  0  0  0
   41.1940   24.6220   34.4530 H   0  0  0  0  0  0  0  0  0  0  0  0
   41.7640   23.1020   35.7430 C   0  0  0  0  0  0  0  0  0  0  0  0
   42.7090   22.9870   35.2630 H   0  0  0  0  0  0  0  0  0  0  0  0
   41.4760   22.2900   36.8140 C   0  0  0  0  0  3  0  0  0  0  0  0
   40.2680   22.4510   37.4140 C   0  0  0  0  0  3  0  0  0  0  0  0
   36.6520   25.1620   32.4640 O   0  0  0  0  0  0  0  0  0  0  0  0
   36.9770   23.8090   32.1580 C   0  0  0  0  0  0  0  0  0  0  0  0
   37.3930   23.2490   32.9930 H   0  0  0  0  0  0  0  0  0  0  0  0
   37.8040   23.8760   31.3930 H   0  0  0  0  0  0  0  0  0  0  0  0
   35.8160   23.1470   31.4740 C   0  0  0  0  0  0  0  0  0  0  0  0
   34.8880   23.5350   31.9750 H   0  0  0  0  0  0  0  0  0  0  0  0
   35.7200   23.4030   30.3980 H   0  0  0  0  0  0  0  0  0  0  0  0
   35.8040   21.6710   31.6900 C   0  0  0  0  0  0  0  0  0  0  0  0
   35.5480   21.2320   32.9830 C   0  0  0  0  0  0  0  0  0  0  0  0
   35.5040   19.9040   33.3290 C   0  0  0  0  0  0  0  0  0  0  0  0
   35.7170   19.0110   32.3730 N   0  0  0  0  0  0  0  0  0  0  0  0
   35.9690   19.4290   31.1040 C   0  0  0  0  0  0  0  0  0  0  0  0
   36.0170   20.7310   30.7440 N   0  0  0  0  0  0  0  0  0  0  0  0
   35.3710   21.9710   33.7790 H   0  0  0  0  0  0  0  0  0  0  0  0
   35.3020   19.6390   34.3410 H   0  0  0  0  0  0  0  0  0  0  0  0
   36.1350   18.6550   30.3670 H   0  0  0  0  0  0  0  0  0  0  0  0
  1  7  1  0  0  0  0
  1  2  1  0  0  0  0
  2  8  1  0  0  0  0
  3  2  2  0  0  0  0
  3 11  1  0  0  0  0
  4  3  1  0  0  0  0
  5  6  1  0  0  0  0
  5  4  2  0  0  0  0
  6  1  2  0  0  0  0
 10 17  1  0  0  0  0
 10  9  1  0  0  0  0
 11 10  2  0  0  0  0
 12 14  2  0  0  0  0
 12 11  1  0  0  0  0
 13 12  1  0  0  0  0
 14 16  1  0  0  0  0
 15 14  1  0  0  0  0
 16 17  2  0  0  0  0
 18  5  1  0  0  0  0
 19 18  1  0  0  0  0
 19 20  1  0  0  0  0
 21 19  1  0  0  0  0
 22 25  1  0  0  0  0
 22 23  1  0  0  0  0
 22 19  1  0  0  0  0
 24 22  1  0  0  0  0
 25 26  1  0  0  0  0
 26 27  2  0  0  0  0
 26 31  1  0  0  0  0
 27 32  1  0  0  0  0
 28 27  1  0  0  0  0
 29 28  2  0  0  0  0
 30 29  1  0  0  0  0
 30 25  2  0  0  0  0
 33 29  1  0  0  0  0
M  END
>  <minimizedAffinity>
-5.46108294

$$$$

 OpenBabel03272509513D

 33 35  0  0  0  0  0  0  0  0999 V2000
   43.6050   26.6570   34.0160 C   0  0  0  0  0  0  0  0  0  0  0  0
   42.3090   27.1520   33.8420 C   0  0  0  0  0  0  0  0  0  0  0  0
   41.2550   26.4740   34.4080 C   0  0  0  0  0  0  0  0  0  0  0  0
   41.5960   25.3430   35.1080 N   0  0  0  0  0  0  0  0  0  0  0  0
   42.8260   24.8800   35.2660 C   0  0  0  0  0  0  0  0  0  0  0  0
   43.8400   25.5570   34.7080 N   0  0  0  0  0  0  0  0  0  0  0  0
   44.4120   27.2290   33.5490 H   0  0  0  0  0  0  0  0  0  0  0  0
   42.1390   28.0090   33.2800 H   0  0  0  0  0  0  0  0  0  0  0  0
   39.6500   26.3770   31.5750 Br  0  0  0  0  0  0  0  0  0  0  0  0
   38.9880   26.7990   33.2790 C   0  0  0  0  0  0  0  0  0  0  0  0
   39.8380   26.7860   34.3390 C   0  0  0  0  0  0  0  0  0  0  0  0
   39.2170   27.1570   35.5280 C   0  0  0  0  0  0  0  0  0  0  0  0
   39.7510   27.2030   36.4910 H   0  0  0  0  0  0  0  0  0  0  0  0
   37.8880   27.4990   35.6300 C   0  0  0  0  0  0  0  0  0  0  0  0
   37.4510   27.7780   36.5620 H   0  0  0  0  0  0  0  0  0  0  0  0
   37.0870   27.4900   34.5140 C   0  0  0  0  0  3  0  0  0  0  0  0
   37.6590   27.1340   33.3350 C   0  0  0  0  0  3  0  0  0  0  0  0
   42.8890   23.7330   36.0080 O   0  0  0  0  0  0  0  0  0  0  0  0
   41.9540   22.6930   35.7350 C   0  0  0  0  0  0  0  0  0  0  0  0
   42.3550   21.8770   35.1370 H   0  0  0  0  0  0  0  0  0  0  0  0
   41.1600   23.1770   35.0970 H   0  0  0  0  0  0  0  0  0  0  0  0
   41.2790   22.2660   37.0070 C   0  0  0  0  0  0  0  0  0  0  0  0
   41.1110   21.1580   36.9220 H   0  0  0  0  0  0  0  0  0  0  0  0
   41.8940   22.4190   37.9170 H   0  0  0  0  0  0  0  0  0  0  0  0
   39.9220   22.8690   37.1530 C   0  0  0  0  0  0  0  0  0  0  0  0
   39.2400   23.1620   35.9780 C   0  0  0  0  0  0  0  0  0  0  0  0
   37.9850   23.7180   35.9590 C   0  0  0  0  0  0  0  0  0  0  0  0
   37.4100   23.9790   37.1240 N   0  0  0  0  0  0  0  0  0  0  0  0
   38.0680   23.6980   38.2800 C   0  0  0  0  0  0  0  0  0  0  0  0
   39.3040   23.1510   38.3190 N   0  0  0  0  0  0  0  0  0  0  0  0
   39.7160   22.9450   35.0090 H   0  0  0  0  0  0  0  0  0  0  0  0
   37.5200   23.9160   35.0210 H   0  0  0  0  0  0  0  0  0  0  0  0
   37.5480   23.9330   39.1990 H   0  0  0  0  0  0  0  0  0  0  0  0
  1  6  1  0  0  0  0
  2  1  2  0  0  0  0
  2  3  1  0  0  0  0
  3  4  2  0  0  0  0
  4  5  1  0  0  0  0
  5 18  1  0  0  0  0
  6  5  2  0  0  0  0
  7  1  1  0  0  0  0
  8  2  1  0  0  0  0
  9 10  1  0  0  0  0
 10 17  2  0  0  0  0
 10 11  1  0  0  0  0
 11  3  1  0  0  0  0
 11 12  2  0  0  0  0
 12 14  1  0  0  0  0
 12 13  1  0  0  0  0
 14 15  1  0  0  0  0
 16 14  2  0  0  0  0
 17 16  1  0  0  0  0
 19 18  1  0  0  0  0
 19 22  1  0  0  0  0
 20 19  1  0  0  0  0
 21 19  1  0  0  0  0
 22 25  1  0  0  0  0
 22 24  1  0  0  0  0
 23 22  1  0  0  0  0
 25 30  1  0  0  0  0
 26 25  2  0  0  0  0
 27 26  1  0  0  0  0
 27 28  2  0  0  0  0
 28 29  1  0  0  0  0
 29 30  2  0  0  0  0
 29 33  1  0  0  0  0
 31 26  1  0  0  0  0
 32 27  1  0  0  0  0
M  END
>  <minimizedAffinity>
-5.42859888

$$$$

 OpenBabel03272509513D

 33 35  0  0  0  0  0  0  0  0999 V2000
   35.2420   25.9310   30.9230 C   0  0  0  0  0  0  0  0  0  0  0  0
   35.2260   24.5340   30.8530 C   0  0  0  0  0  0  0  0  0  0  0  0
   36.0560   23.8160   31.6820 C   0  0  0  0  0  0  0  0  0  0  0  0
   36.8430   24.5700   32.5170 N   0  0  0  0  0  0  0  0  0  0  0  0
   36.8530   25.8930   32.5750 C   0  0  0  0  0  0  0  0  0  0  0  0
   36.0340   26.5740   31.7610 N   0  0  0  0  0  0  0  0  0  0  0  0
   34.5640   26.4600   30.2470 H   0  0  0  0  0  0  0  0  0  0  0  0
   34.6100   24.0430   30.1770 H   0  0  0  0  0  0  0  0  0  0  0  0
   38.6460   22.3490   30.3590 Br  0  0  0  0  0  0  0  0  0  0  0  0
   37.2170   21.5750   31.2960 C   0  0  0  0  0  0  0  0  0  0  0  0
   36.2250   22.3760   31.7660 C   0  0  0  0  0  0  0  0  0  0  0  0
   35.2160   21.6610   32.4030 C   0  0  0  0  0  0  0  0  0  0  0  0
   34.3300   22.1450   32.8470 H   0  0  0  0  0  0  0  0  0  0  0  0
   35.2150   20.2930   32.5510 C   0  0  0  0  0  0  0  0  0  0  0  0
   34.4200   19.7830   33.0480 H   0  0  0  0  0  0  0  0  0  0  0  0
   36.2530   19.5450   32.0510 C   0  0  0  0  0  3  0  0  0  0  0  0
   37.2560   20.2100   31.4200 C   0  0  0  0  0  3  0  0  0  0  0  0
   37.7320   26.3940   33.4950 O   0  0  0  0  0  0  0  0  0  0  0  0
   37.2290   26.8270   34.7560 C   0  0  0  0  0  0  0  0  0  0  0  0
   36.2640   26.4000   35.0220 H   0  0  0  0  0  0  0  0  0  0  0  0
   37.0490   27.9330   34.6310 H   0  0  0  0  0  0  0  0  0  0  0  0
   38.2910   26.6820   35.8070 C   0  0  0  0  0  0  0  0  0  0  0  0
   39.2170   27.1660   35.3930 H   0  0  0  0  0  0  0  0  0  0  0  0
   38.0610   27.2100   36.7560 H   0  0  0  0  0  0  0  0  0  0  0  0
   38.6540   25.2550   36.0470 C   0  0  0  0  0  0  0  0  0  0  0  0
   37.8250   24.5350   36.8980 C   0  0  0  0  0  0  0  0  0  0  0  0
   38.0340   23.2140   37.2090 C   0  0  0  0  0  0  0  0  0  0  0  0
   39.0810   22.6130   36.6620 N   0  0  0  0  0  0  0  0  0  0  0  0
   39.9000   23.3070   35.8290 C   0  0  0  0  0  0  0  0  0  0  0  0
   39.7100   24.6070   35.5120 N   0  0  0  0  0  0  0  0  0  0  0  0
   36.9540   25.0330   37.3530 H   0  0  0  0  0  0  0  0  0  0  0  0
   37.3570   22.7240   37.8690 H   0  0  0  0  0  0  0  0  0  0  0  0
   40.7370   22.7630   35.4140 H   0  0  0  0  0  0  0  0  0  0  0  0
  1  6  1  0  0  0  0
  2  1  2  0  0  0  0
  2  3  1  0  0  0  0
  3 11  1  0  0  0  0
  3  4  2  0  0  0  0
  4  5  1  0  0  0  0
  5 18  1  0  0  0  0
  6  5  2  0  0  0  0
  7  1  1  0  0  0  0
  8  2  1  0  0  0  0
  9 10  1  0  0  0  0
 10 17  2  0  0  0  0
 10 11  1  0  0  0  0
 11 12  2  0  0  0  0
 12 14  1  0  0  0  0
 12 13  1  0  0  0  0
 14 15  1  0  0  0  0
 16 14  2  0  0  0  0
 17 16  1  0  0  0  0
 18 19  1  0  0  0  0
 19 20  1  0  0  0  0
 19 22  1  0  0  0  0
 21 19  1  0  0  0  0
 22 25  1  0  0  0  0
 22 24  1  0  0  0  0
 23 22  1  0  0  0  0
 25 26  1  0  0  0  0
 26 27  2  0  0  0  0
 26 31  1  0  0  0  0
 27 32  1  0  0  0  0
 28 27  1  0  0  0  0
 29 28  2  0  0  0  0
 30 29  1  0  0  0  0
 30 25  2  0  0  0  0
 33 29  1  0  0  0  0
M  END
>  <minimizedAffinity>
-5.35891247

$$$$

 OpenBabel03272509513D

 33 35  0  0  0  0  0  0  0  0999 V2000
   36.4320   29.4710   31.6970 C   0  0  0  0  0  0  0  0  0  0  0  0
   35.7160   30.2870   32.5790 C   0  0  0  0  0  0  0  0  0  0  0  0
   35.5490   29.8760   33.8810 C   0  0  0  0  0  0  0  0  0  0  0  0
   36.1180   28.6650   34.1890 N   0  0  0  0  0  0  0  0  0  0  0  0
   36.7920   27.8970   33.3470 C   0  0  0  0  0  0  0  0  0  0  0  0
   36.9460   28.3170   32.0830 N   0  0  0  0  0  0  0  0  0  0  0  0
   36.5400   29.8380   30.6730 H   0  0  0  0  0  0  0  0  0  0  0  0
   35.3030   31.1830   32.2560 H   0  0  0  0  0  0  0  0  0  0  0  0
   32.3410   29.4600   34.2630 Br  0  0  0  0  0  0  0  0  0  0  0  0
   33.5150   30.5010   35.2910 C   0  0  0  0  0  0  0  0  0  0  0  0
   34.8310   30.5410   34.9540 C   0  0  0  0  0  0  0  0  0  0  0  0
   35.5710   31.3820   35.7790 C   0  0  0  0  0  0  0  0  0  0  0  0
   36.6540   31.5390   35.6540 H   0  0  0  0  0  0  0  0  0  0  0  0
   35.0390   32.0980   36.8260 C   0  0  0  0  0  0  0  0  0  0  0  0
   35.6430   32.7320   37.4360 H   0  0  0  0  0  0  0  0  0  0  0  0
   33.6970   32.0090   37.1110 C   0  0  0  0  0  3  0  0  0  0  0  0
   32.9430   31.1980   36.3260 C   0  0  0  0  0  3  0  0  0  0  0  0
   37.2540   26.7400   33.9100 O   0  0  0  0  0  0  0  0  0  0  0  0
   37.4740   26.7060   35.3170 C   0  0  0  0  0  0  0  0  0  0  0  0
   37.2110   25.7620   35.7880 H   0  0  0  0  0  0  0  0  0  0  0  0
   36.7590   27.4690   35.7400 H   0  0  0  0  0  0  0  0  0  0  0  0
   38.8580   27.2000   35.6300 C   0  0  0  0  0  0  0  0  0  0  0  0
   38.9440   28.2210   35.1700 H   0  0  0  0  0  0  0  0  0  0  0  0
   39.0560   27.3280   36.7140 H   0  0  0  0  0  0  0  0  0  0  0  0
   39.9110   26.3720   34.9740 C   0  0  0  0  0  0  0  0  0  0  0  0
   40.8060   27.0410   34.1480 C   0  0  0  0  0  0  0  0  0  0  0  0
   41.8270   26.4110   33.4810 C   0  0  0  0  0  0  0  0  0  0  0  0
   41.9520   25.1010   33.6440 N   0  0  0  0  0  0  0  0  0  0  0  0
   41.0820   24.4350   34.4490 C   0  0  0  0  0  0  0  0  0  0  0  0
   40.0700   25.0390   35.1130 N   0  0  0  0  0  0  0  0  0  0  0  0
   40.7050   28.1290   34.0120 H   0  0  0  0  0  0  0  0  0  0  0  0
   42.4770   26.9870   32.8650 H   0  0  0  0  0  0  0  0  0  0  0  0
   41.2330   23.3680   34.5420 H   0  0  0  0  0  0  0  0  0  0  0  0
  1  6  2  0  0  0  0
  1  2  1  0  0  0  0
  2  3  2  0  0  0  0
  3  4  1  0  0  0  0
  3 11  1  0  0  0  0
  5 18  1  0  0  0  0
  5  4  2  0  0  0  0
  6  5  1  0  0  0  0
  7  1  1  0  0  0  0
  8  2  1  0  0  0  0
  9 10  1  0  0  0  0
 10 17  1  0  0  0  0
 11 10  2  0  0  0  0
 11 12  1  0  0  0  0
 12 14  2  0  0  0  0
 13 12  1  0  0  0  0
 14 16  1  0  0  0  0
 14 15  1  0  0  0  0
 17 16  2  0  0  0  0
 18 19  1  0  0  0  0
 19 22  1  0  0  0  0
 19 21  1  0  0  0  0
 19 20  1  0  0  0  0
 22 24  1  0  0  0  0
 23 22  1  0  0  0  0
 25 30  1  0  0  0  0
 25 22  1  0  0  0  0
 26 25  2  0  0  0  0
 27 28  2  0  0  0  0
 27 26  1  0  0  0  0
 28 29  1  0  0  0  0
 29 33  1  0  0  0  0
 29 30  2  0  0  0  0
 31 26  1  0  0  0  0
 32 27  1  0  0  0  0
M  END
>  <minimizedAffinity>
-5.27745819

$$$$

 OpenBabel03272509513D

 33 35  0  0  0  0  0  0  0  0999 V2000
   37.7790   27.4950   33.4650 C   0  0  0  0  0  0  0  0  0  0  0  0
   38.3700   26.8490   34.5560 C   0  0  0  0  0  0  0  0  0  0  0  0
   38.2250   25.4880   34.6840 C   0  0  0  0  0  0  0  0  0  0  0  0
   37.4860   24.8840   33.6960 N   0  0  0  0  0  0  0  0  0  0  0  0
   36.9280   25.5030   32.6680 C   0  0  0  0  0  0  0  0  0  0  0  0
   37.0840   26.8300   32.5600 N   0  0  0  0  0  0  0  0  0  0  0  0
   37.9220   28.5770   33.4030 H   0  0  0  0  0  0  0  0  0  0  0  0
   38.8990   27.3890   35.2690 H   0  0  0  0  0  0  0  0  0  0  0  0
   40.8760   23.6520   34.2260 Br  0  0  0  0  0  0  0  0  0  0  0  0
   39.8000   23.7900   35.7570 C   0  0  0  0  0  0  0  0  0  0  0  0
   38.7250   24.6200   35.7360 C   0  0  0  0  0  0  0  0  0  0  0  0
   38.0000   24.5890   36.9230 C   0  0  0  0  0  0  0  0  0  0  0  0
   37.0970   25.1990   37.0870 H   0  0  0  0  0  0  0  0  0  0  0  0
   38.3290   23.8090   38.0070 C   0  0  0  0  0  0  0  0  0  0  0  0
   37.7460   23.8150   38.9010 H   0  0  0  0  0  0  0  0  0  0  0  0
   39.4330   22.9920   37.9590 C   0  0  0  0  0  3  0  0  0  0  0  0
   40.1640   22.9950   36.8140 C   0  0  0  0  0  3  0  0  0  0  0  0
   36.2450   24.6660   31.8300 O   0  0  0  0  0  0  0  0  0  0  0  0
   36.7000   23.3230   31.6870 C   0  0  0  0  0  0  0  0  0  0  0  0
   37.4350   23.0200   32.4280 H   0  0  0  0  0  0  0  0  0  0  0  0
   37.2390   23.3040   30.6960 H   0  0  0  0  0  0  0  0  0  0  0  0
   35.5260   22.3970   31.5510 C   0  0  0  0  0  0  0  0  0  0  0  0
   34.8310   22.6360   32.4020 H   0  0  0  0  0  0  0  0  0  0  0  0
   34.9410   22.5440   30.6200 H   0  0  0  0  0  0  0  0  0  0  0  0
   35.9130   20.9680   31.7360 C   0  0  0  0  0  0  0  0  0  0  0  0
   34.9050   20.0940   32.1260 C   0  0  0  0  0  0  0  0  0  0  0  0
   35.1140   18.7530   32.3320 C   0  0  0  0  0  0  0  0  0  0  0  0
   36.3400   18.2860   32.1450 N   0  0  0  0  0  0  0  0  0  0  0  0
   37.3340   19.1310   31.7650 C   0  0  0  0  0  0  0  0  0  0  0  0
   37.1480   20.4540   31.5570 N   0  0  0  0  0  0  0  0  0  0  0  0
   33.8860   20.4810   32.2810 H   0  0  0  0  0  0  0  0  0  0  0  0
   34.2940   18.1410   32.6300 H   0  0  0  0  0  0  0  0  0  0  0  0
   38.3130   18.6920   31.6280 H   0  0  0  0  0  0  0  0  0  0  0  0
  1  2  1  0  0  0  0
  2  3  2  0  0  0  0
  2  8  1  0  0  0  0
  3 11  1  0  0  0  0
  4  3  1  0  0  0  0
  5  4  2  0  0  0  0
  6  5  1  0  0  0  0
  6  1  2  0  0  0  0
  7  1  1  0  0  0  0
  9 10  1  0  0  0  0
 10 17  1  0  0  0  0
 11 10  2  0  0  0  0
 11 12  1  0  0  0  0
 12 13  1  0  0  0  0
 12 14  2  0  0  0  0
 14 15  1  0  0  0  0
 16 14  1  0  0  0  0
 17 16  2  0  0  0  0
 18  5  1  0  0  0  0
 19 18  1  0  0  0  0
 19 20  1  0  0  0  0
 21 19  1  0  0  0  0
 22 19  1  0  0  0  0
 22 25  1  0  0  0  0
 22 23  1  0  0  0  0
 24 22  1  0  0  0  0
 25 26  1  0  0  0  0
 26 31  1  0  0  0  0
 26 27  2  0  0  0  0
 27 32  1  0  0  0  0
 28 27  1  0  0  0  0
 29 28  2  0  0  0  0
 30 25  2  0  0  0  0
 30 29  1  0  0  0  0
 33 29  1  0  0  0  0
M  END
>  <minimizedAffinity>
-5.20706797

$$$$

 OpenBabel03272509513D

 33 35  0  0  0  0  0  0  0  0999 V2000
   35.2900   24.5920   30.9250 C   0  0  0  0  0  0  0  0  0  0  0  0
   35.1350   25.9820   30.9130 C   0  0  0  0  0  0  0  0  0  0  0  0
   35.9870   26.7540   31.6670 C   0  0  0  0  0  0  0  0  0  0  0  0
   36.9300   26.0560   32.3810 N   0  0  0  0  0  0  0  0  0  0  0  0
   37.0690   24.7390   32.3880 C   0  0  0  0  0  0  0  0  0  0  0  0
   36.2300   24.0050   31.6430 N   0  0  0  0  0  0  0  0  0  0  0  0
   34.5910   24.0180   30.3090 H   0  0  0  0  0  0  0  0  0  0  0  0
   34.3800   26.4260   30.3560 H   0  0  0  0  0  0  0  0  0  0  0  0
   37.3740   28.6760   29.4340 Br  0  0  0  0  0  0  0  0  0  0  0  0
   36.5080   29.1680   31.0230 C   0  0  0  0  0  0  0  0  0  0  0  0
   35.9980   28.1970   31.8250 C   0  0  0  0  0  0  0  0  0  0  0  0
   35.4210   28.7080   32.9840 C   0  0  0  0  0  0  0  0  0  0  0  0
   34.9570   28.0670   33.7520 H   0  0  0  0  0  0  0  0  0  0  0  0
   35.3660   30.0470   33.2930 C   0  0  0  0  0  0  0  0  0  0  0  0
   34.9130   30.3970   34.1930 H   0  0  0  0  0  0  0  0  0  0  0  0
   35.9030   30.9750   32.4330 C   0  0  0  0  0  3  0  0  0  0  0  0
   36.4750   30.5130   31.2910 C   0  0  0  0  0  3  0  0  0  0  0  0
   38.0890   24.3010   33.1860 O   0  0  0  0  0  0  0  0  0  0  0  0
   39.0080   25.2570   33.7070 C   0  0  0  0  0  0  0  0  0  0  0  0
   38.5380   26.0960   34.2150 H   0  0  0  0  0  0  0  0  0  0  0  0
   39.5160   25.6940   32.7990 H   0  0  0  0  0  0  0  0  0  0  0  0
   40.0760   24.5600   34.5000 C   0  0  0  0  0  0  0  0  0  0  0  0
   40.3100   23.6070   33.9510 H   0  0  0  0  0  0  0  0  0  0  0  0
   41.0290   25.1240   34.5650 H   0  0  0  0  0  0  0  0  0  0  0  0
   39.5920   24.1420   35.8480 C   0  0  0  0  0  0  0  0  0  0  0  0
   40.3230   23.1520   36.4930 C   0  0  0  0  0  0  0  0  0  0  0  0
   39.9980   22.6700   37.7370 C   0  0  0  0  0  0  0  0  0  0  0  0
   38.9340   23.1840   38.3360 N   0  0  0  0  0  0  0  0  0  0  0  0
   38.2100   24.1520   37.7150 C   0  0  0  0  0  0  0  0  0  0  0  0
   38.5150   24.6390   36.4910 N   0  0  0  0  0  0  0  0  0  0  0  0
   41.2080   22.7240   35.9970 H   0  0  0  0  0  0  0  0  0  0  0  0
   40.6040   21.9100   38.1730 H   0  0  0  0  0  0  0  0  0  0  0  0
   37.3530   24.5330   38.2530 H   0  0  0  0  0  0  0  0  0  0  0  0
  1  6  1  0  0  0  0
  2  1  2  0  0  0  0
  2  3  1  0  0  0  0
  3 11  1  0  0  0  0
  3  4  2  0  0  0  0
  4  5  1  0  0  0  0
  5 18  1  0  0  0  0
  6  5  2  0  0  0  0
  7  1  1  0  0  0  0
  8  2  1  0  0  0  0
  9 10  1  0  0  0  0
 10 17  2  0  0  0  0
 10 11  1  0  0  0  0
 11 12  2  0  0  0  0
 12 14  1  0  0  0  0
 12 13  1  0  0  0  0
 14 15  1  0  0  0  0
 16 14  2  0  0  0  0
 17 16  1  0  0  0  0
 18 19  1  0  0  0  0
 19 20  1  0  0  0  0
 19 22  1  0  0  0  0
 21 19  1  0  0  0  0
 22 24  1  0  0  0  0
 22 25  1  0  0  0  0
 23 22  1  0  0  0  0
 25 30  2  0  0  0  0
 25 26  1  0  0  0  0
 26 27  2  0  0  0  0
 27 32  1  0  0  0  0
 27 28  1  0  0  0  0
 29 33  1  0  0  0  0
 29 28  2  0  0  0  0
 30 29  1  0  0  0  0
 31 26  1  0  0  0  0
M  END
>  <minimizedAffinity>
-5.05337906

$$$$

 OpenBabel03272509513D

 33 35  0  0  0  0  0  0  0  0999 V2000
   35.8300   27.5890   31.5860 C   0  0  0  0  0  0  0  0  0  0  0  0
   37.0660   27.8810   32.1720 C   0  0  0  0  0  0  0  0  0  0  0  0
   38.0140   26.8880   32.2600 C   0  0  0  0  0  0  0  0  0  0  0  0
   37.6350   25.6720   31.7480 N   0  0  0  0  0  0  0  0  0  0  0  0
   36.4610   25.4030   31.1960 C   0  0  0  0  0  0  0  0  0  0  0  0
   35.5520   26.3850   31.1190 N   0  0  0  0  0  0  0  0  0  0  0  0
   35.1080   28.4080   31.5370 H   0  0  0  0  0  0  0  0  0  0  0  0
   37.2630   28.8270   32.5510 H   0  0  0  0  0  0  0  0  0  0  0  0
   38.4680   26.4530   35.4560 Br  0  0  0  0  0  0  0  0  0  0  0  0
   39.7490   26.8000   34.1300 C   0  0  0  0  0  0  0  0  0  0  0  0
   39.3420   26.9560   32.8430 C   0  0  0  0  0  0  0  0  0  0  0  0
   40.3940   27.2470   31.9800 C   0  0  0  0  0  0  0  0  0  0  0  0
   40.2520   27.4050   30.8980 H   0  0  0  0  0  0  0  0  0  0  0  0
   41.7060   27.3640   32.3760 C   0  0  0  0  0  0  0  0  0  0  0  0
   42.4840   27.5880   31.6800 H   0  0  0  0  0  0  0  0  0  0  0  0
   42.0460   27.1920   33.6960 C   0  0  0  0  0  3  0  0  0  0  0  0
   41.0440   26.9080   34.5680 C   0  0  0  0  0  3  0  0  0  0  0  0
   36.3410   24.1100   30.7670 O   0  0  0  0  0  0  0  0  0  0  0  0
   35.5650   23.2020   31.5430 C   0  0  0  0  0  0  0  0  0  0  0  0
   34.8010   22.6730   30.9790 H   0  0  0  0  0  0  0  0  0  0  0  0
   35.0070   23.8530   32.2770 H   0  0  0  0  0  0  0  0  0  0  0  0
   36.4680   22.3210   32.3570 C   0  0  0  0  0  0  0  0  0  0  0  0
   37.5190   22.5680   32.0450 H   0  0  0  0  0  0  0  0  0  0  0  0
   36.4150   22.5070   33.4490 H   0  0  0  0  0  0  0  0  0  0  0  0
   36.2820   20.8760   32.0360 C   0  0  0  0  0  0  0  0  0  0  0  0
   35.6540   20.0990   33.0000 C   0  0  0  0  0  0  0  0  0  0  0  0
   35.4130   18.7560   32.8420 C   0  0  0  0  0  0  0  0  0  0  0  0
   35.8040   18.1910   31.7090 N   0  0  0  0  0  0  0  0  0  0  0  0
   36.4210   18.9410   30.7580 C   0  0  0  0  0  0  0  0  0  0  0  0
   36.6660   20.2630   30.8960 N   0  0  0  0  0  0  0  0  0  0  0  0
   35.3270   20.5670   33.9420 H   0  0  0  0  0  0  0  0  0  0  0  0
   34.9250   18.2220   33.6240 H   0  0  0  0  0  0  0  0  0  0  0  0
   36.7180   18.4240   29.8550 H   0  0  0  0  0  0  0  0  0  0  0  0
  1  2  1  0  0  0  0
  2  3  2  0  0  0  0
  2  8  1  0  0  0  0
  3 11  1  0  0  0  0
  4  3  1  0  0  0  0
  5  4  2  0  0  0  0
  6  5  1  0  0  0  0
  6  1  2  0  0  0  0
  7  1  1  0  0  0  0
 10 17  1  0  0  0  0
 10  9  1  0  0  0  0
 11 10  2  0  0  0  0
 12 14  2  0  0  0  0
 12 11  1  0  0  0  0
 13 12  1  0  0  0  0
 14 16  1  0  0  0  0
 15 14  1  0  0  0  0
 16 17  2  0  0  0  0
 18  5  1  0  0  0  0
 18 19  1  0  0  0  0
 19 21  1  0  0  0  0
 19 22  1  0  0  0  0
 20 19  1  0  0  0  0
 22 24  1  0  0  0  0
 23 22  1  0  0  0  0
 25 22  1  0  0  0  0
 25 26  1  0  0  0  0
 26 31  1  0  0  0  0
 27 26  2  0  0  0  0
 27 32  1  0  0  0  0
 28 27  1  0  0  0  0
 29 30  1  0  0  0  0
 29 28  2  0  0  0  0
 30 25  2  0  0  0  0
 33 29  1  0  0  0  0
M  END
>  <minimizedAffinity>
-5.01208591

$$$$

 OpenBabel03272509513D

 33 35  0  0  0  0  0  0  0  0999 V2000
   36.2130   28.2380   31.1800 C   0  0  0  0  0  0  0  0  0  0  0  0
   36.2420   26.9010   30.7690 C   0  0  0  0  0  0  0  0  0  0  0  0
   36.6360   25.9360   31.6660 C   0  0  0  0  0  0  0  0  0  0  0  0
   36.9750   26.4020   32.9130 N   0  0  0  0  0  0  0  0  0  0  0  0
   36.9470   27.6700   33.2930 C   0  0  0  0  0  0  0  0  0  0  0  0
   36.5570   28.5940   32.4040 N   0  0  0  0  0  0  0  0  0  0  0  0
   35.8920   28.9700   30.4340 H   0  0  0  0  0  0  0  0  0  0  0  0
   35.9850   26.6390   29.7980 H   0  0  0  0  0  0  0  0  0  0  0  0
   39.5210   24.5920   30.9740 Br  0  0  0  0  0  0  0  0  0  0  0  0
   37.8560   23.7500   31.1690 C   0  0  0  0  0  0  0  0  0  0  0  0
   36.7640   24.5050   31.4560 C   0  0  0  0  0  0  0  0  0  0  0  0
   35.5960   23.7520   31.5320 C   0  0  0  0  0  0  0  0  0  0  0  0
   34.6130   24.1960   31.7560 H   0  0  0  0  0  0  0  0  0  0  0  0
   35.5430   22.3900   31.3400 C   0  0  0  0  0  0  0  0  0  0  0  0
   34.6260   21.8500   31.4080 H   0  0  0  0  0  0  0  0  0  0  0  0
   36.6900   21.6900   31.0530 C   0  0  0  0  0  3  0  0  0  0  0  0
   37.8490   22.3930   30.9700 C   0  0  0  0  0  3  0  0  0  0  0  0
   37.3350   27.8610   34.5910 O   0  0  0  0  0  0  0  0  0  0  0  0
   38.5420   27.2520   35.0390 C   0  0  0  0  0  0  0  0  0  0  0  0
   39.4140   27.9000   34.9920 H   0  0  0  0  0  0  0  0  0  0  0  0
   38.7380   26.4210   34.3010 H   0  0  0  0  0  0  0  0  0  0  0  0
   38.3190   26.5950   36.3710 C   0  0  0  0  0  0  0  0  0  0  0  0
   39.2660   26.7400   36.9600 H   0  0  0  0  0  0  0  0  0  0  0  0
   37.5060   27.0550   36.9700 H   0  0  0  0  0  0  0  0  0  0  0  0
   38.1430   25.1190   36.2480 C   0  0  0  0  0  0  0  0  0  0  0  0
   38.5840   24.5350   35.0680 C   0  0  0  0  0  0  0  0  0  0  0  0
   38.4880   23.1880   34.8160 C   0  0  0  0  0  0  0  0  0  0  0  0
   37.9470   22.4240   35.7540 N   0  0  0  0  0  0  0  0  0  0  0  0
   37.5110   22.9850   36.9130 C   0  0  0  0  0  0  0  0  0  0  0  0
   37.5970   24.3080   37.1780 N   0  0  0  0  0  0  0  0  0  0  0  0
   39.0340   25.1670   34.2870 H   0  0  0  0  0  0  0  0  0  0  0  0
   38.8470   22.8080   33.8880 H   0  0  0  0  0  0  0  0  0  0  0  0
   37.0780   22.3110   37.6410 H   0  0  0  0  0  0  0  0  0  0  0  0
  1  6  1  0  0  0  0
  2  1  2  0  0  0  0
  2  3  1  0  0  0  0
  3  4  2  0  0  0  0
  4  5  1  0  0  0  0
  5 18  1  0  0  0  0
  6  5  2  0  0  0  0
  7  1  1  0  0  0  0
  8  2  1  0  0  0  0
  9 10  1  0  0  0  0
 10 11  1  0  0  0  0
 11 12  2  0  0  0  0
 11  3  1  0  0  0  0
 12 13  1  0  0  0  0
 14 15  1  0  0  0  0
 14 12  1  0  0  0  0
 16 14  2  0  0  0  0
 17 16  1  0  0  0  0
 17 10  2  0  0  0  0
 18 19  1  0  0  0  0
 19 22  1  0  0  0  0
 20 19  1  0  0  0  0
 21 19  1  0  0  0  0
 22 23  1  0  0  0  0
 22 24  1  0  0  0  0
 25 22  1  0  0  0  0
 25 30  1  0  0  0  0
 26 25  2  0  0  0  0
 27 26  1  0  0  0  0
 27 28  2  0  0  0  0
 28 29  1  0  0  0  0
 29 30  2  0  0  0  0
 29 33  1  0  0  0  0
 31 26  1  0  0  0  0
 32 27  1  0  0  0  0
M  END
>  <minimizedAffinity>
-5.01143074

$$$$
