
 OpenBabel03272509503D

 33 35  0  0  0  0  0  0  0  0999 V2000
   37.3330   30.2220   51.2510 C   0  0  0  0  0  0  0  0  0  0  0  0
   37.8710   30.9300   50.1710 C   0  0  0  0  0  0  0  0  0  0  0  0
   37.4090   30.6660   48.9040 C   0  0  0  0  0  0  0  0  0  0  0  0
   36.4360   29.7000   48.8260 N   0  0  0  0  0  0  0  0  0  0  0  0
   35.9330   29.0320   49.8530 C   0  0  0  0  0  0  0  0  0  0  0  0
   36.3960   29.3070   51.0810 N   0  0  0  0  0  0  0  0  0  0  0  0
   37.7300   30.4660   52.2400 H   0  0  0  0  0  0  0  0  0  0  0  0
   38.6200   31.6340   50.3200 H   0  0  0  0  0  0  0  0  0  0  0  0
   35.7220   30.1610   46.1630 Br  0  0  0  0  0  0  0  0  0  0  0  0
   37.2810   31.1780   46.4060 C   0  0  0  0  0  0  0  0  0  0  0  0
   37.8340   31.2540   47.6460 C   0  0  0  0  0  0  0  0  0  0  0  0
   39.0020   32.0080   47.6650 C   0  0  0  0  0  0  0  0  0  0  0  0
   39.5880   32.1770   48.5850 H   0  0  0  0  0  0  0  0  0  0  0  0
   39.5480   32.6150   46.5570 C   0  0  0  0  0  0  0  0  0  0  0  0
   40.4480   33.1860   46.6170 H   0  0  0  0  0  0  0  0  0  0  0  0
   38.9340   32.4970   45.3340 C   0  0  0  0  0  3  0  0  0  0  0  0
   37.7900   31.7670   45.2770 C   0  0  0  0  0  3  0  0  0  0  0  0
   34.9750   28.1230   49.4990 O   0  0  0  0  0  0  0  0  0  0  0  0
   33.6560   28.5900   49.2310 C   0  0  0  0  0  0  0  0  0  0  0  0
   33.6130   29.6020   48.8340 H   0  0  0  0  0  0  0  0  0  0  0  0
   33.1550   28.6370   50.2400 H   0  0  0  0  0  0  0  0  0  0  0  0
   32.9050   27.5680   48.4270 C   0  0  0  0  0  0  0  0  0  0  0  0
   33.2790   27.6550   47.3710 H   0  0  0  0  0  0  0  0  0  0  0  0
   33.0940   26.5210   48.7410 H   0  0  0  0  0  0  0  0  0  0  0  0
   31.4450   27.8670   48.3630 C   0  0  0  0  0  0  0  0  0  0  0  0
   30.7220   27.7000   49.5370 C   0  0  0  0  0  0  0  0  0  0  0  0
   29.3730   27.9390   49.6280 C   0  0  0  0  0  0  0  0  0  0  0  0
   28.7460   28.3480   48.5350 N   0  0  0  0  0  0  0  0  0  0  0  0
   29.4420   28.5140   47.3790 C   0  0  0  0  0  0  0  0  0  0  0  0
   30.7700   28.2840   47.2710 N   0  0  0  0  0  0  0  0  0  0  0  0
   31.2400   27.3600   50.4470 H   0  0  0  0  0  0  0  0  0  0  0  0
   28.8820   27.7900   50.5620 H   0  0  0  0  0  0  0  0  0  0  0  0
   28.8770   28.8500   46.5200 H   0  0  0  0  0  0  0  0  0  0  0  0
  1  7  1  0  0  0  0
  2  8  1  0  0  0  0
  2  1  2  0  0  0  0
  3  2  1  0  0  0  0
  4  3  2  0  0  0  0
  4  5  1  0  0  0  0
  5  6  2  0  0  0  0
  6  1  1  0  0  0  0
  9 10  1  0  0  0  0
 10 11  1  0  0  0  0
 11 12  2  0  0  0  0
 11  3  1  0  0  0  0
 12 13  1  0  0  0  0
 14 15  1  0  0  0  0
 14 12  1  0  0  0  0
 16 14  2  0  0  0  0
 17 16  1  0  0  0  0
 17 10  2  0  0  0  0
 18  5  1  0  0  0  0
 19 18  1  0  0  0  0
 19 21  1  0  0  0  0
 20 19  1  0  0  0  0
 22 24  1  0  0  0  0
 22 19  1  0  0  0  0
 23 22  1  0  0  0  0
 25 22  1  0  0  0  0
 25 26  1  0  0  0  0
 26 27  2  0  0  0  0
 26 31  1  0  0  0  0
 27 32  1  0  0  0  0
 28 27  1  0  0  0  0
 29 28  2  0  0  0  0
 30 29  1  0  0  0  0
 30 25  2  0  0  0  0
 33 29  1  0  0  0  0
M  END
>  <minimizedAffinity>
-5.988482

>  <minimizedRMSD>
0.630379677

$$$$
