REMARK  Name = 
REMARK  3 active torsions:
REMARK  status: ('A' for Active; 'I' for Inactive)
REMARK    1  A    between atoms: C_2  and  N_13
REMARK    2  A    between atoms: C_5  and  C_7
REMARK    3  A    between atoms: C_18  and  C_36
REMARK                            x       y       z     vdW  Elec       q    Type
REMARK                         _______ _______ _______ _____ _____    ______ ____
ROOT
ATOM      1  N   UNL     1      37.032  31.098  48.332  0.00  0.00    +0.000 N 
ATOM      2  C   UNL     1      37.327  31.430  49.724  0.00  0.00    +0.000 C 
ATOM      3  C   UNL     1      38.539  32.278  49.897  0.00  0.00    +0.000 C 
ATOM      4  C   UNL     1      38.701  33.234  48.715  0.00  0.00    +0.000 C 
ATOM      5  C   UNL     1      38.988  32.336  47.552  0.00  0.00    +0.000 C 
ATOM      6  C   UNL     1      37.805  31.477  47.199  0.00  0.00    +0.000 C 
ATOM      7  H   UNL     1      36.447  32.052  50.056  0.00  0.00    +0.000 HD
ATOM      8  H   UNL     1      37.370  30.589  50.401  0.00  0.00    +0.000 HD
ATOM      9  H   UNL     1      39.487  31.715  49.992  0.00  0.00    +0.000 HD
ATOM     10  H   UNL     1      38.393  32.914  50.806  0.00  0.00    +0.000 HD
ATOM     11  H   UNL     1      37.742  33.748  48.486  0.00  0.00    +0.000 HD
ATOM     12  H   UNL     1      39.530  33.919  48.898  0.00  0.00    +0.000 HD
ATOM     13  H   UNL     1      39.372  32.851  46.657  0.00  0.00    +0.000 HD
ATOM     14  H   UNL     1      39.777  31.615  47.914  0.00  0.00    +0.000 HD
ATOM     15  H   UNL     1      37.134  32.150  46.593  0.00  0.00    +0.000 HD
ENDROOT
BRANCH   6  18
ATOM     16 BR   UNL     1      36.196  30.988  44.457  0.00  0.00    +0.000 Br
ATOM     17  C   UNL     1      37.675  30.013  45.091  0.00  0.00    +0.000 A 
ATOM     18  C   UNL     1      38.221  30.391  46.290  0.00  0.00    +0.000 A 
ATOM     19  C   UNL     1      39.311  29.583  46.653  0.00  0.00    +0.000 A 
ATOM     20  H   UNL     1      39.812  29.816  47.607  0.00  0.00    +0.000 HD
ATOM     21  C   UNL     1      39.813  28.525  45.929  0.00  0.00    +0.000 A 
ATOM     22  H   UNL     1      40.661  27.979  46.318  0.00  0.00    +0.000 HD
ATOM     23  C   UNL     1      39.204  28.219  44.740  0.00  0.00    +0.000 A 
ATOM     24  C   UNL     1      38.132  28.968  44.323  0.00  0.00    +0.000 A 
ENDBRANCH   6  18
BRANCH   1  26
ATOM     25  C   UNL     1      35.190  29.727  49.185  0.00  0.00    +0.000 A 
ATOM     26  C   UNL     1      35.853  30.340  48.131  0.00  0.00    +0.000 A 
ATOM     27  C   UNL     1      35.298  30.170  46.876  0.00  0.00    +0.000 A 
ATOM     28  N   UNL     1      34.163  29.432  46.728  0.00  0.00    +0.000 NA
ATOM     29  C   UNL     1      33.552  28.855  47.776  0.00  0.00    +0.000 A 
ATOM     30  N   UNL     1      34.075  29.011  48.995  0.00  0.00    +0.000 NA
ATOM     31  H   UNL     1      35.529  29.793  50.201  0.00  0.00    +0.000 HD
ATOM     32  H   UNL     1      35.708  30.599  45.980  0.00  0.00    +0.000 HD
BRANCH  29  33
ATOM     33  C   UNL     1      32.345  28.078  47.591  0.00  0.00    +0.000 A 
ATOM     34  C   UNL     1      32.252  26.805  48.099  0.00  0.00    +0.000 A 
ATOM     35  C   UNL     1      31.128  26.024  47.953  0.00  0.00    +0.000 A 
ATOM     36  C   UNL     1      30.103  26.601  47.266  0.00  0.00    +0.000 A 
ATOM     37  C   UNL     1      30.146  27.891  46.730  0.00  0.00    +0.000 A 
ATOM     38  N   UNL     1      31.302  28.620  46.912  0.00  0.00    +0.000 NA
ATOM     39  H   UNL     1      33.126  26.418  48.639  0.00  0.00    +0.000 HD
ATOM     40  H   UNL     1      31.097  25.038  48.364  0.00  0.00    +0.000 HD
ATOM     41  H   UNL     1      29.180  26.047  47.109  0.00  0.00    +0.000 HD
ATOM     42  H   UNL     1      29.329  28.316  46.198  0.00  0.00    +0.000 HD
ENDBRANCH  29  33
ENDBRANCH   1  26
TORSDOF 3
