
     RDKit          3D

 46 49  0  0  0  0  0  0  0  0999 V2000
   37.6862   31.0335   47.9323 C   0  0  0  0  0  0  0  0  0  0  0  0
   37.0019   30.7884   46.7573 C   0  0  0  0  0  0  0  0  0  0  0  0
   37.6922   31.4486   45.7350 C   0  0  0  0  0  0  0  0  0  0  0  0
   38.7324   32.0472   46.3152 N   0  0  0  0  0  0  0  0  0  0  0  0
   38.7277   31.7976   47.6306 N   0  0  0  0  0  0  0  0  0  0  0  0
   37.4098   30.1354   51.5636 C   0  0  0  0  0  0  0  0  0  0  0  0
   37.9145   30.6894   50.4080 C   0  0  0  0  0  0  0  0  0  0  0  0
   37.2538   30.5028   49.2012 C   0  0  0  0  0  0  0  0  0  0  0  0
   36.1237   29.7604   49.2754 N   0  0  0  0  0  0  0  0  0  0  0  0
   35.6383   29.2211   50.4207 C   0  0  0  0  0  0  0  0  0  0  0  0
   36.2968   29.4212   51.5502 N   0  0  0  0  0  0  0  0  0  0  0  0
   39.7108   32.8575   45.5990 C   0  0  0  0  0  0  0  0  0  0  0  0
   40.6234   32.0284   44.8397 C   0  0  0  0  0  0  0  0  0  0  0  0
   40.3725   31.7987   43.4751 N   0  0  0  0  0  0  0  0  0  0  0  0
   39.5084   32.7041   42.8320 C   0  0  0  0  0  0  0  0  0  0  0  0
   38.2472   32.1400   42.2883 C   0  0  0  0  0  0  0  0  0  0  0  0
   38.4202   30.8807   41.7089 O   0  0  0  0  0  0  0  0  0  0  0  0
   39.0024   30.0148   42.5751 C   0  0  0  0  0  0  0  0  0  0  0  0
   40.3526   30.4853   43.0131 C   0  0  1  0  0  0  0  0  0  0  0  0
   36.0808   30.1815   46.6562 H   0  0  0  0  0  0  0  0  0  0  0  0
   37.2994   31.3555   44.7908 H   0  0  0  0  0  0  0  0  0  0  0  0
   38.0373   30.3683   52.4275 H   0  0  0  0  0  0  0  0  0  0  0  0
   38.8226   31.2870   50.3447 H   0  0  0  0  0  0  0  0  0  0  0  0
   34.7238   28.6344   50.4102 H   0  0  0  0  0  0  0  0  0  0  0  0
   40.3309   33.3788   46.4016 H   0  0  0  0  0  0  0  0  0  0  0  0
   39.1290   33.6658   45.1878 H   0  0  0  0  0  0  0  0  0  0  0  0
   41.6856   32.3756   44.9199 H   0  0  0  0  0  0  0  0  0  0  0  0
   40.6643   31.0118   45.3349 H   0  0  0  0  0  0  0  0  0  0  0  0
   39.3746   33.7081   43.2361 H   0  0  0  0  0  0  0  0  0  0  0  0
   40.1384   32.9571   41.9407 H   0  0  0  0  0  0  0  0  0  0  0  0
   38.0753   32.7420   41.3107 H   0  0  0  0  0  0  0  0  0  0  0  0
   37.3065   32.3613   42.7473 H   0  0  0  0  0  0  0  0  0  0  0  0
   39.2614   29.1544   41.8990 H   0  0  0  0  0  0  0  0  0  0  0  0
   38.3809   29.5080   43.3057 H   0  0  0  0  0  0  0  0  0  0  0  0
   40.5144   29.8596   43.9764 H   0  0  0  0  0  0  0  0  0  0  0  0
   39.9930   27.6409   41.8192 Br  0  0  0  0  0  0  0  0  0  0  0  0
   41.4980   28.8136   41.5260 C   0  0  0  0  0  0  0  0  0  0  0  0
   41.4748   30.0659   42.1617 C   0  0  0  0  0  0  0  0  0  0  0  0
   42.6102   30.7769   41.8532 C   0  0  0  0  0  0  0  0  0  0  0  0
   42.7403   31.7644   42.2602 H   0  0  0  0  0  0  0  0  0  0  0  0
   43.6458   30.3680   41.0471 C   0  0  0  0  0  0  0  0  0  0  0  0
   44.5077   30.9828   40.8504 H   0  0  0  0  0  0  0  0  0  0  0  0
   43.5703   29.1194   40.4709 C   0  0  0  0  0  0  0  0  0  0  0  0
   42.4813   28.3112   40.7037 C   0  0  0  0  0  0  0  0  0  0  0  0
   44.3478   28.7361   39.8277 H   0  0  0  0  0  0  0  0  0  0  0  0
   42.4051   27.3300   40.2607 H   0  0  0  0  0  0  0  0  0  0  0  0
  1  8  1  0
  2  1  1  0
  3  4  1  0
  3  2  2  0
  4  5  1  0
  5  1  2  0
  7  6  2  0
  8  9  2  0
  8  7  1  0
  9 10  1  0
 10 11  2  0
 11  6  1  0
 12  4  1  0
 13 12  1  0
 14 13  1  0
 15 14  1  0
 16 15  1  0
 17 16  1  0
 17 18  1  0
 18 19  1  0
 19 14  1  0
  2 20  1  0
  3 21  1  0
  6 22  1  0
  7 23  1  0
 10 24  1  0
 12 25  1  0
 12 26  1  0
 13 27  1  0
 13 28  1  0
 15 29  1  0
 15 30  1  0
 16 31  1  0
 16 32  1  0
 18 33  1  0
 18 34  1  0
 19 35  1  1
 36 37  1  0
 37 38  2  0
 38 39  1  0
 39 40  1  0
 39 41  2  0
 41 42  1  0
 41 43  1  0
 43 44  2  0
 44 37  1  0
 43 45  1  0
 44 46  1  0
 19 38  1  0
M  ISO  8  20  14  21  14  22  14  23  14  24  14  25   8  26   8  27   8
M  ISO  8  28   8  29  13  30  13  31  13  32  13  33  13  34  13  35  13
M  ISO  2  40  15  42  16
M  END
>  <DihAtoms>  (1) 
17,18,37,36

>  <DihDeg>  (1) 
-95.23954221846276

$$$$
