REMARK  Name = 
REMARK  6 active torsions:
REMARK  status: ('A' for Active; 'I' for Inactive)
REMARK    1  A    between atoms: C_3  and  C_9
REMARK    2  A    between atoms: C_5  and  O_14
REMARK    3  A    between atoms: O_14  and  C_15
REMARK    4  A    between atoms: C_15  and  C_16
REMARK    5  A    between atoms: C_16  and  C_17
REMARK    6  A    between atoms: C_21  and  C_37
REMARK                            x       y       z     vdW  Elec       q    Type
REMARK                         _______ _______ _______ _____ _____    ______ ____
ROOT
ATOM      1  C   UNL     1      34.444  28.656  48.169  0.00  0.00    +0.000 C 
ATOM      2  H   UNL     1      33.802  29.548  48.319  0.00  0.00    +0.000 HD
ATOM      3  H   UNL     1      35.228  28.936  47.433  0.00  0.00    +0.000 HD
ENDROOT
BRANCH   1   4
ATOM      4  C   UNL     1      33.568  27.539  47.699  0.00  0.00    +0.000 C 
ATOM      5  H   UNL     1      33.693  26.595  48.249  0.00  0.00    +0.000 HD
ATOM      6  H   UNL     1      33.820  27.291  46.632  0.00  0.00    +0.000 HD
BRANCH   4   7
ATOM      7  C   UNL     1      32.124  27.902  47.706  0.00  0.00    +0.000 A 
ATOM      8  C   UNL     1      31.355  27.515  48.788  0.00  0.00    +0.000 A 
ATOM      9  C   UNL     1      30.027  27.809  48.868  0.00  0.00    +0.000 A 
ATOM     10  N   UNL     1      29.445  28.480  47.895  0.00  0.00    +0.000 NA
ATOM     11  C   UNL     1      30.193  28.869  46.819  0.00  0.00    +0.000 A 
ATOM     12  N   UNL     1      31.517  28.594  46.706  0.00  0.00    +0.000 NA
ATOM     13  H   UNL     1      31.824  26.964  49.591  0.00  0.00    +0.000 HD
ATOM     14  H   UNL     1      29.457  27.481  49.747  0.00  0.00    +0.000 HD
BRANCH  11  17
ATOM     15 BR   UNL     1      27.100  28.725  46.936  0.00  0.00    +0.000 Br
ATOM     16  C   UNL     1      28.176  29.645  45.640  0.00  0.00    +0.000 A 
ATOM     17  C   UNL     1      29.572  29.616  45.723  0.00  0.00    +0.000 A 
ATOM     18  C   UNL     1      30.308  30.287  44.777  0.00  0.00    +0.000 A 
ATOM     19  H   UNL     1      31.386  30.277  44.823  0.00  0.00    +0.000 HD
ATOM     20  C   UNL     1      29.721  30.989  43.747  0.00  0.00    +0.000 A 
ATOM     21  H   UNL     1      30.306  31.509  43.014  0.00  0.00    +0.000 HD
ATOM     22  C   UNL     1      28.344  30.988  43.709  0.00  0.00    +0.000 A 
ATOM     23  C   UNL     1      27.526  30.342  44.616  0.00  0.00    +0.000 A 
ENDBRANCH  11  17
ENDBRANCH   4   7
ENDBRANCH   1   4
BRANCH   1  24
ATOM     24  O   UNL     1      34.995  28.354  49.434  0.00  0.00    +0.000 OA
BRANCH  24  29
ATOM     25  C   UNL     1      37.327  30.175  51.508  0.00  0.00    +0.000 A 
ATOM     26  C   UNL     1      38.067  30.865  50.520  0.00  0.00    +0.000 A 
ATOM     27  C   UNL     1      37.706  30.652  49.194  0.00  0.00    +0.000 A 
ATOM     28  N   UNL     1      36.662  29.788  48.975  0.00  0.00    +0.000 NA
ATOM     29  C   UNL     1      35.988  29.156  49.923  0.00  0.00    +0.000 A 
ATOM     30  N   UNL     1      36.338  29.363  51.216  0.00  0.00    +0.000 NA
ATOM     31  H   UNL     1      37.639  30.368  52.534  0.00  0.00    +0.000 HD
ATOM     32  H   UNL     1      38.886  31.542  50.693  0.00  0.00    +0.000 HD
BRANCH  27  35
ATOM     33  F   UNL     1      38.935  33.269  49.005  0.00  0.00    +0.000 F 
ATOM     34  C   UNL     1      38.917  32.482  47.939  0.00  0.00    +0.000 A 
ATOM     35  C   UNL     1      38.339  31.262  48.045  0.00  0.00    +0.000 A 
ATOM     36  C   UNL     1      38.377  30.519  46.863  0.00  0.00    +0.000 A 
ATOM     37  C   UNL     1      38.946  30.986  45.712  0.00  0.00    +0.000 A 
ATOM     38  C   UNL     1      39.518  32.223  45.649  0.00  0.00    +0.000 A 
ATOM     39  C   UNL     1      39.499  32.976  46.785  0.00  0.00    +0.000 A 
ATOM     40  H   UNL     1      37.946  29.509  46.800  0.00  0.00    +0.000 HD
ATOM     41  H   UNL     1      38.960  30.380  44.805  0.00  0.00    +0.000 HD
ATOM     42  H   UNL     1      39.962  32.569  44.725  0.00  0.00    +0.000 HD
ATOM     43  H   UNL     1      39.943  33.959  46.769  0.00  0.00    +0.000 HD
ENDBRANCH  27  35
ENDBRANCH  24  29
ENDBRANCH   1  24
TORSDOF 6
