
 OpenBabel03272508373D

 44 47  0  0  1  0  0  0  0  0999 V2000
   40.4130   31.6450   44.3750 C   0  0  0  0  0  0  0  0  0  0  0  0
   41.5340   31.6590   44.3630 H   0  0  0  0  0  0  0  0  0  0  0  0
   40.1890   30.5750   44.6650 H   0  0  0  0  0  0  0  0  0  0  0  0
   39.9910   31.7950   43.0420 N   0  0  0  0  0  0  0  0  0  0  0  0
   39.4150   33.0320   42.6980 C   0  0  0  0  0  0  0  0  0  0  0  0
   38.0000   33.0010   42.2520 C   0  0  0  0  0  0  0  0  0  0  0  0
   37.7080   31.9000   41.4440 O   0  0  0  0  0  0  0  0  0  0  0  0
   38.0480   30.7370   42.0520 C   0  0  0  0  0  0  0  0  0  0  0  0
   39.5100   30.6760   42.3650 C   0  0  1  0  0  0  0  0  0  0  0  0
   39.6480   33.9210   43.2860 H   0  0  0  0  0  0  0  0  0  0  0  0
   40.0180   33.2660   41.7830 H   0  0  0  0  0  0  0  0  0  0  0  0
   37.9520   33.8190   41.4310 H   0  0  0  0  0  0  0  0  0  0  0  0
   37.2220   33.3930   42.8740 H   0  0  0  0  0  0  0  0  0  0  0  0
   37.9590   30.0010   41.2060 H   0  0  0  0  0  0  0  0  0  0  0  0
   37.3590   30.2980   42.7650 H   0  0  0  0  0  0  0  0  0  0  0  0
   39.5390   29.8430   43.1710 H   0  0  0  0  0  0  0  0  0  0  0  0
   39.7690   27.5830   42.4670 Br  0  0  0  0  0  0  0  0  0  0  0  0
   40.6000   28.7510   41.1740 C   0  0  0  0  0  0  0  0  0  0  0  0
   40.3630   30.1290   41.3010 C   0  0  0  0  0  0  0  0  0  0  0  0
   41.0200   30.8180   40.3100 C   0  0  0  0  0  0  0  0  0  0  0  0
   40.9320   31.8890   40.2660 H   0  0  0  0  0  0  0  0  0  0  0  0
   41.8080   30.2850   39.3180 C   0  0  0  0  0  0  0  0  0  0  0  0
   42.2940   30.8900   38.5710 H   0  0  0  0  0  0  0  0  0  0  0  0
   41.9770   28.9180   39.2830 C   0  0  0  0  0  3  0  0  0  0  0  0
   41.3680   28.1180   40.2230 C   0  0  0  0  0  3  0  0  0  0  0  0
   39.8600   32.5100   45.3960 C   0  0  0  0  0  0  0  0  0  0  0  0
   40.7010   32.7240   46.1360 H   0  0  0  0  0  0  0  0  0  0  0  0
   39.4500   33.4890   45.2150 H   0  0  0  0  0  0  0  0  0  0  0  0
   37.7380   30.9400   47.8250 C   0  0  0  0  0  0  0  0  0  0  0  0
   36.9640   30.8060   46.6880 C   0  0  0  0  0  0  0  0  0  0  0  0
   37.6800   31.3840   45.6340 C   0  0  0  0  0  0  0  0  0  0  0  0
   38.8210   31.8270   46.1590 N   0  0  0  0  0  0  0  0  0  0  0  0
   38.8550   31.5610   47.4710 N   0  0  0  0  0  0  0  0  0  0  0  0
   35.9650   30.3300   46.6340 H   0  0  0  0  0  0  0  0  0  0  0  0
   37.2270   31.3580   44.7130 H   0  0  0  0  0  0  0  0  0  0  0  0
   37.4530   30.1880   51.4890 C   0  0  0  0  0  0  0  0  0  0  0  0
   37.9530   30.7050   50.3140 C   0  0  0  0  0  0  0  0  0  0  0  0
   37.3080   30.4520   49.1120 C   0  0  0  0  0  0  0  0  0  0  0  0
   36.1950   29.6870   49.2090 N   0  0  0  0  0  0  0  0  0  0  0  0
   35.7120   29.1850   50.3730 C   0  0  0  0  0  0  0  0  0  0  0  0
   36.3570   29.4480   51.4970 N   0  0  0  0  0  0  0  0  0  0  0  0
   38.0670   30.4720   52.3470 H   0  0  0  0  0  0  0  0  0  0  0  0
   38.8480   31.3210   50.2330 H   0  0  0  0  0  0  0  0  0  0  0  0
   34.8120   28.5770   50.3800 H   0  0  0  0  0  0  0  0  0  0  0  0
  1  3  1  0  0  0  0
  1 26  1  0  0  0  0
  2  1  1  0  0  0  0
  4  1  1  0  0  0  0
  5  4  1  0  0  0  0
  5 10  1  0  0  0  0
  6  5  1  0  0  0  0
  6 13  1  0  0  0  0
  7  8  1  0  0  0  0
  7  6  1  0  0  0  0
  8  9  1  0  0  0  0
  8 15  1  0  0  0  0
  9  4  1  0  0  0  0
  9 16  1  1  0  0  0
 11  5  1  0  0  0  0
 12  6  1  0  0  0  0
 14  8  1  0  0  0  0
 18 19  1  0  0  0  0
 18 17  1  0  0  0  0
 19  9  1  0  0  0  0
 20 19  2  0  0  0  0
 21 20  1  0  0  0  0
 22 20  1  0  0  0  0
 23 22  1  0  0  0  0
 24 22  2  0  0  0  0
 24 25  1  0  0  0  0
 25 18  2  0  0  0  0
 26 27  1  0  0  0  0
 26 32  1  0  0  0  0
 28 26  1  0  0  0  0
 29 38  1  0  0  0  0
 30 29  1  0  0  0  0
 31 32  1  0  0  0  0
 31 30  2  0  0  0  0
 32 33  1  0  0  0  0
 33 29  2  0  0  0  0
 34 30  1  0  0  0  0
 35 31  1  0  0  0  0
 36 41  1  0  0  0  0
 36 42  1  0  0  0  0
 37 36  2  0  0  0  0
 38 39  2  0  0  0  0
 38 37  1  0  0  0  0
 39 40  1  0  0  0  0
 40 44  1  0  0  0  0
 40 41  2  0  0  0  0
 43 37  1  0  0  0  0
M  END
>  <minimizedAffinity>
-5.85159874

>  <minimizedRMSD>
1.01553893

$$$$
