
 OpenBabel03272508373D

 44 47  0  0  1  0  0  0  0  0999 V2000
   35.6800   30.2790   43.4290 C   0  0  0  0  0  0  0  0  0  0  0  0
   36.4350   29.5890   43.8880 H   0  0  0  0  0  0  0  0  0  0  0  0
   35.5450   29.8360   42.3970 H   0  0  0  0  0  0  0  0  0  0  0  0
   36.3180   31.5200   43.2520 N   0  0  0  0  0  0  0  0  0  0  0  0
   35.4910   32.6170   42.9510 C   0  0  0  0  0  0  0  0  0  0  0  0
   35.7140   33.2730   41.6380 C   0  0  0  0  0  0  0  0  0  0  0  0
   37.0660   33.3630   41.2990 O   0  0  0  0  0  0  0  0  0  0  0  0
   37.6680   32.1490   41.3410 C   0  0  0  0  0  0  0  0  0  0  0  0
   37.5990   31.5380   42.7040 C   0  0  1  0  0  0  0  0  0  0  0  0
   34.4380   32.5960   43.2320 H   0  0  0  0  0  0  0  0  0  0  0  0
   35.8620   33.3420   43.7200 H   0  0  0  0  0  0  0  0  0  0  0  0
   35.5290   34.3970   41.8560 H   0  0  0  0  0  0  0  0  0  0  0  0
   35.0000   33.1720   40.8470 H   0  0  0  0  0  0  0  0  0  0  0  0
   38.7550   32.4300   41.2650 H   0  0  0  0  0  0  0  0  0  0  0  0
   37.5780   31.4890   40.4850 H   0  0  0  0  0  0  0  0  0  0  0  0
   37.8050   30.4220   42.4680 H   0  0  0  0  0  0  0  0  0  0  0  0
   39.2960   29.0870   43.5750 Br  0  0  0  0  0  0  0  0  0  0  0  0
   39.5860   30.9170   44.1140 C   0  0  0  0  0  0  0  0  0  0  0  0
   38.7010   31.8870   43.6110 C   0  0  0  0  0  0  0  0  0  0  0  0
   39.0410   33.1310   44.0850 C   0  0  0  0  0  0  0  0  0  0  0  0
   38.4600   33.9860   43.7850 H   0  0  0  0  0  0  0  0  0  0  0  0
   40.0830   33.4370   44.9270 C   0  0  0  0  0  0  0  0  0  0  0  0
   40.2890   34.4410   45.2570 H   0  0  0  0  0  0  0  0  0  0  0  0
   40.8930   32.4120   45.3630 C   0  0  0  0  0  3  0  0  0  0  0  0
   40.6550   31.1180   44.9580 C   0  0  0  0  0  3  0  0  0  0  0  0
   34.4010   30.2290   44.1060 C   0  0  0  0  0  0  0  0  0  0  0  0
   33.9030   31.2420   43.9450 H   0  0  0  0  0  0  0  0  0  0  0  0
   33.6100   29.5360   43.8730 H   0  0  0  0  0  0  0  0  0  0  0  0
   35.4860   30.1250   47.5240 C   0  0  0  0  0  0  0  0  0  0  0  0
   34.1720   29.7200   47.6630 C   0  0  0  0  0  0  0  0  0  0  0  0
   33.6090   29.7090   46.3830 C   0  0  0  0  0  0  0  0  0  0  0  0
   34.5740   30.0950   45.5490 N   0  0  0  0  0  0  0  0  0  0  0  0
   35.6980   30.3440   46.2330 N   0  0  0  0  0  0  0  0  0  0  0  0
   33.6710   29.4560   48.6150 H   0  0  0  0  0  0  0  0  0  0  0  0
   32.6250   29.4230   46.3250 H   0  0  0  0  0  0  0  0  0  0  0  0
   38.1430   31.2640   49.9160 C   0  0  0  0  0  0  0  0  0  0  0  0
   37.3440   31.2370   48.7940 C   0  0  0  0  0  0  0  0  0  0  0  0
   36.3770   30.2520   48.6510 C   0  0  0  0  0  0  0  0  0  0  0  0
   36.3050   29.3680   49.6740 N   0  0  0  0  0  0  0  0  0  0  0  0
   37.0970   29.4060   50.7740 C   0  0  0  0  0  0  0  0  0  0  0  0
   38.0070   30.3610   50.8720 N   0  0  0  0  0  0  0  0  0  0  0  0
   38.8520   32.0940   49.8840 H   0  0  0  0  0  0  0  0  0  0  0  0
   37.4000   31.9470   47.9690 H   0  0  0  0  0  0  0  0  0  0  0  0
   36.9860   28.6650   51.5600 H   0  0  0  0  0  0  0  0  0  0  0  0
  1  2  1  0  0  0  0
  1 26  1  0  0  0  0
  3  1  1  0  0  0  0
  4  1  1  0  0  0  0
  5 10  1  0  0  0  0
  5  4  1  0  0  0  0
  5 11  1  0  0  0  0
  6 12  1  0  0  0  0
  6  5  1  0  0  0  0
  7  8  1  0  0  0  0
  7  6  1  0  0  0  0
  8  9  1  0  0  0  0
  9 16  1  6  0  0  0
  9  4  1  0  0  0  0
  9 19  1  0  0  0  0
 13  6  1  0  0  0  0
 14  8  1  0  0  0  0
 15  8  1  0  0  0  0
 17 18  1  0  0  0  0
 18 25  1  0  0  0  0
 19 20  1  0  0  0  0
 19 18  2  0  0  0  0
 20 22  2  0  0  0  0
 21 20  1  0  0  0  0
 22 23  1  0  0  0  0
 22 24  1  0  0  0  0
 25 24  2  0  0  0  0
 26 32  1  0  0  0  0
 27 26  1  0  0  0  0
 28 26  1  0  0  0  0
 29 30  1  0  0  0  0
 29 38  1  0  0  0  0
 30 34  1  0  0  0  0
 31 30  2  0  0  0  0
 32 33  1  0  0  0  0
 32 31  1  0  0  0  0
 33 29  2  0  0  0  0
 35 31  1  0  0  0  0
 36 41  1  0  0  0  0
 37 36  2  0  0  0  0
 38 37  1  0  0  0  0
 38 39  2  0  0  0  0
 39 40  1  0  0  0  0
 40 41  2  0  0  0  0
 40 44  1  0  0  0  0
 42 36  1  0  0  0  0
 43 37  1  0  0  0  0
M  END
>  <minimizedAffinity>
-5.63885593

>  <minimizedRMSD>
3.99490309

$$$$
