
     RDKit          3D

 44 46  0  0  0  0  0  0  0  0999 V2000
   38.1215   31.4874   48.9339 Br  0  0  0  0  0  0  0  0  0  0  0  0
   36.9271   30.8815   47.5500 C   0  0  0  0  0  0  0  0  0  0  0  0
   37.3059   30.9344   46.2271 C   0  0  0  0  0  0  0  0  0  0  0  0
   36.4190   30.5017   45.2903 C   0  0  0  0  0  0  0  0  0  0  0  0
   35.1621   30.0166   45.6236 C   0  0  0  0  0  0  0  0  0  0  0  0
   34.8119   29.9783   46.9754 C   0  0  0  0  0  0  0  0  0  0  0  0
   35.7010   30.4108   47.9192 C   0  0  0  0  0  0  0  0  0  0  0  0
   39.8769   33.2812   45.1167 C   0  0  0  0  0  0  0  0  0  0  0  0
   41.0689   32.4906   45.1023 C   0  0  0  0  0  0  0  0  0  0  0  0
   40.9469   31.1687   45.4769 C   0  0  0  0  0  0  0  0  0  0  0  0
   39.7215   30.6628   45.8425 N   0  0  0  0  0  0  0  0  0  0  0  0
   38.6278   31.4491   45.8397 C   0  0  0  0  0  0  0  0  0  0  0  0
   38.7218   32.7380   45.4791 N   0  0  0  0  0  0  0  0  0  0  0  0
   35.2219   30.3048   49.2946 C   0  0  0  0  0  0  0  0  0  0  0  0
   34.1225   29.3419   49.5538 C   0  0  0  0  0  0  0  0  0  0  0  0
   34.6025   28.0221   49.4142 N   0  0  0  0  0  0  0  0  0  0  0  0
   33.8973   27.1529   48.5401 C   0  0  0  0  0  0  0  0  0  0  0  0
   32.4674   27.5790   48.5136 C   0  0  0  0  0  0  0  0  0  0  0  0
   36.7757   30.5659   44.2483 H   0  0  0  0  0  0  0  0  0  0  0  0
   34.5961   29.7212   44.7765 H   0  0  0  0  0  0  0  0  0  0  0  0
   33.8202   29.5950   47.0189 H   0  0  0  0  0  0  0  0  0  0  0  0
   39.9245   34.3140   44.8329 H   0  0  0  0  0  0  0  0  0  0  0  0
   41.9608   32.9834   44.8029 H   0  0  0  0  0  0  0  0  0  0  0  0
   41.8414   30.5658   45.4685 H   0  0  0  0  0  0  0  0  0  0  0  0
   34.9781   31.3499   49.6478 H   0  0  0  0  0  0  0  0  0  0  0  0
   36.0894   29.9844   49.9199 H   0  0  0  0  0  0  0  0  0  0  0  0
   33.2094   29.6671   49.1043 H   0  0  0  0  0  0  0  0  0  0  0  0
   33.9264   29.4592   50.6782 H   0  0  0  0  0  0  0  0  0  0  0  0
   35.6362   27.9606   49.2298 H   0  0  0  0  0  0  0  0  0  0  0  0
   34.2812   27.1669   47.4926 H   0  0  0  0  0  0  0  0  0  0  0  0
   33.9197   26.0895   48.8804 H   0  0  0  0  0  0  0  0  0  0  0  0
   32.0133   27.3630   49.5071 H   0  0  0  0  0  0  0  0  0  0  0  0
   32.1873   28.5173   48.0824 H   0  0  0  0  0  0  0  0  0  0  0  0
   29.6616   26.6219   49.6283 Br  0  0  0  0  0  0  0  0  0  0  0  0
   30.5180   26.0931   47.9917 C   0  0  0  0  0  0  0  0  0  0  0  0
   31.7439   26.5803   47.6000 C   0  0  0  0  0  0  0  0  0  0  0  0
   32.2766   26.1489   46.4084 C   0  0  0  0  0  0  0  0  0  0  0  0
   33.2419   26.5313   46.0975 H   0  0  0  0  0  0  0  0  0  0  0  0
   31.5413   25.2452   45.6731 C   0  0  0  0  0  0  0  0  0  0  0  0
   31.9260   24.8827   44.7305 H   0  0  0  0  0  0  0  0  0  0  0  0
   30.3130   24.7513   46.0570 C   0  0  0  0  0  0  0  0  0  0  0  0
   29.7686   25.1885   47.2686 C   0  0  0  0  0  0  0  0  0  0  0  0
   29.7745   24.0383   45.4375 H   0  0  0  0  0  0  0  0  0  0  0  0
   28.8205   24.7860   47.5314 H   0  0  0  0  0  0  0  0  0  0  0  0
  2  7  2  0
  2  1  1  0
  3  2  1  0
  4  5  1  0
  4  3  2  0
  5  6  2  0
  6  7  1  0
  7 14  1  0
  8 13  2  0
  9  8  1  0
  9 10  2  0
 10 11  1  0
 11 12  2  0
 12  3  1  0
 13 12  1  0
 14 15  1  0
 16 15  1  0
 17 16  1  0
 18 17  1  0
  4 19  1  0
  5 20  1  0
  6 21  1  0
  8 22  1  0
  9 23  1  0
 10 24  1  0
 14 25  1  0
 14 26  1  0
 15 27  1  0
 15 28  1  0
 16 29  1  0
 17 30  1  0
 17 31  1  0
 18 32  1  0
 18 33  1  0
 34 35  1  0
 35 36  2  0
 36 37  1  0
 37 38  1  0
 37 39  2  0
 39 40  1  0
 39 41  1  0
 41 42  2  0
 42 35  1  0
 41 43  1  0
 42 44  1  0
 18 36  1  0
M  ISO  8  19  14  20  14  21  14  22  14  23  14  24  14  25   8  26   8
M  ISO  8  27   8  28   8  29   5  30   8  31   8  32   8  33   8  38  15
M  ISO  1  40  16
M  END
>  <DihAtoms>  (1) 
16,17,35,34

>  <DihDeg>  (1) 
76.82917863161083

$$$$
