
 OpenBabel03272508453D

 27 29  0  0  0  0  0  0  0  0999 V2000
   35.7230   29.6260   49.5630 C   0  0  0  0  0  0  0  0  0  0  0  0
   36.7600   29.3550   50.4340 C   0  0  0  0  0  0  0  0  0  0  0  0
   37.8590   29.8910   49.7550 C   0  0  0  0  0  0  0  0  0  0  0  0
   37.4650   30.4380   48.5600 C   0  0  0  0  0  0  0  0  0  0  0  0
   36.1640   30.2640   48.4690 O   0  0  0  0  0  0  0  0  0  0  0  0
   36.6680   28.8540   51.3780 H   0  0  0  0  0  0  0  0  0  0  0  0
   38.8750   29.8500   50.1730 H   0  0  0  0  0  0  0  0  0  0  0  0
   38.2810   33.3230   49.3530 Br  0  0  0  0  0  0  0  0  0  0  0  0
   38.7600   32.3800   47.7890 C   0  0  0  0  0  0  0  0  0  0  0  0
   38.3160   31.0910   47.5720 C   0  0  0  0  0  0  0  0  0  0  0  0
   38.6690   30.4090   46.4260 C   0  0  0  0  0  0  0  0  0  0  0  0
   38.3290   29.3990   46.2430 H   0  0  0  0  0  0  0  0  0  0  0  0
   39.4750   31.0110   45.4810 C   0  0  0  0  0  0  0  0  0  0  0  0
   39.7320   30.4610   44.6070 H   0  0  0  0  0  0  0  0  0  0  0  0
   39.9020   32.3010   45.7260 C   0  0  0  0  0  3  0  0  0  0  0  0
   39.5690   33.0300   46.8730 C   0  0  0  0  0  3  0  0  0  0  0  0
   34.3210   29.2730   49.7870 C   0  0  0  0  0  0  0  0  0  0  0  0
   33.7080   29.8920   50.6990 O   0  0  0  0  0  0  0  0  0  0  0  0
   31.7180   27.1790   48.3720 C   0  0  0  0  0  0  0  0  0  0  0  0
   32.4000   26.3430   47.4950 C   0  0  0  0  0  0  0  0  0  0  0  0
   33.7830   26.4960   47.3810 C   0  0  0  0  0  0  0  0  0  0  0  0
   34.3630   27.4530   48.1380 N   0  0  0  0  0  0  0  0  0  0  0  0
   33.6770   28.2480   48.9800 C   0  0  0  0  0  0  0  0  0  0  0  0
   32.3480   28.1030   49.0910 N   0  0  0  0  0  0  0  0  0  0  0  0
   30.6500   27.0040   48.4090 H   0  0  0  0  0  0  0  0  0  0  0  0
   31.9970   25.5640   46.8650 H   0  0  0  0  0  0  0  0  0  0  0  0
   34.4720   25.9560   46.7670 H   0  0  0  0  0  0  0  0  0  0  0  0
  1 17  1  0  0  0  0
  1  2  2  0  0  0  0
  2  6  1  0  0  0  0
  3  7  1  0  0  0  0
  3  2  1  0  0  0  0
  4  3  2  0  0  0  0
  5  4  1  0  0  0  0
  5  1  1  0  0  0  0
  9  8  1  0  0  0  0
 10  9  1  0  0  0  0
 10  4  1  0  0  0  0
 11 10  2  0  0  0  0
 12 11  1  0  0  0  0
 13 15  2  0  0  0  0
 13 11  1  0  0  0  0
 14 13  1  0  0  0  0
 15 16  1  0  0  0  0
 16  9  2  0  0  0  0
 17 18  2  0  0  0  0
 19 25  1  0  0  0  0
 19 24  1  0  0  0  0
 20 19  2  0  0  0  0
 21 20  1  0  0  0  0
 21 22  2  0  0  0  0
 22 23  1  0  0  0  0
 23 24  2  0  0  0  0
 23 17  1  0  0  0  0
 26 20  1  0  0  0  0
 27 21  1  0  0  0  0
M  END
>  <minimizedAffinity>
-6.12675667

>  <minimizedRMSD>
3.20336056

$$$$
