
     RDKit          3D

 45 48  0  0  0  0  0  0  0  0999 V2000
   37.3271   30.1754   51.5081 C   0  0  0  0  0  0  0  0  0  0  0  0
   38.0668   30.8647   50.5197 C   0  0  0  0  0  0  0  0  0  0  0  0
   37.7064   30.6516   49.1945 C   0  0  0  0  0  0  0  0  0  0  0  0
   36.6623   29.7880   48.9750 N   0  0  0  0  0  0  0  0  0  0  0  0
   35.9876   29.1560   49.9229 C   0  0  0  0  0  0  0  0  0  0  0  0
   36.3380   29.3630   51.2158 N   0  0  0  0  0  0  0  0  0  0  0  0
   38.9348   33.2691   49.0045 F   0  0  0  0  0  0  0  0  0  0  0  0
   38.9170   32.4823   47.9394 C   0  0  0  0  0  0  0  0  0  0  0  0
   38.3389   31.2618   48.0448 C   0  0  0  0  0  0  0  0  0  0  0  0
   38.3772   30.5187   46.8631 C   0  0  0  0  0  0  0  0  0  0  0  0
   38.9464   30.9860   45.7116 C   0  0  0  0  0  0  0  0  0  0  0  0
   39.5184   32.2229   45.6487 C   0  0  0  0  0  0  0  0  0  0  0  0
   39.4987   32.9756   46.7850 C   0  0  0  0  0  0  0  0  0  0  0  0
   34.9954   28.3544   49.4338 O   0  0  0  0  0  0  0  0  0  0  0  0
   34.4443   28.6556   48.1685 C   0  0  0  0  0  0  0  0  0  0  0  0
   33.5679   27.5393   47.6991 C   0  0  0  0  0  0  0  0  0  0  0  0
   32.1238   27.9022   47.7059 C   0  0  0  0  0  0  0  0  0  0  0  0
   31.3549   27.5155   48.7877 C   0  0  0  0  0  0  0  0  0  0  0  0
   30.0270   27.8092   48.8682 C   0  0  0  0  0  0  0  0  0  0  0  0
   29.4446   28.4802   47.8953 N   0  0  0  0  0  0  0  0  0  0  0  0
   30.1930   28.8692   46.8190 C   0  0  0  0  0  0  0  0  0  0  0  0
   31.5174   28.5936   46.7065 N   0  0  0  0  0  0  0  0  0  0  0  0
   37.6394   30.3684   52.5341 H   0  0  0  0  0  0  0  0  0  0  0  0
   38.8862   31.5424   50.6930 H   0  0  0  0  0  0  0  0  0  0  0  0
   37.9463   29.5095   46.8000 H   0  0  0  0  0  0  0  0  0  0  0  0
   38.9596   30.3796   44.8047 H   0  0  0  0  0  0  0  0  0  0  0  0
   39.9621   32.5686   44.7247 H   0  0  0  0  0  0  0  0  0  0  0  0
   39.9431   33.9591   46.7686 H   0  0  0  0  0  0  0  0  0  0  0  0
   33.8017   29.5479   48.3193 H   0  0  0  0  0  0  0  0  0  0  0  0
   35.2276   28.9361   47.4329 H   0  0  0  0  0  0  0  0  0  0  0  0
   33.6927   26.5951   48.2486 H   0  0  0  0  0  0  0  0  0  0  0  0
   33.8202   27.2913   46.6320 H   0  0  0  0  0  0  0  0  0  0  0  0
   31.8243   26.9643   49.5910 H   0  0  0  0  0  0  0  0  0  0  0  0
   29.4575   27.4812   49.7467 H   0  0  0  0  0  0  0  0  0  0  0  0
   28.3607   31.1374   47.8664 Br  0  0  0  0  0  0  0  0  0  0  0  0
   28.7140   30.6753   46.0368 C   0  0  0  0  0  0  0  0  0  0  0  0
   29.5716   29.6163   45.7231 C   0  0  0  0  0  0  0  0  0  0  0  0
   29.8005   29.3148   44.4022 C   0  0  0  0  0  0  0  0  0  0  0  0
   30.4589   28.5016   44.1388 H   0  0  0  0  0  0  0  0  0  0  0  0
   29.2142   30.0198   43.3733 C   0  0  0  0  0  0  0  0  0  0  0  0
   29.4000   29.7758   42.3458 H   0  0  0  0  0  0  0  0  0  0  0  0
   28.3781   31.0531   43.7337 C   0  0  0  0  0  0  0  0  0  0  0  0
   28.0914   31.4253   45.0337 C   0  0  0  0  0  0  0  0  0  0  0  0
   27.8812   31.6522   42.9693 H   0  0  0  0  0  0  0  0  0  0  0  0
   27.4247   32.2481   45.2542 H   0  0  0  0  0  0  0  0  0  0  0  0
  2  1  2  0
  3  2  1  0
  4  3  2  0
  4  5  1  0
  5  6  2  0
  6  1  1  0
  8  9  2  0
  8  7  1  0
  9  3  1  0
 10  9  1  0
 11 10  2  0
 12 11  1  0
 12 13  2  0
 13  8  1  0
 14  5  1  0
 15 14  1  0
 16 15  1  0
 17 16  1  0
 17 18  2  0
 18 19  1  0
 20 19  2  0
 21 20  1  0
 22 21  2  0
 22 17  1  0
  1 23  1  0
  2 24  1  0
 10 25  1  0
 11 26  1  0
 12 27  1  0
 13 28  1  0
 15 29  1  0
 15 30  1  0
 16 31  1  0
 16 32  1  0
 18 33  1  0
 19 34  1  0
 35 36  1  0
 36 37  2  0
 37 38  1  0
 38 39  1  0
 38 40  2  0
 40 41  1  0
 40 42  1  0
 42 43  2  0
 43 36  1  0
 42 44  1  0
 43 45  1  0
 21 37  1  0
M  ISO  8  23  14  24  14  25  14  26  14  27  14  28  14  29   8  30   8
M  ISO  6  31   8  32   8  33  14  34  14  39  15  41  16
M  END
>  <DihAtoms>  (1) 
19,20,36,35

>  <DihDeg>  (1) 
0.0004257971569137839

$$$$
