
     RDKit          3D

 36 39  0  0  0  0  0  0  0  0999 V2000
   34.8735   29.4212   48.5264 C   0  0  0  0  0  0  0  0  0  0  0  0
   34.0399   28.7590   49.3775 N   0  0  0  0  0  0  0  0  0  0  0  0
   32.9651   28.1057   48.9614 C   0  0  0  0  0  0  0  0  0  0  0  0
   32.5820   28.0240   47.6759 N   0  0  0  0  0  0  0  0  0  0  0  0
   33.3575   28.6543   46.7714 C   0  0  0  0  0  0  0  0  0  0  0  0
   32.9819   28.5822   45.4528 C   0  0  0  0  0  0  0  0  0  0  0  0
   33.7446   29.2114   44.4811 C   0  0  0  0  0  0  0  0  0  0  0  0
   34.8709   29.8924   44.9128 C   0  0  0  0  0  0  0  0  0  0  0  0
   35.1943   29.9281   46.2469 C   0  0  0  0  0  0  0  0  0  0  0  0
   34.4658   29.3231   47.2272 C   0  0  0  0  0  0  0  0  0  0  0  0
   37.5630   30.2106   50.7824 C   0  0  0  0  0  0  0  0  0  0  0  0
   38.2669   31.2965   50.2115 C   0  0  0  0  0  0  0  0  0  0  0  0
   37.7802   31.7682   48.9915 C   0  0  0  0  0  0  0  0  0  0  0  0
   36.7210   31.1774   48.4705 N   0  0  0  0  0  0  0  0  0  0  0  0
   36.0451   30.1640   48.9772 C   0  0  0  0  0  0  0  0  0  0  0  0
   36.5147   29.7189   50.1427 N   0  0  0  0  0  0  0  0  0  0  0  0
   37.9416   29.6358   52.0497 N   0  0  0  0  0  0  0  0  0  0  0  0
   32.2989   27.5721   49.6729 H   0  0  0  0  0  0  0  0  0  0  0  0
   32.0920   28.0354   45.1699 H   0  0  0  0  0  0  0  0  0  0  0  0
   33.4084   29.1252   43.4722 H   0  0  0  0  0  0  0  0  0  0  0  0
   35.4288   30.3634   44.1147 H   0  0  0  0  0  0  0  0  0  0  0  0
   36.1025   30.4701   46.4165 H   0  0  0  0  0  0  0  0  0  0  0  0
   39.0833   31.6020   50.8138 H   0  0  0  0  0  0  0  0  0  0  0  0
   38.2443   28.6578   52.2309 H   0  0  0  0  0  0  0  0  0  0  0  0
   37.8699   30.3594   52.7959 H   0  0  0  0  0  0  0  0  0  0  0  0
   38.5522   34.1270   51.0093 Br  0  0  0  0  0  0  0  0  0  0  0  0
   38.8805   34.0107   49.1419 C   0  0  0  0  0  0  0  0  0  0  0  0
   38.4752   32.9135   48.4467 C   0  0  0  0  0  0  0  0  0  0  0  0
   38.8232   32.9668   47.1133 C   0  0  0  0  0  0  0  0  0  0  0  0
   38.5923   32.1986   46.3939 H   0  0  0  0  0  0  0  0  0  0  0  0
   39.5005   34.0087   46.5507 C   0  0  0  0  0  0  0  0  0  0  0  0
   39.7803   34.0555   45.4868 H   0  0  0  0  0  0  0  0  0  0  0  0
   39.8906   35.0992   47.2903 C   0  0  0  0  0  0  0  0  0  0  0  0
   39.5609   35.0910   48.6476 C   0  0  0  0  0  0  0  0  0  0  0  0
   40.4245   35.9221   46.8482 H   0  0  0  0  0  0  0  0  0  0  0  0
   39.8748   35.9502   49.2031 H   0  0  0  0  0  0  0  0  0  0  0  0
  1 15  1  0
  1  2  2  0
  3  2  1  0
  4  3  2  0
  5 10  2  0
  5  4  1  0
  6  5  1  0
  7  8  1  0
  7  6  2  0
  8  9  2  0
  9 10  1  0
 10  1  1  0
 11 17  1  0
 12 11  2  0
 13 12  1  0
 14 15  1  0
 14 13  2  0
 15 16  2  0
 16 11  1  0
  3 18  1  0
  6 19  1  0
  7 20  1  0
  8 21  1  0
  9 22  1  0
 12 23  1  0
 17 24  1  0
 17 25  1  0
 26 27  1  0
 27 28  2  0
 28 29  1  0
 29 30  1  0
 29 31  2  0
 31 32  1  0
 31 33  1  0
 33 34  2  0
 34 27  1  0
 33 35  1  0
 34 36  1  0
 13 28  1  0
M  ISO  8  18  14  19  14  20  14  21  14  22  14  23  14  30  15  32  16
M  END
>  <DihAtoms>  (1) 
11,12,27,26

>  <DihDeg>  (1) 
-163.30582847534413

$$$$
