
     RDKit          3D

 29 31  0  0  0  0  0  0  0  0999 V2000
   37.5133   30.4343   50.9265 C   0  0  0  0  0  0  0  0  0  0  0  0
   37.1940   31.0678   49.7076 C   0  0  0  0  0  0  0  0  0  0  0  0
   35.9659   30.7805   49.1427 C   0  0  0  0  0  0  0  0  0  0  0  0
   35.1280   29.9077   49.7806 N   0  0  0  0  0  0  0  0  0  0  0  0
   35.4770   29.3276   50.9424 C   0  0  0  0  0  0  0  0  0  0  0  0
   36.6711   29.5818   51.5306 N   0  0  0  0  0  0  0  0  0  0  0  0
   38.0720   31.9856   49.0226 C   0  0  0  0  0  0  0  0  0  0  0  0
   38.5488   33.1452   49.5613 C   0  0  0  0  0  0  0  0  0  0  0  0
   39.3895   34.0399   48.9375 C   0  0  0  0  0  0  0  0  0  0  0  0
   39.7990   33.7516   47.6425 C   0  0  0  0  0  0  0  0  0  0  0  0
   39.3180   32.5873   47.1061 C   0  0  0  0  0  0  0  0  0  0  0  0
   38.4984   31.7584   47.7736 N   0  0  0  0  0  0  0  0  0  0  0  0
   38.4947   30.6803   51.3541 H   0  0  0  0  0  0  0  0  0  0  0  0
   35.6844   31.2457   48.2099 H   0  0  0  0  0  0  0  0  0  0  0  0
   34.7681   28.6440   51.3989 H   0  0  0  0  0  0  0  0  0  0  0  0
   38.2550   33.4223   50.5865 H   0  0  0  0  0  0  0  0  0  0  0  0
   39.7241   34.9454   49.4415 H   0  0  0  0  0  0  0  0  0  0  0  0
   40.4574   34.4420   47.1402 H   0  0  0  0  0  0  0  0  0  0  0  0
   37.3877   33.6588   44.9484 Br  0  0  0  0  0  0  0  0  0  0  0  0
   38.9522   32.5820   44.6456 C   0  0  0  0  0  0  0  0  0  0  0  0
   39.6924   32.1993   45.7515 C   0  0  0  0  0  0  0  0  0  0  0  0
   40.7874   31.4329   45.4149 C   0  0  0  0  0  0  0  0  0  0  0  0
   41.4350   31.0803   46.2055 H   0  0  0  0  0  0  0  0  0  0  0  0
   41.1131   31.0845   44.1292 C   0  0  0  0  0  0  0  0  0  0  0  0
   41.9979   30.4744   43.9470 H   0  0  0  0  0  0  0  0  0  0  0  0
   40.3377   31.4972   43.0866 C   0  0  0  0  0  0  0  0  0  0  0  0
   39.2332   32.2607   43.3336 C   0  0  0  0  0  0  0  0  0  0  0  0
   40.6464   31.1902   42.0964 H   0  0  0  0  0  0  0  0  0  0  0  0
   38.6030   32.6002   42.5255 H   0  0  0  0  0  0  0  0  0  0  0  0
  1  6  2  0
  2  1  1  0
  3  2  2  0
  3  4  1  0
  4  5  2  0
  5  6  1  0
  7  8  2  0
  7  2  1  0
  9  8  1  0
 10  9  2  0
 11 10  1  0
 11 12  2  0
 12  7  1  0
  1 13  1  0
  3 14  1  0
  5 15  1  0
  8 16  1  0
  9 17  1  0
 10 18  1  0
 19 20  1  0
 20 21  2  0
 21 22  1  0
 22 23  1  0
 22 24  2  0
 24 25  1  0
 24 26  1  0
 26 27  2  0
 27 20  1  0
 26 28  1  0
 27 29  1  0
 11 21  1  0
M  ISO  8  13  14  14  14  15  14  16  14  17  14  18  14  23  15  25  16
M  END
>  <DihAtoms>  (1) 
9,10,20,19

>  <DihDeg>  (1) 
179.99794235293922

$$$$
