
 OpenBabel03262522323D

 27 29  0  0  0  0  0  0  0  0999 V2000
   38.0510   31.6080   48.7940 C   0  0  0  0  0  0  0  0  0  0  0  0
   38.5560   32.8410   49.0880 C   0  0  0  0  0  0  0  0  0  0  0  0
   39.3280   33.6180   48.2550 C   0  0  0  0  0  0  0  0  0  0  0  0
   39.6310   33.1160   46.9950 C   0  0  0  0  0  0  0  0  0  0  0  0
   39.1220   31.8780   46.7040 C   0  0  0  0  0  0  0  0  0  0  0  0
   38.3730   31.1740   47.5690 N   0  0  0  0  0  0  0  0  0  0  0  0
   38.3460   33.2860   50.0750 H   0  0  0  0  0  0  0  0  0  0  0  0
   39.6920   34.5940   48.5690 H   0  0  0  0  0  0  0  0  0  0  0  0
   40.2350   33.7120   46.3300 H   0  0  0  0  0  0  0  0  0  0  0  0
   37.6660   30.4200   50.9810 C   0  0  0  0  0  0  0  0  0  0  0  0
   37.2470   30.8190   49.6960 C   0  0  0  0  0  0  0  0  0  0  0  0
   35.9900   30.4180   49.2840 C   0  0  0  0  0  0  0  0  0  0  0  0
   35.2210   29.6660   50.1280 N   0  0  0  0  0  0  0  0  0  0  0  0
   35.6650   29.3100   51.3450 C   0  0  0  0  0  0  0  0  0  0  0  0
   36.8910   29.6820   51.7900 N   0  0  0  0  0  0  0  0  0  0  0  0
   38.6690   30.7520   51.2850 H   0  0  0  0  0  0  0  0  0  0  0  0
   35.6320   30.7040   48.3050 H   0  0  0  0  0  0  0  0  0  0  0  0
   35.0080   28.7120   51.9690 H   0  0  0  0  0  0  0  0  0  0  0  0
   36.6210   30.6020   45.4220 Br  0  0  0  0  0  0  0  0  0  0  0  0
   38.3920   30.6450   44.6720 C   0  0  0  0  0  0  0  0  0  0  0  0
   39.3860   31.2690   45.4070 C   0  0  0  0  0  0  0  0  0  0  0  0
   40.6090   31.2390   44.7730 C   0  0  0  0  0  0  0  0  0  0  0  0
   41.4570   31.7000   45.2610 H   0  0  0  0  0  0  0  0  0  0  0  0
   40.8250   30.6560   43.5500 C   0  0  0  0  0  0  0  0  0  0  0  0
   41.8250   30.6750   43.1170 H   0  0  0  0  0  0  0  0  0  0  0  0
   39.7990   30.0590   42.8820 C   0  0  0  0  0  3  0  0  0  0  0  0
   38.5530   30.0440   43.4410 C   0  0  0  0  0  3  0  0  0  0  0  0
  1  2  1  0  0  0  0
  1 11  1  0  0  0  0
  2  7  1  0  0  0  0
  3  8  1  0  0  0  0
  3  2  2  0  0  0  0
  4  3  1  0  0  0  0
  5  4  2  0  0  0  0
  5  6  1  0  0  0  0
  6  1  2  0  0  0  0
  9  4  1  0  0  0  0
 10 16  1  0  0  0  0
 10 15  1  0  0  0  0
 11 10  2  0  0  0  0
 12 11  1  0  0  0  0
 12 13  2  0  0  0  0
 13 14  1  0  0  0  0
 14 15  2  0  0  0  0
 14 18  1  0  0  0  0
 17 12  1  0  0  0  0
 20 21  1  0  0  0  0
 20 19  1  0  0  0  0
 21  5  1  0  0  0  0
 22 23  1  0  0  0  0
 22 21  2  0  0  0  0
 24 22  1  0  0  0  0
 25 24  1  0  0  0  0
 26 27  1  0  0  0  0
 26 24  2  0  0  0  0
 27 20  2  0  0  0  0
M  END
>  <minimizedAffinity>
-5.82003784

>  <minimizedRMSD>
1.07384479

$$$$
