
     RDKit          3D

 20 21  0  0  0  0  0  0  0  0999 V2000
   37.2959   30.1831   51.4314 C   0  0  0  0  0  0  0  0  0  0  0  0
   38.0345   30.6560   50.3385 C   0  0  0  0  0  0  0  0  0  0  0  0
   37.6799   30.3436   49.0278 C   0  0  0  0  0  0  0  0  0  0  0  0
   36.5817   29.5583   48.8914 N   0  0  0  0  0  0  0  0  0  0  0  0
   35.8749   29.1060   49.9424 C   0  0  0  0  0  0  0  0  0  0  0  0
   36.2270   29.4140   51.1964 N   0  0  0  0  0  0  0  0  0  0  0  0
   37.5841   30.4346   52.4435 H   0  0  0  0  0  0  0  0  0  0  0  0
   38.8908   31.2727   50.5413 H   0  0  0  0  0  0  0  0  0  0  0  0
   35.0235   28.4880   49.6398 H   0  0  0  0  0  0  0  0  0  0  0  0
   35.9155   32.0287   47.2183 Br  0  0  0  0  0  0  0  0  0  0  0  0
   37.7634   31.6102   46.9599 C   0  0  0  0  0  0  0  0  0  0  0  0
   38.4361   30.8263   47.8760 C   0  0  0  0  0  0  0  0  0  0  0  0
   39.7667   30.5561   47.6400 C   0  0  0  0  0  0  0  0  0  0  0  0
   40.3033   29.9481   48.3431 H   0  0  0  0  0  0  0  0  0  0  0  0
   40.3931   31.0621   46.5162 C   0  0  0  0  0  0  0  0  0  0  0  0
   41.4453   30.8421   46.3398 H   0  0  0  0  0  0  0  0  0  0  0  0
   39.7143   31.8561   45.5872 C   0  0  0  0  0  0  0  0  0  0  0  0
   38.3738   32.1227   45.8337 C   0  0  0  0  0  0  0  0  0  0  0  0
   40.2436   32.2330   44.7186 H   0  0  0  0  0  0  0  0  0  0  0  0
   37.8264   32.7377   45.1250 H   0  0  0  0  0  0  0  0  0  0  0  0
  2  1  2  0
  3  2  1  0
  4  3  2  0
  4  5  1  0
  5  6  2  0
  6  1  1  0
  1  7  1  0
  2  8  1  0
  5  9  1  0
 10 11  1  0
 11 12  2  0
 12 13  1  0
 13 14  1  0
 13 15  2  0
 15 16  1  0
 15 17  1  0
 17 18  2  0
 18 11  1  0
 17 19  1  0
 18 20  1  0
  3 12  1  0
M  ISO  5   7  14   8  14   9  14  14  15  16  16
M  END
>  <DihAtoms>  (1) 
1,2,11,10

>  <DihDeg>  (1) 
-179.98847856025327

$$$$
