REMARK  Name = 
REMARK  5 active torsions:
REMARK  status: ('A' for Active; 'I' for Inactive)
REMARK    1  A    between atoms: C_1  and  C_2
REMARK    2  A    between atoms: C_1  and  O_9
REMARK    3  A    between atoms: C_2  and  C_3
REMARK    4  A    between atoms: O_9  and  C_14
REMARK    5  A    between atoms: C_12  and  C_27
REMARK                            x       y       z     vdW  Elec       q    Type
REMARK                         _______ _______ _______ _____ _____    ______ ____
ROOT
ATOM      1  C   UNL     1      37.239  30.170  51.278  0.00  0.00    +0.000 A 
ATOM      2  C   UNL     1      37.910  30.609  50.132  0.00  0.00    +0.000 A 
ATOM      3  C   UNL     1      37.438  30.231  48.897  0.00  0.00    +0.000 A 
ATOM      4  N   UNL     1      36.321  29.432  48.918  0.00  0.00    +0.000 NA
ATOM      5  C   UNL     1      35.693  29.019  50.008  0.00  0.00    +0.000 A 
ATOM      6  N   UNL     1      36.168  29.401  51.202  0.00  0.00    +0.000 NA
ATOM      7  H   UNL     1      37.649  30.496  52.238  0.00  0.00    +0.000 HD
ATOM      8  H   UNL     1      38.761  31.199  50.209  0.00  0.00    +0.000 HD
ENDROOT
BRANCH   3  11
ATOM      9 BR   UNL     1      36.026  29.107  46.185  0.00  0.00    +0.000 Br
ATOM     10  C   UNL     1      37.551  30.189  46.347  0.00  0.00    +0.000 A 
ATOM     11  C   UNL     1      37.981  30.544  47.587  0.00  0.00    +0.000 A 
ATOM     12  C   UNL     1      39.140  31.311  47.552  0.00  0.00    +0.000 A 
ATOM     13  H   UNL     1      39.633  31.689  48.464  0.00  0.00    +0.000 HD
ATOM     14  C   UNL     1      39.789  31.678  46.395  0.00  0.00    +0.000 A 
ATOM     15  H   UNL     1      40.677  32.269  46.414  0.00  0.00    +0.000 HD
ATOM     16  C   UNL     1      39.296  31.284  45.175  0.00  0.00    +0.000 A 
ATOM     17  C   UNL     1      38.165  30.532  45.170  0.00  0.00    +0.000 A 
ENDBRANCH   3  11
BRANCH   5  18
ATOM     18  O   UNL     1      34.606  28.231  49.748  0.00  0.00    +0.000 OA
BRANCH  18  19
ATOM     19  C   UNL     1      33.717  28.617  48.704  0.00  0.00    +0.000 C 
ATOM     20  H   UNL     1      34.204  29.093  47.856  0.00  0.00    +0.000 HD
ATOM     21  H   UNL     1      33.059  29.410  49.163  0.00  0.00    +0.000 HD
BRANCH  19  22
ATOM     22  C   UNL     1      32.817  27.469  48.348  0.00  0.00    +0.000 C 
ATOM     23  H   UNL     1      33.065  27.186  47.289  0.00  0.00    +0.000 HD
ATOM     24  H   UNL     1      32.983  26.559  48.961  0.00  0.00    +0.000 HD
BRANCH  22  25
ATOM     25  C   UNL     1      31.379  27.866  48.333  0.00  0.00    +0.000 A 
ATOM     26  C   UNL     1      30.685  27.742  49.530  0.00  0.00    +0.000 A 
ATOM     27  C   UNL     1      29.359  28.071  49.666  0.00  0.00    +0.000 A 
ATOM     28  N   UNL     1      28.726  28.528  48.595  0.00  0.00    +0.000 NA
ATOM     29  C   UNL     1      29.394  28.653  47.418  0.00  0.00    +0.000 A 
ATOM     30  N   UNL     1      30.699  28.334  47.265  0.00  0.00    +0.000 NA
ATOM     31  H   UNL     1      31.209  27.363  50.421  0.00  0.00    +0.000 HD
ATOM     32  H   UNL     1      28.890  27.951  50.615  0.00  0.00    +0.000 HD
ATOM     33  H   UNL     1      28.825  29.031  46.579  0.00  0.00    +0.000 HD
ENDBRANCH  22  25
ENDBRANCH  19  22
ENDBRANCH  18  19
ENDBRANCH   5  18
TORSDOF 5
