
 OpenBabel03262523493D

 38 41  0  0  0  0  0  0  0  0999 V2000
   35.5370   32.5700   32.5390 Cl  0  0  0  0  0  0  0  0  0  0  0  0
   35.8970   30.8580   32.5220 C   0  0  0  0  0  0  0  0  0  0  0  0
   35.5750   30.0560   33.6070 C   0  0  0  0  0  0  0  0  0  0  0  0
   35.8920   28.7270   33.5090 C   0  0  0  0  0  0  0  0  0  0  0  0
   36.5000   28.1720   32.4110 C   0  0  0  0  0  0  0  0  0  0  0  0
   36.8090   29.0060   31.3410 C   0  0  0  0  0  0  0  0  0  0  0  0
   37.5800   28.2550   29.9700 Cl  0  0  0  0  0  0  0  0  0  0  0  0
   36.5120   30.3490   31.3870 C   0  0  0  0  0  0  0  0  0  0  0  0
   35.6290   28.1110   34.3750 H   0  0  0  0  0  0  0  0  0  0  0  0
   36.7700   30.9460   30.5380 H   0  0  0  0  0  0  0  0  0  0  0  0
   38.7400   27.1880   34.2080 Cl  0  0  0  0  0  0  0  0  0  0  0  0
   37.7420   26.1110   33.2210 C   0  0  0  0  0  0  0  0  0  0  0  0
   36.7710   26.7360   32.4660 C   0  0  0  0  0  0  0  0  0  0  0  0
   35.9370   25.9650   31.6560 C   0  0  0  0  0  0  0  0  0  0  0  0
   36.0830   24.5820   31.6100 C   0  0  0  0  0  0  0  0  0  0  0  0
   37.0590   23.9980   32.3740 C   0  0  0  0  0  0  0  0  0  0  0  0
   37.8910   24.7450   33.1780 C   0  0  0  0  0  0  0  0  0  0  0  0
   35.1580   26.4010   31.0430 H   0  0  0  0  0  0  0  0  0  0  0  0
   35.4430   23.9700   30.9860 H   0  0  0  0  0  0  0  0  0  0  0  0
   37.2430   22.9320   32.3980 H   0  0  0  0  0  0  0  0  0  0  0  0
   40.7900   24.5120   31.9850 Br  0  0  0  0  0  0  0  0  0  0  0  0
   40.3000   24.0670   33.7540 C   0  0  0  0  0  0  0  0  0  0  0  0
   38.9650   24.2560   34.0380 C   0  0  0  0  0  0  0  0  0  0  0  0
   38.4720   23.9660   35.3110 C   0  0  0  0  0  0  0  0  0  0  0  0
   37.4530   24.0690   35.6610 H   0  0  0  0  0  0  0  0  0  0  0  0
   39.3180   23.4810   36.3090 C   0  0  0  0  0  0  0  0  0  0  0  0
   38.9910   23.2400   37.3120 H   0  0  0  0  0  0  0  0  0  0  0  0
   40.6510   23.2960   36.0100 C   0  0  0  0  0  3  0  0  0  0  0  0
   41.1370   23.5880   34.7400 C   0  0  0  0  0  3  0  0  0  0  0  0
   35.0140   31.9760   36.8160 C   0  0  0  0  0  0  0  0  0  0  0  0
   35.6630   31.3640   35.7390 C   0  0  0  0  0  0  0  0  0  0  0  0
   34.9270   30.7080   34.7490 C   0  0  0  0  0  0  0  0  0  0  0  0
   33.5600   30.6970   34.8860 N   0  0  0  0  0  0  0  0  0  0  0  0
   32.9860   31.3020   35.9420 C   0  0  0  0  0  0  0  0  0  0  0  0
   33.6730   31.9250   36.8850 N   0  0  0  0  0  0  0  0  0  0  0  0
   35.6440   32.4660   37.5470 H   0  0  0  0  0  0  0  0  0  0  0  0
   36.7420   31.3760   35.6370 H   0  0  0  0  0  0  0  0  0  0  0  0
   31.8930   31.2080   35.9120 H   0  0  0  0  0  0  0  0  0  0  0  0
  2  1  1  0  0  0  0
  2  3  1  0  0  0  0
  3 32  1  0  0  0  0
  4  3  2  0  0  0  0
  4  9  1  0  0  0  0
  5 13  1  0  0  0  0
  5  4  1  0  0  0  0
  6  8  1  0  0  0  0
  6  5  2  0  0  0  0
  7  6  1  0  0  0  0
  8  2  2  0  0  0  0
 10  8  1  0  0  0  0
 12 11  1  0  0  0  0
 13 12  2  0  0  0  0
 14 13  1  0  0  0  0
 15 14  2  0  0  0  0
 15 16  1  0  0  0  0
 16 20  1  0  0  0  0
 16 17  2  0  0  0  0
 17 12  1  0  0  0  0
 17 23  1  0  0  0  0
 18 14  1  0  0  0  0
 19 15  1  0  0  0  0
 21 22  1  0  0  0  0
 22 23  2  0  0  0  0
 22 29  1  0  0  0  0
 23 24  1  0  0  0  0
 24 25  1  0  0  0  0
 24 26  2  0  0  0  0
 26 27  1  0  0  0  0
 28 26  1  0  0  0  0
 29 28  2  0  0  0  0
 30 35  1  0  0  0  0
 30 36  1  0  0  0  0
 31 30  2  0  0  0  0
 32 33  2  0  0  0  0
 32 31  1  0  0  0  0
 33 34  1  0  0  0  0
 34 35  2  0  0  0  0
 37 31  1  0  0  0  0
 38 34  1  0  0  0  0
M  END
>  <minimizedAffinity>
-6.35293961

$$$$

 OpenBabel03262523493D

 38 41  0  0  0  0  0  0  0  0999 V2000
   36.8920   30.2480   31.0260 Cl  0  0  0  0  0  0  0  0  0  0  0  0
   37.1400   28.6070   31.5810 C   0  0  0  0  0  0  0  0  0  0  0  0
   36.3750   28.0860   32.6140 C   0  0  0  0  0  0  0  0  0  0  0  0
   36.6360   26.7930   32.9850 C   0  0  0  0  0  0  0  0  0  0  0  0
   37.5980   26.0140   32.3920 C   0  0  0  0  0  0  0  0  0  0  0  0
   38.3470   26.5690   31.3590 C   0  0  0  0  0  0  0  0  0  0  0  0
   39.5550   25.5410   30.6380 Cl  0  0  0  0  0  0  0  0  0  0  0  0
   38.1250   27.8640   30.9470 C   0  0  0  0  0  0  0  0  0  0  0  0
   36.0220   26.4000   33.8010 H   0  0  0  0  0  0  0  0  0  0  0  0
   38.7280   28.2420   30.1490 H   0  0  0  0  0  0  0  0  0  0  0  0
   39.5690   25.5310   34.6500 Cl  0  0  0  0  0  0  0  0  0  0  0  0
   38.5920   24.2480   33.9210 C   0  0  0  0  0  0  0  0  0  0  0  0
   37.7500   24.6540   32.9060 C   0  0  0  0  0  0  0  0  0  0  0  0
   36.9420   23.7090   32.2730 C   0  0  0  0  0  0  0  0  0  0  0  0
   36.9840   22.3730   32.6620 C   0  0  0  0  0  0  0  0  0  0  0  0
   37.8330   22.0090   33.6740 C   0  0  0  0  0  0  0  0  0  0  0  0
   38.6380   22.9300   34.3080 C   0  0  0  0  0  0  0  0  0  0  0  0
   36.2630   23.9700   31.4720 H   0  0  0  0  0  0  0  0  0  0  0  0
   36.3630   21.6290   32.1800 H   0  0  0  0  0  0  0  0  0  0  0  0
   37.9310   20.9960   34.0390 H   0  0  0  0  0  0  0  0  0  0  0  0
   37.6720   23.3430   37.2730 Br  0  0  0  0  0  0  0  0  0  0  0  0
   39.4040   22.7900   36.7560 C   0  0  0  0  0  0  0  0  0  0  0  0
   39.5830   22.6820   35.3940 C   0  0  0  0  0  0  0  0  0  0  0  0
   40.8170   22.2820   34.8800 C   0  0  0  0  0  0  0  0  0  0  0  0
   41.0860   22.1580   33.8380 H   0  0  0  0  0  0  0  0  0  0  0  0
   41.8810   21.9880   35.7310 C   0  0  0  0  0  0  0  0  0  0  0  0
   42.8590   21.6730   35.3890 H   0  0  0  0  0  0  0  0  0  0  0  0
   41.6880   22.1010   37.0920 C   0  0  0  0  0  3  0  0  0  0  0  0
   40.4550   22.5000   37.5990 C   0  0  0  0  0  3  0  0  0  0  0  0
   34.6450   30.5700   34.8790 C   0  0  0  0  0  0  0  0  0  0  0  0
   35.6320   29.7390   34.3390 C   0  0  0  0  0  0  0  0  0  0  0  0
   35.3650   28.9670   33.2060 C   0  0  0  0  0  0  0  0  0  0  0  0
   34.1080   29.0670   32.6590 N   0  0  0  0  0  0  0  0  0  0  0  0
   33.1950   29.8830   33.2190 C   0  0  0  0  0  0  0  0  0  0  0  0
   33.4370   30.6160   34.2920 N   0  0  0  0  0  0  0  0  0  0  0  0
   34.9170   31.1400   35.7580 H   0  0  0  0  0  0  0  0  0  0  0  0
   36.6210   29.6650   34.7750 H   0  0  0  0  0  0  0  0  0  0  0  0
   32.2440   29.8530   32.6720 H   0  0  0  0  0  0  0  0  0  0  0  0
  1  2  1  0  0  0  0
  2  3  1  0  0  0  0
  3  4  2  0  0  0  0
  3 32  1  0  0  0  0
  4  9  1  0  0  0  0
  5 13  1  0  0  0  0
  5  4  1  0  0  0  0
  6  5  2  0  0  0  0
  7  6  1  0  0  0  0
  8  6  1  0  0  0  0
  8  2  2  0  0  0  0
 10  8  1  0  0  0  0
 12 17  1  0  0  0  0
 12 11  1  0  0  0  0
 13 12  2  0  0  0  0
 14 15  2  0  0  0  0
 14 13  1  0  0  0  0
 15 16  1  0  0  0  0
 16 20  1  0  0  0  0
 16 17  2  0  0  0  0
 17 23  1  0  0  0  0
 18 14  1  0  0  0  0
 19 15  1  0  0  0  0
 22 21  1  0  0  0  0
 22 29  1  0  0  0  0
 23 22  2  0  0  0  0
 24 23  1  0  0  0  0
 24 26  2  0  0  0  0
 25 24  1  0  0  0  0
 26 28  1  0  0  0  0
 27 26  1  0  0  0  0
 28 29  2  0  0  0  0
 30 36  1  0  0  0  0
 31 37  1  0  0  0  0
 31 30  1  0  0  0  0
 32 31  2  0  0  0  0
 33 32  1  0  0  0  0
 33 34  2  0  0  0  0
 34 35  1  0  0  0  0
 35 30  2  0  0  0  0
 38 34  1  0  0  0  0
M  END
>  <minimizedAffinity>
-6.26517153

$$$$

 OpenBabel03262523493D

 38 41  0  0  0  0  0  0  0  0999 V2000
   36.0140   30.9900   31.5020 Cl  0  0  0  0  0  0  0  0  0  0  0  0
   36.5130   29.3650   31.9160 C   0  0  0  0  0  0  0  0  0  0  0  0
   36.0770   28.7680   33.0900 C   0  0  0  0  0  0  0  0  0  0  0  0
   36.5150   27.4940   33.3350 C   0  0  0  0  0  0  0  0  0  0  0  0
   37.3470   26.8020   32.4890 C   0  0  0  0  0  0  0  0  0  0  0  0
   37.7650   27.4320   31.3220 C   0  0  0  0  0  0  0  0  0  0  0  0
   38.8190   26.5150   30.2800 Cl  0  0  0  0  0  0  0  0  0  0  0  0
   37.3530   28.7120   31.0260 C   0  0  0  0  0  0  0  0  0  0  0  0
   36.1600   27.0400   34.2650 H   0  0  0  0  0  0  0  0  0  0  0  0
   37.7030   29.1500   30.1160 H   0  0  0  0  0  0  0  0  0  0  0  0
   35.9600   24.4490   31.1630 Cl  0  0  0  0  0  0  0  0  0  0  0  0
   37.2040   24.2690   32.4090 C   0  0  0  0  0  0  0  0  0  0  0  0
   37.7230   25.4500   32.8980 C   0  0  0  0  0  0  0  0  0  0  0  0
   38.7090   25.4040   33.8840 C   0  0  0  0  0  0  0  0  0  0  0  0
   39.1630   24.1810   34.3690 C   0  0  0  0  0  0  0  0  0  0  0  0
   38.6240   23.0300   33.8580 C   0  0  0  0  0  0  0  0  0  0  0  0
   37.6490   23.0590   32.8840 C   0  0  0  0  0  0  0  0  0  0  0  0
   39.1520   26.2980   34.3040 H   0  0  0  0  0  0  0  0  0  0  0  0
   39.9280   24.1300   35.1330 H   0  0  0  0  0  0  0  0  0  0  0  0
   38.9160   22.0390   34.1760 H   0  0  0  0  0  0  0  0  0  0  0  0
   38.8400   21.9160   30.2080 Br  0  0  0  0  0  0  0  0  0  0  0  0
   37.3150   21.2430   31.0980 C   0  0  0  0  0  0  0  0  0  0  0  0
   36.9910   21.9160   32.2560 C   0  0  0  0  0  0  0  0  0  0  0  0
   35.8850   21.5210   33.0090 C   0  0  0  0  0  0  0  0  0  0  0  0
   35.5250   21.9600   33.9310 H   0  0  0  0  0  0  0  0  0  0  0  0
   35.0960   20.4440   32.6040 C   0  0  0  0  0  0  0  0  0  0  0  0
   34.2290   20.0930   33.1490 H   0  0  0  0  0  0  0  0  0  0  0  0
   35.4320   19.7800   31.4430 C   0  0  0  0  0  3  0  0  0  0  0  0
   36.5360   20.1800   30.6960 C   0  0  0  0  0  3  0  0  0  0  0  0
   34.8170   31.1880   35.7080 C   0  0  0  0  0  0  0  0  0  0  0  0
   35.6900   30.4500   34.9020 C   0  0  0  0  0  0  0  0  0  0  0  0
   35.1910   29.5580   33.9500 C   0  0  0  0  0  0  0  0  0  0  0  0
   33.8250   29.4470   33.8480 N   0  0  0  0  0  0  0  0  0  0  0  0
   33.0300   30.1820   34.6480 C   0  0  0  0  0  0  0  0  0  0  0  0
   33.4920   31.0280   35.5530 N   0  0  0  0  0  0  0  0  0  0  0  0
   35.2700   31.8600   36.4250 H   0  0  0  0  0  0  0  0  0  0  0  0
   36.7660   30.5420   34.9880 H   0  0  0  0  0  0  0  0  0  0  0  0
   31.9690   29.9830   34.4480 H   0  0  0  0  0  0  0  0  0  0  0  0
  1  2  1  0  0  0  0
  2  3  1  0  0  0  0
  3  4  2  0  0  0  0
  3 32  1  0  0  0  0
  4  9  1  0  0  0  0
  5 13  1  0  0  0  0
  5  4  1  0  0  0  0
  6  5  2  0  0  0  0
  7  6  1  0  0  0  0
  8  6  1  0  0  0  0
  8  2  2  0  0  0  0
 10  8  1  0  0  0  0
 11 12  1  0  0  0  0
 12 17  2  0  0  0  0
 12 13  1  0  0  0  0
 13 14  2  0  0  0  0
 14 18  1  0  0  0  0
 14 15  1  0  0  0  0
 15 19  1  0  0  0  0
 16 20  1  0  0  0  0
 16 15  2  0  0  0  0
 17 16  1  0  0  0  0
 21 22  1  0  0  0  0
 22 23  1  0  0  0  0
 23 17  1  0  0  0  0
 23 24  2  0  0  0  0
 24 25  1  0  0  0  0
 26 24  1  0  0  0  0
 26 27  1  0  0  0  0
 28 26  2  0  0  0  0
 29 22  2  0  0  0  0
 29 28  1  0  0  0  0
 30 36  1  0  0  0  0
 31 37  1  0  0  0  0
 31 30  2  0  0  0  0
 32 31  1  0  0  0  0
 33 32  2  0  0  0  0
 33 34  1  0  0  0  0
 34 35  2  0  0  0  0
 35 30  1  0  0  0  0
 38 34  1  0  0  0  0
M  END
>  <minimizedAffinity>
-6.20926523

$$$$

 OpenBabel03262523493D

 38 41  0  0  0  0  0  0  0  0999 V2000
   39.4780   21.8650   33.4720 Cl  0  0  0  0  0  0  0  0  0  0  0  0
   38.7900   23.4420   33.1570 C   0  0  0  0  0  0  0  0  0  0  0  0
   37.5030   23.5650   32.6520 C   0  0  0  0  0  0  0  0  0  0  0  0
   37.0430   24.8360   32.4350 C   0  0  0  0  0  0  0  0  0  0  0  0
   37.7830   25.9640   32.6900 C   0  0  0  0  0  0  0  0  0  0  0  0
   39.0690   25.8040   33.1950 C   0  0  0  0  0  0  0  0  0  0  0  0
   39.9690   27.2640   33.5020 Cl  0  0  0  0  0  0  0  0  0  0  0  0
   39.5810   24.5480   33.4320 C   0  0  0  0  0  0  0  0  0  0  0  0
   36.0260   24.9120   32.0370 H   0  0  0  0  0  0  0  0  0  0  0  0
   40.5740   24.4810   33.8210 H   0  0  0  0  0  0  0  0  0  0  0  0
   36.4330   27.4520   34.9660 Cl  0  0  0  0  0  0  0  0  0  0  0  0
   36.4870   28.0600   33.3040 C   0  0  0  0  0  0  0  0  0  0  0  0
   37.1450   27.2480   32.4020 C   0  0  0  0  0  0  0  0  0  0  0  0
   37.2370   27.6470   31.0680 C   0  0  0  0  0  0  0  0  0  0  0  0
   36.6720   28.8490   30.6530 C   0  0  0  0  0  0  0  0  0  0  0  0
   36.0280   29.6280   31.5780 C   0  0  0  0  0  0  0  0  0  0  0  0
   35.9280   29.2480   32.8990 C   0  0  0  0  0  0  0  0  0  0  0  0
   37.7400   27.0510   30.3180 H   0  0  0  0  0  0  0  0  0  0  0  0
   36.7360   29.1720   29.6210 H   0  0  0  0  0  0  0  0  0  0  0  0
   35.5610   30.5750   31.3430 H   0  0  0  0  0  0  0  0  0  0  0  0
   32.7910   29.1590   33.0990 Br  0  0  0  0  0  0  0  0  0  0  0  0
   33.9340   30.0900   34.2810 C   0  0  0  0  0  0  0  0  0  0  0  0
   35.2750   29.9760   33.9830 C   0  0  0  0  0  0  0  0  0  0  0  0
   36.2260   30.6160   34.7780 C   0  0  0  0  0  0  0  0  0  0  0  0
   37.3020   30.6060   34.6540 H   0  0  0  0  0  0  0  0  0  0  0  0
   35.8370   31.3760   35.8810 C   0  0  0  0  0  0  0  0  0  0  0  0
   36.5300   31.8930   36.5320 H   0  0  0  0  0  0  0  0  0  0  0  0
   34.4920   31.4820   36.1670 C   0  0  0  0  0  3  0  0  0  0  0  0
   33.5490   30.8420   35.3700 C   0  0  0  0  0  3  0  0  0  0  0  0
   35.9390   20.5930   30.9150 C   0  0  0  0  0  0  0  0  0  0  0  0
   36.6520   21.7780   31.1200 C   0  0  0  0  0  0  0  0  0  0  0  0
   36.7640   22.3240   32.4010 C   0  0  0  0  0  0  0  0  0  0  0  0
   36.1520   21.6470   33.4280 N   0  0  0  0  0  0  0  0  0  0  0  0
   35.4790   20.5100   33.1750 C   0  0  0  0  0  0  0  0  0  0  0  0
   35.3650   19.9850   31.9670 N   0  0  0  0  0  0  0  0  0  0  0  0
   35.8910   20.2250   29.8970 H   0  0  0  0  0  0  0  0  0  0  0  0
   37.1330   22.3070   30.3050 H   0  0  0  0  0  0  0  0  0  0  0  0
   35.0470   20.0890   34.0920 H   0  0  0  0  0  0  0  0  0  0  0  0
  2  8  1  0  0  0  0
  2  1  1  0  0  0  0
  3  2  2  0  0  0  0
  4  3  1  0  0  0  0
  4  5  2  0  0  0  0
  5  6  1  0  0  0  0
  6  8  2  0  0  0  0
  6  7  1  0  0  0  0
  8 10  1  0  0  0  0
  9  4  1  0  0  0  0
 12 11  1  0  0  0  0
 13  5  1  0  0  0  0
 13 12  2  0  0  0  0
 14 13  1  0  0  0  0
 15 14  2  0  0  0  0
 15 16  1  0  0  0  0
 16 17  2  0  0  0  0
 17 12  1  0  0  0  0
 17 23  1  0  0  0  0
 18 14  1  0  0  0  0
 19 15  1  0  0  0  0
 20 16  1  0  0  0  0
 21 22  1  0  0  0  0
 22 29  1  0  0  0  0
 23 22  2  0  0  0  0
 23 24  1  0  0  0  0
 24 26  2  0  0  0  0
 25 24  1  0  0  0  0
 26 28  1  0  0  0  0
 26 27  1  0  0  0  0
 29 28  2  0  0  0  0
 30 31  2  0  0  0  0
 30 35  1  0  0  0  0
 31 32  1  0  0  0  0
 32  3  1  0  0  0  0
 32 33  2  0  0  0  0
 34 33  1  0  0  0  0
 34 38  1  0  0  0  0
 35 34  2  0  0  0  0
 36 30  1  0  0  0  0
 37 31  1  0  0  0  0
M  END
>  <minimizedAffinity>
-6.16759872

$$$$

 OpenBabel03262523493D

 38 41  0  0  0  0  0  0  0  0999 V2000
   35.5340   32.1620   32.2410 Cl  0  0  0  0  0  0  0  0  0  0  0  0
   36.0040   30.4790   32.3270 C   0  0  0  0  0  0  0  0  0  0  0  0
   35.7490   29.7310   33.4670 C   0  0  0  0  0  0  0  0  0  0  0  0
   36.1500   28.4220   33.4490 C   0  0  0  0  0  0  0  0  0  0  0  0
   36.7780   27.8350   32.3780 C   0  0  0  0  0  0  0  0  0  0  0  0
   37.0190   28.6160   31.2520 C   0  0  0  0  0  0  0  0  0  0  0  0
   37.8180   27.8280   29.9180 Cl  0  0  0  0  0  0  0  0  0  0  0  0
   36.6360   29.9380   31.2170 C   0  0  0  0  0  0  0  0  0  0  0  0
   35.9400   27.8480   34.3570 H   0  0  0  0  0  0  0  0  0  0  0  0
   36.8430   30.4930   30.3270 H   0  0  0  0  0  0  0  0  0  0  0  0
   39.2510   27.1340   33.9940 Cl  0  0  0  0  0  0  0  0  0  0  0  0
   38.2240   25.9230   33.2120 C   0  0  0  0  0  0  0  0  0  0  0  0
   37.1430   26.4270   32.5200 C   0  0  0  0  0  0  0  0  0  0  0  0
   36.2780   25.5440   31.8720 C   0  0  0  0  0  0  0  0  0  0  0  0
   36.5040   24.1720   31.9230 C   0  0  0  0  0  0  0  0  0  0  0  0
   37.5890   23.7100   32.6210 C   0  0  0  0  0  0  0  0  0  0  0  0
   38.4520   24.5680   33.2660 C   0  0  0  0  0  0  0  0  0  0  0  0
   35.4140   25.8830   31.3140 H   0  0  0  0  0  0  0  0  0  0  0  0
   35.8420   23.4750   31.4250 H   0  0  0  0  0  0  0  0  0  0  0  0
   37.8400   22.6620   32.7120 H   0  0  0  0  0  0  0  0  0  0  0  0
   38.1500   24.0940   36.3600 Br  0  0  0  0  0  0  0  0  0  0  0  0
   39.7650   23.9600   35.3880 C   0  0  0  0  0  0  0  0  0  0  0  0
   39.6390   24.2150   34.0400 C   0  0  0  0  0  0  0  0  0  0  0  0
   40.7570   24.1500   33.2080 C   0  0  0  0  0  0  0  0  0  0  0  0
   40.7940   24.3250   32.1400 H   0  0  0  0  0  0  0  0  0  0  0  0
   42.0120   23.8270   33.7260 C   0  0  0  0  0  0  0  0  0  0  0  0
   42.9120   23.7620   33.1280 H   0  0  0  0  0  0  0  0  0  0  0  0
   42.1230   23.5750   35.0770 C   0  0  0  0  0  3  0  0  0  0  0  0
   41.0040   23.6420   35.9010 C   0  0  0  0  0  3  0  0  0  0  0  0
   33.0880   30.9630   35.8540 C   0  0  0  0  0  0  0  0  0  0  0  0
   33.7000   30.2990   34.7860 C   0  0  0  0  0  0  0  0  0  0  0  0
   35.0760   30.4130   34.5760 C   0  0  0  0  0  0  0  0  0  0  0  0
   35.7840   31.1950   35.4570 N   0  0  0  0  0  0  0  0  0  0  0  0
   35.1450   31.8120   36.4690 C   0  0  0  0  0  0  0  0  0  0  0  0
   33.8440   31.7120   36.6760 N   0  0  0  0  0  0  0  0  0  0  0  0
   32.0190   30.8320   35.9590 H   0  0  0  0  0  0  0  0  0  0  0  0
   33.1360   29.6840   34.0950 H   0  0  0  0  0  0  0  0  0  0  0  0
   35.8420   32.3970   37.0830 H   0  0  0  0  0  0  0  0  0  0  0  0
  1  2  1  0  0  0  0
  2  3  1  0  0  0  0
  3 32  1  0  0  0  0
  4  3  2  0  0  0  0
  4  9  1  0  0  0  0
  5 13  1  0  0  0  0
  5  4  1  0  0  0  0
  6  5  2  0  0  0  0
  7  6  1  0  0  0  0
  8  6  1  0  0  0  0
  8  2  2  0  0  0  0
 10  8  1  0  0  0  0
 12 17  1  0  0  0  0
 12 11  1  0  0  0  0
 13 12  2  0  0  0  0
 14 15  2  0  0  0  0
 14 13  1  0  0  0  0
 15 16  1  0  0  0  0
 16 20  1  0  0  0  0
 16 17  2  0  0  0  0
 17 23  1  0  0  0  0
 18 14  1  0  0  0  0
 19 15  1  0  0  0  0
 22 29  1  0  0  0  0
 22 21  1  0  0  0  0
 23 22  2  0  0  0  0
 24 26  2  0  0  0  0
 24 23  1  0  0  0  0
 25 24  1  0  0  0  0
 26 28  1  0  0  0  0
 27 26  1  0  0  0  0
 28 29  2  0  0  0  0
 30 36  1  0  0  0  0
 30 35  1  0  0  0  0
 31 30  2  0  0  0  0
 32 31  1  0  0  0  0
 32 33  2  0  0  0  0
 33 34  1  0  0  0  0
 34 35  2  0  0  0  0
 34 38  1  0  0  0  0
 37 31  1  0  0  0  0
M  END
>  <minimizedAffinity>
-6.04638338

$$$$

 OpenBabel03262523493D

 38 41  0  0  0  0  0  0  0  0999 V2000
   40.0040   23.2830   32.2540 Cl  0  0  0  0  0  0  0  0  0  0  0  0
   39.1030   24.7830   32.2220 C   0  0  0  0  0  0  0  0  0  0  0  0
   39.6880   25.9680   32.6420 C   0  0  0  0  0  0  0  0  0  0  0  0
   38.9110   27.0950   32.5830 C   0  0  0  0  0  0  0  0  0  0  0  0
   37.6120   27.0990   32.1360 C   0  0  0  0  0  0  0  0  0  0  0  0
   37.0590   25.8910   31.7230 C   0  0  0  0  0  0  0  0  0  0  0  0
   35.4080   25.9460   31.1650 Cl  0  0  0  0  0  0  0  0  0  0  0  0
   37.7950   24.7290   31.7620 C   0  0  0  0  0  0  0  0  0  0  0  0
   39.3900   28.0200   32.9180 H   0  0  0  0  0  0  0  0  0  0  0  0
   37.3220   23.8280   31.4320 H   0  0  0  0  0  0  0  0  0  0  0  0
   36.2230   27.9960   34.6820 Cl  0  0  0  0  0  0  0  0  0  0  0  0
   36.2390   28.9540   33.1940 C   0  0  0  0  0  0  0  0  0  0  0  0
   36.9210   28.3860   32.1370 C   0  0  0  0  0  0  0  0  0  0  0  0
   36.9860   29.0710   30.9230 C   0  0  0  0  0  0  0  0  0  0  0  0
   36.3710   30.3110   30.7800 C   0  0  0  0  0  0  0  0  0  0  0  0
   35.7040   30.8420   31.8520 C   0  0  0  0  0  0  0  0  0  0  0  0
   35.6300   30.1780   33.0580 C   0  0  0  0  0  0  0  0  0  0  0  0
   37.5070   28.6750   30.0600 H   0  0  0  0  0  0  0  0  0  0  0  0
   36.4130   30.8540   29.8440 H   0  0  0  0  0  0  0  0  0  0  0  0
   35.1980   31.7970   31.8300 H   0  0  0  0  0  0  0  0  0  0  0  0
   32.5920   29.4650   33.4490 Br  0  0  0  0  0  0  0  0  0  0  0  0
   33.6500   30.4410   34.6730 C   0  0  0  0  0  0  0  0  0  0  0  0
   34.9560   30.6240   34.2750 C   0  0  0  0  0  0  0  0  0  0  0  0
   35.8450   31.3290   35.0880 C   0  0  0  0  0  0  0  0  0  0  0  0
   36.8880   31.5410   34.8940 H   0  0  0  0  0  0  0  0  0  0  0  0
   35.4260   31.8550   36.3110 C   0  0  0  0  0  0  0  0  0  0  0  0
   36.0700   32.4090   36.9820 H   0  0  0  0  0  0  0  0  0  0  0  0
   34.1160   31.6640   36.6960 C   0  0  0  0  0  3  0  0  0  0  0  0
   33.2350   30.9600   35.8810 C   0  0  0  0  0  3  0  0  0  0  0  0
   42.7300   25.6280   34.8610 C   0  0  0  0  0  0  0  0  0  0  0  0
   41.3940   25.6880   34.4510 C   0  0  0  0  0  0  0  0  0  0  0  0
   41.0760   25.9000   33.1070 C   0  0  0  0  0  0  0  0  0  0  0  0
   42.1220   26.0410   32.2280 N   0  0  0  0  0  0  0  0  0  0  0  0
   43.3900   25.9750   32.6770 C   0  0  0  0  0  0  0  0  0  0  0  0
   43.7020   25.7750   33.9460 N   0  0  0  0  0  0  0  0  0  0  0  0
   42.9060   25.4620   35.9170 H   0  0  0  0  0  0  0  0  0  0  0  0
   40.5740   25.5750   35.1490 H   0  0  0  0  0  0  0  0  0  0  0  0
   44.1100   26.1060   31.8590 H   0  0  0  0  0  0  0  0  0  0  0  0
  2  1  1  0  0  0  0
  2  3  1  0  0  0  0
  3 32  1  0  0  0  0
  4  3  2  0  0  0  0
  4  9  1  0  0  0  0
  5 13  1  0  0  0  0
  5  4  1  0  0  0  0
  6  8  1  0  0  0  0
  6  5  2  0  0  0  0
  7  6  1  0  0  0  0
  8  2  2  0  0  0  0
 10  8  1  0  0  0  0
 12 11  1  0  0  0  0
 13 12  2  0  0  0  0
 14 13  1  0  0  0  0
 15 14  2  0  0  0  0
 15 16  1  0  0  0  0
 16 17  2  0  0  0  0
 17 12  1  0  0  0  0
 17 23  1  0  0  0  0
 18 14  1  0  0  0  0
 19 15  1  0  0  0  0
 20 16  1  0  0  0  0
 21 22  1  0  0  0  0
 22 29  1  0  0  0  0
 23 22  2  0  0  0  0
 23 24  1  0  0  0  0
 24 26  2  0  0  0  0
 25 24  1  0  0  0  0
 26 28  1  0  0  0  0
 26 27  1  0  0  0  0
 29 28  2  0  0  0  0
 30 36  1  0  0  0  0
 31 30  1  0  0  0  0
 31 37  1  0  0  0  0
 32 31  2  0  0  0  0
 33 34  2  0  0  0  0
 33 32  1  0  0  0  0
 34 35  1  0  0  0  0
 35 30  2  0  0  0  0
 38 34  1  0  0  0  0
M  END
>  <minimizedAffinity>
-6.03200245

$$$$

 OpenBabel03262523493D

 38 41  0  0  0  0  0  0  0  0999 V2000
   34.9460   31.4440   31.9190 Cl  0  0  0  0  0  0  0  0  0  0  0  0
   35.8520   29.9780   32.2200 C   0  0  0  0  0  0  0  0  0  0  0  0
   35.8760   29.4080   33.4850 C   0  0  0  0  0  0  0  0  0  0  0  0
   36.6090   28.2610   33.6320 C   0  0  0  0  0  0  0  0  0  0  0  0
   37.3040   27.6680   32.6070 C   0  0  0  0  0  0  0  0  0  0  0  0
   37.2580   28.2670   31.3520 C   0  0  0  0  0  0  0  0  0  0  0  0
   38.1550   27.4790   30.0830 Cl  0  0  0  0  0  0  0  0  0  0  0  0
   36.5350   29.4210   31.1490 C   0  0  0  0  0  0  0  0  0  0  0  0
   36.6150   27.8260   34.6360 H   0  0  0  0  0  0  0  0  0  0  0  0
   36.5330   29.8410   30.1660 H   0  0  0  0  0  0  0  0  0  0  0  0
   36.0400   24.9940   31.9200 Cl  0  0  0  0  0  0  0  0  0  0  0  0
   37.6240   25.1510   32.6940 C   0  0  0  0  0  0  0  0  0  0  0  0
   38.0380   26.4460   32.9300 C   0  0  0  0  0  0  0  0  0  0  0  0
   39.2750   26.6650   33.5370 C   0  0  0  0  0  0  0  0  0  0  0  0
   40.0810   25.5910   33.9010 C   0  0  0  0  0  0  0  0  0  0  0  0
   39.6350   24.3200   33.6500 C   0  0  0  0  0  0  0  0  0  0  0  0
   38.4160   24.0860   33.0510 C   0  0  0  0  0  0  0  0  0  0  0  0
   39.6500   27.6590   33.7470 H   0  0  0  0  0  0  0  0  0  0  0  0
   41.0430   25.7460   34.3720 H   0  0  0  0  0  0  0  0  0  0  0  0
   40.1950   23.4290   33.8980 H   0  0  0  0  0  0  0  0  0  0  0  0
   37.4050   22.2600   35.4020 Br  0  0  0  0  0  0  0  0  0  0  0  0
   37.3110   21.8260   33.5660 C   0  0  0  0  0  0  0  0  0  0  0  0
   37.8220   22.7920   32.7270 C   0  0  0  0  0  0  0  0  0  0  0  0
   37.8140   22.5960   31.3460 C   0  0  0  0  0  0  0  0  0  0  0  0
   38.1810   23.2710   30.5830 H   0  0  0  0  0  0  0  0  0  0  0  0
   37.2920   21.4250   30.7960 C   0  0  0  0  0  0  0  0  0  0  0  0
   37.2590   21.2190   29.7340 H   0  0  0  0  0  0  0  0  0  0  0  0
   36.7850   20.4660   31.6480 C   0  0  0  0  0  3  0  0  0  0  0  0
   36.7960   20.6680   33.0240 C   0  0  0  0  0  3  0  0  0  0  0  0
   34.9580   31.6350   36.4000 C   0  0  0  0  0  0  0  0  0  0  0  0
   35.7130   31.0040   35.4060 C   0  0  0  0  0  0  0  0  0  0  0  0
   35.1150   30.0880   34.5370 C   0  0  0  0  0  0  0  0  0  0  0  0
   33.7730   29.8450   34.7060 N   0  0  0  0  0  0  0  0  0  0  0  0
   33.0930   30.4810   35.6790 C   0  0  0  0  0  0  0  0  0  0  0  0
   33.6500   31.3490   36.5070 N   0  0  0  0  0  0  0  0  0  0  0  0
   35.4840   32.3330   37.0390 H   0  0  0  0  0  0  0  0  0  0  0  0
   36.7710   31.2000   35.2780 H   0  0  0  0  0  0  0  0  0  0  0  0
   32.0370   30.1830   35.6880 H   0  0  0  0  0  0  0  0  0  0  0  0
  1  2  1  0  0  0  0
  2  3  1  0  0  0  0
  3  4  2  0  0  0  0
  3 32  1  0  0  0  0
  4  9  1  0  0  0  0
  5 13  1  0  0  0  0
  5  4  1  0  0  0  0
  6  5  2  0  0  0  0
  7  6  1  0  0  0  0
  8  6  1  0  0  0  0
  8  2  2  0  0  0  0
 10  8  1  0  0  0  0
 11 12  1  0  0  0  0
 12 13  2  0  0  0  0
 12 17  1  0  0  0  0
 13 14  1  0  0  0  0
 14 18  1  0  0  0  0
 14 15  2  0  0  0  0
 15 19  1  0  0  0  0
 16 20  1  0  0  0  0
 16 15  1  0  0  0  0
 17 16  2  0  0  0  0
 22 21  1  0  0  0  0
 23 17  1  0  0  0  0
 23 22  2  0  0  0  0
 24 23  1  0  0  0  0
 25 24  1  0  0  0  0
 26 24  2  0  0  0  0
 26 28  1  0  0  0  0
 27 26  1  0  0  0  0
 28 29  2  0  0  0  0
 29 22  1  0  0  0  0
 30 35  1  0  0  0  0
 30 36  1  0  0  0  0
 31 30  2  0  0  0  0
 32 33  2  0  0  0  0
 32 31  1  0  0  0  0
 33 34  1  0  0  0  0
 34 38  1  0  0  0  0
 34 35  2  0  0  0  0
 37 31  1  0  0  0  0
M  END
>  <minimizedAffinity>
-5.98010349

$$$$

 OpenBabel03262523493D

 38 41  0  0  0  0  0  0  0  0999 V2000
   38.3030   27.3470   31.2690 Cl  0  0  0  0  0  0  0  0  0  0  0  0
   37.0750   28.1580   32.2160 C   0  0  0  0  0  0  0  0  0  0  0  0
   36.9320   27.8880   33.5690 C   0  0  0  0  0  0  0  0  0  0  0  0
   35.9460   28.5680   34.2330 C   0  0  0  0  0  0  0  0  0  0  0  0
   35.1140   29.4790   33.6300 C   0  0  0  0  0  0  0  0  0  0  0  0
   35.2860   29.7240   32.2720 C   0  0  0  0  0  0  0  0  0  0  0  0
   34.2080   30.8880   31.5510 Cl  0  0  0  0  0  0  0  0  0  0  0  0
   36.2630   29.0690   31.5560 C   0  0  0  0  0  0  0  0  0  0  0  0
   35.8490   28.3430   35.3000 H   0  0  0  0  0  0  0  0  0  0  0  0
   36.3530   29.2930   30.5150 H   0  0  0  0  0  0  0  0  0  0  0  0
   35.5910   32.3380   34.5360 Cl  0  0  0  0  0  0  0  0  0  0  0  0
   34.1580   31.4010   34.9860 C   0  0  0  0  0  0  0  0  0  0  0  0
   34.1120   30.1180   34.4810 C   0  0  0  0  0  0  0  0  0  0  0  0
   33.0180   29.3060   34.7850 C   0  0  0  0  0  0  0  0  0  0  0  0
   31.9870   29.7850   35.5870 C   0  0  0  0  0  0  0  0  0  0  0  0
   32.0690   31.0650   36.0690 C   0  0  0  0  0  0  0  0  0  0  0  0
   33.1420   31.8790   35.7790 C   0  0  0  0  0  0  0  0  0  0  0  0
   32.9290   28.2910   34.4170 H   0  0  0  0  0  0  0  0  0  0  0  0
   31.1320   29.1660   35.8310 H   0  0  0  0  0  0  0  0  0  0  0  0
   31.3150   31.5170   36.6990 H   0  0  0  0  0  0  0  0  0  0  0  0
   32.3360   34.2300   33.8520 Br  0  0  0  0  0  0  0  0  0  0  0  0
   33.0900   34.4390   35.5720 C   0  0  0  0  0  0  0  0  0  0  0  0
   33.3570   33.2540   36.2230 C   0  0  0  0  0  0  0  0  0  0  0  0
   33.9160   33.2670   37.5010 C   0  0  0  0  0  0  0  0  0  0  0  0
   34.1710   32.4140   38.1170 H   0  0  0  0  0  0  0  0  0  0  0  0
   34.2110   34.4740   38.1360 C   0  0  0  0  0  0  0  0  0  0  0  0
   34.6440   34.5440   39.1260 H   0  0  0  0  0  0  0  0  0  0  0  0
   33.9400   35.6520   37.4730 C   0  0  0  0  0  3  0  0  0  0  0  0
   33.3820   35.6310   36.1990 C   0  0  0  0  0  3  0  0  0  0  0  0
   39.9180   26.3210   35.2790 C   0  0  0  0  0  0  0  0  0  0  0  0
   39.0650   27.2840   34.7290 C   0  0  0  0  0  0  0  0  0  0  0  0
   37.8490   26.9060   34.1540 C   0  0  0  0  0  0  0  0  0  0  0  0
   37.5400   25.5670   34.1590 N   0  0  0  0  0  0  0  0  0  0  0  0
   38.3970   24.6830   34.7020 C   0  0  0  0  0  0  0  0  0  0  0  0
   39.5500   25.0290   35.2480 N   0  0  0  0  0  0  0  0  0  0  0  0
   40.8450   26.6810   35.7080 H   0  0  0  0  0  0  0  0  0  0  0  0
   39.3150   28.3380   34.7290 H   0  0  0  0  0  0  0  0  0  0  0  0
   38.0120   23.6570   34.6290 H   0  0  0  0  0  0  0  0  0  0  0  0
  1  2  1  0  0  0  0
  2  3  1  0  0  0  0
  3 32  1  0  0  0  0
  3  4  2  0  0  0  0
  4  9  1  0  0  0  0
  5  4  1  0  0  0  0
  5 13  1  0  0  0  0
  6  5  2  0  0  0  0
  7  6  1  0  0  0  0
  8  2  2  0  0  0  0
  8  6  1  0  0  0  0
 10  8  1  0  0  0  0
 11 12  1  0  0  0  0
 12 17  1  0  0  0  0
 13 14  1  0  0  0  0
 13 12  2  0  0  0  0
 14 15  2  0  0  0  0
 15 19  1  0  0  0  0
 15 16  1  0  0  0  0
 16 20  1  0  0  0  0
 17 16  2  0  0  0  0
 17 23  1  0  0  0  0
 18 14  1  0  0  0  0
 21 22  1  0  0  0  0
 22 29  2  0  0  0  0
 22 23  1  0  0  0  0
 23 24  2  0  0  0  0
 24 25  1  0  0  0  0
 24 26  1  0  0  0  0
 26 27  1  0  0  0  0
 28 26  2  0  0  0  0
 29 28  1  0  0  0  0
 30 36  1  0  0  0  0
 31 30  2  0  0  0  0
 32 33  2  0  0  0  0
 32 31  1  0  0  0  0
 33 34  1  0  0  0  0
 34 35  2  0  0  0  0
 35 30  1  0  0  0  0
 37 31  1  0  0  0  0
 38 34  1  0  0  0  0
M  END
>  <minimizedAffinity>
-5.86155462

$$$$

 OpenBabel03262523493D

 38 41  0  0  0  0  0  0  0  0999 V2000
   33.8310   31.3730   32.4240 Cl  0  0  0  0  0  0  0  0  0  0  0  0
   34.9750   30.1020   32.7920 C   0  0  0  0  0  0  0  0  0  0  0  0
   34.9840   29.4980   34.0410 C   0  0  0  0  0  0  0  0  0  0  0  0
   35.9120   28.5120   34.2450 C   0  0  0  0  0  0  0  0  0  0  0  0
   36.8100   28.1070   33.2880 C   0  0  0  0  0  0  0  0  0  0  0  0
   36.7730   28.7340   32.0470 C   0  0  0  0  0  0  0  0  0  0  0  0
   37.9310   28.1870   30.8660 Cl  0  0  0  0  0  0  0  0  0  0  0  0
   35.8590   29.7320   31.7900 C   0  0  0  0  0  0  0  0  0  0  0  0
   35.9030   28.0470   35.2350 H   0  0  0  0  0  0  0  0  0  0  0  0
   35.8720   30.1810   30.8200 H   0  0  0  0  0  0  0  0  0  0  0  0
   36.3800   25.3360   32.1230 Cl  0  0  0  0  0  0  0  0  0  0  0  0
   37.6970   25.7290   33.2390 C   0  0  0  0  0  0  0  0  0  0  0  0
   37.7350   27.0400   33.6650 C   0  0  0  0  0  0  0  0  0  0  0  0
   38.7400   27.4400   34.5470 C   0  0  0  0  0  0  0  0  0  0  0  0
   39.6920   26.5270   34.9910 C   0  0  0  0  0  0  0  0  0  0  0  0
   39.6200   25.2330   34.5450 C   0  0  0  0  0  0  0  0  0  0  0  0
   38.6340   24.8230   33.6740 C   0  0  0  0  0  0  0  0  0  0  0  0
   38.8190   28.4560   34.9150 H   0  0  0  0  0  0  0  0  0  0  0  0
   40.4770   26.8230   35.6750 H   0  0  0  0  0  0  0  0  0  0  0  0
   40.3160   24.4590   34.8380 H   0  0  0  0  0  0  0  0  0  0  0  0
   39.9080   24.1440   30.8800 Br  0  0  0  0  0  0  0  0  0  0  0  0
   38.8920   22.9500   31.9350 C   0  0  0  0  0  0  0  0  0  0  0  0
   38.4410   23.4840   33.1220 C   0  0  0  0  0  0  0  0  0  0  0  0
   37.6780   22.7070   33.9950 C   0  0  0  0  0  0  0  0  0  0  0  0
   37.2660   23.0040   34.9510 H   0  0  0  0  0  0  0  0  0  0  0  0
   37.3610   21.3860   33.6790 C   0  0  0  0  0  0  0  0  0  0  0  0
   36.7740   20.7370   34.3170 H   0  0  0  0  0  0  0  0  0  0  0  0
   37.8190   20.8650   32.4880 C   0  0  0  0  0  3  0  0  0  0  0  0
   38.5790   21.6440   31.6220 C   0  0  0  0  0  3  0  0  0  0  0  0
   31.8450   29.8320   36.1230 C   0  0  0  0  0  0  0  0  0  0  0  0
   32.7600   29.3520   35.1810 C   0  0  0  0  0  0  0  0  0  0  0  0
   34.0010   29.9740   35.0190 C   0  0  0  0  0  0  0  0  0  0  0  0
   34.2690   31.0580   35.8190 N   0  0  0  0  0  0  0  0  0  0  0  0
   33.3520   31.4780   36.7110 C   0  0  0  0  0  0  0  0  0  0  0  0
   32.1750   30.8980   36.8710 N   0  0  0  0  0  0  0  0  0  0  0  0
   30.9020   29.3040   36.1970 H   0  0  0  0  0  0  0  0  0  0  0  0
   32.5420   28.4970   34.5530 H   0  0  0  0  0  0  0  0  0  0  0  0
   33.7110   32.3500   37.2720 H   0  0  0  0  0  0  0  0  0  0  0  0
  1  2  1  0  0  0  0
  2  3  1  0  0  0  0
  3  4  2  0  0  0  0
  3 32  1  0  0  0  0
  4  9  1  0  0  0  0
  5 13  1  0  0  0  0
  5  4  1  0  0  0  0
  6  5  2  0  0  0  0
  7  6  1  0  0  0  0
  8  6  1  0  0  0  0
  8  2  2  0  0  0  0
 10  8  1  0  0  0  0
 11 12  1  0  0  0  0
 12 13  2  0  0  0  0
 12 17  1  0  0  0  0
 13 14  1  0  0  0  0
 14 18  1  0  0  0  0
 14 15  2  0  0  0  0
 15 19  1  0  0  0  0
 16 20  1  0  0  0  0
 16 15  1  0  0  0  0
 17 16  2  0  0  0  0
 21 22  1  0  0  0  0
 22 23  1  0  0  0  0
 23 17  1  0  0  0  0
 23 24  2  0  0  0  0
 24 25  1  0  0  0  0
 26 24  1  0  0  0  0
 26 27  1  0  0  0  0
 28 26  2  0  0  0  0
 29 22  2  0  0  0  0
 29 28  1  0  0  0  0
 30 36  1  0  0  0  0
 30 35  1  0  0  0  0
 31 30  2  0  0  0  0
 32 31  1  0  0  0  0
 32 33  2  0  0  0  0
 33 34  1  0  0  0  0
 34 35  2  0  0  0  0
 34 38  1  0  0  0  0
 37 31  1  0  0  0  0
M  END
>  <minimizedAffinity>
-5.73555374

$$$$
