
 OpenBabel03272510203D

 36 39  0  0  0  0  0  0  0  0999 V2000
   37.2070   29.2650   51.0090 Br  0  0  0  0  0  0  0  0  0  0  0  0
   35.8970   29.3100   49.6250 C   0  0  0  0  0  0  0  0  0  0  0  0
   35.9520   30.2820   48.6170 C   0  0  0  0  0  0  0  0  0  0  0  0
   34.9770   30.2540   47.6550 C   0  0  0  0  0  0  0  0  0  0  0  0
   33.9520   29.3180   47.6330 C   0  0  0  0  0  0  0  0  0  0  0  0
   33.9330   28.3910   48.6270 C   0  0  0  0  0  0  0  0  0  0  0  0
   34.8990   28.3960   49.6080 C   0  0  0  0  0  0  0  0  0  0  0  0
   35.0020   30.9970   46.8680 H   0  0  0  0  0  0  0  0  0  0  0  0
   33.1410   27.6490   48.6340 H   0  0  0  0  0  0  0  0  0  0  0  0
   34.8140   27.6240   50.3640 H   0  0  0  0  0  0  0  0  0  0  0  0
   37.9020   33.2090   49.6010 C   0  0  0  0  0  0  0  0  0  0  0  0
   38.9680   33.2180   48.6650 C   0  0  0  0  0  0  0  0  0  0  0  0
   38.9960   32.2240   47.7160 C   0  0  0  0  0  0  0  0  0  0  0  0
   38.0100   31.2620   47.6990 N   0  0  0  0  0  0  0  0  0  0  0  0
   37.0100   31.2810   48.6040 C   0  0  0  0  0  0  0  0  0  0  0  0
   36.9620   32.2630   49.5590 N   0  0  0  0  0  0  0  0  0  0  0  0
   37.8380   33.9660   50.3600 H   0  0  0  0  0  0  0  0  0  0  0  0
   39.7200   33.9930   48.7160 H   0  0  0  0  0  0  0  0  0  0  0  0
   39.8010   32.1840   46.9650 H   0  0  0  0  0  0  0  0  0  0  0  0
   32.9230   29.2950   46.6100 C   0  0  0  0  0  0  0  0  0  0  0  0
   32.1160   28.2240   46.3310 C   0  0  0  0  0  0  0  0  0  0  0  0
   31.1430   28.2140   45.3560 C   0  0  0  0  0  0  0  0  0  0  0  0
   30.9670   29.3140   44.6330 N   0  0  0  0  0  0  0  0  0  0  0  0
   31.7430   30.3990   44.8760 C   0  0  0  0  0  0  0  0  0  0  0  0
   32.6840   30.3670   45.8380 N   0  0  0  0  0  0  0  0  0  0  0  0
   32.2520   27.3050   46.9230 H   0  0  0  0  0  0  0  0  0  0  0  0
   30.5360   27.3420   45.1770 H   0  0  0  0  0  0  0  0  0  0  0  0
   28.8430   31.3620   44.8670 Br  0  0  0  0  0  0  0  0  0  0  0  0
   30.3050   32.1830   43.9970 C   0  0  0  0  0  0  0  0  0  0  0  0
   31.5680   31.6350   44.0870 C   0  0  0  0  0  0  0  0  0  0  0  0
   32.6750   32.2150   43.4570 C   0  0  0  0  0  0  0  0  0  0  0  0
   33.6580   31.7700   43.5400 H   0  0  0  0  0  0  0  0  0  0  0  0
   32.4940   33.3880   42.7130 C   0  0  0  0  0  0  0  0  0  0  0  0
   33.3220   33.8690   42.2090 H   0  0  0  0  0  0  0  0  0  0  0  0
   31.2150   33.8900   42.6580 C   0  0  0  0  0  3  0  0  0  0  0  0
   30.1020   33.3480   43.2640 C   0  0  0  0  0  3  0  0  0  0  0  0
  2  1  1  0  0  0  0
  3  2  2  0  0  0  0
  4  3  1  0  0  0  0
  5  4  2  0  0  0  0
  5  6  1  0  0  0  0
  6  9  1  0  0  0  0
  6  7  2  0  0  0  0
  7  2  1  0  0  0  0
  7 10  1  0  0  0  0
  8  4  1  0  0  0  0
 11 17  1  0  0  0  0
 12 18  1  0  0  0  0
 12 11  2  0  0  0  0
 13 12  1  0  0  0  0
 14 13  2  0  0  0  0
 14 15  1  0  0  0  0
 15  3  1  0  0  0  0
 15 16  2  0  0  0  0
 16 11  1  0  0  0  0
 19 13  1  0  0  0  0
 20  5  1  0  0  0  0
 21 20  1  0  0  0  0
 21 26  1  0  0  0  0
 22 21  2  0  0  0  0
 23 24  2  0  0  0  0
 23 22  1  0  0  0  0
 24 25  1  0  0  0  0
 25 20  2  0  0  0  0
 27 22  1  0  0  0  0
 29 30  1  0  0  0  0
 29 28  1  0  0  0  0
 30 24  1  0  0  0  0
 31 32  1  0  0  0  0
 31 30  2  0  0  0  0
 33 31  1  0  0  0  0
 34 33  1  0  0  0  0
 35 33  2  0  0  0  0
 35 36  1  0  0  0  0
 36 29  2  0  0  0  0
M  END
>  <minimizedAffinity>
-6.42838335

>  <minimizedRMSD>
0.699133813

$$$$
