
 OpenBabel03262522373D

 27 29  0  0  0  0  0  0  0  0999 V2000
   38.5180   31.4810   47.9230 C   0  0  0  0  0  0  0  0  0  0  0  0
   39.0310   32.7450   48.0890 C   0  0  0  0  0  0  0  0  0  0  0  0
   39.6740   33.4470   47.1000 C   0  0  0  0  0  0  0  0  0  0  0  0
   39.8250   32.8660   45.8560 C   0  0  0  0  0  0  0  0  0  0  0  0
   39.3080   31.6060   45.7110 C   0  0  0  0  0  0  0  0  0  0  0  0
   38.6840   30.9430   46.6920 N   0  0  0  0  0  0  0  0  0  0  0  0
   38.9180   33.2140   49.0600 H   0  0  0  0  0  0  0  0  0  0  0  0
   40.0460   34.4390   47.3210 H   0  0  0  0  0  0  0  0  0  0  0  0
   40.3300   33.4460   45.1250 H   0  0  0  0  0  0  0  0  0  0  0  0
   37.3450   30.1730   51.2600 C   0  0  0  0  0  0  0  0  0  0  0  0
   38.0850   30.9550   50.3520 C   0  0  0  0  0  0  0  0  0  0  0  0
   37.8350   30.7540   48.9930 C   0  0  0  0  0  0  0  0  0  0  0  0
   36.9130   29.8360   48.6530 N   0  0  0  0  0  0  0  0  0  0  0  0
   36.2130   29.0960   49.5390 C   0  0  0  0  0  0  0  0  0  0  0  0
   36.4380   29.2740   50.8370 N   0  0  0  0  0  0  0  0  0  0  0  0
   37.6090   30.4010   52.3010 H   0  0  0  0  0  0  0  0  0  0  0  0
   38.8190   31.6860   50.6150 H   0  0  0  0  0  0  0  0  0  0  0  0
   35.4840   28.3730   49.2000 H   0  0  0  0  0  0  0  0  0  0  0  0
   36.5760   30.8150   44.3540 Br  0  0  0  0  0  0  0  0  0  0  0  0
   38.3400   30.5250   43.6910 C   0  0  0  0  0  0  0  0  0  0  0  0
   39.4380   30.9390   44.4220 C   0  0  0  0  0  0  0  0  0  0  0  0
   40.6320   30.6520   43.7990 C   0  0  0  0  0  0  0  0  0  0  0  0
   41.5560   30.9320   44.2820 H   0  0  0  0  0  0  0  0  0  0  0  0
   40.7740   30.0220   42.5840 C   0  0  0  0  0  0  0  0  0  0  0  0
   41.7500   29.8310   42.1570 H   0  0  0  0  0  0  0  0  0  0  0  0
   39.6320   29.6380   41.9140 C   0  0  0  0  0  0  0  0  0  0  0  0
   38.3990   29.8940   42.4770 C   0  0  0  0  0  0  0  0  0  0  0  0
  1  2  1  0  0  0  0
  1 12  1  0  0  0  0
  2  7  1  0  0  0  0
  3  8  1  0  0  0  0
  3  2  2  0  0  0  0
  4  3  1  0  0  0  0
  5  4  2  0  0  0  0
  5  6  1  0  0  0  0
  6  1  2  0  0  0  0
  9  4  1  0  0  0  0
 10 16  1  0  0  0  0
 11 17  1  0  0  0  0
 11 10  2  0  0  0  0
 12 11  1  0  0  0  0
 13 12  2  0  0  0  0
 13 14  1  0  0  0  0
 14 15  2  0  0  0  0
 15 10  1  0  0  0  0
 18 14  1  0  0  0  0
 20 19  1  0  0  0  0
 20 21  1  0  0  0  0
 21  5  1  0  0  0  0
 22 23  1  0  0  0  0
 22 21  2  0  0  0  0
 24 22  1  0  0  0  0
 25 24  1  0  0  0  0
 26 27  1  0  0  0  0
 26 24  2  0  0  0  0
 27 20  2  0  0  0  0
M  END
>  <minimizedAffinity>
-5.80301094

>  <minimizedRMSD>
0.56222713

$$$$
