
 OpenBabel03272509533D

 43 46  0  0  0  0  0  0  0  0999 V2000
   34.5970   28.3620   48.2370 C   0  0  0  0  0  0  0  0  0  0  0  0
   34.1120   29.3030   47.9050 H   0  0  0  0  0  0  0  0  0  0  0  0
   35.5590   28.2770   47.6870 H   0  0  0  0  0  0  0  0  0  0  0  0
   33.6540   27.2380   47.9490 C   0  0  0  0  0  0  0  0  0  0  0  0
   33.6730   26.4220   48.6860 H   0  0  0  0  0  0  0  0  0  0  0  0
   33.9350   26.7570   46.9720 H   0  0  0  0  0  0  0  0  0  0  0  0
   32.2470   27.6980   47.7900 C   0  0  0  0  0  0  0  0  0  0  0  0
   31.3840   27.5560   48.8610 C   0  0  0  0  0  0  0  0  0  0  0  0
   30.0830   27.9520   48.7940 C   0  0  0  0  0  0  0  0  0  0  0  0
   29.6170   28.4870   47.6830 N   0  0  0  0  0  0  0  0  0  0  0  0
   30.4580   28.6330   46.6160 C   0  0  0  0  0  0  0  0  0  0  0  0
   31.7600   28.2500   46.6470 N   0  0  0  0  0  0  0  0  0  0  0  0
   31.7570   27.1180   49.7760 H   0  0  0  0  0  0  0  0  0  0  0  0
   29.4360   27.8200   49.6710 H   0  0  0  0  0  0  0  0  0  0  0  0
   32.1890   31.0440   45.7250 Br  0  0  0  0  0  0  0  0  0  0  0  0
   30.6470   30.3260   44.8370 C   0  0  0  0  0  0  0  0  0  0  0  0
   29.9680   29.2240   45.3690 C   0  0  0  0  0  0  0  0  0  0  0  0
   28.8670   28.7380   44.7050 C   0  0  0  0  0  0  0  0  0  0  0  0
   28.3290   27.8890   45.0980 H   0  0  0  0  0  0  0  0  0  0  0  0
   28.4080   29.2970   43.5310 C   0  0  0  0  0  0  0  0  0  0  0  0
   27.5480   28.9090   43.0220 H   0  0  0  0  0  0  0  0  0  0  0  0
   29.1100   30.3790   43.0490 C   0  0  0  0  0  3  0  0  0  0  0  0
   30.2250   30.9330   43.6500 C   0  0  0  0  0  3  0  0  0  0  0  0
   34.7970   28.4960   49.6290 O   0  0  0  0  0  0  0  0  0  0  0  0
   37.3420   30.1540   51.5860 C   0  0  0  0  0  0  0  0  0  0  0  0
   38.0700   30.8060   50.5640 C   0  0  0  0  0  0  0  0  0  0  0  0
   37.6270   30.6270   49.2570 C   0  0  0  0  0  0  0  0  0  0  0  0
   36.5220   29.8300   49.0890 N   0  0  0  0  0  0  0  0  0  0  0  0
   35.8610   29.2320   50.0680 C   0  0  0  0  0  0  0  0  0  0  0  0
   36.2910   29.4060   51.3420 N   0  0  0  0  0  0  0  0  0  0  0  0
   37.7180   30.3190   52.5950 H   0  0  0  0  0  0  0  0  0  0  0  0
   38.9360   31.4300   50.6970 H   0  0  0  0  0  0  0  0  0  0  0  0
   39.0070   33.1630   49.0190 F   0  0  0  0  0  0  0  0  0  0  0  0
   38.8820   32.3890   47.9500 C   0  0  0  0  0  0  0  0  0  0  0  0
   38.2350   31.2070   48.0800 C   0  0  0  0  0  0  0  0  0  0  0  0
   38.1630   30.4740   46.8930 C   0  0  0  0  0  0  0  0  0  0  0  0
   38.6980   30.9160   45.7160 C   0  0  0  0  0  0  0  0  0  0  0  0
   39.3420   32.1150   45.6300 C   0  0  0  0  0  0  0  0  0  0  0  0
   39.4320   32.8570   46.7700 C   0  0  0  0  0  0  0  0  0  0  0  0
   37.6660   29.4940   46.8470 H   0  0  0  0  0  0  0  0  0  0  0  0
   38.6250   30.3190   44.8060 H   0  0  0  0  0  0  0  0  0  0  0  0
   39.7570   32.4410   44.6850 H   0  0  0  0  0  0  0  0  0  0  0  0
   39.9350   33.8100   46.7360 H   0  0  0  0  0  0  0  0  0  0  0  0
  1 24  1  0  0  0  0
  2  1  1  0  0  0  0
  3  1  1  0  0  0  0
  4  1  1  0  0  0  0
  4  5  1  0  0  0  0
  6  4  1  0  0  0  0
  7  4  1  0  0  0  0
  7  8  1  0  0  0  0
  8 13  1  0  0  0  0
  9  8  2  0  0  0  0
  9 14  1  0  0  0  0
 10  9  1  0  0  0  0
 11 12  1  0  0  0  0
 11 10  2  0  0  0  0
 12  7  2  0  0  0  0
 16 17  1  0  0  0  0
 16 15  1  0  0  0  0
 17 11  1  0  0  0  0
 18 19  1  0  0  0  0
 18 17  2  0  0  0  0
 20 18  1  0  0  0  0
 21 20  1  0  0  0  0
 22 20  2  0  0  0  0
 22 23  1  0  0  0  0
 23 16  2  0  0  0  0
 24 29  1  0  0  0  0
 25 31  1  0  0  0  0
 26 32  1  0  0  0  0
 26 25  2  0  0  0  0
 27 26  1  0  0  0  0
 28 27  2  0  0  0  0
 28 29  1  0  0  0  0
 29 30  2  0  0  0  0
 30 25  1  0  0  0  0
 34 35  1  0  0  0  0
 34 33  1  0  0  0  0
 35 27  1  0  0  0  0
 36 35  2  0  0  0  0
 37 36  1  0  0  0  0
 38 37  2  0  0  0  0
 38 39  1  0  0  0  0
 39 34  2  0  0  0  0
 40 36  1  0  0  0  0
 41 37  1  0  0  0  0
 42 38  1  0  0  0  0
 43 39  1  0  0  0  0
M  END
>  <minimizedAffinity>
-6.50543356

>  <minimizedRMSD>
0.520687044

$$$$
