
     RDKit          3D

 20 21  0  0  0  0  0  0  0  0999 V2000
   37.2944   30.1813   51.4160 C   0  0  0  0  0  0  0  0  0  0  0  0
   38.0751   30.6850   50.3419 C   0  0  0  0  0  0  0  0  0  0  0  0
   37.6764   30.3421   49.0505 C   0  0  0  0  0  0  0  0  0  0  0  0
   36.5723   29.5509   48.8772 N   0  0  0  0  0  0  0  0  0  0  0  0
   35.8557   29.0922   49.9397 C   0  0  0  0  0  0  0  0  0  0  0  0
   36.2201   29.4095   51.2026 N   0  0  0  0  0  0  0  0  0  0  0  0
   37.5711   30.4249   52.4346 H   0  0  0  0  0  0  0  0  0  0  0  0
   38.9182   31.2938   50.5768 H   0  0  0  0  0  0  0  0  0  0  0  0
   38.2411   30.7040   48.2227 H   0  0  0  0  0  0  0  0  0  0  0  0
   34.0770   28.8631   52.5120 Br  0  0  0  0  0  0  0  0  0  0  0  0
   33.7912   28.0474   50.8070 C   0  0  0  0  0  0  0  0  0  0  0  0
   34.6778   28.2486   49.7617 C   0  0  0  0  0  0  0  0  0  0  0  0
   34.4017   27.6256   48.5631 C   0  0  0  0  0  0  0  0  0  0  0  0
   35.1057   27.8026   47.7800 H   0  0  0  0  0  0  0  0  0  0  0  0
   33.2953   26.8194   48.3583 C   0  0  0  0  0  0  0  0  0  0  0  0
   33.2073   26.3941   47.3597 H   0  0  0  0  0  0  0  0  0  0  0  0
   32.4352   26.6426   49.4226 C   0  0  0  0  0  0  0  0  0  0  0  0
   32.6901   27.2578   50.6378 C   0  0  0  0  0  0  0  0  0  0  0  0
   31.5893   25.9907   49.1695 H   0  0  0  0  0  0  0  0  0  0  0  0
   31.9492   27.0445   51.3890 H   0  0  0  0  0  0  0  0  0  0  0  0
  2  1  2  0
  3  2  1  0
  4  3  2  0
  4  5  1  0
  5  6  2  0
  6  1  1  0
  1  7  1  0
  2  8  1  0
  3  9  1  0
 10 11  1  0
 11 12  2  0
 12 13  1  0
 13 14  1  0
 13 15  2  0
 15 16  1  0
 15 17  1  0
 17 18  2  0
 18 11  1  0
 17 19  1  0
 18 20  1  0
  5 12  1  0
M  ISO  5   7  14   8  14   9  14  14  15  16  16
M  END
>  <DihAtoms>  (1) 
3,4,11,10

>  <DihDeg>  (1) 
0.0005995715491315282

$$$$
