REMARK  Name = 
REMARK  3 active torsions:
REMARK  status: ('A' for Active; 'I' for Inactive)
REMARK    1  A    between atoms: C_1  and  C_15
REMARK    2  A    between atoms: C_11  and  N_17
REMARK    3  A    between atoms: C_13  and  C_28
REMARK                            x       y       z     vdW  Elec       q    Type
REMARK                         _______ _______ _______ _____ _____    ______ ____
ROOT
ATOM      1  C   UNL     1      37.563  30.211  50.782  0.00  0.00    +0.000 A 
ATOM      2  C   UNL     1      38.267  31.297  50.212  0.00  0.00    +0.000 A 
ATOM      3  C   UNL     1      37.780  31.768  48.992  0.00  0.00    +0.000 A 
ATOM      4  N   UNL     1      36.721  31.177  48.471  0.00  0.00    +0.000 NA
ATOM      5  C   UNL     1      36.045  30.164  48.977  0.00  0.00    +0.000 A 
ATOM      6  N   UNL     1      36.515  29.719  50.143  0.00  0.00    +0.000 NA
ATOM      7  H   UNL     1      39.083  31.602  50.814  0.00  0.00    +0.000 HD
ENDROOT
BRANCH   5   8
ATOM      8  C   UNL     1      34.873  29.421  48.526  0.00  0.00    +0.000 A 
ATOM      9  N   UNL     1      34.040  28.759  49.377  0.00  0.00    +0.000 NA
ATOM     10  C   UNL     1      32.965  28.106  48.961  0.00  0.00    +0.000 A 
ATOM     11  N   UNL     1      32.582  28.024  47.676  0.00  0.00    +0.000 NA
ATOM     12  C   UNL     1      33.358  28.654  46.771  0.00  0.00    +0.000 A 
ATOM     13  C   UNL     1      32.982  28.582  45.453  0.00  0.00    +0.000 A 
ATOM     14  C   UNL     1      33.745  29.211  44.481  0.00  0.00    +0.000 A 
ATOM     15  C   UNL     1      34.871  29.892  44.913  0.00  0.00    +0.000 A 
ATOM     16  C   UNL     1      35.194  29.928  46.247  0.00  0.00    +0.000 A 
ATOM     17  C   UNL     1      34.466  29.323  47.227  0.00  0.00    +0.000 A 
ATOM     18  H   UNL     1      32.299  27.572  49.673  0.00  0.00    +0.000 HD
ATOM     19  H   UNL     1      32.092  28.035  45.170  0.00  0.00    +0.000 HD
ATOM     20  H   UNL     1      33.408  29.125  43.472  0.00  0.00    +0.000 HD
ATOM     21  H   UNL     1      35.429  30.363  44.115  0.00  0.00    +0.000 HD
ATOM     22  H   UNL     1      36.102  30.470  46.416  0.00  0.00    +0.000 HD
ENDBRANCH   5   8
BRANCH   3  25
ATOM     23 BR   UNL     1      37.907  34.413  50.786  0.00  0.00    +0.000 Br
ATOM     24  C   UNL     1      38.630  34.121  49.054  0.00  0.00    +0.000 A 
ATOM     25  C   UNL     1      38.475  32.913  48.447  0.00  0.00    +0.000 A 
ATOM     26  C   UNL     1      39.091  32.852  47.214  0.00  0.00    +0.000 A 
ATOM     27  H   UNL     1      39.083  31.986  46.573  0.00  0.00    +0.000 HD
ATOM     28  C   UNL     1      39.781  33.892  46.663  0.00  0.00    +0.000 A 
ATOM     29  H   UNL     1      40.275  33.847  45.679  0.00  0.00    +0.000 HD
ATOM     30  C   UNL     1      39.913  35.096  47.311  0.00  0.00    +0.000 A 
ATOM     31  C   UNL     1      39.306  35.206  48.565  0.00  0.00    +0.000 A 
ENDBRANCH   3  25
BRANCH   1  32
ATOM     32  N   UNL     1      37.942  29.636  52.050  0.00  0.00    +0.000 N 
ATOM     33  H   UNL     1      38.244  28.658  52.231  0.00  0.00    +0.000 HD
ATOM     34  H   UNL     1      37.870  30.359  52.796  0.00  0.00    +0.000 HD
ENDBRANCH   1  32
TORSDOF 3
