
 OpenBabel03272507303D

 29 31  0  0  0  0  0  0  0  0999 V2000
   35.9220   29.2730   49.8400 C   0  0  0  0  0  0  0  0  0  0  0  0
   34.9930   29.7410   50.7170 C   0  0  0  0  0  0  0  0  0  0  0  0
   33.7490   29.2350   50.3040 C   0  0  0  0  0  0  0  0  0  0  0  0
   34.0220   28.4730   49.1730 C   0  0  0  0  0  0  0  0  0  0  0  0
   35.3050   28.5370   48.9570 O   0  0  0  0  0  0  0  0  0  0  0  0
   35.1100   30.3810   51.5830 H   0  0  0  0  0  0  0  0  0  0  0  0
   32.7930   29.4250   50.7990 H   0  0  0  0  0  0  0  0  0  0  0  0
   37.3350   29.5990   49.9600 C   0  0  0  0  0  0  0  0  0  0  0  0
   38.0110   29.0030   50.8150 O   0  0  0  0  0  0  0  0  0  0  0  0
   37.8570   30.6060   49.0690 C   0  0  0  0  0  0  0  0  0  0  0  0
   38.2020   31.8330   49.6150 C   0  0  0  0  0  0  0  0  0  0  0  0
   38.7090   32.8440   48.8240 C   0  0  0  0  0  0  0  0  0  0  0  0
   38.8460   32.5650   47.5020 N   0  0  0  0  0  0  0  0  0  0  0  0
   38.5130   31.3740   46.9570 C   0  0  0  0  0  0  0  0  0  0  0  0
   38.0200   30.4080   47.7600 N   0  0  0  0  0  0  0  0  0  0  0  0
   38.0770   32.0200   50.6850 H   0  0  0  0  0  0  0  0  0  0  0  0
   38.9970   33.8150   49.1740 H   0  0  0  0  0  0  0  0  0  0  0  0
   38.6470   31.2150   45.8910 H   0  0  0  0  0  0  0  0  0  0  0  0
   33.0150   27.7430   48.3910 C   0  0  0  0  0  0  0  0  0  0  0  0
   31.8160   27.7170   48.7860 O   0  0  0  0  0  0  0  0  0  0  0  0
   33.1340   29.4900   45.7810 Br  0  0  0  0  0  0  0  0  0  0  0  0
   33.5860   27.6420   45.9180 C   0  0  0  0  0  0  0  0  0  0  0  0
   33.4610   27.0660   47.1640 C   0  0  0  0  0  0  0  0  0  0  0  0
   33.7700   25.7150   47.3630 C   0  0  0  0  0  0  0  0  0  0  0  0
   33.7050   25.1740   48.2980 H   0  0  0  0  0  0  0  0  0  0  0  0
   34.1960   25.0460   46.2140 C   0  0  0  0  0  0  0  0  0  0  0  0
   34.4420   23.9810   46.3510 H   0  0  0  0  0  0  0  0  0  0  0  0
   34.3380   25.5700   44.9460 C   0  0  0  0  0  3  0  0  0  0  0  0
   34.0140   26.9060   44.8340 C   0  0  0  0  0  3  0  0  0  0  0  0
  1  8  1  0  0  0  0
  1  2  2  0  0  0  0
  2  6  1  0  0  0  0
  3  2  1  0  0  0  0
  3  7  1  0  0  0  0
  4  3  2  0  0  0  0
  5  4  1  0  0  0  0
  5  1  1  0  0  0  0
  8  9  2  0  0  0  0
 10 11  1  0  0  0  0
 10  8  1  0  0  0  0
 11 16  1  0  0  0  0
 12 17  1  0  0  0  0
 12 11  2  0  0  0  0
 13 12  1  0  0  0  0
 14 13  2  0  0  0  0
 14 15  1  0  0  0  0
 15 10  2  0  0  0  0
 18 14  1  0  0  0  0
 19 20  2  0  0  0  0
 19  4  1  0  0  0  0
 21 22  1  0  0  0  0
 22 23  1  0  0  0  0
 23 24  2  0  0  0  0
 23 19  1  0  0  0  0
 24 25  1  0  0  0  0
 26 27  1  0  0  0  0
 26 24  1  0  0  0  0
 28 26  2  0  0  0  0
 29 28  1  0  0  0  0
 29 22  2  0  0  0  0
M  END
>  <minimizedAffinity>
-5.54205561

>  <minimizedRMSD>
1.38068569

$$$$
