
 OpenBabel03272509533D

 37 39  0  0  0  0  0  0  0  0999 V2000
   37.2370   30.0960   51.5110 C   0  0  0  0  0  0  0  0  0  0  0  0
   38.0070   30.8290   50.5640 C   0  0  0  0  0  0  0  0  0  0  0  0
   37.7000   30.6750   49.2350 C   0  0  0  0  0  0  0  0  0  0  0  0
   36.6620   29.8160   48.9280 N   0  0  0  0  0  0  0  0  0  0  0  0
   35.9590   29.1440   49.8300 C   0  0  0  0  0  0  0  0  0  0  0  0
   36.2530   29.2890   51.1350 N   0  0  0  0  0  0  0  0  0  0  0  0
   37.4950   30.2300   52.5550 H   0  0  0  0  0  0  0  0  0  0  0  0
   38.8150   31.4950   50.8210 H   0  0  0  0  0  0  0  0  0  0  0  0
   38.8220   33.3420   49.1570 F   0  0  0  0  0  0  0  0  0  0  0  0
   38.9000   32.5780   48.0760 C   0  0  0  0  0  0  0  0  0  0  0  0
   38.3690   31.3350   48.1340 C   0  0  0  0  0  0  0  0  0  0  0  0
   38.5050   30.6150   46.9430 C   0  0  0  0  0  0  0  0  0  0  0  0
   39.1160   31.1190   45.8250 C   0  0  0  0  0  0  0  0  0  0  0  0
   39.6390   32.3930   45.8240 C   0  0  0  0  0  0  0  0  0  0  0  0
   39.5200   33.1150   46.9730 C   0  0  0  0  0  0  0  0  0  0  0  0
   38.1050   29.5920   46.8910 H   0  0  0  0  0  0  0  0  0  0  0  0
   39.1790   30.4920   44.9430 H   0  0  0  0  0  0  0  0  0  0  0  0
   40.1100   32.7390   44.9150 H   0  0  0  0  0  0  0  0  0  0  0  0
   39.9240   34.1190   46.9940 H   0  0  0  0  0  0  0  0  0  0  0  0
   34.9910   28.3650   49.2740 O   0  0  0  0  0  0  0  0  0  0  0  0
   34.3350   28.8290   48.0990 C   0  0  0  0  0  0  0  0  0  0  0  0
   35.1450   29.0730   47.3730 H   0  0  0  0  0  0  0  0  0  0  0  0
   33.7540   29.7240   48.3870 H   0  0  0  0  0  0  0  0  0  0  0  0
   33.4750   27.7420   47.5320 C   0  0  0  0  0  0  0  0  0  0  0  0
   33.7750   26.7650   47.9600 H   0  0  0  0  0  0  0  0  0  0  0  0
   33.6300   27.6270   46.4200 H   0  0  0  0  0  0  0  0  0  0  0  0
   32.0270   27.9610   47.7790 C   0  0  0  0  0  0  0  0  0  0  0  0
   31.5020   27.5430   48.9880 C   0  0  0  0  0  0  0  0  0  0  0  0
   30.1870   27.7000   49.3050 C   0  0  0  0  0  0  0  0  0  0  0  0
   29.3760   28.2700   48.4360 N   0  0  0  0  0  0  0  0  0  0  0  0
   29.8860   28.6880   47.2340 C   0  0  0  0  0  0  0  0  0  0  0  0
   31.1840   28.5400   46.9060 N   0  0  0  0  0  0  0  0  0  0  0  0
   32.1670   27.0710   49.7120 H   0  0  0  0  0  0  0  0  0  0  0  0
   29.7670   27.3680   50.2670 H   0  0  0  0  0  0  0  0  0  0  0  0
   29.1050   29.3550   46.1300 C   0  0  0  0  0  0  0  0  0  0  0  0
   27.7880   29.8800   46.6000 C   0  0  0  0  0  0  0  0  0  0  0  0
   27.0680   29.7220   45.7480 H   0  0  0  0  0  0  0  0  0  0  0  0
  1  7  1  0  0  0  0
  2  8  1  0  0  0  0
  2  1  2  0  0  0  0
  3  2  1  0  0  0  0
  4  3  2  0  0  0  0
  4  5  1  0  0  0  0
  5  6  2  0  0  0  0
  6  1  1  0  0  0  0
 10 11  1  0  0  0  0
 10  9  1  0  0  0  0
 11  3  1  0  0  0  0
 12 11  2  0  0  0  0
 13 12  1  0  0  0  0
 14 13  2  0  0  0  0
 14 15  1  0  0  0  0
 15 19  1  0  0  0  0
 15 10  2  0  0  0  0
 16 12  1  0  0  0  0
 17 13  1  0  0  0  0
 18 14  1  0  0  0  0
 20  5  1  0  0  0  0
 21 23  1  0  0  0  0
 21 20  1  0  0  0  0
 22 21  1  0  0  0  0
 24 27  1  0  0  0  0
 24 25  1  0  0  0  0
 24 21  1  0  0  0  0
 26 24  1  0  0  0  0
 27 28  1  0  0  0  0
 28 29  2  0  0  0  0
 28 33  1  0  0  0  0
 29 34  1  0  0  0  0
 30 29  1  0  0  0  0
 31 30  2  0  0  0  0
 32 31  1  0  0  0  0
 32 27  2  0  0  0  0
 35 36  1  0  0  0  0
 35 31  1  0  0  0  0
 37 36  1  0  0  0  0
M  END
>  <minimizedAffinity>
-6.22811699

>  <minimizedRMSD>
0.437162906

$$$$
