
 OpenBabel03272508473D

 34 37  0  0  0  0  0  0  0  0999 V2000
   35.6630   29.8680   49.7140 C   0  0  0  0  0  0  0  0  0  0  0  0
   36.6340   29.8130   50.6950 C   0  0  0  0  0  0  0  0  0  0  0  0
   37.7520   30.3620   50.0780 C   0  0  0  0  0  0  0  0  0  0  0  0
   37.4240   30.7160   48.7940 C   0  0  0  0  0  0  0  0  0  0  0  0
   36.1620   30.4050   48.6100 O   0  0  0  0  0  0  0  0  0  0  0  0
   36.5490   29.4280   51.7160 H   0  0  0  0  0  0  0  0  0  0  0  0
   38.7120   30.4780   50.5630 H   0  0  0  0  0  0  0  0  0  0  0  0
   38.8620   32.5680   48.0600 C   0  0  0  0  0  0  0  0  0  0  0  0
   38.2990   31.3280   47.7970 C   0  0  0  0  0  0  0  0  0  0  0  0
   38.5460   30.6470   46.6070 C   0  0  0  0  0  0  0  0  0  0  0  0
   39.3740   31.2100   45.6480 C   0  0  0  0  0  0  0  0  0  0  0  0
   39.8000   30.8180   44.4280 N   0  0  0  0  0  0  0  0  0  0  0  0
   40.5880   31.7770   43.9640 N   0  0  0  0  0  0  0  0  0  0  0  0
   40.6800   32.7830   44.8640 C   0  0  0  0  0  0  0  0  0  0  0  0
   39.9020   32.4350   45.9600 C   0  0  0  0  0  0  0  0  0  0  0  0
   39.6990   33.1620   47.1180 C   0  0  0  0  0  0  0  0  0  0  0  0
   38.6830   33.1120   48.9770 H   0  0  0  0  0  0  0  0  0  0  0  0
   38.0930   29.6850   46.4360 H   0  0  0  0  0  0  0  0  0  0  0  0
   39.4990   29.9050   44.0200 H   0  0  0  0  0  0  0  0  0  0  0  0
   41.2860   33.6830   44.6820 H   0  0  0  0  0  0  0  0  0  0  0  0
   40.1570   34.1140   47.2710 H   0  0  0  0  0  0  0  0  0  0  0  0
   34.2930   29.4000   49.8850 C   0  0  0  0  0  0  0  0  0  0  0  0
   33.7160   29.6210   50.9640 O   0  0  0  0  0  0  0  0  0  0  0  0
   31.9390   27.2500   48.1180 C   0  0  0  0  0  0  0  0  0  0  0  0
   32.3580   27.3120   46.8040 C   0  0  0  0  0  0  0  0  0  0  0  0
   33.4470   28.0850   46.4940 C   0  0  0  0  0  0  0  0  0  0  0  0
   34.0680   28.7590   47.5020 N   0  0  0  0  0  0  0  0  0  0  0  0
   33.6420   28.6860   48.7870 C   0  0  0  0  0  0  0  0  0  0  0  0
   32.5770   27.9250   49.0670 N   0  0  0  0  0  0  0  0  0  0  0  0
   31.0740   26.6180   48.2730 H   0  0  0  0  0  0  0  0  0  0  0  0
   31.9500   26.8250   45.9180 H   0  0  0  0  0  0  0  0  0  0  0  0
   34.1210   28.3470   45.2020 C   0  0  0  0  0  0  0  0  0  0  0  0
   34.9520   29.6340   45.2760 C   0  0  0  0  0  0  0  0  0  0  0  0
   34.2690   30.4890   45.2300 H   0  0  0  0  0  0  0  0  0  0  0  0
  1 22  1  0  0  0  0
  1  2  2  0  0  0  0
  2  6  1  0  0  0  0
  3  7  1  0  0  0  0
  3  2  1  0  0  0  0
  4  3  2  0  0  0  0
  5  4  1  0  0  0  0
  5  1  1  0  0  0  0
  8 17  1  0  0  0  0
  9  8  1  0  0  0  0
  9  4  1  0  0  0  0
 10  9  2  0  0  0  0
 11 15  2  0  0  0  0
 11 10  1  0  0  0  0
 12 11  1  0  0  0  0
 13 12  1  0  0  0  0
 13 14  2  0  0  0  0
 14 15  1  0  0  0  0
 15 16  1  0  0  0  0
 16 21  1  0  0  0  0
 16  8  2  0  0  0  0
 18 10  1  0  0  0  0
 19 12  1  0  0  0  0
 20 14  1  0  0  0  0
 22 23  2  0  0  0  0
 24 30  1  0  0  0  0
 24 29  1  0  0  0  0
 25 24  2  0  0  0  0
 26 25  1  0  0  0  0
 26 27  2  0  0  0  0
 27 28  1  0  0  0  0
 28 29  2  0  0  0  0
 28 22  1  0  0  0  0
 31 25  1  0  0  0  0
 32 33  1  0  0  0  0
 32 26  1  0  0  0  0
 34 33  1  0  0  0  0
M  END
>  <minimizedAffinity>
-6.3126502

>  <minimizedRMSD>
1.22506034

$$$$
