
 OpenBabel03272510263D

 39 42  0  0  1  0  0  0  0  0999 V2000
   36.2350   30.1980   46.8710 C   0  0  0  0  0  0  0  0  0  0  0  0
   37.0780   30.7690   47.8200 C   0  0  0  0  0  0  0  0  0  0  0  0
   38.0620   31.6720   47.4500 C   0  0  0  0  0  0  0  0  0  0  0  0
   38.1590   31.9730   46.0960 C   0  0  0  0  0  0  0  0  0  0  0  0
   39.0380   32.8250   45.4940 N   0  0  0  0  0  0  0  0  0  0  0  0
   38.7550   32.7930   44.1810 C   0  0  0  0  0  0  0  0  0  0  0  0
   37.7560   31.9700   43.9490 N   0  0  0  0  0  0  0  0  0  0  0  0
   37.3450   31.4300   45.1220 C   0  0  0  0  0  0  0  0  0  0  0  0
   36.3580   30.5190   45.5240 C   0  0  0  0  0  0  0  0  0  0  0  0
   35.4460   29.4880   47.0800 H   0  0  0  0  0  0  0  0  0  0  0  0
   38.7110   32.1100   48.1930 H   0  0  0  0  0  0  0  0  0  0  0  0
   39.7900   33.3960   45.9650 H   0  0  0  0  0  0  0  0  0  0  0  0
   35.7230   30.0980   44.7530 H   0  0  0  0  0  0  0  0  0  0  0  0
   37.4870   30.1540   51.4980 C   0  0  0  0  0  0  0  0  0  0  0  0
   37.7840   30.5920   50.2190 C   0  0  0  0  0  0  0  0  0  0  0  0
   36.8730   30.3610   49.1950 C   0  0  0  0  0  0  0  0  0  0  0  0
   35.7180   29.7060   49.5140 N   0  0  0  0  0  0  0  0  0  0  0  0
   35.4370   29.2830   50.7630 C   0  0  0  0  0  0  0  0  0  0  0  0
   36.3170   29.5080   51.7360 N   0  0  0  0  0  0  0  0  0  0  0  0
   38.1920   30.3310   52.2900 H   0  0  0  0  0  0  0  0  0  0  0  0
   38.7040   31.1100   49.9820 H   0  0  0  0  0  0  0  0  0  0  0  0
   34.4790   28.7750   50.8640 H   0  0  0  0  0  0  0  0  0  0  0  0
   39.4780   33.5630   43.2570 O   0  0  0  0  0  0  0  0  0  0  0  0
   39.5920   31.8740   41.7270 N   0  0  0  0  0  0  0  0  0  0  0  0
   39.2170   33.2940   41.8860 C   0  0  1  0  0  0  0  0  0  0  0  0
   37.8050   33.4410   41.5500 C   0  0  0  0  0  0  0  0  0  0  0  0
   37.6370   33.1450   40.1850 O   0  0  0  0  0  0  0  0  0  0  0  0
   38.0950   31.9210   39.7940 C   0  0  0  0  0  0  0  0  0  0  0  0
   39.4700   31.6030   40.3120 C   0  0  2  0  0  0  0  0  0  0  0  0
   40.6320   31.8800   41.9260 H   0  0  0  0  0  0  0  0  0  0  0  0
   39.8180   33.9260   41.2130 H   0  0  0  0  0  0  0  0  0  0  0  0
   37.5580   34.5450   41.6060 H   0  0  0  0  0  0  0  0  0  0  0  0
   37.0080   32.9300   42.0190 H   0  0  0  0  0  0  0  0  0  0  0  0
   37.4020   31.0740   40.0650 H   0  0  0  0  0  0  0  0  0  0  0  0
   38.1870   31.9590   38.6870 H   0  0  0  0  0  0  0  0  0  0  0  0
   40.2680   32.1250   39.7430 H   0  0  0  0  0  0  0  0  0  0  0  0
   39.7260   30.1080   40.1440 C   0  0  0  0  0  2  0  0  0  0  0  0
   38.6070   29.4070   39.4480 C   0  0  0  0  0  2  0  0  0  0  0  0
   37.9450   30.0700   38.8560 H   0  0  0  0  0  0  0  0  0  0  0  0
  1 10  1  0  0  0  0
  1  2  1  0  0  0  0
  2 16  1  0  0  0  0
  3  2  2  0  0  0  0
  3 11  1  0  0  0  0
  4  3  1  0  0  0  0
  5 12  1  0  0  0  0
  5  4  1  0  0  0  0
  6  5  1  0  0  0  0
  7  6  2  0  0  0  0
  7  8  1  0  0  0  0
  8  9  1  0  0  0  0
  8  4  2  0  0  0  0
  9  1  2  0  0  0  0
 13  9  1  0  0  0  0
 14 19  1  0  0  0  0
 14 20  1  0  0  0  0
 15 14  2  0  0  0  0
 16 17  2  0  0  0  0
 16 15  1  0  0  0  0
 17 18  1  0  0  0  0
 18 22  1  0  0  0  0
 18 19  2  0  0  0  0
 21 15  1  0  0  0  0
 23  6  1  0  0  0  0
 24 25  1  0  0  0  0
 24 30  1  0  0  0  0
 25 31  1  6  0  0  0
 25 23  1  0  0  0  0
 26 32  1  0  0  0  0
 26 25  1  0  0  0  0
 26 33  1  0  0  0  0
 27 26  1  0  0  0  0
 28 34  1  0  0  0  0
 28 27  1  0  0  0  0
 28 29  1  0  0  0  0
 29 36  1  6  0  0  0
 29 24  1  0  0  0  0
 35 28  1  0  0  0  0
 37 29  1  0  0  0  0
 38 37  1  0  0  0  0
 39 38  1  0  0  0  0
M  END
>  <minimizedAffinity>
-5.49766684

>  <minimizedRMSD>
0.184867382

$$$$
