
 OpenBabel03272502393D

 34 36  0  0  1  0  0  0  0  0999 V2000
   32.7060   27.9080   48.5200 N   0  0  0  0  0  0  0  0  0  0  0  0
   33.4900   27.6700   47.3170 C   0  0  0  0  0  0  0  0  0  0  0  0
   34.7090   28.5220   47.5250 C   0  0  0  0  0  0  0  0  0  0  0  0
   34.3810   29.3780   48.8320 C   0  0  1  0  0  0  0  0  0  0  0  0
   33.6150   28.3780   49.5810 C   0  0  0  0  0  0  0  0  0  0  0  0
   33.7190   26.6140   47.1660 H   0  0  0  0  0  0  0  0  0  0  0  0
   32.9090   28.1260   46.4700 H   0  0  0  0  0  0  0  0  0  0  0  0
   34.9570   29.1910   46.7060 H   0  0  0  0  0  0  0  0  0  0  0  0
   35.5320   27.8660   47.8550 H   0  0  0  0  0  0  0  0  0  0  0  0
   33.8240   30.1710   48.3430 H   0  0  0  0  0  0  0  0  0  0  0  0
   33.0030   28.8880   50.3520 H   0  0  0  0  0  0  0  0  0  0  0  0
   34.2040   27.5340   49.9820 H   0  0  0  0  0  0  0  0  0  0  0  0
   36.1930   31.0480   47.4210 F   0  0  0  0  0  0  0  0  0  0  0  0
   36.4240   30.6500   48.6870 C   0  0  0  0  0  0  0  0  0  0  0  0
   35.6540   29.7910   49.4350 C   0  0  0  0  0  0  0  0  0  0  0  0
   36.0810   29.4670   50.7370 C   0  0  0  0  0  0  0  0  0  0  0  0
   37.2420   29.9910   51.2650 C   0  0  0  0  0  0  0  0  0  0  0  0
   38.0090   30.8600   50.4890 C   0  0  0  0  0  0  0  0  0  0  0  0
   37.5850   31.1840   49.1890 C   0  0  0  0  0  0  0  0  0  0  0  0
   35.4010   28.7880   51.2270 H   0  0  0  0  0  0  0  0  0  0  0  0
   37.4520   29.6630   52.2690 H   0  0  0  0  0  0  0  0  0  0  0  0
   38.9040   31.2400   50.9490 H   0  0  0  0  0  0  0  0  0  0  0  0
   38.4810   32.1150   48.4620 C   0  0  0  0  0  0  0  0  0  0  0  0
   38.7410   33.4070   49.2160 C   0  0  0  0  0  0  0  0  0  0  0  0
   39.5570   33.9280   48.6480 H   0  0  0  0  0  0  0  0  0  0  0  0
   31.3160   27.7360   48.6780 C   0  0  0  0  0  0  0  0  0  0  0  0
   30.6310   27.2380   47.5630 C   0  0  0  0  0  0  0  0  0  0  0  0
   29.2400   27.0530   47.6550 C   0  0  0  0  0  0  0  0  0  0  0  0
   28.6500   27.3810   48.8510 N   0  0  0  0  0  0  0  0  0  0  0  0
   29.3380   27.8530   49.8900 C   0  0  0  0  0  0  0  0  0  0  0  0
   30.6740   28.0280   49.7970 N   0  0  0  0  0  0  0  0  0  0  0  0
   31.0530   26.9640   46.6000 H   0  0  0  0  0  0  0  0  0  0  0  0
   28.6440   26.6730   46.8490 H   0  0  0  0  0  0  0  0  0  0  0  0
   28.9020   28.1220   50.8420 H   0  0  0  0  0  0  0  0  0  0  0  0
  1 26  1  0  0  0  0
  1  5  1  0  0  0  0
  2  3  1  0  0  0  0
  2  1  1  0  0  0  0
  3  9  1  0  0  0  0
  3  4  1  0  0  0  0
  4 10  1  6  0  0  0
  4 15  1  0  0  0  0
  4  5  1  0  0  0  0
  5 12  1  0  0  0  0
  5 11  1  0  0  0  0
  6  2  1  0  0  0  0
  7  2  1  0  0  0  0
  8  3  1  0  0  0  0
 13 14  1  0  0  0  0
 14 19  2  0  0  0  0
 14 15  1  0  0  0  0
 15 16  2  0  0  0  0
 16 20  1  0  0  0  0
 16 17  1  0  0  0  0
 17 21  1  0  0  0  0
 18 22  1  0  0  0  0
 18 17  2  0  0  0  0
 19 18  1  0  0  0  0
 23 19  1  0  0  0  0
 23 24  1  0  0  0  0
 25 24  1  0  0  0  0
 26 31  1  0  0  0  0
 27 28  1  0  0  0  0
 27 26  2  0  0  0  0
 28 29  2  0  0  0  0
 29 30  1  0  0  0  0
 30 34  1  0  0  0  0
 31 30  2  0  0  0  0
 32 27  1  0  0  0  0
 33 28  1  0  0  0  0
M  END
>  <minimizedAffinity>
-6.47519016

>  <minimizedRMSD>
2.98142362

$$$$
