
 OpenBabel03272500013D

 22 23  0  0  0  0  0  0  0  0999 V2000
   37.1730   31.4920   48.4700 N   0  0  0  0  0  0  0  0  0  0  0  0
   37.2340   32.2530   49.5890 C   0  0  0  0  0  0  0  0  0  0  0  0
   38.1730   33.2760   49.6790 C   0  0  0  0  0  0  0  0  0  0  0  0
   38.9690   33.4030   48.5690 C   0  0  0  0  0  0  0  0  0  0  0  0
   39.8510   34.3290   48.5970 O   0  0  0  0  0  0  0  0  0  0  0  0
   38.9310   32.6670   47.4540 N   0  0  0  0  0  0  0  0  0  0  0  0
   37.9960   31.6890   47.4290 C   0  0  0  0  0  0  0  0  0  0  0  0
   37.9450   30.9790   46.3770 O   0  0  0  0  0  0  0  0  0  0  0  0
   36.5620   32.0860   50.4300 H   0  0  0  0  0  0  0  0  0  0  0  0
   38.2740   33.9200   50.5430 H   0  0  0  0  0  0  0  0  0  0  0  0
   39.5730   32.8260   46.6500 H   0  0  0  0  0  0  0  0  0  0  0  0
   36.2730   29.3850   49.2770 C   0  0  0  0  0  0  0  0  0  0  0  0
   36.2270   30.4420   48.3490 C   0  0  0  0  0  0  0  0  0  0  0  0
   35.2410   30.3770   47.3650 C   0  0  0  0  0  0  0  0  0  0  0  0
   34.3910   29.3250   47.3460 N   0  0  0  0  0  0  0  0  0  0  0  0
   34.4630   28.3290   48.2530 C   0  0  0  0  0  0  0  0  0  0  0  0
   35.4010   28.3520   49.2210 N   0  0  0  0  0  0  0  0  0  0  0  0
   37.0280   29.4090   50.0520 H   0  0  0  0  0  0  0  0  0  0  0  0
   35.1980   31.1870   46.6430 H   0  0  0  0  0  0  0  0  0  0  0  0
   33.5160   27.1810   48.2110 C   0  0  0  0  0  0  0  0  0  0  0  0
   32.1200   27.6960   48.5540 C   0  0  0  0  0  0  0  0  0  0  0  0
   31.9030   28.5880   47.9440 H   0  0  0  0  0  0  0  0  0  0  0  0
  1  2  1  0  0  0  0
  2  3  2  0  0  0  0
  2  9  1  0  0  0  0
  3 10  1  0  0  0  0
  4  5  2  0  0  0  0
  4  3  1  0  0  0  0
  6  4  1  0  0  0  0
  7  6  1  0  0  0  0
  7  1  1  0  0  0  0
  8  7  2  0  0  0  0
 11  6  1  0  0  0  0
 12 18  1  0  0  0  0
 13  1  1  0  0  0  0
 13 12  2  0  0  0  0
 14 13  1  0  0  0  0
 15 14  2  0  0  0  0
 15 16  1  0  0  0  0
 16 17  2  0  0  0  0
 17 12  1  0  0  0  0
 19 14  1  0  0  0  0
 20 16  1  0  0  0  0
 20 21  1  0  0  0  0
 22 21  1  0  0  0  0
M  END
>  <minimizedAffinity>
-5.12286568

>  <minimizedRMSD>
0.46361509

$$$$
