
 OpenBabel03272502403D

 34 36  0  0  1  0  0  0  0  0999 V2000
   36.5150   27.7860   32.7260 N   0  0  0  0  0  0  0  0  0  0  0  0
   36.5920   28.8970   31.7890 C   0  0  0  0  0  0  0  0  0  0  0  0
   35.8320   29.9890   32.4840 C   0  0  0  0  0  0  0  0  0  0  0  0
   35.1800   29.2760   33.7560 C   0  0  1  0  0  0  0  0  0  0  0  0
   36.2540   28.3310   34.0710 C   0  0  0  0  0  0  0  0  0  0  0  0
   37.6190   29.1710   31.5450 H   0  0  0  0  0  0  0  0  0  0  0  0
   35.9870   28.5920   30.8930 H   0  0  0  0  0  0  0  0  0  0  0  0
   35.0520   30.4640   31.8950 H   0  0  0  0  0  0  0  0  0  0  0  0
   36.5630   30.6820   32.9340 H   0  0  0  0  0  0  0  0  0  0  0  0
   34.2980   28.8830   33.2580 H   0  0  0  0  0  0  0  0  0  0  0  0
   35.8480   27.5110   34.6980 H   0  0  0  0  0  0  0  0  0  0  0  0
   37.1730   28.7810   34.4870 H   0  0  0  0  0  0  0  0  0  0  0  0
   32.5780   29.6340   34.8350 F   0  0  0  0  0  0  0  0  0  0  0  0
   33.6350   30.3490   35.2650 C   0  0  0  0  0  0  0  0  0  0  0  0
   34.9170   30.3060   34.7670 C   0  0  0  0  0  0  0  0  0  0  0  0
   35.8850   31.1590   35.3310 C   0  0  0  0  0  0  0  0  0  0  0  0
   35.5710   32.0230   36.3600 C   0  0  0  0  0  0  0  0  0  0  0  0
   34.2660   32.0500   36.8490 C   0  0  0  0  0  0  0  0  0  0  0  0
   33.2980   31.2010   36.2870 C   0  0  0  0  0  0  0  0  0  0  0  0
   36.8490   31.0390   34.8640 H   0  0  0  0  0  0  0  0  0  0  0  0
   36.4030   32.6180   36.6990 H   0  0  0  0  0  0  0  0  0  0  0  0
   34.0760   32.7420   37.6510 H   0  0  0  0  0  0  0  0  0  0  0  0
   31.9470   31.3210   36.8890 C   0  0  0  0  0  2  0  0  0  0  0  0
   31.3180   32.6860   36.6790 C   0  0  0  0  0  2  0  0  0  0  0  0
   30.2530   32.5820   37.0200 H   0  0  0  0  0  0  0  0  0  0  0  0
   36.6560   26.4150   32.4350 C   0  0  0  0  0  0  0  0  0  0  0  0
   35.8900   25.9350   31.3660 C   0  0  0  0  0  0  0  0  0  0  0  0
   35.9790   24.5720   31.0320 C   0  0  0  0  0  0  0  0  0  0  0  0
   36.8250   23.8030   31.7920 N   0  0  0  0  0  0  0  0  0  0  0  0
   37.5380   24.2970   32.8040 C   0  0  0  0  0  0  0  0  0  0  0  0
   37.4490   25.6070   33.1200 N   0  0  0  0  0  0  0  0  0  0  0  0
   35.2110   26.5030   30.7360 H   0  0  0  0  0  0  0  0  0  0  0  0
   35.4290   24.1280   30.2260 H   0  0  0  0  0  0  0  0  0  0  0  0
   38.2090   23.7170   33.4220 H   0  0  0  0  0  0  0  0  0  0  0  0
  1  5  1  0  0  0  0
  2  3  1  0  0  0  0
  2  1  1  0  0  0  0
  3  9  1  0  0  0  0
  3  4  1  0  0  0  0
  4 10  1  6  0  0  0
  4  5  1  0  0  0  0
  4 15  1  0  0  0  0
  5 12  1  0  0  0  0
  5 11  1  0  0  0  0
  6  2  1  0  0  0  0
  7  2  1  0  0  0  0
  8  3  1  0  0  0  0
 13 14  1  0  0  0  0
 14 19  1  0  0  0  0
 15 14  2  0  0  0  0
 15 16  1  0  0  0  0
 16 17  2  0  0  0  0
 17 21  1  0  0  0  0
 17 18  1  0  0  0  0
 18 22  1  0  0  0  0
 19 18  2  0  0  0  0
 19 23  1  0  0  0  0
 20 16  1  0  0  0  0
 24 23  1  0  0  0  0
 24 25  1  0  0  0  0
 26  1  1  0  0  0  0
 26 31  1  0  0  0  0
 27 26  2  0  0  0  0
 28 27  1  0  0  0  0
 28 29  2  0  0  0  0
 29 30  1  0  0  0  0
 30 31  2  0  0  0  0
 30 34  1  0  0  0  0
 32 27  1  0  0  0  0
 33 28  1  0  0  0  0
M  END
>  <minimizedAffinity>
-5.36615753

$$$$

 OpenBabel03272502403D

 34 36  0  0  1  0  0  0  0  0999 V2000
   36.4620   27.8650   32.6790 N   0  0  0  0  0  0  0  0  0  0  0  0
   36.5530   28.9750   31.7420 C   0  0  0  0  0  0  0  0  0  0  0  0
   35.8210   30.0810   32.4440 C   0  0  0  0  0  0  0  0  0  0  0  0
   35.1650   29.3800   33.7210 C   0  0  1  0  0  0  0  0  0  0  0  0
   36.2230   28.4140   34.0270 C   0  0  0  0  0  0  0  0  0  0  0  0
   37.5840   29.2290   31.4900 H   0  0  0  0  0  0  0  0  0  0  0  0
   35.9340   28.6830   30.8510 H   0  0  0  0  0  0  0  0  0  0  0  0
   35.0460   30.5730   31.8630 H   0  0  0  0  0  0  0  0  0  0  0  0
   36.5700   30.7590   32.8890 H   0  0  0  0  0  0  0  0  0  0  0  0
   34.2720   29.0050   33.2300 H   0  0  0  0  0  0  0  0  0  0  0  0
   35.8060   27.6010   34.6560 H   0  0  0  0  0  0  0  0  0  0  0  0
   37.1550   28.8450   34.4360 H   0  0  0  0  0  0  0  0  0  0  0  0
   32.6290   29.6580   34.9670 F   0  0  0  0  0  0  0  0  0  0  0  0
   33.6850   30.4170   35.3170 C   0  0  0  0  0  0  0  0  0  0  0  0
   34.9310   30.4140   34.7360 C   0  0  0  0  0  0  0  0  0  0  0  0
   35.9010   31.3100   35.2240 C   0  0  0  0  0  0  0  0  0  0  0  0
   35.6240   32.1760   36.2610 C   0  0  0  0  0  0  0  0  0  0  0  0
   34.3540   32.1620   36.8360 C   0  0  0  0  0  0  0  0  0  0  0  0
   33.3840   31.2700   36.3490 C   0  0  0  0  0  0  0  0  0  0  0  0
   36.8370   31.2190   34.6950 H   0  0  0  0  0  0  0  0  0  0  0  0
   36.4530   32.8060   36.5370 H   0  0  0  0  0  0  0  0  0  0  0  0
   34.1920   32.8580   37.6410 H   0  0  0  0  0  0  0  0  0  0  0  0
   32.0720   31.3490   37.0380 C   0  0  0  0  0  2  0  0  0  0  0  0
   31.2300   32.5290   36.5880 C   0  0  0  0  0  2  0  0  0  0  0  0
   30.2170   32.3680   37.0460 H   0  0  0  0  0  0  0  0  0  0  0  0
   36.5730   26.4920   32.3850 C   0  0  0  0  0  0  0  0  0  0  0  0
   37.6030   25.8070   33.0410 C   0  0  0  0  0  0  0  0  0  0  0  0
   37.7710   24.4350   32.7820 C   0  0  0  0  0  0  0  0  0  0  0  0
   36.8990   23.8620   31.8890 N   0  0  0  0  0  0  0  0  0  0  0  0
   35.9310   24.5500   31.2840 C   0  0  0  0  0  0  0  0  0  0  0  0
   35.7730   25.8670   31.5370 N   0  0  0  0  0  0  0  0  0  0  0  0
   38.3140   26.2150   33.7540 H   0  0  0  0  0  0  0  0  0  0  0  0
   38.5320   23.8390   33.2460 H   0  0  0  0  0  0  0  0  0  0  0  0
   35.2310   24.1280   30.5750 H   0  0  0  0  0  0  0  0  0  0  0  0
  1  5  1  0  0  0  0
  2  3  1  0  0  0  0
  2  1  1  0  0  0  0
  3  9  1  0  0  0  0
  3  4  1  0  0  0  0
  4 10  1  6  0  0  0
  4  5  1  0  0  0  0
  4 15  1  0  0  0  0
  5 12  1  0  0  0  0
  5 11  1  0  0  0  0
  6  2  1  0  0  0  0
  7  2  1  0  0  0  0
  8  3  1  0  0  0  0
 13 14  1  0  0  0  0
 14 19  1  0  0  0  0
 15 16  1  0  0  0  0
 15 14  2  0  0  0  0
 16 17  2  0  0  0  0
 17 21  1  0  0  0  0
 17 18  1  0  0  0  0
 18 22  1  0  0  0  0
 19 18  2  0  0  0  0
 19 23  1  0  0  0  0
 20 16  1  0  0  0  0
 24 23  1  0  0  0  0
 24 25  1  0  0  0  0
 26  1  1  0  0  0  0
 26 27  1  0  0  0  0
 27 32  1  0  0  0  0
 28 27  2  0  0  0  0
 28 33  1  0  0  0  0
 29 28  1  0  0  0  0
 30 31  1  0  0  0  0
 30 29  2  0  0  0  0
 31 26  2  0  0  0  0
 34 30  1  0  0  0  0
M  END
>  <minimizedAffinity>
-5.26187754

$$$$

 OpenBabel03272502403D

 34 36  0  0  1  0  0  0  0  0999 V2000
   36.0380   29.4010   31.9780 N   0  0  0  0  0  0  0  0  0  0  0  0
   36.1800   28.2380   32.8420 C   0  0  0  0  0  0  0  0  0  0  0  0
   35.8920   28.7850   34.2090 C   0  0  0  0  0  0  0  0  0  0  0  0
   35.8030   30.3660   33.9980 C   0  0  1  0  0  0  0  0  0  0  0  0
   35.1880   30.3900   32.6680 C   0  0  0  0  0  0  0  0  0  0  0  0
   35.5200   27.4180   32.5540 H   0  0  0  0  0  0  0  0  0  0  0  0
   37.2690   27.9630   32.8180 H   0  0  0  0  0  0  0  0  0  0  0  0
   36.6370   28.5620   34.9680 H   0  0  0  0  0  0  0  0  0  0  0  0
   34.8580   28.5100   34.4770 H   0  0  0  0  0  0  0  0  0  0  0  0
   36.8660   30.5750   34.0610 H   0  0  0  0  0  0  0  0  0  0  0  0
   35.3680   31.3790   32.2000 H   0  0  0  0  0  0  0  0  0  0  0  0
   34.1290   30.0770   32.6300 H   0  0  0  0  0  0  0  0  0  0  0  0
   33.1160   29.5340   34.3950 F   0  0  0  0  0  0  0  0  0  0  0  0
   33.7270   30.4030   35.2230 C   0  0  0  0  0  0  0  0  0  0  0  0
   34.9920   30.9240   35.0870 C   0  0  0  0  0  0  0  0  0  0  0  0
   35.4450   31.8500   36.0450 C   0  0  0  0  0  0  0  0  0  0  0  0
   34.6490   32.2370   37.1040 C   0  0  0  0  0  0  0  0  0  0  0  0
   33.3690   31.6970   37.2240 C   0  0  0  0  0  0  0  0  0  0  0  0
   32.9150   30.7730   36.2670 C   0  0  0  0  0  0  0  0  0  0  0  0
   36.4470   32.1890   35.8370 H   0  0  0  0  0  0  0  0  0  0  0  0
   35.1160   32.9490   37.7630 H   0  0  0  0  0  0  0  0  0  0  0  0
   32.7920   32.0340   38.0670 H   0  0  0  0  0  0  0  0  0  0  0  0
   31.5390   30.2710   36.4990 C   0  0  0  0  0  2  0  0  0  0  0  0
   31.5010   28.9790   37.2950 C   0  0  0  0  0  2  0  0  0  0  0  0
   30.4190   28.8120   37.5470 H   0  0  0  0  0  0  0  0  0  0  0  0
   36.6030   29.5880   30.7020 C   0  0  0  0  0  0  0  0  0  0  0  0
   36.6410   30.9080   30.2360 C   0  0  0  0  0  0  0  0  0  0  0  0
   37.1860   31.1580   28.9640 C   0  0  0  0  0  0  0  0  0  0  0  0
   37.6450   30.0710   28.2630 N   0  0  0  0  0  0  0  0  0  0  0  0
   37.5900   28.8280   28.7410 C   0  0  0  0  0  0  0  0  0  0  0  0
   37.0680   28.5930   29.9640 N   0  0  0  0  0  0  0  0  0  0  0  0
   36.2930   31.7980   30.7530 H   0  0  0  0  0  0  0  0  0  0  0  0
   37.2550   32.1390   28.5380 H   0  0  0  0  0  0  0  0  0  0  0  0
   37.9410   27.9520   28.2120 H   0  0  0  0  0  0  0  0  0  0  0  0
  1  5  1  0  0  0  0
  1  2  1  0  0  0  0
  2  3  1  0  0  0  0
  3  9  1  0  0  0  0
  3  8  1  0  0  0  0
  4 10  1  6  0  0  0
  4  3  1  0  0  0  0
  4 15  1  0  0  0  0
  5  4  1  0  0  0  0
  6  2  1  0  0  0  0
  7  2  1  0  0  0  0
 11  5  1  0  0  0  0
 12  5  1  0  0  0  0
 13 14  1  0  0  0  0
 14 19  1  0  0  0  0
 15 14  2  0  0  0  0
 15 16  1  0  0  0  0
 16 17  2  0  0  0  0
 17 18  1  0  0  0  0
 17 21  1  0  0  0  0
 18 22  1  0  0  0  0
 19 23  1  0  0  0  0
 19 18  2  0  0  0  0
 20 16  1  0  0  0  0
 23 24  1  0  0  0  0
 24 25  1  0  0  0  0
 26  1  1  0  0  0  0
 27 26  1  0  0  0  0
 27 32  1  0  0  0  0
 28 27  2  0  0  0  0
 29 30  2  0  0  0  0
 29 28  1  0  0  0  0
 30 31  1  0  0  0  0
 31 26  2  0  0  0  0
 33 28  1  0  0  0  0
 34 30  1  0  0  0  0
M  END
>  <minimizedAffinity>
-5.2439537

$$$$

 OpenBabel03272502403D

 34 36  0  0  1  0  0  0  0  0999 V2000
   36.9960   26.5420   33.4870 N   0  0  0  0  0  0  0  0  0  0  0  0
   37.1210   25.3640   32.6410 C   0  0  0  0  0  0  0  0  0  0  0  0
   38.0070   24.4550   33.4420 C   0  0  0  0  0  0  0  0  0  0  0  0
   38.4960   25.3530   34.6690 C   0  0  1  0  0  0  0  0  0  0  0  0
   37.2820   26.1460   34.8780 C   0  0  0  0  0  0  0  0  0  0  0  0
   36.1560   24.9200   32.3920 H   0  0  0  0  0  0  0  0  0  0  0  0
   37.7090   25.6880   31.7390 H   0  0  0  0  0  0  0  0  0  0  0  0
   38.8710   24.0590   32.9150 H   0  0  0  0  0  0  0  0  0  0  0  0
   37.3690   23.6960   33.9270 H   0  0  0  0  0  0  0  0  0  0  0  0
   39.3280   25.8350   34.1660 H   0  0  0  0  0  0  0  0  0  0  0  0
   37.5380   27.0630   35.4470 H   0  0  0  0  0  0  0  0  0  0  0  0
   36.4240   25.5950   35.3040 H   0  0  0  0  0  0  0  0  0  0  0  0
   40.9600   23.9400   34.6300 F   0  0  0  0  0  0  0  0  0  0  0  0
   40.1110   23.8710   35.6740 C   0  0  0  0  0  0  0  0  0  0  0  0
   38.8700   24.4540   35.7680 C   0  0  0  0  0  0  0  0  0  0  0  0
   38.1130   24.2380   36.9350 C   0  0  0  0  0  0  0  0  0  0  0  0
   38.5920   23.4630   37.9700 C   0  0  0  0  0  0  0  0  0  0  0  0
   39.8540   22.8800   37.8550 C   0  0  0  0  0  0  0  0  0  0  0  0
   40.6100   23.0940   36.6890 C   0  0  0  0  0  0  0  0  0  0  0  0
   37.1600   24.7420   36.8980 H   0  0  0  0  0  0  0  0  0  0  0  0
   37.9150   23.3790   38.8030 H   0  0  0  0  0  0  0  0  0  0  0  0
   40.1790   22.2860   38.6910 H   0  0  0  0  0  0  0  0  0  0  0  0
   41.9330   22.4230   36.6820 C   0  0  0  0  0  2  0  0  0  0  0  0
   41.9310   21.0880   37.4030 C   0  0  0  0  0  2  0  0  0  0  0  0
   42.9250   20.6180   37.1710 H   0  0  0  0  0  0  0  0  0  0  0  0
   36.6650   27.8500   33.0810 C   0  0  0  0  0  0  0  0  0  0  0  0
   35.9580   28.6190   34.0130 C   0  0  0  0  0  0  0  0  0  0  0  0
   35.5900   29.9300   33.6640 C   0  0  0  0  0  0  0  0  0  0  0  0
   35.9580   30.3630   32.4140 N   0  0  0  0  0  0  0  0  0  0  0  0
   36.6300   29.5990   31.5540 C   0  0  0  0  0  0  0  0  0  0  0  0
   36.9820   28.3410   31.8950 N   0  0  0  0  0  0  0  0  0  0  0  0
   35.6490   28.3220   35.0110 H   0  0  0  0  0  0  0  0  0  0  0  0
   35.0530   30.5840   34.3220 H   0  0  0  0  0  0  0  0  0  0  0  0
   36.9300   29.9110   30.5630 H   0  0  0  0  0  0  0  0  0  0  0  0
  1  5  1  0  0  0  0
  2  3  1  0  0  0  0
  2  1  1  0  0  0  0
  3  9  1  0  0  0  0
  3  4  1  0  0  0  0
  4 10  1  6  0  0  0
  4  5  1  0  0  0  0
  4 15  1  0  0  0  0
  5 12  1  0  0  0  0
  5 11  1  0  0  0  0
  6  2  1  0  0  0  0
  7  2  1  0  0  0  0
  8  3  1  0  0  0  0
 13 14  1  0  0  0  0
 14 15  2  0  0  0  0
 14 19  1  0  0  0  0
 15 16  1  0  0  0  0
 16 17  2  0  0  0  0
 17 21  1  0  0  0  0
 18 17  1  0  0  0  0
 18 22  1  0  0  0  0
 19 18  2  0  0  0  0
 20 16  1  0  0  0  0
 23 19  1  0  0  0  0
 23 24  1  0  0  0  0
 25 24  1  0  0  0  0
 26  1  1  0  0  0  0
 26 27  1  0  0  0  0
 27 32  1  0  0  0  0
 28 27  2  0  0  0  0
 28 33  1  0  0  0  0
 29 28  1  0  0  0  0
 30 31  1  0  0  0  0
 30 29  2  0  0  0  0
 31 26  2  0  0  0  0
 34 30  1  0  0  0  0
M  END
>  <minimizedAffinity>
-5.22750235

$$$$

 OpenBabel03272502403D

 34 36  0  0  1  0  0  0  0  0999 V2000
   38.4300   25.0010   34.6750 N   0  0  0  0  0  0  0  0  0  0  0  0
   38.3880   24.3770   33.3600 C   0  0  0  0  0  0  0  0  0  0  0  0
   37.5860   25.3470   32.5420 C   0  0  0  0  0  0  0  0  0  0  0  0
   37.0420   26.4110   33.6020 C   0  0  1  0  0  0  0  0  0  0  0  0
   38.1920   26.4470   34.5100 C   0  0  0  0  0  0  0  0  0  0  0  0
   39.3820   24.1850   32.9540 H   0  0  0  0  0  0  0  0  0  0  0  0
   37.7660   23.4480   33.4740 H   0  0  0  0  0  0  0  0  0  0  0  0
   36.7500   24.9200   31.9960 H   0  0  0  0  0  0  0  0  0  0  0  0
   38.2880   25.9410   31.9310 H   0  0  0  0  0  0  0  0  0  0  0  0
   36.1680   25.8510   33.9240 H   0  0  0  0  0  0  0  0  0  0  0  0
   37.8710   26.8530   35.4910 H   0  0  0  0  0  0  0  0  0  0  0  0
   39.0950   26.9410   34.1090 H   0  0  0  0  0  0  0  0  0  0  0  0
   35.4440   28.4390   34.7840 F   0  0  0  0  0  0  0  0  0  0  0  0
   36.0220   28.5950   33.5780 C   0  0  0  0  0  0  0  0  0  0  0  0
   36.7540   27.6580   32.8860 C   0  0  0  0  0  0  0  0  0  0  0  0
   37.2530   28.0010   31.6150 C   0  0  0  0  0  0  0  0  0  0  0  0
   37.0240   29.2440   31.0630 C   0  0  0  0  0  0  0  0  0  0  0  0
   36.2790   30.1790   31.7810 C   0  0  0  0  0  0  0  0  0  0  0  0
   35.7790   29.8390   33.0490 C   0  0  0  0  0  0  0  0  0  0  0  0
   37.8090   27.1920   31.1680 H   0  0  0  0  0  0  0  0  0  0  0  0
   37.4610   29.3750   30.0870 H   0  0  0  0  0  0  0  0  0  0  0  0
   36.1310   31.1320   31.3030 H   0  0  0  0  0  0  0  0  0  0  0  0
   35.0030   30.9130   33.7140 C   0  0  0  0  0  2  0  0  0  0  0  0
   35.8170   31.7010   34.7250 C   0  0  0  0  0  2  0  0  0  0  0  0
   35.1740   32.5750   35.0140 H   0  0  0  0  0  0  0  0  0  0  0  0
   38.6510   24.3650   35.9120 C   0  0  0  0  0  0  0  0  0  0  0  0
   37.8230   24.7690   36.9650 C   0  0  0  0  0  0  0  0  0  0  0  0
   38.0010   24.1780   38.2290 C   0  0  0  0  0  0  0  0  0  0  0  0
   38.9920   23.2330   38.3340 N   0  0  0  0  0  0  0  0  0  0  0  0
   39.7620   22.8760   37.3070 C   0  0  0  0  0  0  0  0  0  0  0  0
   39.5850   23.4460   36.0960 N   0  0  0  0  0  0  0  0  0  0  0  0
   37.0270   25.5080   36.9290 H   0  0  0  0  0  0  0  0  0  0  0  0
   37.4060   24.4290   39.0830 H   0  0  0  0  0  0  0  0  0  0  0  0
   40.5510   22.1380   37.3600 H   0  0  0  0  0  0  0  0  0  0  0  0
  1 26  1  0  0  0  0
  2  7  1  0  0  0  0
  2  1  1  0  0  0  0
  3  2  1  0  0  0  0
  3  4  1  0  0  0  0
  4 10  1  1  0  0  0
  4  5  1  0  0  0  0
  5  1  1  0  0  0  0
  5 11  1  0  0  0  0
  6  2  1  0  0  0  0
  8  3  1  0  0  0  0
  9  3  1  0  0  0  0
 12  5  1  0  0  0  0
 14 13  1  0  0  0  0
 15 14  2  0  0  0  0
 15  4  1  0  0  0  0
 16 15  1  0  0  0  0
 17 16  2  0  0  0  0
 17 18  1  0  0  0  0
 18 19  2  0  0  0  0
 19 14  1  0  0  0  0
 19 23  1  0  0  0  0
 20 16  1  0  0  0  0
 21 17  1  0  0  0  0
 22 18  1  0  0  0  0
 23 24  1  0  0  0  0
 24 25  1  0  0  0  0
 26 31  2  0  0  0  0
 26 27  1  0  0  0  0
 27 28  2  0  0  0  0
 28 29  1  0  0  0  0
 28 33  1  0  0  0  0
 30 34  1  0  0  0  0
 30 29  2  0  0  0  0
 31 30  1  0  0  0  0
 32 27  1  0  0  0  0
M  END
>  <minimizedAffinity>
-5.15623999

$$$$

 OpenBabel03272502403D

 34 36  0  0  1  0  0  0  0  0999 V2000
   36.5730   27.3310   31.5110 N   0  0  0  0  0  0  0  0  0  0  0  0
   36.6290   28.1020   30.2780 C   0  0  0  0  0  0  0  0  0  0  0  0
   36.1760   29.4680   30.7020 C   0  0  0  0  0  0  0  0  0  0  0  0
   35.6800   29.2750   32.2080 C   0  0  1  0  0  0  0  0  0  0  0  0
   36.6490   28.2680   32.6480 C   0  0  0  0  0  0  0  0  0  0  0  0
   37.6210   28.0960   29.8230 H   0  0  0  0  0  0  0  0  0  0  0  0
   35.8290   27.6810   29.6100 H   0  0  0  0  0  0  0  0  0  0  0  0
   35.3750   29.9010   30.1100 H   0  0  0  0  0  0  0  0  0  0  0  0
   37.0700   30.1060   30.8140 H   0  0  0  0  0  0  0  0  0  0  0  0
   34.6740   28.9350   31.9810 H   0  0  0  0  0  0  0  0  0  0  0  0
   36.2550   27.7480   33.5440 H   0  0  0  0  0  0  0  0  0  0  0  0
   37.6840   28.6320   32.7750 H   0  0  0  0  0  0  0  0  0  0  0  0
   35.0370   29.5370   34.9620 F   0  0  0  0  0  0  0  0  0  0  0  0
   35.4860   30.5740   34.2300 C   0  0  0  0  0  0  0  0  0  0  0  0
   35.7600   30.5760   32.8830 C   0  0  0  0  0  0  0  0  0  0  0  0
   36.1930   31.7760   32.2870 C   0  0  0  0  0  0  0  0  0  0  0  0
   36.3460   32.9310   33.0240 C   0  0  0  0  0  0  0  0  0  0  0  0
   36.0630   32.9080   34.3900 C   0  0  0  0  0  0  0  0  0  0  0  0
   35.6290   31.7120   34.9860 C   0  0  0  0  0  0  0  0  0  0  0  0
   36.3770   31.6590   31.2310 H   0  0  0  0  0  0  0  0  0  0  0  0
   36.6840   33.7760   32.4470 H   0  0  0  0  0  0  0  0  0  0  0  0
   36.1990   33.8360   34.9160 H   0  0  0  0  0  0  0  0  0  0  0  0
   35.3590   31.8100   36.4410 C   0  0  0  0  0  2  0  0  0  0  0  0
   33.9620   32.3150   36.7570 C   0  0  0  0  0  2  0  0  0  0  0  0
   33.8340   32.1730   37.8640 H   0  0  0  0  0  0  0  0  0  0  0  0
   36.4600   25.9320   31.6370 C   0  0  0  0  0  0  0  0  0  0  0  0
   37.4180   25.3120   32.4480 C   0  0  0  0  0  0  0  0  0  0  0  0
   37.3640   23.9150   32.6050 C   0  0  0  0  0  0  0  0  0  0  0  0
   36.3610   23.2560   31.9390 N   0  0  0  0  0  0  0  0  0  0  0  0
   35.4680   23.8830   31.1740 C   0  0  0  0  0  0  0  0  0  0  0  0
   35.5230   25.2250   31.0280 N   0  0  0  0  0  0  0  0  0  0  0  0
   38.2260   25.7900   32.9940 H   0  0  0  0  0  0  0  0  0  0  0  0
   38.0570   23.3670   33.2110 H   0  0  0  0  0  0  0  0  0  0  0  0
   34.6690   23.3920   30.6360 H   0  0  0  0  0  0  0  0  0  0  0  0
  1 26  1  0  0  0  0
  1  5  1  0  0  0  0
  2  3  1  0  0  0  0
  2  1  1  0  0  0  0
  3  9  1  0  0  0  0
  3  4  1  0  0  0  0
  4 10  1  1  0  0  0
  4  5  1  0  0  0  0
  4 15  1  0  0  0  0
  5 12  1  0  0  0  0
  5 11  1  0  0  0  0
  6  2  1  0  0  0  0
  7  2  1  0  0  0  0
  8  3  1  0  0  0  0
 14 13  1  0  0  0  0
 14 19  1  0  0  0  0
 15 14  2  0  0  0  0
 16 15  1  0  0  0  0
 16 17  2  0  0  0  0
 17 18  1  0  0  0  0
 18 22  1  0  0  0  0
 18 19  2  0  0  0  0
 19 23  1  0  0  0  0
 20 16  1  0  0  0  0
 21 17  1  0  0  0  0
 23 24  1  0  0  0  0
 24 25  1  0  0  0  0
 26 27  1  0  0  0  0
 27 28  2  0  0  0  0
 27 32  1  0  0  0  0
 28 33  1  0  0  0  0
 29 28  1  0  0  0  0
 30 29  2  0  0  0  0
 31 30  1  0  0  0  0
 31 26  2  0  0  0  0
 34 30  1  0  0  0  0
M  END
>  <minimizedAffinity>
-5.07940674

$$$$

 OpenBabel03272502403D

 34 36  0  0  1  0  0  0  0  0999 V2000
   36.1720   28.9530   33.6170 N   0  0  0  0  0  0  0  0  0  0  0  0
   36.6570   28.6120   32.2880 C   0  0  0  0  0  0  0  0  0  0  0  0
   37.5150   27.4060   32.5310 C   0  0  0  0  0  0  0  0  0  0  0  0
   37.6000   27.2890   34.1220 C   0  0  1  0  0  0  0  0  0  0  0  0
   36.2510   27.7480   34.4630 C   0  0  0  0  0  0  0  0  0  0  0  0
   35.8480   28.4340   31.5780 H   0  0  0  0  0  0  0  0  0  0  0  0
   37.3420   29.4490   31.9810 H   0  0  0  0  0  0  0  0  0  0  0  0
   38.5190   27.4540   32.1170 H   0  0  0  0  0  0  0  0  0  0  0  0
   36.9370   26.5110   32.2450 H   0  0  0  0  0  0  0  0  0  0  0  0
   38.4180   27.9870   34.2690 H   0  0  0  0  0  0  0  0  0  0  0  0
   36.2320   28.0730   35.5220 H   0  0  0  0  0  0  0  0  0  0  0  0
   35.4350   27.0470   34.2080 H   0  0  0  0  0  0  0  0  0  0  0  0
   38.1560   26.5180   36.7970 F   0  0  0  0  0  0  0  0  0  0  0  0
   38.0970   25.6230   35.7930 C   0  0  0  0  0  0  0  0  0  0  0  0
   37.9050   25.8930   34.4580 C   0  0  0  0  0  0  0  0  0  0  0  0
   37.9060   24.8190   33.5480 C   0  0  0  0  0  0  0  0  0  0  0  0
   38.0920   23.5190   33.9700 C   0  0  0  0  0  0  0  0  0  0  0  0
   38.2850   23.2670   35.3280 C   0  0  0  0  0  0  0  0  0  0  0  0
   38.2860   24.3380   36.2380 C   0  0  0  0  0  0  0  0  0  0  0  0
   37.7470   25.1480   32.5340 H   0  0  0  0  0  0  0  0  0  0  0  0
   38.0700   22.7940   33.1740 H   0  0  0  0  0  0  0  0  0  0  0  0
   38.4260   22.2360   35.6020 H   0  0  0  0  0  0  0  0  0  0  0  0
   38.5020   23.9470   37.6520 C   0  0  0  0  0  2  0  0  0  0  0  0
   39.6310   22.9480   37.8310 C   0  0  0  0  0  2  0  0  0  0  0  0
   39.7990   22.8790   38.9390 H   0  0  0  0  0  0  0  0  0  0  0  0
   35.7060   30.2080   34.0580 C   0  0  0  0  0  0  0  0  0  0  0  0
   36.0180   30.5470   35.3790 C   0  0  0  0  0  0  0  0  0  0  0  0
   35.5720   31.7820   35.8810 C   0  0  0  0  0  0  0  0  0  0  0  0
   34.8520   32.5750   35.0220 N   0  0  0  0  0  0  0  0  0  0  0  0
   34.5740   32.2160   33.7700 C   0  0  0  0  0  0  0  0  0  0  0  0
   35.0060   31.0280   33.2920 N   0  0  0  0  0  0  0  0  0  0  0  0
   36.5850   29.9560   36.0930 H   0  0  0  0  0  0  0  0  0  0  0  0
   35.7730   32.1170   36.8790 H   0  0  0  0  0  0  0  0  0  0  0  0
   34.0070   32.8160   33.0710 H   0  0  0  0  0  0  0  0  0  0  0  0
  1 26  1  0  0  0  0
  1  5  1  0  0  0  0
  2  3  1  0  0  0  0
  2  1  1  0  0  0  0
  3  4  1  0  0  0  0
  4 10  1  1  0  0  0
  4 15  1  0  0  0  0
  4  5  1  0  0  0  0
  5 11  1  0  0  0  0
  6  2  1  0  0  0  0
  7  2  1  0  0  0  0
  8  3  1  0  0  0  0
  9  3  1  0  0  0  0
 12  5  1  0  0  0  0
 14 19  1  0  0  0  0
 14 13  1  0  0  0  0
 15 14  2  0  0  0  0
 16 17  2  0  0  0  0
 16 15  1  0  0  0  0
 17 18  1  0  0  0  0
 18 22  1  0  0  0  0
 18 19  2  0  0  0  0
 19 23  1  0  0  0  0
 20 16  1  0  0  0  0
 21 17  1  0  0  0  0
 23 24  1  0  0  0  0
 24 25  1  0  0  0  0
 26 27  1  0  0  0  0
 27 28  2  0  0  0  0
 27 32  1  0  0  0  0
 28 33  1  0  0  0  0
 29 28  1  0  0  0  0
 30 29  2  0  0  0  0
 31 30  1  0  0  0  0
 31 26  2  0  0  0  0
 34 30  1  0  0  0  0
M  END
>  <minimizedAffinity>
-4.9200139

$$$$

 OpenBabel03272502403D

 34 36  0  0  1  0  0  0  0  0999 V2000
   38.3160   24.6120   34.6320 N   0  0  0  0  0  0  0  0  0  0  0  0
   37.8210   23.8240   33.5130 C   0  0  0  0  0  0  0  0  0  0  0  0
   37.2670   24.8590   32.5790 C   0  0  0  0  0  0  0  0  0  0  0  0
   37.3270   26.2220   33.4100 C   0  0  1  0  0  0  0  0  0  0  0  0
   38.5650   25.9860   34.1580 C   0  0  0  0  0  0  0  0  0  0  0  0
   38.5950   23.2020   33.0610 H   0  0  0  0  0  0  0  0  0  0  0  0
   36.9490   23.2340   33.9070 H   0  0  0  0  0  0  0  0  0  0  0  0
   36.2490   24.6870   32.2390 H   0  0  0  0  0  0  0  0  0  0  0  0
   38.0040   25.0250   31.7750 H   0  0  0  0  0  0  0  0  0  0  0  0
   36.3890   26.1000   33.9440 H   0  0  0  0  0  0  0  0  0  0  0  0
   38.5890   26.6520   35.0440 H   0  0  0  0  0  0  0  0  0  0  0  0
   39.4930   26.0220   33.5600 H   0  0  0  0  0  0  0  0  0  0  0  0
   39.2780   26.3230   31.3490 F   0  0  0  0  0  0  0  0  0  0  0  0
   38.3070   27.2490   31.4620 C   0  0  0  0  0  0  0  0  0  0  0  0
   37.3600   27.3350   32.4550 C   0  0  0  0  0  0  0  0  0  0  0  0
   36.4430   28.4030   32.4170 C   0  0  0  0  0  0  0  0  0  0  0  0
   36.4800   29.3480   31.4140 C   0  0  0  0  0  0  0  0  0  0  0  0
   37.4490   29.2430   30.4170 C   0  0  0  0  0  0  0  0  0  0  0  0
   38.3660   28.1790   30.4530 C   0  0  0  0  0  0  0  0  0  0  0  0
   35.7490   28.3680   33.2430 H   0  0  0  0  0  0  0  0  0  0  0  0
   35.7230   30.1090   31.5030 H   0  0  0  0  0  0  0  0  0  0  0  0
   37.4320   30.0070   29.6590 H   0  0  0  0  0  0  0  0  0  0  0  0
   39.3480   28.1730   29.3420 C   0  0  0  0  0  2  0  0  0  0  0  0
   40.1950   29.4310   29.2860 C   0  0  0  0  0  2  0  0  0  0  0  0
   40.9970   29.2200   28.5280 H   0  0  0  0  0  0  0  0  0  0  0  0
   38.5280   24.1730   35.9540 C   0  0  0  0  0  0  0  0  0  0  0  0
   39.6020   23.2960   36.1420 C   0  0  0  0  0  0  0  0  0  0  0  0
   39.8600   22.8150   37.4380 C   0  0  0  0  0  0  0  0  0  0  0  0
   39.0240   23.2490   38.4370 N   0  0  0  0  0  0  0  0  0  0  0  0
   38.0090   24.0850   38.2170 C   0  0  0  0  0  0  0  0  0  0  0  0
   37.7670   24.5450   36.9700 N   0  0  0  0  0  0  0  0  0  0  0  0
   40.2900   22.9270   35.3870 H   0  0  0  0  0  0  0  0  0  0  0  0
   40.6650   22.1440   37.6660 H   0  0  0  0  0  0  0  0  0  0  0  0
   37.3330   24.4420   38.9810 H   0  0  0  0  0  0  0  0  0  0  0  0
  1 26  1  0  0  0  0
  2  7  1  0  0  0  0
  2  1  1  0  0  0  0
  3  4  1  0  0  0  0
  3  2  1  0  0  0  0
  4 10  1  1  0  0  0
  4  5  1  0  0  0  0
  5  1  1  0  0  0  0
  5 11  1  0  0  0  0
  6  2  1  0  0  0  0
  8  3  1  0  0  0  0
  9  3  1  0  0  0  0
 12  5  1  0  0  0  0
 13 14  1  0  0  0  0
 14 15  1  0  0  0  0
 15  4  1  0  0  0  0
 16 15  2  0  0  0  0
 16 20  1  0  0  0  0
 17 21  1  0  0  0  0
 17 16  1  0  0  0  0
 18 19  1  0  0  0  0
 18 17  2  0  0  0  0
 19 14  2  0  0  0  0
 22 18  1  0  0  0  0
 23 19  1  0  0  0  0
 24 23  1  0  0  0  0
 25 24  1  0  0  0  0
 26 27  2  0  0  0  0
 26 31  1  0  0  0  0
 27 28  1  0  0  0  0
 28 33  1  0  0  0  0
 28 29  2  0  0  0  0
 30 29  1  0  0  0  0
 30 34  1  0  0  0  0
 31 30  2  0  0  0  0
 32 27  1  0  0  0  0
M  END
>  <minimizedAffinity>
-4.88290882

$$$$

 OpenBabel03272502403D

 34 36  0  0  1  0  0  0  0  0999 V2000
   36.9370   28.4730   32.2100 N   0  0  0  0  0  0  0  0  0  0  0  0
   38.0430   28.0080   31.3860 C   0  0  0  0  0  0  0  0  0  0  0  0
   38.7010   26.9680   32.2440 C   0  0  0  0  0  0  0  0  0  0  0  0
   37.9690   27.0940   33.6580 C   0  0  1  0  0  0  0  0  0  0  0  0
   36.6180   27.4220   33.1940 C   0  0  0  0  0  0  0  0  0  0  0  0
   37.7140   27.6270   30.4180 H   0  0  0  0  0  0  0  0  0  0  0  0
   38.7580   28.8710   31.3060 H   0  0  0  0  0  0  0  0  0  0  0  0
   39.7730   27.0830   32.3800 H   0  0  0  0  0  0  0  0  0  0  0  0
   38.3810   25.9750   31.8850 H   0  0  0  0  0  0  0  0  0  0  0  0
   38.5720   27.9050   34.0550 H   0  0  0  0  0  0  0  0  0  0  0  0
   36.0510   27.8930   34.0230 H   0  0  0  0  0  0  0  0  0  0  0  0
   36.0710   26.5950   32.7080 H   0  0  0  0  0  0  0  0  0  0  0  0
   38.0370   26.9760   36.4950 F   0  0  0  0  0  0  0  0  0  0  0  0
   38.0690   25.8670   35.7310 C   0  0  0  0  0  0  0  0  0  0  0  0
   38.1100   25.8120   34.3580 C   0  0  0  0  0  0  0  0  0  0  0  0
   38.1730   24.5490   33.7380 C   0  0  0  0  0  0  0  0  0  0  0  0
   38.1920   23.3850   34.4770 C   0  0  0  0  0  0  0  0  0  0  0  0
   38.1490   23.4630   35.8690 C   0  0  0  0  0  0  0  0  0  0  0  0
   38.0880   24.7230   36.4900 C   0  0  0  0  0  0  0  0  0  0  0  0
   38.2010   24.6280   32.6630 H   0  0  0  0  0  0  0  0  0  0  0  0
   38.2400   22.4900   33.8800 H   0  0  0  0  0  0  0  0  0  0  0  0
   38.1670   22.5250   36.3960 H   0  0  0  0  0  0  0  0  0  0  0  0
   38.0480   24.6790   37.9720 C   0  0  0  0  0  2  0  0  0  0  0  0
   38.6590   23.4150   38.5490 C   0  0  0  0  0  2  0  0  0  0  0  0
   38.7240   23.5900   39.6560 H   0  0  0  0  0  0  0  0  0  0  0  0
   36.2660   29.7090   32.1170 C   0  0  0  0  0  0  0  0  0  0  0  0
   36.2750   30.3160   30.8550 C   0  0  0  0  0  0  0  0  0  0  0  0
   35.6310   31.5560   30.7000 C   0  0  0  0  0  0  0  0  0  0  0  0
   35.0320   32.0860   31.8160 N   0  0  0  0  0  0  0  0  0  0  0  0
   35.0460   31.4760   33.0010 C   0  0  0  0  0  0  0  0  0  0  0  0
   35.6660   30.2850   33.1450 N   0  0  0  0  0  0  0  0  0  0  0  0
   36.7320   29.9360   29.9460 H   0  0  0  0  0  0  0  0  0  0  0  0
   35.5890   32.0830   29.7680 H   0  0  0  0  0  0  0  0  0  0  0  0
   34.5870   31.8690   33.8980 H   0  0  0  0  0  0  0  0  0  0  0  0
  1  5  1  0  0  0  0
  2  1  1  0  0  0  0
  2  3  1  0  0  0  0
  3  8  1  0  0  0  0
  3  4  1  0  0  0  0
  4 10  1  1  0  0  0
  4 15  1  0  0  0  0
  5  4  1  0  0  0  0
  5 11  1  0  0  0  0
  6  2  1  0  0  0  0
  7  2  1  0  0  0  0
  9  3  1  0  0  0  0
 12  5  1  0  0  0  0
 14 19  1  0  0  0  0
 14 13  1  0  0  0  0
 15 14  2  0  0  0  0
 16 15  1  0  0  0  0
 16 17  2  0  0  0  0
 17 18  1  0  0  0  0
 18 22  1  0  0  0  0
 18 19  2  0  0  0  0
 19 23  1  0  0  0  0
 20 16  1  0  0  0  0
 21 17  1  0  0  0  0
 23 24  1  0  0  0  0
 24 25  1  0  0  0  0
 26  1  1  0  0  0  0
 26 31  1  0  0  0  0
 27 26  2  0  0  0  0
 28 27  1  0  0  0  0
 28 29  2  0  0  0  0
 29 30  1  0  0  0  0
 30 31  2  0  0  0  0
 30 34  1  0  0  0  0
 32 27  1  0  0  0  0
 33 28  1  0  0  0  0
M  END
>  <minimizedAffinity>
-4.87087202

$$$$
