
 OpenBabel03272510263D

 39 42  0  0  1  0  0  0  0  0999 V2000
   36.2370   30.2000   46.8660 C   0  0  0  0  0  0  0  0  0  0  0  0
   37.0820   30.7710   47.8150 C   0  0  0  0  0  0  0  0  0  0  0  0
   38.0650   31.6750   47.4430 C   0  0  0  0  0  0  0  0  0  0  0  0
   38.1600   31.9750   46.0890 C   0  0  0  0  0  0  0  0  0  0  0  0
   39.0380   32.8270   45.4860 N   0  0  0  0  0  0  0  0  0  0  0  0
   38.7530   32.7950   44.1730 C   0  0  0  0  0  0  0  0  0  0  0  0
   37.7540   31.9720   43.9430 N   0  0  0  0  0  0  0  0  0  0  0  0
   37.3440   31.4320   45.1160 C   0  0  0  0  0  0  0  0  0  0  0  0
   36.3580   30.5210   45.5190 C   0  0  0  0  0  0  0  0  0  0  0  0
   35.4490   29.4900   47.0770 H   0  0  0  0  0  0  0  0  0  0  0  0
   38.7150   32.1130   48.1850 H   0  0  0  0  0  0  0  0  0  0  0  0
   39.7900   33.3980   45.9560 H   0  0  0  0  0  0  0  0  0  0  0  0
   35.7230   30.1000   44.7490 H   0  0  0  0  0  0  0  0  0  0  0  0
   37.4970   30.1550   51.4910 C   0  0  0  0  0  0  0  0  0  0  0  0
   37.7920   30.5930   50.2120 C   0  0  0  0  0  0  0  0  0  0  0  0
   36.8780   30.3630   49.1890 C   0  0  0  0  0  0  0  0  0  0  0  0
   35.7240   29.7080   49.5110 N   0  0  0  0  0  0  0  0  0  0  0  0
   35.4450   29.2860   50.7600 C   0  0  0  0  0  0  0  0  0  0  0  0
   36.3270   29.5100   51.7320 N   0  0  0  0  0  0  0  0  0  0  0  0
   38.2030   30.3310   52.2830 H   0  0  0  0  0  0  0  0  0  0  0  0
   38.7120   31.1100   49.9730 H   0  0  0  0  0  0  0  0  0  0  0  0
   34.4870   28.7790   50.8630 H   0  0  0  0  0  0  0  0  0  0  0  0
   39.4740   33.5660   43.2480 O   0  0  0  0  0  0  0  0  0  0  0  0
   39.5740   31.8630   41.7310 N   0  0  0  0  0  0  0  0  0  0  0  0
   39.2190   33.2900   41.8780 C   0  0  1  0  0  0  0  0  0  0  0  0
   37.8110   33.4550   41.5310 C   0  0  0  0  0  0  0  0  0  0  0  0
   37.6470   33.1510   40.1670 O   0  0  0  0  0  0  0  0  0  0  0  0
   38.0900   31.9180   39.7880 C   0  0  0  0  0  0  0  0  0  0  0  0
   39.4570   31.5830   40.3180 C   0  0  2  0  0  0  0  0  0  0  0  0
   40.6130   31.8550   41.9370 H   0  0  0  0  0  0  0  0  0  0  0  0
   39.8330   33.9080   41.2040 H   0  0  0  0  0  0  0  0  0  0  0  0
   37.5800   34.5630   41.5770 H   0  0  0  0  0  0  0  0  0  0  0  0
   37.0040   32.9600   41.9980 H   0  0  0  0  0  0  0  0  0  0  0  0
   37.3830   31.0830   40.0610 H   0  0  0  0  0  0  0  0  0  0  0  0
   38.1910   31.9460   38.6820 H   0  0  0  0  0  0  0  0  0  0  0  0
   40.2670   32.0900   39.7510 H   0  0  0  0  0  0  0  0  0  0  0  0
   39.6920   30.0840   40.1630 C   0  0  0  0  0  2  0  0  0  0  0  0
   38.9550   29.2780   41.1800 C   0  0  0  0  0  2  0  0  0  0  0  0
   38.1010   29.8030   41.6530 H   0  0  0  0  0  0  0  0  0  0  0  0
  1 10  1  0  0  0  0
  1  2  1  0  0  0  0
  2 16  1  0  0  0  0
  3  2  2  0  0  0  0
  3 11  1  0  0  0  0
  4  3  1  0  0  0  0
  5 12  1  0  0  0  0
  5  4  1  0  0  0  0
  6  5  1  0  0  0  0
  7  6  2  0  0  0  0
  7  8  1  0  0  0  0
  8  9  1  0  0  0  0
  8  4  2  0  0  0  0
  9  1  2  0  0  0  0
 13  9  1  0  0  0  0
 14 19  1  0  0  0  0
 14 20  1  0  0  0  0
 15 14  2  0  0  0  0
 16 17  2  0  0  0  0
 16 15  1  0  0  0  0
 17 18  1  0  0  0  0
 18 22  1  0  0  0  0
 18 19  2  0  0  0  0
 21 15  1  0  0  0  0
 23  6  1  0  0  0  0
 24 25  1  0  0  0  0
 24 30  1  0  0  0  0
 25 31  1  6  0  0  0
 25 23  1  0  0  0  0
 26 32  1  0  0  0  0
 26 25  1  0  0  0  0
 26 33  1  0  0  0  0
 27 26  1  0  0  0  0
 28 34  1  0  0  0  0
 28 27  1  0  0  0  0
 28 29  1  0  0  0  0
 29 36  1  6  0  0  0
 29 24  1  0  0  0  0
 35 28  1  0  0  0  0
 37 29  1  0  0  0  0
 37 38  1  0  0  0  0
 38 39  1  0  0  0  0
M  END
>  <minimizedAffinity>
-5.52741814

>  <minimizedRMSD>
0.0267645791

$$$$
