
 OpenBabel03272506503D

 28 29  0  0  1  0  0  0  0  0999 V2000
   34.6530   30.4130   49.1440 C   0  0  1  0  0  0  0  0  0  0  0  0
   34.2780   30.3490   47.7330 C   0  0  0  0  0  0  0  0  0  0  0  0
   34.3960   29.0130   47.0520 C   0  0  0  0  0  0  0  0  0  0  0  0
   34.0040   27.8540   47.8800 C   0  0  1  0  0  0  0  0  0  0  0  0
   34.4400   27.8830   49.3090 C   0  0  0  0  0  0  0  0  0  0  0  0
   34.1740   29.2210   49.9250 C   0  0  0  0  0  0  0  0  0  0  0  0
   34.0910   31.2790   49.6220 H   0  0  0  0  0  0  0  0  0  0  0  0
   34.6660   31.1040   47.0620 H   0  0  0  0  0  0  0  0  0  0  0  0
   33.1530   30.5320   47.7090 H   0  0  0  0  0  0  0  0  0  0  0  0
   33.7800   29.0340   46.1360 H   0  0  0  0  0  0  0  0  0  0  0  0
   35.4470   28.9030   46.7160 H   0  0  0  0  0  0  0  0  0  0  0  0
   34.4220   26.9300   47.4300 H   0  0  0  0  0  0  0  0  0  0  0  0
   33.9220   27.1320   49.8930 H   0  0  0  0  0  0  0  0  0  0  0  0
   35.5330   27.6910   49.3300 H   0  0  0  0  0  0  0  0  0  0  0  0
   34.4180   29.1960   50.9740 H   0  0  0  0  0  0  0  0  0  0  0  0
   33.0420   29.3210   49.9000 H   0  0  0  0  0  0  0  0  0  0  0  0
   36.9020   31.3940   48.4800 C   0  0  0  0  0  0  0  0  0  0  0  0
   36.0690   30.7560   49.4300 C   0  0  0  0  0  0  0  0  0  0  0  0
   36.6300   30.4650   50.6590 C   0  0  0  0  0  0  0  0  0  0  0  0
   37.9260   30.7990   50.8890 N   0  0  0  0  0  0  0  0  0  0  0  0
   38.6890   31.4050   49.9630 C   0  0  0  0  0  0  0  0  0  0  0  0
   38.1700   31.7060   48.7440 N   0  0  0  0  0  0  0  0  0  0  0  0
   36.5350   31.6520   47.4990 H   0  0  0  0  0  0  0  0  0  0  0  0
   36.1380   29.9910   51.4800 H   0  0  0  0  0  0  0  0  0  0  0  0
   39.7160   31.6560   50.1840 H   0  0  0  0  0  0  0  0  0  0  0  0
   32.4920   27.6700   47.8610 C   0  0  0  0  0  0  0  0  0  0  0  0
   32.0900   26.2200   47.8570 C   0  0  0  0  0  0  0  0  0  0  0  0
   32.7730   25.6460   47.2050 H   0  0  0  0  0  0  0  0  0  0  0  0
  1 18  1  0  0  0  0
  1  7  1  1  0  0  0
  1  6  1  0  0  0  0
  2  1  1  0  0  0  0
  3  2  1  0  0  0  0
  3  4  1  0  0  0  0
  4 12  1  6  0  0  0
  4  5  1  0  0  0  0
  5 14  1  0  0  0  0
  5 13  1  0  0  0  0
  5  6  1  0  0  0  0
  6 15  1  0  0  0  0
  8  2  1  0  0  0  0
  9  2  1  0  0  0  0
 10  3  1  0  0  0  0
 11  3  1  0  0  0  0
 16  6  1  0  0  0  0
 17 22  2  0  0  0  0
 17 18  1  0  0  0  0
 18 19  2  0  0  0  0
 19 20  1  0  0  0  0
 19 24  1  0  0  0  0
 21 25  1  0  0  0  0
 21 20  2  0  0  0  0
 22 21  1  0  0  0  0
 23 17  1  0  0  0  0
 26  4  1  0  0  0  0
 27 26  1  0  0  0  0
 28 27  1  0  0  0  0
M  END
>  <minimizedAffinity>
-4.60791206

>  <minimizedRMSD>
0.608991921

$$$$
