
 OpenBabel03272500033D

 22 23  0  0  0  0  0  0  0  0999 V2000
   39.2910   24.3840   35.9610 N   0  0  0  0  0  0  0  0  0  0  0  0
   40.5430   24.0930   35.5340 C   0  0  0  0  0  0  0  0  0  0  0  0
   41.2530   23.0550   36.1310 C   0  0  0  0  0  0  0  0  0  0  0  0
   40.5690   22.4140   37.1320 C   0  0  0  0  0  0  0  0  0  0  0  0
   41.1740   21.4510   37.7170 O   0  0  0  0  0  0  0  0  0  0  0  0
   39.3370   22.6810   37.5740 N   0  0  0  0  0  0  0  0  0  0  0  0
   38.7000   23.7020   36.9520 C   0  0  0  0  0  0  0  0  0  0  0  0
   37.5260   23.9700   37.3590 O   0  0  0  0  0  0  0  0  0  0  0  0
   41.0170   24.6520   34.7280 H   0  0  0  0  0  0  0  0  0  0  0  0
   42.2550   22.7700   35.8370 H   0  0  0  0  0  0  0  0  0  0  0  0
   38.8830   22.1470   38.3430 H   0  0  0  0  0  0  0  0  0  0  0  0
   37.8560   25.1850   34.1720 C   0  0  0  0  0  0  0  0  0  0  0  0
   38.5440   25.4370   35.3730 C   0  0  0  0  0  0  0  0  0  0  0  0
   38.4390   26.7220   35.9040 C   0  0  0  0  0  0  0  0  0  0  0  0
   37.6970   27.6490   35.2560 N   0  0  0  0  0  0  0  0  0  0  0  0
   37.0490   27.3720   34.1050 C   0  0  0  0  0  0  0  0  0  0  0  0
   37.1240   26.1420   33.5570 N   0  0  0  0  0  0  0  0  0  0  0  0
   37.9200   24.1960   33.7360 H   0  0  0  0  0  0  0  0  0  0  0  0
   38.9670   26.9270   36.8300 H   0  0  0  0  0  0  0  0  0  0  0  0
   36.2390   28.4100   33.4100 C   0  0  0  0  0  2  0  0  0  0  0  0
   35.7190   29.3940   34.4540 C   0  0  0  0  0  2  0  0  0  0  0  0
   36.5550   29.7150   35.0970 H   0  0  0  0  0  0  0  0  0  0  0  0
  1  7  1  0  0  0  0
  2  1  1  0  0  0  0
  2  3  2  0  0  0  0
  3  4  1  0  0  0  0
  4  6  1  0  0  0  0
  4  5  2  0  0  0  0
  6 11  1  0  0  0  0
  7  8  2  0  0  0  0
  7  6  1  0  0  0  0
  9  2  1  0  0  0  0
 10  3  1  0  0  0  0
 12 13  1  0  0  0  0
 13 14  2  0  0  0  0
 13  1  1  0  0  0  0
 14 19  1  0  0  0  0
 15 14  1  0  0  0  0
 16 15  2  0  0  0  0
 17 16  1  0  0  0  0
 17 12  2  0  0  0  0
 18 12  1  0  0  0  0
 20 16  1  0  0  0  0
 20 21  1  0  0  0  0
 21 22  1  0  0  0  0
M  END
>  <minimizedAffinity>
-4.81011534

$$$$

 OpenBabel03272500033D

 22 23  0  0  0  0  0  0  0  0999 V2000
   39.0260   24.4940   35.9490 N   0  0  0  0  0  0  0  0  0  0  0  0
   38.5000   23.9220   37.0580 C   0  0  0  0  0  0  0  0  0  0  0  0
   39.2160   22.9390   37.7340 C   0  0  0  0  0  0  0  0  0  0  0  0
   40.4330   22.6480   37.1720 C   0  0  0  0  0  0  0  0  0  0  0  0
   41.1360   21.7510   37.7520 O   0  0  0  0  0  0  0  0  0  0  0  0
   40.9750   23.1960   36.0800 N   0  0  0  0  0  0  0  0  0  0  0  0
   40.2280   24.1450   35.4690 C   0  0  0  0  0  0  0  0  0  0  0  0
   40.7270   24.6780   34.4280 O   0  0  0  0  0  0  0  0  0  0  0  0
   37.5220   24.2110   37.4410 H   0  0  0  0  0  0  0  0  0  0  0  0
   38.8550   22.4430   38.6260 H   0  0  0  0  0  0  0  0  0  0  0  0
   41.9090   22.9210   35.7130 H   0  0  0  0  0  0  0  0  0  0  0  0
   38.2360   26.7870   35.7960 C   0  0  0  0  0  0  0  0  0  0  0  0
   38.3190   25.4980   35.2380 C   0  0  0  0  0  0  0  0  0  0  0  0
   37.6890   25.3000   34.0090 C   0  0  0  0  0  0  0  0  0  0  0  0
   37.0420   26.3320   33.4220 N   0  0  0  0  0  0  0  0  0  0  0  0
   36.9830   27.5560   33.9850 C   0  0  0  0  0  0  0  0  0  0  0  0
   37.5780   27.7910   35.1730 N   0  0  0  0  0  0  0  0  0  0  0  0
   38.7150   26.9700   36.7500 H   0  0  0  0  0  0  0  0  0  0  0  0
   37.7460   24.3090   33.5700 H   0  0  0  0  0  0  0  0  0  0  0  0
   36.2640   28.6760   33.3190 C   0  0  0  0  0  2  0  0  0  0  0  0
   35.5080   29.4650   34.3840 C   0  0  0  0  0  2  0  0  0  0  0  0
   36.1910   29.6930   35.2190 H   0  0  0  0  0  0  0  0  0  0  0  0
  1  2  1  0  0  0  0
  2  9  1  0  0  0  0
  2  3  2  0  0  0  0
  3 10  1  0  0  0  0
  4  3  1  0  0  0  0
  4  5  2  0  0  0  0
  6  4  1  0  0  0  0
  7  1  1  0  0  0  0
  7  6  1  0  0  0  0
  8  7  2  0  0  0  0
 11  6  1  0  0  0  0
 12 18  1  0  0  0  0
 13 12  1  0  0  0  0
 13  1  1  0  0  0  0
 14 13  2  0  0  0  0
 15 16  2  0  0  0  0
 15 14  1  0  0  0  0
 16 17  1  0  0  0  0
 17 12  2  0  0  0  0
 19 14  1  0  0  0  0
 20 16  1  0  0  0  0
 20 21  1  0  0  0  0
 21 22  1  0  0  0  0
M  END
>  <minimizedAffinity>
-4.40996647

$$$$

 OpenBabel03272500033D

 22 23  0  0  0  0  0  0  0  0999 V2000
   38.5470   25.5570   35.2470 N   0  0  0  0  0  0  0  0  0  0  0  0
   38.5080   26.7700   35.8480 C   0  0  0  0  0  0  0  0  0  0  0  0
   37.6970   27.7740   35.3270 C   0  0  0  0  0  0  0  0  0  0  0  0
   36.9960   27.4010   34.2080 C   0  0  0  0  0  0  0  0  0  0  0  0
   36.2340   28.2850   33.6860 O   0  0  0  0  0  0  0  0  0  0  0  0
   37.0170   26.2140   33.5950 N   0  0  0  0  0  0  0  0  0  0  0  0
   37.8250   25.2810   34.1510 C   0  0  0  0  0  0  0  0  0  0  0  0
   37.8580   24.1460   33.5810 O   0  0  0  0  0  0  0  0  0  0  0  0
   39.0980   26.9860   36.7380 H   0  0  0  0  0  0  0  0  0  0  0  0
   37.6180   28.7630   35.7580 H   0  0  0  0  0  0  0  0  0  0  0  0
   36.4530   26.0070   32.7450 H   0  0  0  0  0  0  0  0  0  0  0  0
   38.8730   23.7270   36.8110 C   0  0  0  0  0  0  0  0  0  0  0  0
   39.3650   24.5150   35.7550 C   0  0  0  0  0  0  0  0  0  0  0  0
   40.6390   24.2080   35.2770 C   0  0  0  0  0  0  0  0  0  0  0  0
   41.3300   23.1900   35.8400 N   0  0  0  0  0  0  0  0  0  0  0  0
   40.8270   22.4540   36.8520 C   0  0  0  0  0  0  0  0  0  0  0  0
   39.5990   22.7170   37.3430 N   0  0  0  0  0  0  0  0  0  0  0  0
   37.8860   23.9420   37.2020 H   0  0  0  0  0  0  0  0  0  0  0  0
   41.0290   24.8110   34.4630 H   0  0  0  0  0  0  0  0  0  0  0  0
   41.6070   21.3390   37.4540 C   0  0  0  0  0  2  0  0  0  0  0  0
   42.8610   21.1180   36.6120 C   0  0  0  0  0  2  0  0  0  0  0  0
   43.3600   22.0870   36.4450 H   0  0  0  0  0  0  0  0  0  0  0  0
  1 13  1  0  0  0  0
  1  2  1  0  0  0  0
  2  9  1  0  0  0  0
  3 10  1  0  0  0  0
  3  2  2  0  0  0  0
  4  3  1  0  0  0  0
  5  4  2  0  0  0  0
  6  7  1  0  0  0  0
  6  4  1  0  0  0  0
  7  1  1  0  0  0  0
  8  7  2  0  0  0  0
 11  6  1  0  0  0  0
 12 18  1  0  0  0  0
 12 17  1  0  0  0  0
 13 12  2  0  0  0  0
 14 13  1  0  0  0  0
 14 15  2  0  0  0  0
 15 16  1  0  0  0  0
 16 17  2  0  0  0  0
 16 20  1  0  0  0  0
 19 14  1  0  0  0  0
 21 20  1  0  0  0  0
 22 21  1  0  0  0  0
M  END
>  <minimizedAffinity>
-4.29261398

$$$$

 OpenBabel03272500033D

 22 23  0  0  0  0  0  0  0  0999 V2000
   37.9220   25.6900   34.5190 N   0  0  0  0  0  0  0  0  0  0  0  0
   37.4860   25.4080   33.2680 C   0  0  0  0  0  0  0  0  0  0  0  0
   36.8060   26.3780   32.5380 C   0  0  0  0  0  0  0  0  0  0  0  0
   36.6470   27.5670   33.2020 C   0  0  0  0  0  0  0  0  0  0  0  0
   36.0280   28.4960   32.5780 O   0  0  0  0  0  0  0  0  0  0  0  0
   37.0650   27.8720   34.4340 N   0  0  0  0  0  0  0  0  0  0  0  0
   37.7190   26.8850   35.0910 C   0  0  0  0  0  0  0  0  0  0  0  0
   38.1250   27.1570   36.2650 O   0  0  0  0  0  0  0  0  0  0  0  0
   37.6540   24.4330   32.8110 H   0  0  0  0  0  0  0  0  0  0  0  0
   36.4330   26.2180   31.5350 H   0  0  0  0  0  0  0  0  0  0  0  0
   36.9050   28.8020   34.8710 H   0  0  0  0  0  0  0  0  0  0  0  0
   39.9930   24.5410   35.0590 C   0  0  0  0  0  0  0  0  0  0  0  0
   38.6170   24.7210   35.2880 C   0  0  0  0  0  0  0  0  0  0  0  0
   38.0290   23.9210   36.2680 C   0  0  0  0  0  0  0  0  0  0  0  0
   38.7910   23.0280   36.9390 N   0  0  0  0  0  0  0  0  0  0  0  0
   40.1100   22.8820   36.6950 C   0  0  0  0  0  0  0  0  0  0  0  0
   40.7180   23.6350   35.7560 N   0  0  0  0  0  0  0  0  0  0  0  0
   40.4760   25.1480   34.3040 H   0  0  0  0  0  0  0  0  0  0  0  0
   36.9670   24.0510   36.4520 H   0  0  0  0  0  0  0  0  0  0  0  0
   40.9270   21.8920   37.4480 C   0  0  0  0  0  2  0  0  0  0  0  0
   42.3040   21.8070   36.7940 C   0  0  0  0  0  2  0  0  0  0  0  0
   42.7000   22.8270   36.6520 H   0  0  0  0  0  0  0  0  0  0  0  0
  1  7  1  0  0  0  0
  1 13  1  0  0  0  0
  2  1  1  0  0  0  0
  3  4  1  0  0  0  0
  3  2  2  0  0  0  0
  4  6  1  0  0  0  0
  5  4  2  0  0  0  0
  6 11  1  0  0  0  0
  6  7  1  0  0  0  0
  7  8  2  0  0  0  0
  9  2  1  0  0  0  0
 10  3  1  0  0  0  0
 12 13  2  0  0  0  0
 12 17  1  0  0  0  0
 13 14  1  0  0  0  0
 14 19  1  0  0  0  0
 14 15  2  0  0  0  0
 16 15  1  0  0  0  0
 16 20  1  0  0  0  0
 17 16  2  0  0  0  0
 18 12  1  0  0  0  0
 21 20  1  0  0  0  0
 22 21  1  0  0  0  0
M  END
>  <minimizedAffinity>
-4.24301004

$$$$

 OpenBabel03272500033D

 22 23  0  0  0  0  0  0  0  0999 V2000
   37.8860   25.7570   34.6860 N   0  0  0  0  0  0  0  0  0  0  0  0
   37.6270   26.9640   35.2450 C   0  0  0  0  0  0  0  0  0  0  0  0
   36.9300   27.9260   34.5190 C   0  0  0  0  0  0  0  0  0  0  0  0
   36.5690   27.5220   33.2590 C   0  0  0  0  0  0  0  0  0  0  0  0
   35.9260   28.3670   32.5460 O   0  0  0  0  0  0  0  0  0  0  0  0
   36.8130   26.3400   32.6840 N   0  0  0  0  0  0  0  0  0  0  0  0
   37.4930   25.4490   33.4420 C   0  0  0  0  0  0  0  0  0  0  0  0
   37.7340   24.3190   32.9120 O   0  0  0  0  0  0  0  0  0  0  0  0
   37.9500   27.2070   36.2570 H   0  0  0  0  0  0  0  0  0  0  0  0
   36.6900   28.9080   34.9060 H   0  0  0  0  0  0  0  0  0  0  0  0
   36.5040   26.1080   31.7180 H   0  0  0  0  0  0  0  0  0  0  0  0
   39.9810   24.6380   35.1980 C   0  0  0  0  0  0  0  0  0  0  0  0
   38.5940   24.7570   35.4010 C   0  0  0  0  0  0  0  0  0  0  0  0
   38.0090   23.8700   36.3050 C   0  0  0  0  0  0  0  0  0  0  0  0
   38.7840   22.9550   36.9310 N   0  0  0  0  0  0  0  0  0  0  0  0
   40.1120   22.8690   36.7120 C   0  0  0  0  0  0  0  0  0  0  0  0
   40.7180   23.7070   35.8470 N   0  0  0  0  0  0  0  0  0  0  0  0
   40.4620   25.3140   34.5020 H   0  0  0  0  0  0  0  0  0  0  0  0
   36.9390   23.9530   36.4690 H   0  0  0  0  0  0  0  0  0  0  0  0
   40.9430   21.8520   37.4130 C   0  0  0  0  0  2  0  0  0  0  0  0
   42.3290   21.8380   36.7730 C   0  0  0  0  0  2  0  0  0  0  0  0
   42.7040   22.8720   36.6980 H   0  0  0  0  0  0  0  0  0  0  0  0
  1  2  1  0  0  0  0
  1 13  1  0  0  0  0
  2  9  1  0  0  0  0
  3 10  1  0  0  0  0
  3  2  2  0  0  0  0
  4  3  1  0  0  0  0
  5  4  2  0  0  0  0
  6  4  1  0  0  0  0
  6  7  1  0  0  0  0
  7  1  1  0  0  0  0
  8  7  2  0  0  0  0
 11  6  1  0  0  0  0
 12 13  2  0  0  0  0
 12 17  1  0  0  0  0
 13 14  1  0  0  0  0
 14 19  1  0  0  0  0
 14 15  2  0  0  0  0
 16 15  1  0  0  0  0
 16 20  1  0  0  0  0
 17 16  2  0  0  0  0
 18 12  1  0  0  0  0
 21 20  1  0  0  0  0
 22 21  1  0  0  0  0
M  END
>  <minimizedAffinity>
-4.21968365

$$$$

 OpenBabel03272500033D

 22 23  0  0  0  0  0  0  0  0999 V2000
   37.7270   26.5310   32.0780 N   0  0  0  0  0  0  0  0  0  0  0  0
   38.6830   27.4310   31.7470 C   0  0  0  0  0  0  0  0  0  0  0  0
   38.5060   28.2510   30.6370 C   0  0  0  0  0  0  0  0  0  0  0  0
   37.3250   28.0430   29.9720 C   0  0  0  0  0  0  0  0  0  0  0  0
   37.1090   28.7700   28.9420 O   0  0  0  0  0  0  0  0  0  0  0  0
   36.3660   27.1630   30.2750 N   0  0  0  0  0  0  0  0  0  0  0  0
   36.5990   26.3960   31.3660 C   0  0  0  0  0  0  0  0  0  0  0  0
   35.6980   25.5530   31.6700 O   0  0  0  0  0  0  0  0  0  0  0  0
   39.5970   27.5340   32.3310 H   0  0  0  0  0  0  0  0  0  0  0  0
   39.2300   28.9900   30.3180 H   0  0  0  0  0  0  0  0  0  0  0  0
   35.4930   27.0640   29.7180 H   0  0  0  0  0  0  0  0  0  0  0  0
   37.6020   26.2000   34.4820 C   0  0  0  0  0  0  0  0  0  0  0  0
   37.8800   25.6810   33.2040 C   0  0  0  0  0  0  0  0  0  0  0  0
   38.2910   24.3500   33.1370 C   0  0  0  0  0  0  0  0  0  0  0  0
   38.4020   23.6330   34.2790 N   0  0  0  0  0  0  0  0  0  0  0  0
   38.1270   24.1630   35.4890 C   0  0  0  0  0  0  0  0  0  0  0  0
   37.7270   25.4460   35.5980 N   0  0  0  0  0  0  0  0  0  0  0  0
   37.2810   27.2310   34.5640 H   0  0  0  0  0  0  0  0  0  0  0  0
   38.5080   23.9400   32.1560 H   0  0  0  0  0  0  0  0  0  0  0  0
   38.2580   23.3530   36.7310 C   0  0  0  0  0  2  0  0  0  0  0  0
   37.9210   24.2430   37.9240 C   0  0  0  0  0  2  0  0  0  0  0  0
   36.9710   24.7680   37.7280 H   0  0  0  0  0  0  0  0  0  0  0  0
  1 13  1  0  0  0  0
  2  1  1  0  0  0  0
  2  9  1  0  0  0  0
  3  2  2  0  0  0  0
  4  6  1  0  0  0  0
  4  3  1  0  0  0  0
  5  4  2  0  0  0  0
  6  7  1  0  0  0  0
  7  8  2  0  0  0  0
  7  1  1  0  0  0  0
 10  3  1  0  0  0  0
 11  6  1  0  0  0  0
 12 18  1  0  0  0  0
 12 17  1  0  0  0  0
 13 12  2  0  0  0  0
 14 13  1  0  0  0  0
 14 15  2  0  0  0  0
 15 16  1  0  0  0  0
 16 17  2  0  0  0  0
 16 20  1  0  0  0  0
 19 14  1  0  0  0  0
 20 21  1  0  0  0  0
 22 21  1  0  0  0  0
M  END
>  <minimizedAffinity>
-4.19490004

$$$$

 OpenBabel03272500033D

 22 23  0  0  0  0  0  0  0  0999 V2000
   37.5770   26.3470   32.6680 N   0  0  0  0  0  0  0  0  0  0  0  0
   36.3700   26.2500   32.0620 C   0  0  0  0  0  0  0  0  0  0  0  0
   36.1010   27.0120   30.9290 C   0  0  0  0  0  0  0  0  0  0  0  0
   37.1430   27.8140   30.5360 C   0  0  0  0  0  0  0  0  0  0  0  0
   36.9520   28.5370   29.4990 O   0  0  0  0  0  0  0  0  0  0  0  0
   38.3420   27.9290   31.1140 N   0  0  0  0  0  0  0  0  0  0  0  0
   38.5390   27.1620   32.2120 C   0  0  0  0  0  0  0  0  0  0  0  0
   39.6750   27.2580   32.7750 O   0  0  0  0  0  0  0  0  0  0  0  0
   35.5930   25.5860   32.4390 H   0  0  0  0  0  0  0  0  0  0  0  0
   35.1590   26.9820   30.3980 H   0  0  0  0  0  0  0  0  0  0  0  0
   39.0840   28.5630   30.7540 H   0  0  0  0  0  0  0  0  0  0  0  0
   37.6300   26.1480   35.0890 C   0  0  0  0  0  0  0  0  0  0  0  0
   37.8790   25.5830   33.8250 C   0  0  0  0  0  0  0  0  0  0  0  0
   38.4130   24.2940   33.8020 C   0  0  0  0  0  0  0  0  0  0  0  0
   38.6620   23.6600   34.9700 N   0  0  0  0  0  0  0  0  0  0  0  0
   38.4090   24.2320   36.1660 C   0  0  0  0  0  0  0  0  0  0  0  0
   37.8930   25.4760   36.2320 N   0  0  0  0  0  0  0  0  0  0  0  0
   37.2150   27.1470   35.1370 H   0  0  0  0  0  0  0  0  0  0  0  0
   38.6100   23.8500   32.8320 H   0  0  0  0  0  0  0  0  0  0  0  0
   38.6920   23.5120   37.4380 C   0  0  0  0  0  2  0  0  0  0  0  0
   37.9720   24.2370   38.5720 C   0  0  0  0  0  2  0  0  0  0  0  0
   36.9230   24.4120   38.2810 H   0  0  0  0  0  0  0  0  0  0  0  0
  1 13  1  0  0  0  0
  2  9  1  0  0  0  0
  2  1  1  0  0  0  0
  3  2  2  0  0  0  0
  4  3  1  0  0  0  0
  4  6  1  0  0  0  0
  5  4  2  0  0  0  0
  6  7  1  0  0  0  0
  7  1  1  0  0  0  0
  7  8  2  0  0  0  0
 10  3  1  0  0  0  0
 11  6  1  0  0  0  0
 12 18  1  0  0  0  0
 12 17  1  0  0  0  0
 13 12  2  0  0  0  0
 14 13  1  0  0  0  0
 14 15  2  0  0  0  0
 15 16  1  0  0  0  0
 16 17  2  0  0  0  0
 16 20  1  0  0  0  0
 19 14  1  0  0  0  0
 20 21  1  0  0  0  0
 22 21  1  0  0  0  0
M  END
>  <minimizedAffinity>
-4.16997623

$$$$

 OpenBabel03272500033D

 22 23  0  0  0  0  0  0  0  0999 V2000
   37.4170   24.1760   32.9580 N   0  0  0  0  0  0  0  0  0  0  0  0
   36.8010   23.2110   32.2340 C   0  0  0  0  0  0  0  0  0  0  0  0
   35.8140   23.5590   31.3170 C   0  0  0  0  0  0  0  0  0  0  0  0
   35.5660   24.9060   31.2480 C   0  0  0  0  0  0  0  0  0  0  0  0
   34.6670   25.2850   30.4200 O   0  0  0  0  0  0  0  0  0  0  0  0
   36.1570   25.8780   31.9490 N   0  0  0  0  0  0  0  0  0  0  0  0
   37.1080   25.4730   32.8240 C   0  0  0  0  0  0  0  0  0  0  0  0
   37.6820   26.3840   33.5010 O   0  0  0  0  0  0  0  0  0  0  0  0
   37.0570   22.1580   32.3490 H   0  0  0  0  0  0  0  0  0  0  0  0
   35.2840   22.8390   30.7070 H   0  0  0  0  0  0  0  0  0  0  0  0
   35.9130   26.8840   31.8400 H   0  0  0  0  0  0  0  0  0  0  0  0
   39.7670   23.8400   33.4750 C   0  0  0  0  0  0  0  0  0  0  0  0
   38.4260   23.8510   33.9010 C   0  0  0  0  0  0  0  0  0  0  0  0
   38.1840   23.5360   35.2380 C   0  0  0  0  0  0  0  0  0  0  0  0
   39.2270   23.2410   36.0480 N   0  0  0  0  0  0  0  0  0  0  0  0
   40.5010   23.2410   35.6070 C   0  0  0  0  0  0  0  0  0  0  0  0
   40.7790   23.5390   34.3210 N   0  0  0  0  0  0  0  0  0  0  0  0
   39.9840   24.0800   32.4420 H   0  0  0  0  0  0  0  0  0  0  0  0
   37.1530   23.5410   35.5760 H   0  0  0  0  0  0  0  0  0  0  0  0
   41.6310   22.9130   36.5180 C   0  0  0  0  0  2  0  0  0  0  0  0
   41.1750   21.8140   37.4750 C   0  0  0  0  0  2  0  0  0  0  0  0
   40.7060   21.0020   36.8950 H   0  0  0  0  0  0  0  0  0  0  0  0
  1 13  1  0  0  0  0
  2  9  1  0  0  0  0
  2  1  1  0  0  0  0
  3  2  2  0  0  0  0
  4  3  1  0  0  0  0
  4  6  1  0  0  0  0
  5  4  2  0  0  0  0
  6  7  1  0  0  0  0
  7  1  1  0  0  0  0
  7  8  2  0  0  0  0
 10  3  1  0  0  0  0
 11  6  1  0  0  0  0
 12 13  2  0  0  0  0
 12 17  1  0  0  0  0
 13 14  1  0  0  0  0
 14 19  1  0  0  0  0
 14 15  2  0  0  0  0
 16 15  1  0  0  0  0
 16 20  1  0  0  0  0
 17 16  2  0  0  0  0
 18 12  1  0  0  0  0
 20 21  1  0  0  0  0
 22 21  1  0  0  0  0
M  END
>  <minimizedAffinity>
-4.13142204

$$$$

 OpenBabel03272500033D

 22 23  0  0  0  0  0  0  0  0999 V2000
   37.2860   24.9780   31.6610 N   0  0  0  0  0  0  0  0  0  0  0  0
   36.9560   26.0940   32.3540 C   0  0  0  0  0  0  0  0  0  0  0  0
   37.4370   27.3330   31.9400 C   0  0  0  0  0  0  0  0  0  0  0  0
   38.2300   27.2780   30.8220 C   0  0  0  0  0  0  0  0  0  0  0  0
   38.7000   28.3880   30.3960 O   0  0  0  0  0  0  0  0  0  0  0  0
   38.5720   26.1930   30.1210 N   0  0  0  0  0  0  0  0  0  0  0  0
   38.0720   25.0200   30.5750 C   0  0  0  0  0  0  0  0  0  0  0  0
   38.3870   23.9770   29.9210 O   0  0  0  0  0  0  0  0  0  0  0  0
   36.3170   26.0510   33.2350 H   0  0  0  0  0  0  0  0  0  0  0  0
   37.2100   28.2620   32.4460 H   0  0  0  0  0  0  0  0  0  0  0  0
   39.1820   26.2340   29.2780 H   0  0  0  0  0  0  0  0  0  0  0  0
   37.5260   22.9950   33.0440 C   0  0  0  0  0  0  0  0  0  0  0  0
   36.8120   23.7020   32.0600 C   0  0  0  0  0  0  0  0  0  0  0  0
   35.6720   23.0870   31.5410 C   0  0  0  0  0  0  0  0  0  0  0  0
   35.3140   21.8650   31.9970 N   0  0  0  0  0  0  0  0  0  0  0  0
   36.0230   21.2150   32.9430 C   0  0  0  0  0  0  0  0  0  0  0  0
   37.1300   21.7740   33.4710 N   0  0  0  0  0  0  0  0  0  0  0  0
   38.4150   23.4490   33.4650 H   0  0  0  0  0  0  0  0  0  0  0  0
   35.1140   23.6230   30.7800 H   0  0  0  0  0  0  0  0  0  0  0  0
   35.6070   19.8710   33.4280 C   0  0  0  0  0  2  0  0  0  0  0  0
   34.9660   19.1160   32.2660 C   0  0  0  0  0  2  0  0  0  0  0  0
   35.6230   19.1840   31.3840 H   0  0  0  0  0  0  0  0  0  0  0  0
  1 13  1  0  0  0  0
  1  2  1  0  0  0  0
  2  9  1  0  0  0  0
  3  2  2  0  0  0  0
  3 10  1  0  0  0  0
  4  3  1  0  0  0  0
  5  4  2  0  0  0  0
  6  7  1  0  0  0  0
  6  4  1  0  0  0  0
  7  1  1  0  0  0  0
  8  7  2  0  0  0  0
 11  6  1  0  0  0  0
 12 18  1  0  0  0  0
 12 17  1  0  0  0  0
 13 12  2  0  0  0  0
 14 15  2  0  0  0  0
 14 13  1  0  0  0  0
 15 16  1  0  0  0  0
 16 20  1  0  0  0  0
 16 17  2  0  0  0  0
 19 14  1  0  0  0  0
 21 20  1  0  0  0  0
 22 21  1  0  0  0  0
M  END
>  <minimizedAffinity>
-4.02526808

$$$$
