
 OpenBabel03272510283D

 39 42  0  0  1  0  0  0  0  0999 V2000
   38.3590   24.8370   33.8030 C   0  0  0  0  0  0  0  0  0  0  0  0
   38.2190   25.2030   35.1390 C   0  0  0  0  0  0  0  0  0  0  0  0
   37.5300   26.3510   35.4960 C   0  0  0  0  0  0  0  0  0  0  0  0
   36.9950   27.1090   34.4600 C   0  0  0  0  0  0  0  0  0  0  0  0
   36.2830   28.2670   34.5590 N   0  0  0  0  0  0  0  0  0  0  0  0
   35.9770   28.6320   33.3030 C   0  0  0  0  0  0  0  0  0  0  0  0
   36.4630   27.7620   32.4450 N   0  0  0  0  0  0  0  0  0  0  0  0
   37.1120   26.7840   33.1240 C   0  0  0  0  0  0  0  0  0  0  0  0
   37.8130   25.6160   32.7900 C   0  0  0  0  0  0  0  0  0  0  0  0
   38.8800   23.9600   33.4460 H   0  0  0  0  0  0  0  0  0  0  0  0
   37.4250   26.6270   36.5350 H   0  0  0  0  0  0  0  0  0  0  0  0
   36.0220   28.7770   35.4460 H   0  0  0  0  0  0  0  0  0  0  0  0
   37.8990   25.3690   31.7380 H   0  0  0  0  0  0  0  0  0  0  0  0
   38.9660   23.2090   38.2270 C   0  0  0  0  0  0  0  0  0  0  0  0
   38.2920   24.0600   37.3690 C   0  0  0  0  0  0  0  0  0  0  0  0
   38.8320   24.3270   36.1160 C   0  0  0  0  0  0  0  0  0  0  0  0
   40.0180   23.7270   35.8000 N   0  0  0  0  0  0  0  0  0  0  0  0
   40.6670   22.9000   36.6420 C   0  0  0  0  0  0  0  0  0  0  0  0
   40.1410   22.6510   37.8400 N   0  0  0  0  0  0  0  0  0  0  0  0
   38.5490   23.0020   39.1970 H   0  0  0  0  0  0  0  0  0  0  0  0
   37.3530   24.5280   37.6340 H   0  0  0  0  0  0  0  0  0  0  0  0
   41.6000   22.4970   36.2520 H   0  0  0  0  0  0  0  0  0  0  0  0
   35.2380   29.7940   33.0350 O   0  0  0  0  0  0  0  0  0  0  0  0
   34.4150   30.7380   34.9420 N   0  0  0  0  0  0  0  0  0  0  0  0
   34.0260   29.9400   33.7610 C   0  0  1  0  0  0  0  0  0  0  0  0
   33.0160   30.6820   33.0130 C   0  0  0  0  0  0  0  0  0  0  0  0
   31.8610   30.7900   33.8070 O   0  0  0  0  0  0  0  0  0  0  0  0
   32.0490   31.3500   35.0370 C   0  0  0  0  0  0  0  0  0  0  0  0
   33.2350   30.7890   35.7750 C   0  0  2  0  0  0  0  0  0  0  0  0
   35.0910   30.0980   35.4480 H   0  0  0  0  0  0  0  0  0  0  0  0
   33.6060   28.9720   34.0750 H   0  0  0  0  0  0  0  0  0  0  0  0
   32.6780   30.0220   32.1560 H   0  0  0  0  0  0  0  0  0  0  0  0
   33.1400   31.6520   32.6150 H   0  0  0  0  0  0  0  0  0  0  0  0
   32.1390   32.4740   35.0110 H   0  0  0  0  0  0  0  0  0  0  0  0
   31.1580   31.0820   35.6450 H   0  0  0  0  0  0  0  0  0  0  0  0
   33.0250   29.7940   36.2180 H   0  0  0  0  0  0  0  0  0  0  0  0
   33.5760   31.7180   36.9360 C   0  0  0  0  0  2  0  0  0  0  0  0
   34.9780   32.2250   36.8740 C   0  0  0  0  0  2  0  0  0  0  0  0
   35.4470   32.1640   35.8710 H   0  0  0  0  0  0  0  0  0  0  0  0
  1  2  1  0  0  0  0
  2  3  2  0  0  0  0
  2 16  1  0  0  0  0
  3 11  1  0  0  0  0
  4  5  1  0  0  0  0
  4  3  1  0  0  0  0
  5 12  1  0  0  0  0
  6  5  1  0  0  0  0
  7  8  1  0  0  0  0
  7  6  2  0  0  0  0
  8  4  2  0  0  0  0
  9  8  1  0  0  0  0
  9  1  2  0  0  0  0
 10  1  1  0  0  0  0
 13  9  1  0  0  0  0
 14 20  1  0  0  0  0
 15 21  1  0  0  0  0
 15 14  2  0  0  0  0
 16 15  1  0  0  0  0
 17 16  2  0  0  0  0
 17 18  1  0  0  0  0
 18 19  2  0  0  0  0
 19 14  1  0  0  0  0
 22 18  1  0  0  0  0
 23  6  1  0  0  0  0
 23 25  1  0  0  0  0
 24 30  1  0  0  0  0
 24 29  1  0  0  0  0
 25 31  1  1  0  0  0
 25 24  1  0  0  0  0
 26 25  1  0  0  0  0
 26 27  1  0  0  0  0
 27 28  1  0  0  0  0
 28 35  1  0  0  0  0
 28 29  1  0  0  0  0
 29 36  1  1  0  0  0
 29 37  1  0  0  0  0
 32 26  1  0  0  0  0
 33 26  1  0  0  0  0
 34 28  1  0  0  0  0
 38 37  1  0  0  0  0
 39 38  1  0  0  0  0
M  END
>  <minimizedAffinity>
-5.6235323

$$$$

 OpenBabel03272510283D

 39 42  0  0  1  0  0  0  0  0999 V2000
   35.4400   28.8540   32.7820 C   0  0  0  0  0  0  0  0  0  0  0  0
   35.8370   29.0680   34.0990 C   0  0  0  0  0  0  0  0  0  0  0  0
   36.8190   28.2840   34.6850 C   0  0  0  0  0  0  0  0  0  0  0  0
   37.3770   27.2850   33.8960 C   0  0  0  0  0  0  0  0  0  0  0  0
   38.3500   26.3950   34.2460 N   0  0  0  0  0  0  0  0  0  0  0  0
   38.5650   25.6270   33.1650 C   0  0  0  0  0  0  0  0  0  0  0  0
   37.7790   25.9980   32.1780 N   0  0  0  0  0  0  0  0  0  0  0  0
   37.0130   27.0380   32.5880 C   0  0  0  0  0  0  0  0  0  0  0  0
   36.0180   27.8460   32.0190 C   0  0  0  0  0  0  0  0  0  0  0  0
   34.6850   29.4210   32.2560 H   0  0  0  0  0  0  0  0  0  0  0  0
   37.1200   28.4580   35.7070 H   0  0  0  0  0  0  0  0  0  0  0  0
   38.8370   26.3240   35.1790 H   0  0  0  0  0  0  0  0  0  0  0  0
   35.7390   27.6450   30.9910 H   0  0  0  0  0  0  0  0  0  0  0  0
   33.2660   31.4390   35.4530 C   0  0  0  0  0  0  0  0  0  0  0  0
   33.8010   30.3850   34.7350 C   0  0  0  0  0  0  0  0  0  0  0  0
   35.1680   30.1380   34.8100 C   0  0  0  0  0  0  0  0  0  0  0  0
   35.9160   30.9640   35.6000 N   0  0  0  0  0  0  0  0  0  0  0  0
   35.3850   31.9890   36.2960 C   0  0  0  0  0  0  0  0  0  0  0  0
   34.0760   32.2170   36.2170 N   0  0  0  0  0  0  0  0  0  0  0  0
   32.2100   31.6320   35.3960 H   0  0  0  0  0  0  0  0  0  0  0  0
   33.1950   29.7390   34.1130 H   0  0  0  0  0  0  0  0  0  0  0  0
   36.1050   32.5590   36.8800 H   0  0  0  0  0  0  0  0  0  0  0  0
   39.5160   24.5950   33.1750 O   0  0  0  0  0  0  0  0  0  0  0  0
   39.2430   23.8800   35.3250 N   0  0  0  0  0  0  0  0  0  0  0  0
   39.1660   23.4360   33.9180 C   0  0  1  0  0  0  0  0  0  0  0  0
   37.8030   22.9930   33.6460 C   0  0  0  0  0  0  0  0  0  0  0  0
   37.5380   21.8550   34.4290 O   0  0  0  0  0  0  0  0  0  0  0  0
   37.7290   22.0120   35.7700 C   0  0  0  0  0  0  0  0  0  0  0  0
   39.0280   22.6890   36.1140 C   0  0  2  0  0  0  0  0  0  0  0  0
   40.2690   24.1170   35.4430 H   0  0  0  0  0  0  0  0  0  0  0  0
   39.8610   22.6000   33.7420 H   0  0  0  0  0  0  0  0  0  0  0  0
   37.7840   22.5880   32.5880 H   0  0  0  0  0  0  0  0  0  0  0  0
   36.9350   23.5830   33.7580 H   0  0  0  0  0  0  0  0  0  0  0  0
   36.8890   22.5620   36.2830 H   0  0  0  0  0  0  0  0  0  0  0  0
   37.7950   20.9900   36.2010 H   0  0  0  0  0  0  0  0  0  0  0  0
   39.8970   22.0030   36.0330 H   0  0  0  0  0  0  0  0  0  0  0  0
   38.9730   23.1480   37.5680 C   0  0  0  0  0  2  0  0  0  0  0  0
   38.0290   24.2850   37.7760 C   0  0  0  0  0  2  0  0  0  0  0  0
   37.2660   24.4030   36.9800 H   0  0  0  0  0  0  0  0  0  0  0  0
  1  2  1  0  0  0  0
  2  3  2  0  0  0  0
  2 16  1  0  0  0  0
  3 11  1  0  0  0  0
  4  5  1  0  0  0  0
  4  3  1  0  0  0  0
  5 12  1  0  0  0  0
  6 23  1  0  0  0  0
  6  5  1  0  0  0  0
  7  8  1  0  0  0  0
  7  6  2  0  0  0  0
  8  4  2  0  0  0  0
  9  8  1  0  0  0  0
  9  1  2  0  0  0  0
 10  1  1  0  0  0  0
 13  9  1  0  0  0  0
 14 19  1  0  0  0  0
 15 16  1  0  0  0  0
 15 14  2  0  0  0  0
 16 17  2  0  0  0  0
 17 18  1  0  0  0  0
 18 22  1  0  0  0  0
 19 18  2  0  0  0  0
 20 14  1  0  0  0  0
 21 15  1  0  0  0  0
 23 25  1  0  0  0  0
 24 30  1  0  0  0  0
 24 29  1  0  0  0  0
 25 31  1  6  0  0  0
 25 24  1  0  0  0  0
 26 33  1  0  0  0  0
 26 25  1  0  0  0  0
 26 27  1  0  0  0  0
 27 28  1  0  0  0  0
 28 29  1  0  0  0  0
 28 35  1  0  0  0  0
 28 34  1  0  0  0  0
 29 36  1  6  0  0  0
 29 37  1  0  0  0  0
 32 26  1  0  0  0  0
 37 38  1  0  0  0  0
 39 38  1  0  0  0  0
M  END
>  <minimizedAffinity>
-5.42962742

$$$$

 OpenBabel03272510283D

 39 42  0  0  1  0  0  0  0  0999 V2000
   35.5430   30.3680   32.7280 C   0  0  0  0  0  0  0  0  0  0  0  0
   35.6020   29.7910   33.9940 C   0  0  0  0  0  0  0  0  0  0  0  0
   36.2140   28.5630   34.1910 C   0  0  0  0  0  0  0  0  0  0  0  0
   36.7580   27.9470   33.0690 C   0  0  0  0  0  0  0  0  0  0  0  0
   37.4060   26.7490   33.0110 N   0  0  0  0  0  0  0  0  0  0  0  0
   37.7520   26.5690   31.7250 C   0  0  0  0  0  0  0  0  0  0  0  0
   37.3510   27.5880   30.9980 N   0  0  0  0  0  0  0  0  0  0  0  0
   36.7220   28.4840   31.7980 C   0  0  0  0  0  0  0  0  0  0  0  0
   36.0970   29.7270   31.6260 C   0  0  0  0  0  0  0  0  0  0  0  0
   35.0850   31.3190   32.4950 H   0  0  0  0  0  0  0  0  0  0  0  0
   36.2550   28.1230   35.1760 H   0  0  0  0  0  0  0  0  0  0  0  0
   37.5980   26.0920   33.8150 H   0  0  0  0  0  0  0  0  0  0  0  0
   36.0740   30.1400   30.6250 H   0  0  0  0  0  0  0  0  0  0  0  0
   34.9820   32.1030   36.8820 C   0  0  0  0  0  0  0  0  0  0  0  0
   35.6670   31.4470   35.8740 C   0  0  0  0  0  0  0  0  0  0  0  0
   34.9870   30.5370   35.0730 C   0  0  0  0  0  0  0  0  0  0  0  0
   33.6610   30.3370   35.3310 N   0  0  0  0  0  0  0  0  0  0  0  0
   33.0020   30.9800   36.3150 C   0  0  0  0  0  0  0  0  0  0  0  0
   33.6620   31.8490   37.0770 N   0  0  0  0  0  0  0  0  0  0  0  0
   35.5070   32.8070   37.5020 H   0  0  0  0  0  0  0  0  0  0  0  0
   36.7190   31.6170   35.6820 H   0  0  0  0  0  0  0  0  0  0  0  0
   31.9490   30.7170   36.4010 H   0  0  0  0  0  0  0  0  0  0  0  0
   38.4430   25.4220   31.3050 O   0  0  0  0  0  0  0  0  0  0  0  0
   37.8030   23.6560   32.6010 N   0  0  0  0  0  0  0  0  0  0  0  0
   37.6800   24.2250   31.2430 C   0  0  1  0  0  0  0  0  0  0  0  0
   36.2690   24.4790   30.9720 C   0  0  0  0  0  0  0  0  0  0  0  0
   35.5910   23.2470   30.9410 O   0  0  0  0  0  0  0  0  0  0  0  0
   35.7310   22.4760   32.0580 C   0  0  0  0  0  0  0  0  0  0  0  0
   37.1530   22.3670   32.5360 C   0  0  2  0  0  0  0  0  0  0  0  0
   38.8380   23.4480   32.6790 H   0  0  0  0  0  0  0  0  0  0  0  0
   38.0710   23.5170   30.4950 H   0  0  0  0  0  0  0  0  0  0  0  0
   36.1910   24.8420   29.9020 H   0  0  0  0  0  0  0  0  0  0  0  0
   35.6380   25.0990   31.5480 H   0  0  0  0  0  0  0  0  0  0  0  0
   35.0850   22.8120   32.9200 H   0  0  0  0  0  0  0  0  0  0  0  0
   35.4260   21.4470   31.7710 H   0  0  0  0  0  0  0  0  0  0  0  0
   37.7510   21.6570   31.9260 H   0  0  0  0  0  0  0  0  0  0  0  0
   37.1520   21.8210   33.9600 C   0  0  0  0  0  2  0  0  0  0  0  0
   38.4830   21.9440   34.6240 C   0  0  0  0  0  2  0  0  0  0  0  0
   39.1580   22.6970   34.1680 H   0  0  0  0  0  0  0  0  0  0  0  0
  1  2  1  0  0  0  0
  2  3  2  0  0  0  0
  2 16  1  0  0  0  0
  3 11  1  0  0  0  0
  4  3  1  0  0  0  0
  5  4  1  0  0  0  0
  5 12  1  0  0  0  0
  6  5  1  0  0  0  0
  7  6  2  0  0  0  0
  7  8  1  0  0  0  0
  8  4  2  0  0  0  0
  9  8  1  0  0  0  0
  9  1  2  0  0  0  0
 10  1  1  0  0  0  0
 13  9  1  0  0  0  0
 14 19  1  0  0  0  0
 14 20  1  0  0  0  0
 15 14  2  0  0  0  0
 16 17  2  0  0  0  0
 16 15  1  0  0  0  0
 17 18  1  0  0  0  0
 18 22  1  0  0  0  0
 18 19  2  0  0  0  0
 21 15  1  0  0  0  0
 23  6  1  0  0  0  0
 24 30  1  0  0  0  0
 25 31  1  6  0  0  0
 25 23  1  0  0  0  0
 25 24  1  0  0  0  0
 26 25  1  0  0  0  0
 26 33  1  0  0  0  0
 27 26  1  0  0  0  0
 27 28  1  0  0  0  0
 28 29  1  0  0  0  0
 28 34  1  0  0  0  0
 29 36  1  6  0  0  0
 29 24  1  0  0  0  0
 29 37  1  0  0  0  0
 32 26  1  0  0  0  0
 35 28  1  0  0  0  0
 37 38  1  0  0  0  0
 39 38  1  0  0  0  0
M  END
>  <minimizedAffinity>
-5.38022995

$$$$

 OpenBabel03272510283D

 39 42  0  0  1  0  0  0  0  0999 V2000
   37.5540   27.8470   35.0210 C   0  0  0  0  0  0  0  0  0  0  0  0
   37.2190   27.2950   33.7880 C   0  0  0  0  0  0  0  0  0  0  0  0
   37.4050   25.9450   33.5360 C   0  0  0  0  0  0  0  0  0  0  0  0
   37.9390   25.1820   34.5690 C   0  0  0  0  0  0  0  0  0  0  0  0
   38.2100   23.8460   34.5620 N   0  0  0  0  0  0  0  0  0  0  0  0
   38.7120   23.5560   35.7740 C   0  0  0  0  0  0  0  0  0  0  0  0
   38.7620   24.6390   36.5180 N   0  0  0  0  0  0  0  0  0  0  0  0
   38.2860   25.6890   35.8050 C   0  0  0  0  0  0  0  0  0  0  0  0
   38.0870   27.0580   36.0340 C   0  0  0  0  0  0  0  0  0  0  0  0
   37.4390   28.8870   35.2930 H   0  0  0  0  0  0  0  0  0  0  0  0
   37.1420   25.5250   32.5770 H   0  0  0  0  0  0  0  0  0  0  0  0
   38.0570   23.1730   33.7640 H   0  0  0  0  0  0  0  0  0  0  0  0
   38.3620   27.4470   37.0070 H   0  0  0  0  0  0  0  0  0  0  0  0
   35.1970   29.9140   32.0230 C   0  0  0  0  0  0  0  0  0  0  0  0
   35.6380   29.0920   33.0440 C   0  0  0  0  0  0  0  0  0  0  0  0
   36.6790   28.2040   32.7980 C   0  0  0  0  0  0  0  0  0  0  0  0
   37.2150   28.1940   31.5420 N   0  0  0  0  0  0  0  0  0  0  0  0
   36.7790   28.9990   30.5530 C   0  0  0  0  0  0  0  0  0  0  0  0
   35.7810   29.8450   30.7990 N   0  0  0  0  0  0  0  0  0  0  0  0
   34.3910   30.6010   32.2120 H   0  0  0  0  0  0  0  0  0  0  0  0
   35.2020   29.1120   34.0350 H   0  0  0  0  0  0  0  0  0  0  0  0
   37.3020   28.8770   29.6060 H   0  0  0  0  0  0  0  0  0  0  0  0
   39.1030   22.2520   36.1130 O   0  0  0  0  0  0  0  0  0  0  0  0
   41.0650   23.2190   35.4620 N   0  0  0  0  0  0  0  0  0  0  0  0
   40.4940   21.9760   36.0220 C   0  0  1  0  0  0  0  0  0  0  0  0
   41.1000   21.7350   37.3270 C   0  0  0  0  0  0  0  0  0  0  0  0
   42.4720   21.4850   37.1440 O   0  0  0  0  0  0  0  0  0  0  0  0
   43.1560   22.4550   36.4730 C   0  0  0  0  0  0  0  0  0  0  0  0
   42.4600   22.9260   35.2250 C   0  0  2  0  0  0  0  0  0  0  0  0
   40.6190   23.2730   34.5020 H   0  0  0  0  0  0  0  0  0  0  0  0
   40.7090   21.1240   35.3580 H   0  0  0  0  0  0  0  0  0  0  0  0
   40.7060   20.7410   37.7030 H   0  0  0  0  0  0  0  0  0  0  0  0
   41.0720   22.4000   38.1460 H   0  0  0  0  0  0  0  0  0  0  0  0
   43.4030   23.3540   37.1090 H   0  0  0  0  0  0  0  0  0  0  0  0
   44.1080   21.9930   36.1340 H   0  0  0  0  0  0  0  0  0  0  0  0
   42.5730   22.2120   34.3830 H   0  0  0  0  0  0  0  0  0  0  0  0
   43.0960   24.2360   34.7710 C   0  0  0  0  0  2  0  0  0  0  0  0
   42.1520   25.3900   34.8450 C   0  0  0  0  0  2  0  0  0  0  0  0
   41.2850   25.2340   35.5180 H   0  0  0  0  0  0  0  0  0  0  0  0
  1 10  1  0  0  0  0
  1  9  1  0  0  0  0
  2  1  2  0  0  0  0
  3  2  1  0  0  0  0
  3  4  2  0  0  0  0
  4  8  1  0  0  0  0
  5  4  1  0  0  0  0
  5  6  1  0  0  0  0
  6 23  1  0  0  0  0
  6  7  2  0  0  0  0
  8  9  2  0  0  0  0
  8  7  1  0  0  0  0
  9 13  1  0  0  0  0
 11  3  1  0  0  0  0
 12  5  1  0  0  0  0
 14 20  1  0  0  0  0
 14 15  1  0  0  0  0
 15 21  1  0  0  0  0
 16 15  2  0  0  0  0
 16  2  1  0  0  0  0
 17 16  1  0  0  0  0
 18 19  1  0  0  0  0
 18 17  2  0  0  0  0
 19 14  2  0  0  0  0
 22 18  1  0  0  0  0
 24 25  1  0  0  0  0
 25 31  1  6  0  0  0
 25 23  1  0  0  0  0
 25 26  1  0  0  0  0
 26 32  1  0  0  0  0
 26 33  1  0  0  0  0
 27 26  1  0  0  0  0
 28 34  1  0  0  0  0
 28 27  1  0  0  0  0
 29 36  1  6  0  0  0
 29 24  1  0  0  0  0
 29 28  1  0  0  0  0
 30 24  1  0  0  0  0
 35 28  1  0  0  0  0
 37 38  1  0  0  0  0
 37 29  1  0  0  0  0
 38 39  1  0  0  0  0
M  END
>  <minimizedAffinity>
-5.36117887

$$$$

 OpenBabel03272510283D

 39 42  0  0  1  0  0  0  0  0999 V2000
   38.0140   26.8200   35.8920 C   0  0  0  0  0  0  0  0  0  0  0  0
   38.1950   25.5240   35.4150 C   0  0  0  0  0  0  0  0  0  0  0  0
   37.9050   25.2000   34.1000 C   0  0  0  0  0  0  0  0  0  0  0  0
   37.4270   26.2260   33.2920 C   0  0  0  0  0  0  0  0  0  0  0  0
   37.0760   26.1540   31.9760 N   0  0  0  0  0  0  0  0  0  0  0  0
   36.6770   27.3870   31.6240 C   0  0  0  0  0  0  0  0  0  0  0  0
   36.7640   28.2060   32.6500 N   0  0  0  0  0  0  0  0  0  0  0  0
   37.2320   27.5230   33.7230 C   0  0  0  0  0  0  0  0  0  0  0  0
   37.5350   27.8240   35.0580 C   0  0  0  0  0  0  0  0  0  0  0  0
   38.2170   27.1500   36.9010 H   0  0  0  0  0  0  0  0  0  0  0  0
   38.0490   24.1930   33.7390 H   0  0  0  0  0  0  0  0  0  0  0  0
   37.1110   25.3000   31.3570 H   0  0  0  0  0  0  0  0  0  0  0  0
   37.3780   28.8450   35.3880 H   0  0  0  0  0  0  0  0  0  0  0  0
   38.6910   23.3800   38.4530 C   0  0  0  0  0  0  0  0  0  0  0  0
   38.1330   24.3340   37.6210 C   0  0  0  0  0  0  0  0  0  0  0  0
   38.6910   24.5500   36.3660 C   0  0  0  0  0  0  0  0  0  0  0  0
   39.7770   23.7970   36.0210 N   0  0  0  0  0  0  0  0  0  0  0  0
   40.3140   22.8700   36.8380 C   0  0  0  0  0  0  0  0  0  0  0  0
   39.7720   22.6710   38.0380 N   0  0  0  0  0  0  0  0  0  0  0  0
   38.2600   23.2130   39.4240 H   0  0  0  0  0  0  0  0  0  0  0  0
   37.2720   24.9240   37.9090 H   0  0  0  0  0  0  0  0  0  0  0  0
   41.1770   22.3490   36.4270 H   0  0  0  0  0  0  0  0  0  0  0  0
   36.2420   27.6740   30.3200 O   0  0  0  0  0  0  0  0  0  0  0  0
   36.8820   29.8630   30.2510 N   0  0  0  0  0  0  0  0  0  0  0  0
   37.0620   28.5620   29.5740 C   0  0  1  0  0  0  0  0  0  0  0  0
   38.4740   28.1990   29.6340 C   0  0  0  0  0  0  0  0  0  0  0  0
   39.2090   29.1340   28.8830 O   0  0  0  0  0  0  0  0  0  0  0  0
   39.0360   30.4370   29.2460 C   0  0  0  0  0  0  0  0  0  0  0  0
   37.5940   30.8200   29.4350 C   0  0  2  0  0  0  0  0  0  0  0  0
   35.8550   30.0690   30.1000 H   0  0  0  0  0  0  0  0  0  0  0  0
   36.7510   28.6340   28.5200 H   0  0  0  0  0  0  0  0  0  0  0  0
   38.6010   27.2390   29.0460 H   0  0  0  0  0  0  0  0  0  0  0  0
   39.0390   28.0870   30.5190 H   0  0  0  0  0  0  0  0  0  0  0  0
   39.6110   30.7270   30.1720 H   0  0  0  0  0  0  0  0  0  0  0  0
   39.4050   31.0520   28.3960 H   0  0  0  0  0  0  0  0  0  0  0  0
   37.0680   30.9800   28.4710 H   0  0  0  0  0  0  0  0  0  0  0  0
   37.5310   32.1460   30.1870 C   0  0  0  0  0  2  0  0  0  0  0  0
   36.3290   32.9550   29.8280 C   0  0  0  0  0  2  0  0  0  0  0  0
   35.5020   32.3740   29.3720 H   0  0  0  0  0  0  0  0  0  0  0  0
  1 10  1  0  0  0  0
  2  1  1  0  0  0  0
  2 16  1  0  0  0  0
  3  2  2  0  0  0  0
  4  8  2  0  0  0  0
  4  3  1  0  0  0  0
  5  4  1  0  0  0  0
  6  5  1  0  0  0  0
  6  7  2  0  0  0  0
  7  8  1  0  0  0  0
  8  9  1  0  0  0  0
  9 13  1  0  0  0  0
  9  1  2  0  0  0  0
 11  3  1  0  0  0  0
 12  5  1  0  0  0  0
 14 20  1  0  0  0  0
 15 21  1  0  0  0  0
 15 14  2  0  0  0  0
 16 15  1  0  0  0  0
 17 16  2  0  0  0  0
 17 18  1  0  0  0  0
 18 19  2  0  0  0  0
 19 14  1  0  0  0  0
 22 18  1  0  0  0  0
 23  6  1  0  0  0  0
 25 31  1  6  0  0  0
 25 26  1  0  0  0  0
 25 24  1  0  0  0  0
 25 23  1  0  0  0  0
 26 33  1  0  0  0  0
 27 28  1  0  0  0  0
 27 26  1  0  0  0  0
 28 29  1  0  0  0  0
 28 34  1  0  0  0  0
 29 36  1  6  0  0  0
 29 37  1  0  0  0  0
 29 24  1  0  0  0  0
 30 24  1  0  0  0  0
 32 26  1  0  0  0  0
 35 28  1  0  0  0  0
 38 37  1  0  0  0  0
 39 38  1  0  0  0  0
M  END
>  <minimizedAffinity>
-5.32689285

$$$$

 OpenBabel03272510283D

 39 42  0  0  1  0  0  0  0  0999 V2000
   39.9850   25.9970   34.4940 C   0  0  0  0  0  0  0  0  0  0  0  0
   38.7770   25.4840   34.9590 C   0  0  0  0  0  0  0  0  0  0  0  0
   37.5840   25.7720   34.3150 C   0  0  0  0  0  0  0  0  0  0  0  0
   37.6590   26.5920   33.1940 C   0  0  0  0  0  0  0  0  0  0  0  0
   36.6320   27.0110   32.4010 N   0  0  0  0  0  0  0  0  0  0  0  0
   37.1820   27.7810   31.4470 C   0  0  0  0  0  0  0  0  0  0  0  0
   38.4840   27.8550   31.6150 N   0  0  0  0  0  0  0  0  0  0  0  0
   38.8340   27.1220   32.7010 C   0  0  0  0  0  0  0  0  0  0  0  0
   40.0260   26.8150   33.3700 C   0  0  0  0  0  0  0  0  0  0  0  0
   40.9540   25.8190   34.9390 H   0  0  0  0  0  0  0  0  0  0  0  0
   36.6520   25.3690   34.6820 H   0  0  0  0  0  0  0  0  0  0  0  0
   35.6090   26.7780   32.5130 H   0  0  0  0  0  0  0  0  0  0  0  0
   40.9430   27.2360   32.9750 H   0  0  0  0  0  0  0  0  0  0  0  0
   39.6960   22.8490   37.4650 C   0  0  0  0  0  0  0  0  0  0  0  0
   39.7230   23.5840   36.2930 C   0  0  0  0  0  0  0  0  0  0  0  0
   38.8420   24.6500   36.1410 C   0  0  0  0  0  0  0  0  0  0  0  0
   37.9880   24.9140   37.1730 N   0  0  0  0  0  0  0  0  0  0  0  0
   37.9690   24.1930   38.3110 C   0  0  0  0  0  0  0  0  0  0  0  0
   38.8160   23.1740   38.4470 N   0  0  0  0  0  0  0  0  0  0  0  0
   40.3760   22.0250   37.5840 H   0  0  0  0  0  0  0  0  0  0  0  0
   40.4060   23.3620   35.4840 H   0  0  0  0  0  0  0  0  0  0  0  0
   37.2340   24.5210   39.0440 H   0  0  0  0  0  0  0  0  0  0  0  0
   36.4000   28.3840   30.4490 O   0  0  0  0  0  0  0  0  0  0  0  0
   36.0060   29.8460   32.1560 N   0  0  0  0  0  0  0  0  0  0  0  0
   36.0290   29.7350   30.6830 C   0  0  1  0  0  0  0  0  0  0  0  0
   37.0120   30.6790   30.1620 C   0  0  0  0  0  0  0  0  0  0  0  0
   36.5740   31.9840   30.4460 O   0  0  0  0  0  0  0  0  0  0  0  0
   36.3180   32.2400   31.7620 C   0  0  0  0  0  0  0  0  0  0  0  0
   35.4980   31.1710   32.4310 C   0  0  2  0  0  0  0  0  0  0  0  0
   35.2290   29.1810   32.4320 H   0  0  0  0  0  0  0  0  0  0  0  0
   35.0390   29.9760   30.2650 H   0  0  0  0  0  0  0  0  0  0  0  0
   36.9600   30.6310   29.0310 H   0  0  0  0  0  0  0  0  0  0  0  0
   38.0370   30.6960   30.4150 H   0  0  0  0  0  0  0  0  0  0  0  0
   37.2490   32.4170   32.3740 H   0  0  0  0  0  0  0  0  0  0  0  0
   35.6990   33.1620   31.7890 H   0  0  0  0  0  0  0  0  0  0  0  0
   34.4210   31.2390   32.1700 H   0  0  0  0  0  0  0  0  0  0  0  0
   35.5900   31.3540   33.9430 C   0  0  0  0  0  2  0  0  0  0  0  0
   35.6520   30.0560   34.6760 C   0  0  0  0  0  2  0  0  0  0  0  0
   35.9720   29.1920   34.0600 H   0  0  0  0  0  0  0  0  0  0  0  0
  1 10  1  0  0  0  0
  1  2  1  0  0  0  0
  2 16  1  0  0  0  0
  3 11  1  0  0  0  0
  3  2  2  0  0  0  0
  4  3  1  0  0  0  0
  5 12  1  0  0  0  0
  5  4  1  0  0  0  0
  6  7  2  0  0  0  0
  6  5  1  0  0  0  0
  7  8  1  0  0  0  0
  8  4  2  0  0  0  0
  8  9  1  0  0  0  0
  9  1  2  0  0  0  0
 13  9  1  0  0  0  0
 14 20  1  0  0  0  0
 14 19  1  0  0  0  0
 15 14  2  0  0  0  0
 16 15  1  0  0  0  0
 16 17  2  0  0  0  0
 17 18  1  0  0  0  0
 18 19  2  0  0  0  0
 18 22  1  0  0  0  0
 21 15  1  0  0  0  0
 23 25  1  0  0  0  0
 23  6  1  0  0  0  0
 24 29  1  0  0  0  0
 24 30  1  0  0  0  0
 25 31  1  6  0  0  0
 25 24  1  0  0  0  0
 26 33  1  0  0  0  0
 26 27  1  0  0  0  0
 26 25  1  0  0  0  0
 27 28  1  0  0  0  0
 28 35  1  0  0  0  0
 28 34  1  0  0  0  0
 28 29  1  0  0  0  0
 29 36  1  6  0  0  0
 29 37  1  0  0  0  0
 32 26  1  0  0  0  0
 37 38  1  0  0  0  0
 39 38  1  0  0  0  0
M  END
>  <minimizedAffinity>
-5.29099894

$$$$

 OpenBabel03272510283D

 39 42  0  0  1  0  0  0  0  0999 V2000
   36.9470   26.8290   32.5060 C   0  0  0  0  0  0  0  0  0  0  0  0
   36.7630   27.6050   33.6480 C   0  0  0  0  0  0  0  0  0  0  0  0
   37.0910   27.1150   34.9030 C   0  0  0  0  0  0  0  0  0  0  0  0
   37.6040   25.8240   34.9580 C   0  0  0  0  0  0  0  0  0  0  0  0
   37.9960   25.1320   36.0650 N   0  0  0  0  0  0  0  0  0  0  0  0
   38.4200   23.9330   35.6310 C   0  0  0  0  0  0  0  0  0  0  0  0
   38.3080   23.8570   34.3230 N   0  0  0  0  0  0  0  0  0  0  0  0
   37.8000   25.0220   33.8520 C   0  0  0  0  0  0  0  0  0  0  0  0
   37.4620   25.5410   32.5940 C   0  0  0  0  0  0  0  0  0  0  0  0
   36.7170   27.1390   31.4960 H   0  0  0  0  0  0  0  0  0  0  0  0
   36.9460   27.7230   35.7830 H   0  0  0  0  0  0  0  0  0  0  0  0
   37.9710   25.4690   37.0650 H   0  0  0  0  0  0  0  0  0  0  0  0
   37.6200   24.9040   31.7320 H   0  0  0  0  0  0  0  0  0  0  0  0
   35.1420   30.9490   34.1540 C   0  0  0  0  0  0  0  0  0  0  0  0
   35.6430   29.6950   34.4580 C   0  0  0  0  0  0  0  0  0  0  0  0
   36.2130   28.9290   33.4480 C   0  0  0  0  0  0  0  0  0  0  0  0
   36.2460   29.4660   32.1930 N   0  0  0  0  0  0  0  0  0  0  0  0
   35.7560   30.6880   31.9050 C   0  0  0  0  0  0  0  0  0  0  0  0
   35.2120   31.4130   32.8800 N   0  0  0  0  0  0  0  0  0  0  0  0
   34.7000   31.5420   34.9350 H   0  0  0  0  0  0  0  0  0  0  0  0
   35.6090   29.2840   35.4590 H   0  0  0  0  0  0  0  0  0  0  0  0
   35.8530   30.9810   30.8610 H   0  0  0  0  0  0  0  0  0  0  0  0
   38.9000   22.9580   36.5190 O   0  0  0  0  0  0  0  0  0  0  0  0
   40.9670   23.7030   35.9030 N   0  0  0  0  0  0  0  0  0  0  0  0
   40.2160   22.4850   36.2690 C   0  0  1  0  0  0  0  0  0  0  0  0
   40.8310   21.9000   37.4560 C   0  0  0  0  0  0  0  0  0  0  0  0
   42.1280   21.4720   37.1230 O   0  0  0  0  0  0  0  0  0  0  0  0
   42.9390   22.4300   36.5890 C   0  0  0  0  0  0  0  0  0  0  0  0
   42.2780   23.2400   35.5080 C   0  0  2  0  0  0  0  0  0  0  0  0
   40.4940   24.0130   35.0080 H   0  0  0  0  0  0  0  0  0  0  0  0
   40.2490   21.7530   35.4460 H   0  0  0  0  0  0  0  0  0  0  0  0
   40.2880   20.9300   37.6750 H   0  0  0  0  0  0  0  0  0  0  0  0
   40.9570   22.3900   38.3830 H   0  0  0  0  0  0  0  0  0  0  0  0
   43.3670   23.1360   37.3580 H   0  0  0  0  0  0  0  0  0  0  0  0
   43.7790   21.8940   36.0980 H   0  0  0  0  0  0  0  0  0  0  0  0
   42.2250   22.6930   34.5430 H   0  0  0  0  0  0  0  0  0  0  0  0
   43.1100   24.4920   35.2520 C   0  0  0  0  0  2  0  0  0  0  0  0
   44.0130   24.8260   36.3930 C   0  0  0  0  0  2  0  0  0  0  0  0
   44.2220   23.9800   37.0780 H   0  0  0  0  0  0  0  0  0  0  0  0
  1  9  2  0  0  0  0
  1  2  1  0  0  0  0
  2  3  2  0  0  0  0
  3  4  1  0  0  0  0
  3 11  1  0  0  0  0
  4  5  1  0  0  0  0
  5 12  1  0  0  0  0
  6  5  1  0  0  0  0
  6 23  1  0  0  0  0
  7  6  2  0  0  0  0
  8  7  1  0  0  0  0
  8  4  2  0  0  0  0
  9  8  1  0  0  0  0
 10  1  1  0  0  0  0
 13  9  1  0  0  0  0
 14 15  1  0  0  0  0
 14 20  1  0  0  0  0
 15 21  1  0  0  0  0
 16  2  1  0  0  0  0
 16 15  2  0  0  0  0
 17 16  1  0  0  0  0
 18 17  2  0  0  0  0
 18 19  1  0  0  0  0
 19 14  2  0  0  0  0
 22 18  1  0  0  0  0
 24 25  1  0  0  0  0
 25 31  1  6  0  0  0
 25 23  1  0  0  0  0
 25 26  1  0  0  0  0
 26 32  1  0  0  0  0
 26 33  1  0  0  0  0
 27 26  1  0  0  0  0
 28 27  1  0  0  0  0
 28 34  1  0  0  0  0
 29 36  1  6  0  0  0
 29 24  1  0  0  0  0
 29 28  1  0  0  0  0
 30 24  1  0  0  0  0
 35 28  1  0  0  0  0
 37 29  1  0  0  0  0
 37 38  1  0  0  0  0
 38 39  1  0  0  0  0
M  END
>  <minimizedAffinity>
-5.26741028

$$$$

 OpenBabel03272510283D

 39 42  0  0  1  0  0  0  0  0999 V2000
   36.5160   28.0880   34.2570 C   0  0  0  0  0  0  0  0  0  0  0  0
   35.9020   28.6180   33.1240 C   0  0  0  0  0  0  0  0  0  0  0  0
   35.8670   27.9080   31.9340 C   0  0  0  0  0  0  0  0  0  0  0  0
   36.4710   26.6560   31.9330 C   0  0  0  0  0  0  0  0  0  0  0  0
   36.5640   25.7780   30.8930 N   0  0  0  0  0  0  0  0  0  0  0  0
   37.2280   24.7080   31.3600 C   0  0  0  0  0  0  0  0  0  0  0  0
   37.5460   24.8840   32.6240 N   0  0  0  0  0  0  0  0  0  0  0  0
   37.0910   26.0940   33.0310 C   0  0  0  0  0  0  0  0  0  0  0  0
   37.1120   26.8330   34.2230 C   0  0  0  0  0  0  0  0  0  0  0  0
   36.5850   28.5780   35.2180 H   0  0  0  0  0  0  0  0  0  0  0  0
   35.3890   28.3260   31.0610 H   0  0  0  0  0  0  0  0  0  0  0  0
   36.1880   25.9120   29.9160 H   0  0  0  0  0  0  0  0  0  0  0  0
   37.6000   26.3840   35.0800 H   0  0  0  0  0  0  0  0  0  0  0  0
   34.8090   31.9560   34.4400 C   0  0  0  0  0  0  0  0  0  0  0  0
   35.4090   30.7090   34.4140 C   0  0  0  0  0  0  0  0  0  0  0  0
   35.3190   29.9360   33.2630 C   0  0  0  0  0  0  0  0  0  0  0  0
   34.6310   30.4590   32.2050 N   0  0  0  0  0  0  0  0  0  0  0  0
   34.0500   31.6740   32.2380 C   0  0  0  0  0  0  0  0  0  0  0  0
   34.1420   32.4060   33.3460 N   0  0  0  0  0  0  0  0  0  0  0  0
   34.8780   32.5540   35.3300 H   0  0  0  0  0  0  0  0  0  0  0  0
   35.9510   30.3080   35.2620 H   0  0  0  0  0  0  0  0  0  0  0  0
   33.5370   31.9560   31.3200 H   0  0  0  0  0  0  0  0  0  0  0  0
   37.5020   23.6000   30.5430 O   0  0  0  0  0  0  0  0  0  0  0  0
   36.5260   21.9750   31.8130 N   0  0  0  0  0  0  0  0  0  0  0  0
   37.8140   22.3910   31.2200 C   0  0  1  0  0  0  0  0  0  0  0  0
   38.2650   21.3440   30.3090 C   0  0  0  0  0  0  0  0  0  0  0  0
   38.5370   20.1860   31.0580 O   0  0  0  0  0  0  0  0  0  0  0  0
   37.5070   19.7350   31.8300 C   0  0  0  0  0  0  0  0  0  0  0  0
   36.8340   20.8200   32.6250 C   0  0  2  0  0  0  0  0  0  0  0  0
   36.3170   22.7560   32.4970 H   0  0  0  0  0  0  0  0  0  0  0  0
   38.5690   22.5350   32.0090 H   0  0  0  0  0  0  0  0  0  0  0  0
   39.2860   21.6480   29.9250 H   0  0  0  0  0  0  0  0  0  0  0  0
   37.7240   20.9850   29.4760 H   0  0  0  0  0  0  0  0  0  0  0  0
   36.7200   19.1750   31.2470 H   0  0  0  0  0  0  0  0  0  0  0  0
   37.9510   19.0410   32.5760 H   0  0  0  0  0  0  0  0  0  0  0  0
   37.4230   21.1160   33.5190 H   0  0  0  0  0  0  0  0  0  0  0  0
   35.4970   20.2960   33.1410 C   0  0  0  0  0  2  0  0  0  0  0  0
   34.7370   19.5410   32.1020 C   0  0  0  0  0  2  0  0  0  0  0  0
   35.3530   19.1650   31.2610 H   0  0  0  0  0  0  0  0  0  0  0  0
  1 10  1  0  0  0  0
  2 16  1  0  0  0  0
  2  1  2  0  0  0  0
  3  2  1  0  0  0  0
  4  3  2  0  0  0  0
  4  8  1  0  0  0  0
  5  6  1  0  0  0  0
  5  4  1  0  0  0  0
  6  7  2  0  0  0  0
  7  8  1  0  0  0  0
  8  9  2  0  0  0  0
  9  1  1  0  0  0  0
  9 13  1  0  0  0  0
 11  3  1  0  0  0  0
 12  5  1  0  0  0  0
 14 20  1  0  0  0  0
 15 14  1  0  0  0  0
 15 21  1  0  0  0  0
 16 15  2  0  0  0  0
 17 18  2  0  0  0  0
 17 16  1  0  0  0  0
 18 19  1  0  0  0  0
 19 14  2  0  0  0  0
 22 18  1  0  0  0  0
 23 25  1  0  0  0  0
 23  6  1  0  0  0  0
 24 30  1  0  0  0  0
 24 29  1  0  0  0  0
 25 24  1  0  0  0  0
 25 31  1  1  0  0  0
 26 27  1  0  0  0  0
 26 25  1  0  0  0  0
 27 28  1  0  0  0  0
 28 35  1  0  0  0  0
 28 29  1  0  0  0  0
 29 37  1  0  0  0  0
 29 36  1  1  0  0  0
 32 26  1  0  0  0  0
 33 26  1  0  0  0  0
 34 28  1  0  0  0  0
 38 37  1  0  0  0  0
 39 38  1  0  0  0  0
M  END
>  <minimizedAffinity>
-5.13002825

$$$$

 OpenBabel03272510283D

 39 42  0  0  1  0  0  0  0  0999 V2000
   37.4420   23.0630   32.9300 C   0  0  0  0  0  0  0  0  0  0  0  0
   36.5130   22.6570   31.9750 C   0  0  0  0  0  0  0  0  0  0  0  0
   35.9400   23.5690   31.1040 C   0  0  0  0  0  0  0  0  0  0  0  0
   36.3370   24.8950   31.2340 C   0  0  0  0  0  0  0  0  0  0  0  0
   35.9180   25.9640   30.4990 N   0  0  0  0  0  0  0  0  0  0  0  0
   36.5720   27.0340   30.9820 C   0  0  0  0  0  0  0  0  0  0  0  0
   37.3640   26.6770   31.9690 N   0  0  0  0  0  0  0  0  0  0  0  0
   37.2530   25.3400   32.1660 C   0  0  0  0  0  0  0  0  0  0  0  0
   37.8180   24.3970   33.0340 C   0  0  0  0  0  0  0  0  0  0  0  0
   37.9320   22.4140   33.6420 H   0  0  0  0  0  0  0  0  0  0  0  0
   35.2210   23.2450   30.3660 H   0  0  0  0  0  0  0  0  0  0  0  0
   35.2200   25.9550   29.7080 H   0  0  0  0  0  0  0  0  0  0  0  0
   38.5360   24.7560   33.7620 H   0  0  0  0  0  0  0  0  0  0  0  0
   34.6890   19.3800   32.0290 C   0  0  0  0  0  0  0  0  0  0  0  0
   34.8890   20.7480   32.0550 C   0  0  0  0  0  0  0  0  0  0  0  0
   36.1840   21.2460   31.9540 C   0  0  0  0  0  0  0  0  0  0  0  0
   37.2000   20.3420   31.8330 N   0  0  0  0  0  0  0  0  0  0  0  0
   36.9950   19.0100   31.8080 C   0  0  0  0  0  0  0  0  0  0  0  0
   35.7510   18.5430   31.9070 N   0  0  0  0  0  0  0  0  0  0  0  0
   33.6880   18.9930   32.1080 H   0  0  0  0  0  0  0  0  0  0  0  0
   34.0730   21.4530   32.1520 H   0  0  0  0  0  0  0  0  0  0  0  0
   37.9000   18.4140   31.7080 H   0  0  0  0  0  0  0  0  0  0  0  0
   36.3760   28.3170   30.4470 O   0  0  0  0  0  0  0  0  0  0  0  0
   37.9800   27.8700   28.8870 N   0  0  0  0  0  0  0  0  0  0  0  0
   37.5070   28.9090   29.8240 C   0  0  1  0  0  0  0  0  0  0  0  0
   37.1580   30.1010   29.0580 C   0  0  0  0  0  0  0  0  0  0  0  0
   38.3290   30.6110   28.4680 O   0  0  0  0  0  0  0  0  0  0  0  0
   39.0220   29.7300   27.6910 C   0  0  0  0  0  0  0  0  0  0  0  0
   39.2120   28.3840   28.3350 C   0  0  2  0  0  0  0  0  0  0  0  0
   38.2660   27.0810   29.5330 H   0  0  0  0  0  0  0  0  0  0  0  0
   38.2990   29.1620   30.5470 H   0  0  0  0  0  0  0  0  0  0  0  0
   36.8710   30.9070   29.8000 H   0  0  0  0  0  0  0  0  0  0  0  0
   36.4460   30.1400   28.2800 H   0  0  0  0  0  0  0  0  0  0  0  0
   38.5700   29.5800   26.6680 H   0  0  0  0  0  0  0  0  0  0  0  0
   40.0410   30.1550   27.5650 H   0  0  0  0  0  0  0  0  0  0  0  0
   40.0120   28.3930   29.1040 H   0  0  0  0  0  0  0  0  0  0  0  0
   39.6470   27.3850   27.2670 C   0  0  0  0  0  2  0  0  0  0  0  0
   40.2800   26.1640   27.8470 C   0  0  0  0  0  2  0  0  0  0  0  0
   40.0390   25.9810   28.9130 H   0  0  0  0  0  0  0  0  0  0  0  0
  1  9  1  0  0  0  0
  1 10  1  0  0  0  0
  2  1  2  0  0  0  0
  3  4  2  0  0  0  0
  3  2  1  0  0  0  0
  4  8  1  0  0  0  0
  5  6  1  0  0  0  0
  5  4  1  0  0  0  0
  6  7  2  0  0  0  0
  7  8  1  0  0  0  0
  8  9  2  0  0  0  0
  9 13  1  0  0  0  0
 11  3  1  0  0  0  0
 12  5  1  0  0  0  0
 14 15  1  0  0  0  0
 14 20  1  0  0  0  0
 15 21  1  0  0  0  0
 16  2  1  0  0  0  0
 16 15  2  0  0  0  0
 17 16  1  0  0  0  0
 18 17  2  0  0  0  0
 18 19  1  0  0  0  0
 19 14  2  0  0  0  0
 22 18  1  0  0  0  0
 23  6  1  0  0  0  0
 24 30  1  0  0  0  0
 24 25  1  0  0  0  0
 25 23  1  0  0  0  0
 25 31  1  1  0  0  0
 26 32  1  0  0  0  0
 26 25  1  0  0  0  0
 27 26  1  0  0  0  0
 28 29  1  0  0  0  0
 28 27  1  0  0  0  0
 29 24  1  0  0  0  0
 29 36  1  1  0  0  0
 33 26  1  0  0  0  0
 34 28  1  0  0  0  0
 35 28  1  0  0  0  0
 37 38  1  0  0  0  0
 37 29  1  0  0  0  0
 38 39  1  0  0  0  0
M  END
>  <minimizedAffinity>
-5.11422443

$$$$
