
 OpenBabel03272510263D

 39 42  0  0  1  0  0  0  0  0999 V2000
   35.9230   30.1180   46.9770 C   0  0  0  0  0  0  0  0  0  0  0  0
   36.8740   30.6750   47.8280 C   0  0  0  0  0  0  0  0  0  0  0  0
   37.8490   31.5330   47.3450 C   0  0  0  0  0  0  0  0  0  0  0  0
   37.8270   31.8020   45.9810 C   0  0  0  0  0  0  0  0  0  0  0  0
   38.6740   32.6070   45.2780 N   0  0  0  0  0  0  0  0  0  0  0  0
   38.2660   32.5590   43.9990 C   0  0  0  0  0  0  0  0  0  0  0  0
   37.2200   31.7710   43.8830 N   0  0  0  0  0  0  0  0  0  0  0  0
   36.9040   31.2710   45.1030 C   0  0  0  0  0  0  0  0  0  0  0  0
   35.9280   30.4070   45.6180 C   0  0  0  0  0  0  0  0  0  0  0  0
   35.1330   29.4430   47.2770 H   0  0  0  0  0  0  0  0  0  0  0  0
   38.5820   31.9600   48.0120 H   0  0  0  0  0  0  0  0  0  0  0  0
   39.4880   33.1580   45.6620 H   0  0  0  0  0  0  0  0  0  0  0  0
   35.2070   29.9950   44.9200 H   0  0  0  0  0  0  0  0  0  0  0  0
   37.5890   30.1690   51.4760 C   0  0  0  0  0  0  0  0  0  0  0  0
   37.7740   30.5750   50.1660 C   0  0  0  0  0  0  0  0  0  0  0  0
   36.7860   30.3040   49.2260 C   0  0  0  0  0  0  0  0  0  0  0  0
   35.6720   29.6420   49.6550 N   0  0  0  0  0  0  0  0  0  0  0  0
   35.5000   29.2510   50.9330 C   0  0  0  0  0  0  0  0  0  0  0  0
   36.4520   29.5150   51.8260 N   0  0  0  0  0  0  0  0  0  0  0  0
   38.3520   30.3780   52.2030 H   0  0  0  0  0  0  0  0  0  0  0  0
   38.6640   31.0980   49.8400 H   0  0  0  0  0  0  0  0  0  0  0  0
   34.5610   28.7330   51.1260 H   0  0  0  0  0  0  0  0  0  0  0  0
   38.9240   33.2830   42.9920 O   0  0  0  0  0  0  0  0  0  0  0  0
   39.7020   31.1660   42.6420 N   0  0  0  0  0  0  0  0  0  0  0  0
   39.6260   32.5090   42.0300 C   0  0  1  0  0  0  0  0  0  0  0  0
   38.9030   32.4020   40.7670 C   0  0  0  0  0  0  0  0  0  0  0  0
   39.6600   31.6130   39.8830 O   0  0  0  0  0  0  0  0  0  0  0  0
   39.9940   30.3750   40.3470 C   0  0  0  0  0  0  0  0  0  0  0  0
   40.5310   30.3860   41.7520 C   0  0  2  0  0  0  0  0  0  0  0  0
   40.2920   31.3330   43.5060 H   0  0  0  0  0  0  0  0  0  0  0  0
   40.6380   32.8990   41.8360 H   0  0  0  0  0  0  0  0  0  0  0  0
   38.9220   33.4250   40.2800 H   0  0  0  0  0  0  0  0  0  0  0  0
   37.9200   32.0340   40.6550 H   0  0  0  0  0  0  0  0  0  0  0  0
   39.1490   29.6300   40.2900 H   0  0  0  0  0  0  0  0  0  0  0  0
   40.8260   30.0120   39.7050 H   0  0  0  0  0  0  0  0  0  0  0  0
   41.5860   30.7290   41.7980 H   0  0  0  0  0  0  0  0  0  0  0  0
   40.5140   28.9620   42.2970 C   0  0  0  0  0  2  0  0  0  0  0  0
   39.3300   28.6910   43.1630 C   0  0  0  0  0  2  0  0  0  0  0  0
   38.4810   29.3890   43.0160 H   0  0  0  0  0  0  0  0  0  0  0  0
  1 10  1  0  0  0  0
  1  2  1  0  0  0  0
  2 16  1  0  0  0  0
  3  2  2  0  0  0  0
  3 11  1  0  0  0  0
  4  3  1  0  0  0  0
  5 12  1  0  0  0  0
  5  4  1  0  0  0  0
  6  5  1  0  0  0  0
  7  6  2  0  0  0  0
  7  8  1  0  0  0  0
  8  9  1  0  0  0  0
  8  4  2  0  0  0  0
  9  1  2  0  0  0  0
 13  9  1  0  0  0  0
 14 19  1  0  0  0  0
 14 20  1  0  0  0  0
 15 14  2  0  0  0  0
 16 17  2  0  0  0  0
 16 15  1  0  0  0  0
 17 18  1  0  0  0  0
 18 22  1  0  0  0  0
 18 19  2  0  0  0  0
 21 15  1  0  0  0  0
 23  6  1  0  0  0  0
 24 30  1  0  0  0  0
 25 31  1  6  0  0  0
 25 24  1  0  0  0  0
 25 23  1  0  0  0  0
 26 25  1  0  0  0  0
 27 28  1  0  0  0  0
 27 26  1  0  0  0  0
 28 29  1  0  0  0  0
 29 36  1  1  0  0  0
 29 37  1  0  0  0  0
 29 24  1  0  0  0  0
 32 26  1  0  0  0  0
 33 26  1  0  0  0  0
 34 28  1  0  0  0  0
 35 28  1  0  0  0  0
 37 38  1  0  0  0  0
 39 38  1  0  0  0  0
M  END
>  <minimizedAffinity>
-5.53128195

>  <minimizedRMSD>
1.443174

$$$$
