
 OpenBabel03272508493D

 34 37  0  0  0  0  0  0  0  0999 V2000
   36.0570   28.4880   33.4150 C   0  0  0  0  0  0  0  0  0  0  0  0
   36.9000   28.3100   32.3340 C   0  0  0  0  0  0  0  0  0  0  0  0
   37.7320   27.2720   32.7390 C   0  0  0  0  0  0  0  0  0  0  0  0
   37.3710   26.8780   34.0020 C   0  0  0  0  0  0  0  0  0  0  0  0
   36.3620   27.6300   34.3760 O   0  0  0  0  0  0  0  0  0  0  0  0
   36.9140   28.8530   31.3850 H   0  0  0  0  0  0  0  0  0  0  0  0
   38.5260   26.8640   32.1290 H   0  0  0  0  0  0  0  0  0  0  0  0
   38.9060   24.9710   34.2130 C   0  0  0  0  0  0  0  0  0  0  0  0
   37.9810   25.8190   34.8030 C   0  0  0  0  0  0  0  0  0  0  0  0
   37.6150   25.6910   36.1420 C   0  0  0  0  0  0  0  0  0  0  0  0
   38.1820   24.6930   36.9200 C   0  0  0  0  0  0  0  0  0  0  0  0
   38.0450   24.3150   38.2090 N   0  0  0  0  0  0  0  0  0  0  0  0
   38.8510   23.2810   38.3990 N   0  0  0  0  0  0  0  0  0  0  0  0
   39.5070   22.9830   37.2540 C   0  0  0  0  0  0  0  0  0  0  0  0
   39.0890   23.8850   36.2860 C   0  0  0  0  0  0  0  0  0  0  0  0
   39.4950   23.9570   34.9670 C   0  0  0  0  0  0  0  0  0  0  0  0
   39.2020   25.0540   33.1770 H   0  0  0  0  0  0  0  0  0  0  0  0
   36.8930   26.3680   36.5680 H   0  0  0  0  0  0  0  0  0  0  0  0
   37.3930   24.8180   38.8510 H   0  0  0  0  0  0  0  0  0  0  0  0
   40.2290   22.1550   37.1880 H   0  0  0  0  0  0  0  0  0  0  0  0
   40.2110   23.2790   34.5610 H   0  0  0  0  0  0  0  0  0  0  0  0
   34.9920   29.4820   33.4700 C   0  0  0  0  0  0  0  0  0  0  0  0
   34.1840   29.5460   32.5280 O   0  0  0  0  0  0  0  0  0  0  0  0
   35.9640   31.9470   35.9730 C   0  0  0  0  0  0  0  0  0  0  0  0
   34.8470   32.0600   36.7760 C   0  0  0  0  0  0  0  0  0  0  0  0
   33.7430   31.3020   36.4830 C   0  0  0  0  0  0  0  0  0  0  0  0
   33.8000   30.4680   35.4070 N   0  0  0  0  0  0  0  0  0  0  0  0
   34.9070   30.3710   34.6290 C   0  0  0  0  0  0  0  0  0  0  0  0
   35.9740   31.1200   34.9340 N   0  0  0  0  0  0  0  0  0  0  0  0
   36.7880   32.5810   36.2760 H   0  0  0  0  0  0  0  0  0  0  0  0
   34.6800   32.6840   37.6550 H   0  0  0  0  0  0  0  0  0  0  0  0
   32.4220   31.2060   37.1440 C   0  0  0  0  0  2  0  0  0  0  0  0
   31.8300   29.8020   36.9690 C   0  0  0  0  0  2  0  0  0  0  0  0
   31.4570   29.7100   35.9430 H   0  0  0  0  0  0  0  0  0  0  0  0
  1 22  1  0  0  0  0
  1  5  1  0  0  0  0
  2  3  1  0  0  0  0
  2  1  2  0  0  0  0
  3  4  2  0  0  0  0
  4  5  1  0  0  0  0
  4  9  1  0  0  0  0
  6  2  1  0  0  0  0
  7  3  1  0  0  0  0
  8  9  2  0  0  0  0
  8 16  1  0  0  0  0
  9 10  1  0  0  0  0
 10 18  1  0  0  0  0
 10 11  2  0  0  0  0
 11 12  1  0  0  0  0
 12 13  1  0  0  0  0
 12 19  1  0  0  0  0
 14 13  2  0  0  0  0
 15 11  1  0  0  0  0
 15 14  1  0  0  0  0
 16 15  2  0  0  0  0
 17  8  1  0  0  0  0
 20 14  1  0  0  0  0
 21 16  1  0  0  0  0
 22 28  1  0  0  0  0
 23 22  2  0  0  0  0
 24 30  1  0  0  0  0
 24 25  1  0  0  0  0
 25 31  1  0  0  0  0
 26 25  2  0  0  0  0
 26 32  1  0  0  0  0
 27 26  1  0  0  0  0
 28 29  1  0  0  0  0
 28 27  2  0  0  0  0
 29 24  2  0  0  0  0
 33 32  1  0  0  0  0
 34 33  1  0  0  0  0
M  END
>  <minimizedAffinity>
-6.0650897

$$$$

 OpenBabel03272508493D

 34 37  0  0  0  0  0  0  0  0999 V2000
   38.2630   24.5590   35.4870 C   0  0  0  0  0  0  0  0  0  0  0  0
   38.5010   25.4530   36.5140 C   0  0  0  0  0  0  0  0  0  0  0  0
   38.1090   26.6740   35.9800 C   0  0  0  0  0  0  0  0  0  0  0  0
   37.6660   26.4780   34.6970 C   0  0  0  0  0  0  0  0  0  0  0  0
   37.7730   25.1960   34.4350 O   0  0  0  0  0  0  0  0  0  0  0  0
   38.9020   25.2520   37.5120 H   0  0  0  0  0  0  0  0  0  0  0  0
   38.1590   27.6110   36.5180 H   0  0  0  0  0  0  0  0  0  0  0  0
   36.2340   28.4180   34.2240 C   0  0  0  0  0  0  0  0  0  0  0  0
   37.1620   27.4920   33.7730 C   0  0  0  0  0  0  0  0  0  0  0  0
   37.6310   27.5010   32.4600 C   0  0  0  0  0  0  0  0  0  0  0  0
   37.1660   28.4550   31.5680 C   0  0  0  0  0  0  0  0  0  0  0  0
   37.4140   28.7240   30.2680 N   0  0  0  0  0  0  0  0  0  0  0  0
   36.6700   29.7700   29.9380 N   0  0  0  0  0  0  0  0  0  0  0  0
   35.9440   30.1810   31.0030 C   0  0  0  0  0  0  0  0  0  0  0  0
   36.2510   29.3440   32.0670 C   0  0  0  0  0  0  0  0  0  0  0  0
   35.7460   29.3900   33.3530 C   0  0  0  0  0  0  0  0  0  0  0  0
   35.8580   28.4270   35.2380 H   0  0  0  0  0  0  0  0  0  0  0  0
   38.3530   26.7670   32.1440 H   0  0  0  0  0  0  0  0  0  0  0  0
   38.0890   28.1480   29.7180 H   0  0  0  0  0  0  0  0  0  0  0  0
   35.2550   31.0370   30.9510 H   0  0  0  0  0  0  0  0  0  0  0  0
   35.0320   30.1250   33.6490 H   0  0  0  0  0  0  0  0  0  0  0  0
   38.5220   23.1260   35.5680 C   0  0  0  0  0  0  0  0  0  0  0  0
   39.5890   22.7390   36.0730 O   0  0  0  0  0  0  0  0  0  0  0  0
   35.7640   20.7430   35.5300 C   0  0  0  0  0  0  0  0  0  0  0  0
   35.6170   20.4310   34.1930 C   0  0  0  0  0  0  0  0  0  0  0  0
   36.4500   21.0240   33.2800 C   0  0  0  0  0  0  0  0  0  0  0  0
   37.3900   21.8980   33.7370 N   0  0  0  0  0  0  0  0  0  0  0  0
   37.5200   22.1920   35.0550 C   0  0  0  0  0  0  0  0  0  0  0  0
   36.6950   21.6010   35.9280 N   0  0  0  0  0  0  0  0  0  0  0  0
   35.0650   20.2310   36.1790 H   0  0  0  0  0  0  0  0  0  0  0  0
   34.9110   19.7550   33.7080 H   0  0  0  0  0  0  0  0  0  0  0  0
   36.5350   20.8940   31.8090 C   0  0  0  0  0  2  0  0  0  0  0  0
   35.5860   21.8840   31.1210 C   0  0  0  0  0  2  0  0  0  0  0  0
   34.5630   21.5040   31.2170 H   0  0  0  0  0  0  0  0  0  0  0  0
  1 22  1  0  0  0  0
  1  2  2  0  0  0  0
  2  6  1  0  0  0  0
  3  2  1  0  0  0  0
  3  7  1  0  0  0  0
  4  3  2  0  0  0  0
  5  4  1  0  0  0  0
  5  1  1  0  0  0  0
  8 17  1  0  0  0  0
  9  8  1  0  0  0  0
  9  4  1  0  0  0  0
 10  9  2  0  0  0  0
 11 15  2  0  0  0  0
 11 10  1  0  0  0  0
 12 11  1  0  0  0  0
 13 12  1  0  0  0  0
 13 14  2  0  0  0  0
 14 15  1  0  0  0  0
 15 16  1  0  0  0  0
 16 21  1  0  0  0  0
 16  8  2  0  0  0  0
 18 10  1  0  0  0  0
 19 12  1  0  0  0  0
 20 14  1  0  0  0  0
 22 23  2  0  0  0  0
 24 29  1  0  0  0  0
 24 30  1  0  0  0  0
 25 24  2  0  0  0  0
 26 27  2  0  0  0  0
 26 25  1  0  0  0  0
 27 28  1  0  0  0  0
 28 22  1  0  0  0  0
 28 29  2  0  0  0  0
 31 25  1  0  0  0  0
 32 26  1  0  0  0  0
 33 34  1  0  0  0  0
 33 32  1  0  0  0  0
M  END
>  <minimizedAffinity>
-5.98905945

$$$$

 OpenBabel03272508493D

 34 37  0  0  0  0  0  0  0  0999 V2000
   36.8920   28.1110   32.4930 C   0  0  0  0  0  0  0  0  0  0  0  0
   37.9690   27.8640   31.6630 C   0  0  0  0  0  0  0  0  0  0  0  0
   38.6770   26.8740   32.3340 C   0  0  0  0  0  0  0  0  0  0  0  0
   38.0240   26.5730   33.5020 C   0  0  0  0  0  0  0  0  0  0  0  0
   36.9570   27.3350   33.5640 O   0  0  0  0  0  0  0  0  0  0  0  0
   38.2110   28.3320   30.7040 H   0  0  0  0  0  0  0  0  0  0  0  0
   39.5940   26.4330   31.9660 H   0  0  0  0  0  0  0  0  0  0  0  0
   39.3560   24.6200   34.1730 C   0  0  0  0  0  0  0  0  0  0  0  0
   38.4220   25.5890   34.5060 C   0  0  0  0  0  0  0  0  0  0  0  0
   37.8510   25.6530   35.7760 C   0  0  0  0  0  0  0  0  0  0  0  0
   38.2150   24.7290   36.7440 C   0  0  0  0  0  0  0  0  0  0  0  0
   37.8570   24.5260   38.0300 N   0  0  0  0  0  0  0  0  0  0  0  0
   38.5420   23.4780   38.4640 N   0  0  0  0  0  0  0  0  0  0  0  0
   39.3370   23.0000   37.4800 C   0  0  0  0  0  0  0  0  0  0  0  0
   39.1410   23.7950   36.3600 C   0  0  0  0  0  0  0  0  0  0  0  0
   39.7440   23.6770   35.1220 C   0  0  0  0  0  0  0  0  0  0  0  0
   39.8100   24.5540   33.1930 H   0  0  0  0  0  0  0  0  0  0  0  0
   37.1280   26.4200   36.0010 H   0  0  0  0  0  0  0  0  0  0  0  0
   37.1570   25.1440   38.4980 H   0  0  0  0  0  0  0  0  0  0  0  0
   39.9940   22.1290   37.6250 H   0  0  0  0  0  0  0  0  0  0  0  0
   40.4580   22.9110   34.9160 H   0  0  0  0  0  0  0  0  0  0  0  0
   35.8470   29.0880   32.2140 C   0  0  0  0  0  0  0  0  0  0  0  0
   35.6470   29.4300   31.0360 O   0  0  0  0  0  0  0  0  0  0  0  0
   33.0080   29.7790   34.3920 C   0  0  0  0  0  0  0  0  0  0  0  0
   33.5310   30.6080   35.3650 C   0  0  0  0  0  0  0  0  0  0  0  0
   34.8580   30.9460   35.2990 C   0  0  0  0  0  0  0  0  0  0  0  0
   35.6010   30.4480   34.2720 N   0  0  0  0  0  0  0  0  0  0  0  0
   35.0690   29.6350   33.3260 C   0  0  0  0  0  0  0  0  0  0  0  0
   33.7710   29.3170   33.4100 N   0  0  0  0  0  0  0  0  0  0  0  0
   31.9540   29.5630   34.5210 H   0  0  0  0  0  0  0  0  0  0  0  0
   33.0450   31.0660   36.2260 H   0  0  0  0  0  0  0  0  0  0  0  0
   35.6910   31.7980   36.1770 C   0  0  0  0  0  2  0  0  0  0  0  0
   36.4400   32.8540   35.3550 C   0  0  0  0  0  2  0  0  0  0  0  0
   37.2730   32.3630   34.8390 H   0  0  0  0  0  0  0  0  0  0  0  0
  1  5  1  0  0  0  0
  2  3  1  0  0  0  0
  2  1  2  0  0  0  0
  3  4  2  0  0  0  0
  4  5  1  0  0  0  0
  4  9  1  0  0  0  0
  6  2  1  0  0  0  0
  7  3  1  0  0  0  0
  8  9  2  0  0  0  0
  8 16  1  0  0  0  0
  9 10  1  0  0  0  0
 10 18  1  0  0  0  0
 10 11  2  0  0  0  0
 11 12  1  0  0  0  0
 12 13  1  0  0  0  0
 12 19  1  0  0  0  0
 14 20  1  0  0  0  0
 14 13  2  0  0  0  0
 15 11  1  0  0  0  0
 15 14  1  0  0  0  0
 16 15  2  0  0  0  0
 17  8  1  0  0  0  0
 21 16  1  0  0  0  0
 22  1  1  0  0  0  0
 22 28  1  0  0  0  0
 23 22  2  0  0  0  0
 24 30  1  0  0  0  0
 24 25  1  0  0  0  0
 25 31  1  0  0  0  0
 26 25  2  0  0  0  0
 26 32  1  0  0  0  0
 27 26  1  0  0  0  0
 28 29  1  0  0  0  0
 28 27  2  0  0  0  0
 29 24  2  0  0  0  0
 33 32  1  0  0  0  0
 34 33  1  0  0  0  0
M  END
>  <minimizedAffinity>
-5.9065423

$$$$

 OpenBabel03272508493D

 34 37  0  0  0  0  0  0  0  0999 V2000
   37.2730   27.5190   33.5890 C   0  0  0  0  0  0  0  0  0  0  0  0
   36.4560   27.6770   32.4850 C   0  0  0  0  0  0  0  0  0  0  0  0
   35.5570   28.6590   32.8830 C   0  0  0  0  0  0  0  0  0  0  0  0
   35.8550   29.0430   34.1650 C   0  0  0  0  0  0  0  0  0  0  0  0
   36.8900   28.3370   34.5580 O   0  0  0  0  0  0  0  0  0  0  0  0
   36.5020   27.1550   31.5240 H   0  0  0  0  0  0  0  0  0  0  0  0
   34.7610   29.0380   32.2550 H   0  0  0  0  0  0  0  0  0  0  0  0
   35.9060   31.0060   35.6420 C   0  0  0  0  0  0  0  0  0  0  0  0
   35.1630   30.0490   34.9680 C   0  0  0  0  0  0  0  0  0  0  0  0
   33.7710   30.0200   35.0320 C   0  0  0  0  0  0  0  0  0  0  0  0
   33.0950   30.9660   35.7880 C   0  0  0  0  0  0  0  0  0  0  0  0
   31.7910   31.2020   36.0480 N   0  0  0  0  0  0  0  0  0  0  0  0
   31.7390   32.2580   36.8470 N   0  0  0  0  0  0  0  0  0  0  0  0
   32.9870   32.7080   37.1080 C   0  0  0  0  0  0  0  0  0  0  0  0
   33.8780   31.8870   36.4320 C   0  0  0  0  0  0  0  0  0  0  0  0
   35.2570   31.9720   36.4100 C   0  0  0  0  0  0  0  0  0  0  0  0
   36.9860   31.0450   35.6040 H   0  0  0  0  0  0  0  0  0  0  0  0
   33.2250   29.2620   34.4950 H   0  0  0  0  0  0  0  0  0  0  0  0
   31.0420   30.5990   35.6400 H   0  0  0  0  0  0  0  0  0  0  0  0
   33.1760   33.5800   37.7530 H   0  0  0  0  0  0  0  0  0  0  0  0
   35.7820   32.7290   36.9480 H   0  0  0  0  0  0  0  0  0  0  0  0
   38.3870   26.5830   33.6600 C   0  0  0  0  0  0  0  0  0  0  0  0
   39.4550   26.8800   33.0960 O   0  0  0  0  0  0  0  0  0  0  0  0
   38.0000   23.0130   34.2840 C   0  0  0  0  0  0  0  0  0  0  0  0
   37.8970   22.9280   35.6580 C   0  0  0  0  0  0  0  0  0  0  0  0
   37.9580   24.0800   36.3980 C   0  0  0  0  0  0  0  0  0  0  0  0
   38.1170   25.2620   35.7390 N   0  0  0  0  0  0  0  0  0  0  0  0
   38.2170   25.3260   34.3880 C   0  0  0  0  0  0  0  0  0  0  0  0
   38.1540   24.1880   33.6860 N   0  0  0  0  0  0  0  0  0  0  0  0
   37.9420   22.0560   33.7800 H   0  0  0  0  0  0  0  0  0  0  0  0
   37.7690   22.0520   36.2950 H   0  0  0  0  0  0  0  0  0  0  0  0
   37.8800   24.3070   37.8590 C   0  0  0  0  0  2  0  0  0  0  0  0
   38.8590   23.3890   38.6020 C   0  0  0  0  0  2  0  0  0  0  0  0
   38.4400   22.3770   38.6160 H   0  0  0  0  0  0  0  0  0  0  0  0
  1 22  1  0  0  0  0
  1  5  1  0  0  0  0
  2  3  1  0  0  0  0
  2  1  2  0  0  0  0
  3  4  2  0  0  0  0
  4  5  1  0  0  0  0
  4  9  1  0  0  0  0
  6  2  1  0  0  0  0
  7  3  1  0  0  0  0
  8 16  1  0  0  0  0
  9 10  1  0  0  0  0
  9  8  2  0  0  0  0
 10 11  2  0  0  0  0
 11 12  1  0  0  0  0
 11 15  1  0  0  0  0
 12 13  1  0  0  0  0
 13 14  2  0  0  0  0
 14 20  1  0  0  0  0
 15 14  1  0  0  0  0
 16 15  2  0  0  0  0
 16 21  1  0  0  0  0
 17  8  1  0  0  0  0
 18 10  1  0  0  0  0
 19 12  1  0  0  0  0
 22 28  1  0  0  0  0
 23 22  2  0  0  0  0
 24 25  1  0  0  0  0
 25 31  1  0  0  0  0
 25 26  2  0  0  0  0
 26 32  1  0  0  0  0
 27 26  1  0  0  0  0
 28 27  2  0  0  0  0
 29 24  2  0  0  0  0
 29 28  1  0  0  0  0
 30 24  1  0  0  0  0
 32 33  1  0  0  0  0
 33 34  1  0  0  0  0
M  END
>  <minimizedAffinity>
-5.88624859

$$$$

 OpenBabel03272508493D

 34 37  0  0  0  0  0  0  0  0999 V2000
   37.6970   26.1970   34.8930 C   0  0  0  0  0  0  0  0  0  0  0  0
   38.3130   27.1700   35.6570 C   0  0  0  0  0  0  0  0  0  0  0  0
   37.6130   28.3270   35.3360 C   0  0  0  0  0  0  0  0  0  0  0  0
   36.6360   28.0190   34.4250 C   0  0  0  0  0  0  0  0  0  0  0  0
   36.7160   26.7320   34.1810 O   0  0  0  0  0  0  0  0  0  0  0  0
   39.1530   27.0610   36.3500 H   0  0  0  0  0  0  0  0  0  0  0  0
   37.8310   29.3000   35.7580 H   0  0  0  0  0  0  0  0  0  0  0  0
   34.5570   29.3240   34.5500 C   0  0  0  0  0  0  0  0  0  0  0  0
   35.6720   28.9370   33.8210 C   0  0  0  0  0  0  0  0  0  0  0  0
   35.9010   29.4000   32.5270 C   0  0  0  0  0  0  0  0  0  0  0  0
   34.9980   30.2720   31.9360 C   0  0  0  0  0  0  0  0  0  0  0  0
   34.9340   30.8830   30.7340 N   0  0  0  0  0  0  0  0  0  0  0  0
   33.8280   31.6120   30.7270 N   0  0  0  0  0  0  0  0  0  0  0  0
   33.1750   31.4820   31.9050 C   0  0  0  0  0  0  0  0  0  0  0  0
   33.9170   30.6200   32.7010 C   0  0  0  0  0  0  0  0  0  0  0  0
   33.6310   30.1990   33.9860 C   0  0  0  0  0  0  0  0  0  0  0  0
   34.3630   28.9750   35.5550 H   0  0  0  0  0  0  0  0  0  0  0  0
   36.7780   29.0790   31.9900 H   0  0  0  0  0  0  0  0  0  0  0  0
   35.6760   30.7370   30.0140 H   0  0  0  0  0  0  0  0  0  0  0  0
   32.2290   32.0040   32.1150 H   0  0  0  0  0  0  0  0  0  0  0  0
   32.7580   30.5270   34.5030 H   0  0  0  0  0  0  0  0  0  0  0  0
   38.0830   24.7920   34.8850 C   0  0  0  0  0  0  0  0  0  0  0  0
   38.0620   24.1720   33.8070 O   0  0  0  0  0  0  0  0  0  0  0  0
   38.0280   23.8080   38.3940 C   0  0  0  0  0  0  0  0  0  0  0  0
   39.1470   23.0110   38.5310 C   0  0  0  0  0  0  0  0  0  0  0  0
   39.9410   22.7930   37.4340 C   0  0  0  0  0  0  0  0  0  0  0  0
   39.5870   23.3760   36.2560 N   0  0  0  0  0  0  0  0  0  0  0  0
   38.4830   24.1560   36.1400 C   0  0  0  0  0  0  0  0  0  0  0  0
   37.7220   24.3550   37.2240 N   0  0  0  0  0  0  0  0  0  0  0  0
   37.4600   23.9260   39.3080 H   0  0  0  0  0  0  0  0  0  0  0  0
   39.5330   22.4950   39.4110 H   0  0  0  0  0  0  0  0  0  0  0  0
   41.1810   22.0030   37.2700 C   0  0  0  0  0  2  0  0  0  0  0  0
   42.2740   22.8420   36.5960 C   0  0  0  0  0  2  0  0  0  0  0  0
   42.0400   22.9200   35.5290 H   0  0  0  0  0  0  0  0  0  0  0  0
  1  2  2  0  0  0  0
  2  6  1  0  0  0  0
  3  2  1  0  0  0  0
  3  7  1  0  0  0  0
  4  3  2  0  0  0  0
  5  4  1  0  0  0  0
  5  1  1  0  0  0  0
  8 17  1  0  0  0  0
  9  4  1  0  0  0  0
  9  8  2  0  0  0  0
 10  9  1  0  0  0  0
 11 10  2  0  0  0  0
 11 15  1  0  0  0  0
 12 11  1  0  0  0  0
 13 12  1  0  0  0  0
 13 14  2  0  0  0  0
 14 20  1  0  0  0  0
 14 15  1  0  0  0  0
 15 16  2  0  0  0  0
 16 21  1  0  0  0  0
 16  8  1  0  0  0  0
 18 10  1  0  0  0  0
 19 12  1  0  0  0  0
 22  1  1  0  0  0  0
 22 28  1  0  0  0  0
 23 22  2  0  0  0  0
 24 25  1  0  0  0  0
 24 30  1  0  0  0  0
 25 31  1  0  0  0  0
 26 25  2  0  0  0  0
 27 26  1  0  0  0  0
 28 27  2  0  0  0  0
 28 29  1  0  0  0  0
 29 24  2  0  0  0  0
 32 26  1  0  0  0  0
 33 32  1  0  0  0  0
 34 33  1  0  0  0  0
M  END
>  <minimizedAffinity>
-5.85763836

$$$$

 OpenBabel03272508493D

 34 37  0  0  0  0  0  0  0  0999 V2000
   36.1760   28.6570   33.5020 C   0  0  0  0  0  0  0  0  0  0  0  0
   36.7810   28.2720   32.3210 C   0  0  0  0  0  0  0  0  0  0  0  0
   37.5290   27.1580   32.6860 C   0  0  0  0  0  0  0  0  0  0  0  0
   37.3530   26.9230   34.0250 C   0  0  0  0  0  0  0  0  0  0  0  0
   36.5350   27.8430   34.4830 O   0  0  0  0  0  0  0  0  0  0  0  0
   36.6950   28.7300   31.3310 H   0  0  0  0  0  0  0  0  0  0  0  0
   38.1400   26.5910   31.9970 H   0  0  0  0  0  0  0  0  0  0  0  0
   38.8670   24.9980   34.2220 C   0  0  0  0  0  0  0  0  0  0  0  0
   37.9530   25.8530   34.8190 C   0  0  0  0  0  0  0  0  0  0  0  0
   37.5890   25.7210   36.1580 C   0  0  0  0  0  0  0  0  0  0  0  0
   38.1480   24.7120   36.9280 C   0  0  0  0  0  0  0  0  0  0  0  0
   38.0090   24.3280   38.2150 N   0  0  0  0  0  0  0  0  0  0  0  0
   38.8040   23.2840   38.3980 N   0  0  0  0  0  0  0  0  0  0  0  0
   39.4550   22.9860   37.2500 C   0  0  0  0  0  0  0  0  0  0  0  0
   39.0440   23.8980   36.2880 C   0  0  0  0  0  0  0  0  0  0  0  0
   39.4470   23.9740   34.9680 C   0  0  0  0  0  0  0  0  0  0  0  0
   39.1620   25.0850   33.1850 H   0  0  0  0  0  0  0  0  0  0  0  0
   36.8760   26.4030   36.5900 H   0  0  0  0  0  0  0  0  0  0  0  0
   37.3640   24.8340   38.8620 H   0  0  0  0  0  0  0  0  0  0  0  0
   40.1680   22.1510   37.1770 H   0  0  0  0  0  0  0  0  0  0  0  0
   40.1550   23.2900   34.5570 H   0  0  0  0  0  0  0  0  0  0  0  0
   35.2780   29.7980   33.6320 C   0  0  0  0  0  0  0  0  0  0  0  0
   35.7400   30.9430   33.4830 O   0  0  0  0  0  0  0  0  0  0  0  0
   31.7790   28.9000   33.1490 C   0  0  0  0  0  0  0  0  0  0  0  0
   31.2140   29.0940   34.3930 C   0  0  0  0  0  0  0  0  0  0  0  0
   32.0100   29.5320   35.4190 C   0  0  0  0  0  0  0  0  0  0  0  0
   33.3280   29.7580   35.1610 N   0  0  0  0  0  0  0  0  0  0  0  0
   33.8660   29.5620   33.9320 C   0  0  0  0  0  0  0  0  0  0  0  0
   33.0700   29.1330   32.9440 N   0  0  0  0  0  0  0  0  0  0  0  0
   31.0790   28.5530   32.3980 H   0  0  0  0  0  0  0  0  0  0  0  0
   30.1840   28.9500   34.7210 H   0  0  0  0  0  0  0  0  0  0  0  0
   31.7010   29.8260   36.8360 C   0  0  0  0  0  2  0  0  0  0  0  0
   31.4280   28.5310   37.6110 C   0  0  0  0  0  2  0  0  0  0  0  0
   30.4280   28.1720   37.3420 H   0  0  0  0  0  0  0  0  0  0  0  0
  1 22  1  0  0  0  0
  1  5  1  0  0  0  0
  2  3  1  0  0  0  0
  2  1  2  0  0  0  0
  3  4  2  0  0  0  0
  4  5  1  0  0  0  0
  4  9  1  0  0  0  0
  6  2  1  0  0  0  0
  7  3  1  0  0  0  0
  8  9  2  0  0  0  0
  8 16  1  0  0  0  0
  9 10  1  0  0  0  0
 10 18  1  0  0  0  0
 10 11  2  0  0  0  0
 11 12  1  0  0  0  0
 12 13  1  0  0  0  0
 12 19  1  0  0  0  0
 14 13  2  0  0  0  0
 15 11  1  0  0  0  0
 15 14  1  0  0  0  0
 16 15  2  0  0  0  0
 17  8  1  0  0  0  0
 20 14  1  0  0  0  0
 21 16  1  0  0  0  0
 22 28  1  0  0  0  0
 23 22  2  0  0  0  0
 24 25  1  0  0  0  0
 25 31  1  0  0  0  0
 25 26  2  0  0  0  0
 26 32  1  0  0  0  0
 27 26  1  0  0  0  0
 28 27  2  0  0  0  0
 29 24  2  0  0  0  0
 29 28  1  0  0  0  0
 30 24  1  0  0  0  0
 32 33  1  0  0  0  0
 34 33  1  0  0  0  0
M  END
>  <minimizedAffinity>
-5.81432581

$$$$

 OpenBabel03272508493D

 34 37  0  0  0  0  0  0  0  0999 V2000
   38.0800   25.1570   33.7360 C   0  0  0  0  0  0  0  0  0  0  0  0
   39.1410   25.7070   33.0430 C   0  0  0  0  0  0  0  0  0  0  0  0
   38.6990   26.9870   32.7310 C   0  0  0  0  0  0  0  0  0  0  0  0
   37.4330   27.1550   33.2320 C   0  0  0  0  0  0  0  0  0  0  0  0
   37.0930   26.0360   33.8280 O   0  0  0  0  0  0  0  0  0  0  0  0
   40.1030   25.2480   32.7940 H   0  0  0  0  0  0  0  0  0  0  0  0
   39.2850   27.7110   32.1820 H   0  0  0  0  0  0  0  0  0  0  0  0
   36.5020   29.0110   31.9170 C   0  0  0  0  0  0  0  0  0  0  0  0
   36.5970   28.3490   33.1320 C   0  0  0  0  0  0  0  0  0  0  0  0
   35.9150   28.7920   34.2650 C   0  0  0  0  0  0  0  0  0  0  0  0
   35.1160   29.9230   34.1920 C   0  0  0  0  0  0  0  0  0  0  0  0
   34.3490   30.5890   35.0810 N   0  0  0  0  0  0  0  0  0  0  0  0
   33.8080   31.6140   34.4380 N   0  0  0  0  0  0  0  0  0  0  0  0
   34.2140   31.6210   33.1470 C   0  0  0  0  0  0  0  0  0  0  0  0
   35.0590   30.5350   32.9680 C   0  0  0  0  0  0  0  0  0  0  0  0
   35.7070   30.1510   31.8100 C   0  0  0  0  0  0  0  0  0  0  0  0
   37.0230   28.6830   31.0280 H   0  0  0  0  0  0  0  0  0  0  0  0
   36.0110   28.2530   35.1930 H   0  0  0  0  0  0  0  0  0  0  0  0
   34.2680   30.2670   36.0710 H   0  0  0  0  0  0  0  0  0  0  0  0
   33.8830   32.3890   32.4310 H   0  0  0  0  0  0  0  0  0  0  0  0
   35.6010   30.6960   30.8990 H   0  0  0  0  0  0  0  0  0  0  0  0
   38.0660   23.8050   34.2790 C   0  0  0  0  0  0  0  0  0  0  0  0
   37.7350   22.8650   33.5360 O   0  0  0  0  0  0  0  0  0  0  0  0
   37.9640   24.0020   37.9170 C   0  0  0  0  0  0  0  0  0  0  0  0
   39.0580   23.2630   38.3190 C   0  0  0  0  0  0  0  0  0  0  0  0
   39.8510   22.6840   37.3620 C   0  0  0  0  0  0  0  0  0  0  0  0
   39.5200   22.8660   36.0530 N   0  0  0  0  0  0  0  0  0  0  0  0
   38.4400   23.5950   35.6780 C   0  0  0  0  0  0  0  0  0  0  0  0
   37.6800   24.1520   36.6290 N   0  0  0  0  0  0  0  0  0  0  0  0
   37.3940   24.4220   38.7370 H   0  0  0  0  0  0  0  0  0  0  0  0
   39.4240   23.0470   39.3230 H   0  0  0  0  0  0  0  0  0  0  0  0
   41.0680   21.8500   37.4780 C   0  0  0  0  0  2  0  0  0  0  0  0
   42.2150   22.4470   36.6520 C   0  0  0  0  0  2  0  0  0  0  0  0
   42.0250   22.2340   35.5940 H   0  0  0  0  0  0  0  0  0  0  0  0
  1  5  1  0  0  0  0
  1 22  1  0  0  0  0
  2  1  2  0  0  0  0
  3  2  1  0  0  0  0
  3  4  2  0  0  0  0
  4  5  1  0  0  0  0
  6  2  1  0  0  0  0
  7  3  1  0  0  0  0
  8  9  1  0  0  0  0
  9  4  1  0  0  0  0
  9 10  2  0  0  0  0
 10 18  1  0  0  0  0
 11 10  1  0  0  0  0
 11 12  1  0  0  0  0
 12 19  1  0  0  0  0
 13 12  1  0  0  0  0
 14 13  2  0  0  0  0
 15 14  1  0  0  0  0
 15 11  2  0  0  0  0
 16  8  2  0  0  0  0
 16 15  1  0  0  0  0
 17  8  1  0  0  0  0
 20 14  1  0  0  0  0
 21 16  1  0  0  0  0
 22 28  1  0  0  0  0
 23 22  2  0  0  0  0
 24 25  1  0  0  0  0
 24 30  1  0  0  0  0
 25 31  1  0  0  0  0
 26 32  1  0  0  0  0
 26 25  2  0  0  0  0
 27 26  1  0  0  0  0
 28 27  2  0  0  0  0
 28 29  1  0  0  0  0
 29 24  2  0  0  0  0
 33 32  1  0  0  0  0
 34 33  1  0  0  0  0
M  END
>  <minimizedAffinity>
-5.80741024

$$$$

 OpenBabel03272508493D

 34 37  0  0  0  0  0  0  0  0999 V2000
   38.2690   24.9420   33.5990 C   0  0  0  0  0  0  0  0  0  0  0  0
   39.3890   25.6120   33.1450 C   0  0  0  0  0  0  0  0  0  0  0  0
   38.9230   26.8980   32.9010 C   0  0  0  0  0  0  0  0  0  0  0  0
   37.5870   26.9530   33.2060 C   0  0  0  0  0  0  0  0  0  0  0  0
   37.2280   25.7610   33.6210 O   0  0  0  0  0  0  0  0  0  0  0  0
   40.4040   25.2260   33.0090 H   0  0  0  0  0  0  0  0  0  0  0  0
   39.5420   27.7030   32.5300 H   0  0  0  0  0  0  0  0  0  0  0  0
   36.1110   28.6220   34.2430 C   0  0  0  0  0  0  0  0  0  0  0  0
   36.7050   28.1130   33.0980 C   0  0  0  0  0  0  0  0  0  0  0  0
   36.4850   28.6780   31.8430 C   0  0  0  0  0  0  0  0  0  0  0  0
   35.6520   29.7800   31.7180 C   0  0  0  0  0  0  0  0  0  0  0  0
   35.2460   30.5360   30.6760 N   0  0  0  0  0  0  0  0  0  0  0  0
   34.4380   31.4680   31.1630 N   0  0  0  0  0  0  0  0  0  0  0  0
   34.3150   31.3260   32.5030 C   0  0  0  0  0  0  0  0  0  0  0  0
   35.0930   30.2410   32.8810 C   0  0  0  0  0  0  0  0  0  0  0  0
   35.2690   29.7290   34.1530 C   0  0  0  0  0  0  0  0  0  0  0  0
   36.2700   28.1980   35.2250 H   0  0  0  0  0  0  0  0  0  0  0  0
   36.9630   28.2570   30.9740 H   0  0  0  0  0  0  0  0  0  0  0  0
   35.5710   30.3340   29.7040 H   0  0  0  0  0  0  0  0  0  0  0  0
   33.6890   31.9960   33.1110 H   0  0  0  0  0  0  0  0  0  0  0  0
   34.7880   30.1580   35.0030 H   0  0  0  0  0  0  0  0  0  0  0  0
   38.2530   23.5380   33.9900 C   0  0  0  0  0  0  0  0  0  0  0  0
   37.5540   22.7430   33.3380 O   0  0  0  0  0  0  0  0  0  0  0  0
   40.9640   22.0150   35.8910 C   0  0  0  0  0  0  0  0  0  0  0  0
   40.6250   22.2630   37.2060 C   0  0  0  0  0  0  0  0  0  0  0  0
   39.4700   22.9520   37.4720 C   0  0  0  0  0  0  0  0  0  0  0  0
   38.7070   23.3610   36.4200 N   0  0  0  0  0  0  0  0  0  0  0  0
   39.0560   23.1090   35.1350 C   0  0  0  0  0  0  0  0  0  0  0  0
   40.1890   22.4340   34.8990 N   0  0  0  0  0  0  0  0  0  0  0  0
   41.8900   21.4670   35.7730 H   0  0  0  0  0  0  0  0  0  0  0  0
   41.1460   21.9900   38.1240 H   0  0  0  0  0  0  0  0  0  0  0  0
   38.8520   23.3630   38.7520 C   0  0  0  0  0  2  0  0  0  0  0  0
   37.9010   24.5470   38.5400 C   0  0  0  0  0  2  0  0  0  0  0  0
   38.5020   25.4520   38.4020 H   0  0  0  0  0  0  0  0  0  0  0  0
  1  5  1  0  0  0  0
  1 22  1  0  0  0  0
  2  1  2  0  0  0  0
  3  2  1  0  0  0  0
  3  4  2  0  0  0  0
  4  5  1  0  0  0  0
  6  2  1  0  0  0  0
  7  3  1  0  0  0  0
  8 17  1  0  0  0  0
  9  4  1  0  0  0  0
  9  8  2  0  0  0  0
 10  9  1  0  0  0  0
 11 10  2  0  0  0  0
 11 15  1  0  0  0  0
 12 13  1  0  0  0  0
 12 11  1  0  0  0  0
 13 14  2  0  0  0  0
 14 15  1  0  0  0  0
 14 20  1  0  0  0  0
 15 16  2  0  0  0  0
 16  8  1  0  0  0  0
 16 21  1  0  0  0  0
 18 10  1  0  0  0  0
 19 12  1  0  0  0  0
 22 28  1  0  0  0  0
 23 22  2  0  0  0  0
 24 25  1  0  0  0  0
 25 26  2  0  0  0  0
 25 31  1  0  0  0  0
 26 32  1  0  0  0  0
 27 26  1  0  0  0  0
 28 27  2  0  0  0  0
 29 28  1  0  0  0  0
 29 24  2  0  0  0  0
 30 24  1  0  0  0  0
 33 32  1  0  0  0  0
 34 33  1  0  0  0  0
M  END
>  <minimizedAffinity>
-5.78703499

$$$$

 OpenBabel03272508493D

 34 37  0  0  0  0  0  0  0  0999 V2000
   36.8010   27.2280   32.7420 C   0  0  0  0  0  0  0  0  0  0  0  0
   36.6880   26.1390   31.8990 C   0  0  0  0  0  0  0  0  0  0  0  0
   37.2140   25.0920   32.6470 C   0  0  0  0  0  0  0  0  0  0  0  0
   37.6100   25.5730   33.8690 C   0  0  0  0  0  0  0  0  0  0  0  0
   37.3470   26.8600   33.8910 O   0  0  0  0  0  0  0  0  0  0  0  0
   36.2820   26.1020   30.8830 H   0  0  0  0  0  0  0  0  0  0  0  0
   37.2850   24.0730   32.2920 H   0  0  0  0  0  0  0  0  0  0  0  0
   37.7640   25.0170   36.2580 C   0  0  0  0  0  0  0  0  0  0  0  0
   38.2140   24.8150   34.9620 C   0  0  0  0  0  0  0  0  0  0  0  0
   39.2290   23.9050   34.6710 C   0  0  0  0  0  0  0  0  0  0  0  0
   39.8160   23.1740   35.6930 C   0  0  0  0  0  0  0  0  0  0  0  0
   40.7920   22.2430   35.7400 N   0  0  0  0  0  0  0  0  0  0  0  0
   40.9340   21.8910   37.0100 N   0  0  0  0  0  0  0  0  0  0  0  0
   40.0650   22.5800   37.7850 C   0  0  0  0  0  0  0  0  0  0  0  0
   39.3320   23.4140   36.9520 C   0  0  0  0  0  0  0  0  0  0  0  0
   38.3320   24.2990   37.3080 C   0  0  0  0  0  0  0  0  0  0  0  0
   36.9780   25.7180   36.5040 H   0  0  0  0  0  0  0  0  0  0  0  0
   39.5540   23.7720   33.6520 H   0  0  0  0  0  0  0  0  0  0  0  0
   41.2810   21.9300   34.8720 H   0  0  0  0  0  0  0  0  0  0  0  0
   40.0110   22.4430   38.8760 H   0  0  0  0  0  0  0  0  0  0  0  0
   38.0220   24.4180   38.3220 H   0  0  0  0  0  0  0  0  0  0  0  0
   36.3760   28.5800   32.3990 C   0  0  0  0  0  0  0  0  0  0  0  0
   36.8160   29.0990   31.3590 O   0  0  0  0  0  0  0  0  0  0  0  0
   33.2370   29.7240   33.8560 C   0  0  0  0  0  0  0  0  0  0  0  0
   33.6340   30.5490   34.8890 C   0  0  0  0  0  0  0  0  0  0  0  0
   34.9750   30.7320   35.1100 C   0  0  0  0  0  0  0  0  0  0  0  0
   35.8570   30.0880   34.2950 N   0  0  0  0  0  0  0  0  0  0  0  0
   35.4480   29.2810   33.2860 C   0  0  0  0  0  0  0  0  0  0  0  0
   34.1330   29.1160   33.0880 N   0  0  0  0  0  0  0  0  0  0  0  0
   32.1620   29.6360   33.7540 H   0  0  0  0  0  0  0  0  0  0  0  0
   33.0320   31.1140   35.6010 H   0  0  0  0  0  0  0  0  0  0  0  0
   35.6950   31.5400   36.1190 C   0  0  0  0  0  2  0  0  0  0  0  0
   34.7130   32.3890   36.9350 C   0  0  0  0  0  2  0  0  0  0  0  0
   34.3880   33.2320   36.3160 H   0  0  0  0  0  0  0  0  0  0  0  0
  1  5  1  0  0  0  0
  2  3  1  0  0  0  0
  2  1  2  0  0  0  0
  3  4  2  0  0  0  0
  4  5  1  0  0  0  0
  4  9  1  0  0  0  0
  6  2  1  0  0  0  0
  7  3  1  0  0  0  0
  8 17  1  0  0  0  0
  8 16  1  0  0  0  0
  9  8  2  0  0  0  0
 10  9  1  0  0  0  0
 10 11  2  0  0  0  0
 11 12  1  0  0  0  0
 11 15  1  0  0  0  0
 12 13  1  0  0  0  0
 13 14  2  0  0  0  0
 14 20  1  0  0  0  0
 15 16  2  0  0  0  0
 15 14  1  0  0  0  0
 16 21  1  0  0  0  0
 18 10  1  0  0  0  0
 19 12  1  0  0  0  0
 22  1  1  0  0  0  0
 22 28  1  0  0  0  0
 23 22  2  0  0  0  0
 24 25  1  0  0  0  0
 25 26  2  0  0  0  0
 25 31  1  0  0  0  0
 26 32  1  0  0  0  0
 27 26  1  0  0  0  0
 28 27  2  0  0  0  0
 29 28  1  0  0  0  0
 29 24  2  0  0  0  0
 30 24  1  0  0  0  0
 32 33  1  0  0  0  0
 34 33  1  0  0  0  0
M  END
>  <minimizedAffinity>
-5.74127579

$$$$
