
 OpenBabel03272510263D

 39 42  0  0  1  0  0  0  0  0999 V2000
   36.2340   30.1990   46.8690 C   0  0  0  0  0  0  0  0  0  0  0  0
   37.0790   30.7690   47.8180 C   0  0  0  0  0  0  0  0  0  0  0  0
   38.0630   31.6720   47.4460 C   0  0  0  0  0  0  0  0  0  0  0  0
   38.1590   31.9720   46.0920 C   0  0  0  0  0  0  0  0  0  0  0  0
   39.0380   32.8230   45.4890 N   0  0  0  0  0  0  0  0  0  0  0  0
   38.7540   32.7910   44.1760 C   0  0  0  0  0  0  0  0  0  0  0  0
   37.7530   31.9690   43.9460 N   0  0  0  0  0  0  0  0  0  0  0  0
   37.3430   31.4300   45.1190 C   0  0  0  0  0  0  0  0  0  0  0  0
   36.3550   30.5200   45.5220 C   0  0  0  0  0  0  0  0  0  0  0  0
   35.4450   29.4900   47.0800 H   0  0  0  0  0  0  0  0  0  0  0  0
   38.7130   32.1090   48.1880 H   0  0  0  0  0  0  0  0  0  0  0  0
   39.7910   33.3930   45.9590 H   0  0  0  0  0  0  0  0  0  0  0  0
   35.7200   30.0990   44.7520 H   0  0  0  0  0  0  0  0  0  0  0  0
   37.4910   30.1570   51.4950 C   0  0  0  0  0  0  0  0  0  0  0  0
   37.7860   30.5940   50.2160 C   0  0  0  0  0  0  0  0  0  0  0  0
   36.8750   30.3620   49.1930 C   0  0  0  0  0  0  0  0  0  0  0  0
   35.7210   29.7050   49.5130 N   0  0  0  0  0  0  0  0  0  0  0  0
   35.4410   29.2830   50.7620 C   0  0  0  0  0  0  0  0  0  0  0  0
   36.3220   29.5100   51.7350 N   0  0  0  0  0  0  0  0  0  0  0  0
   38.1960   30.3350   52.2870 H   0  0  0  0  0  0  0  0  0  0  0  0
   38.7060   31.1130   49.9780 H   0  0  0  0  0  0  0  0  0  0  0  0
   34.4840   28.7740   50.8640 H   0  0  0  0  0  0  0  0  0  0  0  0
   39.4760   33.5610   43.2510 O   0  0  0  0  0  0  0  0  0  0  0  0
   39.5880   31.8680   41.7250 N   0  0  0  0  0  0  0  0  0  0  0  0
   39.2160   33.2890   41.8810 C   0  0  1  0  0  0  0  0  0  0  0  0
   37.8040   33.4380   41.5430 C   0  0  0  0  0  0  0  0  0  0  0  0
   37.6370   33.1400   40.1790 O   0  0  0  0  0  0  0  0  0  0  0  0
   38.0930   31.9140   39.7900 C   0  0  0  0  0  0  0  0  0  0  0  0
   39.4670   31.5940   40.3110 C   0  0  2  0  0  0  0  0  0  0  0  0
   40.6280   31.8720   41.9250 H   0  0  0  0  0  0  0  0  0  0  0  0
   39.8190   33.9180   41.2070 H   0  0  0  0  0  0  0  0  0  0  0  0
   37.5600   34.5430   41.5960 H   0  0  0  0  0  0  0  0  0  0  0  0
   37.0070   32.9310   42.0120 H   0  0  0  0  0  0  0  0  0  0  0  0
   37.3980   31.0690   40.0630 H   0  0  0  0  0  0  0  0  0  0  0  0
   38.1870   31.9490   38.6830 H   0  0  0  0  0  0  0  0  0  0  0  0
   40.2670   32.1130   39.7420 H   0  0  0  0  0  0  0  0  0  0  0  0
   39.7200   30.0980   40.1470 C   0  0  0  0  0  2  0  0  0  0  0  0
   39.6150   29.6490   38.7270 C   0  0  0  0  0  2  0  0  0  0  0  0
   39.7250   30.4580   37.9780 H   0  0  0  0  0  0  0  0  0  0  0  0
  1 10  1  0  0  0  0
  1  2  1  0  0  0  0
  2 16  1  0  0  0  0
  3  2  2  0  0  0  0
  3 11  1  0  0  0  0
  4  3  1  0  0  0  0
  5 12  1  0  0  0  0
  5  4  1  0  0  0  0
  6  5  1  0  0  0  0
  7  6  2  0  0  0  0
  7  8  1  0  0  0  0
  8  9  1  0  0  0  0
  8  4  2  0  0  0  0
  9  1  2  0  0  0  0
 13  9  1  0  0  0  0
 14 19  1  0  0  0  0
 14 20  1  0  0  0  0
 15 14  2  0  0  0  0
 16 17  2  0  0  0  0
 16 15  1  0  0  0  0
 17 18  1  0  0  0  0
 18 22  1  0  0  0  0
 18 19  2  0  0  0  0
 21 15  1  0  0  0  0
 23  6  1  0  0  0  0
 24 25  1  0  0  0  0
 24 30  1  0  0  0  0
 25 31  1  6  0  0  0
 25 23  1  0  0  0  0
 26 32  1  0  0  0  0
 26 25  1  0  0  0  0
 26 33  1  0  0  0  0
 27 26  1  0  0  0  0
 28 34  1  0  0  0  0
 28 27  1  0  0  0  0
 28 29  1  0  0  0  0
 29 36  1  6  0  0  0
 29 24  1  0  0  0  0
 35 28  1  0  0  0  0
 37 29  1  0  0  0  0
 38 37  1  0  0  0  0
 39 38  1  0  0  0  0
M  END
>  <minimizedAffinity>
-5.4941473

>  <minimizedRMSD>
0.0317972712

$$$$
