
     RDKit          3D

 43 46  0  0  0  0  0  0  0  0999 V2000
   36.2538   30.1726   46.8652 C   0  0  0  0  0  0  0  0  0  0  0  0
   37.0870   30.7624   47.8135 C   0  0  0  0  0  0  0  0  0  0  0  0
   38.0599   31.6751   47.4390 C   0  0  0  0  0  0  0  0  0  0  0  0
   38.1587   31.9663   46.0834 C   0  0  0  0  0  0  0  0  0  0  0  0
   39.0294   32.8244   45.4778 N   0  0  0  0  0  0  0  0  0  0  0  0
   38.7518   32.7777   44.1640 C   0  0  0  0  0  0  0  0  0  0  0  0
   37.7636   31.9414   43.9347 N   0  0  0  0  0  0  0  0  0  0  0  0
   37.3546   31.4051   45.1106 C   0  0  0  0  0  0  0  0  0  0  0  0
   36.3780   30.4852   45.5158 C   0  0  0  0  0  0  0  0  0  0  0  0
   37.4894   30.1826   51.4969 C   0  0  0  0  0  0  0  0  0  0  0  0
   37.7846   30.6136   50.2162 C   0  0  0  0  0  0  0  0  0  0  0  0
   36.8808   30.3626   49.1899 C   0  0  0  0  0  0  0  0  0  0  0  0
   35.7336   29.6936   49.5104 N   0  0  0  0  0  0  0  0  0  0  0  0
   35.4543   29.2776   50.7608 C   0  0  0  0  0  0  0  0  0  0  0  0
   36.3272   29.5233   51.7360 N   0  0  0  0  0  0  0  0  0  0  0  0
   39.4684   33.5499   43.2363 O   0  0  0  0  0  0  0  0  0  0  0  0
   39.5514   31.8505   41.7151 N   0  0  0  0  0  0  0  0  0  0  0  0
   39.2035   33.2787   41.8667 C   0  0  1  0  0  0  0  0  0  0  0  0
   37.7941   33.4510   41.5293 C   0  0  0  0  0  0  0  0  0  0  0  0
   37.6206   33.1513   40.1660 O   0  0  0  0  0  0  0  0  0  0  0  0
   38.0556   31.9174   39.7808 C   0  0  0  0  0  0  0  0  0  0  0  0
   39.4246   31.5749   40.3016 C   0  0  2  0  0  0  0  0  0  0  0  0
   35.4742   29.4551   47.0767 H   0  0  0  0  0  0  0  0  0  0  0  0
   38.7007   32.1273   48.1808 H   0  0  0  0  0  0  0  0  0  0  0  0
   39.7723   33.4081   45.9469 H   0  0  0  0  0  0  0  0  0  0  0  0
   35.7515   30.0503   44.7465 H   0  0  0  0  0  0  0  0  0  0  0  0
   38.1879   30.3764   52.2906 H   0  0  0  0  0  0  0  0  0  0  0  0
   38.6988   31.1431   49.9781 H   0  0  0  0  0  0  0  0  0  0  0  0
   34.5031   28.7582   50.8627 H   0  0  0  0  0  0  0  0  0  0  0  0
   40.5907   31.8379   41.9153 H   0  0  0  0  0  0  0  0  0  0  0  0
   39.8163   33.8964   41.1909 H   0  0  0  0  0  0  0  0  0  0  0  0
   37.5684   34.5599   41.5794 H   0  0  0  0  0  0  0  0  0  0  0  0
   36.9877   32.9584   42.0001 H   0  0  0  0  0  0  0  0  0  0  0  0
   37.3474   31.0835   40.0562 H   0  0  0  0  0  0  0  0  0  0  0  0
   38.1503   31.9466   38.6739 H   0  0  0  0  0  0  0  0  0  0  0  0
   40.2334   32.0788   39.7312 H   0  0  0  0  0  0  0  0  0  0  0  0
   39.6523   30.0753   40.1422 C   0  0  0  0  0  0  0  0  0  0  0  0
   39.2106   29.5645   38.8112 C   0  0  0  0  0  0  0  0  0  0  0  0
   39.1214   30.3410   38.0256 H   0  0  0  0  0  0  0  0  0  0  0  0
   40.7123   29.8104   40.3313 H   0  0  0  0  0  0  0  0  0  0  0  0
   39.0825   29.5090   40.9270 H   0  0  0  0  0  0  0  0  0  0  0  0
   39.9610   28.8304   38.4423 H   0  0  0  0  0  0  0  0  0  0  0  0
   38.2580   28.9751   38.8959 H   0  0  0  0  0  0  0  0  0  0  0  0
  1  2  2  0
  2 12  1  0
  3  2  1  0
  4  3  2  0
  5  4  1  0
  6  5  1  0
  7  6  2  0
  7  8  1  0
  8  9  2  0
  8  4  1  0
  9  1  1  0
 10 15  2  0
 11 10  1  0
 12 13  1  0
 12 11  2  0
 13 14  2  0
 14 15  1  0
 16  6  1  0
 17 18  1  0
 18 16  1  0
 19 18  1  0
 20 19  1  0
 21 20  1  0
 21 22  1  0
 22 17  1  0
  1 23  1  0
  3 24  1  0
  5 25  1  0
  9 26  1  0
 10 27  1  0
 11 28  1  0
 14 29  1  0
 17 30  1  0
 18 31  1  6
 19 32  1  0
 19 33  1  0
 21 34  1  0
 21 35  1  0
 22 36  1  6
 37 38  1  0
 38 39  1  0
 37 40  1  0
 37 41  1  0
 38 42  1  0
 38 43  1  0
 22 37  1  0
M  ISO  8  23  14  24  14  25   9  26  14  27  14  28  14  29  14  30   5
M  ISO  7  31  13  32  13  33  13  34  13  35  13  36  13  39   8
M  END
>  <DihAtoms>  (1) 
20,21,36,37

>  <DihDeg>  (1) 
59.29154597133059

$$$$
