
 OpenBabel03272503263D

 24 25  0  0  1  0  0  0  0  0999 V2000
   35.7070   29.7500   49.2290 N   0  0  0  0  0  0  0  0  0  0  0  0
   36.1540   31.1340   49.2150 C   0  0  0  0  0  0  0  0  0  0  0  0
   36.9900   31.2070   50.4850 C   0  0  1  0  0  0  0  0  0  0  0  0
   36.8480   29.8590   51.1740 C   0  0  0  0  0  0  0  0  0  0  0  0
   36.7000   28.9620   49.9600 C   0  0  0  0  0  0  0  0  0  0  0  0
   35.2850   31.8300   49.3960 H   0  0  0  0  0  0  0  0  0  0  0  0
   36.6880   31.4300   48.3140 H   0  0  0  0  0  0  0  0  0  0  0  0
   36.6760   32.0150   51.1690 H   0  0  0  0  0  0  0  0  0  0  0  0
   37.7040   29.6120   51.7980 H   0  0  0  0  0  0  0  0  0  0  0  0
   35.9350   29.8800   51.7970 H   0  0  0  0  0  0  0  0  0  0  0  0
   36.2850   27.9770   50.2240 H   0  0  0  0  0  0  0  0  0  0  0  0
   37.6620   28.9310   49.4410 H   0  0  0  0  0  0  0  0  0  0  0  0
   34.5300   29.2280   48.6490 C   0  0  0  0  0  0  0  0  0  0  0  0
   34.1740   29.7080   47.3910 C   0  0  0  0  0  0  0  0  0  0  0  0
   33.0220   29.2410   46.7500 C   0  0  0  0  0  0  0  0  0  0  0  0
   32.2890   28.2950   47.4450 N   0  0  0  0  0  0  0  0  0  0  0  0
   32.6660   27.8520   48.6700 C   0  0  0  0  0  0  0  0  0  0  0  0
   33.7810   28.3150   49.2710 N   0  0  0  0  0  0  0  0  0  0  0  0
   34.7170   30.4360   46.8270 H   0  0  0  0  0  0  0  0  0  0  0  0
   32.6750   29.5520   45.7890 H   0  0  0  0  0  0  0  0  0  0  0  0
   32.0730   27.1150   49.1860 H   0  0  0  0  0  0  0  0  0  0  0  0
   38.4120   31.4370   50.0280 C   0  0  0  0  0  0  0  0  0  0  0  0
   38.6070   32.7380   49.2930 C   0  0  0  0  0  0  0  0  0  0  0  0
   37.7440   32.8960   48.6170 H   0  0  0  0  0  0  0  0  0  0  0  0
  1  5  1  0  0  0  0
  2  1  1  0  0  0  0
  2  6  1  0  0  0  0
  2  3  1  0  0  0  0
  3  8  1  1  0  0  0
  3  4  1  0  0  0  0
  4 10  1  0  0  0  0
  4  9  1  0  0  0  0
  5 11  1  0  0  0  0
  5  4  1  0  0  0  0
  7  2  1  0  0  0  0
 12  5  1  0  0  0  0
 13  1  1  0  0  0  0
 13 18  1  0  0  0  0
 14 13  2  0  0  0  0
 15 14  1  0  0  0  0
 15 16  2  0  0  0  0
 16 17  1  0  0  0  0
 17 21  1  0  0  0  0
 17 18  2  0  0  0  0
 19 14  1  0  0  0  0
 20 15  1  0  0  0  0
 22  3  1  0  0  0  0
 23 22  1  0  0  0  0
 24 23  1  0  0  0  0
M  END
>  <minimizedAffinity>
-4.64917135

>  <minimizedRMSD>
1.47670877

$$$$
