
 OpenBabel03272508313D

 26 27  0  0  1  0  0  0  0  0999 V2000
   38.5830   22.3500   36.0860 N   0  0  0  0  0  0  0  0  0  0  0  0
   39.9920   22.0460   35.8720 C   0  0  0  0  0  0  0  0  0  0  0  0
   40.8290   22.3360   37.0640 C   0  0  0  0  0  0  0  0  0  0  0  0
   40.0440   22.3030   38.2590 N   0  0  0  0  0  0  0  0  0  0  0  0
   39.1710   23.4730   38.1880 C   0  0  0  0  0  0  0  0  0  0  0  0
   38.0740   23.1070   37.2260 C   0  0  1  0  0  0  0  0  0  0  0  0
   40.3300   22.7200   35.0410 H   0  0  0  0  0  0  0  0  0  0  0  0
   40.1290   21.0160   35.4490 H   0  0  0  0  0  0  0  0  0  0  0  0
   41.3280   23.3310   36.9760 H   0  0  0  0  0  0  0  0  0  0  0  0
   41.6710   21.6000   37.0890 H   0  0  0  0  0  0  0  0  0  0  0  0
   39.4320   21.4430   38.2000 H   0  0  0  0  0  0  0  0  0  0  0  0
   38.7400   23.6640   39.1890 H   0  0  0  0  0  0  0  0  0  0  0  0
   39.7930   24.3140   37.8390 H   0  0  0  0  0  0  0  0  0  0  0  0
   37.3710   22.4490   37.7740 H   0  0  0  0  0  0  0  0  0  0  0  0
   36.4900   21.1430   35.5210 C   0  0  0  0  0  0  0  0  0  0  0  0
   37.6080   21.9000   35.1500 C   0  0  0  0  0  0  0  0  0  0  0  0
   37.7610   22.2240   33.7900 C   0  0  0  0  0  0  0  0  0  0  0  0
   36.7980   21.7730   32.9110 N   0  0  0  0  0  0  0  0  0  0  0  0
   35.7390   21.0440   33.3400 C   0  0  0  0  0  0  0  0  0  0  0  0
   35.5690   20.7210   34.6310 N   0  0  0  0  0  0  0  0  0  0  0  0
   36.3600   20.8890   36.5580 H   0  0  0  0  0  0  0  0  0  0  0  0
   38.5930   22.8030   33.4200 H   0  0  0  0  0  0  0  0  0  0  0  0
   34.9860   20.6930   32.6450 H   0  0  0  0  0  0  0  0  0  0  0  0
   37.3020   24.2970   36.7380 C   0  0  0  0  0  2  0  0  0  0  0  0
   38.2160   25.4170   36.2860 C   0  0  0  0  0  2  0  0  0  0  0  0
   37.6840   26.1160   35.6100 H   0  0  0  0  0  0  0  0  0  0  0  0
  1  6  1  0  0  0  0
  2  1  1  0  0  0  0
  2  3  1  0  0  0  0
  3 10  1  0  0  0  0
  3  4  1  0  0  0  0
  5  4  1  0  0  0  0
  5 12  1  0  0  0  0
  6 14  1  1  0  0  0
  6  5  1  0  0  0  0
  7  2  1  0  0  0  0
  8  2  1  0  0  0  0
  9  3  1  0  0  0  0
 11  4  1  0  0  0  0
 13  5  1  0  0  0  0
 15 21  1  0  0  0  0
 16 15  1  0  0  0  0
 16  1  1  0  0  0  0
 17 16  2  0  0  0  0
 18 19  2  0  0  0  0
 18 17  1  0  0  0  0
 19 20  1  0  0  0  0
 20 15  2  0  0  0  0
 22 17  1  0  0  0  0
 23 19  1  0  0  0  0
 24  6  1  0  0  0  0
 25 24  1  0  0  0  0
 26 25  1  0  0  0  0
M  END
>  <minimizedAffinity>
-4.08075714

$$$$

 OpenBabel03272508313D

 26 27  0  0  1  0  0  0  0  0999 V2000
   33.0790   30.7700   36.1190 N   0  0  0  0  0  0  0  0  0  0  0  0
   34.3840   30.8650   35.4760 C   0  0  0  0  0  0  0  0  0  0  0  0
   35.2540   31.8970   36.0970 C   0  0  0  0  0  0  0  0  0  0  0  0
   34.8660   32.1450   37.4510 N   0  0  0  0  0  0  0  0  0  0  0  0
   33.5730   32.8230   37.3710 C   0  0  0  0  0  0  0  0  0  0  0  0
   32.5650   31.7460   37.0750 C   0  0  1  0  0  0  0  0  0  0  0  0
   34.1840   31.1740   34.4170 H   0  0  0  0  0  0  0  0  0  0  0  0
   34.8640   29.8560   35.3720 H   0  0  0  0  0  0  0  0  0  0  0  0
   35.2220   32.8520   35.5210 H   0  0  0  0  0  0  0  0  0  0  0  0
   36.3160   31.5550   36.0160 H   0  0  0  0  0  0  0  0  0  0  0  0
   34.7060   31.2030   37.9010 H   0  0  0  0  0  0  0  0  0  0  0  0
   33.3450   33.2860   38.3490 H   0  0  0  0  0  0  0  0  0  0  0  0
   33.6550   33.5730   36.5670 H   0  0  0  0  0  0  0  0  0  0  0  0
   32.3760   31.2100   38.0260 H   0  0  0  0  0  0  0  0  0  0  0  0
   31.7960   29.3670   34.5240 C   0  0  0  0  0  0  0  0  0  0  0  0
   32.2200   29.6720   35.8230 C   0  0  0  0  0  0  0  0  0  0  0  0
   31.7720   28.8490   36.8720 C   0  0  0  0  0  0  0  0  0  0  0  0
   30.9430   27.7940   36.5500 N   0  0  0  0  0  0  0  0  0  0  0  0
   30.5710   27.5560   35.2690 C   0  0  0  0  0  0  0  0  0  0  0  0
   30.9840   28.3250   34.2500 N   0  0  0  0  0  0  0  0  0  0  0  0
   32.1320   29.9870   33.7120 H   0  0  0  0  0  0  0  0  0  0  0  0
   32.0520   29.0140   37.9010 H   0  0  0  0  0  0  0  0  0  0  0  0
   29.9200   26.7270   35.0220 H   0  0  0  0  0  0  0  0  0  0  0  0
   31.2550   32.2890   36.5860 C   0  0  0  0  0  2  0  0  0  0  0  0
   31.0910   33.7570   36.9200 C   0  0  0  0  0  2  0  0  0  0  0  0
   30.3300   34.2300   36.2660 H   0  0  0  0  0  0  0  0  0  0  0  0
  1  6  1  0  0  0  0
  2  3  1  0  0  0  0
  2  1  1  0  0  0  0
  3  4  1  0  0  0  0
  4 11  1  0  0  0  0
  5  4  1  0  0  0  0
  5 12  1  0  0  0  0
  6  5  1  0  0  0  0
  6 14  1  1  0  0  0
  7  2  1  0  0  0  0
  8  2  1  0  0  0  0
  9  3  1  0  0  0  0
 10  3  1  0  0  0  0
 13  5  1  0  0  0  0
 15 16  1  0  0  0  0
 16  1  1  0  0  0  0
 16 17  2  0  0  0  0
 17 22  1  0  0  0  0
 18 17  1  0  0  0  0
 19 18  2  0  0  0  0
 20 15  2  0  0  0  0
 20 19  1  0  0  0  0
 21 15  1  0  0  0  0
 23 19  1  0  0  0  0
 24 25  1  0  0  0  0
 24  6  1  0  0  0  0
 26 25  1  0  0  0  0
M  END
>  <minimizedAffinity>
-3.88137126

$$$$

 OpenBabel03272508313D

 26 27  0  0  1  0  0  0  0  0999 V2000
   38.8050   23.0080   35.8960 N   0  0  0  0  0  0  0  0  0  0  0  0
   40.0920   22.5660   36.4160 C   0  0  0  0  0  0  0  0  0  0  0  0
   40.2020   22.7280   37.8890 C   0  0  0  0  0  0  0  0  0  0  0  0
   38.9090   22.7400   38.4990 N   0  0  0  0  0  0  0  0  0  0  0  0
   38.2890   23.9970   38.0840 C   0  0  0  0  0  0  0  0  0  0  0  0
   37.8320   23.7780   36.6670 C   0  0  1  0  0  0  0  0  0  0  0  0
   40.8610   23.2260   35.9380 H   0  0  0  0  0  0  0  0  0  0  0  0
   40.3540   21.5410   36.0430 H   0  0  0  0  0  0  0  0  0  0  0  0
   40.7450   23.6670   38.1520 H   0  0  0  0  0  0  0  0  0  0  0  0
   40.8520   21.9080   38.2840 H   0  0  0  0  0  0  0  0  0  0  0  0
   38.3570   21.9520   38.0630 H   0  0  0  0  0  0  0  0  0  0  0  0
   37.4150   24.2000   38.7300 H   0  0  0  0  0  0  0  0  0  0  0  0
   39.0620   24.7790   38.1750 H   0  0  0  0  0  0  0  0  0  0  0  0
   36.9010   23.1800   36.7170 H   0  0  0  0  0  0  0  0  0  0  0  0
   39.0890   23.2230   33.4400 C   0  0  0  0  0  0  0  0  0  0  0  0
   38.4320   22.6930   34.5580 C   0  0  0  0  0  0  0  0  0  0  0  0
   37.3600   21.8100   34.3340 C   0  0  0  0  0  0  0  0  0  0  0  0
   37.0270   21.5260   33.0250 N   0  0  0  0  0  0  0  0  0  0  0  0
   37.7070   22.0750   31.9900 C   0  0  0  0  0  0  0  0  0  0  0  0
   38.7330   22.9200   32.1760 N   0  0  0  0  0  0  0  0  0  0  0  0
   39.9100   23.8990   33.5980 H   0  0  0  0  0  0  0  0  0  0  0  0
   36.8010   21.3580   35.1380 H   0  0  0  0  0  0  0  0  0  0  0  0
   37.4410   21.8480   30.9650 H   0  0  0  0  0  0  0  0  0  0  0  0
   37.5180   25.0580   35.9500 C   0  0  0  0  0  2  0  0  0  0  0  0
   38.5400   26.1360   36.2420 C   0  0  0  0  0  2  0  0  0  0  0  0
   38.5220   26.9230   35.4610 H   0  0  0  0  0  0  0  0  0  0  0  0
  1  2  1  0  0  0  0
  1  6  1  0  0  0  0
  2  3  1  0  0  0  0
  3  9  1  0  0  0  0
  3 10  1  0  0  0  0
  3  4  1  0  0  0  0
  5 13  1  0  0  0  0
  5  4  1  0  0  0  0
  5 12  1  0  0  0  0
  6 14  1  1  0  0  0
  6  5  1  0  0  0  0
  7  2  1  0  0  0  0
  8  2  1  0  0  0  0
 11  4  1  0  0  0  0
 15 21  1  0  0  0  0
 15 16  1  0  0  0  0
 16  1  1  0  0  0  0
 17 16  2  0  0  0  0
 17 22  1  0  0  0  0
 18 17  1  0  0  0  0
 19 20  1  0  0  0  0
 19 18  2  0  0  0  0
 20 15  2  0  0  0  0
 23 19  1  0  0  0  0
 24 25  1  0  0  0  0
 24  6  1  0  0  0  0
 26 25  1  0  0  0  0
M  END
>  <minimizedAffinity>
-3.83917403

$$$$

 OpenBabel03272508313D

 26 27  0  0  1  0  0  0  0  0999 V2000
   39.4090   24.5340   35.4400 N   0  0  0  0  0  0  0  0  0  0  0  0
   40.8410   24.5950   35.1770 C   0  0  0  0  0  0  0  0  0  0  0  0
   41.5120   23.2810   35.3470 C   0  0  0  0  0  0  0  0  0  0  0  0
   40.5820   22.2070   35.1780 N   0  0  0  0  0  0  0  0  0  0  0  0
   39.6960   22.2670   36.3390 C   0  0  0  0  0  0  0  0  0  0  0  0
   38.7400   23.3960   36.0650 C   0  0  1  0  0  0  0  0  0  0  0  0
   41.2640   25.3000   35.9400 H   0  0  0  0  0  0  0  0  0  0  0  0
   41.0560   25.1020   34.2000 H   0  0  0  0  0  0  0  0  0  0  0  0
   41.9930   23.1990   36.3510 H   0  0  0  0  0  0  0  0  0  0  0  0
   42.3620   23.2250   34.6230 H   0  0  0  0  0  0  0  0  0  0  0  0
   40.0050   22.4340   34.3230 H   0  0  0  0  0  0  0  0  0  0  0  0
   39.1370   21.3160   36.4170 H   0  0  0  0  0  0  0  0  0  0  0  0
   40.3360   22.4440   37.2200 H   0  0  0  0  0  0  0  0  0  0  0  0
   37.9900   23.0160   35.3440 H   0  0  0  0  0  0  0  0  0  0  0  0
   37.6770   25.5830   34.0050 C   0  0  0  0  0  0  0  0  0  0  0  0
   38.5730   25.6300   35.0820 C   0  0  0  0  0  0  0  0  0  0  0  0
   38.6360   26.8170   35.8340 C   0  0  0  0  0  0  0  0  0  0  0  0
   37.8110   27.8570   35.4590 N   0  0  0  0  0  0  0  0  0  0  0  0
   36.9670   27.7440   34.4050 C   0  0  0  0  0  0  0  0  0  0  0  0
   36.8870   26.6230   33.6710 N   0  0  0  0  0  0  0  0  0  0  0  0
   37.6190   24.6810   33.4220 H   0  0  0  0  0  0  0  0  0  0  0  0
   39.2970   26.9360   36.6780 H   0  0  0  0  0  0  0  0  0  0  0  0
   36.3220   28.5640   34.1160 H   0  0  0  0  0  0  0  0  0  0  0  0
   38.0070   23.8520   37.2920 C   0  0  0  0  0  2  0  0  0  0  0  0
   38.7070   23.4200   38.5630 C   0  0  0  0  0  2  0  0  0  0  0  0
   38.3900   24.0430   39.4230 H   0  0  0  0  0  0  0  0  0  0  0  0
  1  6  1  0  0  0  0
  2  3  1  0  0  0  0
  2  1  1  0  0  0  0
  2  7  1  0  0  0  0
  3  9  1  0  0  0  0
  4  3  1  0  0  0  0
  4  5  1  0  0  0  0
  5 12  1  0  0  0  0
  5 13  1  0  0  0  0
  6 14  1  6  0  0  0
  6  5  1  0  0  0  0
  6 24  1  0  0  0  0
  8  2  1  0  0  0  0
 10  3  1  0  0  0  0
 11  4  1  0  0  0  0
 15 16  1  0  0  0  0
 16  1  1  0  0  0  0
 16 17  2  0  0  0  0
 17 22  1  0  0  0  0
 18 17  1  0  0  0  0
 19 18  2  0  0  0  0
 20 15  2  0  0  0  0
 20 19  1  0  0  0  0
 21 15  1  0  0  0  0
 23 19  1  0  0  0  0
 24 25  1  0  0  0  0
 25 26  1  0  0  0  0
M  END
>  <minimizedAffinity>
-3.79927826

$$$$

 OpenBabel03272508313D

 26 27  0  0  1  0  0  0  0  0999 V2000
   39.6490   23.3720   35.6360 N   0  0  0  0  0  0  0  0  0  0  0  0
   41.0930   23.1850   35.5760 C   0  0  0  0  0  0  0  0  0  0  0  0
   41.6370   22.5180   36.7870 C   0  0  0  0  0  0  0  0  0  0  0  0
   40.6270   21.7430   37.4390 N   0  0  0  0  0  0  0  0  0  0  0  0
   39.6890   22.7130   38.0010 C   0  0  0  0  0  0  0  0  0  0  0  0
   38.8510   23.1870   36.8450 C   0  0  1  0  0  0  0  0  0  0  0  0
   41.5350   24.2140   35.5210 H   0  0  0  0  0  0  0  0  0  0  0  0
   41.4040   22.7110   34.6070 H   0  0  0  0  0  0  0  0  0  0  0  0
   42.0540   23.2630   37.5050 H   0  0  0  0  0  0  0  0  0  0  0  0
   42.5160   21.8990   36.4810 H   0  0  0  0  0  0  0  0  0  0  0  0
   40.1190   21.2060   36.6850 H   0  0  0  0  0  0  0  0  0  0  0  0
   39.0440   22.2060   38.7430 H   0  0  0  0  0  0  0  0  0  0  0  0
   40.2930   23.5140   38.4570 H   0  0  0  0  0  0  0  0  0  0  0  0
   38.1100   22.3910   36.6350 H   0  0  0  0  0  0  0  0  0  0  0  0
   39.1460   24.9790   33.8130 C   0  0  0  0  0  0  0  0  0  0  0  0
   38.9330   23.7580   34.4670 C   0  0  0  0  0  0  0  0  0  0  0  0
   37.9680   22.8850   33.9330 C   0  0  0  0  0  0  0  0  0  0  0  0
   37.2940   23.2910   32.7990 N   0  0  0  0  0  0  0  0  0  0  0  0
   37.5500   24.4870   32.2180 C   0  0  0  0  0  0  0  0  0  0  0  0
   38.4660   25.3380   32.7060 N   0  0  0  0  0  0  0  0  0  0  0  0
   39.8810   25.6550   34.2110 H   0  0  0  0  0  0  0  0  0  0  0  0
   37.7430   21.9270   34.3750 H   0  0  0  0  0  0  0  0  0  0  0  0
   37.0180   24.8000   31.3280 H   0  0  0  0  0  0  0  0  0  0  0  0
   38.0960   24.4480   37.1480 C   0  0  0  0  0  2  0  0  0  0  0  0
   37.8940   24.6430   38.6360 C   0  0  0  0  0  2  0  0  0  0  0  0
   37.6780   25.7050   38.8720 H   0  0  0  0  0  0  0  0  0  0  0  0
  1  6  1  0  0  0  0
  2  1  1  0  0  0  0
  2  3  1  0  0  0  0
  3  4  1  0  0  0  0
  3  9  1  0  0  0  0
  4  5  1  0  0  0  0
  5 13  1  0  0  0  0
  5 12  1  0  0  0  0
  6 14  1  6  0  0  0
  6 24  1  0  0  0  0
  6  5  1  0  0  0  0
  7  2  1  0  0  0  0
  8  2  1  0  0  0  0
 10  3  1  0  0  0  0
 11  4  1  0  0  0  0
 15 21  1  0  0  0  0
 15 16  1  0  0  0  0
 16  1  1  0  0  0  0
 17 22  1  0  0  0  0
 17 16  2  0  0  0  0
 18 17  1  0  0  0  0
 19 20  1  0  0  0  0
 19 18  2  0  0  0  0
 20 15  2  0  0  0  0
 23 19  1  0  0  0  0
 24 25  1  0  0  0  0
 25 26  1  0  0  0  0
M  END
>  <minimizedAffinity>
-3.78429532

$$$$

 OpenBabel03272508313D

 26 27  0  0  1  0  0  0  0  0999 V2000
   38.9800   24.8220   34.3880 N   0  0  0  0  0  0  0  0  0  0  0  0
   37.9330   24.2600   33.5440 C   0  0  0  0  0  0  0  0  0  0  0  0
   37.7290   25.0330   32.2920 C   0  0  0  0  0  0  0  0  0  0  0  0
   38.9100   25.7630   31.9450 N   0  0  0  0  0  0  0  0  0  0  0  0
   39.0330   26.8130   32.9540 C   0  0  0  0  0  0  0  0  0  0  0  0
   39.5780   26.1380   34.1830 C   0  0  1  0  0  0  0  0  0  0  0  0
   36.9870   24.3210   34.1440 H   0  0  0  0  0  0  0  0  0  0  0  0
   38.0780   23.1590   33.3890 H   0  0  0  0  0  0  0  0  0  0  0  0
   36.8720   25.7410   32.3880 H   0  0  0  0  0  0  0  0  0  0  0  0
   37.4180   24.3220   31.4870 H   0  0  0  0  0  0  0  0  0  0  0  0
   39.7250   25.1030   32.0690 H   0  0  0  0  0  0  0  0  0  0  0  0
   39.7520   27.5750   32.5980 H   0  0  0  0  0  0  0  0  0  0  0  0
   38.0240   27.2350   33.1010 H   0  0  0  0  0  0  0  0  0  0  0  0
   40.6620   25.9870   34.0140 H   0  0  0  0  0  0  0  0  0  0  0  0
   38.6910   23.7330   36.5990 C   0  0  0  0  0  0  0  0  0  0  0  0
   39.4790   24.0740   35.4920 C   0  0  0  0  0  0  0  0  0  0  0  0
   40.8210   23.6500   35.4840 C   0  0  0  0  0  0  0  0  0  0  0  0
   41.2710   22.9260   36.5700 N   0  0  0  0  0  0  0  0  0  0  0  0
   40.4520   22.6320   37.6090 C   0  0  0  0  0  0  0  0  0  0  0  0
   39.1690   23.0240   37.6410 N   0  0  0  0  0  0  0  0  0  0  0  0
   37.6640   24.0510   36.6180 H   0  0  0  0  0  0  0  0  0  0  0  0
   41.4950   23.8690   34.6710 H   0  0  0  0  0  0  0  0  0  0  0  0
   40.8110   22.0640   38.4570 H   0  0  0  0  0  0  0  0  0  0  0  0
   39.4170   26.9640   35.4250 C   0  0  0  0  0  2  0  0  0  0  0  0
   38.0130   27.5130   35.5610 C   0  0  0  0  0  2  0  0  0  0  0  0
   37.7970   27.7970   36.6110 H   0  0  0  0  0  0  0  0  0  0  0  0
  1 16  1  0  0  0  0
  2  7  1  0  0  0  0
  2  1  1  0  0  0  0
  3  9  1  0  0  0  0
  3  2  1  0  0  0  0
  4 11  1  0  0  0  0
  4  3  1  0  0  0  0
  4  5  1  0  0  0  0
  5 13  1  0  0  0  0
  5  6  1  0  0  0  0
  6 14  1  6  0  0  0
  6  1  1  0  0  0  0
  6 24  1  0  0  0  0
  8  2  1  0  0  0  0
 10  3  1  0  0  0  0
 12  5  1  0  0  0  0
 15 21  1  0  0  0  0
 15 20  1  0  0  0  0
 16 15  2  0  0  0  0
 17 16  1  0  0  0  0
 17 18  2  0  0  0  0
 18 19  1  0  0  0  0
 19 20  2  0  0  0  0
 19 23  1  0  0  0  0
 22 17  1  0  0  0  0
 24 25  1  0  0  0  0
 25 26  1  0  0  0  0
M  END
>  <minimizedAffinity>
-3.71973586

$$$$

 OpenBabel03272508313D

 26 27  0  0  1  0  0  0  0  0999 V2000
   38.7690   24.1560   36.2570 N   0  0  0  0  0  0  0  0  0  0  0  0
   37.5970   23.9960   37.1080 C   0  0  0  0  0  0  0  0  0  0  0  0
   37.8650   23.1500   38.2990 C   0  0  0  0  0  0  0  0  0  0  0  0
   39.2570   23.1570   38.6280 N   0  0  0  0  0  0  0  0  0  0  0  0
   39.9180   22.4170   37.5540 C   0  0  0  0  0  0  0  0  0  0  0  0
   39.9900   23.3660   36.3890 C   0  0  1  0  0  0  0  0  0  0  0  0
   36.8290   23.4740   36.4800 H   0  0  0  0  0  0  0  0  0  0  0  0
   37.1220   24.9860   37.3410 H   0  0  0  0  0  0  0  0  0  0  0  0
   37.5290   22.0990   38.1320 H   0  0  0  0  0  0  0  0  0  0  0  0
   37.2280   23.5190   39.1420 H   0  0  0  0  0  0  0  0  0  0  0  0
   39.5810   24.1610   38.5710 H   0  0  0  0  0  0  0  0  0  0  0  0
   40.9410   22.1460   37.8770 H   0  0  0  0  0  0  0  0  0  0  0  0
   39.2990   21.5270   37.3520 H   0  0  0  0  0  0  0  0  0  0  0  0
   40.8200   24.0700   36.5960 H   0  0  0  0  0  0  0  0  0  0  0  0
   37.8400   25.1210   34.1680 C   0  0  0  0  0  0  0  0  0  0  0  0
   38.7660   25.1320   35.2190 C   0  0  0  0  0  0  0  0  0  0  0  0
   39.7280   26.1580   35.2380 C   0  0  0  0  0  0  0  0  0  0  0  0
   39.6950   27.0870   34.2180 N   0  0  0  0  0  0  0  0  0  0  0  0
   38.7690   27.0170   33.2310 C   0  0  0  0  0  0  0  0  0  0  0  0
   37.8410   26.0490   33.1890 N   0  0  0  0  0  0  0  0  0  0  0  0
   37.0990   24.3430   34.1410 H   0  0  0  0  0  0  0  0  0  0  0  0
   40.4760   26.2400   36.0110 H   0  0  0  0  0  0  0  0  0  0  0  0
   38.7480   27.7480   32.4340 H   0  0  0  0  0  0  0  0  0  0  0  0
   40.2870   22.6760   35.0900 C   0  0  0  0  0  2  0  0  0  0  0  0
   41.7220   22.8860   34.6530 C   0  0  0  0  0  2  0  0  0  0  0  0
   42.0330   22.1090   33.9260 H   0  0  0  0  0  0  0  0  0  0  0  0
  1  6  1  0  0  0  0
  1  2  1  0  0  0  0
  2  8  1  0  0  0  0
  2  3  1  0  0  0  0
  3  4  1  0  0  0  0
  3 10  1  0  0  0  0
  5 12  1  0  0  0  0
  5  4  1  0  0  0  0
  6 14  1  1  0  0  0
  6  5  1  0  0  0  0
  7  2  1  0  0  0  0
  9  3  1  0  0  0  0
 11  4  1  0  0  0  0
 13  5  1  0  0  0  0
 15 16  1  0  0  0  0
 16 17  2  0  0  0  0
 16  1  1  0  0  0  0
 17 22  1  0  0  0  0
 18 17  1  0  0  0  0
 19 18  2  0  0  0  0
 20 19  1  0  0  0  0
 20 15  2  0  0  0  0
 21 15  1  0  0  0  0
 23 19  1  0  0  0  0
 24  6  1  0  0  0  0
 25 24  1  0  0  0  0
 26 25  1  0  0  0  0
M  END
>  <minimizedAffinity>
-3.64683867

$$$$

 OpenBabel03272508313D

 26 27  0  0  1  0  0  0  0  0999 V2000
   37.8660   26.1410   33.9810 N   0  0  0  0  0  0  0  0  0  0  0  0
   37.5160   25.6370   35.3030 C   0  0  0  0  0  0  0  0  0  0  0  0
   38.3770   26.1960   36.3770 C   0  0  0  0  0  0  0  0  0  0  0  0
   38.9380   27.4510   35.9800 N   0  0  0  0  0  0  0  0  0  0  0  0
   39.9010   27.1350   34.9270 C   0  0  0  0  0  0  0  0  0  0  0  0
   39.0860   26.8880   33.6870 C   0  0  1  0  0  0  0  0  0  0  0  0
   37.6860   24.5300   35.2660 H   0  0  0  0  0  0  0  0  0  0  0  0
   36.4150   25.7300   35.4980 H   0  0  0  0  0  0  0  0  0  0  0  0
   39.2000   25.4910   36.6430 H   0  0  0  0  0  0  0  0  0  0  0  0
   37.7650   26.2810   37.3090 H   0  0  0  0  0  0  0  0  0  0  0  0
   38.1570   28.0100   35.5410 H   0  0  0  0  0  0  0  0  0  0  0  0
   40.5630   28.0070   34.7690 H   0  0  0  0  0  0  0  0  0  0  0  0
   40.4620   26.2470   35.2630 H   0  0  0  0  0  0  0  0  0  0  0  0
   38.7820   27.8790   33.2970 H   0  0  0  0  0  0  0  0  0  0  0  0
   36.3590   26.9510   32.1840 C   0  0  0  0  0  0  0  0  0  0  0  0
   36.9930   25.9130   32.8790 C   0  0  0  0  0  0  0  0  0  0  0  0
   36.7490   24.5930   32.4580 C   0  0  0  0  0  0  0  0  0  0  0  0
   35.8990   24.4090   31.3870 N   0  0  0  0  0  0  0  0  0  0  0  0
   35.3180   25.4610   30.7590 C   0  0  0  0  0  0  0  0  0  0  0  0
   35.5340   26.7290   31.1400 N   0  0  0  0  0  0  0  0  0  0  0  0
   36.5370   27.9640   32.4950 H   0  0  0  0  0  0  0  0  0  0  0  0
   37.1970   23.7370   32.9380 H   0  0  0  0  0  0  0  0  0  0  0  0
   34.6520   25.3100   29.9190 H   0  0  0  0  0  0  0  0  0  0  0  0
   39.8590   26.1870   32.6090 C   0  0  0  0  0  2  0  0  0  0  0  0
   40.2710   27.1340   31.5020 C   0  0  0  0  0  2  0  0  0  0  0  0
   41.1190   26.7200   30.9200 H   0  0  0  0  0  0  0  0  0  0  0  0
  1  2  1  0  0  0  0
  2  8  1  0  0  0  0
  2  3  1  0  0  0  0
  3  9  1  0  0  0  0
  3 10  1  0  0  0  0
  4  3  1  0  0  0  0
  5 13  1  0  0  0  0
  5  4  1  0  0  0  0
  6 14  1  6  0  0  0
  6  1  1  0  0  0  0
  6  5  1  0  0  0  0
  7  2  1  0  0  0  0
 11  4  1  0  0  0  0
 12  5  1  0  0  0  0
 15 21  1  0  0  0  0
 15 16  1  0  0  0  0
 16  1  1  0  0  0  0
 17 16  2  0  0  0  0
 17 22  1  0  0  0  0
 18 17  1  0  0  0  0
 19 20  1  0  0  0  0
 19 18  2  0  0  0  0
 20 15  2  0  0  0  0
 23 19  1  0  0  0  0
 24  6  1  0  0  0  0
 25 24  1  0  0  0  0
 26 25  1  0  0  0  0
M  END
>  <minimizedAffinity>
-3.60317683

$$$$

 OpenBabel03272508313D

 26 27  0  0  1  0  0  0  0  0999 V2000
   37.1640   25.5760   32.4710 N   0  0  0  0  0  0  0  0  0  0  0  0
   36.2540   24.6420   31.8190 C   0  0  0  0  0  0  0  0  0  0  0  0
   35.2820   25.3200   30.9240 C   0  0  0  0  0  0  0  0  0  0  0  0
   35.7880   26.5830   30.4840 N   0  0  0  0  0  0  0  0  0  0  0  0
   35.7850   27.4410   31.6680 C   0  0  0  0  0  0  0  0  0  0  0  0
   36.9830   27.0240   32.4770 C   0  0  1  0  0  0  0  0  0  0  0  0
   35.6770   24.1470   32.6430 H   0  0  0  0  0  0  0  0  0  0  0  0
   36.8120   23.7950   31.3400 H   0  0  0  0  0  0  0  0  0  0  0  0
   34.3000   25.4710   31.4340 H   0  0  0  0  0  0  0  0  0  0  0  0
   35.0530   24.6340   30.0700 H   0  0  0  0  0  0  0  0  0  0  0  0
   36.7940   26.4300   30.2030 H   0  0  0  0  0  0  0  0  0  0  0  0
   35.8980   28.4950   31.3520 H   0  0  0  0  0  0  0  0  0  0  0  0
   34.8280   27.2660   32.1870 H   0  0  0  0  0  0  0  0  0  0  0  0
   37.8730   27.4710   31.9900 H   0  0  0  0  0  0  0  0  0  0  0  0
   39.6180   25.4650   32.8190 C   0  0  0  0  0  0  0  0  0  0  0  0
   38.3120   25.0870   33.1570 C   0  0  0  0  0  0  0  0  0  0  0  0
   38.1430   24.1860   34.2250 C   0  0  0  0  0  0  0  0  0  0  0  0
   39.2780   23.7340   34.8680 N   0  0  0  0  0  0  0  0  0  0  0  0
   40.5130   24.1420   34.4880 C   0  0  0  0  0  0  0  0  0  0  0  0
   40.7020   25.0000   33.4740 N   0  0  0  0  0  0  0  0  0  0  0  0
   39.7620   26.1530   32.0060 H   0  0  0  0  0  0  0  0  0  0  0  0
   37.1730   23.8450   34.5490 H   0  0  0  0  0  0  0  0  0  0  0  0
   41.3990   23.7840   34.9960 H   0  0  0  0  0  0  0  0  0  0  0  0
   36.9360   27.5220   33.8910 C   0  0  0  0  0  2  0  0  0  0  0  0
   36.0040   28.7050   34.0450 C   0  0  0  0  0  2  0  0  0  0  0  0
   35.6930   28.8320   35.1010 H   0  0  0  0  0  0  0  0  0  0  0  0
  1  6  1  0  0  0  0
  1 16  1  0  0  0  0
  2  1  1  0  0  0  0
  2  7  1  0  0  0  0
  3  9  1  0  0  0  0
  3  2  1  0  0  0  0
  4  3  1  0  0  0  0
  4  5  1  0  0  0  0
  5 13  1  0  0  0  0
  5  6  1  0  0  0  0
  6 14  1  6  0  0  0
  6 24  1  0  0  0  0
  8  2  1  0  0  0  0
 10  3  1  0  0  0  0
 11  4  1  0  0  0  0
 12  5  1  0  0  0  0
 15 16  2  0  0  0  0
 15 20  1  0  0  0  0
 16 17  1  0  0  0  0
 17 22  1  0  0  0  0
 17 18  2  0  0  0  0
 19 18  1  0  0  0  0
 19 23  1  0  0  0  0
 20 19  2  0  0  0  0
 21 15  1  0  0  0  0
 24 25  1  0  0  0  0
 25 26  1  0  0  0  0
M  END
>  <minimizedAffinity>
-3.55108738

$$$$
