
 OpenBabel03272502143D

 36 38  0  0  1  0  0  0  0  0999 V2000
   38.2820   32.3510   48.2880 C   0  0  0  0  0  0  0  0  0  0  0  0
   38.8650   33.3550   49.0190 C   0  0  0  0  0  0  0  0  0  0  0  0
   39.8210   34.2360   48.4920 C   0  0  0  0  0  0  0  0  0  0  0  0
   40.1740   34.0700   47.1880 N   0  0  0  0  0  0  0  0  0  0  0  0
   39.6040   33.0870   46.4720 C   0  0  0  0  0  0  0  0  0  0  0  0
   38.6920   32.2560   46.9980 N   0  0  0  0  0  0  0  0  0  0  0  0
   38.6080   33.5140   50.0530 H   0  0  0  0  0  0  0  0  0  0  0  0
   40.2740   35.0140   49.0550 H   0  0  0  0  0  0  0  0  0  0  0  0
   39.9930   32.9150   45.0630 C   0  0  2  0  0  0  0  0  0  0  0  0
   38.8700   33.1140   44.0770 C   0  0  0  0  0  0  0  0  0  0  0  0
   39.3500   32.2700   42.8740 C   0  0  0  0  0  0  0  0  0  0  0  0
   40.5570   31.5060   43.3400 C   0  0  0  0  0  0  0  0  0  0  0  0
   40.3070   31.4540   44.8390 C   0  0  1  0  0  0  0  0  0  0  0  0
   40.8580   33.5260   44.7830 H   0  0  0  0  0  0  0  0  0  0  0  0
   37.8940   32.7950   44.4370 H   0  0  0  0  0  0  0  0  0  0  0  0
   38.9310   34.1730   43.7480 H   0  0  0  0  0  0  0  0  0  0  0  0
   38.5400   31.5060   42.6940 H   0  0  0  0  0  0  0  0  0  0  0  0
   39.5200   32.8840   41.9870 H   0  0  0  0  0  0  0  0  0  0  0  0
   40.6270   30.4960   42.8890 H   0  0  0  0  0  0  0  0  0  0  0  0
   41.4760   32.1010   43.1890 H   0  0  0  0  0  0  0  0  0  0  0  0
   39.4030   30.8520   45.0340 H   0  0  0  0  0  0  0  0  0  0  0  0
   41.4640   30.9430   45.6250 C   0  0  0  0  0  0  0  0  0  0  0  0
   42.3940   31.4250   45.3240 H   0  0  0  0  0  0  0  0  0  0  0  0
   41.2160   31.0970   46.6910 H   0  0  0  0  0  0  0  0  0  0  0  0
   41.4950   29.8490   45.4720 H   0  0  0  0  0  0  0  0  0  0  0  0
   37.2060   31.1090   50.1870 C   0  0  0  0  0  0  0  0  0  0  0  0
   37.3060   31.4520   48.8280 C   0  0  0  0  0  0  0  0  0  0  0  0
   36.3850   30.8670   47.9870 C   0  0  0  0  0  0  0  0  0  0  0  0
   35.4570   30.0140   48.4930 N   0  0  0  0  0  0  0  0  0  0  0  0
   35.4040   29.7180   49.8060 C   0  0  0  0  0  0  0  0  0  0  0  0
   36.2920   30.2740   50.6540 N   0  0  0  0  0  0  0  0  0  0  0  0
   37.9370   31.5730   50.8560 H   0  0  0  0  0  0  0  0  0  0  0  0
   36.4250   31.1040   46.9320 H   0  0  0  0  0  0  0  0  0  0  0  0
   34.3640   28.7740   50.3130 C   0  0  0  0  0  0  0  0  0  0  0  0
   33.5260   28.2610   49.1670 C   0  0  0  0  0  0  0  0  0  0  0  0
   33.0800   27.2780   49.3460 H   0  0  0  0  0  0  0  0  0  0  0  0
  1 27  1  0  0  0  0
  1  2  1  0  0  0  0
  2  7  1  0  0  0  0
  3  2  2  0  0  0  0
  3  8  1  0  0  0  0
  4  3  1  0  0  0  0
  5  6  1  0  0  0  0
  5  4  2  0  0  0  0
  6  1  2  0  0  0  0
  9 14  1  6  0  0  0
  9  5  1  0  0  0  0
 10 15  1  0  0  0  0
 10  9  1  0  0  0  0
 11 12  1  0  0  0  0
 11 10  1  0  0  0  0
 12 13  1  0  0  0  0
 13 21  1  1  0  0  0
 13  9  1  0  0  0  0
 13 22  1  0  0  0  0
 16 10  1  0  0  0  0
 17 11  1  0  0  0  0
 18 11  1  0  0  0  0
 19 12  1  0  0  0  0
 20 12  1  0  0  0  0
 22 24  1  0  0  0  0
 23 22  1  0  0  0  0
 25 22  1  0  0  0  0
 26 31  1  0  0  0  0
 26 32  1  0  0  0  0
 27 26  2  0  0  0  0
 28 29  2  0  0  0  0
 28 27  1  0  0  0  0
 29 30  1  0  0  0  0
 30 34  1  0  0  0  0
 30 31  2  0  0  0  0
 33 28  1  0  0  0  0
 35 36  1  0  0  0  0
 35 34  1  0  0  0  0
M  END
>  <minimizedAffinity>
-5.46185398

>  <minimizedRMSD>
0.808537662

$$$$
