
 OpenBabel03272505203D

 42 44  0  0  1  0  0  0  0  0999 V2000
   37.2980   30.0620   50.0170 C   0  0  0  0  0  0  0  0  0  0  0  0
   38.2170   30.6320   49.1060 C   0  0  0  0  0  0  0  0  0  0  0  0
   37.9320   30.6820   47.7390 C   0  0  0  0  0  0  0  0  0  0  0  0
   36.7230   30.1420   47.4310 N   0  0  0  0  0  0  0  0  0  0  0  0
   35.8500   29.6040   48.2800 C   0  0  0  0  0  0  0  0  0  0  0  0
   36.1460   29.5670   49.5820 N   0  0  0  0  0  0  0  0  0  0  0  0
   34.6190   29.0780   47.7800 N   0  0  0  0  0  0  0  0  0  0  0  0
   33.9500   27.9850   48.4560 C   0  0  0  0  0  0  0  0  0  0  0  0
   33.9160   26.8510   47.4210 C   0  0  0  0  0  0  0  0  0  0  0  0
   33.0770   27.3220   46.2800 C   0  0  0  0  0  0  0  0  0  0  0  0
   33.6980   28.5350   45.6200 C   0  0  0  0  0  0  0  0  0  0  0  0
   34.0210   29.6380   46.5790 C   0  0  1  0  0  0  0  0  0  0  0  0
   37.5660   30.0470   51.0620 H   0  0  0  0  0  0  0  0  0  0  0  0
   39.1420   31.0210   49.5240 H   0  0  0  0  0  0  0  0  0  0  0  0
   32.9020   28.2420   48.7280 H   0  0  0  0  0  0  0  0  0  0  0  0
   34.5370   27.6620   49.3330 H   0  0  0  0  0  0  0  0  0  0  0  0
   34.9370   26.5790   47.1370 H   0  0  0  0  0  0  0  0  0  0  0  0
   33.3650   26.0250   47.9410 H   0  0  0  0  0  0  0  0  0  0  0  0
   32.0720   27.5940   46.6760 H   0  0  0  0  0  0  0  0  0  0  0  0
   32.9950   26.5410   45.5180 H   0  0  0  0  0  0  0  0  0  0  0  0
   33.0270   28.8630   44.8100 H   0  0  0  0  0  0  0  0  0  0  0  0
   34.6710   28.2030   45.1570 H   0  0  0  0  0  0  0  0  0  0  0  0
   34.8050   30.2660   46.0630 H   0  0  0  0  0  0  0  0  0  0  0  0
   39.3330   32.5520   47.1280 C   0  0  0  0  0  0  0  0  0  0  0  0
   38.9250   31.2800   46.8910 C   0  0  0  0  0  0  0  0  0  0  0  0
   39.5030   30.6270   45.8250 C   0  0  0  0  0  0  0  0  0  0  0  0
   40.4250   31.1780   45.0360 C   0  0  0  0  0  0  0  0  0  0  0  0
   40.8650   32.4850   45.2540 C   0  0  0  0  0  0  0  0  0  0  0  0
   40.2960   33.1420   46.3120 C   0  0  0  0  0  0  0  0  0  0  0  0
   39.1730   29.6000   45.6350 H   0  0  0  0  0  0  0  0  0  0  0  0
   40.8460   30.6170   44.2130 H   0  0  0  0  0  0  0  0  0  0  0  0
   41.6070   32.9140   44.6120 H   0  0  0  0  0  0  0  0  0  0  0  0
   40.6700   34.1560   46.4430 H   0  0  0  0  0  0  0  0  0  0  0  0
   39.6430   34.4250   48.5730 N   0  0  0  0  0  0  0  0  0  0  0  0
   38.8750   33.4220   48.1750 C   0  0  0  0  0  0  0  0  0  0  0  0
   37.8240   33.6810   49.0550 N   0  0  0  0  0  0  0  0  0  0  0  0
   39.2930   35.0620   49.3280 H   0  0  0  0  0  0  0  0  0  0  0  0
   37.7870   33.3830   50.0650 H   0  0  0  0  0  0  0  0  0  0  0  0
   37.0330   34.2180   48.6290 H   0  0  0  0  0  0  0  0  0  0  0  0
   32.8740   30.5560   46.8380 C   0  0  0  0  0  0  0  0  0  0  0  0
   32.2520   30.9270   45.5110 C   0  0  0  0  0  0  0  0  0  0  0  0
   32.0760   32.0380   45.4400 H   0  0  0  0  0  0  0  0  0  0  0  0
  1 13  1  0  0  0  0
  2 14  1  0  0  0  0
  2  1  2  0  0  0  0
  3  2  1  0  0  0  0
  4  3  2  0  0  0  0
  4  5  1  0  0  0  0
  5  6  2  0  0  0  0
  6  1  1  0  0  0  0
  7  5  1  0  0  0  0
  7  8  1  0  0  0  0
  8 15  1  0  0  0  0
  8 16  1  0  0  0  0
  9 18  1  0  0  0  0
  9  8  1  0  0  0  0
 10 19  1  0  0  0  0
 10  9  1  0  0  0  0
 11 10  1  0  0  0  0
 11 12  1  0  0  0  0
 12 23  1  6  0  0  0
 12 40  1  0  0  0  0
 12  7  1  0  0  0  0
 17  9  1  0  0  0  0
 20 10  1  0  0  0  0
 21 11  1  0  0  0  0
 22 11  1  0  0  0  0
 24 35  1  0  0  0  0
 25 24  1  0  0  0  0
 25  3  1  0  0  0  0
 26 25  2  0  0  0  0
 27 28  2  0  0  0  0
 27 26  1  0  0  0  0
 28 29  1  0  0  0  0
 29 33  1  0  0  0  0
 29 24  2  0  0  0  0
 30 26  1  0  0  0  0
 31 27  1  0  0  0  0
 32 28  1  0  0  0  0
 34 37  1  0  0  0  0
 35 34  2  0  0  0  0
 35 36  1  0  0  0  0
 36 38  1  0  0  0  0
 39 36  1  0  0  0  0
 41 40  1  0  0  0  0
 42 41  1  0  0  0  0
M  END
>  <minimizedAffinity>
-6.47543144

>  <minimizedRMSD>
0.709389448

$$$$
