
 OpenBabel03272503273D

 24 25  0  0  1  0  0  0  0  0999 V2000
   38.4790   25.7270   35.2170 N   0  0  0  0  0  0  0  0  0  0  0  0
   37.7000   25.5840   33.9970 C   0  0  0  0  0  0  0  0  0  0  0  0
   37.0560   26.9580   33.8730 C   0  0  1  0  0  0  0  0  0  0  0  0
   37.4510   27.7340   35.1200 C   0  0  0  0  0  0  0  0  0  0  0  0
   38.8240   27.1390   35.3710 C   0  0  0  0  0  0  0  0  0  0  0  0
   36.8420   24.8720   34.1570 H   0  0  0  0  0  0  0  0  0  0  0  0
   38.2760   25.2830   33.1230 H   0  0  0  0  0  0  0  0  0  0  0  0
   35.9560   26.9190   33.7860 H   0  0  0  0  0  0  0  0  0  0  0  0
   37.4620   28.8100   34.9620 H   0  0  0  0  0  0  0  0  0  0  0  0
   36.7330   27.4900   35.9240 H   0  0  0  0  0  0  0  0  0  0  0  0
   39.1760   27.3360   36.3960 H   0  0  0  0  0  0  0  0  0  0  0  0
   39.4940   27.4870   34.5800 H   0  0  0  0  0  0  0  0  0  0  0  0
   38.8520   24.7010   36.1140 C   0  0  0  0  0  0  0  0  0  0  0  0
   38.0940   24.5660   37.2750 C   0  0  0  0  0  0  0  0  0  0  0  0
   38.3990   23.5750   38.2140 C   0  0  0  0  0  0  0  0  0  0  0  0
   39.4800   22.7670   37.9050 N   0  0  0  0  0  0  0  0  0  0  0  0
   40.1950   22.9300   36.7650 C   0  0  0  0  0  0  0  0  0  0  0  0
   39.8840   23.8910   35.8720 N   0  0  0  0  0  0  0  0  0  0  0  0
   37.2540   25.1710   37.5430 H   0  0  0  0  0  0  0  0  0  0  0  0
   37.8740   23.4000   39.1260 H   0  0  0  0  0  0  0  0  0  0  0  0
   41.0320   22.2840   36.5530 H   0  0  0  0  0  0  0  0  0  0  0  0
   37.6540   27.5830   32.6330 C   0  0  0  0  0  2  0  0  0  0  0  0
   36.7570   28.6020   31.9790 C   0  0  0  0  0  2  0  0  0  0  0  0
   35.7170   28.2240   31.9990 H   0  0  0  0  0  0  0  0  0  0  0  0
  1  5  1  0  0  0  0
  1 13  1  0  0  0  0
  2  6  1  0  0  0  0
  2  1  1  0  0  0  0
  3  8  1  6  0  0  0
  3  2  1  0  0  0  0
  3  4  1  0  0  0  0
  4  5  1  0  0  0  0
  4 10  1  0  0  0  0
  5 11  1  0  0  0  0
  7  2  1  0  0  0  0
  9  4  1  0  0  0  0
 12  5  1  0  0  0  0
 13 14  1  0  0  0  0
 14 19  1  0  0  0  0
 14 15  2  0  0  0  0
 15 20  1  0  0  0  0
 16 15  1  0  0  0  0
 17 16  2  0  0  0  0
 18 13  2  0  0  0  0
 18 17  1  0  0  0  0
 21 17  1  0  0  0  0
 22  3  1  0  0  0  0
 23 24  1  0  0  0  0
 23 22  1  0  0  0  0
M  END
>  <minimizedAffinity>
-4.00557375

$$$$

 OpenBabel03272503273D

 24 25  0  0  1  0  0  0  0  0999 V2000
   38.3390   25.7600   35.2190 N   0  0  0  0  0  0  0  0  0  0  0  0
   37.8350   25.5250   33.8750 C   0  0  0  0  0  0  0  0  0  0  0  0
   37.0850   26.8180   33.5900 C   0  0  1  0  0  0  0  0  0  0  0  0
   37.1410   27.6400   34.8680 C   0  0  0  0  0  0  0  0  0  0  0  0
   38.4940   27.2030   35.3980 C   0  0  0  0  0  0  0  0  0  0  0  0
   37.0430   24.7220   33.8860 H   0  0  0  0  0  0  0  0  0  0  0  0
   38.6000   25.2830   33.1390 H   0  0  0  0  0  0  0  0  0  0  0  0
   36.0330   26.6570   33.2920 H   0  0  0  0  0  0  0  0  0  0  0  0
   37.0680   28.7100   34.6850 H   0  0  0  0  0  0  0  0  0  0  0  0
   36.3090   27.3240   35.5240 H   0  0  0  0  0  0  0  0  0  0  0  0
   38.6150   27.4440   36.4650 H   0  0  0  0  0  0  0  0  0  0  0  0
   39.2650   27.6180   34.7430 H   0  0  0  0  0  0  0  0  0  0  0  0
   38.6360   24.7880   36.2000 C   0  0  0  0  0  0  0  0  0  0  0  0
   39.6520   23.8810   35.9090 C   0  0  0  0  0  0  0  0  0  0  0  0
   40.0070   22.8880   36.8300 C   0  0  0  0  0  0  0  0  0  0  0  0
   39.2880   22.8820   38.0120 N   0  0  0  0  0  0  0  0  0  0  0  0
   38.3040   23.7810   38.2600 C   0  0  0  0  0  0  0  0  0  0  0  0
   37.9790   24.7310   37.3600 N   0  0  0  0  0  0  0  0  0  0  0  0
   40.2260   23.8590   35.0080 H   0  0  0  0  0  0  0  0  0  0  0  0
   40.7690   22.1550   36.6900 H   0  0  0  0  0  0  0  0  0  0  0  0
   37.7630   23.7500   39.1910 H   0  0  0  0  0  0  0  0  0  0  0  0
   37.8430   27.4960   32.4730 C   0  0  0  0  0  2  0  0  0  0  0  0
   37.0410   28.5480   31.7510 C   0  0  0  0  0  2  0  0  0  0  0  0
   36.0090   28.1740   31.6110 H   0  0  0  0  0  0  0  0  0  0  0  0
  1  5  1  0  0  0  0
  1 13  1  0  0  0  0
  2  6  1  0  0  0  0
  2  1  1  0  0  0  0
  3  8  1  6  0  0  0
  3  2  1  0  0  0  0
  3  4  1  0  0  0  0
  4  5  1  0  0  0  0
  4 10  1  0  0  0  0
  5 11  1  0  0  0  0
  7  2  1  0  0  0  0
  9  4  1  0  0  0  0
 12  5  1  0  0  0  0
 13 18  1  0  0  0  0
 14 13  2  0  0  0  0
 14 15  1  0  0  0  0
 15 16  2  0  0  0  0
 16 17  1  0  0  0  0
 17 21  1  0  0  0  0
 18 17  2  0  0  0  0
 19 14  1  0  0  0  0
 20 15  1  0  0  0  0
 22  3  1  0  0  0  0
 23 22  1  0  0  0  0
 24 23  1  0  0  0  0
M  END
>  <minimizedAffinity>
-3.93468952

$$$$

 OpenBabel03272503273D

 24 25  0  0  1  0  0  0  0  0999 V2000
   36.9700   21.6540   33.5130 N   0  0  0  0  0  0  0  0  0  0  0  0
   35.8610   20.7620   33.8120 C   0  0  0  0  0  0  0  0  0  0  0  0
   34.9660   20.9550   32.5960 C   0  0  1  0  0  0  0  0  0  0  0  0
   35.6100   22.0450   31.7540 C   0  0  0  0  0  0  0  0  0  0  0  0
   37.0720   21.7770   32.0600 C   0  0  0  0  0  0  0  0  0  0  0  0
   35.2620   21.1540   34.6820 H   0  0  0  0  0  0  0  0  0  0  0  0
   36.1470   19.7270   33.9930 H   0  0  0  0  0  0  0  0  0  0  0  0
   33.9310   21.2420   32.8560 H   0  0  0  0  0  0  0  0  0  0  0  0
   35.3620   21.9650   30.6980 H   0  0  0  0  0  0  0  0  0  0  0  0
   35.2730   23.0260   32.1350 H   0  0  0  0  0  0  0  0  0  0  0  0
   37.7110   22.6340   31.7940 H   0  0  0  0  0  0  0  0  0  0  0  0
   37.3500   20.8320   31.5850 H   0  0  0  0  0  0  0  0  0  0  0  0
   37.8160   22.3020   34.4400 C   0  0  0  0  0  0  0  0  0  0  0  0
   38.8810   23.0370   33.9230 C   0  0  0  0  0  0  0  0  0  0  0  0
   39.7640   23.7080   34.7760 C   0  0  0  0  0  0  0  0  0  0  0  0
   39.5020   23.5850   36.1290 N   0  0  0  0  0  0  0  0  0  0  0  0
   38.4550   22.8600   36.5960 C   0  0  0  0  0  0  0  0  0  0  0  0
   37.6150   22.2210   35.7570 N   0  0  0  0  0  0  0  0  0  0  0  0
   39.1110   23.1520   32.8860 H   0  0  0  0  0  0  0  0  0  0  0  0
   40.6020   24.2910   34.4680 H   0  0  0  0  0  0  0  0  0  0  0  0
   38.2780   22.7840   37.6560 H   0  0  0  0  0  0  0  0  0  0  0  0
   34.9700   19.6310   31.8670 C   0  0  0  0  0  2  0  0  0  0  0  0
   35.3120   18.4580   32.7490 C   0  0  0  0  0  2  0  0  0  0  0  0
   36.1360   18.7530   33.4270 H   0  0  0  0  0  0  0  0  0  0  0  0
  1  2  1  0  0  0  0
  1 13  1  0  0  0  0
  2  7  1  0  0  0  0
  2  6  1  0  0  0  0
  3  8  1  1  0  0  0
  3  2  1  0  0  0  0
  4  5  1  0  0  0  0
  4 10  1  0  0  0  0
  4  3  1  0  0  0  0
  5  1  1  0  0  0  0
  9  4  1  0  0  0  0
 11  5  1  0  0  0  0
 12  5  1  0  0  0  0
 13 18  1  0  0  0  0
 14 13  2  0  0  0  0
 14 15  1  0  0  0  0
 15 16  2  0  0  0  0
 16 17  1  0  0  0  0
 17 21  1  0  0  0  0
 18 17  2  0  0  0  0
 19 14  1  0  0  0  0
 20 15  1  0  0  0  0
 22  3  1  0  0  0  0
 22 23  1  0  0  0  0
 23 24  1  0  0  0  0
M  END
>  <minimizedAffinity>
-3.82314658

$$$$

 OpenBabel03272503273D

 24 25  0  0  1  0  0  0  0  0999 V2000
   38.9690   23.8170   35.8780 N   0  0  0  0  0  0  0  0  0  0  0  0
   40.3980   23.5500   35.9080 C   0  0  0  0  0  0  0  0  0  0  0  0
   40.5890   23.0210   37.3230 C   0  0  1  0  0  0  0  0  0  0  0  0
   39.2410   23.1440   38.0150 C   0  0  0  0  0  0  0  0  0  0  0  0
   38.3200   22.9170   36.8310 C   0  0  0  0  0  0  0  0  0  0  0  0
   40.9810   24.5140   35.8740 H   0  0  0  0  0  0  0  0  0  0  0  0
   40.7510   22.8740   35.1300 H   0  0  0  0  0  0  0  0  0  0  0  0
   41.3580   23.5720   37.8950 H   0  0  0  0  0  0  0  0  0  0  0  0
   39.1100   22.4190   38.8160 H   0  0  0  0  0  0  0  0  0  0  0  0
   39.1520   24.1650   38.4280 H   0  0  0  0  0  0  0  0  0  0  0  0
   37.2940   23.2560   37.0370 H   0  0  0  0  0  0  0  0  0  0  0  0
   38.4060   21.8690   36.5300 H   0  0  0  0  0  0  0  0  0  0  0  0
   38.2970   24.7690   35.0800 C   0  0  0  0  0  0  0  0  0  0  0  0
   37.9300   25.9650   35.6930 C   0  0  0  0  0  0  0  0  0  0  0  0
   37.2610   26.9600   34.9710 C   0  0  0  0  0  0  0  0  0  0  0  0
   37.0020   26.6670   33.6440 N   0  0  0  0  0  0  0  0  0  0  0  0
   37.3740   25.4910   33.0820 C   0  0  0  0  0  0  0  0  0  0  0  0
   38.0190   24.5450   33.7950 N   0  0  0  0  0  0  0  0  0  0  0  0
   38.1150   26.2230   36.7140 H   0  0  0  0  0  0  0  0  0  0  0  0
   36.9440   27.9020   35.3580 H   0  0  0  0  0  0  0  0  0  0  0  0
   37.1580   25.2930   32.0440 H   0  0  0  0  0  0  0  0  0  0  0  0
   40.9930   21.5730   37.1710 C   0  0  0  0  0  2  0  0  0  0  0  0
   42.4630   21.3820   36.9010 C   0  0  0  0  0  2  0  0  0  0  0  0
   42.7970   22.1580   36.1870 H   0  0  0  0  0  0  0  0  0  0  0  0
  1  2  1  0  0  0  0
  1  5  1  0  0  0  0
  2  3  1  0  0  0  0
  3  8  1  1  0  0  0
  3  4  1  0  0  0  0
  4 10  1  0  0  0  0
  4  9  1  0  0  0  0
  5 11  1  0  0  0  0
  5  4  1  0  0  0  0
  6  2  1  0  0  0  0
  7  2  1  0  0  0  0
 12  5  1  0  0  0  0
 13 14  1  0  0  0  0
 13  1  1  0  0  0  0
 14 19  1  0  0  0  0
 15 20  1  0  0  0  0
 15 14  2  0  0  0  0
 16 15  1  0  0  0  0
 17 16  2  0  0  0  0
 17 18  1  0  0  0  0
 18 13  2  0  0  0  0
 21 17  1  0  0  0  0
 22  3  1  0  0  0  0
 23 22  1  0  0  0  0
 24 23  1  0  0  0  0
M  END
>  <minimizedAffinity>
-3.79002333

$$$$

 OpenBabel03272503273D

 24 25  0  0  1  0  0  0  0  0999 V2000
   38.0120   22.1970   35.2630 N   0  0  0  0  0  0  0  0  0  0  0  0
   39.4580   22.2640   35.4020 C   0  0  0  0  0  0  0  0  0  0  0  0
   39.6220   23.3580   36.4470 C   0  0  1  0  0  0  0  0  0  0  0  0
   38.2290   23.8990   36.7300 C   0  0  0  0  0  0  0  0  0  0  0  0
   37.4150   22.6360   36.5240 C   0  0  0  0  0  0  0  0  0  0  0  0
   39.9260   22.6810   34.4650 H   0  0  0  0  0  0  0  0  0  0  0  0
   39.9330   21.3210   35.6680 H   0  0  0  0  0  0  0  0  0  0  0  0
   40.2860   24.1780   36.1200 H   0  0  0  0  0  0  0  0  0  0  0  0
   38.1360   24.3220   37.7270 H   0  0  0  0  0  0  0  0  0  0  0  0
   37.9980   24.6770   35.9790 H   0  0  0  0  0  0  0  0  0  0  0  0
   36.3450   22.8550   36.3830 H   0  0  0  0  0  0  0  0  0  0  0  0
   37.6400   21.9500   37.3450 H   0  0  0  0  0  0  0  0  0  0  0  0
   37.2830   21.7870   34.1240 C   0  0  0  0  0  0  0  0  0  0  0  0
   36.1840   20.9580   34.3380 C   0  0  0  0  0  0  0  0  0  0  0  0
   35.4110   20.5080   33.2620 C   0  0  0  0  0  0  0  0  0  0  0  0
   35.8150   20.9390   32.0100 N   0  0  0  0  0  0  0  0  0  0  0  0
   36.8920   21.7460   31.8410 C   0  0  0  0  0  0  0  0  0  0  0  0
   37.6230   22.1690   32.8920 N   0  0  0  0  0  0  0  0  0  0  0  0
   35.8450   20.6080   35.2890 H   0  0  0  0  0  0  0  0  0  0  0  0
   34.5560   19.8740   33.3330 H   0  0  0  0  0  0  0  0  0  0  0  0
   37.1810   22.0640   30.8530 H   0  0  0  0  0  0  0  0  0  0  0  0
   40.1990   22.6780   37.6680 C   0  0  0  0  0  2  0  0  0  0  0  0
   41.2630   21.6610   37.3450 C   0  0  0  0  0  2  0  0  0  0  0  0
   40.9460   21.0870   36.4530 H   0  0  0  0  0  0  0  0  0  0  0  0
  1  2  1  0  0  0  0
  1  5  1  0  0  0  0
  2  7  1  0  0  0  0
  2  3  1  0  0  0  0
  3  8  1  6  0  0  0
  3  4  1  0  0  0  0
  3 22  1  0  0  0  0
  4  9  1  0  0  0  0
  5  4  1  0  0  0  0
  5 12  1  0  0  0  0
  6  2  1  0  0  0  0
 10  4  1  0  0  0  0
 11  5  1  0  0  0  0
 13 14  1  0  0  0  0
 13  1  1  0  0  0  0
 14 19  1  0  0  0  0
 15 20  1  0  0  0  0
 15 14  2  0  0  0  0
 16 15  1  0  0  0  0
 17 16  2  0  0  0  0
 17 18  1  0  0  0  0
 18 13  2  0  0  0  0
 21 17  1  0  0  0  0
 23 22  1  0  0  0  0
 24 23  1  0  0  0  0
M  END
>  <minimizedAffinity>
-3.77616501

$$$$

 OpenBabel03272503273D

 24 25  0  0  1  0  0  0  0  0999 V2000
   38.4910   24.8960   35.2980 N   0  0  0  0  0  0  0  0  0  0  0  0
   37.9460   23.9700   36.2790 C   0  0  0  0  0  0  0  0  0  0  0  0
   38.9840   22.8560   36.2700 C   0  0  1  0  0  0  0  0  0  0  0  0
   39.9860   23.2090   35.1820 C   0  0  0  0  0  0  0  0  0  0  0  0
   39.9430   24.7220   35.2700 C   0  0  0  0  0  0  0  0  0  0  0  0
   37.0010   23.4940   35.8890 H   0  0  0  0  0  0  0  0  0  0  0  0
   37.7670   24.4030   37.2620 H   0  0  0  0  0  0  0  0  0  0  0  0
   38.5520   21.8580   36.0760 H   0  0  0  0  0  0  0  0  0  0  0  0
   40.9720   22.7870   35.3650 H   0  0  0  0  0  0  0  0  0  0  0  0
   39.6000   22.8320   34.2170 H   0  0  0  0  0  0  0  0  0  0  0  0
   40.3660   25.1990   34.3730 H   0  0  0  0  0  0  0  0  0  0  0  0
   40.4110   25.0200   36.2130 H   0  0  0  0  0  0  0  0  0  0  0  0
   37.7720   25.8120   34.4990 C   0  0  0  0  0  0  0  0  0  0  0  0
   37.3890   27.0110   35.0940 C   0  0  0  0  0  0  0  0  0  0  0  0
   36.6740   27.9710   34.3690 C   0  0  0  0  0  0  0  0  0  0  0  0
   36.3880   27.6410   33.0560 N   0  0  0  0  0  0  0  0  0  0  0  0
   36.7770   26.4620   32.5110 C   0  0  0  0  0  0  0  0  0  0  0  0
   37.4660   25.5510   33.2270 N   0  0  0  0  0  0  0  0  0  0  0  0
   37.5940   27.2970   36.1040 H   0  0  0  0  0  0  0  0  0  0  0  0
   36.3420   28.9130   34.7440 H   0  0  0  0  0  0  0  0  0  0  0  0
   36.5380   26.2350   31.4840 H   0  0  0  0  0  0  0  0  0  0  0  0
   39.6310   22.8860   37.6350 C   0  0  0  0  0  2  0  0  0  0  0  0
   38.7590   23.4940   38.7030 C   0  0  0  0  0  2  0  0  0  0  0  0
   38.2470   24.3810   38.2810 H   0  0  0  0  0  0  0  0  0  0  0  0
  1  2  1  0  0  0  0
  2  7  1  0  0  0  0
  3  8  1  6  0  0  0
  3  2  1  0  0  0  0
  3 22  1  0  0  0  0
  4  5  1  0  0  0  0
  4  9  1  0  0  0  0
  4  3  1  0  0  0  0
  5  1  1  0  0  0  0
  5 12  1  0  0  0  0
  6  2  1  0  0  0  0
 10  4  1  0  0  0  0
 11  5  1  0  0  0  0
 13 14  1  0  0  0  0
 13  1  1  0  0  0  0
 14 19  1  0  0  0  0
 15 20  1  0  0  0  0
 15 14  2  0  0  0  0
 16 15  1  0  0  0  0
 17 16  2  0  0  0  0
 17 18  1  0  0  0  0
 18 13  2  0  0  0  0
 21 17  1  0  0  0  0
 22 23  1  0  0  0  0
 24 23  1  0  0  0  0
M  END
>  <minimizedAffinity>
-3.77254224

$$$$

 OpenBabel03272503273D

 24 25  0  0  1  0  0  0  0  0999 V2000
   38.0750   25.4430   35.0950 N   0  0  0  0  0  0  0  0  0  0  0  0
   37.7740   26.8590   35.2290 C   0  0  0  0  0  0  0  0  0  0  0  0
   38.0010   27.3650   33.8110 C   0  0  1  0  0  0  0  0  0  0  0  0
   38.5280   26.1840   33.0110 C   0  0  0  0  0  0  0  0  0  0  0  0
   37.8020   25.0510   33.7120 C   0  0  0  0  0  0  0  0  0  0  0  0
   38.5600   27.3730   35.8530 H   0  0  0  0  0  0  0  0  0  0  0  0
   36.7830   27.0780   35.6250 H   0  0  0  0  0  0  0  0  0  0  0  0
   38.7150   28.2060   33.7560 H   0  0  0  0  0  0  0  0  0  0  0  0
   38.3010   26.2580   31.9500 H   0  0  0  0  0  0  0  0  0  0  0  0
   39.6240   26.1310   33.1480 H   0  0  0  0  0  0  0  0  0  0  0  0
   38.2590   24.0740   33.4960 H   0  0  0  0  0  0  0  0  0  0  0  0
   36.7390   25.1260   33.4670 H   0  0  0  0  0  0  0  0  0  0  0  0
   38.5500   24.5730   36.1020 C   0  0  0  0  0  0  0  0  0  0  0  0
   39.6970   23.8360   35.8160 C   0  0  0  0  0  0  0  0  0  0  0  0
   40.2290   22.9530   36.7620 C   0  0  0  0  0  0  0  0  0  0  0  0
   39.5460   22.8750   37.9630 N   0  0  0  0  0  0  0  0  0  0  0  0
   38.4320   23.6080   38.2040 C   0  0  0  0  0  0  0  0  0  0  0  0
   37.9350   24.4540   37.2800 N   0  0  0  0  0  0  0  0  0  0  0  0
   40.2480   23.8730   34.9010 H   0  0  0  0  0  0  0  0  0  0  0  0
   41.1010   22.3510   36.6280 H   0  0  0  0  0  0  0  0  0  0  0  0
   37.9220   23.5240   39.1500 H   0  0  0  0  0  0  0  0  0  0  0  0
   36.6440   27.8010   33.3070 C   0  0  0  0  0  2  0  0  0  0  0  0
   35.9470   28.7770   34.2190 C   0  0  0  0  0  2  0  0  0  0  0  0
   36.1050   28.4570   35.2680 H   0  0  0  0  0  0  0  0  0  0  0  0
  1  2  1  0  0  0  0
  1 13  1  0  0  0  0
  2  7  1  0  0  0  0
  2  6  1  0  0  0  0
  3  8  1  6  0  0  0
  3  2  1  0  0  0  0
  4 10  1  0  0  0  0
  4  5  1  0  0  0  0
  4  3  1  0  0  0  0
  5  1  1  0  0  0  0
  9  4  1  0  0  0  0
 11  5  1  0  0  0  0
 12  5  1  0  0  0  0
 13 18  1  0  0  0  0
 14 13  2  0  0  0  0
 14 15  1  0  0  0  0
 15 16  2  0  0  0  0
 16 17  1  0  0  0  0
 17 21  1  0  0  0  0
 18 17  2  0  0  0  0
 19 14  1  0  0  0  0
 20 15  1  0  0  0  0
 22  3  1  0  0  0  0
 22 23  1  0  0  0  0
 23 24  1  0  0  0  0
M  END
>  <minimizedAffinity>
-3.74483585

$$$$

 OpenBabel03272503273D

 24 25  0  0  1  0  0  0  0  0999 V2000
   37.4290   27.0350   33.9540 N   0  0  0  0  0  0  0  0  0  0  0  0
   37.7780   25.6350   34.1330 C   0  0  0  0  0  0  0  0  0  0  0  0
   38.7040   25.6940   35.3410 C   0  0  1  0  0  0  0  0  0  0  0  0
   38.8850   27.1660   35.6740 C   0  0  0  0  0  0  0  0  0  0  0  0
   37.5270   27.6960   35.2550 C   0  0  0  0  0  0  0  0  0  0  0  0
   38.4270   25.2780   33.2830 H   0  0  0  0  0  0  0  0  0  0  0  0
   36.9280   24.9670   34.2580 H   0  0  0  0  0  0  0  0  0  0  0  0
   39.6870   25.2240   35.1600 H   0  0  0  0  0  0  0  0  0  0  0  0
   39.1160   27.3360   36.7230 H   0  0  0  0  0  0  0  0  0  0  0  0
   39.7040   27.5670   35.0490 H   0  0  0  0  0  0  0  0  0  0  0  0
   37.5330   28.7890   35.1280 H   0  0  0  0  0  0  0  0  0  0  0  0
   36.7830   27.3200   35.9640 H   0  0  0  0  0  0  0  0  0  0  0  0
   37.0580   27.6740   32.7500 C   0  0  0  0  0  0  0  0  0  0  0  0
   36.2070   28.7720   32.8490 C   0  0  0  0  0  0  0  0  0  0  0  0
   35.7930   29.4590   31.7030 C   0  0  0  0  0  0  0  0  0  0  0  0
   36.2820   28.9740   30.5030 N   0  0  0  0  0  0  0  0  0  0  0  0
   37.1080   27.9000   30.4450 C   0  0  0  0  0  0  0  0  0  0  0  0
   37.4960   27.2520   31.5630 N   0  0  0  0  0  0  0  0  0  0  0  0
   35.8120   29.1730   33.7590 H   0  0  0  0  0  0  0  0  0  0  0  0
   35.1450   30.3070   31.6860 H   0  0  0  0  0  0  0  0  0  0  0  0
   37.4720   27.5460   29.4940 H   0  0  0  0  0  0  0  0  0  0  0  0
   37.9780   24.9700   36.4510 C   0  0  0  0  0  2  0  0  0  0  0  0
   38.3580   23.5160   36.5730 C   0  0  0  0  0  2  0  0  0  0  0  0
   38.4460   23.0860   35.5560 H   0  0  0  0  0  0  0  0  0  0  0  0
  1  2  1  0  0  0  0
  1  5  1  0  0  0  0
  2  7  1  0  0  0  0
  2  3  1  0  0  0  0
  3  8  1  6  0  0  0
  3  4  1  0  0  0  0
  3 22  1  0  0  0  0
  4  9  1  0  0  0  0
  5  4  1  0  0  0  0
  5 12  1  0  0  0  0
  6  2  1  0  0  0  0
 10  4  1  0  0  0  0
 11  5  1  0  0  0  0
 13 14  1  0  0  0  0
 13  1  1  0  0  0  0
 14 19  1  0  0  0  0
 15 14  2  0  0  0  0
 16 15  1  0  0  0  0
 17 16  2  0  0  0  0
 17 18  1  0  0  0  0
 18 13  2  0  0  0  0
 20 15  1  0  0  0  0
 21 17  1  0  0  0  0
 22 23  1  0  0  0  0
 24 23  1  0  0  0  0
M  END
>  <minimizedAffinity>
-3.69033551

$$$$

 OpenBabel03272503273D

 24 25  0  0  1  0  0  0  0  0999 V2000
   39.5130   25.0180   35.3650 N   0  0  0  0  0  0  0  0  0  0  0  0
   38.0710   24.9310   35.2020 C   0  0  0  0  0  0  0  0  0  0  0  0
   37.6470   26.3840   35.3660 C   0  0  1  0  0  0  0  0  0  0  0  0
   38.9040   27.1610   35.7250 C   0  0  0  0  0  0  0  0  0  0  0  0
   39.9350   26.3560   34.9550 C   0  0  0  0  0  0  0  0  0  0  0  0
   37.6070   24.3890   36.0760 H   0  0  0  0  0  0  0  0  0  0  0  0
   37.7450   24.4760   34.2670 H   0  0  0  0  0  0  0  0  0  0  0  0
   36.8790   26.5290   36.1460 H   0  0  0  0  0  0  0  0  0  0  0  0
   38.8530   28.2060   35.4260 H   0  0  0  0  0  0  0  0  0  0  0  0
   39.0530   27.1000   36.8180 H   0  0  0  0  0  0  0  0  0  0  0  0
   40.9590   26.5570   35.3060 H   0  0  0  0  0  0  0  0  0  0  0  0
   39.7720   26.5300   33.8880 H   0  0  0  0  0  0  0  0  0  0  0  0
   40.3800   24.0060   35.8340 C   0  0  0  0  0  0  0  0  0  0  0  0
   39.8560   23.0910   36.7440 C   0  0  0  0  0  0  0  0  0  0  0  0
   40.6510   22.0590   37.2550 C   0  0  0  0  0  0  0  0  0  0  0  0
   41.9570   22.0250   36.7990 N   0  0  0  0  0  0  0  0  0  0  0  0
   42.4330   22.9340   35.9130 C   0  0  0  0  0  0  0  0  0  0  0  0
   41.6490   23.9210   35.4310 N   0  0  0  0  0  0  0  0  0  0  0  0
   38.8540   23.0880   37.1160 H   0  0  0  0  0  0  0  0  0  0  0  0
   40.3330   21.3170   37.9530 H   0  0  0  0  0  0  0  0  0  0  0  0
   43.4550   22.8800   35.5760 H   0  0  0  0  0  0  0  0  0  0  0  0
   37.1090   26.8100   34.0200 C   0  0  0  0  0  2  0  0  0  0  0  0
   36.4820   28.1810   34.0280 C   0  0  0  0  0  2  0  0  0  0  0  0
   35.8890   28.2940   34.9560 H   0  0  0  0  0  0  0  0  0  0  0  0
  1 13  1  0  0  0  0
  2  1  1  0  0  0  0
  2  3  1  0  0  0  0
  2  6  1  0  0  0  0
  3  4  1  0  0  0  0
  3  8  1  1  0  0  0
  4 10  1  0  0  0  0
  5 11  1  0  0  0  0
  5  1  1  0  0  0  0
  5  4  1  0  0  0  0
  7  2  1  0  0  0  0
  9  4  1  0  0  0  0
 12  5  1  0  0  0  0
 13 14  1  0  0  0  0
 14 19  1  0  0  0  0
 14 15  2  0  0  0  0
 15 20  1  0  0  0  0
 16 15  1  0  0  0  0
 17 16  2  0  0  0  0
 18 13  2  0  0  0  0
 18 17  1  0  0  0  0
 21 17  1  0  0  0  0
 22 23  1  0  0  0  0
 22  3  1  0  0  0  0
 23 24  1  0  0  0  0
M  END
>  <minimizedAffinity>
-3.6746738

$$$$
