
 OpenBabel03272507383D

 28 29  0  0  0  0  0  0  0  0999 V2000
   36.9150   32.0310   48.7620 O   0  0  0  0  0  0  0  0  0  0  0  0
   38.5730   32.3990   46.9750 C   0  0  0  0  0  0  0  0  0  0  0  0
   38.0450   32.6300   48.2180 C   0  0  0  0  0  0  0  0  0  0  0  0
   38.6350   33.5380   49.0840 C   0  0  0  0  0  0  0  0  0  0  0  0
   39.7840   34.2150   48.6640 C   0  0  0  0  0  0  0  0  0  0  0  0
   40.3160   33.9780   47.4090 C   0  0  0  0  0  0  0  0  0  0  0  0
   39.6940   33.0640   46.5770 C   0  0  0  0  0  0  0  0  0  0  0  0
   38.2550   33.7610   50.0860 H   0  0  0  0  0  0  0  0  0  0  0  0
   40.2640   34.9290   49.3240 H   0  0  0  0  0  0  0  0  0  0  0  0
   41.1960   34.4810   47.0500 H   0  0  0  0  0  0  0  0  0  0  0  0
   37.3530   30.6850   45.4700 N   0  0  0  0  0  0  0  0  0  0  0  0
   37.8920   31.4530   46.1510 C   0  0  0  0  0  0  0  0  0  0  0  0
   40.2840   32.8160   45.2370 C   0  0  0  0  0  0  0  0  0  0  0  0
   41.1800   31.5750   45.3130 C   0  0  0  0  0  0  0  0  0  0  0  0
   41.8420   31.6230   44.4010 H   0  0  0  0  0  0  0  0  0  0  0  0
   36.9450   31.0540   49.7060 C   0  0  0  0  0  0  0  0  0  0  0  0
   36.3060   29.8860   49.2540 C   0  0  0  0  0  0  0  0  0  0  0  0
   36.2220   28.7640   50.0660 C   0  0  0  0  0  0  0  0  0  0  0  0
   36.7940   28.8640   51.3160 N   0  0  0  0  0  0  0  0  0  0  0  0
   37.4020   29.9940   51.7270 C   0  0  0  0  0  0  0  0  0  0  0  0
   37.4690   31.0450   50.9400 N   0  0  0  0  0  0  0  0  0  0  0  0
   35.7500   27.8350   49.7910 H   0  0  0  0  0  0  0  0  0  0  0  0
   37.8050   29.9400   52.7170 H   0  0  0  0  0  0  0  0  0  0  0  0
   34.3690   29.2480   47.9030 C   0  0  0  0  0  0  0  0  0  0  0  0
   33.5030   28.8000   48.7480 O   0  0  0  0  0  0  0  0  0  0  0  0
   35.7240   29.6900   48.0000 N   0  0  0  0  0  0  0  0  0  0  0  0
   33.5050   29.0700   47.2760 H   0  0  0  0  0  0  0  0  0  0  0  0
   35.8310   29.7100   46.9820 H   0  0  0  0  0  0  0  0  0  0  0  0
  1 16  1  0  0  0  0
  2  3  1  0  0  0  0
  3  1  1  0  0  0  0
  3  4  2  0  0  0  0
  4  8  1  0  0  0  0
  5  4  1  0  0  0  0
  5  9  1  0  0  0  0
  6  5  2  0  0  0  0
  7  2  2  0  0  0  0
  7  6  1  0  0  0  0
 10  6  1  0  0  0  0
 11 12  3  0  0  0  0
 12  2  1  0  0  0  0
 13 14  1  0  0  0  0
 13  7  1  0  0  0  0
 15 14  1  0  0  0  0
 16 21  1  0  0  0  0
 17 16  2  0  0  0  0
 17 18  1  0  0  0  0
 18 19  2  0  0  0  0
 19 20  1  0  0  0  0
 20 23  1  0  0  0  0
 21 20  2  0  0  0  0
 22 18  1  0  0  0  0
 24 26  1  0  0  0  0
 24 25  2  0  0  0  0
 26 17  1  0  0  0  0
 27 24  1  0  0  0  0
 28 26  1  0  0  0  0
M  END
>  <minimizedAffinity>
-5.05880928

>  <minimizedRMSD>
0.433263272

$$$$
