
 OpenBabel03272510013D

 15 15  0  0  0  0  0  0  0  0999 V2000
   38.2820   31.2970   50.1200 C   0  0  0  0  0  0  0  0  0  0  0  0
   38.3940   31.4650   48.7390 C   0  0  0  0  0  0  0  0  0  0  0  0
   37.3930   30.9170   47.9170 C   0  0  0  0  0  0  0  0  0  0  0  0
   36.3750   30.2540   48.5290 N   0  0  0  0  0  0  0  0  0  0  0  0
   36.2990   30.1130   49.8530 C   0  0  0  0  0  0  0  0  0  0  0  0
   37.2530   30.6340   50.6450 N   0  0  0  0  0  0  0  0  0  0  0  0
   39.0550   31.7220   50.7220 H   0  0  0  0  0  0  0  0  0  0  0  0
   39.1900   31.9850   48.2260 H   0  0  0  0  0  0  0  0  0  0  0  0
   35.1510   29.3700   50.4270 C   0  0  0  0  0  0  0  0  0  0  0  0
   35.2790   29.1190   51.7770 F   0  0  0  0  0  0  0  0  0  0  0  0
   33.9690   30.0720   50.2690 F   0  0  0  0  0  0  0  0  0  0  0  0
   34.9380   28.1540   49.8090 F   0  0  0  0  0  0  0  0  0  0  0  0
   37.3410   30.9910   46.4530 C   0  0  0  0  0  2  0  0  0  0  0  0
   36.1300   30.3340   45.8550 C   0  0  0  0  0  2  0  0  0  0  0  0
   35.2120   30.9400   45.9980 H   0  0  0  0  0  0  0  0  0  0  0  0
  1  6  1  0  0  0  0
  1  7  1  0  0  0  0
  2  1  2  0  0  0  0
  3  4  2  0  0  0  0
  3  2  1  0  0  0  0
  4  5  1  0  0  0  0
  5  9  1  0  0  0  0
  5  6  2  0  0  0  0
  8  2  1  0  0  0  0
  9 10  1  0  0  0  0
 11  9  1  0  0  0  0
 12  9  1  0  0  0  0
 13  3  1  0  0  0  0
 14 15  1  0  0  0  0
 14 13  1  0  0  0  0
M  END
>  <minimizedAffinity>
-4.43960285

>  <minimizedRMSD>
0.47999379

$$$$
