
 OpenBabel03272501363D

 30 32  0  0  1  0  0  0  0  0999 V2000
   37.3970   26.4840   34.7590 C   0  0  2  0  0  0  0  0  0  0  0  0
   38.8820   26.9660   35.0940 C   0  0  0  0  0  0  0  0  0  0  0  0
   38.4340   25.5320   34.9830 C   0  0  1  0  0  0  0  0  0  0  0  0
   36.7210   26.8870   35.5670 H   0  0  0  0  0  0  0  0  0  0  0  0
   39.4750   27.3760   34.2890 H   0  0  0  0  0  0  0  0  0  0  0  0
   38.9920   27.3920   36.1010 H   0  0  0  0  0  0  0  0  0  0  0  0
   38.8600   24.9950   34.0730 H   0  0  0  0  0  0  0  0  0  0  0  0
   38.6060   24.7220   36.1910 C   0  0  0  0  0  0  0  0  0  0  0  0
   37.8410   25.0540   37.2970 C   0  0  0  0  0  0  0  0  0  0  0  0
   38.0020   24.2950   38.4310 C   0  0  0  0  0  0  0  0  0  0  0  0
   38.8930   23.2320   38.4840 C   0  0  0  0  0  0  0  0  0  0  0  0
   39.6310   22.9380   37.3620 C   0  0  0  0  0  0  0  0  0  0  0  0
   39.4790   23.6730   36.2570 N   0  0  0  0  0  0  0  0  0  0  0  0
   37.1540   25.8680   37.2700 H   0  0  0  0  0  0  0  0  0  0  0  0
   37.4050   24.5530   39.2940 H   0  0  0  0  0  0  0  0  0  0  0  0
   38.9390   22.7020   39.4270 H   0  0  0  0  0  0  0  0  0  0  0  0
   40.3250   22.1080   37.4100 H   0  0  0  0  0  0  0  0  0  0  0  0
   37.0820   26.9710   33.3640 C   0  0  2  0  0  3  0  0  0  0  0  0
   37.3580   26.1990   32.3630 O   0  0  0  0  0  1  0  0  0  0  0  0
   35.9960   30.1540   31.7580 C   0  0  0  0  0  0  0  0  0  0  0  0
   36.5090   28.8950   31.9700 C   0  0  0  0  0  0  0  0  0  0  0  0
   36.4990   28.2730   33.2350 C   0  0  0  0  0  0  0  0  0  0  0  0
   35.9680   28.9610   34.2110 N   0  0  0  0  0  0  0  0  0  0  0  0
   35.4570   30.2180   33.9890 C   0  0  0  0  0  0  0  0  0  0  0  0
   35.4640   30.8110   32.7950 N   0  0  0  0  0  0  0  0  0  0  0  0
   36.0180   30.6030   30.7780 H   0  0  0  0  0  0  0  0  0  0  0  0
   36.9290   28.4030   31.0940 H   0  0  0  0  0  0  0  0  0  0  0  0
   34.8850   30.8710   35.2160 C   0  0  0  0  0  2  0  0  0  0  0  0
   36.0190   31.5970   35.8920 C   0  0  0  0  0  2  0  0  0  0  0  0
   36.9350   30.9600   35.7380 H   0  0  0  0  0  0  0  0  0  0  0  0
  1  3  1  0  0  0  0
  1  2  1  0  0  0  0
  1  4  1  1  0  0  0
  2  6  1  0  0  0  0
  3  7  1  6  0  0  0
  3  2  1  0  0  0  0
  3  8  1  0  0  0  0
  5  2  1  0  0  0  0
  8 13  2  0  0  0  0
  8  9  1  0  0  0  0
  9 10  2  0  0  0  0
 10 11  1  0  0  0  0
 10 15  1  0  0  0  0
 11 16  1  0  0  0  0
 12 17  1  0  0  0  0
 12 11  2  0  0  0  0
 13 12  1  0  0  0  0
 14  9  1  0  0  0  0
 18 19  1  6  0  0  0
 18  1  1  0  0  0  0
 20 21  2  0  0  0  0
 20 25  1  0  0  0  0
 21 22  1  0  0  0  0
 22 18  1  0  0  0  0
 22 23  2  0  0  0  0
 24 23  1  0  0  0  0
 24 28  1  0  0  0  0
 25 24  2  0  0  0  0
 26 20  1  0  0  0  0
 27 21  1  0  0  0  0
 28 29  1  0  0  0  0
 30 29  1  0  0  0  0
M  END
>  <minimizedAffinity>
-5.3007369

$$$$

 OpenBabel03272501363D

 30 32  0  0  1  0  0  0  0  0999 V2000
   37.2760   26.7240   35.2320 C   0  0  2  0  0  0  0  0  0  0  0  0
   38.6870   27.2870   35.7230 C   0  0  0  0  0  0  0  0  0  0  0  0
   38.4080   25.8620   35.3190 C   0  0  1  0  0  0  0  0  0  0  0  0
   36.5380   26.8870   36.0690 H   0  0  0  0  0  0  0  0  0  0  0  0
   39.2500   27.9070   35.0390 H   0  0  0  0  0  0  0  0  0  0  0  0
   38.7210   27.5190   36.7960 H   0  0  0  0  0  0  0  0  0  0  0  0
   38.9160   25.5620   34.3450 H   0  0  0  0  0  0  0  0  0  0  0  0
   38.6410   24.8560   36.3580 C   0  0  0  0  0  0  0  0  0  0  0  0
   37.8850   24.9470   37.5160 C   0  0  0  0  0  0  0  0  0  0  0  0
   38.1020   24.0030   38.4900 C   0  0  0  0  0  0  0  0  0  0  0  0
   39.0400   22.9910   38.3380 C   0  0  0  0  0  0  0  0  0  0  0  0
   39.7670   22.9400   37.1730 C   0  0  0  0  0  0  0  0  0  0  0  0
   39.5600   23.8540   36.2210 N   0  0  0  0  0  0  0  0  0  0  0  0
   37.1630   25.7190   37.6460 H   0  0  0  0  0  0  0  0  0  0  0  0
   37.5130   24.0730   39.3940 H   0  0  0  0  0  0  0  0  0  0  0  0
   39.1290   22.3020   39.1690 H   0  0  0  0  0  0  0  0  0  0  0  0
   40.4970   22.1480   37.0610 H   0  0  0  0  0  0  0  0  0  0  0  0
   36.9430   27.4360   33.9420 C   0  0  2  0  0  3  0  0  0  0  0  0
   36.2710   28.5390   34.0010 O   0  0  0  0  0  1  0  0  0  0  0  0
   38.7360   27.0700   30.6950 C   0  0  0  0  0  0  0  0  0  0  0  0
   38.2760   27.5570   31.8970 C   0  0  0  0  0  0  0  0  0  0  0  0
   37.3900   26.8340   32.7210 C   0  0  0  0  0  0  0  0  0  0  0  0
   37.0240   25.6590   32.2820 N   0  0  0  0  0  0  0  0  0  0  0  0
   37.4900   25.1810   31.0800 C   0  0  0  0  0  0  0  0  0  0  0  0
   38.3270   25.8610   30.2970 N   0  0  0  0  0  0  0  0  0  0  0  0
   39.4130   27.6470   30.0870 H   0  0  0  0  0  0  0  0  0  0  0  0
   38.6390   28.5450   32.1750 H   0  0  0  0  0  0  0  0  0  0  0  0
   36.9720   23.8150   30.7240 C   0  0  0  0  0  2  0  0  0  0  0  0
   35.6040   23.6930   31.3440 C   0  0  0  0  0  2  0  0  0  0  0  0
   35.6540   24.2440   32.3250 H   0  0  0  0  0  0  0  0  0  0  0  0
  1  3  1  0  0  0  0
  1  2  1  0  0  0  0
  1  4  1  1  0  0  0
  2  6  1  0  0  0  0
  3  7  1  6  0  0  0
  3  2  1  0  0  0  0
  3  8  1  0  0  0  0
  5  2  1  0  0  0  0
  8  9  1  0  0  0  0
  9 14  1  0  0  0  0
  9 10  2  0  0  0  0
 10 15  1  0  0  0  0
 11 10  1  0  0  0  0
 11 16  1  0  0  0  0
 12 11  2  0  0  0  0
 13  8  2  0  0  0  0
 13 12  1  0  0  0  0
 17 12  1  0  0  0  0
 18 19  1  6  0  0  0
 18  1  1  0  0  0  0
 20 21  1  0  0  0  0
 21 27  1  0  0  0  0
 21 22  2  0  0  0  0
 22 18  1  0  0  0  0
 23 22  1  0  0  0  0
 24 23  2  0  0  0  0
 25 20  2  0  0  0  0
 25 24  1  0  0  0  0
 26 20  1  0  0  0  0
 28 24  1  0  0  0  0
 28 29  1  0  0  0  0
 29 30  1  0  0  0  0
M  END
>  <minimizedAffinity>
-5.11053514

$$$$

 OpenBabel03272501363D

 30 32  0  0  1  0  0  0  0  0999 V2000
   37.4900   26.2790   34.7320 C   0  0  2  0  0  0  0  0  0  0  0  0
   39.0580   26.5610   34.8260 C   0  0  0  0  0  0  0  0  0  0  0  0
   38.4070   25.2060   34.9320 C   0  0  1  0  0  0  0  0  0  0  0  0
   36.9930   26.8520   35.5660 H   0  0  0  0  0  0  0  0  0  0  0  0
   39.5860   26.8010   33.9140 H   0  0  0  0  0  0  0  0  0  0  0  0
   39.3630   27.0570   35.7580 H   0  0  0  0  0  0  0  0  0  0  0  0
   38.6270   24.5300   34.0420 H   0  0  0  0  0  0  0  0  0  0  0  0
   38.6320   24.4950   36.1920 C   0  0  0  0  0  0  0  0  0  0  0  0
   37.8540   24.8600   37.2790 C   0  0  0  0  0  0  0  0  0  0  0  0
   38.0640   24.1930   38.4610 C   0  0  0  0  0  0  0  0  0  0  0  0
   39.0150   23.1900   38.5810 C   0  0  0  0  0  0  0  0  0  0  0  0
   39.7650   22.8610   37.4770 C   0  0  0  0  0  0  0  0  0  0  0  0
   39.5650   23.5060   36.3240 N   0  0  0  0  0  0  0  0  0  0  0  0
   37.1200   25.6280   37.2010 H   0  0  0  0  0  0  0  0  0  0  0  0
   37.4570   24.4760   39.3100 H   0  0  0  0  0  0  0  0  0  0  0  0
   39.0970   22.7310   39.5590 H   0  0  0  0  0  0  0  0  0  0  0  0
   40.5060   22.0770   37.5770 H   0  0  0  0  0  0  0  0  0  0  0  0
   37.0550   26.6760   33.3410 C   0  0  2  0  0  3  0  0  0  0  0  0
   37.1220   25.7940   32.3970 O   0  0  0  0  0  1  0  0  0  0  0  0
   35.5080   29.9730   34.1350 C   0  0  0  0  0  0  0  0  0  0  0  0
   35.9980   28.6910   34.2350 C   0  0  0  0  0  0  0  0  0  0  0  0
   36.5990   28.0200   33.1500 C   0  0  0  0  0  0  0  0  0  0  0  0
   36.6690   28.6870   32.0280 N   0  0  0  0  0  0  0  0  0  0  0  0
   36.1770   29.9680   31.9390 C   0  0  0  0  0  0  0  0  0  0  0  0
   35.6080   30.6060   32.9620 N   0  0  0  0  0  0  0  0  0  0  0  0
   35.0530   30.4590   34.9830 H   0  0  0  0  0  0  0  0  0  0  0  0
   35.8930   28.2200   35.2110 H   0  0  0  0  0  0  0  0  0  0  0  0
   36.3370   30.5910   30.5800 C   0  0  0  0  0  2  0  0  0  0  0  0
   37.0730   29.5920   29.7260 C   0  0  0  0  0  2  0  0  0  0  0  0
   37.8080   29.0780   30.4080 H   0  0  0  0  0  0  0  0  0  0  0  0
  1  2  1  0  0  0  0
  1  3  1  0  0  0  0
  1  4  1  1  0  0  0
  2  3  1  0  0  0  0
  2  6  1  0  0  0  0
  3  7  1  6  0  0  0
  3  8  1  0  0  0  0
  5  2  1  0  0  0  0
  8 13  2  0  0  0  0
  8  9  1  0  0  0  0
  9 10  2  0  0  0  0
 10 11  1  0  0  0  0
 10 15  1  0  0  0  0
 11 16  1  0  0  0  0
 12 17  1  0  0  0  0
 12 11  2  0  0  0  0
 13 12  1  0  0  0  0
 14  9  1  0  0  0  0
 18 19  1  6  0  0  0
 18  1  1  0  0  0  0
 20 21  1  0  0  0  0
 20 26  1  0  0  0  0
 21 27  1  0  0  0  0
 22 18  1  0  0  0  0
 22 21  2  0  0  0  0
 23 22  1  0  0  0  0
 24 23  2  0  0  0  0
 24 25  1  0  0  0  0
 25 20  2  0  0  0  0
 28 24  1  0  0  0  0
 29 30  1  0  0  0  0
 29 28  1  0  0  0  0
M  END
>  <minimizedAffinity>
-4.98956633

$$$$

 OpenBabel03272501363D

 30 32  0  0  1  0  0  0  0  0999 V2000
   35.1210   29.8780   32.6330 C   0  0  2  0  0  0  0  0  0  0  0  0
   35.8180   31.3080   32.7640 C   0  0  0  0  0  0  0  0  0  0  0  0
   35.6480   30.3130   33.8830 C   0  0  1  0  0  0  0  0  0  0  0  0
   34.0580   30.0490   32.2980 H   0  0  0  0  0  0  0  0  0  0  0  0
   36.8040   31.4320   32.3410 H   0  0  0  0  0  0  0  0  0  0  0  0
   35.1130   32.1490   32.7150 H   0  0  0  0  0  0  0  0  0  0  0  0
   36.6300   29.8520   34.2300 H   0  0  0  0  0  0  0  0  0  0  0  0
   34.8620   30.7800   35.0280 C   0  0  0  0  0  0  0  0  0  0  0  0
   35.4740   31.6600   35.9070 C   0  0  0  0  0  0  0  0  0  0  0  0
   34.7360   32.0990   36.9800 C   0  0  0  0  0  0  0  0  0  0  0  0
   33.4280   31.6880   37.1910 C   0  0  0  0  0  0  0  0  0  0  0  0
   32.8610   30.8150   36.2930 C   0  0  0  0  0  0  0  0  0  0  0  0
   33.5720   30.3840   35.2470 N   0  0  0  0  0  0  0  0  0  0  0  0
   36.4770   31.9830   35.7570 H   0  0  0  0  0  0  0  0  0  0  0  0
   35.2120   32.7850   37.6660 H   0  0  0  0  0  0  0  0  0  0  0  0
   32.9400   32.0960   38.0680 H   0  0  0  0  0  0  0  0  0  0  0  0
   31.8400   30.4980   36.4630 H   0  0  0  0  0  0  0  0  0  0  0  0
   35.9650   29.0650   31.6790 C   0  0  2  0  0  3  0  0  0  0  0  0
   36.0770   29.4680   30.4550 O   0  0  0  0  0  1  0  0  0  0  0  0
   36.6060   25.4390   32.2590 C   0  0  0  0  0  0  0  0  0  0  0  0
   36.0860   26.6260   31.7960 C   0  0  0  0  0  0  0  0  0  0  0  0
   36.5890   27.8820   32.1930 C   0  0  0  0  0  0  0  0  0  0  0  0
   37.5880   27.8630   33.0350 N   0  0  0  0  0  0  0  0  0  0  0  0
   38.1000   26.6710   33.4910 C   0  0  0  0  0  0  0  0  0  0  0  0
   37.6290   25.4810   33.1190 N   0  0  0  0  0  0  0  0  0  0  0  0
   36.1990   24.4940   31.9360 H   0  0  0  0  0  0  0  0  0  0  0  0
   35.2560   26.5370   31.0980 H   0  0  0  0  0  0  0  0  0  0  0  0
   39.2460   26.8260   34.4520 C   0  0  0  0  0  2  0  0  0  0  0  0
   38.6550   27.2610   35.7680 C   0  0  0  0  0  2  0  0  0  0  0  0
   37.7900   27.9370   35.5150 H   0  0  0  0  0  0  0  0  0  0  0  0
  1  4  1  6  0  0  0
  1  2  1  0  0  0  0
  1  3  1  0  0  0  0
  2  3  1  0  0  0  0
  3  7  1  1  0  0  0
  3  8  1  0  0  0  0
  5  2  1  0  0  0  0
  6  2  1  0  0  0  0
  8 13  2  0  0  0  0
  8  9  1  0  0  0  0
  9 10  2  0  0  0  0
 10 11  1  0  0  0  0
 10 15  1  0  0  0  0
 11 16  1  0  0  0  0
 12 17  1  0  0  0  0
 12 11  2  0  0  0  0
 13 12  1  0  0  0  0
 14  9  1  0  0  0  0
 18 19  1  6  0  0  0
 18 22  1  0  0  0  0
 18  1  1  0  0  0  0
 20 25  1  0  0  0  0
 21 22  1  0  0  0  0
 21 20  2  0  0  0  0
 22 23  2  0  0  0  0
 23 24  1  0  0  0  0
 24 28  1  0  0  0  0
 25 24  2  0  0  0  0
 26 20  1  0  0  0  0
 27 21  1  0  0  0  0
 28 29  1  0  0  0  0
 30 29  1  0  0  0  0
M  END
>  <minimizedAffinity>
-4.91314316

$$$$

 OpenBabel03272501363D

 30 32  0  0  1  0  0  0  0  0999 V2000
   36.8470   24.6210   31.2330 C   0  0  2  0  0  0  0  0  0  0  0  0
   35.2900   24.5210   30.8920 C   0  0  0  0  0  0  0  0  0  0  0  0
   36.0150   23.6880   31.9180 C   0  0  1  0  0  0  0  0  0  0  0  0
   37.4150   24.3890   30.2870 H   0  0  0  0  0  0  0  0  0  0  0  0
   34.6430   25.3110   31.2460 H   0  0  0  0  0  0  0  0  0  0  0  0
   35.0800   24.0640   29.9160 H   0  0  0  0  0  0  0  0  0  0  0  0
   35.7190   23.9350   32.9890 H   0  0  0  0  0  0  0  0  0  0  0  0
   35.9830   22.2410   31.6900 C   0  0  0  0  0  0  0  0  0  0  0  0
   34.9770   21.5190   32.3120 C   0  0  0  0  0  0  0  0  0  0  0  0
   34.9460   20.1620   32.0980 C   0  0  0  0  0  0  0  0  0  0  0  0
   35.8780   19.5230   31.2940 C   0  0  0  0  0  0  0  0  0  0  0  0
   36.8580   20.2790   30.6960 C   0  0  0  0  0  0  0  0  0  0  0  0
   36.8940   21.5990   30.9000 N   0  0  0  0  0  0  0  0  0  0  0  0
   34.2550   21.9970   32.9330 H   0  0  0  0  0  0  0  0  0  0  0  0
   34.1620   19.5980   32.5830 H   0  0  0  0  0  0  0  0  0  0  0  0
   35.7600   18.4510   31.1950 H   0  0  0  0  0  0  0  0  0  0  0  0
   37.5830   19.7740   30.0700 H   0  0  0  0  0  0  0  0  0  0  0  0
   37.0850   26.0020   31.7960 C   0  0  2  0  0  3  0  0  0  0  0  0
   36.9900   27.0190   31.0010 O   0  0  0  0  0  1  0  0  0  0  0  0
   37.4910   27.5170   35.1770 C   0  0  0  0  0  0  0  0  0  0  0  0
   37.1820   27.3230   33.8500 C   0  0  0  0  0  0  0  0  0  0  0  0
   37.4140   26.1010   33.1860 C   0  0  0  0  0  0  0  0  0  0  0  0
   37.9440   25.1470   33.9050 N   0  0  0  0  0  0  0  0  0  0  0  0
   38.2490   25.3510   35.2300 C   0  0  0  0  0  0  0  0  0  0  0  0
   38.0310   26.5040   35.8630 N   0  0  0  0  0  0  0  0  0  0  0  0
   37.3010   28.4640   35.6570 H   0  0  0  0  0  0  0  0  0  0  0  0
   36.7440   28.1780   33.3380 H   0  0  0  0  0  0  0  0  0  0  0  0
   38.8510   24.1530   35.9100 C   0  0  0  0  0  2  0  0  0  0  0  0
   38.2330   24.0740   37.2820 C   0  0  0  0  0  2  0  0  0  0  0  0
   38.0910   25.1380   37.6230 H   0  0  0  0  0  0  0  0  0  0  0  0
  1  4  1  6  0  0  0
  1 18  1  0  0  0  0
  1  3  1  0  0  0  0
  2  1  1  0  0  0  0
  2  5  1  0  0  0  0
  2  3  1  0  0  0  0
  3  7  1  1  0  0  0
  6  2  1  0  0  0  0
  8  3  1  0  0  0  0
  8  9  1  0  0  0  0
  9 14  1  0  0  0  0
 10  9  2  0  0  0  0
 10 15  1  0  0  0  0
 11 10  1  0  0  0  0
 12 13  1  0  0  0  0
 12 11  2  0  0  0  0
 13  8  2  0  0  0  0
 16 11  1  0  0  0  0
 17 12  1  0  0  0  0
 18 19  1  6  0  0  0
 18 22  1  0  0  0  0
 20 26  1  0  0  0  0
 20 25  1  0  0  0  0
 21 20  2  0  0  0  0
 22 21  1  0  0  0  0
 22 23  2  0  0  0  0
 23 24  1  0  0  0  0
 24 25  2  0  0  0  0
 24 28  1  0  0  0  0
 27 21  1  0  0  0  0
 28 29  1  0  0  0  0
 29 30  1  0  0  0  0
M  END
>  <minimizedAffinity>
-4.88501215

$$$$

 OpenBabel03272501363D

 30 32  0  0  1  0  0  0  0  0999 V2000
   38.3930   25.7140   35.1340 C   0  0  2  0  0  0  0  0  0  0  0  0
   38.5810   27.0810   35.9370 C   0  0  0  0  0  0  0  0  0  0  0  0
   37.3550   26.6900   35.1530 C   0  0  1  0  0  0  0  0  0  0  0  0
   39.2050   25.6680   34.3530 H   0  0  0  0  0  0  0  0  0  0  0  0
   38.5260   27.0460   37.0160 H   0  0  0  0  0  0  0  0  0  0  0  0
   39.2900   27.7760   35.4670 H   0  0  0  0  0  0  0  0  0  0  0  0
   36.4480   26.4800   35.8090 H   0  0  0  0  0  0  0  0  0  0  0  0
   37.0010   27.5860   34.0490 C   0  0  0  0  0  0  0  0  0  0  0  0
   36.0780   28.5860   34.3090 C   0  0  0  0  0  0  0  0  0  0  0  0
   35.7470   29.4270   33.2750 C   0  0  0  0  0  0  0  0  0  0  0  0
   36.3040   29.2940   32.0110 C   0  0  0  0  0  0  0  0  0  0  0  0
   37.2160   28.2880   31.7980 C   0  0  0  0  0  0  0  0  0  0  0  0
   37.5430   27.4670   32.8000 N   0  0  0  0  0  0  0  0  0  0  0  0
   35.6420   28.6990   35.2740 H   0  0  0  0  0  0  0  0  0  0  0  0
   35.0270   30.2080   33.4760 H   0  0  0  0  0  0  0  0  0  0  0  0
   35.9710   30.0110   31.2700 H   0  0  0  0  0  0  0  0  0  0  0  0
   37.6470   28.1890   30.8100 H   0  0  0  0  0  0  0  0  0  0  0  0
   38.4250   24.5990   36.1520 C   0  0  2  0  0  3  0  0  0  0  0  0
   37.3620   24.3710   36.8530 O   0  0  0  0  0  1  0  0  0  0  0  0
   40.8070   22.0010   37.3650 C   0  0  0  0  0  0  0  0  0  0  0  0
   39.6730   22.7520   37.1550 C   0  0  0  0  0  0  0  0  0  0  0  0
   39.6450   23.8600   36.2850 C   0  0  0  0  0  0  0  0  0  0  0  0
   40.7670   24.1430   35.6750 N   0  0  0  0  0  0  0  0  0  0  0  0
   41.8940   23.3850   35.8910 C   0  0  0  0  0  0  0  0  0  0  0  0
   41.9260   22.3370   36.7140 N   0  0  0  0  0  0  0  0  0  0  0  0
   40.7960   21.1590   38.0380 H   0  0  0  0  0  0  0  0  0  0  0  0
   38.7900   22.4370   37.7080 H   0  0  0  0  0  0  0  0  0  0  0  0
   43.0960   23.8440   35.1140 C   0  0  0  0  0  2  0  0  0  0  0  0
   42.8680   25.2940   34.7740 C   0  0  0  0  0  2  0  0  0  0  0  0
   41.7630   25.4000   34.5800 H   0  0  0  0  0  0  0  0  0  0  0  0
  1  4  1  6  0  0  0
  1  3  1  0  0  0  0
  1  2  1  0  0  0  0
  1 18  1  0  0  0  0
  2  5  1  0  0  0  0
  3  7  1  1  0  0  0
  3  2  1  0  0  0  0
  6  2  1  0  0  0  0
  8  9  1  0  0  0  0
  8  3  1  0  0  0  0
  9 14  1  0  0  0  0
 10 15  1  0  0  0  0
 10  9  2  0  0  0  0
 11 10  1  0  0  0  0
 12 11  2  0  0  0  0
 12 13  1  0  0  0  0
 13  8  2  0  0  0  0
 16 11  1  0  0  0  0
 17 12  1  0  0  0  0
 18 22  1  0  0  0  0
 18 19  1  1  0  0  0
 20 26  1  0  0  0  0
 21 20  1  0  0  0  0
 21 27  1  0  0  0  0
 22 21  2  0  0  0  0
 23 24  2  0  0  0  0
 23 22  1  0  0  0  0
 24 25  1  0  0  0  0
 25 20  2  0  0  0  0
 28 24  1  0  0  0  0
 29 28  1  0  0  0  0
 30 29  1  0  0  0  0
M  END
>  <minimizedAffinity>
-4.87170935

$$$$

 OpenBabel03272501363D

 30 32  0  0  1  0  0  0  0  0999 V2000
   37.9640   26.2570   34.2680 C   0  0  2  0  0  0  0  0  0  0  0  0
   37.1670   25.5950   33.0530 C   0  0  0  0  0  0  0  0  0  0  0  0
   37.8500   26.9370   33.0200 C   0  0  1  0  0  0  0  0  0  0  0  0
   37.2390   26.3760   35.1230 H   0  0  0  0  0  0  0  0  0  0  0  0
   37.6350   24.7740   32.5280 H   0  0  0  0  0  0  0  0  0  0  0  0
   36.0780   25.5770   33.1960 H   0  0  0  0  0  0  0  0  0  0  0  0
   38.7690   26.9590   32.3480 H   0  0  0  0  0  0  0  0  0  0  0  0
   36.9780   28.0810   32.7450 C   0  0  0  0  0  0  0  0  0  0  0  0
   36.1920   28.5500   33.7860 C   0  0  0  0  0  0  0  0  0  0  0  0
   35.3740   29.6240   33.5290 C   0  0  0  0  0  0  0  0  0  0  0  0
   35.3240   30.2280   32.2800 C   0  0  0  0  0  0  0  0  0  0  0  0
   36.1210   29.7300   31.2780 C   0  0  0  0  0  0  0  0  0  0  0  0
   36.9190   28.6860   31.5210 N   0  0  0  0  0  0  0  0  0  0  0  0
   36.2200   28.0950   34.7480 H   0  0  0  0  0  0  0  0  0  0  0  0
   34.7600   29.9900   34.3400 H   0  0  0  0  0  0  0  0  0  0  0  0
   34.6440   31.0660   32.1890 H   0  0  0  0  0  0  0  0  0  0  0  0
   36.0770   30.2060   30.3060 H   0  0  0  0  0  0  0  0  0  0  0  0
   39.1470   25.3630   34.5560 C   0  0  2  0  0  3  0  0  0  0  0  0
   40.1270   25.3430   33.7120 O   0  0  0  0  0  1  0  0  0  0  0  0
   38.0060   24.1700   37.8970 C   0  0  0  0  0  0  0  0  0  0  0  0
   38.1050   24.8540   36.7070 C   0  0  0  0  0  0  0  0  0  0  0  0
   39.1070   24.5800   35.7540 C   0  0  0  0  0  0  0  0  0  0  0  0
   39.9490   23.6290   36.0610 N   0  0  0  0  0  0  0  0  0  0  0  0
   39.8420   22.9510   37.2520 C   0  0  0  0  0  0  0  0  0  0  0  0
   38.8960   23.2060   38.1570 N   0  0  0  0  0  0  0  0  0  0  0  0
   37.2280   24.4030   38.6060 H   0  0  0  0  0  0  0  0  0  0  0  0
   37.3560   25.6270   36.5440 H   0  0  0  0  0  0  0  0  0  0  0  0
   40.8880   21.8900   37.4490 C   0  0  0  0  0  2  0  0  0  0  0  0
   42.1290   22.3640   36.7370 C   0  0  0  0  0  2  0  0  0  0  0  0
   41.7730   22.9070   35.8160 H   0  0  0  0  0  0  0  0  0  0  0  0
  1 18  1  0  0  0  0
  1  4  1  1  0  0  0
  2  6  1  0  0  0  0
  2  1  1  0  0  0  0
  3  7  1  6  0  0  0
  3  2  1  0  0  0  0
  3  1  1  0  0  0  0
  5  2  1  0  0  0  0
  8  3  1  0  0  0  0
  8  9  1  0  0  0  0
  9 14  1  0  0  0  0
 10  9  2  0  0  0  0
 10 15  1  0  0  0  0
 11 10  1  0  0  0  0
 12 13  1  0  0  0  0
 12 11  2  0  0  0  0
 13  8  2  0  0  0  0
 16 11  1  0  0  0  0
 17 12  1  0  0  0  0
 18 19  1  6  0  0  0
 18 22  1  0  0  0  0
 20 25  1  0  0  0  0
 20 26  1  0  0  0  0
 21 20  2  0  0  0  0
 22 23  2  0  0  0  0
 22 21  1  0  0  0  0
 23 24  1  0  0  0  0
 24 28  1  0  0  0  0
 24 25  2  0  0  0  0
 27 21  1  0  0  0  0
 29 28  1  0  0  0  0
 30 29  1  0  0  0  0
M  END
>  <minimizedAffinity>
-4.84993839

$$$$

 OpenBabel03272501363D

 30 32  0  0  1  0  0  0  0  0999 V2000
   39.2250   26.8720   34.3570 C   0  0  2  0  0  0  0  0  0  0  0  0
   38.5350   27.5240   35.6400 C   0  0  0  0  0  0  0  0  0  0  0  0
   37.8050   26.9060   34.4760 C   0  0  1  0  0  0  0  0  0  0  0  0
   39.8380   27.6760   33.8580 H   0  0  0  0  0  0  0  0  0  0  0  0
   38.5690   26.9720   36.5690 H   0  0  0  0  0  0  0  0  0  0  0  0
   38.6110   28.6200   35.6750 H   0  0  0  0  0  0  0  0  0  0  0  0
   37.2760   25.9330   34.7410 H   0  0  0  0  0  0  0  0  0  0  0  0
   36.9050   27.8050   33.7480 C   0  0  0  0  0  0  0  0  0  0  0  0
   36.9960   27.8160   32.3660 C   0  0  0  0  0  0  0  0  0  0  0  0
   36.1520   28.6580   31.6820 C   0  0  0  0  0  0  0  0  0  0  0  0
   35.2380   29.4720   32.3360 C   0  0  0  0  0  0  0  0  0  0  0  0
   35.1830   29.4280   33.7080 C   0  0  0  0  0  0  0  0  0  0  0  0
   36.0000   28.6110   34.3790 N   0  0  0  0  0  0  0  0  0  0  0  0
   37.6940   27.1970   31.8520 H   0  0  0  0  0  0  0  0  0  0  0  0
   36.2220   28.6680   30.6040 H   0  0  0  0  0  0  0  0  0  0  0  0
   34.6230   30.0960   31.6990 H   0  0  0  0  0  0  0  0  0  0  0  0
   34.4670   30.0660   34.2120 H   0  0  0  0  0  0  0  0  0  0  0  0
   40.0130   25.6780   34.8410 C   0  0  2  0  0  3  0  0  0  0  0  0
   41.3020   25.7730   34.9060 O   0  0  0  0  0  1  0  0  0  0  0  0
   38.2970   22.3950   34.4350 C   0  0  0  0  0  0  0  0  0  0  0  0
   39.0170   23.5420   34.1930 C   0  0  0  0  0  0  0  0  0  0  0  0
   39.2780   24.5000   35.1930 C   0  0  0  0  0  0  0  0  0  0  0  0
   38.7970   24.2400   36.3810 N   0  0  0  0  0  0  0  0  0  0  0  0
   38.0790   23.0900   36.6120 C   0  0  0  0  0  0  0  0  0  0  0  0
   37.8290   22.1810   35.6690 N   0  0  0  0  0  0  0  0  0  0  0  0
   38.1140   21.6800   33.6480 H   0  0  0  0  0  0  0  0  0  0  0  0
   39.3760   23.6680   33.1730 H   0  0  0  0  0  0  0  0  0  0  0  0
   37.5980   22.9450   38.0280 C   0  0  0  0  0  2  0  0  0  0  0  0
   38.5760   23.6900   38.8990 C   0  0  0  0  0  2  0  0  0  0  0  0
   39.5890   23.5400   38.4320 H   0  0  0  0  0  0  0  0  0  0  0  0
  1  4  1  6  0  0  0
  1  3  1  0  0  0  0
  1 18  1  0  0  0  0
  1  2  1  0  0  0  0
  2  6  1  0  0  0  0
  2  5  1  0  0  0  0
  3  7  1  1  0  0  0
  3  2  1  0  0  0  0
  8 13  1  0  0  0  0
  8  3  1  0  0  0  0
  9  8  2  0  0  0  0
 10 11  2  0  0  0  0
 10  9  1  0  0  0  0
 11 12  1  0  0  0  0
 12 17  1  0  0  0  0
 12 13  2  0  0  0  0
 14  9  1  0  0  0  0
 15 10  1  0  0  0  0
 16 11  1  0  0  0  0
 18 19  1  6  0  0  0
 18 22  1  0  0  0  0
 20 25  1  0  0  0  0
 21 20  2  0  0  0  0
 21 22  1  0  0  0  0
 22 23  2  0  0  0  0
 23 24  1  0  0  0  0
 24 28  1  0  0  0  0
 25 24  2  0  0  0  0
 26 20  1  0  0  0  0
 27 21  1  0  0  0  0
 28 29  1  0  0  0  0
 30 29  1  0  0  0  0
M  END
>  <minimizedAffinity>
-4.81254911

$$$$

 OpenBabel03272501363D

 30 32  0  0  1  0  0  0  0  0999 V2000
   36.9040   25.7340   31.1560 C   0  0  2  0  0  0  0  0  0  0  0  0
   35.3560   25.3440   31.1400 C   0  0  0  0  0  0  0  0  0  0  0  0
   36.4410   24.5850   31.8600 C   0  0  1  0  0  0  0  0  0  0  0  0
   37.2670   25.7200   30.0880 H   0  0  0  0  0  0  0  0  0  0  0  0
   34.6770   25.9410   31.7310 H   0  0  0  0  0  0  0  0  0  0  0  0
   35.0100   24.9500   30.1750 H   0  0  0  0  0  0  0  0  0  0  0  0
   36.3650   24.6580   32.9940 H   0  0  0  0  0  0  0  0  0  0  0  0
   36.6210   23.1930   31.4400 C   0  0  0  0  0  0  0  0  0  0  0  0
   35.5220   22.3530   31.5240 C   0  0  0  0  0  0  0  0  0  0  0  0
   35.6900   21.0480   31.1290 C   0  0  0  0  0  0  0  0  0  0  0  0
   36.9070   20.5720   30.6630 C   0  0  0  0  0  0  0  0  0  0  0  0
   37.9700   21.4400   30.5960 C   0  0  0  0  0  0  0  0  0  0  0  0
   37.8130   22.7110   30.9780 N   0  0  0  0  0  0  0  0  0  0  0  0
   34.5820   22.7060   31.8810 H   0  0  0  0  0  0  0  0  0  0  0  0
   34.8330   20.3920   31.1940 H   0  0  0  0  0  0  0  0  0  0  0  0
   36.9270   19.5260   30.3790 H   0  0  0  0  0  0  0  0  0  0  0  0
   38.9170   21.0620   30.2320 H   0  0  0  0  0  0  0  0  0  0  0  0
   37.0120   27.0730   31.8470 C   0  0  2  0  0  3  0  0  0  0  0  0
   36.4400   28.0980   31.3020 O   0  0  0  0  0  1  0  0  0  0  0  0
   37.7040   27.5160   35.4820 C   0  0  0  0  0  0  0  0  0  0  0  0
   37.0680   27.4180   34.2660 C   0  0  0  0  0  0  0  0  0  0  0  0
   37.7550   27.1270   33.0700 C   0  0  0  0  0  0  0  0  0  0  0  0
   39.0460   26.9510   33.1750 N   0  0  0  0  0  0  0  0  0  0  0  0
   39.6720   27.0510   34.3950 C   0  0  0  0  0  0  0  0  0  0  0  0
   39.0270   27.3260   35.5290 N   0  0  0  0  0  0  0  0  0  0  0  0
   37.1510   27.7400   36.3800 H   0  0  0  0  0  0  0  0  0  0  0  0
   35.9920   27.5810   34.2820 H   0  0  0  0  0  0  0  0  0  0  0  0
   41.1570   26.8210   34.3410 C   0  0  0  0  0  2  0  0  0  0  0  0
   41.6440   27.4240   33.0490 C   0  0  0  0  0  2  0  0  0  0  0  0
   40.8280   27.2450   32.2920 H   0  0  0  0  0  0  0  0  0  0  0  0
  1  4  1  6  0  0  0
  1 18  1  0  0  0  0
  1  3  1  0  0  0  0
  2  1  1  0  0  0  0
  2  5  1  0  0  0  0
  2  3  1  0  0  0  0
  3  7  1  1  0  0  0
  6  2  1  0  0  0  0
  8  9  1  0  0  0  0
  8  3  1  0  0  0  0
  9 14  1  0  0  0  0
 10 15  1  0  0  0  0
 10  9  2  0  0  0  0
 11 10  1  0  0  0  0
 12 11  2  0  0  0  0
 12 13  1  0  0  0  0
 13  8  2  0  0  0  0
 16 11  1  0  0  0  0
 17 12  1  0  0  0  0
 18 19  1  6  0  0  0
 18 22  1  0  0  0  0
 20 25  1  0  0  0  0
 20 26  1  0  0  0  0
 21 27  1  0  0  0  0
 21 20  2  0  0  0  0
 22 23  2  0  0  0  0
 22 21  1  0  0  0  0
 23 24  1  0  0  0  0
 24 25  2  0  0  0  0
 28 24  1  0  0  0  0
 29 28  1  0  0  0  0
 30 29  1  0  0  0  0
M  END
>  <minimizedAffinity>
-4.77427197

$$$$
