
 OpenBabel03272505393D

 25 26  0  0  0  0  0  0  0  0999 V2000
   37.0990   21.8960   33.7710 C   0  0  0  0  0  0  0  0  0  0  0  0
   36.2450   20.8270   33.9510 C   0  0  0  0  0  0  0  0  0  0  0  0
   35.3070   20.5170   32.9980 C   0  0  0  0  0  0  0  0  0  0  0  0
   35.1600   21.2370   31.8300 C   0  0  0  0  0  0  0  0  0  0  0  0
   36.0060   22.3000   31.6460 C   0  0  0  0  0  0  0  0  0  0  0  0
   36.9650   22.6240   32.6080 C   0  0  0  0  0  0  0  0  0  0  0  0
   36.3630   20.2650   34.8720 H   0  0  0  0  0  0  0  0  0  0  0  0
   34.6930   19.6610   33.2450 H   0  0  0  0  0  0  0  0  0  0  0  0
   34.3970   20.9410   31.1150 H   0  0  0  0  0  0  0  0  0  0  0  0
   35.8650   22.8450   30.7170 H   0  0  0  0  0  0  0  0  0  0  0  0
   38.6950   23.0190   36.8710 C   0  0  0  0  0  0  0  0  0  0  0  0
   40.0450   22.7990   36.6250 C   0  0  0  0  0  0  0  0  0  0  0  0
   40.4040   22.2620   35.3830 C   0  0  0  0  0  0  0  0  0  0  0  0
   39.3990   21.9990   34.5140 N   0  0  0  0  0  0  0  0  0  0  0  0
   38.1090   22.2160   34.7670 C   0  0  0  0  0  0  0  0  0  0  0  0
   37.7480   22.7310   35.9560 N   0  0  0  0  0  0  0  0  0  0  0  0
   40.7920   23.0390   37.3820 H   0  0  0  0  0  0  0  0  0  0  0  0
   41.4450   22.0710   35.1450 H   0  0  0  0  0  0  0  0  0  0  0  0
   38.3110   23.6020   38.2110 C   0  0  0  0  0  0  0  0  0  0  0  0
   38.0300   24.9540   38.0580 F   0  0  0  0  0  0  0  0  0  0  0  0
   37.2700   22.8930   38.7000 F   0  0  0  0  0  0  0  0  0  0  0  0
   39.4340   23.5210   39.0290 F   0  0  0  0  0  0  0  0  0  0  0  0
   37.7580   23.8200   32.2440 C   0  0  0  0  0  2  0  0  0  0  0  0
   37.0960   25.1230   32.5760 C   0  0  0  0  0  2  0  0  0  0  0  0
   36.2160   24.9600   33.2460 H   0  0  0  0  0  0  0  0  0  0  0  0
  1  2  1  0  0  0  0
  1 15  1  0  0  0  0
  2  7  1  0  0  0  0
  3  8  1  0  0  0  0
  3  2  2  0  0  0  0
  4  3  1  0  0  0  0
  5  4  2  0  0  0  0
  5  6  1  0  0  0  0
  6  1  2  0  0  0  0
  9  4  1  0  0  0  0
 10  5  1  0  0  0  0
 11 19  1  0  0  0  0
 12 11  1  0  0  0  0
 12 17  1  0  0  0  0
 13 12  2  0  0  0  0
 14 15  2  0  0  0  0
 14 13  1  0  0  0  0
 15 16  1  0  0  0  0
 16 11  2  0  0  0  0
 18 13  1  0  0  0  0
 19 21  1  0  0  0  0
 19 22  1  0  0  0  0
 20 19  1  0  0  0  0
 23 24  1  0  0  0  0
 23  6  1  0  0  0  0
 24 25  1  0  0  0  0
M  END
>  <minimizedAffinity>
-5.30661821

$$$$

 OpenBabel03272505393D

 25 26  0  0  0  0  0  0  0  0999 V2000
   37.5010   26.0830   33.9330 C   0  0  0  0  0  0  0  0  0  0  0  0
   37.3380   27.4000   34.3120 C   0  0  0  0  0  0  0  0  0  0  0  0
   36.6090   28.2640   33.5320 C   0  0  0  0  0  0  0  0  0  0  0  0
   36.0100   27.8800   32.3490 C   0  0  0  0  0  0  0  0  0  0  0  0
   36.1690   26.5730   31.9680 C   0  0  0  0  0  0  0  0  0  0  0  0
   36.9070   25.6860   32.7530 C   0  0  0  0  0  0  0  0  0  0  0  0
   37.8110   27.6970   35.2410 H   0  0  0  0  0  0  0  0  0  0  0  0
   36.5480   29.2690   33.9260 H   0  0  0  0  0  0  0  0  0  0  0  0
   35.4470   28.6120   31.7760 H   0  0  0  0  0  0  0  0  0  0  0  0
   35.6850   26.3040   31.0340 H   0  0  0  0  0  0  0  0  0  0  0  0
   38.6010   24.0920   36.8030 C   0  0  0  0  0  0  0  0  0  0  0  0
   39.6950   23.3970   36.3010 C   0  0  0  0  0  0  0  0  0  0  0  0
   40.0540   23.6200   34.9660 C   0  0  0  0  0  0  0  0  0  0  0  0
   39.3000   24.5010   34.2670 N   0  0  0  0  0  0  0  0  0  0  0  0
   38.2530   25.1580   34.7650 C   0  0  0  0  0  0  0  0  0  0  0  0
   37.8970   24.9550   36.0450 N   0  0  0  0  0  0  0  0  0  0  0  0
   40.2490   22.7030   36.9340 H   0  0  0  0  0  0  0  0  0  0  0  0
   40.9000   23.1010   34.5280 H   0  0  0  0  0  0  0  0  0  0  0  0
   38.2190   23.8510   38.2450 C   0  0  0  0  0  0  0  0  0  0  0  0
   37.8600   25.0600   38.8300 F   0  0  0  0  0  0  0  0  0  0  0  0
   37.2320   22.9290   38.2750 F   0  0  0  0  0  0  0  0  0  0  0  0
   39.3640   23.4180   38.9050 F   0  0  0  0  0  0  0  0  0  0  0  0
   36.9920   24.3320   32.1600 C   0  0  0  0  0  2  0  0  0  0  0  0
   35.9080   24.0230   31.1710 C   0  0  0  0  0  2  0  0  0  0  0  0
   35.3560   24.9530   30.8870 H   0  0  0  0  0  0  0  0  0  0  0  0
  1  2  1  0  0  0  0
  1 15  1  0  0  0  0
  2  7  1  0  0  0  0
  3  8  1  0  0  0  0
  3  2  2  0  0  0  0
  4  3  1  0  0  0  0
  5  4  2  0  0  0  0
  5  6  1  0  0  0  0
  6  1  2  0  0  0  0
  9  4  1  0  0  0  0
 10  5  1  0  0  0  0
 11 19  1  0  0  0  0
 12 11  1  0  0  0  0
 12 17  1  0  0  0  0
 13 12  2  0  0  0  0
 14 15  2  0  0  0  0
 14 13  1  0  0  0  0
 15 16  1  0  0  0  0
 16 11  2  0  0  0  0
 18 13  1  0  0  0  0
 19 21  1  0  0  0  0
 19 20  1  0  0  0  0
 19 22  1  0  0  0  0
 23  6  1  0  0  0  0
 24 23  1  0  0  0  0
 25 24  1  0  0  0  0
M  END
>  <minimizedAffinity>
-5.27996206

$$$$

 OpenBabel03272505393D

 25 26  0  0  0  0  0  0  0  0999 V2000
   37.6430   23.3470   33.4610 C   0  0  0  0  0  0  0  0  0  0  0  0
   37.5760   24.6070   32.8990 C   0  0  0  0  0  0  0  0  0  0  0  0
   36.7860   24.8370   31.8000 C   0  0  0  0  0  0  0  0  0  0  0  0
   36.0300   23.8500   31.2010 C   0  0  0  0  0  0  0  0  0  0  0  0
   36.0930   22.5980   31.7550 C   0  0  0  0  0  0  0  0  0  0  0  0
   36.8910   22.3510   32.8730 C   0  0  0  0  0  0  0  0  0  0  0  0
   38.1730   25.3790   33.3730 H   0  0  0  0  0  0  0  0  0  0  0  0
   36.8110   25.8590   31.4460 H   0  0  0  0  0  0  0  0  0  0  0  0
   35.4260   24.0980   30.3330 H   0  0  0  0  0  0  0  0  0  0  0  0
   35.4860   21.8460   31.2610 H   0  0  0  0  0  0  0  0  0  0  0  0
   38.7970   23.2400   36.9360 C   0  0  0  0  0  0  0  0  0  0  0  0
   40.0320   22.6100   36.8360 C   0  0  0  0  0  0  0  0  0  0  0  0
   40.4660   22.2240   35.5620 C   0  0  0  0  0  0  0  0  0  0  0  0
   39.6430   22.4970   34.5230 N   0  0  0  0  0  0  0  0  0  0  0  0
   38.4610   23.1010   34.6380 C   0  0  0  0  0  0  0  0  0  0  0  0
   38.0290   23.4790   35.8540 N   0  0  0  0  0  0  0  0  0  0  0  0
   40.6330   22.4280   37.7260 H   0  0  0  0  0  0  0  0  0  0  0  0
   41.4230   21.7280   35.4330 H   0  0  0  0  0  0  0  0  0  0  0  0
   38.3320   23.6590   38.3110 C   0  0  0  0  0  0  0  0  0  0  0  0
   37.9990   25.0090   38.2890 F   0  0  0  0  0  0  0  0  0  0  0  0
   37.3020   22.8620   38.6730 F   0  0  0  0  0  0  0  0  0  0  0  0
   39.4210   23.5340   39.1670 F   0  0  0  0  0  0  0  0  0  0  0  0
   36.8530   20.9350   33.3020 C   0  0  0  0  0  2  0  0  0  0  0  0
   35.5510   20.5130   33.9150 C   0  0  0  0  0  2  0  0  0  0  0  0
   34.7610   21.2820   33.7330 H   0  0  0  0  0  0  0  0  0  0  0  0
  1 15  1  0  0  0  0
  2  7  1  0  0  0  0
  2  1  1  0  0  0  0
  3  2  2  0  0  0  0
  4  5  2  0  0  0  0
  4  3  1  0  0  0  0
  5  6  1  0  0  0  0
  6 23  1  0  0  0  0
  6  1  2  0  0  0  0
  8  3  1  0  0  0  0
  9  4  1  0  0  0  0
 10  5  1  0  0  0  0
 11 19  1  0  0  0  0
 12 11  1  0  0  0  0
 12 17  1  0  0  0  0
 13 12  2  0  0  0  0
 14 15  2  0  0  0  0
 14 13  1  0  0  0  0
 15 16  1  0  0  0  0
 16 11  2  0  0  0  0
 18 13  1  0  0  0  0
 19 21  1  0  0  0  0
 19 22  1  0  0  0  0
 20 19  1  0  0  0  0
 23 24  1  0  0  0  0
 25 24  1  0  0  0  0
M  END
>  <minimizedAffinity>
-5.22956419

$$$$

 OpenBabel03272505393D

 25 26  0  0  0  0  0  0  0  0999 V2000
   37.3830   26.4760   34.0440 C   0  0  0  0  0  0  0  0  0  0  0  0
   37.0970   27.7070   34.5990 C   0  0  0  0  0  0  0  0  0  0  0  0
   36.3020   28.6050   33.9300 C   0  0  0  0  0  0  0  0  0  0  0  0
   35.7540   28.3410   32.6910 C   0  0  0  0  0  0  0  0  0  0  0  0
   36.0350   27.1200   32.1350 C   0  0  0  0  0  0  0  0  0  0  0  0
   36.8410   26.1990   32.8060 C   0  0  0  0  0  0  0  0  0  0  0  0
   37.5310   27.9100   35.5720 H   0  0  0  0  0  0  0  0  0  0  0  0
   36.1450   29.5350   34.4590 H   0  0  0  0  0  0  0  0  0  0  0  0
   35.1330   29.0940   32.2130 H   0  0  0  0  0  0  0  0  0  0  0  0
   35.5880   26.9440   31.1620 H   0  0  0  0  0  0  0  0  0  0  0  0
   38.6170   24.1890   36.6260 C   0  0  0  0  0  0  0  0  0  0  0  0
   39.7860   23.6880   36.0660 C   0  0  0  0  0  0  0  0  0  0  0  0
   40.1490   24.1440   34.7930 C   0  0  0  0  0  0  0  0  0  0  0  0
   39.3260   25.0440   34.2060 N   0  0  0  0  0  0  0  0  0  0  0  0
   38.2070   25.5140   34.7570 C   0  0  0  0  0  0  0  0  0  0  0  0
   37.8450   25.0850   35.9790 N   0  0  0  0  0  0  0  0  0  0  0  0
   40.3930   22.9630   36.6090 H   0  0  0  0  0  0  0  0  0  0  0  0
   41.0530   23.7820   34.3150 H   0  0  0  0  0  0  0  0  0  0  0  0
   38.2290   23.6970   38.0010 C   0  0  0  0  0  0  0  0  0  0  0  0
   37.1340   22.8500   37.8910 F   0  0  0  0  0  0  0  0  0  0  0  0
   39.3080   23.1060   38.5600 F   0  0  0  0  0  0  0  0  0  0  0  0
   37.8010   24.8050   38.7260 F   0  0  0  0  0  0  0  0  0  0  0  0
   37.0550   24.9550   32.0320 C   0  0  0  0  0  2  0  0  0  0  0  0
   35.8480   24.4830   31.2790 C   0  0  0  0  0  2  0  0  0  0  0  0
   35.0630   25.2780   31.2540 H   0  0  0  0  0  0  0  0  0  0  0  0
  1  2  1  0  0  0  0
  1 15  1  0  0  0  0
  2  7  1  0  0  0  0
  3  8  1  0  0  0  0
  3  2  2  0  0  0  0
  4  3  1  0  0  0  0
  5  4  2  0  0  0  0
  5  6  1  0  0  0  0
  6  1  2  0  0  0  0
  9  4  1  0  0  0  0
 10  5  1  0  0  0  0
 11 19  1  0  0  0  0
 12 17  1  0  0  0  0
 12 11  1  0  0  0  0
 13 12  2  0  0  0  0
 14 15  2  0  0  0  0
 14 13  1  0  0  0  0
 15 16  1  0  0  0  0
 16 11  2  0  0  0  0
 18 13  1  0  0  0  0
 19 21  1  0  0  0  0
 19 22  1  0  0  0  0
 20 19  1  0  0  0  0
 23  6  1  0  0  0  0
 24 23  1  0  0  0  0
 25 24  1  0  0  0  0
M  END
>  <minimizedAffinity>
-5.19000053

$$$$

 OpenBabel03272505393D

 25 26  0  0  0  0  0  0  0  0999 V2000
   38.3050   25.2230   33.7960 C   0  0  0  0  0  0  0  0  0  0  0  0
   37.3130   24.8560   32.9090 C   0  0  0  0  0  0  0  0  0  0  0  0
   36.9150   25.7160   31.9160 C   0  0  0  0  0  0  0  0  0  0  0  0
   37.4660   26.9700   31.7460 C   0  0  0  0  0  0  0  0  0  0  0  0
   38.4520   27.3390   32.6240 C   0  0  0  0  0  0  0  0  0  0  0  0
   38.8650   26.4730   33.6380 C   0  0  0  0  0  0  0  0  0  0  0  0
   36.8830   23.8700   33.0470 H   0  0  0  0  0  0  0  0  0  0  0  0
   36.1320   25.3240   31.2810 H   0  0  0  0  0  0  0  0  0  0  0  0
   37.1070   27.6040   30.9400 H   0  0  0  0  0  0  0  0  0  0  0  0
   38.8650   28.3300   32.4620 H   0  0  0  0  0  0  0  0  0  0  0  0
   38.7420   23.6160   37.0590 C   0  0  0  0  0  0  0  0  0  0  0  0
   39.5920   22.5540   36.7730 C   0  0  0  0  0  0  0  0  0  0  0  0
   40.0160   22.3950   35.4480 C   0  0  0  0  0  0  0  0  0  0  0  0
   39.5610   23.2960   34.5450 N   0  0  0  0  0  0  0  0  0  0  0  0
   38.7460   24.3080   34.8370 C   0  0  0  0  0  0  0  0  0  0  0  0
   38.3290   24.4740   36.1050 N   0  0  0  0  0  0  0  0  0  0  0  0
   39.9120   21.8730   37.5620 H   0  0  0  0  0  0  0  0  0  0  0  0
   40.6800   21.5810   35.1760 H   0  0  0  0  0  0  0  0  0  0  0  0
   38.2890   23.7870   38.4900 C   0  0  0  0  0  0  0  0  0  0  0  0
   37.8710   25.0980   38.6840 F   0  0  0  0  0  0  0  0  0  0  0  0
   37.3230   22.8770   38.7410 F   0  0  0  0  0  0  0  0  0  0  0  0
   39.4070   23.6050   39.2980 F   0  0  0  0  0  0  0  0  0  0  0  0
   39.9140   27.0620   34.5010 C   0  0  0  0  0  2  0  0  0  0  0  0
   41.2880   27.0400   33.9040 C   0  0  0  0  0  2  0  0  0  0  0  0
   41.2430   26.7860   32.8160 H   0  0  0  0  0  0  0  0  0  0  0  0
  1 15  1  0  0  0  0
  2  7  1  0  0  0  0
  2  1  2  0  0  0  0
  3  2  1  0  0  0  0
  4  3  2  0  0  0  0
  4  5  1  0  0  0  0
  5  6  2  0  0  0  0
  6  1  1  0  0  0  0
  6 23  1  0  0  0  0
  8  3  1  0  0  0  0
  9  4  1  0  0  0  0
 10  5  1  0  0  0  0
 11 19  1  0  0  0  0
 12 11  1  0  0  0  0
 12 17  1  0  0  0  0
 13 12  2  0  0  0  0
 14 15  2  0  0  0  0
 14 13  1  0  0  0  0
 15 16  1  0  0  0  0
 16 11  2  0  0  0  0
 18 13  1  0  0  0  0
 19 20  1  0  0  0  0
 19 21  1  0  0  0  0
 19 22  1  0  0  0  0
 24 23  1  0  0  0  0
 25 24  1  0  0  0  0
M  END
>  <minimizedAffinity>
-5.18633556

$$$$

 OpenBabel03272505393D

 25 26  0  0  0  0  0  0  0  0999 V2000
   37.3590   24.8320   32.9340 C   0  0  0  0  0  0  0  0  0  0  0  0
   36.7090   23.8770   32.1780 C   0  0  0  0  0  0  0  0  0  0  0  0
   35.7980   24.2490   31.2210 C   0  0  0  0  0  0  0  0  0  0  0  0
   35.4810   25.5660   30.9610 C   0  0  0  0  0  0  0  0  0  0  0  0
   36.1230   26.5190   31.7080 C   0  0  0  0  0  0  0  0  0  0  0  0
   37.0520   26.1530   32.6840 C   0  0  0  0  0  0  0  0  0  0  0  0
   36.9610   22.8430   32.3870 H   0  0  0  0  0  0  0  0  0  0  0  0
   35.3510   23.4180   30.6910 H   0  0  0  0  0  0  0  0  0  0  0  0
   34.7500   25.7950   30.1900 H   0  0  0  0  0  0  0  0  0  0  0  0
   35.8520   27.5450   31.4780 H   0  0  0  0  0  0  0  0  0  0  0  0
   38.8870   23.9010   36.1300 C   0  0  0  0  0  0  0  0  0  0  0  0
   40.2220   23.7070   35.7940 C   0  0  0  0  0  0  0  0  0  0  0  0
   40.5940   23.9020   34.4580 C   0  0  0  0  0  0  0  0  0  0  0  0
   39.6160   24.2650   33.5950 N   0  0  0  0  0  0  0  0  0  0  0  0
   38.3400   24.4460   33.9350 C   0  0  0  0  0  0  0  0  0  0  0  0
   37.9670   24.2630   35.2140 N   0  0  0  0  0  0  0  0  0  0  0  0
   40.9470   23.4130   36.5530 H   0  0  0  0  0  0  0  0  0  0  0  0
   41.6240   23.7620   34.1470 H   0  0  0  0  0  0  0  0  0  0  0  0
   38.4900   23.6940   37.5730 C   0  0  0  0  0  0  0  0  0  0  0  0
   37.3680   22.8750   37.6250 F   0  0  0  0  0  0  0  0  0  0  0  0
   39.5510   23.1870   38.2380 F   0  0  0  0  0  0  0  0  0  0  0  0
   38.0990   24.9320   38.0710 F   0  0  0  0  0  0  0  0  0  0  0  0
   37.6130   27.3180   33.4050 C   0  0  0  0  0  2  0  0  0  0  0  0
   36.7670   27.8030   34.5450 C   0  0  0  0  0  2  0  0  0  0  0  0
   35.9710   27.0580   34.7910 H   0  0  0  0  0  0  0  0  0  0  0  0
  1 15  1  0  0  0  0
  2  7  1  0  0  0  0
  2  1  2  0  0  0  0
  3  2  1  0  0  0  0
  4  3  2  0  0  0  0
  4  5  1  0  0  0  0
  5  6  2  0  0  0  0
  6  1  1  0  0  0  0
  6 23  1  0  0  0  0
  8  3  1  0  0  0  0
  9  4  1  0  0  0  0
 10  5  1  0  0  0  0
 11 19  1  0  0  0  0
 12 11  1  0  0  0  0
 12 17  1  0  0  0  0
 13 12  2  0  0  0  0
 14 15  2  0  0  0  0
 14 13  1  0  0  0  0
 15 16  1  0  0  0  0
 16 11  2  0  0  0  0
 18 13  1  0  0  0  0
 19 20  1  0  0  0  0
 19 22  1  0  0  0  0
 19 21  1  0  0  0  0
 23 24  1  0  0  0  0
 24 25  1  0  0  0  0
M  END
>  <minimizedAffinity>
-4.99553394

$$$$

 OpenBabel03272505393D

 25 26  0  0  0  0  0  0  0  0999 V2000
   39.3310   23.1310   35.3120 C   0  0  0  0  0  0  0  0  0  0  0  0
   40.4830   22.4200   35.0420 C   0  0  0  0  0  0  0  0  0  0  0  0
   41.2450   21.9160   36.0660 C   0  0  0  0  0  0  0  0  0  0  0  0
   40.9180   22.0840   37.3960 C   0  0  0  0  0  0  0  0  0  0  0  0
   39.7750   22.7900   37.6700 C   0  0  0  0  0  0  0  0  0  0  0  0
   38.9910   23.3070   36.6370 C   0  0  0  0  0  0  0  0  0  0  0  0
   40.7360   22.2910   33.9950 H   0  0  0  0  0  0  0  0  0  0  0  0
   42.1240   21.3770   35.7380 H   0  0  0  0  0  0  0  0  0  0  0  0
   41.5640   21.6600   38.1610 H   0  0  0  0  0  0  0  0  0  0  0  0
   39.5460   22.9040   38.7250 H   0  0  0  0  0  0  0  0  0  0  0  0
   36.9430   23.3230   32.5400 C   0  0  0  0  0  0  0  0  0  0  0  0
   36.9630   24.6710   32.2030 C   0  0  0  0  0  0  0  0  0  0  0  0
   37.8070   25.5150   32.9350 C   0  0  0  0  0  0  0  0  0  0  0  0
   38.5410   24.9460   33.9210 N   0  0  0  0  0  0  0  0  0  0  0  0
   38.5080   23.6500   34.2310 C   0  0  0  0  0  0  0  0  0  0  0  0
   37.7030   22.8270   33.5370 N   0  0  0  0  0  0  0  0  0  0  0  0
   36.3390   25.0480   31.3930 H   0  0  0  0  0  0  0  0  0  0  0  0
   37.8570   26.5750   32.7100 H   0  0  0  0  0  0  0  0  0  0  0  0
   36.0350   22.4140   31.7460 C   0  0  0  0  0  0  0  0  0  0  0  0
   36.8080   21.5180   31.0170 F   0  0  0  0  0  0  0  0  0  0  0  0
   35.1840   21.8080   32.6030 F   0  0  0  0  0  0  0  0  0  0  0  0
   35.3700   23.2090   30.8180 F   0  0  0  0  0  0  0  0  0  0  0  0
   37.8190   24.0640   37.1320 C   0  0  0  0  0  2  0  0  0  0  0  0
   37.8950   24.4380   38.5810 C   0  0  0  0  0  2  0  0  0  0  0  0
   38.9270   24.2760   38.9780 H   0  0  0  0  0  0  0  0  0  0  0  0
  1  6  1  0  0  0  0
  2  1  2  0  0  0  0
  2  3  1  0  0  0  0
  3  4  2  0  0  0  0
  4  5  1  0  0  0  0
  4  9  1  0  0  0  0
  5 10  1  0  0  0  0
  6 23  1  0  0  0  0
  6  5  2  0  0  0  0
  7  2  1  0  0  0  0
  8  3  1  0  0  0  0
 11 16  1  0  0  0  0
 12 11  2  0  0  0  0
 12 13  1  0  0  0  0
 13 14  2  0  0  0  0
 14 15  1  0  0  0  0
 15  1  1  0  0  0  0
 16 15  2  0  0  0  0
 17 12  1  0  0  0  0
 18 13  1  0  0  0  0
 19 11  1  0  0  0  0
 19 21  1  0  0  0  0
 20 19  1  0  0  0  0
 22 19  1  0  0  0  0
 23 24  1  0  0  0  0
 24 25  1  0  0  0  0
M  END
>  <minimizedAffinity>
-4.97027349

$$$$

 OpenBabel03272505393D

 25 26  0  0  0  0  0  0  0  0999 V2000
   38.6080   26.0970   32.9510 C   0  0  0  0  0  0  0  0  0  0  0  0
   39.7220   26.4230   32.2040 C   0  0  0  0  0  0  0  0  0  0  0  0
   40.8450   26.9260   32.8130 C   0  0  0  0  0  0  0  0  0  0  0  0
   40.9290   27.1350   34.1740 C   0  0  0  0  0  0  0  0  0  0  0  0
   39.8260   26.8130   34.9210 C   0  0  0  0  0  0  0  0  0  0  0  0
   38.6780   26.3000   34.3140 C   0  0  0  0  0  0  0  0  0  0  0  0
   39.6510   26.2580   31.1350 H   0  0  0  0  0  0  0  0  0  0  0  0
   41.6560   27.1450   32.1300 H   0  0  0  0  0  0  0  0  0  0  0  0
   41.8470   27.5360   34.5950 H   0  0  0  0  0  0  0  0  0  0  0  0
   39.9250   26.9890   35.9880 H   0  0  0  0  0  0  0  0  0  0  0  0
   36.1150   23.7180   31.7090 C   0  0  0  0  0  0  0  0  0  0  0  0
   35.1680   24.5410   31.1120 C   0  0  0  0  0  0  0  0  0  0  0  0
   35.3930   25.9230   31.1380 C   0  0  0  0  0  0  0  0  0  0  0  0
   36.5250   26.3490   31.7470 N   0  0  0  0  0  0  0  0  0  0  0  0
   37.4230   25.5450   32.3150 C   0  0  0  0  0  0  0  0  0  0  0  0
   37.2200   24.2160   32.2990 N   0  0  0  0  0  0  0  0  0  0  0  0
   34.2810   24.1150   30.6430 H   0  0  0  0  0  0  0  0  0  0  0  0
   34.6820   26.6060   30.6860 H   0  0  0  0  0  0  0  0  0  0  0  0
   35.8710   22.2270   31.6770 C   0  0  0  0  0  0  0  0  0  0  0  0
   35.2500   21.8920   30.4800 F   0  0  0  0  0  0  0  0  0  0  0  0
   37.0530   21.5990   31.8600 F   0  0  0  0  0  0  0  0  0  0  0  0
   34.9600   21.9400   32.6890 F   0  0  0  0  0  0  0  0  0  0  0  0
   37.5850   26.0470   35.2790 C   0  0  0  0  0  2  0  0  0  0  0  0
   37.9080   25.0160   36.3190 C   0  0  0  0  0  2  0  0  0  0  0  0
   39.0010   24.7830   36.3180 H   0  0  0  0  0  0  0  0  0  0  0  0
  1  6  1  0  0  0  0
  2  3  1  0  0  0  0
  2  1  2  0  0  0  0
  3  4  2  0  0  0  0
  4  9  1  0  0  0  0
  4  5  1  0  0  0  0
  5 10  1  0  0  0  0
  6  5  2  0  0  0  0
  6 23  1  0  0  0  0
  7  2  1  0  0  0  0
  8  3  1  0  0  0  0
 11 16  1  0  0  0  0
 12 13  1  0  0  0  0
 12 11  2  0  0  0  0
 13 14  2  0  0  0  0
 14 15  1  0  0  0  0
 15  1  1  0  0  0  0
 16 15  2  0  0  0  0
 17 12  1  0  0  0  0
 18 13  1  0  0  0  0
 19 11  1  0  0  0  0
 19 21  1  0  0  0  0
 19 22  1  0  0  0  0
 20 19  1  0  0  0  0
 23 24  1  0  0  0  0
 25 24  1  0  0  0  0
M  END
>  <minimizedAffinity>
-4.91417885

$$$$

 OpenBabel03272505393D

 25 26  0  0  0  0  0  0  0  0999 V2000
   36.2130   28.8280   33.0370 C   0  0  0  0  0  0  0  0  0  0  0  0
   36.3530   29.1620   31.7040 C   0  0  0  0  0  0  0  0  0  0  0  0
   37.2230   28.4670   30.9010 C   0  0  0  0  0  0  0  0  0  0  0  0
   37.9920   27.4180   31.3620 C   0  0  0  0  0  0  0  0  0  0  0  0
   37.8560   27.0820   32.6840 C   0  0  0  0  0  0  0  0  0  0  0  0
   36.9750   27.7810   33.5110 C   0  0  0  0  0  0  0  0  0  0  0  0
   35.7470   29.9880   31.3480 H   0  0  0  0  0  0  0  0  0  0  0  0
   37.2510   28.8150   29.8770 H   0  0  0  0  0  0  0  0  0  0  0  0
   38.6620   26.9080   30.6750 H   0  0  0  0  0  0  0  0  0  0  0  0
   38.4750   26.2530   33.0140 H   0  0  0  0  0  0  0  0  0  0  0  0
   34.8120   31.2720   35.3780 C   0  0  0  0  0  0  0  0  0  0  0  0
   33.4810   30.8840   35.4760 C   0  0  0  0  0  0  0  0  0  0  0  0
   33.0680   29.7720   34.7320 C   0  0  0  0  0  0  0  0  0  0  0  0
   34.0060   29.1600   33.9700 N   0  0  0  0  0  0  0  0  0  0  0  0
   35.2780   29.5470   33.8880 C   0  0  0  0  0  0  0  0  0  0  0  0
   35.6900   30.6130   34.5960 N   0  0  0  0  0  0  0  0  0  0  0  0
   32.7890   31.4340   36.1140 H   0  0  0  0  0  0  0  0  0  0  0  0
   32.0390   29.4310   34.7750 H   0  0  0  0  0  0  0  0  0  0  0  0
   35.2550   32.4700   36.1850 C   0  0  0  0  0  0  0  0  0  0  0  0
   34.9810   32.2420   37.5290 F   0  0  0  0  0  0  0  0  0  0  0  0
   36.5650   32.6880   35.9370 F   0  0  0  0  0  0  0  0  0  0  0  0
   34.4590   33.5430   35.7960 F   0  0  0  0  0  0  0  0  0  0  0  0
   36.9930   27.2940   34.9080 C   0  0  0  0  0  2  0  0  0  0  0  0
   38.3230   27.4240   35.5890 C   0  0  0  0  0  2  0  0  0  0  0  0
   39.0090   28.0750   34.9940 H   0  0  0  0  0  0  0  0  0  0  0  0
  1  6  1  0  0  0  0
  1 15  1  0  0  0  0
  2  1  2  0  0  0  0
  3  4  2  0  0  0  0
  3  2  1  0  0  0  0
  4  5  1  0  0  0  0
  5 10  1  0  0  0  0
  5  6  2  0  0  0  0
  6 23  1  0  0  0  0
  7  2  1  0  0  0  0
  8  3  1  0  0  0  0
  9  4  1  0  0  0  0
 11 12  1  0  0  0  0
 11 19  1  0  0  0  0
 12 17  1  0  0  0  0
 13 18  1  0  0  0  0
 13 12  2  0  0  0  0
 14 13  1  0  0  0  0
 15 14  2  0  0  0  0
 15 16  1  0  0  0  0
 16 11  2  0  0  0  0
 19 20  1  0  0  0  0
 21 19  1  0  0  0  0
 22 19  1  0  0  0  0
 23 24  1  0  0  0  0
 25 24  1  0  0  0  0
M  END
>  <minimizedAffinity>
-4.88137388

$$$$
