
 OpenBabel03272506553D

 14 14  0  0  0  0  0  0  0  0999 V2000
   38.5870   32.4230   49.4480 C   0  0  0  0  0  0  0  0  0  0  0  0
   38.7370   32.3830   48.0610 C   0  0  0  0  0  0  0  0  0  0  0  0
   38.2530   31.2340   47.4090 C   0  0  0  0  0  0  0  0  0  0  0  0
   37.6790   30.2490   48.1430 N   0  0  0  0  0  0  0  0  0  0  0  0
   37.5560   30.3340   49.4900 C   0  0  0  0  0  0  0  0  0  0  0  0
   38.0080   31.4250   50.1730 N   0  0  0  0  0  0  0  0  0  0  0  0
   38.9700   33.3220   49.9330 H   0  0  0  0  0  0  0  0  0  0  0  0
   38.3690   31.2060   46.3380 H   0  0  0  0  0  0  0  0  0  0  0  0
   39.3550   33.4730   47.3770 N   0  0  0  0  0  0  0  0  0  0  0  0
   40.3510   33.7720   47.2980 H   0  0  0  0  0  0  0  0  0  0  0  0
   38.7030   34.0960   46.8510 H   0  0  0  0  0  0  0  0  0  0  0  0
   36.9120   29.1980   50.1970 C   0  0  0  0  0  0  0  0  0  0  0  0
   35.5740   28.8120   49.6440 C   0  0  0  0  0  0  0  0  0  0  0  0
   34.7380   29.1560   50.3220 H   0  0  0  0  0  0  0  0  0  0  0  0
  1  7  1  0  0  0  0
  1  6  1  0  0  0  0
  2  1  2  0  0  0  0
  3  2  1  0  0  0  0
  3  4  2  0  0  0  0
  4  5  1  0  0  0  0
  5  6  2  0  0  0  0
  5 12  1  0  0  0  0
  8  3  1  0  0  0  0
  9  2  1  0  0  0  0
 10  9  1  0  0  0  0
 11  9  1  0  0  0  0
 13 12  1  0  0  0  0
 13 14  1  0  0  0  0
M  END
>  <minimizedAffinity>
-3.85823989

>  <minimizedRMSD>
3.27021718

$$$$
