REMARK  Name = 
REMARK  4 active torsions:
REMARK  status: ('A' for Active; 'I' for Inactive)
REMARK    1  A    between atoms: C_1  and  C_7
REMARK    2  A    between atoms: C_1  and  C_9
REMARK    3  A    between atoms: C_14  and  C_22
REMARK    4  A    between atoms: C_22  and  C_23
REMARK                            x       y       z     vdW  Elec       q    Type
REMARK                         _______ _______ _______ _____ _____    ______ ____
ROOT
ATOM      1  C   UNL     1      36.089  29.558  49.132  0.00  0.00    +0.000 A 
ATOM      2  C   UNL     1      36.282  29.703  50.520  0.00  0.00    +0.000 A 
ATOM      3  C   UNL     1      37.339  30.442  51.059  0.00  0.00    +0.000 A 
ATOM      4  C   UNL     1      38.239  31.063  50.168  0.00  0.00    +0.000 A 
ATOM      5  C   UNL     1      38.029  30.905  48.797  0.00  0.00    +0.000 A 
ATOM      6  C   UNL     1      36.980  30.170  48.286  0.00  0.00    +0.000 A 
ATOM      7  H   UNL     1      35.588  29.223  51.207  0.00  0.00    +0.000 HD
ATOM      8  H   UNL     1      37.488  30.554  52.103  0.00  0.00    +0.000 HD
ATOM      9  H   UNL     1      39.065  31.642  50.535  0.00  0.00    +0.000 HD
ATOM     10  H   UNL     1      38.763  31.414  48.167  0.00  0.00    +0.000 HD
ENDROOT
BRANCH   1  11
ATOM     11  C   UNL     1      34.936  28.775  48.690  0.00  0.00    +0.000 C 
ATOM     12  O   UNL     1      34.597  27.854  49.495  0.00  0.00    +0.000 OA
BRANCH  11  17
ATOM     13  C   UNL     1      33.010  30.578  46.193  0.00  0.00    +0.000 A 
ATOM     14  C   UNL     1      32.822  29.648  45.176  0.00  0.00    +0.000 A 
ATOM     15  C   UNL     1      33.358  28.388  45.349  0.00  0.00    +0.000 A 
ATOM     16  N   UNL     1      34.045  28.089  46.489  0.00  0.00    +0.000 NA
ATOM     17  C   UNL     1      34.210  28.996  47.446  0.00  0.00    +0.000 A 
ATOM     18  N   UNL     1      33.691  30.216  47.277  0.00  0.00    +0.000 NA
ATOM     19  H   UNL     1      32.616  31.602  46.140  0.00  0.00    +0.000 HD
ATOM     20  H   UNL     1      32.268  30.008  44.337  0.00  0.00    +0.000 HD
ATOM     21  H   UNL     1      33.200  27.680  44.548  0.00  0.00    +0.000 HD
ENDBRANCH  11  17
ENDBRANCH   1  11
BRANCH   6  22
ATOM     22  C   UNL     1      36.872  30.047  46.819  0.00  0.00    +0.000 C 
BRANCH  22  23
ATOM     23  C   UNL     1      35.622  30.811  46.334  0.00  0.00    +0.000 C 
ATOM     24  H   UNL     1      34.751  30.128  46.429  0.00  0.00    +0.000 HD
ENDBRANCH  22  23
ENDBRANCH   6  22
TORSDOF 4
