
 OpenBabel03272510013D

 15 15  0  0  0  0  0  0  0  0999 V2000
   38.2830   31.2970   50.1210 C   0  0  0  0  0  0  0  0  0  0  0  0
   38.3940   31.4650   48.7400 C   0  0  0  0  0  0  0  0  0  0  0  0
   37.3930   30.9180   47.9170 C   0  0  0  0  0  0  0  0  0  0  0  0
   36.3760   30.2550   48.5290 N   0  0  0  0  0  0  0  0  0  0  0  0
   36.3000   30.1130   49.8530 C   0  0  0  0  0  0  0  0  0  0  0  0
   37.2540   30.6340   50.6450 N   0  0  0  0  0  0  0  0  0  0  0  0
   39.0560   31.7220   50.7220 H   0  0  0  0  0  0  0  0  0  0  0  0
   39.1900   31.9860   48.2270 H   0  0  0  0  0  0  0  0  0  0  0  0
   35.1510   29.3710   50.4270 C   0  0  0  0  0  0  0  0  0  0  0  0
   35.2800   29.1190   51.7770 F   0  0  0  0  0  0  0  0  0  0  0  0
   33.9690   30.0720   50.2690 F   0  0  0  0  0  0  0  0  0  0  0  0
   34.9380   28.1540   49.8080 F   0  0  0  0  0  0  0  0  0  0  0  0
   37.3410   30.9940   46.4530 C   0  0  0  0  0  2  0  0  0  0  0  0
   36.1310   30.3340   45.8540 C   0  0  0  0  0  2  0  0  0  0  0  0
   35.2120   30.9390   45.9990 H   0  0  0  0  0  0  0  0  0  0  0  0
  1  6  1  0  0  0  0
  1  7  1  0  0  0  0
  2  1  2  0  0  0  0
  3  4  2  0  0  0  0
  3  2  1  0  0  0  0
  4  5  1  0  0  0  0
  5  9  1  0  0  0  0
  5  6  2  0  0  0  0
  8  2  1  0  0  0  0
  9 10  1  0  0  0  0
 11  9  1  0  0  0  0
 12  9  1  0  0  0  0
 13  3  1  0  0  0  0
 14 15  1  0  0  0  0
 14 13  1  0  0  0  0
M  END
>  <minimizedAffinity>
-4.44248915

>  <minimizedRMSD>
0.397373527

$$$$
