
 OpenBabel03272501353D

 30 32  0  0  1  0  0  0  0  0999 V2000
   38.0840   32.0560   47.1730 C   0  0  2  0  0  0  0  0  0  0  0  0
   38.5500   30.5380   47.0100 C   0  0  0  0  0  0  0  0  0  0  0  0
   39.3060   31.7410   46.5110 C   0  0  1  0  0  0  0  0  0  0  0  0
   37.0900   32.1620   46.6530 H   0  0  0  0  0  0  0  0  0  0  0  0
   38.9290   30.0270   47.8850 H   0  0  0  0  0  0  0  0  0  0  0  0
   37.9540   29.9680   46.2840 H   0  0  0  0  0  0  0  0  0  0  0  0
   40.2760   31.9310   47.0770 H   0  0  0  0  0  0  0  0  0  0  0  0
   39.5320   31.7870   45.0640 C   0  0  0  0  0  0  0  0  0  0  0  0
   39.1350   32.9320   44.3920 C   0  0  0  0  0  0  0  0  0  0  0  0
   39.3480   32.9750   43.0350 C   0  0  0  0  0  0  0  0  0  0  0  0
   39.9360   31.9230   42.3480 C   0  0  0  0  0  0  0  0  0  0  0  0
   40.3150   30.8070   43.0560 C   0  0  0  0  0  0  0  0  0  0  0  0
   40.1110   30.7580   44.3760 N   0  0  0  0  0  0  0  0  0  0  0  0
   38.6820   33.7460   44.9060 H   0  0  0  0  0  0  0  0  0  0  0  0
   39.0390   33.8680   42.5090 H   0  0  0  0  0  0  0  0  0  0  0  0
   40.0560   32.0640   41.2810 H   0  0  0  0  0  0  0  0  0  0  0  0
   40.7730   29.9890   42.5140 H   0  0  0  0  0  0  0  0  0  0  0  0
   38.0620   32.3520   48.6540 C   0  0  2  0  0  0  0  0  0  0  0  0
   38.6460   33.4250   49.0800 O   0  0  0  0  0  0  0  0  0  0  0  0
   37.5180   30.0220   51.5120 C   0  0  0  0  0  0  0  0  0  0  0  0
   38.0690   30.9440   50.6530 C   0  0  0  0  0  0  0  0  0  0  0  0
   37.3960   31.4120   49.5060 C   0  0  0  0  0  0  0  0  0  0  0  0
   36.2030   30.9200   49.2970 N   0  0  0  0  0  0  0  0  0  0  0  0
   35.6610   29.9990   50.1630 C   0  0  0  0  0  0  0  0  0  0  0  0
   36.2930   29.5530   51.2480 N   0  0  0  0  0  0  0  0  0  0  0  0
   38.0580   29.6830   52.3810 H   0  0  0  0  0  0  0  0  0  0  0  0
   39.0670   31.2940   50.9130 H   0  0  0  0  0  0  0  0  0  0  0  0
   34.2840   29.5360   49.7770 C   0  0  0  0  0  0  0  0  0  0  0  0
   34.4360   28.1550   49.1950 C   0  0  0  0  0  0  0  0  0  0  0  0
   35.4120   28.1580   48.6320 H   0  0  0  0  0  0  0  0  0  0  0  0
  1  4  1  6  0  0  0
  1 18  1  0  0  0  0
  2  1  1  0  0  0  0
  2  5  1  0  0  0  0
  3  2  1  0  0  0  0
  3  7  1  1  0  0  0
  3  1  1  0  0  0  0
  6  2  1  0  0  0  0
  8  3  1  0  0  0  0
  9 14  1  0  0  0  0
  9  8  1  0  0  0  0
 10  9  2  0  0  0  0
 11 10  1  0  0  0  0
 11 12  2  0  0  0  0
 12 13  1  0  0  0  0
 13  8  2  0  0  0  0
 15 10  1  0  0  0  0
 16 11  1  0  0  0  0
 17 12  1  0  0  0  0
 18 19  1  1  0  0  0
 18 22  1  0  0  0  0
 20 26  1  0  0  0  0
 21 27  1  0  0  0  0
 21 20  2  0  0  0  0
 22 21  1  0  0  0  0
 23 22  2  0  0  0  0
 23 24  1  0  0  0  0
 24 25  2  0  0  0  0
 25 20  1  0  0  0  0
 28 24  1  0  0  0  0
 29 28  1  0  0  0  0
 30 29  1  0  0  0  0
M  END
>  <minimizedAffinity>
-6.05009937

>  <minimizedRMSD>
0.499210954

$$$$
