
 OpenBabel03262522003D

 30 31  0  0  1  0  0  0  0  0999 V2000
   38.0400   25.5070   33.8360 N   0  0  0  0  0  0  0  0  0  0  0  0
   39.4620   25.4030   33.6710 C   0  0  0  0  0  0  0  0  0  0  0  0
   40.2130   24.5880   34.6370 C   0  0  0  0  0  0  0  0  0  0  0  0
   39.6140   24.3430   35.9760 C   0  0  0  0  0  0  0  0  0  0  0  0
   38.1430   24.6200   36.0750 C   0  0  0  0  0  0  0  0  0  0  0  0
   37.7630   25.8060   35.1850 C   0  0  1  0  0  0  0  0  0  0  0  0
   39.5860   24.9420   32.6410 H   0  0  0  0  0  0  0  0  0  0  0  0
   39.9580   26.4040   33.4850 H   0  0  0  0  0  0  0  0  0  0  0  0
   41.1950   25.1110   34.8510 H   0  0  0  0  0  0  0  0  0  0  0  0
   40.5930   23.6310   34.1640 H   0  0  0  0  0  0  0  0  0  0  0  0
   40.2170   24.7240   36.8410 H   0  0  0  0  0  0  0  0  0  0  0  0
   39.6610   23.2350   36.1720 H   0  0  0  0  0  0  0  0  0  0  0  0
   37.4880   23.7570   35.8900 H   0  0  0  0  0  0  0  0  0  0  0  0
   37.9300   24.9400   37.1200 H   0  0  0  0  0  0  0  0  0  0  0  0
   36.6390   25.8070   35.2640 H   0  0  0  0  0  0  0  0  0  0  0  0
   37.0860   25.3300   32.7750 C   0  0  0  0  0  0  0  0  0  0  0  0
   36.4570   26.3780   32.1050 C   0  0  0  0  0  0  0  0  0  0  0  0
   35.5580   26.0730   31.1020 C   0  0  0  0  0  0  0  0  0  0  0  0
   35.3400   24.7490   30.8250 N   0  0  0  0  0  0  0  0  0  0  0  0
   35.9540   23.7750   31.4820 C   0  0  0  0  0  0  0  0  0  0  0  0
   36.8270   24.0580   32.4560 N   0  0  0  0  0  0  0  0  0  0  0  0
   36.7080   27.3690   32.4100 H   0  0  0  0  0  0  0  0  0  0  0  0
   35.0730   26.8900   30.5860 H   0  0  0  0  0  0  0  0  0  0  0  0
   35.6280   22.3780   31.0830 C   0  0  0  0  0  2  0  0  0  0  0  0
   35.2070   21.5560   32.3010 C   0  0  0  0  0  2  0  0  0  0  0  0
   35.7040   20.5730   32.2680 H   0  0  0  0  0  0  0  0  0  0  0  0
   38.3920   27.0370   35.7490 C   0  0  0  0  0  0  0  0  0  0  0  0
   38.2830   26.9320   37.1440 F   0  0  0  0  0  0  0  0  0  0  0  0
   37.6310   28.1390   35.4490 F   0  0  0  0  0  0  0  0  0  0  0  0
   39.7120   27.2050   35.5000 F   0  0  0  0  0  0  0  0  0  0  0  0
  1  6  1  0  0  0  0
  2  1  1  0  0  0  0
  2  3  1  0  0  0  0
  3  9  1  0  0  0  0
  3  4  1  0  0  0  0
  4  5  1  0  0  0  0
  4 12  1  0  0  0  0
  4 11  1  0  0  0  0
  5 14  1  0  0  0  0
  6 15  1  1  0  0  0
  6 27  1  0  0  0  0
  6  5  1  0  0  0  0
  7  2  1  0  0  0  0
  8  2  1  0  0  0  0
 10  3  1  0  0  0  0
 13  5  1  0  0  0  0
 16  1  1  0  0  0  0
 17 22  1  0  0  0  0
 17 16  2  0  0  0  0
 18 17  1  0  0  0  0
 19 18  2  0  0  0  0
 19 20  1  0  0  0  0
 20 21  2  0  0  0  0
 21 16  1  0  0  0  0
 23 18  1  0  0  0  0
 24 20  1  0  0  0  0
 24 25  1  0  0  0  0
 26 25  1  0  0  0  0
 27 28  1  0  0  0  0
 29 27  1  0  0  0  0
 30 27  1  0  0  0  0
M  END
>  <minimizedAffinity>
-5.16893625

$$$$

 OpenBabel03262522003D

 30 31  0  0  1  0  0  0  0  0999 V2000
   38.4440   24.7220   35.5740 N   0  0  0  0  0  0  0  0  0  0  0  0
   39.8680   24.5630   35.6460 C   0  0  0  0  0  0  0  0  0  0  0  0
   40.4210   23.2050   35.5390 C   0  0  0  0  0  0  0  0  0  0  0  0
   39.5420   22.0530   35.8720 C   0  0  0  0  0  0  0  0  0  0  0  0
   38.0740   22.3630   35.9090 C   0  0  0  0  0  0  0  0  0  0  0  0
   37.8420   23.7820   36.4350 C   0  0  1  0  0  0  0  0  0  0  0  0
   40.2570   25.1780   34.7740 H   0  0  0  0  0  0  0  0  0  0  0  0
   40.3330   25.1440   36.5000 H   0  0  0  0  0  0  0  0  0  0  0  0
   41.2930   23.1220   36.2580 H   0  0  0  0  0  0  0  0  0  0  0  0
   40.9570   23.0540   34.5530 H   0  0  0  0  0  0  0  0  0  0  0  0
   39.9020   21.4130   36.7200 H   0  0  0  0  0  0  0  0  0  0  0  0
   39.6080   21.3180   35.0230 H   0  0  0  0  0  0  0  0  0  0  0  0
   37.5340   22.1940   34.9670 H   0  0  0  0  0  0  0  0  0  0  0  0
   37.6040   21.6800   36.6520 H   0  0  0  0  0  0  0  0  0  0  0  0
   36.7330   23.9080   36.2830 H   0  0  0  0  0  0  0  0  0  0  0  0
   37.7760   25.6910   34.7480 C   0  0  0  0  0  0  0  0  0  0  0  0
   37.4140   26.9670   35.1760 C   0  0  0  0  0  0  0  0  0  0  0  0
   36.7760   27.8050   34.2820 C   0  0  0  0  0  0  0  0  0  0  0  0
   36.5380   27.3260   33.0210 N   0  0  0  0  0  0  0  0  0  0  0  0
   36.8950   26.1060   32.6450 C   0  0  0  0  0  0  0  0  0  0  0  0
   37.5140   25.2850   33.5020 N   0  0  0  0  0  0  0  0  0  0  0  0
   37.6520   27.2270   36.1830 H   0  0  0  0  0  0  0  0  0  0  0  0
   36.4970   28.7930   34.6200 H   0  0  0  0  0  0  0  0  0  0  0  0
   36.5780   25.7080   31.2460 C   0  0  0  0  0  2  0  0  0  0  0  0
   35.2890   24.8870   31.1990 C   0  0  0  0  0  2  0  0  0  0  0  0
   35.4350   24.0170   30.5390 H   0  0  0  0  0  0  0  0  0  0  0  0
   38.2470   23.8230   37.8710 C   0  0  0  0  0  0  0  0  0  0  0  0
   37.3060   23.0490   38.5680 F   0  0  0  0  0  0  0  0  0  0  0  0
   38.0650   25.0850   38.3790 F   0  0  0  0  0  0  0  0  0  0  0  0
   39.4530   23.2860   38.1710 F   0  0  0  0  0  0  0  0  0  0  0  0
  1  2  1  0  0  0  0
  1  6  1  0  0  0  0
  2  8  1  0  0  0  0
  3  2  1  0  0  0  0
  3  4  1  0  0  0  0
  3  9  1  0  0  0  0
  4  5  1  0  0  0  0
  4 11  1  0  0  0  0
  5  6  1  0  0  0  0
  5 14  1  0  0  0  0
  6 15  1  6  0  0  0
  6 27  1  0  0  0  0
  7  2  1  0  0  0  0
 10  3  1  0  0  0  0
 12  4  1  0  0  0  0
 13  5  1  0  0  0  0
 16 17  1  0  0  0  0
 16  1  1  0  0  0  0
 17 22  1  0  0  0  0
 18 23  1  0  0  0  0
 18 17  2  0  0  0  0
 19 18  1  0  0  0  0
 20 19  2  0  0  0  0
 20 21  1  0  0  0  0
 21 16  2  0  0  0  0
 24 20  1  0  0  0  0
 25 24  1  0  0  0  0
 26 25  1  0  0  0  0
 27 30  1  0  0  0  0
 27 29  1  0  0  0  0
 27 28  1  0  0  0  0
M  END
>  <minimizedAffinity>
-5.14687872

$$$$

 OpenBabel03262522003D

 30 31  0  0  1  0  0  0  0  0999 V2000
   38.7230   22.9460   35.5960 N   0  0  0  0  0  0  0  0  0  0  0  0
   39.9840   23.0040   36.2800 C   0  0  0  0  0  0  0  0  0  0  0  0
   39.9820   22.9040   37.7470 C   0  0  0  0  0  0  0  0  0  0  0  0
   38.7380   23.2600   38.4800 C   0  0  0  0  0  0  0  0  0  0  0  0
   37.4960   23.3100   37.6400 C   0  0  0  0  0  0  0  0  0  0  0  0
   37.8240   23.8230   36.2350 C   0  0  1  0  0  0  0  0  0  0  0  0
   40.5630   22.1210   35.8620 H   0  0  0  0  0  0  0  0  0  0  0  0
   40.6450   23.8460   35.9130 H   0  0  0  0  0  0  0  0  0  0  0  0
   40.7680   23.6140   38.1480 H   0  0  0  0  0  0  0  0  0  0  0  0
   40.4070   21.9140   38.0940 H   0  0  0  0  0  0  0  0  0  0  0  0
   38.8430   24.1100   39.2040 H   0  0  0  0  0  0  0  0  0  0  0  0
   38.5100   22.4170   39.1910 H   0  0  0  0  0  0  0  0  0  0  0  0
   36.9190   22.3760   37.5980 H   0  0  0  0  0  0  0  0  0  0  0  0
   36.8140   24.0650   38.0910 H   0  0  0  0  0  0  0  0  0  0  0  0
   36.8420   23.6830   35.7010 H   0  0  0  0  0  0  0  0  0  0  0  0
   38.4580   22.1180   34.4510 C   0  0  0  0  0  0  0  0  0  0  0  0
   39.4220   21.7430   33.5170 C   0  0  0  0  0  0  0  0  0  0  0  0
   39.0370   20.9410   32.4600 C   0  0  0  0  0  0  0  0  0  0  0  0
   37.7230   20.5610   32.3960 N   0  0  0  0  0  0  0  0  0  0  0  0
   36.8300   20.9350   33.3020 C   0  0  0  0  0  0  0  0  0  0  0  0
   37.1900   21.7120   34.3300 N   0  0  0  0  0  0  0  0  0  0  0  0
   40.4140   22.1010   33.6740 H   0  0  0  0  0  0  0  0  0  0  0  0
   39.7890   20.6530   31.7390 H   0  0  0  0  0  0  0  0  0  0  0  0
   35.4330   20.4540   33.1160 C   0  0  0  0  0  2  0  0  0  0  0  0
   35.4130   18.9450   32.8680 C   0  0  0  0  0  2  0  0  0  0  0  0
   34.7250   18.7210   32.0380 H   0  0  0  0  0  0  0  0  0  0  0  0
   38.2350   25.2540   36.3420 C   0  0  0  0  0  0  0  0  0  0  0  0
   37.2820   25.9940   35.6240 F   0  0  0  0  0  0  0  0  0  0  0  0
   39.3980   25.4670   35.6460 F   0  0  0  0  0  0  0  0  0  0  0  0
   38.2430   25.7860   37.5870 F   0  0  0  0  0  0  0  0  0  0  0  0
  1  6  1  0  0  0  0
  1  2  1  0  0  0  0
  2  3  1  0  0  0  0
  3 10  1  0  0  0  0
  3  9  1  0  0  0  0
  3  4  1  0  0  0  0
  4 12  1  0  0  0  0
  4 11  1  0  0  0  0
  5 14  1  0  0  0  0
  5  4  1  0  0  0  0
  6 15  1  6  0  0  0
  6 27  1  0  0  0  0
  6  5  1  0  0  0  0
  7  2  1  0  0  0  0
  8  2  1  0  0  0  0
 13  5  1  0  0  0  0
 16  1  1  0  0  0  0
 17 22  1  0  0  0  0
 17 16  2  0  0  0  0
 18 17  1  0  0  0  0
 19 18  2  0  0  0  0
 19 20  1  0  0  0  0
 20 21  2  0  0  0  0
 21 16  1  0  0  0  0
 23 18  1  0  0  0  0
 24 20  1  0  0  0  0
 25 24  1  0  0  0  0
 26 25  1  0  0  0  0
 27 30  1  0  0  0  0
 28 27  1  0  0  0  0
 29 27  1  0  0  0  0
M  END
>  <minimizedAffinity>
-5.07706547

$$$$

 OpenBabel03262522003D

 30 31  0  0  1  0  0  0  0  0999 V2000
   38.8400   23.2480   35.2000 N   0  0  0  0  0  0  0  0  0  0  0  0
   39.7920   24.3210   35.1750 C   0  0  0  0  0  0  0  0  0  0  0  0
   41.1650   24.0390   35.6180 C   0  0  0  0  0  0  0  0  0  0  0  0
   41.3960   22.8820   36.5230 C   0  0  0  0  0  0  0  0  0  0  0  0
   40.2730   21.8880   36.5830 C   0  0  0  0  0  0  0  0  0  0  0  0
   38.9240   22.6000   36.4490 C   0  0  1  0  0  0  0  0  0  0  0  0
   39.8250   24.6320   34.0830 H   0  0  0  0  0  0  0  0  0  0  0  0
   39.3890   25.2780   35.6260 H   0  0  0  0  0  0  0  0  0  0  0  0
   41.5390   24.9390   36.1970 H   0  0  0  0  0  0  0  0  0  0  0  0
   41.8900   24.0440   34.7470 H   0  0  0  0  0  0  0  0  0  0  0  0
   41.8390   23.1420   37.5200 H   0  0  0  0  0  0  0  0  0  0  0  0
   42.2320   22.2690   36.0840 H   0  0  0  0  0  0  0  0  0  0  0  0
   40.3510   21.0470   35.8800 H   0  0  0  0  0  0  0  0  0  0  0  0
   40.2800   21.4330   37.5990 H   0  0  0  0  0  0  0  0  0  0  0  0
   38.2080   21.7320   36.3830 H   0  0  0  0  0  0  0  0  0  0  0  0
   37.9610   22.9170   34.1110 C   0  0  0  0  0  0  0  0  0  0  0  0
   37.8160   23.6900   32.9610 C   0  0  0  0  0  0  0  0  0  0  0  0
   36.9360   23.2600   31.9860 C   0  0  0  0  0  0  0  0  0  0  0  0
   36.2580   22.0920   32.2120 N   0  0  0  0  0  0  0  0  0  0  0  0
   36.4190   21.3800   33.3180 C   0  0  0  0  0  0  0  0  0  0  0  0
   37.2670   21.7850   34.2700 N   0  0  0  0  0  0  0  0  0  0  0  0
   38.3990   24.5810   32.8980 H   0  0  0  0  0  0  0  0  0  0  0  0
   36.8280   23.8640   31.0950 H   0  0  0  0  0  0  0  0  0  0  0  0
   35.6210   20.1280   33.4410 C   0  0  0  0  0  2  0  0  0  0  0  0
   34.8390   19.8610   32.1550 C   0  0  0  0  0  2  0  0  0  0  0  0
   33.8080   19.5650   32.4090 H   0  0  0  0  0  0  0  0  0  0  0  0
   38.7150   23.4420   37.6640 C   0  0  0  0  0  0  0  0  0  0  0  0
   37.5510   22.9600   38.2830 F   0  0  0  0  0  0  0  0  0  0  0  0
   38.3790   24.7230   37.3010 F   0  0  0  0  0  0  0  0  0  0  0  0
   39.6810   23.3820   38.6100 F   0  0  0  0  0  0  0  0  0  0  0  0
  1  6  1  0  0  0  0
  2  1  1  0  0  0  0
  2  3  1  0  0  0  0
  2  8  1  0  0  0  0
  3  9  1  0  0  0  0
  3  4  1  0  0  0  0
  4  5  1  0  0  0  0
  4 11  1  0  0  0  0
  5 14  1  0  0  0  0
  6 15  1  1  0  0  0
  6  5  1  0  0  0  0
  6 27  1  0  0  0  0
  7  2  1  0  0  0  0
 10  3  1  0  0  0  0
 12  4  1  0  0  0  0
 13  5  1  0  0  0  0
 16 21  1  0  0  0  0
 16  1  1  0  0  0  0
 17 16  2  0  0  0  0
 18 19  2  0  0  0  0
 18 17  1  0  0  0  0
 19 20  1  0  0  0  0
 20 24  1  0  0  0  0
 20 21  2  0  0  0  0
 22 17  1  0  0  0  0
 23 18  1  0  0  0  0
 25 26  1  0  0  0  0
 25 24  1  0  0  0  0
 27 28  1  0  0  0  0
 27 30  1  0  0  0  0
 29 27  1  0  0  0  0
M  END
>  <minimizedAffinity>
-4.98809767

$$$$

 OpenBabel03262522003D

 30 31  0  0  1  0  0  0  0  0999 V2000
   37.9110   25.6140   33.7590 N   0  0  0  0  0  0  0  0  0  0  0  0
   38.2480   24.7220   34.8320 C   0  0  0  0  0  0  0  0  0  0  0  0
   38.2360   25.2520   36.2030 C   0  0  0  0  0  0  0  0  0  0  0  0
   38.3910   26.7180   36.3990 C   0  0  0  0  0  0  0  0  0  0  0  0
   38.1540   27.5510   35.1740 C   0  0  0  0  0  0  0  0  0  0  0  0
   38.6370   26.8110   33.9240 C   0  0  1  0  0  0  0  0  0  0  0  0
   37.4680   23.8990   34.7600 H   0  0  0  0  0  0  0  0  0  0  0  0
   39.1780   24.1120   34.6210 H   0  0  0  0  0  0  0  0  0  0  0  0
   39.1050   24.7910   36.7660 H   0  0  0  0  0  0  0  0  0  0  0  0
   37.3670   24.8370   36.7990 H   0  0  0  0  0  0  0  0  0  0  0  0
   39.2860   27.0230   37.0010 H   0  0  0  0  0  0  0  0  0  0  0  0
   37.5640   27.0590   37.0820 H   0  0  0  0  0  0  0  0  0  0  0  0
   37.1260   27.9190   35.0460 H   0  0  0  0  0  0  0  0  0  0  0  0
   38.7910   28.4610   35.2570 H   0  0  0  0  0  0  0  0  0  0  0  0
   38.2820   27.4900   33.0980 H   0  0  0  0  0  0  0  0  0  0  0  0
   36.9820   25.3030   32.7070 C   0  0  0  0  0  0  0  0  0  0  0  0
   36.2800   26.2600   31.9760 C   0  0  0  0  0  0  0  0  0  0  0  0
   35.4150   25.8300   30.9880 C   0  0  0  0  0  0  0  0  0  0  0  0
   35.3020   24.4800   30.7870 N   0  0  0  0  0  0  0  0  0  0  0  0
   35.9840   23.5950   31.5000 C   0  0  0  0  0  0  0  0  0  0  0  0
   36.8250   23.9990   32.4600 N   0  0  0  0  0  0  0  0  0  0  0  0
   36.4520   27.2830   32.2250 H   0  0  0  0  0  0  0  0  0  0  0  0
   34.8730   26.5770   30.4250 H   0  0  0  0  0  0  0  0  0  0  0  0
   35.7690   22.1560   31.1810 C   0  0  0  0  0  2  0  0  0  0  0  0
   35.1140   21.4360   32.3600 C   0  0  0  0  0  2  0  0  0  0  0  0
   35.6220   20.4730   32.5260 H   0  0  0  0  0  0  0  0  0  0  0  0
   40.1240   26.6970   33.9910 C   0  0  0  0  0  0  0  0  0  0  0  0
   40.6340   27.6580   33.1040 F   0  0  0  0  0  0  0  0  0  0  0  0
   40.5340   25.5060   33.4450 F   0  0  0  0  0  0  0  0  0  0  0  0
   40.6940   26.9690   35.1880 F   0  0  0  0  0  0  0  0  0  0  0  0
  1  6  1  0  0  0  0
  1  2  1  0  0  0  0
  2  3  1  0  0  0  0
  3  4  1  0  0  0  0
  3  9  1  0  0  0  0
  3 10  1  0  0  0  0
  4 11  1  0  0  0  0
  4 12  1  0  0  0  0
  5 14  1  0  0  0  0
  5  4  1  0  0  0  0
  6 15  1  6  0  0  0
  6 27  1  0  0  0  0
  6  5  1  0  0  0  0
  7  2  1  0  0  0  0
  8  2  1  0  0  0  0
 13  5  1  0  0  0  0
 16  1  1  0  0  0  0
 17 22  1  0  0  0  0
 17 16  2  0  0  0  0
 18 17  1  0  0  0  0
 19 18  2  0  0  0  0
 19 20  1  0  0  0  0
 20 21  2  0  0  0  0
 21 16  1  0  0  0  0
 23 18  1  0  0  0  0
 24 20  1  0  0  0  0
 24 25  1  0  0  0  0
 25 26  1  0  0  0  0
 27 30  1  0  0  0  0
 28 27  1  0  0  0  0
 29 27  1  0  0  0  0
M  END
>  <minimizedAffinity>
-4.95307398

$$$$

 OpenBabel03262522003D

 30 31  0  0  1  0  0  0  0  0999 V2000
   38.5450   25.2780   35.1700 N   0  0  0  0  0  0  0  0  0  0  0  0
   38.0900   24.7970   33.8960 C   0  0  0  0  0  0  0  0  0  0  0  0
   38.7840   25.2690   32.6890 C   0  0  0  0  0  0  0  0  0  0  0  0
   39.5360   26.5500   32.7580 C   0  0  0  0  0  0  0  0  0  0  0  0
   39.8370   27.0370   34.1450 C   0  0  0  0  0  0  0  0  0  0  0  0
   38.6930   26.6770   35.0970 C   0  0  1  0  0  0  0  0  0  0  0  0
   38.2190   23.6710   33.9660 H   0  0  0  0  0  0  0  0  0  0  0  0
   36.9640   24.8460   33.7850 H   0  0  0  0  0  0  0  0  0  0  0  0
   38.0090   25.4320   31.8790 H   0  0  0  0  0  0  0  0  0  0  0  0
   39.4000   24.4440   32.2170 H   0  0  0  0  0  0  0  0  0  0  0  0
   39.1780   27.3470   32.0550 H   0  0  0  0  0  0  0  0  0  0  0  0
   40.5650   26.3630   32.3430 H   0  0  0  0  0  0  0  0  0  0  0  0
   40.8080   26.7220   34.5540 H   0  0  0  0  0  0  0  0  0  0  0  0
   39.8710   28.1490   34.1120 H   0  0  0  0  0  0  0  0  0  0  0  0
   39.1150   26.9840   36.0950 H   0  0  0  0  0  0  0  0  0  0  0  0
   38.7990   24.4390   36.3100 C   0  0  0  0  0  0  0  0  0  0  0  0
   38.0410   24.4590   37.4800 C   0  0  0  0  0  0  0  0  0  0  0  0
   38.3880   23.6010   38.5040 C   0  0  0  0  0  0  0  0  0  0  0  0
   39.4640   22.7760   38.3050 N   0  0  0  0  0  0  0  0  0  0  0  0
   40.1650   22.7820   37.1800 C   0  0  0  0  0  0  0  0  0  0  0  0
   39.8380   23.6090   36.1800 N   0  0  0  0  0  0  0  0  0  0  0  0
   37.2250   25.1460   37.5170 H   0  0  0  0  0  0  0  0  0  0  0  0
   37.7970   23.6210   39.4090 H   0  0  0  0  0  0  0  0  0  0  0  0
   41.3120   21.8360   37.0910 C   0  0  0  0  0  2  0  0  0  0  0  0
   42.5600   22.5510   36.5710 C   0  0  0  0  0  2  0  0  0  0  0  0
   43.0490   21.9230   35.8100 H   0  0  0  0  0  0  0  0  0  0  0  0
   37.4880   27.4660   34.7010 C   0  0  0  0  0  0  0  0  0  0  0  0
   37.4420   28.5740   35.5600 F   0  0  0  0  0  0  0  0  0  0  0  0
   36.3450   26.7720   35.0100 F   0  0  0  0  0  0  0  0  0  0  0  0
   37.4900   27.9770   33.4480 F   0  0  0  0  0  0  0  0  0  0  0  0
  1 16  1  0  0  0  0
  2  7  1  0  0  0  0
  2  1  1  0  0  0  0
  3  4  1  0  0  0  0
  3  2  1  0  0  0  0
  4  5  1  0  0  0  0
  5 13  1  0  0  0  0
  5  6  1  0  0  0  0
  6  1  1  0  0  0  0
  6 15  1  1  0  0  0
  8  2  1  0  0  0  0
  9  3  1  0  0  0  0
 10  3  1  0  0  0  0
 11  4  1  0  0  0  0
 12  4  1  0  0  0  0
 14  5  1  0  0  0  0
 16 17  1  0  0  0  0
 17 22  1  0  0  0  0
 17 18  2  0  0  0  0
 18 23  1  0  0  0  0
 19 18  1  0  0  0  0
 20 19  2  0  0  0  0
 21 16  2  0  0  0  0
 21 20  1  0  0  0  0
 24 20  1  0  0  0  0
 25 24  1  0  0  0  0
 26 25  1  0  0  0  0
 27 29  1  0  0  0  0
 27  6  1  0  0  0  0
 27 28  1  0  0  0  0
 30 27  1  0  0  0  0
M  END
>  <minimizedAffinity>
-4.89524078

$$$$

 OpenBabel03262522003D

 30 31  0  0  1  0  0  0  0  0999 V2000
   38.2970   26.1240   34.3800 N   0  0  0  0  0  0  0  0  0  0  0  0
   39.3750   26.9290   34.8770 C   0  0  0  0  0  0  0  0  0  0  0  0
   40.7250   26.3460   34.8960 C   0  0  0  0  0  0  0  0  0  0  0  0
   40.8570   24.8650   34.9040 C   0  0  0  0  0  0  0  0  0  0  0  0
   39.6220   24.1130   34.5030 C   0  0  0  0  0  0  0  0  0  0  0  0
   38.3690   24.8520   34.9820 C   0  0  1  0  0  0  0  0  0  0  0  0
   39.3850   27.8310   34.1870 H   0  0  0  0  0  0  0  0  0  0  0  0
   39.1240   27.4470   35.8520 H   0  0  0  0  0  0  0  0  0  0  0  0
   41.2430   26.6890   35.8430 H   0  0  0  0  0  0  0  0  0  0  0  0
   41.3930   26.8240   34.1160 H   0  0  0  0  0  0  0  0  0  0  0  0
   41.3870   24.4420   35.7980 H   0  0  0  0  0  0  0  0  0  0  0  0
   41.5820   24.5840   34.0900 H   0  0  0  0  0  0  0  0  0  0  0  0
   39.5520   23.8610   33.4350 H   0  0  0  0  0  0  0  0  0  0  0  0
   39.6300   23.1390   35.0420 H   0  0  0  0  0  0  0  0  0  0  0  0
   37.5460   24.2490   34.5040 H   0  0  0  0  0  0  0  0  0  0  0  0
   37.3220   26.5740   33.4240 C   0  0  0  0  0  0  0  0  0  0  0  0
   36.9220   27.9020   33.2800 C   0  0  0  0  0  0  0  0  0  0  0  0
   35.9750   28.2040   32.3210 C   0  0  0  0  0  0  0  0  0  0  0  0
   35.4850   27.1730   31.5650 N   0  0  0  0  0  0  0  0  0  0  0  0
   35.8850   25.9200   31.7270 C   0  0  0  0  0  0  0  0  0  0  0  0
   36.8020   25.6140   32.6530 N   0  0  0  0  0  0  0  0  0  0  0  0
   37.3770   28.6180   33.9280 H   0  0  0  0  0  0  0  0  0  0  0  0
   35.6690   29.2360   32.2150 H   0  0  0  0  0  0  0  0  0  0  0  0
   35.2730   24.8920   30.8400 C   0  0  0  0  0  2  0  0  0  0  0  0
   35.5920   23.4850   31.3470 C   0  0  0  0  0  2  0  0  0  0  0  0
   35.8890   22.8510   30.4970 H   0  0  0  0  0  0  0  0  0  0  0  0
   38.3400   24.8060   36.4740 C   0  0  0  0  0  0  0  0  0  0  0  0
   37.1290   24.1910   36.8260 F   0  0  0  0  0  0  0  0  0  0  0  0
   38.2170   26.0740   36.9840 F   0  0  0  0  0  0  0  0  0  0  0  0
   39.3070   24.0720   37.0720 F   0  0  0  0  0  0  0  0  0  0  0  0
  1  2  1  0  0  0  0
  1  6  1  0  0  0  0
  2  3  1  0  0  0  0
  2  8  1  0  0  0  0
  3  4  1  0  0  0  0
  3  9  1  0  0  0  0
  4 11  1  0  0  0  0
  5  4  1  0  0  0  0
  5  6  1  0  0  0  0
  5 14  1  0  0  0  0
  6 15  1  6  0  0  0
  6 27  1  0  0  0  0
  7  2  1  0  0  0  0
 10  3  1  0  0  0  0
 12  4  1  0  0  0  0
 13  5  1  0  0  0  0
 16  1  1  0  0  0  0
 17 16  1  0  0  0  0
 17 22  1  0  0  0  0
 18 17  2  0  0  0  0
 19 20  2  0  0  0  0
 19 18  1  0  0  0  0
 20 21  1  0  0  0  0
 21 16  2  0  0  0  0
 23 18  1  0  0  0  0
 24 25  1  0  0  0  0
 24 20  1  0  0  0  0
 26 25  1  0  0  0  0
 27 28  1  0  0  0  0
 27 29  1  0  0  0  0
 27 30  1  0  0  0  0
M  END
>  <minimizedAffinity>
-4.87897635

$$$$

 OpenBabel03262522003D

 30 31  0  0  1  0  0  0  0  0999 V2000
   38.7860   23.2570   35.1440 N   0  0  0  0  0  0  0  0  0  0  0  0
   39.7210   24.3450   35.0990 C   0  0  0  0  0  0  0  0  0  0  0  0
   41.1050   24.0870   35.5220 C   0  0  0  0  0  0  0  0  0  0  0  0
   41.3670   22.9360   36.4280 C   0  0  0  0  0  0  0  0  0  0  0  0
   40.2610   21.9260   36.5100 C   0  0  0  0  0  0  0  0  0  0  0  0
   38.8990   22.6160   36.3940 C   0  0  1  0  0  0  0  0  0  0  0  0
   39.7320   24.6520   34.0070 H   0  0  0  0  0  0  0  0  0  0  0  0
   39.3090   25.2970   35.5530 H   0  0  0  0  0  0  0  0  0  0  0  0
   41.4740   24.9940   36.0920 H   0  0  0  0  0  0  0  0  0  0  0  0
   41.8160   24.0990   34.6410 H   0  0  0  0  0  0  0  0  0  0  0  0
   41.8220   23.2070   37.4170 H   0  0  0  0  0  0  0  0  0  0  0  0
   42.2060   22.3350   35.9790 H   0  0  0  0  0  0  0  0  0  0  0  0
   40.3420   21.0830   35.8080 H   0  0  0  0  0  0  0  0  0  0  0  0
   40.2910   21.4750   37.5270 H   0  0  0  0  0  0  0  0  0  0  0  0
   38.1960   21.7370   36.3420 H   0  0  0  0  0  0  0  0  0  0  0  0
   37.8950   22.9080   34.0700 C   0  0  0  0  0  0  0  0  0  0  0  0
   37.2750   21.6660   33.9410 C   0  0  0  0  0  0  0  0  0  0  0  0
   36.4390   21.4580   32.8610 C   0  0  0  0  0  0  0  0  0  0  0  0
   36.2700   22.4920   31.9790 N   0  0  0  0  0  0  0  0  0  0  0  0
   36.8760   23.6610   32.1310 C   0  0  0  0  0  0  0  0  0  0  0  0
   37.6880   23.8760   33.1720 N   0  0  0  0  0  0  0  0  0  0  0  0
   37.4840   20.9390   34.6920 H   0  0  0  0  0  0  0  0  0  0  0  0
   35.9610   20.4930   32.7660 H   0  0  0  0  0  0  0  0  0  0  0  0
   36.6070   24.7020   31.1000 C   0  0  0  0  0  2  0  0  0  0  0  0
   35.1060   24.9700   30.9840 C   0  0  0  0  0  2  0  0  0  0  0  0
   34.8260   25.0200   29.9200 H   0  0  0  0  0  0  0  0  0  0  0  0
   38.6960   23.4590   37.6080 C   0  0  0  0  0  0  0  0  0  0  0  0
   37.5310   22.9830   38.2300 F   0  0  0  0  0  0  0  0  0  0  0  0
   38.3650   24.7410   37.2460 F   0  0  0  0  0  0  0  0  0  0  0  0
   39.6630   23.3960   38.5530 F   0  0  0  0  0  0  0  0  0  0  0  0
  1  6  1  0  0  0  0
  2  1  1  0  0  0  0
  2  3  1  0  0  0  0
  2  8  1  0  0  0  0
  3  9  1  0  0  0  0
  3  4  1  0  0  0  0
  4  5  1  0  0  0  0
  4 11  1  0  0  0  0
  5 14  1  0  0  0  0
  6 15  1  1  0  0  0
  6  5  1  0  0  0  0
  6 27  1  0  0  0  0
  7  2  1  0  0  0  0
 10  3  1  0  0  0  0
 12  4  1  0  0  0  0
 13  5  1  0  0  0  0
 16  1  1  0  0  0  0
 17 16  1  0  0  0  0
 17 22  1  0  0  0  0
 18 17  2  0  0  0  0
 19 20  2  0  0  0  0
 19 18  1  0  0  0  0
 20 21  1  0  0  0  0
 21 16  2  0  0  0  0
 23 18  1  0  0  0  0
 24 20  1  0  0  0  0
 25 24  1  0  0  0  0
 26 25  1  0  0  0  0
 27 28  1  0  0  0  0
 27 30  1  0  0  0  0
 29 27  1  0  0  0  0
M  END
>  <minimizedAffinity>
-4.876091

$$$$

 OpenBabel03262522003D

 30 31  0  0  1  0  0  0  0  0999 V2000
   38.1070   26.5970   34.6350 N   0  0  0  0  0  0  0  0  0  0  0  0
   39.3650   27.1320   35.0690 C   0  0  0  0  0  0  0  0  0  0  0  0
   40.5820   26.3560   34.7890 C   0  0  0  0  0  0  0  0  0  0  0  0
   40.4530   24.8930   34.5590 C   0  0  0  0  0  0  0  0  0  0  0  0
   39.0640   24.4170   34.2510 C   0  0  0  0  0  0  0  0  0  0  0  0
   38.0330   25.2440   35.0240 C   0  0  1  0  0  0  0  0  0  0  0  0
   39.4430   28.1270   34.5260 H   0  0  0  0  0  0  0  0  0  0  0  0
   39.3380   27.5080   36.1370 H   0  0  0  0  0  0  0  0  0  0  0  0
   41.2720   26.4490   35.6830 H   0  0  0  0  0  0  0  0  0  0  0  0
   41.2160   26.8540   33.9930 H   0  0  0  0  0  0  0  0  0  0  0  0
   41.0130   24.2480   35.2860 H   0  0  0  0  0  0  0  0  0  0  0  0
   41.0050   24.6480   33.6090 H   0  0  0  0  0  0  0  0  0  0  0  0
   38.8110   24.3650   33.1820 H   0  0  0  0  0  0  0  0  0  0  0  0
   38.9720   23.3760   34.6330 H   0  0  0  0  0  0  0  0  0  0  0  0
   37.0620   24.8640   34.5990 H   0  0  0  0  0  0  0  0  0  0  0  0
   37.1090   27.3470   33.9210 C   0  0  0  0  0  0  0  0  0  0  0  0
   36.7190   27.0800   32.6100 C   0  0  0  0  0  0  0  0  0  0  0  0
   35.7460   27.8760   32.0370 C   0  0  0  0  0  0  0  0  0  0  0  0
   35.2210   28.8850   32.8000 N   0  0  0  0  0  0  0  0  0  0  0  0
   35.6140   29.1130   34.0450 C   0  0  0  0  0  0  0  0  0  0  0  0
   36.5560   28.3490   34.6110 N   0  0  0  0  0  0  0  0  0  0  0  0
   37.2010   26.2660   32.1170 H   0  0  0  0  0  0  0  0  0  0  0  0
   35.4480   27.6640   31.0200 H   0  0  0  0  0  0  0  0  0  0  0  0
   34.9630   30.2420   34.7660 C   0  0  0  0  0  2  0  0  0  0  0  0
   35.9920   31.0220   35.5850 C   0  0  0  0  0  2  0  0  0  0  0  0
   35.5800   31.2300   36.5850 H   0  0  0  0  0  0  0  0  0  0  0  0
   38.1920   24.9490   36.4790 C   0  0  0  0  0  0  0  0  0  0  0  0
   37.0110   24.3080   36.8830 F   0  0  0  0  0  0  0  0  0  0  0  0
   38.1880   26.1160   37.2030 F   0  0  0  0  0  0  0  0  0  0  0  0
   39.1960   24.1070   36.8160 F   0  0  0  0  0  0  0  0  0  0  0  0
  1  6  1  0  0  0  0
  1  2  1  0  0  0  0
  2  8  1  0  0  0  0
  3  2  1  0  0  0  0
  3  9  1  0  0  0  0
  4  3  1  0  0  0  0
  4 11  1  0  0  0  0
  5  4  1  0  0  0  0
  5 14  1  0  0  0  0
  5  6  1  0  0  0  0
  6 15  1  6  0  0  0
  6 27  1  0  0  0  0
  7  2  1  0  0  0  0
 10  3  1  0  0  0  0
 12  4  1  0  0  0  0
 13  5  1  0  0  0  0
 16 21  1  0  0  0  0
 16  1  1  0  0  0  0
 17 16  2  0  0  0  0
 18 17  1  0  0  0  0
 18 19  2  0  0  0  0
 19 20  1  0  0  0  0
 20 21  2  0  0  0  0
 20 24  1  0  0  0  0
 22 17  1  0  0  0  0
 23 18  1  0  0  0  0
 24 25  1  0  0  0  0
 25 26  1  0  0  0  0
 27 30  1  0  0  0  0
 27 28  1  0  0  0  0
 27 29  1  0  0  0  0
M  END
>  <minimizedAffinity>
-4.86979103

$$$$
