
 OpenBabel03272510333D

 22 23  0  0  0  0  0  0  0  0999 V2000
   36.2130   30.0740   48.4840 C   0  0  0  0  0  0  0  0  0  0  0  0
   35.1110   30.0770   47.6600 C   0  0  0  0  0  0  0  0  0  0  0  0
   34.0280   29.2560   47.9150 C   0  0  0  0  0  0  0  0  0  0  0  0
   34.0840   28.4300   49.0230 C   0  0  0  0  0  0  0  0  0  0  0  0
   35.1790   28.4140   49.8550 C   0  0  0  0  0  0  0  0  0  0  0  0
   36.2700   29.2420   49.6000 C   0  0  0  0  0  0  0  0  0  0  0  0
   35.0100   30.7020   46.7780 H   0  0  0  0  0  0  0  0  0  0  0  0
   33.1450   29.2290   47.2950 H   0  0  0  0  0  0  0  0  0  0  0  0
   33.2920   27.7420   49.3200 H   0  0  0  0  0  0  0  0  0  0  0  0
   35.2730   27.7870   50.7350 H   0  0  0  0  0  0  0  0  0  0  0  0
   38.4190   32.9670   48.5950 C   0  0  0  0  0  0  0  0  0  0  0  0
   39.3500   32.7420   47.5670 C   0  0  0  0  0  0  0  0  0  0  0  0
   39.1980   31.5500   46.8220 C   0  0  0  0  0  0  0  0  0  0  0  0
   38.1840   30.7160   47.1400 N   0  0  0  0  0  0  0  0  0  0  0  0
   37.3070   30.9710   48.1400 C   0  0  0  0  0  0  0  0  0  0  0  0
   37.4370   32.1000   48.8580 N   0  0  0  0  0  0  0  0  0  0  0  0
   38.4640   33.8630   49.2190 H   0  0  0  0  0  0  0  0  0  0  0  0
   40.1260   33.4430   47.3710 H   0  0  0  0  0  0  0  0  0  0  0  0
   39.8920   31.3350   46.0210 H   0  0  0  0  0  0  0  0  0  0  0  0
   37.4580   29.2370   50.4890 C   0  0  0  0  0  2  0  0  0  0  0  0
   37.2580   29.9700   51.7740 C   0  0  0  0  0  2  0  0  0  0  0  0
   36.2830   30.5300   51.7610 H   0  0  0  0  0  0  0  0  0  0  0  0
  1  6  1  0  0  0  0
  2  3  1  0  0  0  0
  2  1  2  0  0  0  0
  3  4  2  0  0  0  0
  4  9  1  0  0  0  0
  4  5  1  0  0  0  0
  5 10  1  0  0  0  0
  6  5  2  0  0  0  0
  6 20  1  0  0  0  0
  7  2  1  0  0  0  0
  8  3  1  0  0  0  0
 11 16  1  0  0  0  0
 11 17  1  0  0  0  0
 12 11  2  0  0  0  0
 13 14  2  0  0  0  0
 13 12  1  0  0  0  0
 14 15  1  0  0  0  0
 15  1  1  0  0  0  0
 15 16  2  0  0  0  0
 18 12  1  0  0  0  0
 19 13  1  0  0  0  0
 20 21  1  0  0  0  0
 22 21  1  0  0  0  0
M  END
>  <minimizedAffinity>
-5.64959383

>  <minimizedRMSD>
0.756608129

$$$$
