
 OpenBabel03272509233D

 40 43  0  0  0  0  0  0  0  0999 V2000
   37.4330   26.4240   32.3090 C   0  0  0  0  0  0  0  0  0  0  0  0
   36.2650   26.8720   31.7100 C   0  0  0  0  0  0  0  0  0  0  0  0
   35.4850   25.8460   31.1710 C   0  0  0  0  0  0  0  0  0  0  0  0
   35.8660   24.4980   31.2420 C   0  0  0  0  0  0  0  0  0  0  0  0
   37.0680   24.1600   31.8720 C   0  0  0  0  0  0  0  0  0  0  0  0
   37.8680   25.1650   32.4180 C   0  0  0  0  0  0  0  0  0  0  0  0
   34.5470   26.0810   30.6760 H   0  0  0  0  0  0  0  0  0  0  0  0
   35.2690   23.7180   30.8280 H   0  0  0  0  0  0  0  0  0  0  0  0
   37.3620   23.1220   31.9260 H   0  0  0  0  0  0  0  0  0  0  0  0
   35.0240   28.7670   32.6100 C   0  0  0  0  0  0  0  0  0  0  0  0
   35.8750   28.2390   31.6370 C   0  0  0  0  0  0  0  0  0  0  0  0
   36.3050   29.0980   30.6240 C   0  0  0  0  0  0  0  0  0  0  0  0
   35.8870   30.3830   30.6260 N   0  0  0  0  0  0  0  0  0  0  0  0
   35.0550   30.8550   31.5980 C   0  0  0  0  0  0  0  0  0  0  0  0
   34.6260   30.0580   32.5820 N   0  0  0  0  0  0  0  0  0  0  0  0
   34.6690   28.1360   33.4090 H   0  0  0  0  0  0  0  0  0  0  0  0
   34.7130   31.8810   31.6140 H   0  0  0  0  0  0  0  0  0  0  0  0
   37.2170   28.5760   29.5600 C   0  0  0  0  0  0  0  0  0  0  0  0
   38.0390   27.9870   30.0480 H   0  0  0  0  0  0  0  0  0  0  0  0
   37.7100   29.4400   29.0630 H   0  0  0  0  0  0  0  0  0  0  0  0
   36.6940   27.9960   28.7900 H   0  0  0  0  0  0  0  0  0  0  0  0
   38.2880   27.3800   32.8820 O   0  0  0  0  0  0  0  0  0  0  0  0
   38.0620   27.8840   33.7040 H   0  0  0  0  0  0  0  0  0  0  0  0
   39.0360   24.7470   33.0230 O   0  0  0  0  0  0  0  0  0  0  0  0
   38.2980   24.0810   35.2950 C   0  0  0  0  0  0  0  0  0  0  0  0
   39.1620   24.1440   34.2280 C   0  0  0  0  0  0  0  0  0  0  0  0
   40.3920   23.4960   34.3440 C   0  0  0  0  0  0  0  0  0  0  0  0
   40.7410   22.8000   35.5100 C   0  0  0  0  0  0  0  0  0  0  0  0
   41.8110   22.0970   35.9140 N   0  0  0  0  0  0  0  0  0  0  0  0
   41.6270   21.6260   37.1510 C   0  0  0  0  0  0  0  0  0  0  0  0
   40.3950   22.0450   37.5470 N   0  0  0  0  0  0  0  0  0  0  0  0
   39.8260   22.7730   36.5480 C   0  0  0  0  0  0  0  0  0  0  0  0
   38.6070   23.4090   36.4500 C   0  0  0  0  0  0  0  0  0  0  0  0
   37.3530   24.6160   35.1270 H   0  0  0  0  0  0  0  0  0  0  0  0
   41.1790   23.4540   33.5950 H   0  0  0  0  0  0  0  0  0  0  0  0
   42.6660   21.9230   35.3770 H   0  0  0  0  0  0  0  0  0  0  0  0
   42.3020   21.0190   37.7640 H   0  0  0  0  0  0  0  0  0  0  0  0
   37.6370   23.3580   37.5680 C   0  0  0  0  0  2  0  0  0  0  0  0
   37.9940   24.5120   38.5040 C   0  0  0  0  0  2  0  0  0  0  0  0
   37.1330   25.1800   38.6230 H   0  0  0  0  0  0  0  0  0  0  0  0
  1  6  1  0  0  0  0
  1 22  1  0  0  0  0
  2  1  2  0  0  0  0
  3  4  2  0  0  0  0
  3  2  1  0  0  0  0
  4  5  1  0  0  0  0
  5  9  1  0  0  0  0
  5  6  2  0  0  0  0
  6 24  1  0  0  0  0
  7  3  1  0  0  0  0
  8  4  1  0  0  0  0
 10 16  1  0  0  0  0
 11  2  1  0  0  0  0
 11 10  2  0  0  0  0
 12 13  2  0  0  0  0
 12 11  1  0  0  0  0
 13 14  1  0  0  0  0
 14 17  1  0  0  0  0
 14 15  2  0  0  0  0
 15 10  1  0  0  0  0
 18 19  1  0  0  0  0
 18 12  1  0  0  0  0
 20 18  1  0  0  0  0
 21 18  1  0  0  0  0
 22 23  1  0  0  0  0
 24 26  1  0  0  0  0
 25 33  1  0  0  0  0
 26 27  1  0  0  0  0
 26 25  2  0  0  0  0
 27 28  2  0  0  0  0
 28 29  1  0  0  0  0
 28 32  1  0  0  0  0
 29 30  1  0  0  0  0
 30 31  2  0  0  0  0
 30 37  1  0  0  0  0
 32 31  1  0  0  0  0
 33 32  2  0  0  0  0
 33 38  1  0  0  0  0
 34 25  1  0  0  0  0
 35 27  1  0  0  0  0
 36 29  1  0  0  0  0
 38 39  1  0  0  0  0
 39 40  1  0  0  0  0
M  END
>  <minimizedAffinity>
-5.97524309

$$$$

 OpenBabel03272509233D

 40 43  0  0  0  0  0  0  0  0999 V2000
   37.5320   26.4340   32.2800 C   0  0  0  0  0  0  0  0  0  0  0  0
   36.3310   26.8440   31.7200 C   0  0  0  0  0  0  0  0  0  0  0  0
   35.5540   25.7910   31.2310 C   0  0  0  0  0  0  0  0  0  0  0  0
   35.9700   24.4540   31.3110 C   0  0  0  0  0  0  0  0  0  0  0  0
   37.2030   24.1550   31.8980 C   0  0  0  0  0  0  0  0  0  0  0  0
   38.0000   25.1880   32.3940 C   0  0  0  0  0  0  0  0  0  0  0  0
   34.5920   25.9950   30.7700 H   0  0  0  0  0  0  0  0  0  0  0  0
   35.3750   23.6520   30.9350 H   0  0  0  0  0  0  0  0  0  0  0  0
   37.5230   23.1240   31.9590 H   0  0  0  0  0  0  0  0  0  0  0  0
   35.0660   28.7210   32.6250 C   0  0  0  0  0  0  0  0  0  0  0  0
   35.9070   28.2010   31.6390 C   0  0  0  0  0  0  0  0  0  0  0  0
   36.2920   29.0560   30.6060 C   0  0  0  0  0  0  0  0  0  0  0  0
   35.8440   30.3300   30.6000 N   0  0  0  0  0  0  0  0  0  0  0  0
   35.0240   30.7950   31.5860 C   0  0  0  0  0  0  0  0  0  0  0  0
   34.6370   30.0020   32.5890 N   0  0  0  0  0  0  0  0  0  0  0  0
   34.7450   28.0930   33.4400 H   0  0  0  0  0  0  0  0  0  0  0  0
   34.6570   31.8130   31.5960 H   0  0  0  0  0  0  0  0  0  0  0  0
   37.1920   28.5410   29.5270 C   0  0  0  0  0  0  0  0  0  0  0  0
   38.0380   27.9780   30.0030 H   0  0  0  0  0  0  0  0  0  0  0  0
   37.6520   29.4090   29.0070 H   0  0  0  0  0  0  0  0  0  0  0  0
   36.6650   27.9390   28.7770 H   0  0  0  0  0  0  0  0  0  0  0  0
   38.3870   27.4200   32.8010 O   0  0  0  0  0  0  0  0  0  0  0  0
   38.1820   27.9340   33.6230 H   0  0  0  0  0  0  0  0  0  0  0  0
   39.2010   24.8070   32.9590 O   0  0  0  0  0  0  0  0  0  0  0  0
   40.2960   23.2870   34.5850 C   0  0  0  0  0  0  0  0  0  0  0  0
   39.3890   24.2330   34.1700 C   0  0  0  0  0  0  0  0  0  0  0  0
   38.4810   24.7230   35.1090 C   0  0  0  0  0  0  0  0  0  0  0  0
   38.4900   24.2700   36.4360 C   0  0  0  0  0  0  0  0  0  0  0  0
   37.7720   24.5400   37.5380 N   0  0  0  0  0  0  0  0  0  0  0  0
   38.2030   23.8110   38.5720 C   0  0  0  0  0  0  0  0  0  0  0  0
   39.2320   23.0510   38.1090 N   0  0  0  0  0  0  0  0  0  0  0  0
   39.4290   23.3180   36.7890 C   0  0  0  0  0  0  0  0  0  0  0  0
   40.3320   22.8220   35.8740 C   0  0  0  0  0  0  0  0  0  0  0  0
   40.9730   22.9500   33.7870 H   0  0  0  0  0  0  0  0  0  0  0  0
   37.7070   25.4670   34.9390 H   0  0  0  0  0  0  0  0  0  0  0  0
   36.9970   25.2050   37.6140 H   0  0  0  0  0  0  0  0  0  0  0  0
   37.8360   23.7950   39.6030 H   0  0  0  0  0  0  0  0  0  0  0  0
   41.3370   21.8120   36.2760 C   0  0  0  0  0  2  0  0  0  0  0  0
   42.6460   22.5670   36.4990 C   0  0  0  0  0  2  0  0  0  0  0  0
   43.0050   22.4070   37.5230 H   0  0  0  0  0  0  0  0  0  0  0  0
  1  6  1  0  0  0  0
  1 22  1  0  0  0  0
  2  1  2  0  0  0  0
  3  4  2  0  0  0  0
  3  2  1  0  0  0  0
  4  5  1  0  0  0  0
  5  9  1  0  0  0  0
  5  6  2  0  0  0  0
  6 24  1  0  0  0  0
  7  3  1  0  0  0  0
  8  4  1  0  0  0  0
 10 16  1  0  0  0  0
 11  2  1  0  0  0  0
 11 10  2  0  0  0  0
 12 11  1  0  0  0  0
 13 12  2  0  0  0  0
 13 14  1  0  0  0  0
 14 17  1  0  0  0  0
 14 15  2  0  0  0  0
 15 10  1  0  0  0  0
 18 19  1  0  0  0  0
 18 12  1  0  0  0  0
 20 18  1  0  0  0  0
 21 18  1  0  0  0  0
 22 23  1  0  0  0  0
 24 26  1  0  0  0  0
 25 33  1  0  0  0  0
 26 25  2  0  0  0  0
 26 27  1  0  0  0  0
 27 28  2  0  0  0  0
 28 32  1  0  0  0  0
 28 29  1  0  0  0  0
 29 36  1  0  0  0  0
 29 30  1  0  0  0  0
 30 37  1  0  0  0  0
 31 30  2  0  0  0  0
 32 31  1  0  0  0  0
 33 38  1  0  0  0  0
 33 32  2  0  0  0  0
 34 25  1  0  0  0  0
 35 27  1  0  0  0  0
 38 39  1  0  0  0  0
 39 40  1  0  0  0  0
M  END
>  <minimizedAffinity>
-5.82809687

$$$$

 OpenBabel03272509233D

 40 43  0  0  0  0  0  0  0  0999 V2000
   37.6520   26.2500   33.9760 C   0  0  0  0  0  0  0  0  0  0  0  0
   37.8750   24.8840   34.0720 C   0  0  0  0  0  0  0  0  0  0  0  0
   37.4050   24.1630   32.9720 C   0  0  0  0  0  0  0  0  0  0  0  0
   36.7710   24.7830   31.8850 C   0  0  0  0  0  0  0  0  0  0  0  0
   36.5990   26.1710   31.8940 C   0  0  0  0  0  0  0  0  0  0  0  0
   37.0590   26.9160   32.9810 C   0  0  0  0  0  0  0  0  0  0  0  0
   37.5250   23.0840   32.9390 H   0  0  0  0  0  0  0  0  0  0  0  0
   36.4120   24.2290   31.0470 H   0  0  0  0  0  0  0  0  0  0  0  0
   36.1110   26.6480   31.0570 H   0  0  0  0  0  0  0  0  0  0  0  0
   37.7640   23.8570   36.2800 C   0  0  0  0  0  0  0  0  0  0  0  0
   38.5180   24.2520   35.1740 C   0  0  0  0  0  0  0  0  0  0  0  0
   39.8910   24.0020   35.2090 C   0  0  0  0  0  0  0  0  0  0  0  0
   40.4240   23.3980   36.2940 N   0  0  0  0  0  0  0  0  0  0  0  0
   39.6470   23.0290   37.3510 C   0  0  0  0  0  0  0  0  0  0  0  0
   38.3300   23.2550   37.3480 N   0  0  0  0  0  0  0  0  0  0  0  0
   36.6990   24.0320   36.2920 H   0  0  0  0  0  0  0  0  0  0  0  0
   40.0590   22.5440   38.2260 H   0  0  0  0  0  0  0  0  0  0  0  0
   40.7390   24.4080   34.0460 C   0  0  0  0  0  0  0  0  0  0  0  0
   40.2330   24.0810   33.0990 H   0  0  0  0  0  0  0  0  0  0  0  0
   41.6970   23.8460   34.0940 H   0  0  0  0  0  0  0  0  0  0  0  0
   40.9760   25.4790   34.0390 H   0  0  0  0  0  0  0  0  0  0  0  0
   38.0890   27.0640   35.0340 O   0  0  0  0  0  0  0  0  0  0  0  0
   39.0450   27.2360   35.2250 H   0  0  0  0  0  0  0  0  0  0  0  0
   36.8510   28.2790   32.9120 O   0  0  0  0  0  0  0  0  0  0  0  0
   35.7280   29.8100   34.5080 C   0  0  0  0  0  0  0  0  0  0  0  0
   35.8070   28.9730   33.4200 C   0  0  0  0  0  0  0  0  0  0  0  0
   34.6480   28.7630   32.6730 C   0  0  0  0  0  0  0  0  0  0  0  0
   33.4380   29.3840   33.0150 C   0  0  0  0  0  0  0  0  0  0  0  0
   32.1930   29.3850   32.5120 N   0  0  0  0  0  0  0  0  0  0  0  0
   31.3910   30.1710   33.2370 C   0  0  0  0  0  0  0  0  0  0  0  0
   32.1550   30.6880   34.2370 N   0  0  0  0  0  0  0  0  0  0  0  0
   33.4260   30.2150   34.1210 C   0  0  0  0  0  0  0  0  0  0  0  0
   34.5620   30.4330   34.8710 C   0  0  0  0  0  0  0  0  0  0  0  0
   36.6810   29.9210   35.0450 H   0  0  0  0  0  0  0  0  0  0  0  0
   34.5460   28.1340   31.7920 H   0  0  0  0  0  0  0  0  0  0  0  0
   31.8670   28.8700   31.6880 H   0  0  0  0  0  0  0  0  0  0  0  0
   30.3280   30.3880   33.0940 H   0  0  0  0  0  0  0  0  0  0  0  0
   34.5300   31.3360   36.0440 C   0  0  0  0  0  2  0  0  0  0  0  0
   35.8660   32.0780   36.0560 C   0  0  0  0  0  2  0  0  0  0  0  0
   35.6970   33.1600   36.0140 H   0  0  0  0  0  0  0  0  0  0  0  0
  1  2  1  0  0  0  0
  1 22  1  0  0  0  0
  2 11  1  0  0  0  0
  3  2  2  0  0  0  0
  4  5  2  0  0  0  0
  4  3  1  0  0  0  0
  5  6  1  0  0  0  0
  6  1  2  0  0  0  0
  7  3  1  0  0  0  0
  8  4  1  0  0  0  0
  9  5  1  0  0  0  0
 10 16  1  0  0  0  0
 10 15  1  0  0  0  0
 11 12  1  0  0  0  0
 11 10  2  0  0  0  0
 12 13  2  0  0  0  0
 13 14  1  0  0  0  0
 14 17  1  0  0  0  0
 15 14  2  0  0  0  0
 18 20  1  0  0  0  0
 18 12  1  0  0  0  0
 19 18  1  0  0  0  0
 21 18  1  0  0  0  0
 22 23  1  0  0  0  0
 24  6  1  0  0  0  0
 24 26  1  0  0  0  0
 25 33  1  0  0  0  0
 25 34  1  0  0  0  0
 26 25  2  0  0  0  0
 27 28  2  0  0  0  0
 27 26  1  0  0  0  0
 28 32  1  0  0  0  0
 29 28  1  0  0  0  0
 29 30  1  0  0  0  0
 30 31  2  0  0  0  0
 32 31  1  0  0  0  0
 32 33  2  0  0  0  0
 33 38  1  0  0  0  0
 35 27  1  0  0  0  0
 36 29  1  0  0  0  0
 37 30  1  0  0  0  0
 38 39  1  0  0  0  0
 40 39  1  0  0  0  0
M  END
>  <minimizedAffinity>
-5.78247166

$$$$

 OpenBabel03272509233D

 40 43  0  0  0  0  0  0  0  0999 V2000
   37.9840   25.6220   34.1100 C   0  0  0  0  0  0  0  0  0  0  0  0
   38.7780   25.4020   35.2250 C   0  0  0  0  0  0  0  0  0  0  0  0
   38.7780   26.4660   36.1310 C   0  0  0  0  0  0  0  0  0  0  0  0
   38.0360   27.6360   35.9110 C   0  0  0  0  0  0  0  0  0  0  0  0
   37.2680   27.7500   34.7480 C   0  0  0  0  0  0  0  0  0  0  0  0
   37.2500   26.7030   33.8260 C   0  0  0  0  0  0  0  0  0  0  0  0
   39.3660   26.4040   37.0420 H   0  0  0  0  0  0  0  0  0  0  0  0
   38.0390   28.4470   36.6040 H   0  0  0  0  0  0  0  0  0  0  0  0
   36.6960   28.6520   34.5790 H   0  0  0  0  0  0  0  0  0  0  0  0
   40.8260   24.1110   34.9380 C   0  0  0  0  0  0  0  0  0  0  0  0
   39.5320   24.2150   35.4510 C   0  0  0  0  0  0  0  0  0  0  0  0
   39.0370   23.1280   36.1710 C   0  0  0  0  0  0  0  0  0  0  0  0
   39.8160   22.0370   36.3400 N   0  0  0  0  0  0  0  0  0  0  0  0
   41.0750   21.9800   35.8200 C   0  0  0  0  0  0  0  0  0  0  0  0
   41.5780   23.0050   35.1250 N   0  0  0  0  0  0  0  0  0  0  0  0
   41.2460   24.9300   34.3750 H   0  0  0  0  0  0  0  0  0  0  0  0
   41.7110   21.1150   35.9470 H   0  0  0  0  0  0  0  0  0  0  0  0
   37.6550   23.1940   36.7400 C   0  0  0  0  0  0  0  0  0  0  0  0
   37.5230   24.1860   37.2490 H   0  0  0  0  0  0  0  0  0  0  0  0
   37.5630   22.4240   37.5370 H   0  0  0  0  0  0  0  0  0  0  0  0
   36.8730   23.0050   35.9950 H   0  0  0  0  0  0  0  0  0  0  0  0
   37.9180   24.6100   33.1380 O   0  0  0  0  0  0  0  0  0  0  0  0
   37.4610   23.7440   33.2900 H   0  0  0  0  0  0  0  0  0  0  0  0
   36.4660   26.8950   32.7060 O   0  0  0  0  0  0  0  0  0  0  0  0
   36.0420   29.1500   31.7630 C   0  0  0  0  0  0  0  0  0  0  0  0
   36.5790   27.8840   31.7900 C   0  0  0  0  0  0  0  0  0  0  0  0
   37.3870   27.4950   30.7220 C   0  0  0  0  0  0  0  0  0  0  0  0
   37.6470   28.3630   29.6520 C   0  0  0  0  0  0  0  0  0  0  0  0
   38.3590   28.2870   28.5160 N   0  0  0  0  0  0  0  0  0  0  0  0
   38.2740   29.4280   27.8270 C   0  0  0  0  0  0  0  0  0  0  0  0
   37.4770   30.2600   28.5510 N   0  0  0  0  0  0  0  0  0  0  0  0
   37.0770   29.6230   29.6850 C   0  0  0  0  0  0  0  0  0  0  0  0
   36.2760   30.0240   30.7330 C   0  0  0  0  0  0  0  0  0  0  0  0
   35.4170   29.3790   32.6380 H   0  0  0  0  0  0  0  0  0  0  0  0
   37.8800   26.5350   30.5950 H   0  0  0  0  0  0  0  0  0  0  0  0
   38.9070   27.4840   28.1920 H   0  0  0  0  0  0  0  0  0  0  0  0
   38.7350   29.6900   26.8690 H   0  0  0  0  0  0  0  0  0  0  0  0
   35.6850   31.3810   30.7560 C   0  0  0  0  0  2  0  0  0  0  0  0
   36.6390   32.2550   31.5700 C   0  0  0  0  0  2  0  0  0  0  0  0
   36.9820   33.1030   30.9650 H   0  0  0  0  0  0  0  0  0  0  0  0
  1  2  1  0  0  0  0
  2 11  1  0  0  0  0
  2  3  2  0  0  0  0
  3  7  1  0  0  0  0
  4  3  1  0  0  0  0
  4  8  1  0  0  0  0
  5  4  2  0  0  0  0
  6  1  2  0  0  0  0
  6  5  1  0  0  0  0
  9  5  1  0  0  0  0
 10 15  2  0  0  0  0
 10 11  1  0  0  0  0
 11 12  2  0  0  0  0
 12 13  1  0  0  0  0
 12 18  1  0  0  0  0
 14 17  1  0  0  0  0
 14 13  2  0  0  0  0
 15 14  1  0  0  0  0
 16 10  1  0  0  0  0
 18 19  1  0  0  0  0
 18 20  1  0  0  0  0
 21 18  1  0  0  0  0
 22 23  1  0  0  0  0
 22  1  1  0  0  0  0
 24  6  1  0  0  0  0
 25 26  1  0  0  0  0
 25 34  1  0  0  0  0
 26 24  1  0  0  0  0
 27 26  2  0  0  0  0
 28 32  2  0  0  0  0
 28 27  1  0  0  0  0
 29 28  1  0  0  0  0
 30 29  1  0  0  0  0
 30 31  2  0  0  0  0
 31 32  1  0  0  0  0
 32 33  1  0  0  0  0
 33 38  1  0  0  0  0
 33 25  2  0  0  0  0
 35 27  1  0  0  0  0
 36 29  1  0  0  0  0
 37 30  1  0  0  0  0
 38 39  1  0  0  0  0
 40 39  1  0  0  0  0
M  END
>  <minimizedAffinity>
-5.74848366

$$$$

 OpenBabel03272509233D

 40 43  0  0  0  0  0  0  0  0999 V2000
   36.1430   28.7080   33.4780 C   0  0  0  0  0  0  0  0  0  0  0  0
   35.5600   29.9660   33.5040 C   0  0  0  0  0  0  0  0  0  0  0  0
   35.5320   30.5940   32.2560 C   0  0  0  0  0  0  0  0  0  0  0  0
   36.0510   29.9900   31.1010 C   0  0  0  0  0  0  0  0  0  0  0  0
   36.6180   28.7150   31.1930 C   0  0  0  0  0  0  0  0  0  0  0  0
   36.6590   28.0640   32.4270 C   0  0  0  0  0  0  0  0  0  0  0  0
   35.0990   31.5850   32.1570 H   0  0  0  0  0  0  0  0  0  0  0  0
   36.0300   30.4730   30.1510 H   0  0  0  0  0  0  0  0  0  0  0  0
   37.0170   28.2500   30.3030 H   0  0  0  0  0  0  0  0  0  0  0  0
   35.8590   31.3790   35.4680 C   0  0  0  0  0  0  0  0  0  0  0  0
   35.0320   30.5820   34.6740 C   0  0  0  0  0  0  0  0  0  0  0  0
   33.7060   30.4280   35.0800 C   0  0  0  0  0  0  0  0  0  0  0  0
   33.2830   31.0460   36.2050 N   0  0  0  0  0  0  0  0  0  0  0  0
   34.1280   31.8150   36.9490 C   0  0  0  0  0  0  0  0  0  0  0  0
   35.4040   31.9820   36.5870 N   0  0  0  0  0  0  0  0  0  0  0  0
   36.8910   31.5220   35.1890 H   0  0  0  0  0  0  0  0  0  0  0  0
   33.8050   32.3160   37.8510 H   0  0  0  0  0  0  0  0  0  0  0  0
   32.7830   29.5840   34.2600 C   0  0  0  0  0  0  0  0  0  0  0  0
   32.9080   29.8590   33.1790 H   0  0  0  0  0  0  0  0  0  0  0  0
   31.7350   29.8450   34.5250 H   0  0  0  0  0  0  0  0  0  0  0  0
   32.9160   28.5090   34.4300 H   0  0  0  0  0  0  0  0  0  0  0  0
   36.2190   27.9930   34.6850 O   0  0  0  0  0  0  0  0  0  0  0  0
   35.4250   27.6130   35.1400 H   0  0  0  0  0  0  0  0  0  0  0  0
   37.2330   26.8090   32.4310 O   0  0  0  0  0  0  0  0  0  0  0  0
   38.5740   25.4000   33.9700 C   0  0  0  0  0  0  0  0  0  0  0  0
   38.3560   26.4260   33.0820 C   0  0  0  0  0  0  0  0  0  0  0  0
   39.4350   27.2480   32.7560 C   0  0  0  0  0  0  0  0  0  0  0  0
   40.7050   27.0380   33.3120 C   0  0  0  0  0  0  0  0  0  0  0  0
   41.9030   27.6340   33.2010 N   0  0  0  0  0  0  0  0  0  0  0  0
   42.8090   27.0200   33.9680 C   0  0  0  0  0  0  0  0  0  0  0  0
   42.1620   25.9970   34.5890 N   0  0  0  0  0  0  0  0  0  0  0  0
   40.8580   25.9870   34.1990 C   0  0  0  0  0  0  0  0  0  0  0  0
   39.8030   25.1670   34.5330 C   0  0  0  0  0  0  0  0  0  0  0  0
   37.6760   24.8010   34.1770 H   0  0  0  0  0  0  0  0  0  0  0  0
   39.4250   28.0960   32.0760 H   0  0  0  0  0  0  0  0  0  0  0  0
   42.1290   28.4450   32.6180 H   0  0  0  0  0  0  0  0  0  0  0  0
   43.8700   27.2540   34.1010 H   0  0  0  0  0  0  0  0  0  0  0  0
   39.9910   24.0400   35.4750 C   0  0  0  0  0  2  0  0  0  0  0  0
   38.8210   24.0950   36.4560 C   0  0  0  0  0  2  0  0  0  0  0  0
   38.2630   23.1510   36.4310 H   0  0  0  0  0  0  0  0  0  0  0  0
  1  2  1  0  0  0  0
  1 22  1  0  0  0  0
  2 11  1  0  0  0  0
  3  2  2  0  0  0  0
  4  5  2  0  0  0  0
  4  3  1  0  0  0  0
  5  6  1  0  0  0  0
  6 24  1  0  0  0  0
  6  1  2  0  0  0  0
  7  3  1  0  0  0  0
  8  4  1  0  0  0  0
  9  5  1  0  0  0  0
 10 15  1  0  0  0  0
 11 12  1  0  0  0  0
 11 10  2  0  0  0  0
 12 13  2  0  0  0  0
 13 14  1  0  0  0  0
 14 17  1  0  0  0  0
 15 14  2  0  0  0  0
 16 10  1  0  0  0  0
 18 21  1  0  0  0  0
 18 20  1  0  0  0  0
 18 12  1  0  0  0  0
 19 18  1  0  0  0  0
 22 23  1  0  0  0  0
 24 26  1  0  0  0  0
 25 34  1  0  0  0  0
 25 33  1  0  0  0  0
 26 25  2  0  0  0  0
 27 26  1  0  0  0  0
 27 28  2  0  0  0  0
 28 32  1  0  0  0  0
 29 28  1  0  0  0  0
 29 30  1  0  0  0  0
 30 37  1  0  0  0  0
 30 31  2  0  0  0  0
 32 33  2  0  0  0  0
 32 31  1  0  0  0  0
 33 38  1  0  0  0  0
 35 27  1  0  0  0  0
 36 29  1  0  0  0  0
 38 39  1  0  0  0  0
 40 39  1  0  0  0  0
M  END
>  <minimizedAffinity>
-5.70762539

$$$$

 OpenBabel03272509233D

 40 43  0  0  0  0  0  0  0  0999 V2000
   38.7150   24.9760   33.7840 C   0  0  0  0  0  0  0  0  0  0  0  0
   38.5840   23.6880   34.2810 C   0  0  0  0  0  0  0  0  0  0  0  0
   37.6810   22.9010   33.5620 C   0  0  0  0  0  0  0  0  0  0  0  0
   36.9830   23.3890   32.4470 C   0  0  0  0  0  0  0  0  0  0  0  0
   37.1940   24.7090   32.0340 C   0  0  0  0  0  0  0  0  0  0  0  0
   38.0900   25.5170   32.7330 C   0  0  0  0  0  0  0  0  0  0  0  0
   37.4980   21.8730   33.8620 H   0  0  0  0  0  0  0  0  0  0  0  0
   36.2930   22.7870   31.9020 H   0  0  0  0  0  0  0  0  0  0  0  0
   36.6560   25.0850   31.1750 H   0  0  0  0  0  0  0  0  0  0  0  0
   40.4570   22.4440   35.2230 C   0  0  0  0  0  0  0  0  0  0  0  0
   39.2910   23.1890   35.4110 C   0  0  0  0  0  0  0  0  0  0  0  0
   38.8740   23.4090   36.7250 C   0  0  0  0  0  0  0  0  0  0  0  0
   39.6010   22.8990   37.7430 N   0  0  0  0  0  0  0  0  0  0  0  0
   40.7340   22.1770   37.5110 C   0  0  0  0  0  0  0  0  0  0  0  0
   41.1600   21.9500   36.2650 N   0  0  0  0  0  0  0  0  0  0  0  0
   40.8130   22.2510   34.2230 H   0  0  0  0  0  0  0  0  0  0  0  0
   41.3270   21.7640   38.3150 H   0  0  0  0  0  0  0  0  0  0  0  0
   37.6300   24.2020   36.9750 C   0  0  0  0  0  0  0  0  0  0  0  0
   37.6580   25.1250   36.3370 H   0  0  0  0  0  0  0  0  0  0  0  0
   37.6420   24.5550   38.0280 H   0  0  0  0  0  0  0  0  0  0  0  0
   36.7110   23.6230   36.8220 H   0  0  0  0  0  0  0  0  0  0  0  0
   39.6010   25.8480   34.4380 O   0  0  0  0  0  0  0  0  0  0  0  0
   40.5860   25.7400   34.4090 H   0  0  0  0  0  0  0  0  0  0  0  0
   38.2410   26.8050   32.2590 O   0  0  0  0  0  0  0  0  0  0  0  0
   36.5960   28.2210   33.4610 C   0  0  0  0  0  0  0  0  0  0  0  0
   37.3690   27.8310   32.3930 C   0  0  0  0  0  0  0  0  0  0  0  0
   37.2860   28.5810   31.2190 C   0  0  0  0  0  0  0  0  0  0  0  0
   36.4430   29.6970   31.1260 C   0  0  0  0  0  0  0  0  0  0  0  0
   36.1520   30.5930   30.1690 N   0  0  0  0  0  0  0  0  0  0  0  0
   35.2580   31.4820   30.6100 C   0  0  0  0  0  0  0  0  0  0  0  0
   34.9700   31.1390   31.8950 N   0  0  0  0  0  0  0  0  0  0  0  0
   35.6920   30.0370   32.2370 C   0  0  0  0  0  0  0  0  0  0  0  0
   35.7610   29.3070   33.4040 C   0  0  0  0  0  0  0  0  0  0  0  0
   36.7170   27.5800   34.3450 H   0  0  0  0  0  0  0  0  0  0  0  0
   37.8270   28.4030   30.2930 H   0  0  0  0  0  0  0  0  0  0  0  0
   36.5420   30.6230   29.2220 H   0  0  0  0  0  0  0  0  0  0  0  0
   34.8160   32.3340   30.0830 H   0  0  0  0  0  0  0  0  0  0  0  0
   34.9580   29.6950   34.5860 C   0  0  0  0  0  2  0  0  0  0  0  0
   35.7460   30.7900   35.3050 C   0  0  0  0  0  2  0  0  0  0  0  0
   35.1390   31.7000   35.3850 H   0  0  0  0  0  0  0  0  0  0  0  0
  1  2  1  0  0  0  0
  1 22  1  0  0  0  0
  2 11  1  0  0  0  0
  3  7  1  0  0  0  0
  3  2  2  0  0  0  0
  4  3  1  0  0  0  0
  5  4  2  0  0  0  0
  5  6  1  0  0  0  0
  6  1  2  0  0  0  0
  8  4  1  0  0  0  0
  9  5  1  0  0  0  0
 10 11  2  0  0  0  0
 10 15  1  0  0  0  0
 11 12  1  0  0  0  0
 12 18  1  0  0  0  0
 12 13  2  0  0  0  0
 14 13  1  0  0  0  0
 14 17  1  0  0  0  0
 15 14  2  0  0  0  0
 16 10  1  0  0  0  0
 18 20  1  0  0  0  0
 19 18  1  0  0  0  0
 21 18  1  0  0  0  0
 23 22  1  0  0  0  0
 24 26  1  0  0  0  0
 24  6  1  0  0  0  0
 25 34  1  0  0  0  0
 26 25  2  0  0  0  0
 27 26  1  0  0  0  0
 28 27  2  0  0  0  0
 28 32  1  0  0  0  0
 29 30  1  0  0  0  0
 29 28  1  0  0  0  0
 30 31  2  0  0  0  0
 31 32  1  0  0  0  0
 32 33  2  0  0  0  0
 33 25  1  0  0  0  0
 33 38  1  0  0  0  0
 35 27  1  0  0  0  0
 36 29  1  0  0  0  0
 37 30  1  0  0  0  0
 38 39  1  0  0  0  0
 39 40  1  0  0  0  0
M  END
>  <minimizedAffinity>
-5.69518948

$$$$

 OpenBabel03272509233D

 40 43  0  0  0  0  0  0  0  0999 V2000
   35.8060   29.2710   33.5070 C   0  0  0  0  0  0  0  0  0  0  0  0
   34.7620   30.1740   33.6380 C   0  0  0  0  0  0  0  0  0  0  0  0
   34.3960   30.7820   32.4350 C   0  0  0  0  0  0  0  0  0  0  0  0
   35.0370   30.4910   31.2210 C   0  0  0  0  0  0  0  0  0  0  0  0
   36.0810   29.5600   31.2070 C   0  0  0  0  0  0  0  0  0  0  0  0
   36.4680   28.9380   32.3950 C   0  0  0  0  0  0  0  0  0  0  0  0
   33.5880   31.5090   32.4180 H   0  0  0  0  0  0  0  0  0  0  0  0
   34.7560   30.9570   30.3050 H   0  0  0  0  0  0  0  0  0  0  0  0
   36.5750   29.3350   30.2720 H   0  0  0  0  0  0  0  0  0  0  0  0
   32.9150   29.8230   35.1890 C   0  0  0  0  0  0  0  0  0  0  0  0
   34.1090   30.4720   34.8670 C   0  0  0  0  0  0  0  0  0  0  0  0
   34.6060   31.3960   35.7870 C   0  0  0  0  0  0  0  0  0  0  0  0
   33.9250   31.6230   36.9310 N   0  0  0  0  0  0  0  0  0  0  0  0
   32.7620   30.9650   37.2030 C   0  0  0  0  0  0  0  0  0  0  0  0
   32.2590   30.0740   36.3430 N   0  0  0  0  0  0  0  0  0  0  0  0
   32.4960   29.1020   34.5050 H   0  0  0  0  0  0  0  0  0  0  0  0
   32.2050   31.1340   38.1150 H   0  0  0  0  0  0  0  0  0  0  0  0
   35.8830   32.1150   35.4840 C   0  0  0  0  0  0  0  0  0  0  0  0
   36.6390   31.3680   35.1210 H   0  0  0  0  0  0  0  0  0  0  0  0
   36.2890   32.5290   36.4320 H   0  0  0  0  0  0  0  0  0  0  0  0
   35.7530   32.9460   34.7800 H   0  0  0  0  0  0  0  0  0  0  0  0
   36.2500   28.6050   34.6620 O   0  0  0  0  0  0  0  0  0  0  0  0
   35.7140   27.9140   35.1270 H   0  0  0  0  0  0  0  0  0  0  0  0
   37.5050   28.0320   32.2930 O   0  0  0  0  0  0  0  0  0  0  0  0
   38.0990   25.8960   33.4070 C   0  0  0  0  0  0  0  0  0  0  0  0
   37.4450   26.6960   32.5000 C   0  0  0  0  0  0  0  0  0  0  0  0
   36.5560   26.0860   31.6150 C   0  0  0  0  0  0  0  0  0  0  0  0
   36.3300   24.7020   31.6460 C   0  0  0  0  0  0  0  0  0  0  0  0
   35.5620   23.8470   30.9520 N   0  0  0  0  0  0  0  0  0  0  0  0
   35.7250   22.5980   31.3980 C   0  0  0  0  0  0  0  0  0  0  0  0
   36.6300   22.6620   32.4120 N   0  0  0  0  0  0  0  0  0  0  0  0
   37.0190   23.9550   32.5840 C   0  0  0  0  0  0  0  0  0  0  0  0
   37.9020   24.5400   33.4650 C   0  0  0  0  0  0  0  0  0  0  0  0
   38.7820   26.4500   34.0660 H   0  0  0  0  0  0  0  0  0  0  0  0
   35.9670   26.5760   30.8430 H   0  0  0  0  0  0  0  0  0  0  0  0
   34.9260   24.0830   30.1840 H   0  0  0  0  0  0  0  0  0  0  0  0
   35.2470   21.6760   31.0510 H   0  0  0  0  0  0  0  0  0  0  0  0
   38.6200   23.7240   34.4700 C   0  0  0  0  0  2  0  0  0  0  0  0
   38.9510   24.6580   35.6330 C   0  0  0  0  0  2  0  0  0  0  0  0
   38.5130   24.2720   36.5620 H   0  0  0  0  0  0  0  0  0  0  0  0
  1  2  1  0  0  0  0
  1 22  1  0  0  0  0
  2 11  1  0  0  0  0
  3  2  2  0  0  0  0
  4  3  1  0  0  0  0
  5  4  2  0  0  0  0
  5  6  1  0  0  0  0
  6  1  2  0  0  0  0
  7  3  1  0  0  0  0
  8  4  1  0  0  0  0
  9  5  1  0  0  0  0
 10 15  1  0  0  0  0
 11 10  2  0  0  0  0
 11 12  1  0  0  0  0
 12 13  2  0  0  0  0
 13 14  1  0  0  0  0
 14 17  1  0  0  0  0
 15 14  2  0  0  0  0
 16 10  1  0  0  0  0
 18 12  1  0  0  0  0
 18 20  1  0  0  0  0
 19 18  1  0  0  0  0
 21 18  1  0  0  0  0
 22 23  1  0  0  0  0
 24  6  1  0  0  0  0
 24 26  1  0  0  0  0
 25 33  1  0  0  0  0
 25 34  1  0  0  0  0
 26 25  2  0  0  0  0
 27 28  2  0  0  0  0
 27 26  1  0  0  0  0
 28 32  1  0  0  0  0
 29 30  1  0  0  0  0
 29 28  1  0  0  0  0
 30 31  2  0  0  0  0
 31 32  1  0  0  0  0
 32 33  2  0  0  0  0
 33 38  1  0  0  0  0
 35 27  1  0  0  0  0
 36 29  1  0  0  0  0
 37 30  1  0  0  0  0
 38 39  1  0  0  0  0
 39 40  1  0  0  0  0
M  END
>  <minimizedAffinity>
-5.65141296

$$$$

 OpenBabel03272509233D

 40 43  0  0  0  0  0  0  0  0999 V2000
   35.9220   29.0100   33.5480 C   0  0  0  0  0  0  0  0  0  0  0  0
   35.4290   30.3010   33.6570 C   0  0  0  0  0  0  0  0  0  0  0  0
   35.5460   31.0450   32.4810 C   0  0  0  0  0  0  0  0  0  0  0  0
   36.1120   30.5150   31.3120 C   0  0  0  0  0  0  0  0  0  0  0  0
   36.5770   29.1970   31.3150 C   0  0  0  0  0  0  0  0  0  0  0  0
   36.4740   28.4300   32.4770 C   0  0  0  0  0  0  0  0  0  0  0  0
   35.1920   32.0720   32.4510 H   0  0  0  0  0  0  0  0  0  0  0  0
   36.2010   31.0870   30.4160 H   0  0  0  0  0  0  0  0  0  0  0  0
   37.0140   28.7880   30.4150 H   0  0  0  0  0  0  0  0  0  0  0  0
   35.6490   31.5770   35.7230 C   0  0  0  0  0  0  0  0  0  0  0  0
   34.8530   30.8420   34.8420 C   0  0  0  0  0  0  0  0  0  0  0  0
   33.5100   30.6730   35.1780 C   0  0  0  0  0  0  0  0  0  0  0  0
   33.0410   31.2170   36.3230 N   0  0  0  0  0  0  0  0  0  0  0  0
   33.8570   31.9280   37.1530 C   0  0  0  0  0  0  0  0  0  0  0  0
   35.1480   32.1080   36.8590 N   0  0  0  0  0  0  0  0  0  0  0  0
   36.6930   31.7300   35.4990 H   0  0  0  0  0  0  0  0  0  0  0  0
   33.4970   32.3710   38.0720 H   0  0  0  0  0  0  0  0  0  0  0  0
   32.6180   29.8930   34.2640 C   0  0  0  0  0  0  0  0  0  0  0  0
   32.7930   30.2380   33.2100 H   0  0  0  0  0  0  0  0  0  0  0  0
   31.5620   30.1440   34.5000 H   0  0  0  0  0  0  0  0  0  0  0  0
   32.7390   28.8070   34.3680 H   0  0  0  0  0  0  0  0  0  0  0  0
   35.8500   28.1790   34.6780 O   0  0  0  0  0  0  0  0  0  0  0  0
   34.9970   27.8210   35.0330 H   0  0  0  0  0  0  0  0  0  0  0  0
   36.9560   27.1390   32.3960 O   0  0  0  0  0  0  0  0  0  0  0  0
   39.3030   27.1210   33.1970 C   0  0  0  0  0  0  0  0  0  0  0  0
   38.0300   26.6270   33.0400 C   0  0  0  0  0  0  0  0  0  0  0  0
   37.7330   25.3930   33.6180 C   0  0  0  0  0  0  0  0  0  0  0  0
   38.6970   24.6760   34.3400 C   0  0  0  0  0  0  0  0  0  0  0  0
   38.7190   23.5030   34.9950 N   0  0  0  0  0  0  0  0  0  0  0  0
   39.9250   23.2810   35.5260 C   0  0  0  0  0  0  0  0  0  0  0  0
   40.6970   24.3520   35.1970 N   0  0  0  0  0  0  0  0  0  0  0  0
   39.9590   25.2290   34.4630 C   0  0  0  0  0  0  0  0  0  0  0  0
   40.2710   26.4460   33.8960 C   0  0  0  0  0  0  0  0  0  0  0  0
   39.4580   28.0950   32.7110 H   0  0  0  0  0  0  0  0  0  0  0  0
   36.7800   24.8700   33.5830 H   0  0  0  0  0  0  0  0  0  0  0  0
   37.9390   22.8460   35.0960 H   0  0  0  0  0  0  0  0  0  0  0  0
   40.2700   22.4270   36.1170 H   0  0  0  0  0  0  0  0  0  0  0  0
   41.6240   27.0260   34.0500 C   0  0  0  0  0  2  0  0  0  0  0  0
   41.9940   27.6270   32.6950 C   0  0  0  0  0  2  0  0  0  0  0  0
   42.2140   28.6960   32.8040 H   0  0  0  0  0  0  0  0  0  0  0  0
  1  2  1  0  0  0  0
  1 22  1  0  0  0  0
  2 11  1  0  0  0  0
  3  2  2  0  0  0  0
  4  5  2  0  0  0  0
  4  3  1  0  0  0  0
  5  6  1  0  0  0  0
  6  1  2  0  0  0  0
  7  3  1  0  0  0  0
  8  4  1  0  0  0  0
  9  5  1  0  0  0  0
 10 15  1  0  0  0  0
 11 12  1  0  0  0  0
 11 10  2  0  0  0  0
 12 13  2  0  0  0  0
 13 14  1  0  0  0  0
 14 17  1  0  0  0  0
 15 14  2  0  0  0  0
 16 10  1  0  0  0  0
 18 21  1  0  0  0  0
 18 20  1  0  0  0  0
 18 12  1  0  0  0  0
 19 18  1  0  0  0  0
 22 23  1  0  0  0  0
 24  6  1  0  0  0  0
 24 26  1  0  0  0  0
 25 33  1  0  0  0  0
 26 25  2  0  0  0  0
 26 27  1  0  0  0  0
 27 28  2  0  0  0  0
 28 32  1  0  0  0  0
 28 29  1  0  0  0  0
 29 36  1  0  0  0  0
 29 30  1  0  0  0  0
 30 37  1  0  0  0  0
 31 30  2  0  0  0  0
 32 31  1  0  0  0  0
 33 38  1  0  0  0  0
 33 32  2  0  0  0  0
 34 25  1  0  0  0  0
 35 27  1  0  0  0  0
 39 40  1  0  0  0  0
 39 38  1  0  0  0  0
M  END
>  <minimizedAffinity>
-5.65025663

$$$$

 OpenBabel03272509233D

 40 43  0  0  0  0  0  0  0  0999 V2000
   36.7770   27.5340   32.7050 C   0  0  0  0  0  0  0  0  0  0  0  0
   36.9230   27.0200   31.4250 C   0  0  0  0  0  0  0  0  0  0  0  0
   36.6530   27.9480   30.4160 C   0  0  0  0  0  0  0  0  0  0  0  0
   36.2710   29.2690   30.6960 C   0  0  0  0  0  0  0  0  0  0  0  0
   36.1560   29.6790   32.0270 C   0  0  0  0  0  0  0  0  0  0  0  0
   36.4190   28.7730   33.0550 C   0  0  0  0  0  0  0  0  0  0  0  0
   36.7350   27.6550   29.3740 H   0  0  0  0  0  0  0  0  0  0  0  0
   36.0650   29.9740   29.9230 H   0  0  0  0  0  0  0  0  0  0  0  0
   35.8620   30.6970   32.2420 H   0  0  0  0  0  0  0  0  0  0  0  0
   38.6650   25.3670   31.0050 C   0  0  0  0  0  0  0  0  0  0  0  0
   37.3110   25.6800   31.1390 C   0  0  0  0  0  0  0  0  0  0  0  0
   36.3920   24.6420   30.9800 C   0  0  0  0  0  0  0  0  0  0  0  0
   36.8410   23.3970   30.7070 N   0  0  0  0  0  0  0  0  0  0  0  0
   38.1740   23.1380   30.5860 C   0  0  0  0  0  0  0  0  0  0  0  0
   39.0800   24.1110   30.7330 N   0  0  0  0  0  0  0  0  0  0  0  0
   39.4070   26.1410   31.1200 H   0  0  0  0  0  0  0  0  0  0  0  0
   38.5500   22.1470   30.3690 H   0  0  0  0  0  0  0  0  0  0  0  0
   34.9300   24.9310   31.1140 C   0  0  0  0  0  0  0  0  0  0  0  0
   34.7700   25.5550   32.0330 H   0  0  0  0  0  0  0  0  0  0  0  0
   34.3950   23.9740   31.2950 H   0  0  0  0  0  0  0  0  0  0  0  0
   34.4980   25.3950   30.2190 H   0  0  0  0  0  0  0  0  0  0  0  0
   37.0260   26.6780   33.7910 O   0  0  0  0  0  0  0  0  0  0  0  0
   37.9320   26.3540   34.0270 H   0  0  0  0  0  0  0  0  0  0  0  0
   36.2830   29.2580   34.3400 O   0  0  0  0  0  0  0  0  0  0  0  0
   33.8680   29.7250   34.6680 C   0  0  0  0  0  0  0  0  0  0  0  0
   35.2170   29.9140   34.8570 C   0  0  0  0  0  0  0  0  0  0  0  0
   35.6190   30.9380   35.7140 C   0  0  0  0  0  0  0  0  0  0  0  0
   34.6830   31.7520   36.3670 C   0  0  0  0  0  0  0  0  0  0  0  0
   34.7520   32.7830   37.2240 N   0  0  0  0  0  0  0  0  0  0  0  0
   33.5280   33.2090   37.5500 C   0  0  0  0  0  0  0  0  0  0  0  0
   32.6490   32.4190   36.8740 N   0  0  0  0  0  0  0  0  0  0  0  0
   33.3410   31.5090   36.1350 C   0  0  0  0  0  0  0  0  0  0  0  0
   32.9260   30.5030   35.2900 C   0  0  0  0  0  0  0  0  0  0  0  0
   33.6340   28.9030   33.9790 H   0  0  0  0  0  0  0  0  0  0  0  0
   36.6410   31.2130   35.9650 H   0  0  0  0  0  0  0  0  0  0  0  0
   35.6040   33.2090   37.6000 H   0  0  0  0  0  0  0  0  0  0  0  0
   33.2380   34.0230   38.2220 H   0  0  0  0  0  0  0  0  0  0  0  0
   31.4840   30.2520   35.0650 C   0  0  0  0  0  2  0  0  0  0  0  0
   31.2220   28.8090   35.4950 C   0  0  0  0  0  2  0  0  0  0  0  0
   30.4560   28.7830   36.2800 H   0  0  0  0  0  0  0  0  0  0  0  0
  1  6  1  0  0  0  0
  1 22  1  0  0  0  0
  2  1  2  0  0  0  0
  3  4  2  0  0  0  0
  3  2  1  0  0  0  0
  4  5  1  0  0  0  0
  5  9  1  0  0  0  0
  5  6  2  0  0  0  0
  6 24  1  0  0  0  0
  7  3  1  0  0  0  0
  8  4  1  0  0  0  0
 10 16  1  0  0  0  0
 10 11  1  0  0  0  0
 11  2  1  0  0  0  0
 12 18  1  0  0  0  0
 12 11  2  0  0  0  0
 13 12  1  0  0  0  0
 14 13  2  0  0  0  0
 14 15  1  0  0  0  0
 15 10  2  0  0  0  0
 17 14  1  0  0  0  0
 18 20  1  0  0  0  0
 18 19  1  0  0  0  0
 21 18  1  0  0  0  0
 22 23  1  0  0  0  0
 24 26  1  0  0  0  0
 25 26  2  0  0  0  0
 25 33  1  0  0  0  0
 26 27  1  0  0  0  0
 27 35  1  0  0  0  0
 27 28  2  0  0  0  0
 28 29  1  0  0  0  0
 29 30  1  0  0  0  0
 29 36  1  0  0  0  0
 30 37  1  0  0  0  0
 31 30  2  0  0  0  0
 32 28  1  0  0  0  0
 32 31  1  0  0  0  0
 33 32  2  0  0  0  0
 34 25  1  0  0  0  0
 38 33  1  0  0  0  0
 38 39  1  0  0  0  0
 39 40  1  0  0  0  0
M  END
>  <minimizedAffinity>
-5.62785864

$$$$
