
 OpenBabel03272508143D

 22 23  0  0  0  0  0  0  0  0999 V2000
   37.7440   33.3130   49.5480 Cl  0  0  0  0  0  0  0  0  0  0  0  0
   38.3430   32.3960   48.1870 C   0  0  0  0  0  0  0  0  0  0  0  0
   37.7800   31.1570   48.0420 C   0  0  0  0  0  0  0  0  0  0  0  0
   38.2000   30.3530   46.9740 C   0  0  0  0  0  0  0  0  0  0  0  0
   39.1440   30.7800   46.0960 C   0  0  0  0  0  0  0  0  0  0  0  0
   39.6980   32.0250   46.2580 C   0  0  0  0  0  0  0  0  0  0  0  0
   40.9150   32.6010   45.1360 Cl  0  0  0  0  0  0  0  0  0  0  0  0
   39.2960   32.8270   47.3000 C   0  0  0  0  0  0  0  0  0  0  0  0
   37.8150   29.3630   46.7790 H   0  0  0  0  0  0  0  0  0  0  0  0
   39.4980   30.1900   45.2540 H   0  0  0  0  0  0  0  0  0  0  0  0
   37.1650   29.8750   50.0510 C   0  0  0  0  0  0  0  0  0  0  0  0
   36.7610   30.5090   48.8590 C   0  0  0  0  0  0  0  0  0  0  0  0
   35.3960   30.4710   48.5460 C   0  0  0  0  0  0  0  0  0  0  0  0
   34.5420   29.8370   49.3880 N   0  0  0  0  0  0  0  0  0  0  0  0
   34.9710   29.2390   50.5220 C   0  0  0  0  0  0  0  0  0  0  0  0
   36.2800   29.2600   50.8500 N   0  0  0  0  0  0  0  0  0  0  0  0
   38.1860   29.8360   50.4040 H   0  0  0  0  0  0  0  0  0  0  0  0
   35.1290   30.9580   47.6430 H   0  0  0  0  0  0  0  0  0  0  0  0
   34.1090   28.8060   51.0160 H   0  0  0  0  0  0  0  0  0  0  0  0
   39.8840   34.1750   47.4940 C   0  0  0  0  0  0  0  0  0  0  0  0
   40.0340   34.5780   48.9300 C   0  0  0  0  0  0  0  0  0  0  0  0
   39.1360   34.4350   49.5450 H   0  0  0  0  0  0  0  0  0  0  0  0
  2  1  1  0  0  0  0
  3  2  1  0  0  0  0
  3 12  1  0  0  0  0
  4  3  2  0  0  0  0
  5  6  2  0  0  0  0
  5  4  1  0  0  0  0
  6  8  1  0  0  0  0
  7  6  1  0  0  0  0
  8 20  1  0  0  0  0
  8  2  2  0  0  0  0
  9  4  1  0  0  0  0
 10  5  1  0  0  0  0
 11 17  1  0  0  0  0
 11 16  1  0  0  0  0
 12 11  2  0  0  0  0
 13 12  1  0  0  0  0
 13 14  2  0  0  0  0
 14 15  1  0  0  0  0
 15 16  2  0  0  0  0
 15 19  1  0  0  0  0
 18 13  1  0  0  0  0
 20 21  1  0  0  0  0
 21 22  1  0  0  0  0
M  END
>  <minimizedAffinity>
-5.32325983

>  <minimizedRMSD>
0.568819046

$$$$
