
 OpenBabel03272505043D

 39 41  0  0  1  0  0  0  0  0999 V2000
   39.3200   32.1010   45.7480 O   0  0  0  0  0  0  0  0  0  0  0  0
   39.7950   31.8340   44.7240 C   0  0  1  0  0  0  0  0  0  0  0  0
   38.5560   30.8960   44.2350 C   0  0  0  0  0  0  0  0  0  0  0  0
   39.3240   29.7360   43.9640 C   0  0  0  0  0  0  0  0  0  0  0  0
   40.2100   29.9810   42.7420 C   0  0  0  0  0  0  0  0  0  0  0  0
   40.0950   31.4020   42.3280 C   0  0  0  0  0  0  0  0  0  0  0  0
   40.1520   32.3550   43.4980 C   0  0  1  0  0  0  0  0  0  0  0  0
   40.6400   31.1900   44.9790 H   0  0  0  0  0  0  0  0  0  0  0  0
   38.0600   31.3200   43.3960 H   0  0  0  0  0  0  0  0  0  0  0  0
   37.8440   30.7570   45.0360 H   0  0  0  0  0  0  0  0  0  0  0  0
   38.6220   28.8900   43.6660 H   0  0  0  0  0  0  0  0  0  0  0  0
   40.0220   29.2720   44.6320 H   0  0  0  0  0  0  0  0  0  0  0  0
   41.2620   29.7460   42.8700 H   0  0  0  0  0  0  0  0  0  0  0  0
   39.8660   29.3500   41.8790 H   0  0  0  0  0  0  0  0  0  0  0  0
   39.1800   31.5070   41.7100 H   0  0  0  0  0  0  0  0  0  0  0  0
   40.9300   31.5860   41.5950 H   0  0  0  0  0  0  0  0  0  0  0  0
   41.1970   32.7940   43.4770 H   0  0  0  0  0  0  0  0  0  0  0  0
   39.3250   33.5640   43.0310 C   0  0  0  0  0  0  0  0  0  0  0  0
   38.8450   33.4320   41.6410 C   0  0  0  0  0  0  0  0  0  0  0  0
   38.9920   32.4260   41.1940 H   0  0  0  0  0  0  0  0  0  0  0  0
   37.6390   29.9700   47.0240 Cl  0  0  0  0  0  0  0  0  0  0  0  0
   38.1800   31.4330   47.7460 C   0  0  0  0  0  0  0  0  0  0  0  0
   37.8320   31.7050   49.0260 C   0  0  0  0  0  0  0  0  0  0  0  0
   38.3500   32.8860   49.5620 C   0  0  0  0  0  0  0  0  0  0  0  0
   39.1690   33.6940   48.7850 C   0  0  0  0  0  0  0  0  0  0  0  0
   39.4920   33.3900   47.5050 C   0  0  0  0  0  0  0  0  0  0  0  0
   38.9790   32.2640   47.0210 C   0  0  0  0  0  0  0  0  0  0  0  0
   38.0990   33.1360   50.5660 H   0  0  0  0  0  0  0  0  0  0  0  0
   39.5200   34.5860   49.2970 H   0  0  0  0  0  0  0  0  0  0  0  0
   40.1400   34.1240   47.0410 H   0  0  0  0  0  0  0  0  0  0  0  0
   37.3520   30.2360   50.9720 C   0  0  0  0  0  0  0  0  0  0  0  0
   36.9170   30.8880   49.8230 C   0  0  0  0  0  0  0  0  0  0  0  0
   35.5710   30.7390   49.4530 C   0  0  0  0  0  0  0  0  0  0  0  0
   34.7630   29.9760   50.2160 N   0  0  0  0  0  0  0  0  0  0  0  0
   35.2170   29.3620   51.3160 C   0  0  0  0  0  0  0  0  0  0  0  0
   36.5020   29.4850   51.7010 N   0  0  0  0  0  0  0  0  0  0  0  0
   38.3690   30.3100   51.3100 H   0  0  0  0  0  0  0  0  0  0  0  0
   35.2530   31.2450   48.5700 H   0  0  0  0  0  0  0  0  0  0  0  0
   34.4200   28.7990   51.7930 H   0  0  0  0  0  0  0  0  0  0  0  0
  1 27  1  0  0  0  0
  2  8  1  1  0  0  0
  2  1  1  0  0  0  0
  3  2  1  0  0  0  0
  3 10  1  0  0  0  0
  4  3  1  0  0  0  0
  4 12  1  0  0  0  0
  5 13  1  0  0  0  0
  5  4  1  0  0  0  0
  6  5  1  0  0  0  0
  6  7  1  0  0  0  0
  7 17  1  1  0  0  0
  7  2  1  0  0  0  0
  9  3  1  0  0  0  0
 11  4  1  0  0  0  0
 14  5  1  0  0  0  0
 15  6  1  0  0  0  0
 16  6  1  0  0  0  0
 18  7  1  0  0  0  0
 19 18  1  0  0  0  0
 20 19  1  0  0  0  0
 21 22  1  0  0  0  0
 22 23  1  0  0  0  0
 23 24  2  0  0  0  0
 23 32  1  0  0  0  0
 24 28  1  0  0  0  0
 25 29  1  0  0  0  0
 25 24  1  0  0  0  0
 26 25  2  0  0  0  0
 27 26  1  0  0  0  0
 27 22  2  0  0  0  0
 30 26  1  0  0  0  0
 31 37  1  0  0  0  0
 31 36  1  0  0  0  0
 32 31  2  0  0  0  0
 33 32  1  0  0  0  0
 33 34  2  0  0  0  0
 34 35  1  0  0  0  0
 35 36  2  0  0  0  0
 35 39  1  0  0  0  0
 38 33  1  0  0  0  0
M  END
>  <minimizedAffinity>
-5.60621023

>  <minimizedRMSD>
0.894006431

$$$$
