
 OpenBabel03272504473D

 21 22  0  0  0  0  0  0  0  0999 V2000
   37.4580   32.6980   49.9830 C   0  0  0  0  0  0  0  0  0  0  0  0
   38.4120   33.0620   49.0370 C   0  0  0  0  0  0  0  0  0  0  0  0
   38.4390   32.3570   47.8390 C   0  0  0  0  0  0  0  0  0  0  0  0
   37.5300   31.3540   47.6630 N   0  0  0  0  0  0  0  0  0  0  0  0
   36.6210   31.0270   48.5980 C   0  0  0  0  0  0  0  0  0  0  0  0
   36.5840   31.7010   49.7640 N   0  0  0  0  0  0  0  0  0  0  0  0
   37.4480   33.2590   50.9190 H   0  0  0  0  0  0  0  0  0  0  0  0
   39.1620   32.6040   47.0740 H   0  0  0  0  0  0  0  0  0  0  0  0
   35.6710   29.9450   48.3610 C   0  0  0  0  0  0  0  0  0  0  0  0
   35.4330   29.0080   49.3330 C   0  0  0  0  0  0  0  0  0  0  0  0
   34.5410   27.9740   49.1370 C   0  0  0  0  0  0  0  0  0  0  0  0
   33.9090   27.9460   47.9110 C   0  0  0  0  0  0  0  0  0  0  0  0
   34.1250   28.8770   46.9010 C   0  0  0  0  0  0  0  0  0  0  0  0
   35.0220   29.8660   47.1760 N   0  0  0  0  0  0  0  0  0  0  0  0
   35.9560   29.0810   50.2750 H   0  0  0  0  0  0  0  0  0  0  0  0
   34.3180   27.2120   49.8740 H   0  0  0  0  0  0  0  0  0  0  0  0
   33.1780   27.1740   47.6340 H   0  0  0  0  0  0  0  0  0  0  0  0
   33.6230   28.8380   45.9480 H   0  0  0  0  0  0  0  0  0  0  0  0
   39.3910   34.1430   49.2250 C   0  0  0  0  0  0  0  0  0  0  0  0
   40.2050   34.4070   47.9750 C   0  0  0  0  0  0  0  0  0  0  0  0
   40.9360   33.5970   47.7780 H   0  0  0  0  0  0  0  0  0  0  0  0
  1  7  1  0  0  0  0
  2 19  1  0  0  0  0
  2  1  2  0  0  0  0
  3  2  1  0  0  0  0
  4  3  2  0  0  0  0
  4  5  1  0  0  0  0
  5  6  2  0  0  0  0
  6  1  1  0  0  0  0
  8  3  1  0  0  0  0
  9  5  1  0  0  0  0
  9 10  1  0  0  0  0
 10 15  1  0  0  0  0
 11 10  2  0  0  0  0
 11 16  1  0  0  0  0
 12 11  1  0  0  0  0
 13 14  1  0  0  0  0
 13 12  2  0  0  0  0
 14  9  2  0  0  0  0
 17 12  1  0  0  0  0
 18 13  1  0  0  0  0
 20 19  1  0  0  0  0
 21 20  1  0  0  0  0
M  END
>  <minimizedAffinity>
-5.03089094

>  <minimizedRMSD>
0.828540087

$$$$
