
 OpenBabel03272510333D

 22 23  0  0  0  0  0  0  0  0999 V2000
   36.1250   30.2030   48.6360 C   0  0  0  0  0  0  0  0  0  0  0  0
   35.0380   30.2670   47.7940 C   0  0  0  0  0  0  0  0  0  0  0  0
   33.9900   29.3720   47.9130 C   0  0  0  0  0  0  0  0  0  0  0  0
   34.0660   28.4100   48.9040 C   0  0  0  0  0  0  0  0  0  0  0  0
   35.1460   28.3320   49.7530 C   0  0  0  0  0  0  0  0  0  0  0  0
   36.2020   29.2330   49.6340 C   0  0  0  0  0  0  0  0  0  0  0  0
   34.9240   30.9970   46.9990 H   0  0  0  0  0  0  0  0  0  0  0  0
   33.1210   29.3880   47.2740 H   0  0  0  0  0  0  0  0  0  0  0  0
   33.3020   27.6540   49.0900 H   0  0  0  0  0  0  0  0  0  0  0  0
   35.2530   27.5990   50.5440 H   0  0  0  0  0  0  0  0  0  0  0  0
   38.1700   33.1680   49.1570 C   0  0  0  0  0  0  0  0  0  0  0  0
   39.1480   33.1060   48.1500 C   0  0  0  0  0  0  0  0  0  0  0  0
   39.0860   31.9990   47.2730 C   0  0  0  0  0  0  0  0  0  0  0  0
   38.1060   31.0860   47.4550 N   0  0  0  0  0  0  0  0  0  0  0  0
   37.1820   31.1850   48.4390 C   0  0  0  0  0  0  0  0  0  0  0  0
   37.2260   32.2300   49.2820 N   0  0  0  0  0  0  0  0  0  0  0  0
   38.1450   33.9900   49.8780 H   0  0  0  0  0  0  0  0  0  0  0  0
   39.8920   33.8610   48.0650 H   0  0  0  0  0  0  0  0  0  0  0  0
   39.8190   31.9090   46.4830 H   0  0  0  0  0  0  0  0  0  0  0  0
   37.3720   29.1630   50.5420 C   0  0  0  0  0  2  0  0  0  0  0  0
   37.1610   29.8390   51.8570 C   0  0  0  0  0  2  0  0  0  0  0  0
   36.1980   30.4180   51.8530 H   0  0  0  0  0  0  0  0  0  0  0  0
  1  6  1  0  0  0  0
  2  3  1  0  0  0  0
  2  1  2  0  0  0  0
  3  4  2  0  0  0  0
  4  9  1  0  0  0  0
  4  5  1  0  0  0  0
  5 10  1  0  0  0  0
  6  5  2  0  0  0  0
  6 20  1  0  0  0  0
  7  2  1  0  0  0  0
  8  3  1  0  0  0  0
 11 16  1  0  0  0  0
 11 17  1  0  0  0  0
 12 11  2  0  0  0  0
 13 14  2  0  0  0  0
 13 12  1  0  0  0  0
 14 15  1  0  0  0  0
 15  1  1  0  0  0  0
 15 16  2  0  0  0  0
 18 12  1  0  0  0  0
 19 13  1  0  0  0  0
 20 21  1  0  0  0  0
 22 21  1  0  0  0  0
M  END
>  <minimizedAffinity>
-5.70038795

>  <minimizedRMSD>
0.485206097

$$$$
