
 OpenBabel03272508183D

 19 20  0  0  0  0  0  0  0  0999 V2000
   37.1390   31.2160   48.5910 C   0  0  0  0  0  0  0  0  0  0  0  0
   38.1140   32.2240   48.4060 C   0  0  0  0  0  0  0  0  0  0  0  0
   38.4810   32.4040   47.0830 C   0  0  0  0  0  0  0  0  0  0  0  0
   37.9340   31.6640   46.0840 N   0  0  0  0  0  0  0  0  0  0  0  0
   37.0060   30.7120   46.3100 C   0  0  0  0  0  0  0  0  0  0  0  0
   36.6100   30.4900   47.5660 N   0  0  0  0  0  0  0  0  0  0  0  0
   39.2250   33.1620   46.8700 H   0  0  0  0  0  0  0  0  0  0  0  0
   36.6110   30.1640   45.4840 H   0  0  0  0  0  0  0  0  0  0  0  0
   36.6420   31.0350   50.0100 C   0  0  0  0  0  0  0  0  0  0  0  0
   35.8970   29.8680   50.3880 C   0  0  0  0  0  0  0  0  0  0  0  0
   37.3710   29.8490   50.6850 C   0  0  0  0  0  0  0  0  0  0  0  0
   36.7450   31.9320   50.6650 H   0  0  0  0  0  0  0  0  0  0  0  0
   35.5290   29.2300   49.5280 H   0  0  0  0  0  0  0  0  0  0  0  0
   35.2130   29.8190   51.2450 H   0  0  0  0  0  0  0  0  0  0  0  0
   37.6800   29.9310   51.7240 H   0  0  0  0  0  0  0  0  0  0  0  0
   37.9660   29.2180   50.0420 H   0  0  0  0  0  0  0  0  0  0  0  0
   38.6790   33.0060   49.5050 C   0  0  0  0  0  0  0  0  0  0  0  0
   39.4800   34.2040   49.1310 C   0  0  0  0  0  0  0  0  0  0  0  0
   39.1330   35.0680   49.7690 H   0  0  0  0  0  0  0  0  0  0  0  0
  1  9  1  0  0  0  0
  2  1  1  0  0  0  0
  2 17  1  0  0  0  0
  3  2  2  0  0  0  0
  4  5  2  0  0  0  0
  4  3  1  0  0  0  0
  5  6  1  0  0  0  0
  6  1  2  0  0  0  0
  7  3  1  0  0  0  0
  8  5  1  0  0  0  0
  9 10  1  0  0  0  0
  9 12  1  0  0  0  0
  9 11  1  0  0  0  0
 10 11  1  0  0  0  0
 10 14  1  0  0  0  0
 11 15  1  0  0  0  0
 13 10  1  0  0  0  0
 16 11  1  0  0  0  0
 18 17  1  0  0  0  0
 18 19  1  0  0  0  0
M  END
>  <minimizedAffinity>
-4.57886267

>  <minimizedRMSD>
2.16403675

$$$$
