
 OpenBabel03272504593D

 22 23  0  0  0  0  0  0  0  0999 V2000
   38.5030   30.5350   46.8050 Cl  0  0  0  0  0  0  0  0  0  0  0  0
   38.8910   32.0110   47.6720 C   0  0  0  0  0  0  0  0  0  0  0  0
   38.3530   32.2050   48.9060 C   0  0  0  0  0  0  0  0  0  0  0  0
   38.6960   33.4040   49.5400 C   0  0  0  0  0  0  0  0  0  0  0  0
   39.5430   34.3080   48.9020 C   0  0  0  0  0  0  0  0  0  0  0  0
   40.0580   34.0670   47.6630 C   0  0  0  0  0  0  0  0  0  0  0  0
   39.7200   32.8890   47.0380 C   0  0  0  0  0  0  0  0  0  0  0  0
   38.2960   33.6180   50.5330 H   0  0  0  0  0  0  0  0  0  0  0  0
   39.7730   35.2180   49.4400 H   0  0  0  0  0  0  0  0  0  0  0  0
   40.7180   34.7790   47.1760 H   0  0  0  0  0  0  0  0  0  0  0  0
   37.9300   30.4760   50.6520 C   0  0  0  0  0  0  0  0  0  0  0  0
   37.4620   31.2550   49.5850 C   0  0  0  0  0  0  0  0  0  0  0  0
   36.1430   31.1070   49.1830 C   0  0  0  0  0  0  0  0  0  0  0  0
   35.3550   30.2170   49.8390 N   0  0  0  0  0  0  0  0  0  0  0  0
   35.8260   29.4810   50.8610 C   0  0  0  0  0  0  0  0  0  0  0  0
   37.1160   29.6010   51.2790 N   0  0  0  0  0  0  0  0  0  0  0  0
   38.9610   30.6470   50.9060 H   0  0  0  0  0  0  0  0  0  0  0  0
   35.7510   31.6970   48.3580 H   0  0  0  0  0  0  0  0  0  0  0  0
   35.1930   28.7730   51.3780 H   0  0  0  0  0  0  0  0  0  0  0  0
   40.2700   32.5990   45.6780 C   0  0  0  0  0  0  0  0  0  0  0  0
   39.9910   33.6990   44.6890 C   0  0  0  0  0  0  0  0  0  0  0  0
   40.8830   33.9210   44.0670 H   0  0  0  0  0  0  0  0  0  0  0  0
  1  2  1  0  0  0  0
  2  3  1  0  0  0  0
  3  4  2  0  0  0  0
  3 12  1  0  0  0  0
  4  8  1  0  0  0  0
  5  9  1  0  0  0  0
  5  4  1  0  0  0  0
  6  5  2  0  0  0  0
  7  6  1  0  0  0  0
  7  2  2  0  0  0  0
 10  6  1  0  0  0  0
 11 17  1  0  0  0  0
 11 16  1  0  0  0  0
 12 11  2  0  0  0  0
 13 12  1  0  0  0  0
 13 14  2  0  0  0  0
 14 15  1  0  0  0  0
 15 16  2  0  0  0  0
 15 19  1  0  0  0  0
 18 13  1  0  0  0  0
 20  7  1  0  0  0  0
 21 20  1  0  0  0  0
 22 21  1  0  0  0  0
M  END
>  <minimizedAffinity>
-5.85056019

>  <minimizedRMSD>
0.522443354

$$$$
