
 OpenBabel03272508253D

 19 20  0  0  1  0  0  0  0  0999 V2000
   36.1900   30.6170   49.9200 C   0  0  1  0  0  0  0  0  0  0  0  0
   35.9470   29.2060   49.6410 C   0  0  1  0  0  0  0  0  0  0  0  0
   36.7850   29.5620   50.8400 C   0  0  0  0  0  0  0  0  0  0  0  0
   35.4980   31.3230   50.4230 H   0  0  0  0  0  0  0  0  0  0  0  0
   36.5620   28.7830   48.7930 H   0  0  0  0  0  0  0  0  0  0  0  0
   37.8730   29.4090   50.8120 H   0  0  0  0  0  0  0  0  0  0  0  0
   36.3370   29.5070   51.8500 H   0  0  0  0  0  0  0  0  0  0  0  0
   37.2500   31.3810   49.1590 C   0  0  0  0  0  0  0  0  0  0  0  0
   37.5840   32.6610   49.6380 C   0  0  0  0  0  0  0  0  0  0  0  0
   38.5460   33.3410   48.9130 C   0  0  0  0  0  0  0  0  0  0  0  0
   39.1030   32.7790   47.8180 N   0  0  0  0  0  0  0  0  0  0  0  0
   38.7610   31.5420   47.3780 C   0  0  0  0  0  0  0  0  0  0  0  0
   37.8200   30.8390   48.0650 N   0  0  0  0  0  0  0  0  0  0  0  0
   37.1140   33.0730   50.5170 H   0  0  0  0  0  0  0  0  0  0  0  0
   38.8600   34.3410   49.2210 H   0  0  0  0  0  0  0  0  0  0  0  0
   39.2090   31.0980   46.5050 H   0  0  0  0  0  0  0  0  0  0  0  0
   34.6150   28.5470   49.7900 C   0  0  0  0  0  0  0  0  0  0  0  0
   34.3060   27.8100   48.4820 C   0  0  0  0  0  0  0  0  0  0  0  0
   35.0680   28.0500   47.7010 H   0  0  0  0  0  0  0  0  0  0  0  0
  1  4  1  1  0  0  0
  1  3  1  0  0  0  0
  2  5  1  6  0  0  0
  2 17  1  0  0  0  0
  2  1  1  0  0  0  0
  2  3  1  0  0  0  0
  3  7  1  0  0  0  0
  6  3  1  0  0  0  0
  8  9  1  0  0  0  0
  8  1  1  0  0  0  0
  9 14  1  0  0  0  0
 10 15  1  0  0  0  0
 10  9  2  0  0  0  0
 11 10  1  0  0  0  0
 12 11  2  0  0  0  0
 12 13  1  0  0  0  0
 13  8  2  0  0  0  0
 16 12  1  0  0  0  0
 18 17  1  0  0  0  0
 19 18  1  0  0  0  0
M  END
>  <minimizedAffinity>
-4.71310091

>  <minimizedRMSD>
0.549258947

$$$$
