
 OpenBabel03272505413D

 39 41  0  0  0  0  0  0  0  0999 V2000
   36.2270   30.4370   46.4020 C   0  0  0  0  0  0  0  0  0  0  0  0
   34.9140   29.9690   46.4300 C   0  0  0  0  0  0  0  0  0  0  0  0
   34.2910   29.6380   45.2360 C   0  0  0  0  0  0  0  0  0  0  0  0
   34.8950   29.7440   44.0040 C   0  0  0  0  0  0  0  0  0  0  0  0
   36.2020   30.2090   43.9810 C   0  0  0  0  0  0  0  0  0  0  0  0
   36.8120   30.5350   45.1790 C   0  0  0  0  0  0  0  0  0  0  0  0
   34.3590   29.8540   47.3580 H   0  0  0  0  0  0  0  0  0  0  0  0
   33.2700   29.2790   45.2970 H   0  0  0  0  0  0  0  0  0  0  0  0
   34.3600   29.4710   43.0940 H   0  0  0  0  0  0  0  0  0  0  0  0
   36.6290   30.2740   42.9980 H   0  0  0  0  0  0  0  0  0  0  0  0
   38.1420   30.9910   44.9540 N   0  0  0  0  0  0  0  0  0  0  0  0
   39.4690   30.4550   44.9310 C   0  0  0  0  0  0  0  0  0  0  0  0
   40.3050   31.2700   45.8890 C   0  0  0  0  0  0  0  0  0  0  0  0
   40.4730   32.5930   45.3300 N   0  0  0  0  0  0  0  0  0  0  0  0
   39.4800   32.9370   44.3690 C   0  0  0  0  0  0  0  0  0  0  0  0
   38.1220   32.3900   44.6590 C   0  0  0  0  0  0  0  0  0  0  0  0
   39.5190   29.3780   45.1620 H   0  0  0  0  0  0  0  0  0  0  0  0
   39.8960   30.6630   43.9090 H   0  0  0  0  0  0  0  0  0  0  0  0
   40.2430   31.1240   46.9200 H   0  0  0  0  0  0  0  0  0  0  0  0
   41.3310   30.8070   45.6650 H   0  0  0  0  0  0  0  0  0  0  0  0
   41.4060   32.8650   45.0450 H   0  0  0  0  0  0  0  0  0  0  0  0
   39.8420   32.6270   43.3610 H   0  0  0  0  0  0  0  0  0  0  0  0
   39.3890   34.0590   44.3180 H   0  0  0  0  0  0  0  0  0  0  0  0
   37.6210   32.4150   43.6380 H   0  0  0  0  0  0  0  0  0  0  0  0
   37.4820   33.0300   45.2520 H   0  0  0  0  0  0  0  0  0  0  0  0
   37.3950   30.3510   49.8570 C   0  0  0  0  0  0  0  0  0  0  0  0
   38.1790   31.5210   49.9440 C   0  0  0  0  0  0  0  0  0  0  0  0
   38.2900   32.3150   48.8020 C   0  0  0  0  0  0  0  0  0  0  0  0
   37.6300   31.8900   47.6970 N   0  0  0  0  0  0  0  0  0  0  0  0
   36.8970   30.7900   47.6270 C   0  0  0  0  0  0  0  0  0  0  0  0
   36.7740   30.0060   48.7180 N   0  0  0  0  0  0  0  0  0  0  0  0
   38.6810   31.8140   50.8380 H   0  0  0  0  0  0  0  0  0  0  0  0
   37.2880   29.5180   51.1060 C   0  0  0  0  0  0  0  0  0  0  0  0
   35.9210   29.2850   51.3520 F   0  0  0  0  0  0  0  0  0  0  0  0
   37.9610   28.3770   50.9200 F   0  0  0  0  0  0  0  0  0  0  0  0
   37.7390   30.2610   52.1640 F   0  0  0  0  0  0  0  0  0  0  0  0
   39.0700   33.5530   48.7480 C   0  0  0  0  0  0  0  0  0  0  0  0
   39.5420   33.9650   50.1350 C   0  0  0  0  0  0  0  0  0  0  0  0
   40.0590   33.1610   50.6570 H   0  0  0  0  0  0  0  0  0  0  0  0
  1  2  1  0  0  0  0
  1 30  1  0  0  0  0
  2  7  1  0  0  0  0
  3  8  1  0  0  0  0
  3  2  2  0  0  0  0
  4  3  1  0  0  0  0
  5  4  2  0  0  0  0
  5  6  1  0  0  0  0
  6  1  2  0  0  0  0
  9  4  1  0  0  0  0
 10  5  1  0  0  0  0
 11  6  1  0  0  0  0
 12 11  1  0  0  0  0
 12 17  1  0  0  0  0
 12 13  1  0  0  0  0
 13 19  1  0  0  0  0
 14 13  1  0  0  0  0
 15 16  1  0  0  0  0
 15 14  1  0  0  0  0
 16 11  1  0  0  0  0
 16 25  1  0  0  0  0
 18 12  1  0  0  0  0
 20 13  1  0  0  0  0
 21 14  1  0  0  0  0
 22 15  1  0  0  0  0
 23 15  1  0  0  0  0
 24 16  1  0  0  0  0
 26 27  1  0  0  0  0
 26 33  1  0  0  0  0
 27 32  1  0  0  0  0
 28 27  2  0  0  0  0
 29 28  1  0  0  0  0
 30 29  2  0  0  0  0
 30 31  1  0  0  0  0
 31 26  2  0  0  0  0
 33 34  1  0  0  0  0
 33 36  1  0  0  0  0
 35 33  1  0  0  0  0
 37 28  1  0  0  0  0
 37 38  1  0  0  0  0
 38 39  1  0  0  0  0
M  END
>  <minimizedAffinity>
-7.09881783

>  <minimizedRMSD>
0.576452076

$$$$
