
     RDKit          3D

 34 36  0  0  0  0  0  0  0  0999 V2000
   37.3166   29.3393   51.0288 Br  0  0  0  0  0  0  0  0  0  0  0  0
   35.9638   29.3296   49.6797 C   0  0  0  0  0  0  0  0  0  0  0  0
   35.9912   30.2580   48.6309 C   0  0  0  0  0  0  0  0  0  0  0  0
   34.9884   30.1893   47.7023 C   0  0  0  0  0  0  0  0  0  0  0  0
   33.9698   29.2677   47.7466 C   0  0  0  0  0  0  0  0  0  0  0  0
   33.9597   28.3680   48.7796 C   0  0  0  0  0  0  0  0  0  0  0  0
   34.9570   28.4113   49.7321 C   0  0  0  0  0  0  0  0  0  0  0  0
   37.9877   33.1929   49.4571 C   0  0  0  0  0  0  0  0  0  0  0  0
   39.0224   33.1785   48.4856 C   0  0  0  0  0  0  0  0  0  0  0  0
   39.0118   32.1431   47.5513 C   0  0  0  0  0  0  0  0  0  0  0  0
   38.0150   31.1963   47.6116 N   0  0  0  0  0  0  0  0  0  0  0  0
   37.0527   31.2482   48.5503 C   0  0  0  0  0  0  0  0  0  0  0  0
   37.0424   32.2557   49.4783 N   0  0  0  0  0  0  0  0  0  0  0  0
   32.9005   29.1969   46.7535 C   0  0  0  0  0  0  0  0  0  0  0  0
   32.2649   28.0456   46.3585 C   0  0  0  0  0  0  0  0  0  0  0  0
   31.2564   28.0277   45.4133 C   0  0  0  0  0  0  0  0  0  0  0  0
   30.8733   29.1699   44.8518 N   0  0  0  0  0  0  0  0  0  0  0  0
   31.4825   30.3193   45.2223 C   0  0  0  0  0  0  0  0  0  0  0  0
   32.4590   30.3108   46.1421 N   0  0  0  0  0  0  0  0  0  0  0  0
   34.9434   30.8775   46.8593 H   0  0  0  0  0  0  0  0  0  0  0  0
   33.1656   27.6290   48.8377 H   0  0  0  0  0  0  0  0  0  0  0  0
   34.8981   27.6712   50.5308 H   0  0  0  0  0  0  0  0  0  0  0  0
   37.9449   33.9746   50.2095 H   0  0  0  0  0  0  0  0  0  0  0  0
   39.7761   33.9378   48.4796 H   0  0  0  0  0  0  0  0  0  0  0  0
   39.7669   32.0717   46.7868 H   0  0  0  0  0  0  0  0  0  0  0  0
   32.5823   27.1072   46.8223 H   0  0  0  0  0  0  0  0  0  0  0  0
   30.7768   27.0950   45.1265 H   0  0  0  0  0  0  0  0  0  0  0  0
   31.0885   31.6223   44.6224 C   0  0  0  0  0  0  0  0  0  0  0  0
   32.1239   32.7065   44.8980 C   0  0  0  0  0  0  0  0  0  0  0  0
   31.6413   33.6804   44.6863 H   0  0  0  0  0  0  0  0  0  0  0  0
   31.0381   31.4975   43.5218 H   0  0  0  0  0  0  0  0  0  0  0  0
   30.0887   31.9291   44.9894 H   0  0  0  0  0  0  0  0  0  0  0  0
   32.9656   32.5306   44.1765 H   0  0  0  0  0  0  0  0  0  0  0  0
   32.5329   32.6322   45.9199 H   0  0  0  0  0  0  0  0  0  0  0  0
  2  7  2  0
  2  1  1  0
  3  2  1  0
  4  5  1  0
  4  3  2  0
  5  6  2  0
  6  7  1  0
  8 13  2  0
  9  8  1  0
 10 11  1  0
 10  9  2  0
 11 12  2  0
 12  3  1  0
 12 13  1  0
 14  5  1  0
 15 14  2  0
 16 15  1  0
 17 18  1  0
 17 16  2  0
 18 19  2  0
 19 14  1  0
  4 20  1  0
  6 21  1  0
  7 22  1  0
  8 23  1  0
  9 24  1  0
 10 25  1  0
 15 26  1  0
 16 27  1  0
 28 29  1  0
 29 30  1  0
 28 31  1  0
 28 32  1  0
 29 33  1  0
 29 34  1  0
 18 28  1  0
M  ISO  8  20  14  21  14  22  14  23  14  24  14  25  14  26  14  27  14
M  ISO  1  30   8
M  END
>  <DihAtoms>  (1) 
16,17,27,28

>  <DihDeg>  (1) 
89.99940692807364

$$$$
