
 OpenBabel03272507223D

 37 40  0  0  1  0  0  0  0  0999 V2000
   37.5210   32.0930   49.0510 C   0  0  0  0  0  0  0  0  0  0  0  0
   38.0820   33.2220   49.6000 C   0  0  0  0  0  0  0  0  0  0  0  0
   39.1040   33.8100   48.8460 C   0  0  0  0  0  0  0  0  0  0  0  0
   39.4870   33.2700   47.6550 N   0  0  0  0  0  0  0  0  0  0  0  0
   38.9130   32.1550   47.1430 C   0  0  0  0  0  0  0  0  0  0  0  0
   37.9160   31.5680   47.8600 N   0  0  0  0  0  0  0  0  0  0  0  0
   37.8060   33.6670   50.5230 H   0  0  0  0  0  0  0  0  0  0  0  0
   39.5940   34.7110   49.2220 H   0  0  0  0  0  0  0  0  0  0  0  0
   40.0700   32.3830   45.0170 C   0  0  0  0  0  0  0  0  0  0  0  0
   39.3340   31.5830   45.8620 C   0  0  0  0  0  0  0  0  0  0  0  0
   39.0190   30.2980   45.4770 C   0  0  0  0  0  0  0  0  0  0  0  0
   39.4080   29.7530   44.2660 C   0  0  0  0  0  0  0  0  0  0  0  0
   39.2300   28.5550   43.6660 N   0  0  0  0  0  0  0  0  0  0  0  0
   39.8610   28.6510   42.4740 C   0  0  0  0  0  0  0  0  0  0  0  0
   40.4140   29.8690   42.3310 N   0  0  0  0  0  0  0  0  0  0  0  0
   40.1510   30.5940   43.4410 C   0  0  0  0  0  0  0  0  0  0  0  0
   40.4800   31.8770   43.7960 C   0  0  0  0  0  0  0  0  0  0  0  0
   40.3760   33.4040   45.2080 H   0  0  0  0  0  0  0  0  0  0  0  0
   38.4370   29.6620   46.1420 H   0  0  0  0  0  0  0  0  0  0  0  0
   38.7080   27.7320   44.0610 H   0  0  0  0  0  0  0  0  0  0  0  0
   39.9340   27.8860   41.7130 H   0  0  0  0  0  0  0  0  0  0  0  0
   41.0610   32.4700   43.0980 H   0  0  0  0  0  0  0  0  0  0  0  0
   36.4220   31.4130   49.8340 C   0  0  1  0  0  0  0  0  0  0  0  0
   35.3930   30.6480   49.1690 C   0  0  2  0  0  0  0  0  0  0  0  0
   36.5700   29.9010   49.8380 C   0  0  2  0  0  0  0  0  0  0  0  0
   36.1670   31.9680   50.7670 H   0  0  0  0  0  0  0  0  0  0  0  0
   34.5320   30.1970   49.7810 H   0  0  0  0  0  0  0  0  0  0  0  0
   37.2830   29.4290   49.1630 H   0  0  0  0  0  0  0  0  0  0  0  0
   35.3940   30.5590   47.8190 O   0  0  0  0  0  0  0  0  0  0  0  0
   34.5450   30.2490   46.8440 C   0  0  0  0  0  0  0  0  0  0  0  0
   35.0280   29.5140   45.9260 O   0  0  0  0  0  0  0  0  0  0  0  0
   33.2780   30.7630   46.9640 N   0  0  0  0  0  0  0  0  0  0  0  0
   32.4120   30.3410   47.3530 H   0  0  0  0  0  0  0  0  0  0  0  0
   33.1310   31.7550   46.6090 H   0  0  0  0  0  0  0  0  0  0  0  0
   36.4410   29.2920   51.1890 C   0  0  0  0  0  0  0  0  0  0  0  0
   37.4090   29.7830   52.2120 C   0  0  0  0  0  0  0  0  0  0  0  0
   37.6300   30.8520   52.0290 H   0  0  0  0  0  0  0  0  0  0  0  0
  1  2  1  0  0  0  0
  1 23  1  0  0  0  0
  2  7  1  0  0  0  0
  3  8  1  0  0  0  0
  3  2  2  0  0  0  0
  4  3  1  0  0  0  0
  5  4  2  0  0  0  0
  5  6  1  0  0  0  0
  6  1  2  0  0  0  0
  9 18  1  0  0  0  0
  9 10  1  0  0  0  0
 10  5  1  0  0  0  0
 11 10  2  0  0  0  0
 11 19  1  0  0  0  0
 12 11  1  0  0  0  0
 13 20  1  0  0  0  0
 13 12  1  0  0  0  0
 14 13  1  0  0  0  0
 15 14  2  0  0  0  0
 15 16  1  0  0  0  0
 16 17  1  0  0  0  0
 16 12  2  0  0  0  0
 17  9  2  0  0  0  0
 21 14  1  0  0  0  0
 22 17  1  0  0  0  0
 23 25  1  0  0  0  0
 23 26  1  1  0  0  0
 24 27  1  1  0  0  0
 24 23  1  0  0  0  0
 24 25  1  0  0  0  0
 25 28  1  6  0  0  0
 25 35  1  0  0  0  0
 29 24  1  0  0  0  0
 30 32  1  0  0  0  0
 30 29  1  0  0  0  0
 31 30  2  0  0  0  0
 32 33  1  0  0  0  0
 34 32  1  0  0  0  0
 35 36  1  0  0  0  0
 37 36  1  0  0  0  0
M  END
>  <minimizedAffinity>
-6.99215651

>  <minimizedRMSD>
1.00128365

$$$$
