
 OpenBabel03272508403D

 36 38  0  0  1  0  0  0  0  0999 V2000
   31.8910   27.5910   48.5910 N   0  0  0  0  0  0  0  0  0  0  0  0
   32.9410   28.4150   49.1850 C   0  0  0  0  0  0  0  0  0  0  0  0
   34.0200   28.7780   48.2700 C   0  0  2  0  0  0  0  0  0  0  0  0
   34.4600   27.6310   47.4280 N   0  0  0  0  0  0  0  0  0  0  0  0
   33.2600   27.0970   46.7550 C   0  0  0  0  0  0  0  0  0  0  0  0
   32.4650   26.4960   47.8910 C   0  0  0  0  0  0  0  0  0  0  0  0
   32.4890   29.2710   49.6830 H   0  0  0  0  0  0  0  0  0  0  0  0
   33.3810   27.6540   49.9170 H   0  0  0  0  0  0  0  0  0  0  0  0
   33.7550   29.4860   47.4660 H   0  0  0  0  0  0  0  0  0  0  0  0
   34.8790   26.8800   48.0130 H   0  0  0  0  0  0  0  0  0  0  0  0
   32.7400   27.8880   46.2160 H   0  0  0  0  0  0  0  0  0  0  0  0
   33.6220   26.2530   46.1340 H   0  0  0  0  0  0  0  0  0  0  0  0
   31.6500   25.8930   47.4310 H   0  0  0  0  0  0  0  0  0  0  0  0
   33.1600   25.8820   48.5070 H   0  0  0  0  0  0  0  0  0  0  0  0
   35.9500   30.4070   46.6980 Cl  0  0  0  0  0  0  0  0  0  0  0  0
   36.1190   30.0650   48.4180 C   0  0  0  0  0  0  0  0  0  0  0  0
   35.1630   29.2810   49.0110 C   0  0  0  0  0  0  0  0  0  0  0  0
   35.1610   28.9350   50.3690 C   0  0  0  0  0  0  0  0  0  0  0  0
   36.2270   29.4430   51.1240 C   0  0  0  0  0  0  0  0  0  0  0  0
   37.2070   30.2390   50.5310 C   0  0  0  0  0  0  0  0  0  0  0  0
   37.1410   30.5430   49.1790 C   0  0  0  0  0  0  0  0  0  0  0  0
   34.5740   28.3820   51.0620 H   0  0  0  0  0  0  0  0  0  0  0  0
   36.4480   29.3210   52.1720 H   0  0  0  0  0  0  0  0  0  0  0  0
   38.0640   30.6740   51.0240 H   0  0  0  0  0  0  0  0  0  0  0  0
   38.1420   31.3820   48.4710 C   0  0  0  0  0  0  0  0  0  0  0  0
   38.2530   32.7790   49.0310 C   0  0  0  0  0  0  0  0  0  0  0  0
   37.8800   33.5620   48.3400 H   0  0  0  0  0  0  0  0  0  0  0  0
   30.5120   27.8850   48.7410 C   0  0  0  0  0  0  0  0  0  0  0  0
   29.7400   28.3720   47.6860 C   0  0  0  0  0  0  0  0  0  0  0  0
   28.3940   28.6300   47.9150 C   0  0  0  0  0  0  0  0  0  0  0  0
   27.8870   28.3920   49.1810 N   0  0  0  0  0  0  0  0  0  0  0  0
   28.6840   27.9180   50.1710 C   0  0  0  0  0  0  0  0  0  0  0  0
   29.9650   27.6680   49.9660 N   0  0  0  0  0  0  0  0  0  0  0  0
   30.2530   28.5150   46.7490 H   0  0  0  0  0  0  0  0  0  0  0  0
   27.8350   29.0010   47.0870 H   0  0  0  0  0  0  0  0  0  0  0  0
   28.1930   27.7630   51.1220 H   0  0  0  0  0  0  0  0  0  0  0  0
  1 28  1  0  0  0  0
  1  2  1  0  0  0  0
  2  7  1  0  0  0  0
  2  8  1  0  0  0  0
  3  9  1  6  0  0  0
  3 17  1  0  0  0  0
  3  2  1  0  0  0  0
  4 10  1  0  0  0  0
  4  3  1  0  0  0  0
  5  4  1  0  0  0  0
  5  6  1  0  0  0  0
  6 14  1  0  0  0  0
  6  1  1  0  0  0  0
 11  5  1  0  0  0  0
 12  5  1  0  0  0  0
 13  6  1  0  0  0  0
 15 16  1  0  0  0  0
 16 17  2  0  0  0  0
 16 21  1  0  0  0  0
 17 18  1  0  0  0  0
 18 22  1  0  0  0  0
 18 19  2  0  0  0  0
 19 23  1  0  0  0  0
 20 24  1  0  0  0  0
 20 19  1  0  0  0  0
 21 20  2  0  0  0  0
 25 26  1  0  0  0  0
 25 21  1  0  0  0  0
 27 26  1  0  0  0  0
 28 33  1  0  0  0  0
 29 30  1  0  0  0  0
 29 28  2  0  0  0  0
 30 31  2  0  0  0  0
 31 32  1  0  0  0  0
 32 36  1  0  0  0  0
 33 32  2  0  0  0  0
 34 29  1  0  0  0  0
 35 30  1  0  0  0  0
M  END
>  <minimizedAffinity>
-6.11886311

>  <minimizedRMSD>
4.06644392

$$$$
