
 OpenBabel03272510073D

 24 25  0  0  0  0  0  0  0  0999 V2000
   36.9580   21.6390   33.0190 C   0  0  0  0  0  0  0  0  0  0  0  0
   35.9150   20.7680   33.3550 C   0  0  0  0  0  0  0  0  0  0  0  0
   35.6510   20.5460   34.7210 C   0  0  0  0  0  0  0  0  0  0  0  0
   36.4200   21.1830   35.6420 N   0  0  0  0  0  0  0  0  0  0  0  0
   37.4170   22.0150   35.2670 C   0  0  0  0  0  0  0  0  0  0  0  0
   37.6870   22.2420   33.9810 N   0  0  0  0  0  0  0  0  0  0  0  0
   38.1920   22.6570   36.3020 N   0  0  0  0  0  0  0  0  0  0  0  0
   37.5990   23.5580   37.2920 C   0  0  0  0  0  0  0  0  0  0  0  0
   38.6610   23.7630   38.3020 C   0  0  0  0  0  0  0  0  0  0  0  0
   39.7660   22.7830   37.9690 C   0  0  0  0  0  0  0  0  0  0  0  0
   39.6140   22.5070   36.5040 C   0  0  0  0  0  0  0  0  0  0  0  0
   37.1180   21.7740   31.9590 H   0  0  0  0  0  0  0  0  0  0  0  0
   34.8610   19.8860   35.0540 H   0  0  0  0  0  0  0  0  0  0  0  0
   36.6640   23.1440   37.7220 H   0  0  0  0  0  0  0  0  0  0  0  0
   37.2960   24.5270   36.8230 H   0  0  0  0  0  0  0  0  0  0  0  0
   38.2900   23.4970   39.3190 H   0  0  0  0  0  0  0  0  0  0  0  0
   39.0270   24.8090   38.3710 H   0  0  0  0  0  0  0  0  0  0  0  0
   40.7310   23.3030   38.1290 H   0  0  0  0  0  0  0  0  0  0  0  0
   39.7500   21.8980   38.6110 H   0  0  0  0  0  0  0  0  0  0  0  0
   39.8360   21.4110   36.3700 H   0  0  0  0  0  0  0  0  0  0  0  0
   40.2310   23.1210   35.8490 H   0  0  0  0  0  0  0  0  0  0  0  0
   35.0400   20.0430   32.4250 C   0  0  0  0  0  2  0  0  0  0  0  0
   35.2070   18.5390   32.5290 C   0  0  0  0  0  2  0  0  0  0  0  0
   36.2420   18.2860   32.8500 H   0  0  0  0  0  0  0  0  0  0  0  0
  1  2  2  0  0  0  0
  1  6  1  0  0  0  0
  2  3  1  0  0  0  0
  3 13  1  0  0  0  0
  3  4  2  0  0  0  0
  5  4  1  0  0  0  0
  5  7  1  0  0  0  0
  6  5  2  0  0  0  0
  7 11  1  0  0  0  0
  7  8  1  0  0  0  0
  8 14  1  0  0  0  0
  8  9  1  0  0  0  0
  9 17  1  0  0  0  0
  9 16  1  0  0  0  0
 10 18  1  0  0  0  0
 10  9  1  0  0  0  0
 10 19  1  0  0  0  0
 11 10  1  0  0  0  0
 12  1  1  0  0  0  0
 15  8  1  0  0  0  0
 20 11  1  0  0  0  0
 21 11  1  0  0  0  0
 22 23  1  0  0  0  0
 22  2  1  0  0  0  0
 23 24  1  0  0  0  0
M  END
>  <minimizedAffinity>
-4.4759016

$$$$

 OpenBabel03272510073D

 24 25  0  0  0  0  0  0  0  0999 V2000
   35.9250   24.0190   31.4000 C   0  0  0  0  0  0  0  0  0  0  0  0
   36.1450   22.6790   31.7360 C   0  0  0  0  0  0  0  0  0  0  0  0
   37.0620   22.3970   32.7700 C   0  0  0  0  0  0  0  0  0  0  0  0
   37.6860   23.4360   33.3830 N   0  0  0  0  0  0  0  0  0  0  0  0
   37.4390   24.7140   33.0220 C   0  0  0  0  0  0  0  0  0  0  0  0
   36.5760   25.0070   32.0480 N   0  0  0  0  0  0  0  0  0  0  0  0
   38.1400   25.7650   33.7210 N   0  0  0  0  0  0  0  0  0  0  0  0
   38.0100   25.9820   35.1620 C   0  0  0  0  0  0  0  0  0  0  0  0
   39.0780   26.9490   35.4990 C   0  0  0  0  0  0  0  0  0  0  0  0
   39.9390   27.0860   34.2600 C   0  0  0  0  0  0  0  0  0  0  0  0
   39.0400   26.7210   33.1180 C   0  0  0  0  0  0  0  0  0  0  0  0
   35.2130   24.1800   30.6030 H   0  0  0  0  0  0  0  0  0  0  0  0
   37.2820   21.3850   33.0830 H   0  0  0  0  0  0  0  0  0  0  0  0
   38.0860   25.0330   35.7330 H   0  0  0  0  0  0  0  0  0  0  0  0
   37.0000   26.3920   35.4180 H   0  0  0  0  0  0  0  0  0  0  0  0
   39.7340   26.5420   36.3030 H   0  0  0  0  0  0  0  0  0  0  0  0
   38.7060   27.9280   35.8680 H   0  0  0  0  0  0  0  0  0  0  0  0
   40.2120   28.1550   34.1620 H   0  0  0  0  0  0  0  0  0  0  0  0
   40.8640   26.5060   34.3250 H   0  0  0  0  0  0  0  0  0  0  0  0
   39.6770   26.1380   32.3960 H   0  0  0  0  0  0  0  0  0  0  0  0
   38.5480   27.5600   32.6280 H   0  0  0  0  0  0  0  0  0  0  0  0
   35.5150   21.5020   31.1240 C   0  0  0  0  0  2  0  0  0  0  0  0
   34.7930   20.6400   32.1410 C   0  0  0  0  0  2  0  0  0  0  0  0
   35.2790   20.7280   33.1380 H   0  0  0  0  0  0  0  0  0  0  0  0
  1  2  2  0  0  0  0
  1  6  1  0  0  0  0
  2  3  1  0  0  0  0
  3 13  1  0  0  0  0
  3  4  2  0  0  0  0
  5  4  1  0  0  0  0
  5  7  1  0  0  0  0
  6  5  2  0  0  0  0
  7  8  1  0  0  0  0
  8 15  1  0  0  0  0
  8  9  1  0  0  0  0
  8 14  1  0  0  0  0
  9 17  1  0  0  0  0
  9 16  1  0  0  0  0
 10 19  1  0  0  0  0
 10  9  1  0  0  0  0
 11  7  1  0  0  0  0
 11 10  1  0  0  0  0
 12  1  1  0  0  0  0
 18 10  1  0  0  0  0
 20 11  1  0  0  0  0
 21 11  1  0  0  0  0
 22  2  1  0  0  0  0
 22 23  1  0  0  0  0
 23 24  1  0  0  0  0
M  END
>  <minimizedAffinity>
-4.00262356

$$$$

 OpenBabel03272510073D

 24 25  0  0  0  0  0  0  0  0999 V2000
   37.0920   21.9850   33.1650 C   0  0  0  0  0  0  0  0  0  0  0  0
   36.3080   22.3580   32.0670 C   0  0  0  0  0  0  0  0  0  0  0  0
   36.3020   23.7150   31.6870 C   0  0  0  0  0  0  0  0  0  0  0  0
   37.0510   24.5920   32.4050 N   0  0  0  0  0  0  0  0  0  0  0  0
   37.7910   24.1830   33.4590 C   0  0  0  0  0  0  0  0  0  0  0  0
   37.8150   22.9040   33.8380 N   0  0  0  0  0  0  0  0  0  0  0  0
   38.5620   25.1720   34.1730 N   0  0  0  0  0  0  0  0  0  0  0  0
   39.6170   25.9640   33.5380 C   0  0  0  0  0  0  0  0  0  0  0  0
   39.9460   27.0180   34.5240 C   0  0  0  0  0  0  0  0  0  0  0  0
   38.8990   26.9280   35.6150 C   0  0  0  0  0  0  0  0  0  0  0  0
   38.4090   25.5120   35.5680 C   0  0  0  0  0  0  0  0  0  0  0  0
   37.0620   20.9340   33.4130 H   0  0  0  0  0  0  0  0  0  0  0  0
   35.7210   24.0750   30.8490 H   0  0  0  0  0  0  0  0  0  0  0  0
   39.2970   26.3710   32.5570 H   0  0  0  0  0  0  0  0  0  0  0  0
   40.5120   25.3320   33.3100 H   0  0  0  0  0  0  0  0  0  0  0  0
   39.8460   28.0280   34.0640 H   0  0  0  0  0  0  0  0  0  0  0  0
   40.9810   26.9610   34.9230 H   0  0  0  0  0  0  0  0  0  0  0  0
   39.4130   27.0880   36.5820 H   0  0  0  0  0  0  0  0  0  0  0  0
   38.1220   27.6900   35.5140 H   0  0  0  0  0  0  0  0  0  0  0  0
   37.3000   25.5620   35.7580 H   0  0  0  0  0  0  0  0  0  0  0  0
   38.9010   24.8280   36.2580 H   0  0  0  0  0  0  0  0  0  0  0  0
   35.4730   21.4760   31.2410 C   0  0  0  0  0  2  0  0  0  0  0  0
   34.7350   20.4410   32.0670 C   0  0  0  0  0  2  0  0  0  0  0  0
   35.3150   20.1900   32.9830 H   0  0  0  0  0  0  0  0  0  0  0  0
  1 12  1  0  0  0  0
  1  6  1  0  0  0  0
  2  1  2  0  0  0  0
  3  2  1  0  0  0  0
  3  4  2  0  0  0  0
  4  5  1  0  0  0  0
  5  6  2  0  0  0  0
  5  7  1  0  0  0  0
  7 11  1  0  0  0  0
  8  7  1  0  0  0  0
  8  9  1  0  0  0  0
  9 17  1  0  0  0  0
  9 10  1  0  0  0  0
 10 18  1  0  0  0  0
 11 10  1  0  0  0  0
 11 20  1  0  0  0  0
 11 21  1  0  0  0  0
 13  3  1  0  0  0  0
 14  8  1  0  0  0  0
 15  8  1  0  0  0  0
 16  9  1  0  0  0  0
 19 10  1  0  0  0  0
 22  2  1  0  0  0  0
 22 23  1  0  0  0  0
 23 24  1  0  0  0  0
M  END
>  <minimizedAffinity>
-3.88440824

$$$$

 OpenBabel03272510073D

 24 25  0  0  0  0  0  0  0  0999 V2000
   37.6270   25.4810   33.1440 C   0  0  0  0  0  0  0  0  0  0  0  0
   38.5170   26.5400   32.9320 C   0  0  0  0  0  0  0  0  0  0  0  0
   39.5660   26.7200   33.8560 C   0  0  0  0  0  0  0  0  0  0  0  0
   39.6600   25.8610   34.9050 N   0  0  0  0  0  0  0  0  0  0  0  0
   38.7750   24.8530   35.0670 C   0  0  0  0  0  0  0  0  0  0  0  0
   37.7740   24.6620   34.2060 N   0  0  0  0  0  0  0  0  0  0  0  0
   38.9390   23.9810   36.2050 N   0  0  0  0  0  0  0  0  0  0  0  0
   40.1390   23.1700   36.4150 C   0  0  0  0  0  0  0  0  0  0  0  0
   40.0140   22.6580   37.7980 C   0  0  0  0  0  0  0  0  0  0  0  0
   38.8380   23.3820   38.4200 C   0  0  0  0  0  0  0  0  0  0  0  0
   37.9750   23.7880   37.2630 C   0  0  0  0  0  0  0  0  0  0  0  0
   36.8430   25.3880   32.4070 H   0  0  0  0  0  0  0  0  0  0  0  0
   40.2910   27.5160   33.7560 H   0  0  0  0  0  0  0  0  0  0  0  0
   41.0680   23.7540   36.2500 H   0  0  0  0  0  0  0  0  0  0  0  0
   40.1920   22.3300   35.6780 H   0  0  0  0  0  0  0  0  0  0  0  0
   40.9130   22.9290   38.3980 H   0  0  0  0  0  0  0  0  0  0  0  0
   39.9170   21.5540   37.8670 H   0  0  0  0  0  0  0  0  0  0  0  0
   38.2800   22.6470   39.0310 H   0  0  0  0  0  0  0  0  0  0  0  0
   39.1480   24.2010   39.0750 H   0  0  0  0  0  0  0  0  0  0  0  0
   37.5790   24.8120   37.5160 H   0  0  0  0  0  0  0  0  0  0  0  0
   37.1680   23.0980   37.0210 H   0  0  0  0  0  0  0  0  0  0  0  0
   38.4860   27.5090   31.8290 C   0  0  0  0  0  2  0  0  0  0  0  0
   37.1520   28.2220   31.7250 C   0  0  0  0  0  2  0  0  0  0  0  0
   36.3330   27.5680   32.0980 H   0  0  0  0  0  0  0  0  0  0  0  0
  1  6  1  0  0  0  0
  2  1  2  0  0  0  0
  2  3  1  0  0  0  0
  3  4  2  0  0  0  0
  4  5  1  0  0  0  0
  5  7  1  0  0  0  0
  6  5  2  0  0  0  0
  7  8  1  0  0  0  0
  7 11  1  0  0  0  0
  8  9  1  0  0  0  0
  9 17  1  0  0  0  0
  9 16  1  0  0  0  0
  9 10  1  0  0  0  0
 10 18  1  0  0  0  0
 10 19  1  0  0  0  0
 11 20  1  0  0  0  0
 11 10  1  0  0  0  0
 12  1  1  0  0  0  0
 13  3  1  0  0  0  0
 14  8  1  0  0  0  0
 15  8  1  0  0  0  0
 21 11  1  0  0  0  0
 22  2  1  0  0  0  0
 23 22  1  0  0  0  0
 23 24  1  0  0  0  0
M  END
>  <minimizedAffinity>
-3.83306146

$$$$

 OpenBabel03272510073D

 24 25  0  0  0  0  0  0  0  0999 V2000
   37.3160   25.5400   32.2820 C   0  0  0  0  0  0  0  0  0  0  0  0
   36.3180   26.3110   31.6760 C   0  0  0  0  0  0  0  0  0  0  0  0
   35.2400   25.6380   31.0630 C   0  0  0  0  0  0  0  0  0  0  0  0
   35.2260   24.2800   31.0890 N   0  0  0  0  0  0  0  0  0  0  0  0
   36.2140   23.5800   31.6870 C   0  0  0  0  0  0  0  0  0  0  0  0
   37.2440   24.1920   32.2740 N   0  0  0  0  0  0  0  0  0  0  0  0
   36.1300   22.1390   31.6750 N   0  0  0  0  0  0  0  0  0  0  0  0
   35.0240   21.4050   32.2910 C   0  0  0  0  0  0  0  0  0  0  0  0
   35.1840   20.0110   31.8190 C   0  0  0  0  0  0  0  0  0  0  0  0
   36.2620   20.0390   30.7560 C   0  0  0  0  0  0  0  0  0  0  0  0
   37.0930   21.2450   31.0750 C   0  0  0  0  0  0  0  0  0  0  0  0
   38.1170   26.1040   32.7370 H   0  0  0  0  0  0  0  0  0  0  0  0
   34.4340   26.1690   30.5760 H   0  0  0  0  0  0  0  0  0  0  0  0
   34.0390   21.8430   32.0290 H   0  0  0  0  0  0  0  0  0  0  0  0
   35.0760   21.4610   33.4070 H   0  0  0  0  0  0  0  0  0  0  0  0
   34.2500   19.6580   31.3220 H   0  0  0  0  0  0  0  0  0  0  0  0
   35.4010   19.2800   32.6250 H   0  0  0  0  0  0  0  0  0  0  0  0
   36.8880   19.1370   30.8950 H   0  0  0  0  0  0  0  0  0  0  0  0
   35.8530   20.0140   29.7420 H   0  0  0  0  0  0  0  0  0  0  0  0
   37.3690   21.7020   30.0840 H   0  0  0  0  0  0  0  0  0  0  0  0
   37.9750   21.0540   31.6840 H   0  0  0  0  0  0  0  0  0  0  0  0
   36.2590   27.7770   31.6030 C   0  0  0  0  0  2  0  0  0  0  0  0
   36.3500   28.4260   32.9700 C   0  0  0  0  0  2  0  0  0  0  0  0
   35.9280   27.7510   33.7480 H   0  0  0  0  0  0  0  0  0  0  0  0
  1 12  1  0  0  0  0
  2  1  2  0  0  0  0
  3  4  2  0  0  0  0
  3  2  1  0  0  0  0
  4  5  1  0  0  0  0
  5  6  2  0  0  0  0
  6  1  1  0  0  0  0
  7  5  1  0  0  0  0
  7  8  1  0  0  0  0
  8 15  1  0  0  0  0
  9  8  1  0  0  0  0
  9 17  1  0  0  0  0
 10 18  1  0  0  0  0
 10 11  1  0  0  0  0
 10  9  1  0  0  0  0
 11  7  1  0  0  0  0
 11 21  1  0  0  0  0
 13  3  1  0  0  0  0
 14  8  1  0  0  0  0
 16  9  1  0  0  0  0
 19 10  1  0  0  0  0
 20 11  1  0  0  0  0
 22  2  1  0  0  0  0
 22 23  1  0  0  0  0
 23 24  1  0  0  0  0
M  END
>  <minimizedAffinity>
-3.83238125

$$$$

 OpenBabel03272510073D

 24 25  0  0  0  0  0  0  0  0999 V2000
   38.1600   26.1680   36.3560 C   0  0  0  0  0  0  0  0  0  0  0  0
   38.2650   24.7870   36.1510 C   0  0  0  0  0  0  0  0  0  0  0  0
   38.1540   24.3020   34.8320 C   0  0  0  0  0  0  0  0  0  0  0  0
   37.9460   25.1940   33.8290 N   0  0  0  0  0  0  0  0  0  0  0  0
   37.8510   26.5180   34.0780 C   0  0  0  0  0  0  0  0  0  0  0  0
   37.9540   27.0030   35.3160 N   0  0  0  0  0  0  0  0  0  0  0  0
   37.6310   27.4050   32.9600 N   0  0  0  0  0  0  0  0  0  0  0  0
   38.5710   27.5220   31.8450 C   0  0  0  0  0  0  0  0  0  0  0  0
   37.8470   28.3050   30.8180 C   0  0  0  0  0  0  0  0  0  0  0  0
   36.4150   28.4220   31.2980 C   0  0  0  0  0  0  0  0  0  0  0  0
   36.4900   28.2750   32.7880 C   0  0  0  0  0  0  0  0  0  0  0  0
   38.2530   26.4870   37.3830 H   0  0  0  0  0  0  0  0  0  0  0  0
   38.2250   23.2480   34.6000 H   0  0  0  0  0  0  0  0  0  0  0  0
   38.9060   26.5300   31.4790 H   0  0  0  0  0  0  0  0  0  0  0  0
   39.5090   28.0440   32.1620 H   0  0  0  0  0  0  0  0  0  0  0  0
   37.8190   27.7500   29.8520 H   0  0  0  0  0  0  0  0  0  0  0  0
   38.3020   29.2930   30.5950 H   0  0  0  0  0  0  0  0  0  0  0  0
   36.0700   29.4480   31.0650 H   0  0  0  0  0  0  0  0  0  0  0  0
   35.7460   27.7180   30.7970 H   0  0  0  0  0  0  0  0  0  0  0  0
   35.5880   27.6700   33.0850 H   0  0  0  0  0  0  0  0  0  0  0  0
   36.5450   29.2090   33.3450 H   0  0  0  0  0  0  0  0  0  0  0  0
   38.4880   23.7600   37.1770 C   0  0  0  0  0  2  0  0  0  0  0  0
   38.0080   24.1980   38.5460 C   0  0  0  0  0  2  0  0  0  0  0  0
   38.0770   25.3040   38.6450 H   0  0  0  0  0  0  0  0  0  0  0  0
  1 12  1  0  0  0  0
  2  1  1  0  0  0  0
  2 22  1  0  0  0  0
  3  2  2  0  0  0  0
  4  5  2  0  0  0  0
  4  3  1  0  0  0  0
  5  6  1  0  0  0  0
  6  1  2  0  0  0  0
  7  5  1  0  0  0  0
  8 15  1  0  0  0  0
  8  7  1  0  0  0  0
  9 10  1  0  0  0  0
  9  8  1  0  0  0  0
 10 11  1  0  0  0  0
 11  7  1  0  0  0  0
 11 20  1  0  0  0  0
 11 21  1  0  0  0  0
 13  3  1  0  0  0  0
 14  8  1  0  0  0  0
 16  9  1  0  0  0  0
 17  9  1  0  0  0  0
 18 10  1  0  0  0  0
 19 10  1  0  0  0  0
 22 23  1  0  0  0  0
 23 24  1  0  0  0  0
M  END
>  <minimizedAffinity>
-3.79579926

$$$$

 OpenBabel03272510073D

 24 25  0  0  0  0  0  0  0  0999 V2000
   39.1270   21.7990   33.0500 C   0  0  0  0  0  0  0  0  0  0  0  0
   37.9180   21.1550   32.7680 C   0  0  0  0  0  0  0  0  0  0  0  0
   36.9010   21.1960   33.7450 C   0  0  0  0  0  0  0  0  0  0  0  0
   37.1470   21.8540   34.9080 N   0  0  0  0  0  0  0  0  0  0  0  0
   38.3330   22.4600   35.1330 C   0  0  0  0  0  0  0  0  0  0  0  0
   39.3100   22.4370   34.2250 N   0  0  0  0  0  0  0  0  0  0  0  0
   38.5200   23.1410   36.3920 N   0  0  0  0  0  0  0  0  0  0  0  0
   37.6850   24.2650   36.8170 C   0  0  0  0  0  0  0  0  0  0  0  0
   38.0260   24.4740   38.2420 C   0  0  0  0  0  0  0  0  0  0  0  0
   38.8940   23.3030   38.6520 C   0  0  0  0  0  0  0  0  0  0  0  0
   39.5240   22.8200   37.3800 C   0  0  0  0  0  0  0  0  0  0  0  0
   39.8710   21.7380   32.2690 H   0  0  0  0  0  0  0  0  0  0  0  0
   35.9420   20.7200   33.5960 H   0  0  0  0  0  0  0  0  0  0  0  0
   36.6070   24.0670   36.6520 H   0  0  0  0  0  0  0  0  0  0  0  0
   37.9060   25.1810   36.2120 H   0  0  0  0  0  0  0  0  0  0  0  0
   37.1080   24.4310   38.8730 H   0  0  0  0  0  0  0  0  0  0  0  0
   38.5040   25.4530   38.4570 H   0  0  0  0  0  0  0  0  0  0  0  0
   39.6930   23.6960   39.3100 H   0  0  0  0  0  0  0  0  0  0  0  0
   38.3390   22.5440   39.2100 H   0  0  0  0  0  0  0  0  0  0  0  0
   39.5450   21.6970   37.4520 H   0  0  0  0  0  0  0  0  0  0  0  0
   40.5130   23.2250   37.1690 H   0  0  0  0  0  0  0  0  0  0  0  0
   37.5730   20.4240   31.5420 C   0  0  0  0  0  2  0  0  0  0  0  0
   36.2010   20.7950   31.0160 C   0  0  0  0  0  2  0  0  0  0  0  0
   35.5340   21.0980   31.8530 H   0  0  0  0  0  0  0  0  0  0  0  0
  1  6  1  0  0  0  0
  2  1  2  0  0  0  0
  2  3  1  0  0  0  0
  3  4  2  0  0  0  0
  4  5  1  0  0  0  0
  5  7  1  0  0  0  0
  6  5  2  0  0  0  0
  7  8  1  0  0  0  0
  7 11  1  0  0  0  0
  8  9  1  0  0  0  0
  9 17  1  0  0  0  0
  9 10  1  0  0  0  0
  9 16  1  0  0  0  0
 10 19  1  0  0  0  0
 10 18  1  0  0  0  0
 11 20  1  0  0  0  0
 11 10  1  0  0  0  0
 12  1  1  0  0  0  0
 13  3  1  0  0  0  0
 14  8  1  0  0  0  0
 15  8  1  0  0  0  0
 21 11  1  0  0  0  0
 22  2  1  0  0  0  0
 23 22  1  0  0  0  0
 23 24  1  0  0  0  0
M  END
>  <minimizedAffinity>
-3.78677487

$$$$

 OpenBabel03272510073D

 24 25  0  0  0  0  0  0  0  0999 V2000
   37.5370   24.8120   32.8210 C   0  0  0  0  0  0  0  0  0  0  0  0
   36.9090   23.6830   32.2830 C   0  0  0  0  0  0  0  0  0  0  0  0
   37.1690   22.4320   32.8800 C   0  0  0  0  0  0  0  0  0  0  0  0
   38.0160   22.3840   33.9410 N   0  0  0  0  0  0  0  0  0  0  0  0
   38.5990   23.5030   34.4230 C   0  0  0  0  0  0  0  0  0  0  0  0
   38.3700   24.6980   33.8770 N   0  0  0  0  0  0  0  0  0  0  0  0
   39.4880   23.3730   35.5530 N   0  0  0  0  0  0  0  0  0  0  0  0
   39.0490   22.8540   36.8490 C   0  0  0  0  0  0  0  0  0  0  0  0
   40.2990   22.6340   37.6130 C   0  0  0  0  0  0  0  0  0  0  0  0
   41.4390   22.8280   36.6350 C   0  0  0  0  0  0  0  0  0  0  0  0
   40.8880   23.7250   35.5670 C   0  0  0  0  0  0  0  0  0  0  0  0
   37.3040   25.7440   32.3280 H   0  0  0  0  0  0  0  0  0  0  0  0
   36.7180   21.5180   32.5180 H   0  0  0  0  0  0  0  0  0  0  0  0
   38.4380   21.9340   36.7430 H   0  0  0  0  0  0  0  0  0  0  0  0
   38.3820   23.5850   37.3710 H   0  0  0  0  0  0  0  0  0  0  0  0
   40.3570   21.5800   37.9710 H   0  0  0  0  0  0  0  0  0  0  0  0
   40.3990   23.2730   38.5140 H   0  0  0  0  0  0  0  0  0  0  0  0
   42.2440   23.3710   37.1670 H   0  0  0  0  0  0  0  0  0  0  0  0
   41.8500   21.8800   36.2760 H   0  0  0  0  0  0  0  0  0  0  0  0
   41.3150   23.3490   34.5960 H   0  0  0  0  0  0  0  0  0  0  0  0
   41.0870   24.7870   35.7050 H   0  0  0  0  0  0  0  0  0  0  0  0
   35.9840   23.6490   31.1430 C   0  0  0  0  0  2  0  0  0  0  0  0
   35.1460   24.9090   31.0420 C   0  0  0  0  0  2  0  0  0  0  0  0
   34.9890   25.3510   32.0510 H   0  0  0  0  0  0  0  0  0  0  0  0
  1  6  1  0  0  0  0
  2  1  2  0  0  0  0
  2  3  1  0  0  0  0
  3  4  2  0  0  0  0
  4  5  1  0  0  0  0
  5  7  1  0  0  0  0
  6  5  2  0  0  0  0
  7 11  1  0  0  0  0
  7  8  1  0  0  0  0
  8 15  1  0  0  0  0
  8  9  1  0  0  0  0
  9 16  1  0  0  0  0
  9 17  1  0  0  0  0
 10 18  1  0  0  0  0
 10  9  1  0  0  0  0
 11 21  1  0  0  0  0
 11 10  1  0  0  0  0
 12  1  1  0  0  0  0
 13  3  1  0  0  0  0
 14  8  1  0  0  0  0
 19 10  1  0  0  0  0
 20 11  1  0  0  0  0
 22  2  1  0  0  0  0
 23 22  1  0  0  0  0
 23 24  1  0  0  0  0
M  END
>  <minimizedAffinity>
-3.76366186

$$$$

 OpenBabel03272510073D

 24 25  0  0  0  0  0  0  0  0999 V2000
   37.0550   24.4220   32.6140 C   0  0  0  0  0  0  0  0  0  0  0  0
   36.1930   23.8990   31.6450 C   0  0  0  0  0  0  0  0  0  0  0  0
   35.3790   24.7980   30.9260 C   0  0  0  0  0  0  0  0  0  0  0  0
   35.4700   26.1230   31.2110 N   0  0  0  0  0  0  0  0  0  0  0  0
   36.3180   26.5800   32.1570 C   0  0  0  0  0  0  0  0  0  0  0  0
   37.0990   25.7500   32.8510 N   0  0  0  0  0  0  0  0  0  0  0  0
   36.3600   28.0020   32.4040 N   0  0  0  0  0  0  0  0  0  0  0  0
   36.7340   28.9730   31.3750 C   0  0  0  0  0  0  0  0  0  0  0  0
   36.3840   30.2910   31.9520 C   0  0  0  0  0  0  0  0  0  0  0  0
   35.6050   30.0110   33.2200 C   0  0  0  0  0  0  0  0  0  0  0  0
   36.0490   28.6480   33.6580 C   0  0  0  0  0  0  0  0  0  0  0  0
   37.6560   23.6920   33.1350 H   0  0  0  0  0  0  0  0  0  0  0  0
   34.6890   24.4640   30.1630 H   0  0  0  0  0  0  0  0  0  0  0  0
   36.2250   28.7720   30.4100 H   0  0  0  0  0  0  0  0  0  0  0  0
   37.8270   28.9130   31.1430 H   0  0  0  0  0  0  0  0  0  0  0  0
   35.7000   30.8470   31.2700 H   0  0  0  0  0  0  0  0  0  0  0  0
   37.2550   30.9570   32.1270 H   0  0  0  0  0  0  0  0  0  0  0  0
   35.9330   30.7460   33.9800 H   0  0  0  0  0  0  0  0  0  0  0  0
   34.5260   30.1250   33.0840 H   0  0  0  0  0  0  0  0  0  0  0  0
   35.1290   28.1340   34.0540 H   0  0  0  0  0  0  0  0  0  0  0  0
   36.8580   28.6340   34.3870 H   0  0  0  0  0  0  0  0  0  0  0  0
   36.0340   22.4850   31.2780 C   0  0  0  0  0  2  0  0  0  0  0  0
   35.1910   21.7210   32.2800 C   0  0  0  0  0  2  0  0  0  0  0  0
   35.2930   22.1680   33.2930 H   0  0  0  0  0  0  0  0  0  0  0  0
  1  6  1  0  0  0  0
  1 12  1  0  0  0  0
  2  1  2  0  0  0  0
  3  4  2  0  0  0  0
  3  2  1  0  0  0  0
  4  5  1  0  0  0  0
  5  7  1  0  0  0  0
  5  6  2  0  0  0  0
  7 11  1  0  0  0  0
  8  9  1  0  0  0  0
  8  7  1  0  0  0  0
  9 17  1  0  0  0  0
  9 10  1  0  0  0  0
 10 11  1  0  0  0  0
 10 18  1  0  0  0  0
 11 20  1  0  0  0  0
 11 21  1  0  0  0  0
 13  3  1  0  0  0  0
 14  8  1  0  0  0  0
 15  8  1  0  0  0  0
 16  9  1  0  0  0  0
 19 10  1  0  0  0  0
 22  2  1  0  0  0  0
 22 23  1  0  0  0  0
 23 24  1  0  0  0  0
M  END
>  <minimizedAffinity>
-3.75781059

$$$$
