
 OpenBabel03272509493D

 27 28  0  0  0  0  0  0  0  0999 V2000
   33.7280   28.6040   48.6910 C   0  0  0  0  0  0  0  0  0  0  0  0
   34.3000   28.9160   47.7760 H   0  0  0  0  0  0  0  0  0  0  0  0
   33.1100   29.4310   49.1050 H   0  0  0  0  0  0  0  0  0  0  0  0
   32.8100   27.4600   48.3460 C   0  0  0  0  0  0  0  0  0  0  0  0
   33.0990   27.0480   47.3400 H   0  0  0  0  0  0  0  0  0  0  0  0
   32.9540   26.6330   49.0810 H   0  0  0  0  0  0  0  0  0  0  0  0
   31.3850   27.8610   48.3490 C   0  0  0  0  0  0  0  0  0  0  0  0
   30.6960   27.7320   49.5410 C   0  0  0  0  0  0  0  0  0  0  0  0
   29.3700   28.0770   49.6460 C   0  0  0  0  0  0  0  0  0  0  0  0
   28.7070   28.5520   48.5830 N   0  0  0  0  0  0  0  0  0  0  0  0
   29.3950   28.6760   47.4140 C   0  0  0  0  0  0  0  0  0  0  0  0
   30.6870   28.3450   47.2910 N   0  0  0  0  0  0  0  0  0  0  0  0
   31.1180   27.3610   50.4690 H   0  0  0  0  0  0  0  0  0  0  0  0
   28.7860   27.9950   50.5530 H   0  0  0  0  0  0  0  0  0  0  0  0
   29.0190   29.0410   46.4590 H   0  0  0  0  0  0  0  0  0  0  0  0
   34.6180   28.2070   49.7280 O   0  0  0  0  0  0  0  0  0  0  0  0
   37.2170   30.1800   51.3100 C   0  0  0  0  0  0  0  0  0  0  0  0
   37.9040   30.6360   50.1620 C   0  0  0  0  0  0  0  0  0  0  0  0
   37.4240   30.2330   48.9210 C   0  0  0  0  0  0  0  0  0  0  0  0
   36.3250   29.4250   48.8820 N   0  0  0  0  0  0  0  0  0  0  0  0
   35.6960   29.0100   49.9990 C   0  0  0  0  0  0  0  0  0  0  0  0
   36.1570   29.3970   51.1990 N   0  0  0  0  0  0  0  0  0  0  0  0
   37.6160   30.5100   52.2590 H   0  0  0  0  0  0  0  0  0  0  0  0
   38.7820   31.2800   50.1620 H   0  0  0  0  0  0  0  0  0  0  0  0
   38.0900   30.6700   47.6450 C   0  0  0  0  0  2  0  0  0  0  0  0
   37.1080   30.8130   46.5110 C   0  0  0  0  0  2  0  0  0  0  0  0
   37.0270   29.8980   45.8970 H   0  0  0  0  0  0  0  0  0  0  0  0
  1  3  1  0  0  0  0
  1 16  1  0  0  0  0
  2  1  1  0  0  0  0
  4  7  1  0  0  0  0
  4  1  1  0  0  0  0
  4  6  1  0  0  0  0
  5  4  1  0  0  0  0
  7  8  1  0  0  0  0
  8  9  2  0  0  0  0
  8 13  1  0  0  0  0
  9 14  1  0  0  0  0
 10  9  1  0  0  0  0
 11 10  2  0  0  0  0
 12 11  1  0  0  0  0
 12  7  2  0  0  0  0
 15 11  1  0  0  0  0
 16 21  1  0  0  0  0
 17 23  1  0  0  0  0
 18 24  1  0  0  0  0
 18 17  2  0  0  0  0
 19 18  1  0  0  0  0
 20 19  2  0  0  0  0
 20 21  1  0  0  0  0
 21 22  2  0  0  0  0
 22 17  1  0  0  0  0
 25 19  1  0  0  0  0
 26 25  1  0  0  0  0
 27 26  1  0  0  0  0
M  END
>  <minimizedAffinity>
-4.87063885

>  <minimizedRMSD>
0.0873086825

$$$$
