
 OpenBabel03272500333D

 38 40  0  0  1  0  0  0  0  0999 V2000
   38.2990   21.7090   33.7980 Cl  0  0  0  0  0  0  0  0  0  0  0  0
   37.4100   22.8770   32.8580 C   0  0  0  0  0  0  0  0  0  0  0  0
   36.4880   22.3250   32.0120 C   0  0  0  0  0  0  0  0  0  0  0  0
   35.6960   23.2000   31.2710 C   0  0  0  0  0  0  0  0  0  0  0  0
   35.8830   24.5590   31.4350 C   0  0  0  0  0  0  0  0  0  0  0  0
   36.8440   25.0230   32.3190 C   0  0  0  0  0  0  0  0  0  0  0  0
   37.6380   24.2120   33.0590 C   0  0  0  0  0  0  0  0  0  0  0  0
   34.9510   22.8210   30.5840 H   0  0  0  0  0  0  0  0  0  0  0  0
   35.2700   25.2560   30.8620 H   0  0  0  0  0  0  0  0  0  0  0  0
   36.9210   26.1010   32.3880 H   0  0  0  0  0  0  0  0  0  0  0  0
   38.7320   24.7060   33.9460 C   0  0  1  0  0  0  0  0  0  0  0  0
   39.8400   25.2110   33.1500 C   0  0  0  0  0  0  0  0  0  0  0  0
   40.8350   25.6870   34.2120 C   0  0  0  0  0  0  0  0  0  0  0  0
   40.2230   27.0140   34.6570 C   0  0  0  0  0  0  0  0  0  0  0  0
   38.8530   26.9030   35.1690 C   0  0  0  0  0  0  0  0  0  0  0  0
   38.1710   25.6070   35.0310 C   0  0  2  0  0  0  0  0  0  0  0  0
   39.0020   23.8170   34.5530 H   0  0  0  0  0  0  0  0  0  0  0  0
   39.8850   26.1850   32.6940 H   0  0  0  0  0  0  0  0  0  0  0  0
   40.3470   24.4060   32.5850 H   0  0  0  0  0  0  0  0  0  0  0  0
   41.8040   25.9380   33.7230 H   0  0  0  0  0  0  0  0  0  0  0  0
   40.9820   24.9650   34.9970 H   0  0  0  0  0  0  0  0  0  0  0  0
   40.9550   27.4640   35.3200 H   0  0  0  0  0  0  0  0  0  0  0  0
   40.2760   27.6400   33.7150 H   0  0  0  0  0  0  0  0  0  0  0  0
   38.2770   27.7740   34.7290 H   0  0  0  0  0  0  0  0  0  0  0  0
   38.9040   27.2120   36.2550 H   0  0  0  0  0  0  0  0  0  0  0  0
   37.1260   25.8650   34.6610 H   0  0  0  0  0  0  0  0  0  0  0  0
   37.9410   24.9740   36.3540 C   0  0  0  0  0  2  0  0  0  0  0  0
   38.8110   23.8450   36.7560 C   0  0  0  0  0  2  0  0  0  0  0  0
   38.5980   23.6580   37.8330 H   0  0  0  0  0  0  0  0  0  0  0  0
   35.3150   18.9410   32.7350 C   0  0  0  0  0  0  0  0  0  0  0  0
   35.9480   18.1340   31.7840 C   0  0  0  0  0  0  0  0  0  0  0  0
   36.7850   18.7880   30.8810 C   0  0  0  0  0  0  0  0  0  0  0  0
   36.9400   20.1450   30.9690 N   0  0  0  0  0  0  0  0  0  0  0  0
   36.3070   20.8670   31.9030 C   0  0  0  0  0  0  0  0  0  0  0  0
   35.4870   20.2660   32.7970 N   0  0  0  0  0  0  0  0  0  0  0  0
   34.6580   18.4760   33.4530 H   0  0  0  0  0  0  0  0  0  0  0  0
   35.8150   17.0740   31.7310 H   0  0  0  0  0  0  0  0  0  0  0  0
   37.3240   18.2560   30.1040 H   0  0  0  0  0  0  0  0  0  0  0  0
  2  7  1  0  0  0  0
  2  1  1  0  0  0  0
  3  2  2  0  0  0  0
  4  5  2  0  0  0  0
  4  3  1  0  0  0  0
  5  6  1  0  0  0  0
  6 10  1  0  0  0  0
  6  7  2  0  0  0  0
  7 11  1  0  0  0  0
  8  4  1  0  0  0  0
  9  5  1  0  0  0  0
 11 17  1  1  0  0  0
 11 16  1  0  0  0  0
 12 11  1  0  0  0  0
 12 13  1  0  0  0  0
 13 14  1  0  0  0  0
 13 21  1  0  0  0  0
 14 15  1  0  0  0  0
 14 22  1  0  0  0  0
 15 25  1  0  0  0  0
 16 26  1  6  0  0  0
 16 15  1  0  0  0  0
 16 27  1  0  0  0  0
 18 12  1  0  0  0  0
 19 12  1  0  0  0  0
 20 13  1  0  0  0  0
 23 14  1  0  0  0  0
 24 15  1  0  0  0  0
 27 28  1  0  0  0  0
 28 29  1  0  0  0  0
 30 35  1  0  0  0  0
 30 36  1  0  0  0  0
 31 30  2  0  0  0  0
 32 33  2  0  0  0  0
 32 31  1  0  0  0  0
 33 34  1  0  0  0  0
 34  3  1  0  0  0  0
 34 35  2  0  0  0  0
 37 31  1  0  0  0  0
 38 32  1  0  0  0  0
M  END
>  <minimizedAffinity>
-5.28503036

$$$$

 OpenBabel03272500333D

 38 40  0  0  1  0  0  0  0  0999 V2000
   37.9910   23.6010   33.3920 Cl  0  0  0  0  0  0  0  0  0  0  0  0
   36.9320   24.5680   32.3990 C   0  0  0  0  0  0  0  0  0  0  0  0
   36.0500   23.8370   31.6510 C   0  0  0  0  0  0  0  0  0  0  0  0
   35.1310   24.5430   30.8770 C   0  0  0  0  0  0  0  0  0  0  0  0
   35.1620   25.9240   30.9120 C   0  0  0  0  0  0  0  0  0  0  0  0
   36.0950   26.5750   31.7040 C   0  0  0  0  0  0  0  0  0  0  0  0
   37.0080   25.9330   32.4710 C   0  0  0  0  0  0  0  0  0  0  0  0
   34.4090   24.0190   30.2640 H   0  0  0  0  0  0  0  0  0  0  0  0
   34.4480   26.4900   30.3120 H   0  0  0  0  0  0  0  0  0  0  0  0
   36.0460   27.6570   31.6740 H   0  0  0  0  0  0  0  0  0  0  0  0
   38.0700   26.6290   33.2560 C   0  0  1  0  0  0  0  0  0  0  0  0
   37.8860   26.3880   34.6790 C   0  0  0  0  0  0  0  0  0  0  0  0
   39.0580   27.1470   35.3080 C   0  0  0  0  0  0  0  0  0  0  0  0
   40.2310   26.2040   35.0440 C   0  0  0  0  0  0  0  0  0  0  0  0
   40.4470   25.8930   33.6270 C   0  0  0  0  0  0  0  0  0  0  0  0
   39.4380   26.3540   32.6610 C   0  0  2  0  0  0  0  0  0  0  0  0
   37.9480   27.6970   32.9750 H   0  0  0  0  0  0  0  0  0  0  0  0
   38.1980   25.5030   35.2050 H   0  0  0  0  0  0  0  0  0  0  0  0
   36.9640   26.8630   35.0660 H   0  0  0  0  0  0  0  0  0  0  0  0
   38.9260   27.1790   36.4140 H   0  0  0  0  0  0  0  0  0  0  0  0
   39.1720   28.1400   34.9090 H   0  0  0  0  0  0  0  0  0  0  0  0
   41.0720   26.6290   35.5840 H   0  0  0  0  0  0  0  0  0  0  0  0
   39.9500   25.2840   35.6430 H   0  0  0  0  0  0  0  0  0  0  0  0
   40.6610   24.7820   33.5730 H   0  0  0  0  0  0  0  0  0  0  0  0
   41.4650   26.3160   33.3710 H   0  0  0  0  0  0  0  0  0  0  0  0
   39.2660   25.4640   31.9730 H   0  0  0  0  0  0  0  0  0  0  0  0
   39.9860   27.4030   31.7660 C   0  0  0  0  0  2  0  0  0  0  0  0
   39.6590   27.3400   30.3220 C   0  0  0  0  0  2  0  0  0  0  0  0
   39.9990   28.3050   29.8850 H   0  0  0  0  0  0  0  0  0  0  0  0
   35.1120   20.4200   32.5460 C   0  0  0  0  0  0  0  0  0  0  0  0
   35.9840   19.6090   31.8130 C   0  0  0  0  0  0  0  0  0  0  0  0
   36.9000   20.2700   30.9960 C   0  0  0  0  0  0  0  0  0  0  0  0
   36.9000   21.6380   30.9540 N   0  0  0  0  0  0  0  0  0  0  0  0
   36.0400   22.3640   31.6790 C   0  0  0  0  0  0  0  0  0  0  0  0
   35.1360   21.7560   32.4840 N   0  0  0  0  0  0  0  0  0  0  0  0
   34.3870   19.9500   33.1900 H   0  0  0  0  0  0  0  0  0  0  0  0
   35.9700   18.5410   31.8590 H   0  0  0  0  0  0  0  0  0  0  0  0
   37.6220   19.7360   30.3860 H   0  0  0  0  0  0  0  0  0  0  0  0
  2  7  1  0  0  0  0
  2  1  1  0  0  0  0
  3 34  1  0  0  0  0
  3  2  2  0  0  0  0
  4  5  2  0  0  0  0
  4  3  1  0  0  0  0
  5  6  1  0  0  0  0
  6  7  2  0  0  0  0
  7 11  1  0  0  0  0
  8  4  1  0  0  0  0
  9  5  1  0  0  0  0
 10  6  1  0  0  0  0
 11 17  1  6  0  0  0
 11 12  1  0  0  0  0
 12 19  1  0  0  0  0
 12 18  1  0  0  0  0
 12 13  1  0  0  0  0
 13 20  1  0  0  0  0
 14 13  1  0  0  0  0
 14 22  1  0  0  0  0
 14 23  1  0  0  0  0
 15 14  1  0  0  0  0
 16 26  1  6  0  0  0
 16 11  1  0  0  0  0
 16 15  1  0  0  0  0
 21 13  1  0  0  0  0
 24 15  1  0  0  0  0
 25 15  1  0  0  0  0
 27 16  1  0  0  0  0
 28 27  1  0  0  0  0
 29 28  1  0  0  0  0
 30 36  1  0  0  0  0
 31 37  1  0  0  0  0
 31 30  2  0  0  0  0
 32 31  1  0  0  0  0
 33 32  2  0  0  0  0
 33 34  1  0  0  0  0
 34 35  2  0  0  0  0
 35 30  1  0  0  0  0
 38 32  1  0  0  0  0
M  END
>  <minimizedAffinity>
-5.23864412

$$$$

 OpenBabel03272500333D

 38 40  0  0  1  0  0  0  0  0999 V2000
   39.0280   26.2220   34.9640 Cl  0  0  0  0  0  0  0  0  0  0  0  0
   38.2320   25.1080   33.8840 C   0  0  0  0  0  0  0  0  0  0  0  0
   38.3550   23.7950   34.2500 C   0  0  0  0  0  0  0  0  0  0  0  0
   37.6930   22.8500   33.4680 C   0  0  0  0  0  0  0  0  0  0  0  0
   36.9580   23.2890   32.3830 C   0  0  0  0  0  0  0  0  0  0  0  0
   36.8930   24.6430   32.0940 C   0  0  0  0  0  0  0  0  0  0  0  0
   37.5200   25.5980   32.8230 C   0  0  0  0  0  0  0  0  0  0  0  0
   37.7540   21.7970   33.7070 H   0  0  0  0  0  0  0  0  0  0  0  0
   36.4340   22.5610   31.7620 H   0  0  0  0  0  0  0  0  0  0  0  0
   36.2930   24.8990   31.2290 H   0  0  0  0  0  0  0  0  0  0  0  0
   37.5240   27.0460   32.4640 C   0  0  1  0  0  0  0  0  0  0  0  0
   37.8890   27.2200   31.0670 C   0  0  0  0  0  0  0  0  0  0  0  0
   37.8170   28.7380   30.8800 C   0  0  0  0  0  0  0  0  0  0  0  0
   36.3120   28.9800   30.7760 C   0  0  0  0  0  0  0  0  0  0  0  0
   35.5460   28.5100   31.9360 C   0  0  0  0  0  0  0  0  0  0  0  0
   36.2550   27.7200   32.9530 C   0  0  2  0  0  0  0  0  0  0  0  0
   38.2610   27.4900   33.1650 H   0  0  0  0  0  0  0  0  0  0  0  0
   37.2220   27.1020   30.2300 H   0  0  0  0  0  0  0  0  0  0  0  0
   38.9400   26.9310   30.8720 H   0  0  0  0  0  0  0  0  0  0  0  0
   38.2470   29.0090   29.8880 H   0  0  0  0  0  0  0  0  0  0  0  0
   38.3130   29.2780   31.6690 H   0  0  0  0  0  0  0  0  0  0  0  0
   36.2040   30.0270   30.5130 H   0  0  0  0  0  0  0  0  0  0  0  0
   36.0360   28.4230   29.8300 H   0  0  0  0  0  0  0  0  0  0  0  0
   34.6210   28.0040   31.5220 H   0  0  0  0  0  0  0  0  0  0  0  0
   35.0890   29.4360   32.3980 H   0  0  0  0  0  0  0  0  0  0  0  0
   35.5560   26.8520   33.1870 H   0  0  0  0  0  0  0  0  0  0  0  0
   36.3580   28.4570   34.2370 C   0  0  0  0  0  2  0  0  0  0  0  0
   35.5930   29.7160   34.3900 C   0  0  0  0  0  2  0  0  0  0  0  0
   35.6580   29.9890   35.4670 H   0  0  0  0  0  0  0  0  0  0  0  0
   41.1280   22.6050   36.3100 C   0  0  0  0  0  0  0  0  0  0  0  0
   40.6150   22.5730   37.6110 C   0  0  0  0  0  0  0  0  0  0  0  0
   39.2900   22.9790   37.7610 C   0  0  0  0  0  0  0  0  0  0  0  0
   38.5800   23.3760   36.6620 N   0  0  0  0  0  0  0  0  0  0  0  0
   39.1240   23.3870   35.4380 C   0  0  0  0  0  0  0  0  0  0  0  0
   40.4080   22.9990   35.2530 N   0  0  0  0  0  0  0  0  0  0  0  0
   42.1490   22.3000   36.1480 H   0  0  0  0  0  0  0  0  0  0  0  0
   41.1860   22.2580   38.4590 H   0  0  0  0  0  0  0  0  0  0  0  0
   38.7960   22.9920   38.7270 H   0  0  0  0  0  0  0  0  0  0  0  0
  2  3  1  0  0  0  0
  2  1  1  0  0  0  0
  3 34  1  0  0  0  0
  4  8  1  0  0  0  0
  4  3  2  0  0  0  0
  5  4  1  0  0  0  0
  6  5  2  0  0  0  0
  6  7  1  0  0  0  0
  7  2  2  0  0  0  0
  9  5  1  0  0  0  0
 10  6  1  0  0  0  0
 11  7  1  0  0  0  0
 11 16  1  0  0  0  0
 11 17  1  1  0  0  0
 12 11  1  0  0  0  0
 13 12  1  0  0  0  0
 13 21  1  0  0  0  0
 14 13  1  0  0  0  0
 14 15  1  0  0  0  0
 15 25  1  0  0  0  0
 15 16  1  0  0  0  0
 16 26  1  1  0  0  0
 16 27  1  0  0  0  0
 18 12  1  0  0  0  0
 19 12  1  0  0  0  0
 20 13  1  0  0  0  0
 22 14  1  0  0  0  0
 23 14  1  0  0  0  0
 24 15  1  0  0  0  0
 27 28  1  0  0  0  0
 28 29  1  0  0  0  0
 30 31  1  0  0  0  0
 31 32  2  0  0  0  0
 31 37  1  0  0  0  0
 32 38  1  0  0  0  0
 33 32  1  0  0  0  0
 34 33  2  0  0  0  0
 35 34  1  0  0  0  0
 35 30  2  0  0  0  0
 36 30  1  0  0  0  0
M  END
>  <minimizedAffinity>
-5.13523769

$$$$

 OpenBabel03272500333D

 38 40  0  0  1  0  0  0  0  0999 V2000
   36.7270   28.1580   34.6400 Cl  0  0  0  0  0  0  0  0  0  0  0  0
   36.4000   28.8300   33.0650 C   0  0  0  0  0  0  0  0  0  0  0  0
   35.6170   29.9510   33.0900 C   0  0  0  0  0  0  0  0  0  0  0  0
   35.3620   30.5790   31.8720 C   0  0  0  0  0  0  0  0  0  0  0  0
   35.9120   30.0400   30.7240 C   0  0  0  0  0  0  0  0  0  0  0  0
   36.6950   28.9000   30.8010 C   0  0  0  0  0  0  0  0  0  0  0  0
   36.9690   28.2530   31.9600 C   0  0  0  0  0  0  0  0  0  0  0  0
   34.7490   31.4690   31.8280 H   0  0  0  0  0  0  0  0  0  0  0  0
   35.7220   30.5220   29.7640 H   0  0  0  0  0  0  0  0  0  0  0  0
   37.0880   28.5480   29.8550 H   0  0  0  0  0  0  0  0  0  0  0  0
   37.7380   26.9770   32.0370 C   0  0  1  0  0  0  0  0  0  0  0  0
   39.0050   27.1910   32.7180 C   0  0  0  0  0  0  0  0  0  0  0  0
   39.6310   25.7930   32.7230 C   0  0  0  0  0  0  0  0  0  0  0  0
   38.8600   25.0970   33.8430 C   0  0  0  0  0  0  0  0  0  0  0  0
   37.4060   25.0710   33.6470 C   0  0  0  0  0  0  0  0  0  0  0  0
   36.8500   25.8490   32.5300 C   0  0  2  0  0  0  0  0  0  0  0  0
   37.8590   26.6770   30.9750 H   0  0  0  0  0  0  0  0  0  0  0  0
   39.1380   27.2360   33.7860 H   0  0  0  0  0  0  0  0  0  0  0  0
   39.6880   27.8370   32.1340 H   0  0  0  0  0  0  0  0  0  0  0  0
   40.6880   25.8630   33.0680 H   0  0  0  0  0  0  0  0  0  0  0  0
   39.5760   25.3100   31.7620 H   0  0  0  0  0  0  0  0  0  0  0  0
   39.3500   24.1390   33.9810 H   0  0  0  0  0  0  0  0  0  0  0  0
   39.1550   25.6970   34.7570 H   0  0  0  0  0  0  0  0  0  0  0  0
   36.9450   25.3150   34.6520 H   0  0  0  0  0  0  0  0  0  0  0  0
   37.1290   23.9790   33.5480 H   0  0  0  0  0  0  0  0  0  0  0  0
   35.9460   26.3830   32.9700 H   0  0  0  0  0  0  0  0  0  0  0  0
   36.2760   24.9640   31.4870 C   0  0  0  0  0  2  0  0  0  0  0  0
   34.9740   25.3340   30.8860 C   0  0  0  0  0  2  0  0  0  0  0  0
   34.8320   24.6580   30.0130 H   0  0  0  0  0  0  0  0  0  0  0  0
   33.2840   30.7110   35.7970 C   0  0  0  0  0  0  0  0  0  0  0  0
   34.0090   31.5280   36.6720 C   0  0  0  0  0  0  0  0  0  0  0  0
   35.3260   31.8040   36.3070 C   0  0  0  0  0  0  0  0  0  0  0  0
   35.8280   31.2790   35.1480 N   0  0  0  0  0  0  0  0  0  0  0  0
   35.0860   30.5020   34.3480 C   0  0  0  0  0  0  0  0  0  0  0  0
   33.8020   30.2120   34.6700 N   0  0  0  0  0  0  0  0  0  0  0  0
   32.2620   30.4720   36.0410 H   0  0  0  0  0  0  0  0  0  0  0  0
   33.6000   31.9300   37.5740 H   0  0  0  0  0  0  0  0  0  0  0  0
   35.9750   32.4270   36.9150 H   0  0  0  0  0  0  0  0  0  0  0  0
  2  3  1  0  0  0  0
  2  1  1  0  0  0  0
  3 34  1  0  0  0  0
  4  3  2  0  0  0  0
  5  6  2  0  0  0  0
  5  4  1  0  0  0  0
  6  7  1  0  0  0  0
  7 11  1  0  0  0  0
  7  2  2  0  0  0  0
  8  4  1  0  0  0  0
  9  5  1  0  0  0  0
 10  6  1  0  0  0  0
 11 17  1  6  0  0  0
 11 16  1  0  0  0  0
 11 12  1  0  0  0  0
 12 13  1  0  0  0  0
 12 18  1  0  0  0  0
 13 20  1  0  0  0  0
 13 14  1  0  0  0  0
 14 22  1  0  0  0  0
 14 23  1  0  0  0  0
 15 14  1  0  0  0  0
 15 24  1  0  0  0  0
 16 26  1  1  0  0  0
 16 15  1  0  0  0  0
 19 12  1  0  0  0  0
 21 13  1  0  0  0  0
 25 15  1  0  0  0  0
 27 16  1  0  0  0  0
 28 27  1  0  0  0  0
 29 28  1  0  0  0  0
 30 36  1  0  0  0  0
 30 31  1  0  0  0  0
 31 37  1  0  0  0  0
 32 31  2  0  0  0  0
 32 38  1  0  0  0  0
 33 32  1  0  0  0  0
 34 35  1  0  0  0  0
 34 33  2  0  0  0  0
 35 30  2  0  0  0  0
M  END
>  <minimizedAffinity>
-5.1257863

$$$$

 OpenBabel03272500333D

 38 40  0  0  1  0  0  0  0  0999 V2000
   38.6290   26.3470   35.0360 Cl  0  0  0  0  0  0  0  0  0  0  0  0
   38.1800   25.0640   33.9440 C   0  0  0  0  0  0  0  0  0  0  0  0
   38.1220   23.8300   34.5300 C   0  0  0  0  0  0  0  0  0  0  0  0
   37.7120   22.7630   33.7330 C   0  0  0  0  0  0  0  0  0  0  0  0
   37.3880   23.0130   32.4120 C   0  0  0  0  0  0  0  0  0  0  0  0
   37.4770   24.3010   31.9100 C   0  0  0  0  0  0  0  0  0  0  0  0
   37.8730   25.3680   32.6450 C   0  0  0  0  0  0  0  0  0  0  0  0
   37.6470   21.7630   34.1400 H   0  0  0  0  0  0  0  0  0  0  0  0
   37.0640   22.1870   31.7770 H   0  0  0  0  0  0  0  0  0  0  0  0
   37.2030   24.4070   30.8670 H   0  0  0  0  0  0  0  0  0  0  0  0
   38.0550   26.7400   32.0850 C   0  0  1  0  0  0  0  0  0  0  0  0
   38.8640   26.6890   30.8770 C   0  0  0  0  0  0  0  0  0  0  0  0
   38.9210   28.1560   30.4420 C   0  0  0  0  0  0  0  0  0  0  0  0
   37.5440   28.3600   29.8120 C   0  0  0  0  0  0  0  0  0  0  0  0
   36.4220   28.0750   30.7130 C   0  0  0  0  0  0  0  0  0  0  0  0
   36.7260   27.4680   32.0170 C   0  0  2  0  0  0  0  0  0  0  0  0
   38.5410   27.3000   32.9110 H   0  0  0  0  0  0  0  0  0  0  0  0
   38.5020   26.4290   29.8970 H   0  0  0  0  0  0  0  0  0  0  0  0
   39.9080   26.3850   31.0870 H   0  0  0  0  0  0  0  0  0  0  0  0
   39.6610   28.2680   29.6170 H   0  0  0  0  0  0  0  0  0  0  0  0
   39.1540   28.8220   31.2550 H   0  0  0  0  0  0  0  0  0  0  0  0
   37.5720   29.3490   29.3660 H   0  0  0  0  0  0  0  0  0  0  0  0
   37.5690   27.6530   28.9270 H   0  0  0  0  0  0  0  0  0  0  0  0
   35.6620   27.4970   30.1030 H   0  0  0  0  0  0  0  0  0  0  0  0
   35.8790   29.0570   30.8480 H   0  0  0  0  0  0  0  0  0  0  0  0
   35.9530   26.6410   32.1410 H   0  0  0  0  0  0  0  0  0  0  0  0
   36.4350   28.4050   33.1310 C   0  0  0  0  0  2  0  0  0  0  0  0
   35.2240   29.2520   33.0420 C   0  0  0  0  0  2  0  0  0  0  0  0
   35.0980   29.7190   34.0440 H   0  0  0  0  0  0  0  0  0  0  0  0
   39.9740   22.8930   37.5370 C   0  0  0  0  0  0  0  0  0  0  0  0
   39.1070   23.1860   38.5940 C   0  0  0  0  0  0  0  0  0  0  0  0
   37.8690   23.7230   38.2440 C   0  0  0  0  0  0  0  0  0  0  0  0
   37.5740   23.9280   36.9250 N   0  0  0  0  0  0  0  0  0  0  0  0
   38.4450   23.6280   35.9530 C   0  0  0  0  0  0  0  0  0  0  0  0
   39.6570   23.1050   36.2550 N   0  0  0  0  0  0  0  0  0  0  0  0
   40.9430   22.4760   37.7630 H   0  0  0  0  0  0  0  0  0  0  0  0
   39.3550   23.0180   39.6210 H   0  0  0  0  0  0  0  0  0  0  0  0
   37.1230   23.9860   38.9870 H   0  0  0  0  0  0  0  0  0  0  0  0
  2  3  1  0  0  0  0
  2  1  1  0  0  0  0
  3 34  1  0  0  0  0
  4  8  1  0  0  0  0
  4  3  2  0  0  0  0
  5  4  1  0  0  0  0
  6  5  2  0  0  0  0
  6  7  1  0  0  0  0
  7  2  2  0  0  0  0
  9  5  1  0  0  0  0
 10  6  1  0  0  0  0
 11  7  1  0  0  0  0
 11 17  1  1  0  0  0
 12 19  1  0  0  0  0
 12 11  1  0  0  0  0
 13 12  1  0  0  0  0
 13 21  1  0  0  0  0
 14 13  1  0  0  0  0
 14 15  1  0  0  0  0
 15 25  1  0  0  0  0
 15 16  1  0  0  0  0
 16 11  1  0  0  0  0
 16 26  1  1  0  0  0
 16 27  1  0  0  0  0
 18 12  1  0  0  0  0
 20 13  1  0  0  0  0
 22 14  1  0  0  0  0
 23 14  1  0  0  0  0
 24 15  1  0  0  0  0
 28 27  1  0  0  0  0
 28 29  1  0  0  0  0
 30 36  1  0  0  0  0
 30 31  1  0  0  0  0
 31 37  1  0  0  0  0
 32 31  2  0  0  0  0
 32 38  1  0  0  0  0
 33 32  1  0  0  0  0
 34 35  1  0  0  0  0
 34 33  2  0  0  0  0
 35 30  2  0  0  0  0
M  END
>  <minimizedAffinity>
-5.10942984

$$$$

 OpenBabel03272500333D

 38 40  0  0  1  0  0  0  0  0999 V2000
   37.2680   21.7490   35.1540 Cl  0  0  0  0  0  0  0  0  0  0  0  0
   37.7690   22.8500   33.8990 C   0  0  0  0  0  0  0  0  0  0  0  0
   37.3790   22.4760   32.6430 C   0  0  0  0  0  0  0  0  0  0  0  0
   37.6920   23.3390   31.5940 C   0  0  0  0  0  0  0  0  0  0  0  0
   38.3650   24.5100   31.8820 C   0  0  0  0  0  0  0  0  0  0  0  0
   38.7170   24.8030   33.1900 C   0  0  0  0  0  0  0  0  0  0  0  0
   38.4370   23.9950   34.2410 C   0  0  0  0  0  0  0  0  0  0  0  0
   37.4100   23.0960   30.5770 H   0  0  0  0  0  0  0  0  0  0  0  0
   38.6160   25.1960   31.0700 H   0  0  0  0  0  0  0  0  0  0  0  0
   39.2400   25.7420   33.3250 H   0  0  0  0  0  0  0  0  0  0  0  0
   38.8900   24.2640   35.6370 C   0  0  1  0  0  0  0  0  0  0  0  0
   37.7450   24.3730   36.5280 C   0  0  0  0  0  0  0  0  0  0  0  0
   38.3960   24.6210   37.8920 C   0  0  0  0  0  0  0  0  0  0  0  0
   38.8790   23.2230   38.2770 C   0  0  0  0  0  0  0  0  0  0  0  0
   39.7980   22.6170   37.3090 C   0  0  0  0  0  0  0  0  0  0  0  0
   40.0040   23.3110   36.0290 C   0  0  2  0  0  0  0  0  0  0  0  0
   39.4660   25.2100   35.5510 H   0  0  0  0  0  0  0  0  0  0  0  0
   37.2070   23.5440   36.9530 H   0  0  0  0  0  0  0  0  0  0  0  0
   37.1310   25.2680   36.3080 H   0  0  0  0  0  0  0  0  0  0  0  0
   37.6080   24.8940   38.6320 H   0  0  0  0  0  0  0  0  0  0  0  0
   39.1620   25.3760   37.8560 H   0  0  0  0  0  0  0  0  0  0  0  0
   39.2350   23.3110   39.2990 H   0  0  0  0  0  0  0  0  0  0  0  0
   37.9110   22.6420   38.3680 H   0  0  0  0  0  0  0  0  0  0  0  0
   39.4780   21.5350   37.1990 H   0  0  0  0  0  0  0  0  0  0  0  0
   40.7800   22.4900   37.8550 H   0  0  0  0  0  0  0  0  0  0  0  0
   39.9530   22.4900   35.2410 H   0  0  0  0  0  0  0  0  0  0  0  0
   41.3870   23.8370   35.9150 C   0  0  0  0  0  2  0  0  0  0  0  0
   42.4910   23.0570   36.5210 C   0  0  0  0  0  2  0  0  0  0  0  0
   43.4340   23.5200   36.1560 H   0  0  0  0  0  0  0  0  0  0  0  0
   34.5700   20.1890   32.1620 C   0  0  0  0  0  0  0  0  0  0  0  0
   35.1610   18.9340   31.9820 C   0  0  0  0  0  0  0  0  0  0  0  0
   36.5530   18.8970   32.0240 C   0  0  0  0  0  0  0  0  0  0  0  0
   37.2510   20.0550   32.2330 N   0  0  0  0  0  0  0  0  0  0  0  0
   36.6310   21.2310   32.3980 C   0  0  0  0  0  0  0  0  0  0  0  0
   35.2790   21.3050   32.3640 N   0  0  0  0  0  0  0  0  0  0  0  0
   33.4950   20.2640   32.1360 H   0  0  0  0  0  0  0  0  0  0  0  0
   34.5980   18.0390   31.8210 H   0  0  0  0  0  0  0  0  0  0  0  0
   37.1110   17.9750   31.8970 H   0  0  0  0  0  0  0  0  0  0  0  0
  2  7  1  0  0  0  0
  2  1  1  0  0  0  0
  3  2  2  0  0  0  0
  4  5  2  0  0  0  0
  4  3  1  0  0  0  0
  5  6  1  0  0  0  0
  6 10  1  0  0  0  0
  6  7  2  0  0  0  0
  7 11  1  0  0  0  0
  8  4  1  0  0  0  0
  9  5  1  0  0  0  0
 11 17  1  6  0  0  0
 11 16  1  0  0  0  0
 11 12  1  0  0  0  0
 12 18  1  0  0  0  0
 12 13  1  0  0  0  0
 13 14  1  0  0  0  0
 13 20  1  0  0  0  0
 14 23  1  0  0  0  0
 14 22  1  0  0  0  0
 15 25  1  0  0  0  0
 15 14  1  0  0  0  0
 16 26  1  6  0  0  0
 16 15  1  0  0  0  0
 19 12  1  0  0  0  0
 21 13  1  0  0  0  0
 24 15  1  0  0  0  0
 27 16  1  0  0  0  0
 27 28  1  0  0  0  0
 29 28  1  0  0  0  0
 30 35  1  0  0  0  0
 31 32  1  0  0  0  0
 31 30  2  0  0  0  0
 32 33  2  0  0  0  0
 33 34  1  0  0  0  0
 34  3  1  0  0  0  0
 35 34  2  0  0  0  0
 36 30  1  0  0  0  0
 37 31  1  0  0  0  0
 38 32  1  0  0  0  0
M  END
>  <minimizedAffinity>
-5.10018873

$$$$

 OpenBabel03272500333D

 38 40  0  0  1  0  0  0  0  0999 V2000
   35.2070   29.0750   34.1400 Cl  0  0  0  0  0  0  0  0  0  0  0  0
   35.8620   29.9970   32.8120 C   0  0  0  0  0  0  0  0  0  0  0  0
   36.4680   29.2340   31.8520 C   0  0  0  0  0  0  0  0  0  0  0  0
   36.9630   29.8960   30.7300 C   0  0  0  0  0  0  0  0  0  0  0  0
   36.8100   31.2680   30.6520 C   0  0  0  0  0  0  0  0  0  0  0  0
   36.1790   31.9530   31.6770 C   0  0  0  0  0  0  0  0  0  0  0  0
   35.6840   31.3540   32.7880 C   0  0  0  0  0  0  0  0  0  0  0  0
   37.4540   29.3470   29.9370 H   0  0  0  0  0  0  0  0  0  0  0  0
   37.1920   31.7990   29.7780 H   0  0  0  0  0  0  0  0  0  0  0  0
   36.1000   33.0230   31.5330 H   0  0  0  0  0  0  0  0  0  0  0  0
   35.0820   32.0980   33.9330 C   0  0  1  0  0  0  0  0  0  0  0  0
   33.7160   31.6530   34.1630 C   0  0  0  0  0  0  0  0  0  0  0  0
   33.2810   32.4940   35.3660 C   0  0  0  0  0  0  0  0  0  0  0  0
   33.9740   31.7800   36.5260 C   0  0  0  0  0  0  0  0  0  0  0  0
   35.4310   31.6890   36.3920 C   0  0  0  0  0  0  0  0  0  0  0  0
   36.0310   32.1110   35.1170 C   0  0  2  0  0  0  0  0  0  0  0  0
   35.1470   33.1610   33.6210 H   0  0  0  0  0  0  0  0  0  0  0  0
   33.4340   30.7650   34.7010 H   0  0  0  0  0  0  0  0  0  0  0  0
   33.0430   31.9290   33.3290 H   0  0  0  0  0  0  0  0  0  0  0  0
   32.1860   32.3650   35.5290 H   0  0  0  0  0  0  0  0  0  0  0  0
   33.5290   33.5360   35.2570 H   0  0  0  0  0  0  0  0  0  0  0  0
   33.5960   32.2560   37.4260 H   0  0  0  0  0  0  0  0  0  0  0  0
   33.4810   30.7610   36.5200 H   0  0  0  0  0  0  0  0  0  0  0  0
   35.7150   30.6390   36.7080 H   0  0  0  0  0  0  0  0  0  0  0  0
   35.8570   32.2890   37.2500 H   0  0  0  0  0  0  0  0  0  0  0  0
   36.7910   31.2990   34.8700 H   0  0  0  0  0  0  0  0  0  0  0  0
   36.8520   33.3360   35.2850 C   0  0  0  0  0  2  0  0  0  0  0  0
   36.3560   34.6030   34.7010 C   0  0  0  0  0  2  0  0  0  0  0  0
   37.0100   35.4080   35.1050 H   0  0  0  0  0  0  0  0  0  0  0  0
   35.7290   25.6860   31.3940 C   0  0  0  0  0  0  0  0  0  0  0  0
   36.6810   25.0210   32.1750 C   0  0  0  0  0  0  0  0  0  0  0  0
   37.5880   25.8280   32.8590 C   0  0  0  0  0  0  0  0  0  0  0  0
   37.5060   27.1880   32.7350 N   0  0  0  0  0  0  0  0  0  0  0  0
   36.5720   27.7700   31.9710 C   0  0  0  0  0  0  0  0  0  0  0  0
   35.6730   27.0180   31.2930 N   0  0  0  0  0  0  0  0  0  0  0  0
   35.0080   25.1000   30.8480 H   0  0  0  0  0  0  0  0  0  0  0  0
   36.7290   23.9560   32.2600 H   0  0  0  0  0  0  0  0  0  0  0  0
   38.3660   25.4140   33.4930 H   0  0  0  0  0  0  0  0  0  0  0  0
  2  1  1  0  0  0  0
  3 34  1  0  0  0  0
  3  2  2  0  0  0  0
  4  3  1  0  0  0  0
  5  4  2  0  0  0  0
  5  6  1  0  0  0  0
  6  7  2  0  0  0  0
  7  2  1  0  0  0  0
  7 11  1  0  0  0  0
  8  4  1  0  0  0  0
  9  5  1  0  0  0  0
 10  6  1  0  0  0  0
 11 17  1  6  0  0  0
 11 12  1  0  0  0  0
 11 16  1  0  0  0  0
 12 18  1  0  0  0  0
 12 13  1  0  0  0  0
 13 20  1  0  0  0  0
 13 14  1  0  0  0  0
 14 22  1  0  0  0  0
 15 14  1  0  0  0  0
 15 24  1  0  0  0  0
 15 25  1  0  0  0  0
 16 26  1  6  0  0  0
 16 27  1  0  0  0  0
 16 15  1  0  0  0  0
 19 12  1  0  0  0  0
 21 13  1  0  0  0  0
 23 14  1  0  0  0  0
 28 29  1  0  0  0  0
 28 27  1  0  0  0  0
 30 31  1  0  0  0  0
 31 37  1  0  0  0  0
 31 32  2  0  0  0  0
 32 38  1  0  0  0  0
 33 32  1  0  0  0  0
 34 33  2  0  0  0  0
 35 30  2  0  0  0  0
 35 34  1  0  0  0  0
 36 30  1  0  0  0  0
M  END
>  <minimizedAffinity>
-5.06240511

$$$$

 OpenBabel03272500333D

 38 40  0  0  1  0  0  0  0  0999 V2000
   36.4600   27.9850   34.4470 Cl  0  0  0  0  0  0  0  0  0  0  0  0
   36.0890   29.1030   33.1610 C   0  0  0  0  0  0  0  0  0  0  0  0
   36.5730   28.7240   31.9390 C   0  0  0  0  0  0  0  0  0  0  0  0
   36.2640   29.5380   30.8500 C   0  0  0  0  0  0  0  0  0  0  0  0
   35.4930   30.6650   31.0660 C   0  0  0  0  0  0  0  0  0  0  0  0
   35.0480   30.9640   32.3440 C   0  0  0  0  0  0  0  0  0  0  0  0
   35.3240   30.2050   33.4320 C   0  0  0  0  0  0  0  0  0  0  0  0
   36.6200   29.2910   29.8590 H   0  0  0  0  0  0  0  0  0  0  0  0
   35.2430   31.3100   30.2230 H   0  0  0  0  0  0  0  0  0  0  0  0
   34.4480   31.8620   32.4220 H   0  0  0  0  0  0  0  0  0  0  0  0
   34.9210   30.5700   34.8220 C   0  0  1  0  0  0  0  0  0  0  0  0
   35.7330   31.6730   35.3110 C   0  0  0  0  0  0  0  0  0  0  0  0
   35.1690   31.9180   36.7130 C   0  0  0  0  0  0  0  0  0  0  0  0
   33.8750   32.6740   36.4130 C   0  0  0  0  0  0  0  0  0  0  0  0
   32.9440   31.9510   35.5420 C   0  0  0  0  0  0  0  0  0  0  0  0
   33.4120   30.7030   34.9210 C   0  0  2  0  0  0  0  0  0  0  0  0
   35.0700   29.6310   35.3960 H   0  0  0  0  0  0  0  0  0  0  0  0
   35.5730   32.7130   35.0820 H   0  0  0  0  0  0  0  0  0  0  0  0
   36.7920   31.3820   35.4470 H   0  0  0  0  0  0  0  0  0  0  0  0
   35.8290   32.6320   37.2570 H   0  0  0  0  0  0  0  0  0  0  0  0
   35.0470   31.0090   37.2770 H   0  0  0  0  0  0  0  0  0  0  0  0
   33.4940   32.9900   37.3790 H   0  0  0  0  0  0  0  0  0  0  0  0
   34.2520   33.6290   35.9350 H   0  0  0  0  0  0  0  0  0  0  0  0
   32.5440   32.7100   34.8020 H   0  0  0  0  0  0  0  0  0  0  0  0
   32.0210   31.7620   36.1680 H   0  0  0  0  0  0  0  0  0  0  0  0
   33.0700   30.7710   33.8370 H   0  0  0  0  0  0  0  0  0  0  0  0
   32.6850   29.5250   35.4570 C   0  0  0  0  0  2  0  0  0  0  0  0
   31.8670   29.6980   36.6800 C   0  0  0  0  0  2  0  0  0  0  0  0
   31.2700   28.7650   36.7870 H   0  0  0  0  0  0  0  0  0  0  0  0
   37.3820   25.2270   31.2550 C   0  0  0  0  0  0  0  0  0  0  0  0
   38.7650   25.1390   31.4440 C   0  0  0  0  0  0  0  0  0  0  0  0
   39.4130   26.3180   31.8080 C   0  0  0  0  0  0  0  0  0  0  0  0
   38.6860   27.4680   31.9560 N   0  0  0  0  0  0  0  0  0  0  0  0
   37.3610   27.4930   31.7610 C   0  0  0  0  0  0  0  0  0  0  0  0
   36.6980   26.3660   31.4070 N   0  0  0  0  0  0  0  0  0  0  0  0
   36.8410   24.3390   30.9720 H   0  0  0  0  0  0  0  0  0  0  0  0
   39.3170   24.2310   31.3250 H   0  0  0  0  0  0  0  0  0  0  0  0
   40.4840   26.3600   31.9800 H   0  0  0  0  0  0  0  0  0  0  0  0
  2  7  1  0  0  0  0
  2  1  1  0  0  0  0
  3  2  2  0  0  0  0
  4  5  2  0  0  0  0
  4  3  1  0  0  0  0
  5  6  1  0  0  0  0
  6 10  1  0  0  0  0
  6  7  2  0  0  0  0
  7 11  1  0  0  0  0
  8  4  1  0  0  0  0
  9  5  1  0  0  0  0
 11 16  1  0  0  0  0
 11 12  1  0  0  0  0
 11 17  1  1  0  0  0
 12 19  1  0  0  0  0
 12 13  1  0  0  0  0
 13 20  1  0  0  0  0
 13 21  1  0  0  0  0
 14 13  1  0  0  0  0
 14 22  1  0  0  0  0
 15 25  1  0  0  0  0
 15 14  1  0  0  0  0
 16 26  1  6  0  0  0
 16 27  1  0  0  0  0
 16 15  1  0  0  0  0
 18 12  1  0  0  0  0
 23 14  1  0  0  0  0
 24 15  1  0  0  0  0
 27 28  1  0  0  0  0
 28 29  1  0  0  0  0
 30 35  2  0  0  0  0
 30 31  1  0  0  0  0
 31 32  2  0  0  0  0
 32 33  1  0  0  0  0
 32 38  1  0  0  0  0
 34  3  1  0  0  0  0
 34 33  2  0  0  0  0
 35 34  1  0  0  0  0
 36 30  1  0  0  0  0
 37 31  1  0  0  0  0
M  END
>  <minimizedAffinity>
-5.0593152

$$$$

 OpenBabel03272500333D

 38 40  0  0  1  0  0  0  0  0999 V2000
   36.5200   28.2070   34.8550 Cl  0  0  0  0  0  0  0  0  0  0  0  0
   36.1920   28.8620   33.2730 C   0  0  0  0  0  0  0  0  0  0  0  0
   35.5010   30.0430   33.2930 C   0  0  0  0  0  0  0  0  0  0  0  0
   35.2540   30.6580   32.0670 C   0  0  0  0  0  0  0  0  0  0  0  0
   35.7190   30.0480   30.9170 C   0  0  0  0  0  0  0  0  0  0  0  0
   36.4120   28.8510   31.0000 C   0  0  0  0  0  0  0  0  0  0  0  0
   36.6740   28.2150   32.1680 C   0  0  0  0  0  0  0  0  0  0  0  0
   34.7110   31.5930   32.0180 H   0  0  0  0  0  0  0  0  0  0  0  0
   35.5340   30.5190   29.9500 H   0  0  0  0  0  0  0  0  0  0  0  0
   36.7420   28.4450   30.0520 H   0  0  0  0  0  0  0  0  0  0  0  0
   37.3420   26.8830   32.2550 C   0  0  1  0  0  0  0  0  0  0  0  0
   36.4090   25.8250   31.9000 C   0  0  0  0  0  0  0  0  0  0  0  0
   37.2640   24.5600   32.0220 C   0  0  0  0  0  0  0  0  0  0  0  0
   38.0900   24.6050   30.7370 C   0  0  0  0  0  0  0  0  0  0  0  0
   38.8920   25.8230   30.5790 C   0  0  0  0  0  0  0  0  0  0  0  0
   38.6830   26.9130   31.5440 C   0  0  2  0  0  0  0  0  0  0  0  0
   37.6840   26.8280   33.3100 H   0  0  0  0  0  0  0  0  0  0  0  0
   36.1500   25.5340   30.8970 H   0  0  0  0  0  0  0  0  0  0  0  0
   35.5940   25.7230   32.6430 H   0  0  0  0  0  0  0  0  0  0  0  0
   36.6080   23.6630   31.9410 H   0  0  0  0  0  0  0  0  0  0  0  0
   37.8370   24.5320   32.9330 H   0  0  0  0  0  0  0  0  0  0  0  0
   38.6250   23.6610   30.7040 H   0  0  0  0  0  0  0  0  0  0  0  0
   37.3010   24.5080   29.9310 H   0  0  0  0  0  0  0  0  0  0  0  0
   38.7820   26.1390   29.4970 H   0  0  0  0  0  0  0  0  0  0  0  0
   39.9710   25.4840   30.5900 H   0  0  0  0  0  0  0  0  0  0  0  0
   38.6370   27.8580   30.9110 H   0  0  0  0  0  0  0  0  0  0  0  0
   39.8760   27.1110   32.4040 C   0  0  0  0  0  2  0  0  0  0  0  0
   39.7580   26.8210   33.8520 C   0  0  0  0  0  2  0  0  0  0  0  0
   40.7930   26.8460   34.2590 H   0  0  0  0  0  0  0  0  0  0  0  0
   33.3520   30.9940   36.0910 C   0  0  0  0  0  0  0  0  0  0  0  0
   34.1490   31.8280   36.8830 C   0  0  0  0  0  0  0  0  0  0  0  0
   35.4490   32.0480   36.4310 C   0  0  0  0  0  0  0  0  0  0  0  0
   35.8670   31.4560   35.2700 N   0  0  0  0  0  0  0  0  0  0  0  0
   35.0590   30.6660   34.5520 C   0  0  0  0  0  0  0  0  0  0  0  0
   33.7890   30.4290   34.9600 N   0  0  0  0  0  0  0  0  0  0  0  0
   32.3400   30.7960   36.4030 H   0  0  0  0  0  0  0  0  0  0  0  0
   33.8040   32.2830   37.7870 H   0  0  0  0  0  0  0  0  0  0  0  0
   36.1490   32.6790   36.9700 H   0  0  0  0  0  0  0  0  0  0  0  0
  2  3  1  0  0  0  0
  2  1  1  0  0  0  0
  3 34  1  0  0  0  0
  4  3  2  0  0  0  0
  5  6  2  0  0  0  0
  5  4  1  0  0  0  0
  6  7  1  0  0  0  0
  7 11  1  0  0  0  0
  7  2  2  0  0  0  0
  8  4  1  0  0  0  0
  9  5  1  0  0  0  0
 10  6  1  0  0  0  0
 11 17  1  1  0  0  0
 12 13  1  0  0  0  0
 12 11  1  0  0  0  0
 12 19  1  0  0  0  0
 13 21  1  0  0  0  0
 14 13  1  0  0  0  0
 15 25  1  0  0  0  0
 15 14  1  0  0  0  0
 15 16  1  0  0  0  0
 16 26  1  6  0  0  0
 16 11  1  0  0  0  0
 16 27  1  0  0  0  0
 18 12  1  0  0  0  0
 20 13  1  0  0  0  0
 22 14  1  0  0  0  0
 23 14  1  0  0  0  0
 24 15  1  0  0  0  0
 27 28  1  0  0  0  0
 28 29  1  0  0  0  0
 30 36  1  0  0  0  0
 30 31  1  0  0  0  0
 31 37  1  0  0  0  0
 32 31  2  0  0  0  0
 32 38  1  0  0  0  0
 33 32  1  0  0  0  0
 34 35  1  0  0  0  0
 34 33  2  0  0  0  0
 35 30  2  0  0  0  0
M  END
>  <minimizedAffinity>
-5.03967524

$$$$
