
 OpenBabel03272509493D

 27 28  0  0  0  0  0  0  0  0999 V2000
   33.7250   28.6030   48.6920 C   0  0  0  0  0  0  0  0  0  0  0  0
   34.2950   28.9180   47.7770 H   0  0  0  0  0  0  0  0  0  0  0  0
   33.1060   29.4280   49.1090 H   0  0  0  0  0  0  0  0  0  0  0  0
   32.8070   27.4590   48.3450 C   0  0  0  0  0  0  0  0  0  0  0  0
   33.0960   27.0490   47.3380 H   0  0  0  0  0  0  0  0  0  0  0  0
   32.9530   26.6310   49.0780 H   0  0  0  0  0  0  0  0  0  0  0  0
   31.3820   27.8590   48.3500 C   0  0  0  0  0  0  0  0  0  0  0  0
   30.6950   27.7300   49.5420 C   0  0  0  0  0  0  0  0  0  0  0  0
   29.3680   28.0750   49.6480 C   0  0  0  0  0  0  0  0  0  0  0  0
   28.7040   28.5480   48.5860 N   0  0  0  0  0  0  0  0  0  0  0  0
   29.3900   28.6720   47.4160 C   0  0  0  0  0  0  0  0  0  0  0  0
   30.6830   28.3430   47.2910 N   0  0  0  0  0  0  0  0  0  0  0  0
   31.1180   27.3590   50.4700 H   0  0  0  0  0  0  0  0  0  0  0  0
   28.7860   27.9920   50.5560 H   0  0  0  0  0  0  0  0  0  0  0  0
   29.0130   29.0370   46.4610 H   0  0  0  0  0  0  0  0  0  0  0  0
   34.6160   28.2050   49.7270 O   0  0  0  0  0  0  0  0  0  0  0  0
   37.2180   30.1710   51.3110 C   0  0  0  0  0  0  0  0  0  0  0  0
   37.8990   30.6380   50.1630 C   0  0  0  0  0  0  0  0  0  0  0  0
   37.4130   30.2430   48.9220 C   0  0  0  0  0  0  0  0  0  0  0  0
   36.3170   29.4330   48.8820 N   0  0  0  0  0  0  0  0  0  0  0  0
   35.6940   29.0080   49.9990 C   0  0  0  0  0  0  0  0  0  0  0  0
   36.1590   29.3860   51.2000 N   0  0  0  0  0  0  0  0  0  0  0  0
   37.6210   30.4960   52.2610 H   0  0  0  0  0  0  0  0  0  0  0  0
   38.7750   31.2840   50.1640 H   0  0  0  0  0  0  0  0  0  0  0  0
   38.0730   30.6920   47.6460 C   0  0  0  0  0  2  0  0  0  0  0  0
   38.7670   32.0200   47.8040 C   0  0  0  0  0  2  0  0  0  0  0  0
   38.1290   32.8750   47.5150 H   0  0  0  0  0  0  0  0  0  0  0  0
  1  3  1  0  0  0  0
  1 16  1  0  0  0  0
  2  1  1  0  0  0  0
  4  7  1  0  0  0  0
  4  1  1  0  0  0  0
  4  6  1  0  0  0  0
  5  4  1  0  0  0  0
  7  8  1  0  0  0  0
  8  9  2  0  0  0  0
  8 13  1  0  0  0  0
  9 14  1  0  0  0  0
 10  9  1  0  0  0  0
 11 10  2  0  0  0  0
 12 11  1  0  0  0  0
 12  7  2  0  0  0  0
 15 11  1  0  0  0  0
 16 21  1  0  0  0  0
 17 23  1  0  0  0  0
 18 24  1  0  0  0  0
 18 17  2  0  0  0  0
 19 18  1  0  0  0  0
 20 19  2  0  0  0  0
 20 21  1  0  0  0  0
 21 22  2  0  0  0  0
 22 17  1  0  0  0  0
 25 26  1  0  0  0  0
 25 19  1  0  0  0  0
 27 26  1  0  0  0  0
M  END
>  <minimizedAffinity>
-4.96767998

>  <minimizedRMSD>
0.106757134

$$$$
