
 OpenBabel03272504353D

 37 39  0  0  0  0  0  0  0  0999 V2000
   33.7270   28.5050   47.5370 C   0  0  0  0  0  0  0  0  0  0  0  0
   33.8780   28.2840   46.1790 C   0  0  0  0  0  0  0  0  0  0  0  0
   32.7620   27.9680   45.4100 C   0  0  0  0  0  0  0  0  0  0  0  0
   31.5600   27.8930   46.0510 N   0  0  0  0  0  0  0  0  0  0  0  0
   31.4510   28.1190   47.3990 C   0  0  0  0  0  0  0  0  0  0  0  0
   32.5250   28.4210   48.1300 N   0  0  0  0  0  0  0  0  0  0  0  0
   34.8470   28.3550   45.7260 H   0  0  0  0  0  0  0  0  0  0  0  0
   32.8300   27.7880   44.3500 H   0  0  0  0  0  0  0  0  0  0  0  0
   34.8420   28.8320   48.3730 N   0  0  0  0  0  0  0  0  0  0  0  0
   34.9630   28.3200   49.7300 C   0  0  0  0  0  0  0  0  0  0  0  0
   35.3990   29.3200   50.7420 C   0  0  0  0  0  0  0  0  0  0  0  0
   36.1820   30.4040   50.3100 N   0  0  0  0  0  0  0  0  0  0  0  0
   35.8390   30.8730   48.9790 C   0  0  0  0  0  0  0  0  0  0  0  0
   35.9500   29.6440   48.0760 C   0  0  0  0  0  0  0  0  0  0  0  0
   35.6210   27.4140   49.6570 H   0  0  0  0  0  0  0  0  0  0  0  0
   33.9550   27.9370   50.0100 H   0  0  0  0  0  0  0  0  0  0  0  0
   36.0030   28.7580   51.5110 H   0  0  0  0  0  0  0  0  0  0  0  0
   34.5210   29.7160   51.2950 H   0  0  0  0  0  0  0  0  0  0  0  0
   36.0370   31.2320   50.9410 H   0  0  0  0  0  0  0  0  0  0  0  0
   36.5830   31.6090   48.6350 H   0  0  0  0  0  0  0  0  0  0  0  0
   34.7980   31.2640   48.9350 H   0  0  0  0  0  0  0  0  0  0  0  0
   36.9420   29.1990   48.2880 H   0  0  0  0  0  0  0  0  0  0  0  0
   35.9490   30.0450   47.0250 H   0  0  0  0  0  0  0  0  0  0  0  0
   30.1410   28.0250   48.0210 C   0  0  0  0  0  0  0  0  0  0  0  0
   30.0170   27.5690   49.3040 C   0  0  0  0  0  0  0  0  0  0  0  0
   28.8000   27.4580   49.9470 C   0  0  0  0  0  0  0  0  0  0  0  0
   27.7120   27.8340   49.2110 N   0  0  0  0  0  0  0  0  0  0  0  0
   27.8350   28.2770   47.9620 C   0  0  0  0  0  0  0  0  0  0  0  0
   29.0440   28.3800   47.3460 N   0  0  0  0  0  0  0  0  0  0  0  0
   30.8940   27.2860   49.8380 H   0  0  0  0  0  0  0  0  0  0  0  0
   26.6230   28.6710   47.2130 C   0  0  0  0  0  0  0  0  0  0  0  0
   26.7160   29.9710   46.7530 F   0  0  0  0  0  0  0  0  0  0  0  0
   25.5270   28.5810   48.0710 F   0  0  0  0  0  0  0  0  0  0  0  0
   26.4020   27.7760   46.1890 F   0  0  0  0  0  0  0  0  0  0  0  0
   28.6010   26.9790   51.3180 C   0  0  0  0  0  0  0  0  0  0  0  0
   27.1700   27.0010   51.7590 C   0  0  0  0  0  0  0  0  0  0  0  0
   27.0930   26.3810   52.7000 H   0  0  0  0  0  0  0  0  0  0  0  0
  1  6  1  0  0  0  0
  1  9  1  0  0  0  0
  2  1  2  0  0  0  0
  3  4  2  0  0  0  0
  3  2  1  0  0  0  0
  4  5  1  0  0  0  0
  5 24  1  0  0  0  0
  5  6  2  0  0  0  0
  7  2  1  0  0  0  0
  8  3  1  0  0  0  0
  9 10  1  0  0  0  0
 10 16  1  0  0  0  0
 10 11  1  0  0  0  0
 11 18  1  0  0  0  0
 11 17  1  0  0  0  0
 12 11  1  0  0  0  0
 12 19  1  0  0  0  0
 13 12  1  0  0  0  0
 14 22  1  0  0  0  0
 14  9  1  0  0  0  0
 14 13  1  0  0  0  0
 15 10  1  0  0  0  0
 20 13  1  0  0  0  0
 21 13  1  0  0  0  0
 23 14  1  0  0  0  0
 24 25  1  0  0  0  0
 25 30  1  0  0  0  0
 25 26  2  0  0  0  0
 26 35  1  0  0  0  0
 27 26  1  0  0  0  0
 28 27  2  0  0  0  0
 29 28  1  0  0  0  0
 29 24  2  0  0  0  0
 31 28  1  0  0  0  0
 31 33  1  0  0  0  0
 32 31  1  0  0  0  0
 34 31  1  0  0  0  0
 35 36  1  0  0  0  0
 36 37  1  0  0  0  0
M  END
>  <minimizedAffinity>
-5.67980909

>  <minimizedRMSD>
1.79354513

$$$$
