
 OpenBabel03272509493D

 27 28  0  0  0  0  0  0  0  0999 V2000
   33.7220   28.6040   48.6960 C   0  0  0  0  0  0  0  0  0  0  0  0
   34.2880   28.9260   47.7810 H   0  0  0  0  0  0  0  0  0  0  0  0
   33.1030   29.4260   49.1200 H   0  0  0  0  0  0  0  0  0  0  0  0
   32.8050   27.4600   48.3460 C   0  0  0  0  0  0  0  0  0  0  0  0
   33.0950   27.0520   47.3390 H   0  0  0  0  0  0  0  0  0  0  0  0
   32.9510   26.6310   49.0780 H   0  0  0  0  0  0  0  0  0  0  0  0
   31.3800   27.8600   48.3510 C   0  0  0  0  0  0  0  0  0  0  0  0
   30.6930   27.7300   49.5430 C   0  0  0  0  0  0  0  0  0  0  0  0
   29.3650   28.0740   49.6490 C   0  0  0  0  0  0  0  0  0  0  0  0
   28.7010   28.5470   48.5860 N   0  0  0  0  0  0  0  0  0  0  0  0
   29.3880   28.6720   47.4170 C   0  0  0  0  0  0  0  0  0  0  0  0
   30.6810   28.3430   47.2920 N   0  0  0  0  0  0  0  0  0  0  0  0
   31.1160   27.3600   50.4710 H   0  0  0  0  0  0  0  0  0  0  0  0
   28.7830   27.9910   50.5560 H   0  0  0  0  0  0  0  0  0  0  0  0
   29.0100   29.0360   46.4620 H   0  0  0  0  0  0  0  0  0  0  0  0
   34.6190   28.2020   49.7240 O   0  0  0  0  0  0  0  0  0  0  0  0
   37.2170   30.1720   51.3100 C   0  0  0  0  0  0  0  0  0  0  0  0
   37.8980   30.6400   50.1630 C   0  0  0  0  0  0  0  0  0  0  0  0
   37.4140   30.2440   48.9220 C   0  0  0  0  0  0  0  0  0  0  0  0
   36.3180   29.4330   48.8810 N   0  0  0  0  0  0  0  0  0  0  0  0
   35.6960   29.0070   49.9970 C   0  0  0  0  0  0  0  0  0  0  0  0
   36.1590   29.3860   51.1980 N   0  0  0  0  0  0  0  0  0  0  0  0
   37.6180   30.4970   52.2610 H   0  0  0  0  0  0  0  0  0  0  0  0
   38.7730   31.2870   50.1650 H   0  0  0  0  0  0  0  0  0  0  0  0
   38.0740   30.6930   47.6470 C   0  0  0  0  0  2  0  0  0  0  0  0
   38.7670   32.0210   47.8040 C   0  0  0  0  0  2  0  0  0  0  0  0
   38.1290   32.8760   47.5160 H   0  0  0  0  0  0  0  0  0  0  0  0
  1  3  1  0  0  0  0
  1 16  1  0  0  0  0
  2  1  1  0  0  0  0
  4  7  1  0  0  0  0
  4  1  1  0  0  0  0
  4  6  1  0  0  0  0
  5  4  1  0  0  0  0
  7  8  1  0  0  0  0
  8  9  2  0  0  0  0
  8 13  1  0  0  0  0
  9 14  1  0  0  0  0
 10  9  1  0  0  0  0
 11 10  2  0  0  0  0
 12 11  1  0  0  0  0
 12  7  2  0  0  0  0
 15 11  1  0  0  0  0
 16 21  1  0  0  0  0
 17 23  1  0  0  0  0
 18 24  1  0  0  0  0
 18 17  2  0  0  0  0
 19 18  1  0  0  0  0
 20 19  2  0  0  0  0
 20 21  1  0  0  0  0
 21 22  2  0  0  0  0
 22 17  1  0  0  0  0
 25 26  1  0  0  0  0
 25 19  1  0  0  0  0
 27 26  1  0  0  0  0
M  END
>  <minimizedAffinity>
-4.96742773

>  <minimizedRMSD>
0.073761344

$$$$
