
 OpenBabel03272507443D

 27 28  0  0  0  0  0  0  0  0999 V2000
   36.9560   30.6390   48.4150 N   0  0  0  0  0  0  0  0  0  0  0  0
   35.9290   30.3980   47.4370 C   0  0  0  0  0  0  0  0  0  0  0  0
   34.5850   30.0740   47.9110 C   0  0  0  0  0  0  0  0  0  0  0  0
   34.4370   29.4290   49.2410 C   0  0  0  0  0  0  0  0  0  0  0  0
   35.6090   29.6390   50.1700 C   0  0  0  0  0  0  0  0  0  0  0  0
   36.9100   29.5700   49.3650 C   0  0  0  0  0  0  0  0  0  0  0  0
   36.3140   29.5410   46.8120 H   0  0  0  0  0  0  0  0  0  0  0  0
   35.9000   31.2490   46.7170 H   0  0  0  0  0  0  0  0  0  0  0  0
   34.0900   29.4000   47.1530 H   0  0  0  0  0  0  0  0  0  0  0  0
   33.9620   31.0080   47.8450 H   0  0  0  0  0  0  0  0  0  0  0  0
   33.5690   29.9130   49.7770 H   0  0  0  0  0  0  0  0  0  0  0  0
   35.6630   28.8270   50.9050 H   0  0  0  0  0  0  0  0  0  0  0  0
   35.5890   30.5970   50.6980 H   0  0  0  0  0  0  0  0  0  0  0  0
   37.0210   28.5670   48.9060 H   0  0  0  0  0  0  0  0  0  0  0  0
   37.7590   29.6960   50.0700 H   0  0  0  0  0  0  0  0  0  0  0  0
   37.8460   31.7390   48.4250 C   0  0  0  0  0  0  0  0  0  0  0  0
   38.0200   32.6130   49.4990 C   0  0  0  0  0  0  0  0  0  0  0  0
   38.9210   33.6600   49.4000 C   0  0  0  0  0  0  0  0  0  0  0  0
   39.6110   33.7840   48.2200 N   0  0  0  0  0  0  0  0  0  0  0  0
   39.4200   32.9220   47.2020 C   0  0  0  0  0  0  0  0  0  0  0  0
   38.5480   31.9190   47.3120 N   0  0  0  0  0  0  0  0  0  0  0  0
   37.4310   32.4350   50.3860 H   0  0  0  0  0  0  0  0  0  0  0  0
   39.0690   34.3410   50.2090 H   0  0  0  0  0  0  0  0  0  0  0  0
   39.9950   33.0730   46.2940 H   0  0  0  0  0  0  0  0  0  0  0  0
   34.0310   27.9730   49.1240 C   0  0  0  0  0  0  0  0  0  0  0  0
   32.6390   27.8380   48.5460 C   0  0  0  0  0  0  0  0  0  0  0  0
   31.8730   27.9070   49.3170 H   0  0  0  0  0  0  0  0  0  0  0  0
  1 16  1  0  0  0  0
  1  6  1  0  0  0  0
  2  3  1  0  0  0  0
  2  1  1  0  0  0  0
  3  4  1  0  0  0  0
  4 11  1  0  0  0  0
  4  5  1  0  0  0  0
  5 13  1  0  0  0  0
  5 12  1  0  0  0  0
  6 15  1  0  0  0  0
  6  5  1  0  0  0  0
  7  2  1  0  0  0  0
  8  2  1  0  0  0  0
  9  3  1  0  0  0  0
 10  3  1  0  0  0  0
 14  6  1  0  0  0  0
 16 17  1  0  0  0  0
 17 22  1  0  0  0  0
 18 17  2  0  0  0  0
 18 23  1  0  0  0  0
 19 18  1  0  0  0  0
 20 21  1  0  0  0  0
 20 19  2  0  0  0  0
 21 16  2  0  0  0  0
 24 20  1  0  0  0  0
 25  4  1  0  0  0  0
 26 25  1  0  0  0  0
 26 27  1  0  0  0  0
M  END
>  <minimizedAffinity>
-4.88299465

>  <minimizedRMSD>
5.71897459

$$$$
