
 OpenBabel03272509493D

 27 28  0  0  0  0  0  0  0  0999 V2000
   33.7310   28.6070   48.6900 C   0  0  0  0  0  0  0  0  0  0  0  0
   34.3060   28.9180   47.7770 H   0  0  0  0  0  0  0  0  0  0  0  0
   33.1110   29.4340   49.1010 H   0  0  0  0  0  0  0  0  0  0  0  0
   32.8140   27.4620   48.3430 C   0  0  0  0  0  0  0  0  0  0  0  0
   33.1030   27.0520   47.3360 H   0  0  0  0  0  0  0  0  0  0  0  0
   32.9600   26.6340   49.0770 H   0  0  0  0  0  0  0  0  0  0  0  0
   31.3890   27.8610   48.3480 C   0  0  0  0  0  0  0  0  0  0  0  0
   30.7020   27.7330   49.5410 C   0  0  0  0  0  0  0  0  0  0  0  0
   29.3750   28.0770   49.6460 C   0  0  0  0  0  0  0  0  0  0  0  0
   28.7100   28.5490   48.5840 N   0  0  0  0  0  0  0  0  0  0  0  0
   29.3960   28.6720   47.4140 C   0  0  0  0  0  0  0  0  0  0  0  0
   30.6890   28.3430   47.2890 N   0  0  0  0  0  0  0  0  0  0  0  0
   31.1250   27.3640   50.4680 H   0  0  0  0  0  0  0  0  0  0  0  0
   28.7930   27.9950   50.5540 H   0  0  0  0  0  0  0  0  0  0  0  0
   29.0180   29.0350   46.4590 H   0  0  0  0  0  0  0  0  0  0  0  0
   34.6170   28.2120   49.7300 O   0  0  0  0  0  0  0  0  0  0  0  0
   37.2220   30.1790   51.3090 C   0  0  0  0  0  0  0  0  0  0  0  0
   37.9090   30.6350   50.1610 C   0  0  0  0  0  0  0  0  0  0  0  0
   37.4260   30.2330   48.9210 C   0  0  0  0  0  0  0  0  0  0  0  0
   36.3260   29.4280   48.8820 N   0  0  0  0  0  0  0  0  0  0  0  0
   35.6980   29.0130   50.0000 C   0  0  0  0  0  0  0  0  0  0  0  0
   36.1600   29.3980   51.2000 N   0  0  0  0  0  0  0  0  0  0  0  0
   37.6230   30.5090   52.2590 H   0  0  0  0  0  0  0  0  0  0  0  0
   38.7870   31.2780   50.1600 H   0  0  0  0  0  0  0  0  0  0  0  0
   38.0910   30.6700   47.6440 C   0  0  0  0  0  2  0  0  0  0  0  0
   37.1080   30.8130   46.5120 C   0  0  0  0  0  2  0  0  0  0  0  0
   37.0260   29.8990   45.8970 H   0  0  0  0  0  0  0  0  0  0  0  0
  1  3  1  0  0  0  0
  1 16  1  0  0  0  0
  2  1  1  0  0  0  0
  4  7  1  0  0  0  0
  4  1  1  0  0  0  0
  4  6  1  0  0  0  0
  5  4  1  0  0  0  0
  7  8  1  0  0  0  0
  8  9  2  0  0  0  0
  8 13  1  0  0  0  0
  9 14  1  0  0  0  0
 10  9  1  0  0  0  0
 11 10  2  0  0  0  0
 12 11  1  0  0  0  0
 12  7  2  0  0  0  0
 15 11  1  0  0  0  0
 16 21  1  0  0  0  0
 17 23  1  0  0  0  0
 18 17  2  0  0  0  0
 19 18  1  0  0  0  0
 20 19  2  0  0  0  0
 20 21  1  0  0  0  0
 21 22  2  0  0  0  0
 22 17  1  0  0  0  0
 24 18  1  0  0  0  0
 25 19  1  0  0  0  0
 26 25  1  0  0  0  0
 27 26  1  0  0  0  0
M  END
>  <minimizedAffinity>
-4.86779976

>  <minimizedRMSD>
0.0200927127

$$$$
