
 OpenBabel03272509493D

 27 28  0  0  0  0  0  0  0  0999 V2000
   33.7220   28.6050   48.6990 C   0  0  0  0  0  0  0  0  0  0  0  0
   34.2840   28.9310   47.7830 H   0  0  0  0  0  0  0  0  0  0  0  0
   33.1030   29.4240   49.1280 H   0  0  0  0  0  0  0  0  0  0  0  0
   32.8050   27.4610   48.3480 C   0  0  0  0  0  0  0  0  0  0  0  0
   33.0960   27.0540   47.3400 H   0  0  0  0  0  0  0  0  0  0  0  0
   32.9510   26.6310   49.0800 H   0  0  0  0  0  0  0  0  0  0  0  0
   31.3800   27.8600   48.3520 C   0  0  0  0  0  0  0  0  0  0  0  0
   30.6920   27.7300   49.5440 C   0  0  0  0  0  0  0  0  0  0  0  0
   29.3650   28.0730   49.6490 C   0  0  0  0  0  0  0  0  0  0  0  0
   28.7010   28.5460   48.5860 N   0  0  0  0  0  0  0  0  0  0  0  0
   29.3880   28.6710   47.4160 C   0  0  0  0  0  0  0  0  0  0  0  0
   30.6810   28.3420   47.2930 N   0  0  0  0  0  0  0  0  0  0  0  0
   31.1150   27.3600   50.4710 H   0  0  0  0  0  0  0  0  0  0  0  0
   28.7820   27.9900   50.5550 H   0  0  0  0  0  0  0  0  0  0  0  0
   29.0110   29.0350   46.4610 H   0  0  0  0  0  0  0  0  0  0  0  0
   34.6220   28.2010   49.7240 O   0  0  0  0  0  0  0  0  0  0  0  0
   37.2180   30.1730   51.3100 C   0  0  0  0  0  0  0  0  0  0  0  0
   37.8990   30.6410   50.1630 C   0  0  0  0  0  0  0  0  0  0  0  0
   37.4150   30.2450   48.9220 C   0  0  0  0  0  0  0  0  0  0  0  0
   36.3210   29.4330   48.8800 N   0  0  0  0  0  0  0  0  0  0  0  0
   35.6980   29.0060   49.9970 C   0  0  0  0  0  0  0  0  0  0  0  0
   36.1610   29.3860   51.1980 N   0  0  0  0  0  0  0  0  0  0  0  0
   37.6190   30.4980   52.2610 H   0  0  0  0  0  0  0  0  0  0  0  0
   38.7740   31.2890   50.1640 H   0  0  0  0  0  0  0  0  0  0  0  0
   38.0750   30.6940   47.6460 C   0  0  0  0  0  2  0  0  0  0  0  0
   38.7690   32.0230   47.8040 C   0  0  0  0  0  2  0  0  0  0  0  0
   38.1290   32.8780   47.5160 H   0  0  0  0  0  0  0  0  0  0  0  0
  1  3  1  0  0  0  0
  1 16  1  0  0  0  0
  2  1  1  0  0  0  0
  4  7  1  0  0  0  0
  4  1  1  0  0  0  0
  4  6  1  0  0  0  0
  5  4  1  0  0  0  0
  7  8  1  0  0  0  0
  8  9  2  0  0  0  0
  8 13  1  0  0  0  0
  9 14  1  0  0  0  0
 10  9  1  0  0  0  0
 11 10  2  0  0  0  0
 12 11  1  0  0  0  0
 12  7  2  0  0  0  0
 15 11  1  0  0  0  0
 16 21  1  0  0  0  0
 17 23  1  0  0  0  0
 18 24  1  0  0  0  0
 18 17  2  0  0  0  0
 19 18  1  0  0  0  0
 20 19  2  0  0  0  0
 20 21  1  0  0  0  0
 21 22  2  0  0  0  0
 22 17  1  0  0  0  0
 25 26  1  0  0  0  0
 25 19  1  0  0  0  0
 27 26  1  0  0  0  0
M  END
>  <minimizedAffinity>
-4.97038555

>  <minimizedRMSD>
0.0231788699

$$$$
