
 OpenBabel03272505213D

 22 23  0  0  0  0  0  0  0  0999 V2000
   36.5360   31.9830   50.2210 Br  0  0  0  0  0  0  0  0  0  0  0  0
   37.4940   31.7110   48.5830 C   0  0  0  0  0  0  0  0  0  0  0  0
   37.0960   30.7330   47.7020 C   0  0  0  0  0  0  0  0  0  0  0  0
   37.8240   30.5760   46.5310 C   0  0  0  0  0  0  0  0  0  0  0  0
   38.9110   31.3880   46.2790 C   0  0  0  0  0  0  0  0  0  0  0  0
   39.3190   32.3830   47.1720 C   0  0  0  0  0  0  0  0  0  0  0  0
   38.5800   32.5360   48.3500 C   0  0  0  0  0  0  0  0  0  0  0  0
   37.5010   29.8050   45.8450 H   0  0  0  0  0  0  0  0  0  0  0  0
   39.4760   31.2570   45.3590 H   0  0  0  0  0  0  0  0  0  0  0  0
   40.1560   33.0080   46.9790 H   0  0  0  0  0  0  0  0  0  0  0  0
   34.8230   28.2760   49.4680 C   0  0  0  0  0  0  0  0  0  0  0  0
   35.9470   29.0390   49.1270 C   0  0  0  0  0  0  0  0  0  0  0  0
   35.9340   29.9350   48.0660 C   0  0  0  0  0  0  0  0  0  0  0  0
   34.7640   30.0090   47.3980 N   0  0  0  0  0  0  0  0  0  0  0  0
   33.6850   29.2790   47.7230 C   0  0  0  0  0  0  0  0  0  0  0  0
   33.7180   28.4250   48.7440 N   0  0  0  0  0  0  0  0  0  0  0  0
   34.8710   27.5770   50.3150 H   0  0  0  0  0  0  0  0  0  0  0  0
   36.8680   28.9490   49.6890 H   0  0  0  0  0  0  0  0  0  0  0  0
   32.7580   29.3820   47.1420 H   0  0  0  0  0  0  0  0  0  0  0  0
   38.9590   33.5770   49.3400 C   0  0  0  0  0  0  0  0  0  0  0  0
   39.8820   34.6200   48.7910 C   0  0  0  0  0  0  0  0  0  0  0  0
   39.4140   35.1060   47.9190 H   0  0  0  0  0  0  0  0  0  0  0  0
  2  1  1  0  0  0  0
  3 13  1  0  0  0  0
  3  2  2  0  0  0  0
  4  3  1  0  0  0  0
  5  4  2  0  0  0  0
  5  6  1  0  0  0  0
  6  7  2  0  0  0  0
  7  2  1  0  0  0  0
  7 20  1  0  0  0  0
  8  4  1  0  0  0  0
  9  5  1  0  0  0  0
 10  6  1  0  0  0  0
 11 17  1  0  0  0  0
 12 11  1  0  0  0  0
 12 18  1  0  0  0  0
 13 12  2  0  0  0  0
 14 15  2  0  0  0  0
 14 13  1  0  0  0  0
 15 16  1  0  0  0  0
 16 11  2  0  0  0  0
 19 15  1  0  0  0  0
 21 20  1  0  0  0  0
 22 21  1  0  0  0  0
M  END
>  <minimizedAffinity>
-5.30772972

>  <minimizedRMSD>
2.0936861

$$$$
