
 OpenBabel03272501083D

 34 36  0  0  1  0  0  0  0  0999 V2000
   39.0080   32.4800   47.7630 C   0  0  2  0  0  0  0  0  0  0  0  0
   37.9630   32.6650   48.9120 C   0  0  2  0  0  0  0  0  0  0  0  0
   38.7610   33.3940   49.8840 C   0  0  0  0  0  0  0  0  0  0  0  0
   39.6090   34.2500   49.1980 O   0  0  0  0  0  0  0  0  0  0  0  0
   39.6080   33.9080   47.8820 C   0  0  0  0  0  0  0  0  0  0  0  0
   39.7770   31.7680   48.0620 H   0  0  0  0  0  0  0  0  0  0  0  0
   37.1830   33.2930   48.4310 H   0  0  0  0  0  0  0  0  0  0  0  0
   38.1070   34.0500   50.5200 H   0  0  0  0  0  0  0  0  0  0  0  0
   39.3530   32.7980   50.5710 H   0  0  0  0  0  0  0  0  0  0  0  0
   40.6810   33.7940   47.5700 H   0  0  0  0  0  0  0  0  0  0  0  0
   39.0690   34.6220   47.2420 H   0  0  0  0  0  0  0  0  0  0  0  0
   37.3170   29.3910   50.6580 C   0  0  0  0  0  0  0  0  0  0  0  0
   37.9510   30.6210   50.3320 C   0  0  0  0  0  0  0  0  0  0  0  0
   37.3720   31.4150   49.3030 C   0  0  0  0  0  0  0  0  0  0  0  0
   36.2240   30.9520   48.6740 N   0  0  0  0  0  0  0  0  0  0  0  0
   35.6780   29.7850   49.0300 C   0  0  0  0  0  0  0  0  0  0  0  0
   36.1970   29.0010   50.0020 N   0  0  0  0  0  0  0  0  0  0  0  0
   37.6810   28.7350   51.4140 H   0  0  0  0  0  0  0  0  0  0  0  0
   38.8300   30.9150   50.8580 H   0  0  0  0  0  0  0  0  0  0  0  0
   34.7890   29.5370   48.4630 H   0  0  0  0  0  0  0  0  0  0  0  0
   38.4220   32.3550   46.5500 O   0  0  0  0  0  0  0  0  0  0  0  0
   41.0430   32.0990   44.9550 Cl  0  0  0  0  0  0  0  0  0  0  0  0
   39.5420   31.2720   44.5920 C   0  0  0  0  0  0  0  0  0  0  0  0
   38.5060   31.5560   45.4700 C   0  0  0  0  0  0  0  0  0  0  0  0
   37.3200   30.8990   45.2000 C   0  0  0  0  0  0  0  0  0  0  0  0
   37.1850   30.0270   44.1340 C   0  0  0  0  0  0  0  0  0  0  0  0
   38.2540   29.7990   43.3110 C   0  0  0  0  0  0  0  0  0  0  0  0
   39.4550   30.4200   43.5290 C   0  0  0  0  0  0  0  0  0  0  0  0
   36.4160   31.0000   45.7760 H   0  0  0  0  0  0  0  0  0  0  0  0
   36.2640   29.4970   43.9000 H   0  0  0  0  0  0  0  0  0  0  0  0
   38.1760   29.1240   42.4740 H   0  0  0  0  0  0  0  0  0  0  0  0
   40.5890   30.1500   42.6130 C   0  0  0  0  0  2  0  0  0  0  0  0
   40.4100   30.8920   41.2990 C   0  0  0  0  0  2  0  0  0  0  0  0
   41.0900   31.7470   41.1750 H   0  0  0  0  0  0  0  0  0  0  0  0
  1  5  1  0  0  0  0
  1  6  1  1  0  0  0
  1  2  1  0  0  0  0
  2  7  1  6  0  0  0
  2 14  1  0  0  0  0
  2  3  1  0  0  0  0
  3  8  1  0  0  0  0
  3  9  1  0  0  0  0
  4  3  1  0  0  0  0
  5  4  1  0  0  0  0
 10  5  1  0  0  0  0
 11  5  1  0  0  0  0
 12 18  1  0  0  0  0
 13 12  1  0  0  0  0
 13 19  1  0  0  0  0
 14 13  2  0  0  0  0
 15 16  2  0  0  0  0
 15 14  1  0  0  0  0
 16 17  1  0  0  0  0
 17 12  2  0  0  0  0
 20 16  1  0  0  0  0
 21  1  1  0  0  0  0
 23 22  1  0  0  0  0
 23 24  1  0  0  0  0
 24 21  1  0  0  0  0
 25 24  2  0  0  0  0
 25 29  1  0  0  0  0
 26 25  1  0  0  0  0
 27 28  1  0  0  0  0
 27 26  2  0  0  0  0
 28 23  2  0  0  0  0
 30 26  1  0  0  0  0
 31 27  1  0  0  0  0
 32 28  1  0  0  0  0
 33 32  1  0  0  0  0
 34 33  1  0  0  0  0
M  END
>  <minimizedAffinity>
-5.65068913

>  <minimizedRMSD>
0.753604174

$$$$
