
     RDKit          3D

 38 40  0  0  0  0  0  0  0  0999 V2000
   38.9549   32.3667   47.7982 C   0  0  2  0  0  0  0  0  0  0  0  0
   37.9961   32.7514   48.9723 C   0  0  2  0  0  0  0  0  0  0  0  0
   38.8889   33.5514   49.7950 C   0  0  0  0  0  0  0  0  0  0  0  0
   39.7304   34.2675   48.9572 O   0  0  0  0  0  0  0  0  0  0  0  0
   39.6280   33.7643   47.6978 C   0  0  0  0  0  0  0  0  0  0  0  0
   37.3578   29.7001   51.0861 C   0  0  0  0  0  0  0  0  0  0  0  0
   38.0305   30.8385   50.5639 C   0  0  0  0  0  0  0  0  0  0  0  0
   37.3741   31.5944   49.5541 C   0  0  0  0  0  0  0  0  0  0  0  0
   36.1164   31.1852   49.1317 N   0  0  0  0  0  0  0  0  0  0  0  0
   35.5392   30.1036   49.6651 C   0  0  0  0  0  0  0  0  0  0  0  0
   36.1297   29.3589   50.6261 N   0  0  0  0  0  0  0  0  0  0  0  0
   38.2869   32.1242   46.6467 O   0  0  0  0  0  0  0  0  0  0  0  0
   40.9522   31.2511   45.3738 Cl  0  0  0  0  0  0  0  0  0  0  0  0
   39.3608   30.6935   44.8961 C   0  0  0  0  0  0  0  0  0  0  0  0
   38.3190   31.2375   45.6335 C   0  0  0  0  0  0  0  0  0  0  0  0
   37.0604   30.7965   45.2721 C   0  0  0  0  0  0  0  0  0  0  0  0
   36.8628   29.8822   44.2519 C   0  0  0  0  0  0  0  0  0  0  0  0
   37.9418   29.3908   43.5702 C   0  0  0  0  0  0  0  0  0  0  0  0
   39.2141   29.7912   43.8833 C   0  0  0  0  0  0  0  0  0  0  0  0
   39.7077   31.6573   48.1404 H   0  0  0  0  0  0  0  0  0  0  0  0
   37.2181   33.3562   48.4605 H   0  0  0  0  0  0  0  0  0  0  0  0
   38.3095   34.3167   50.3783 H   0  0  0  0  0  0  0  0  0  0  0  0
   39.4948   33.0142   50.5174 H   0  0  0  0  0  0  0  0  0  0  0  0
   40.6733   33.5526   47.3412 H   0  0  0  0  0  0  0  0  0  0  0  0
   39.0833   34.4198   47.0042 H   0  0  0  0  0  0  0  0  0  0  0  0
   37.7758   29.0782   51.8434 H   0  0  0  0  0  0  0  0  0  0  0  0
   38.9964   31.0950   50.9366 H   0  0  0  0  0  0  0  0  0  0  0  0
   34.5610   29.8904   49.2487 H   0  0  0  0  0  0  0  0  0  0  0  0
   36.1414   31.1124   45.7357 H   0  0  0  0  0  0  0  0  0  0  0  0
   35.8828   29.5182   43.9492 H   0  0  0  0  0  0  0  0  0  0  0  0
   37.8161   28.6776   42.7717 H   0  0  0  0  0  0  0  0  0  0  0  0
   40.3576   29.2390   43.1176 C   0  0  0  0  0  0  0  0  0  0  0  0
   41.5949   30.1024   43.3012 C   0  0  0  0  0  0  0  0  0  0  0  0
   42.3683   29.6416   43.9326 H   0  0  0  0  0  0  0  0  0  0  0  0
   40.1007   29.0565   42.0588 H   0  0  0  0  0  0  0  0  0  0  0  0
   40.6368   28.2295   43.5433 H   0  0  0  0  0  0  0  0  0  0  0  0
   41.9745   30.4704   42.3146 H   0  0  0  0  0  0  0  0  0  0  0  0
   41.2682   31.0398   43.8379 H   0  0  0  0  0  0  0  0  0  0  0  0
  1  2  1  0
  2  8  1  0
  2  3  1  0
  4  3  1  0
  5  1  1  0
  5  4  1  0
  7  6  2  0
  8  7  1  0
  9  8  2  0
  9 10  1  0
 10 11  2  0
 11  6  1  0
 12  1  1  0
 14 13  1  0
 14 15  2  0
 15 12  1  0
 16 15  1  0
 17 16  2  0
 18 19  2  0
 18 17  1  0
 19 14  1  0
  1 20  1  1
  2 21  1  6
  3 22  1  0
  3 23  1  0
  5 24  1  0
  5 25  1  0
  6 26  1  0
  7 27  1  0
 10 28  1  0
 16 29  1  0
 17 30  1  0
 18 31  1  0
 32 33  1  0
 33 34  1  0
 32 35  1  0
 32 36  1  0
 33 37  1  0
 33 38  1  0
 19 32  1  0
M  ISO  8  20  13  21  13  22  13  23  13  24  13  25  13  26  14  27  14
M  ISO  5  28  14  29  14  30  14  31  14  34   8
M  END
>  <DihAtoms>  (1) 
17,18,31,32

>  <DihDeg>  (1) 
102.15746593889523

$$$$
