
 OpenBabel03272506463D

 36 38  0  0  1  0  0  0  0  0999 V2000
   32.1570   28.5360   47.4320 C   0  0  2  0  0  0  0  0  0  0  0  0
   33.4110   28.3410   48.2400 C   0  0  1  0  0  0  0  0  0  0  0  0
   33.7890   27.0380   48.1220 O   0  0  0  0  0  0  0  0  0  0  0  0
   33.0720   26.4400   47.0890 C   0  0  0  0  0  0  0  0  0  0  0  0
   32.4670   27.5490   46.2640 C   0  0  1  0  0  0  0  0  0  0  0  0
   31.2370   28.2190   47.9090 H   0  0  0  0  0  0  0  0  0  0  0  0
   33.2570   28.6570   49.3020 H   0  0  0  0  0  0  0  0  0  0  0  0
   32.3820   25.7430   47.5350 H   0  0  0  0  0  0  0  0  0  0  0  0
   33.8530   25.9200   46.4630 H   0  0  0  0  0  0  0  0  0  0  0  0
   33.1520   28.0500   45.5880 H   0  0  0  0  0  0  0  0  0  0  0  0
   32.0960   29.8440   46.9100 O   0  0  0  0  0  0  0  0  0  0  0  0
   32.4080   29.8490   45.9740 H   0  0  0  0  0  0  0  0  0  0  0  0
   34.7230   29.3820   47.4730 S   0  0  0  0  0  0  0  0  0  0  0  0
   37.1180   29.2970   50.6260 C   0  0  0  0  0  0  0  0  0  0  0  0
   37.6300   30.5940   50.7420 C   0  0  0  0  0  0  0  0  0  0  0  0
   37.2050   31.5230   49.7970 C   0  0  0  0  0  0  0  0  0  0  0  0
   36.3360   31.1390   48.8280 N   0  0  0  0  0  0  0  0  0  0  0  0
   35.8710   29.8690   48.7630 C   0  0  0  0  0  0  0  0  0  0  0  0
   36.2580   28.9340   49.6620 N   0  0  0  0  0  0  0  0  0  0  0  0
   37.4700   28.5910   51.3820 H   0  0  0  0  0  0  0  0  0  0  0  0
   38.3230   30.9020   51.5140 H   0  0  0  0  0  0  0  0  0  0  0  0
   37.5280   32.5520   49.7800 H   0  0  0  0  0  0  0  0  0  0  0  0
   31.3090   27.0880   45.6830 O   0  0  0  0  0  0  0  0  0  0  0  0
   29.8220   29.2340   44.3230 Cl  0  0  0  0  0  0  0  0  0  0  0  0
   29.2920   28.1970   45.6240 C   0  0  0  0  0  0  0  0  0  0  0  0
   30.0810   27.2130   46.1760 C   0  0  0  0  0  0  0  0  0  0  0  0
   29.5360   26.4300   47.1970 C   0  0  0  0  0  0  0  0  0  0  0  0
   28.2470   26.6410   47.6340 C   0  0  0  0  0  0  0  0  0  0  0  0
   27.4450   27.6270   47.0860 C   0  0  0  0  0  0  0  0  0  0  0  0
   27.9810   28.4130   46.0660 C   0  0  0  0  0  0  0  0  0  0  0  0
   30.0770   25.6370   47.6830 H   0  0  0  0  0  0  0  0  0  0  0  0
   27.7870   26.0690   48.4110 H   0  0  0  0  0  0  0  0  0  0  0  0
   26.4390   27.8080   47.4110 H   0  0  0  0  0  0  0  0  0  0  0  0
   27.1350   29.4650   45.4760 C   0  0  0  0  0  2  0  0  0  0  0  0
   27.0140   30.6310   46.4620 C   0  0  0  0  0  2  0  0  0  0  0  0
   26.0110   30.6030   46.9450 H   0  0  0  0  0  0  0  0  0  0  0  0
  1  6  1  1  0  0  0
  1  2  1  0  0  0  0
  2  7  1  1  0  0  0
  3  2  1  0  0  0  0
  4  8  1  0  0  0  0
  4  3  1  0  0  0  0
  5 10  1  6  0  0  0
  5  4  1  0  0  0  0
  5  1  1  0  0  0  0
  9  4  1  0  0  0  0
 11  1  1  0  0  0  0
 12 11  1  0  0  0  0
 13  2  1  0  0  0  0
 13 18  1  0  0  0  0
 14 15  1  0  0  0  0
 14 20  1  0  0  0  0
 15 21  1  0  0  0  0
 16 15  2  0  0  0  0
 17 16  1  0  0  0  0
 18 17  2  0  0  0  0
 18 19  1  0  0  0  0
 19 14  2  0  0  0  0
 22 16  1  0  0  0  0
 23 26  1  0  0  0  0
 23  5  1  0  0  0  0
 24 25  1  0  0  0  0
 25 30  2  0  0  0  0
 25 26  1  0  0  0  0
 26 27  2  0  0  0  0
 27 28  1  0  0  0  0
 27 31  1  0  0  0  0
 28 32  1  0  0  0  0
 29 33  1  0  0  0  0
 29 28  2  0  0  0  0
 30 29  1  0  0  0  0
 34 30  1  0  0  0  0
 34 35  1  0  0  0  0
 35 36  1  0  0  0  0
M  END
>  <minimizedAffinity>
-4.66734791

>  <minimizedRMSD>
0.201702073

$$$$
