
 OpenBabel03272506463D

 36 38  0  0  1  0  0  0  0  0999 V2000
   32.1950   28.4650   47.5120 C   0  0  2  0  0  0  0  0  0  0  0  0
   33.4570   28.3600   48.3230 C   0  0  1  0  0  0  0  0  0  0  0  0
   33.9010   27.0750   48.2460 O   0  0  0  0  0  0  0  0  0  0  0  0
   33.2150   26.4080   47.2340 C   0  0  0  0  0  0  0  0  0  0  0  0
   32.5550   27.4580   46.3760 C   0  0  1  0  0  0  0  0  0  0  0  0
   31.2920   28.1170   48.0000 H   0  0  0  0  0  0  0  0  0  0  0  0
   33.2870   28.7020   49.3750 H   0  0  0  0  0  0  0  0  0  0  0  0
   32.5620   25.6920   47.7040 H   0  0  0  0  0  0  0  0  0  0  0  0
   34.0220   25.9090   46.6240 H   0  0  0  0  0  0  0  0  0  0  0  0
   33.2130   27.9720   45.6830 H   0  0  0  0  0  0  0  0  0  0  0  0
   32.0670   29.7510   46.9490 O   0  0  0  0  0  0  0  0  0  0  0  0
   32.3780   29.7420   46.0130 H   0  0  0  0  0  0  0  0  0  0  0  0
   34.7140   29.4420   47.5220 S   0  0  0  0  0  0  0  0  0  0  0  0
   37.2580   29.3160   50.5550 C   0  0  0  0  0  0  0  0  0  0  0  0
   37.7590   30.6170   50.6770 C   0  0  0  0  0  0  0  0  0  0  0  0
   37.2770   31.5620   49.7750 C   0  0  0  0  0  0  0  0  0  0  0  0
   36.3680   31.1880   48.8400 N   0  0  0  0  0  0  0  0  0  0  0  0
   35.9160   29.9140   48.7670 C   0  0  0  0  0  0  0  0  0  0  0  0
   36.3570   28.9640   49.6240 N   0  0  0  0  0  0  0  0  0  0  0  0
   37.6550   28.5970   51.2760 H   0  0  0  0  0  0  0  0  0  0  0  0
   38.4840   30.9160   51.4220 H   0  0  0  0  0  0  0  0  0  0  0  0
   37.5860   32.5950   49.7680 H   0  0  0  0  0  0  0  0  0  0  0  0
   31.4220   26.9200   45.8120 O   0  0  0  0  0  0  0  0  0  0  0  0
   29.8780   28.6850   44.0310 Cl  0  0  0  0  0  0  0  0  0  0  0  0
   29.3600   27.8970   45.5010 C   0  0  0  0  0  0  0  0  0  0  0  0
   30.1770   27.0790   46.2490 C   0  0  0  0  0  0  0  0  0  0  0  0
   29.6400   26.4850   47.3940 C   0  0  0  0  0  0  0  0  0  0  0  0
   28.3310   26.7150   47.7580 C   0  0  0  0  0  0  0  0  0  0  0  0
   27.5020   27.5350   47.0140 C   0  0  0  0  0  0  0  0  0  0  0  0
   28.0300   28.1320   45.8690 C   0  0  0  0  0  0  0  0  0  0  0  0
   30.2020   25.8290   48.0350 H   0  0  0  0  0  0  0  0  0  0  0  0
   27.8770   26.2840   48.6240 H   0  0  0  0  0  0  0  0  0  0  0  0
   26.4810   27.7280   47.2790 H   0  0  0  0  0  0  0  0  0  0  0  0
   27.1540   29.0070   45.0690 C   0  0  0  0  0  2  0  0  0  0  0  0
   26.0000   28.1790   44.4940 C   0  0  0  0  0  2  0  0  0  0  0  0
   26.1870   27.9870   43.4130 H   0  0  0  0  0  0  0  0  0  0  0  0
  1  6  1  1  0  0  0
  1  2  1  0  0  0  0
  2  7  1  1  0  0  0
  3  2  1  0  0  0  0
  4  8  1  0  0  0  0
  4  3  1  0  0  0  0
  5 10  1  6  0  0  0
  5  4  1  0  0  0  0
  5  1  1  0  0  0  0
  9  4  1  0  0  0  0
 11  1  1  0  0  0  0
 12 11  1  0  0  0  0
 13  2  1  0  0  0  0
 13 18  1  0  0  0  0
 14 15  1  0  0  0  0
 14 20  1  0  0  0  0
 15 21  1  0  0  0  0
 16 15  2  0  0  0  0
 17 16  1  0  0  0  0
 18 17  2  0  0  0  0
 18 19  1  0  0  0  0
 19 14  2  0  0  0  0
 22 16  1  0  0  0  0
 23 26  1  0  0  0  0
 23  5  1  0  0  0  0
 24 25  1  0  0  0  0
 25 30  2  0  0  0  0
 25 26  1  0  0  0  0
 26 27  2  0  0  0  0
 27 28  1  0  0  0  0
 27 31  1  0  0  0  0
 28 32  1  0  0  0  0
 29 33  1  0  0  0  0
 29 28  2  0  0  0  0
 30 29  1  0  0  0  0
 34 30  1  0  0  0  0
 35 34  1  0  0  0  0
 36 35  1  0  0  0  0
M  END
>  <minimizedAffinity>
-4.67708921

>  <minimizedRMSD>
0.216010094

$$$$
