REMARK  Name = 
REMARK  7 active torsions:
REMARK  status: ('A' for Active; 'I' for Inactive)
REMARK    1  A    between atoms: C_1  and  O_6
REMARK    2  A    between atoms: C_2  and  S_7
REMARK    3  A    between atoms: C_5  and  O_14
REMARK    4  A    between atoms: S_7  and  C_12
REMARK    5  A    between atoms: O_14  and  C_17
REMARK    6  A    between atoms: C_21  and  C_34
REMARK    7  A    between atoms: C_34  and  C_35
REMARK                            x       y       z     vdW  Elec       q    Type
REMARK                         _______ _______ _______ _____ _____    ______ ____
ROOT
ATOM      1  C   UNL     1      32.164  28.529  47.426  0.00  0.00    +0.000 C 
ATOM      2  C   UNL     1      33.407  28.365  48.256  0.00  0.00    +0.000 C 
ATOM      3  O   UNL     1      33.805  27.066  48.165  0.00  0.00    +0.000 OA
ATOM      4  C   UNL     1      33.113  26.441  47.131  0.00  0.00    +0.000 C 
ATOM      5  C   UNL     1      32.506  27.528  46.279  0.00  0.00    +0.000 C 
ATOM      6  H   UNL     1      31.241  28.207  47.893  0.00  0.00    +0.000 HD
ATOM      7  H   UNL     1      33.232  28.696  49.310  0.00  0.00    +0.000 HD
ATOM      8  H   UNL     1      32.426  25.742  47.578  0.00  0.00    +0.000 HD
ATOM      9  H   UNL     1      33.911  25.922  46.526  0.00  0.00    +0.000 HD
ATOM     10  H   UNL     1      33.194  28.028  45.606  0.00  0.00    +0.000 HD
ENDROOT
BRANCH   1  11
ATOM     11  O   UNL     1      32.093  29.828  46.882  0.00  0.00    +0.000 OA
ATOM     12  H   UNL     1      32.419  29.822  45.951  0.00  0.00    +0.000 HD
ENDBRANCH   1  11
BRANCH   2  13
ATOM     13  S   UNL     1      34.717  29.412  47.493  0.00  0.00    +0.000 S 
BRANCH  13  18
ATOM     14  C   UNL     1      37.129  29.295  50.632  0.00  0.00    +0.000 A 
ATOM     15  C   UNL     1      37.640  30.592  50.760  0.00  0.00    +0.000 A 
ATOM     16  C   UNL     1      37.208  31.531  49.827  0.00  0.00    +0.000 A 
ATOM     17  N   UNL     1      36.334  31.156  48.859  0.00  0.00    +0.000 NA
ATOM     18  C   UNL     1      35.871  29.886  48.782  0.00  0.00    +0.000 A 
ATOM     19  N   UNL     1      36.264  28.942  49.668  0.00  0.00    +0.000 NA
ATOM     20  H   UNL     1      37.486  28.581  51.378  0.00  0.00    +0.000 HD
ATOM     21  H   UNL     1      38.336  30.892  51.531  0.00  0.00    +0.000 HD
ATOM     22  H   UNL     1      37.529  32.560  49.820  0.00  0.00    +0.000 HD
ENDBRANCH  13  18
ENDBRANCH   2  13
BRANCH   5  23
ATOM     23  O   UNL     1      31.364  27.041  45.688  0.00  0.00    +0.000 OA
BRANCH  23  26
ATOM     24 CL   UNL     1      29.880  29.111  44.211  0.00  0.00    +0.000 Cl
ATOM     25  C   UNL     1      29.336  28.122  45.543  0.00  0.00    +0.000 A 
ATOM     26  C   UNL     1      30.125  27.171  46.151  0.00  0.00    +0.000 A 
ATOM     27  C   UNL     1      29.568  26.424  47.192  0.00  0.00    +0.000 A 
ATOM     28  C   UNL     1      28.268  26.637  47.594  0.00  0.00    +0.000 A 
ATOM     29  C   UNL     1      27.466  27.590  46.991  0.00  0.00    +0.000 A 
ATOM     30  C   UNL     1      28.014  28.340  45.950  0.00  0.00    +0.000 A 
ATOM     31  H   UNL     1      30.108  25.658  47.721  0.00  0.00    +0.000 HD
ATOM     32  H   UNL     1      27.799  26.092  48.385  0.00  0.00    +0.000 HD
ATOM     33  H   UNL     1      26.452  27.772  47.288  0.00  0.00    +0.000 HD
BRANCH  30  34
ATOM     34  C   UNL     1      27.168  29.357  45.300  0.00  0.00    +0.000 C 
BRANCH  34  35
ATOM     35  C   UNL     1      26.744  28.853  43.916  0.00  0.00    +0.000 C 
ATOM     36  H   UNL     1      27.341  29.375  43.135  0.00  0.00    +0.000 HD
ENDBRANCH  34  35
ENDBRANCH  30  34
ENDBRANCH  23  26
ENDBRANCH   5  23
TORSDOF 7
