
 OpenBabel03262522173D

 39 41  0  0  1  0  0  0  0  0999 V2000
   37.4660   26.6540   34.3520 C   0  0  0  0  0  0  0  0  0  0  0  0
   36.8210   27.8900   34.1680 C   0  0  0  0  0  0  0  0  0  0  0  0
   36.1530   28.1820   33.0110 C   0  0  0  0  0  0  0  0  0  0  0  0
   36.1510   27.1970   32.0460 C   0  0  0  0  0  0  0  0  0  0  0  0
   36.7800   26.0080   32.2420 C   0  0  0  0  0  0  0  0  0  0  0  0
   37.4430   25.7170   33.3870 N   0  0  0  0  0  0  0  0  0  0  0  0
   36.8620   28.6220   34.9710 H   0  0  0  0  0  0  0  0  0  0  0  0
   35.6680   29.1350   32.8960 H   0  0  0  0  0  0  0  0  0  0  0  0
   35.6310   27.3960   31.1180 H   0  0  0  0  0  0  0  0  0  0  0  0
   38.1430   26.4380   35.6020 C   0  0  0  0  0  0  0  0  0  0  0  0
   38.3810   27.3730   36.3580 O   0  0  0  0  0  0  0  0  0  0  0  0
   39.7710   24.5830   35.4980 C   0  0  0  0  0  0  0  0  0  0  0  0
   38.5810   25.1020   36.0430 C   0  0  0  0  0  0  0  0  0  0  0  0
   37.8700   24.3420   36.9670 C   0  0  0  0  0  0  0  0  0  0  0  0
   38.3440   23.1110   37.3240 N   0  0  0  0  0  0  0  0  0  0  0  0
   39.4930   22.6330   36.7850 C   0  0  0  0  0  0  0  0  0  0  0  0
   40.1870   23.3540   35.8940 N   0  0  0  0  0  0  0  0  0  0  0  0
   40.3610   25.1410   34.7720 H   0  0  0  0  0  0  0  0  0  0  0  0
   36.9710   24.7320   37.3790 H   0  0  0  0  0  0  0  0  0  0  0  0
   39.9420   21.6880   37.0000 H   0  0  0  0  0  0  0  0  0  0  0  0
   36.7750   24.7100   30.9610 S   0  0  0  0  0  0  0  0  0  0  0  0
   35.4190   23.5930   31.4150 C   0  0  0  0  0  0  0  0  0  0  0  0
   34.6840   23.5570   30.5650 H   0  0  0  0  0  0  0  0  0  0  0  0
   34.8710   23.8920   32.3080 H   0  0  0  0  0  0  0  0  0  0  0  0
   36.0670   20.7280   33.4020 C   0  0  1  0  0  0  0  0  0  0  0  0
   35.0970   21.3370   32.4190 C   0  0  0  0  0  0  0  0  0  0  0  0
   35.9940   22.2060   31.5960 C   0  0  2  0  0  0  0  0  0  0  0  0
   37.2270   22.2300   32.1840 O   0  0  0  0  0  0  0  0  0  0  0  0
   37.0740   21.8630   33.5120 C   0  0  0  0  0  0  0  0  0  0  0  0
   36.4980   19.8440   32.8990 H   0  0  0  0  0  0  0  0  0  0  0  0
   34.2930   21.9000   32.9340 H   0  0  0  0  0  0  0  0  0  0  0  0
   34.6090   20.5490   31.7940 H   0  0  0  0  0  0  0  0  0  0  0  0
   36.0950   21.7600   30.5800 H   0  0  0  0  0  0  0  0  0  0  0  0
   38.0460   21.5390   33.9310 H   0  0  0  0  0  0  0  0  0  0  0  0
   36.5810   22.6400   34.1320 H   0  0  0  0  0  0  0  0  0  0  0  0
   35.4620   20.4520   34.6020 O   0  0  0  0  0  0  0  0  0  0  0  0
   35.9580   21.0870   35.6880 C   0  0  0  0  0  2  0  0  0  0  0  0
   35.2000   20.9730   36.9540 C   0  0  0  0  0  2  0  0  0  0  0  0
   34.8240   21.9580   37.3570 H   0  0  0  0  0  0  0  0  0  0  0  0
  1 10  1  0  0  0  0
  2  1  1  0  0  0  0
  2  7  1  0  0  0  0
  3  2  2  0  0  0  0
  4  5  2  0  0  0  0
  4  3  1  0  0  0  0
  5  6  1  0  0  0  0
  6  1  2  0  0  0  0
  8  3  1  0  0  0  0
  9  4  1  0  0  0  0
 10 13  1  0  0  0  0
 10 11  2  0  0  0  0
 12 17  2  0  0  0  0
 12 13  1  0  0  0  0
 13 14  2  0  0  0  0
 14 15  1  0  0  0  0
 14 19  1  0  0  0  0
 16 20  1  0  0  0  0
 16 15  2  0  0  0  0
 17 16  1  0  0  0  0
 18 12  1  0  0  0  0
 21 22  1  0  0  0  0
 21  5  1  0  0  0  0
 22 27  1  0  0  0  0
 22 24  1  0  0  0  0
 23 22  1  0  0  0  0
 25 30  1  6  0  0  0
 25 29  1  0  0  0  0
 25 36  1  0  0  0  0
 26 31  1  0  0  0  0
 26 25  1  0  0  0  0
 27 33  1  6  0  0  0
 27 28  1  0  0  0  0
 27 26  1  0  0  0  0
 28 29  1  0  0  0  0
 29 34  1  0  0  0  0
 29 35  1  0  0  0  0
 32 26  1  0  0  0  0
 36 37  1  0  0  0  0
 37 38  1  0  0  0  0
 38 39  1  0  0  0  0
M  END
>  <minimizedAffinity>
-5.49538422

$$$$

 OpenBabel03262522173D

 39 41  0  0  1  0  0  0  0  0999 V2000
   38.0770   25.0590   35.8450 C   0  0  0  0  0  0  0  0  0  0  0  0
   38.3900   26.3000   36.4270 C   0  0  0  0  0  0  0  0  0  0  0  0
   38.2350   27.4720   35.7380 C   0  0  0  0  0  0  0  0  0  0  0  0
   37.7570   27.3590   34.4500 C   0  0  0  0  0  0  0  0  0  0  0  0
   37.4600   26.1500   33.9040 C   0  0  0  0  0  0  0  0  0  0  0  0
   37.6120   24.9890   34.5840 N   0  0  0  0  0  0  0  0  0  0  0  0
   38.7640   26.3160   37.4480 H   0  0  0  0  0  0  0  0  0  0  0  0
   38.4820   28.4070   36.2070 H   0  0  0  0  0  0  0  0  0  0  0  0
   37.6230   28.2670   33.8770 H   0  0  0  0  0  0  0  0  0  0  0  0
   38.2730   23.8810   36.6480 C   0  0  0  0  0  0  0  0  0  0  0  0
   37.4150   23.5120   37.4420 O   0  0  0  0  0  0  0  0  0  0  0  0
   39.9940   22.7510   35.2840 C   0  0  0  0  0  0  0  0  0  0  0  0
   39.4930   23.0610   36.5620 C   0  0  0  0  0  0  0  0  0  0  0  0
   40.1630   22.5870   37.6870 C   0  0  0  0  0  0  0  0  0  0  0  0
   41.2910   21.8320   37.5230 N   0  0  0  0  0  0  0  0  0  0  0  0
   41.7530   21.5470   36.2800 C   0  0  0  0  0  0  0  0  0  0  0  0
   41.1180   21.9970   35.1900 N   0  0  0  0  0  0  0  0  0  0  0  0
   39.5040   23.0990   34.3760 H   0  0  0  0  0  0  0  0  0  0  0  0
   39.7870   22.8200   38.6530 H   0  0  0  0  0  0  0  0  0  0  0  0
   42.6210   20.9680   36.0510 H   0  0  0  0  0  0  0  0  0  0  0  0
   36.8280   26.0090   32.2000 S   0  0  0  0  0  0  0  0  0  0  0  0
   37.9180   24.8120   31.3810 C   0  0  0  0  0  0  0  0  0  0  0  0
   38.5300   24.2880   32.1660 H   0  0  0  0  0  0  0  0  0  0  0  0
   38.6110   25.2530   30.6660 H   0  0  0  0  0  0  0  0  0  0  0  0
   35.7150   22.0350   31.4870 C   0  0  1  0  0  0  0  0  0  0  0  0
   35.7760   23.5420   31.4430 C   0  0  0  0  0  0  0  0  0  0  0  0
   37.0510   23.7790   30.6970 C   0  0  2  0  0  0  0  0  0  0  0  0
   37.6910   22.5810   30.5480 O   0  0  0  0  0  0  0  0  0  0  0  0
   37.2010   21.7130   31.5120 C   0  0  0  0  0  0  0  0  0  0  0  0
   35.2420   21.7210   30.5390 H   0  0  0  0  0  0  0  0  0  0  0  0
   35.7770   23.9810   32.4610 H   0  0  0  0  0  0  0  0  0  0  0  0
   34.8990   23.9660   30.8960 H   0  0  0  0  0  0  0  0  0  0  0  0
   36.8060   24.1770   29.6850 H   0  0  0  0  0  0  0  0  0  0  0  0
   37.4220   20.6670   31.2270 H   0  0  0  0  0  0  0  0  0  0  0  0
   37.5420   21.9560   32.5400 H   0  0  0  0  0  0  0  0  0  0  0  0
   35.0680   21.5890   32.6120 O   0  0  0  0  0  0  0  0  0  0  0  0
   35.6780   20.6020   33.3070 C   0  0  0  0  0  2  0  0  0  0  0  0
   35.6670   20.6980   34.7840 C   0  0  0  0  0  2  0  0  0  0  0  0
   36.6920   20.7720   35.2490 H   0  0  0  0  0  0  0  0  0  0  0  0
  1  2  1  0  0  0  0
  1 10  1  0  0  0  0
  2  7  1  0  0  0  0
  3  8  1  0  0  0  0
  3  2  2  0  0  0  0
  4  3  1  0  0  0  0
  5  4  2  0  0  0  0
  5  6  1  0  0  0  0
  6  1  2  0  0  0  0
  9  4  1  0  0  0  0
 10 11  2  0  0  0  0
 12 13  1  0  0  0  0
 13 10  1  0  0  0  0
 13 14  2  0  0  0  0
 14 19  1  0  0  0  0
 15 14  1  0  0  0  0
 16 15  2  0  0  0  0
 17 12  2  0  0  0  0
 17 16  1  0  0  0  0
 18 12  1  0  0  0  0
 20 16  1  0  0  0  0
 21  5  1  0  0  0  0
 22 23  1  0  0  0  0
 22 21  1  0  0  0  0
 24 22  1  0  0  0  0
 25 30  1  6  0  0  0
 25 29  1  0  0  0  0
 25 36  1  0  0  0  0
 26 25  1  0  0  0  0
 26 31  1  0  0  0  0
 27 33  1  6  0  0  0
 27 22  1  0  0  0  0
 27 26  1  0  0  0  0
 28 27  1  0  0  0  0
 28 29  1  0  0  0  0
 29 35  1  0  0  0  0
 32 26  1  0  0  0  0
 34 29  1  0  0  0  0
 36 37  1  0  0  0  0
 37 38  1  0  0  0  0
 38 39  1  0  0  0  0
M  END
>  <minimizedAffinity>
-5.37808323

$$$$

 OpenBabel03262522173D

 39 41  0  0  1  0  0  0  0  0999 V2000
   36.7440   23.9180   31.1510 C   0  0  0  0  0  0  0  0  0  0  0  0
   35.3730   24.0840   30.8860 C   0  0  0  0  0  0  0  0  0  0  0  0
   34.7850   25.3190   30.9080 C   0  0  0  0  0  0  0  0  0  0  0  0
   35.6150   26.3800   31.2040 C   0  0  0  0  0  0  0  0  0  0  0  0
   36.9390   26.1990   31.4570 C   0  0  0  0  0  0  0  0  0  0  0  0
   37.5220   24.9770   31.4350 N   0  0  0  0  0  0  0  0  0  0  0  0
   34.7760   23.2030   30.6600 H   0  0  0  0  0  0  0  0  0  0  0  0
   33.7350   25.4180   30.7020 H   0  0  0  0  0  0  0  0  0  0  0  0
   35.1820   27.3710   31.2290 H   0  0  0  0  0  0  0  0  0  0  0  0
   37.2720   22.5800   31.1040 C   0  0  0  0  0  0  0  0  0  0  0  0
   38.3320   22.3420   30.5370 O   0  0  0  0  0  0  0  0  0  0  0  0
   36.1660   20.3810   30.8940 C   0  0  0  0  0  0  0  0  0  0  0  0
   36.5820   21.4370   31.7270 C   0  0  0  0  0  0  0  0  0  0  0  0
   36.3280   21.3630   33.0940 C   0  0  0  0  0  0  0  0  0  0  0  0
   35.6830   20.2670   33.5940 N   0  0  0  0  0  0  0  0  0  0  0  0
   35.2930   19.2630   32.7710 C   0  0  0  0  0  0  0  0  0  0  0  0
   35.5300   19.3220   31.4540 N   0  0  0  0  0  0  0  0  0  0  0  0
   36.3420   20.3940   29.8200 H   0  0  0  0  0  0  0  0  0  0  0  0
   36.6410   22.1590   33.7240 H   0  0  0  0  0  0  0  0  0  0  0  0
   34.7850   18.3710   33.0660 H   0  0  0  0  0  0  0  0  0  0  0  0
   38.0300   27.6070   31.8470 S   0  0  0  0  0  0  0  0  0  0  0  0
   39.4720   26.8820   32.6760 C   0  0  0  0  0  0  0  0  0  0  0  0
   40.3930   27.4350   32.3430 H   0  0  0  0  0  0  0  0  0  0  0  0
   39.6290   25.8260   32.4610 H   0  0  0  0  0  0  0  0  0  0  0  0
   38.6780   25.6890   35.9200 C   0  0  1  0  0  0  0  0  0  0  0  0
   39.8090   25.9190   34.9480 C   0  0  0  0  0  0  0  0  0  0  0  0
   39.3120   27.0930   34.1650 C   0  0  2  0  0  0  0  0  0  0  0  0
   38.0130   27.3260   34.5190 O   0  0  0  0  0  0  0  0  0  0  0  0
   37.5050   26.1620   35.0730 C   0  0  0  0  0  0  0  0  0  0  0  0
   38.8660   26.3650   36.7730 H   0  0  0  0  0  0  0  0  0  0  0  0
   39.9970   25.0240   34.3220 H   0  0  0  0  0  0  0  0  0  0  0  0
   40.7590   26.1600   35.4840 H   0  0  0  0  0  0  0  0  0  0  0  0
   39.9180   27.9880   34.4350 H   0  0  0  0  0  0  0  0  0  0  0  0
   36.6030   26.3890   35.6720 H   0  0  0  0  0  0  0  0  0  0  0  0
   37.3310   25.3570   34.3290 H   0  0  0  0  0  0  0  0  0  0  0  0
   38.5690   24.3660   36.2640 O   0  0  0  0  0  0  0  0  0  0  0  0
   37.6260   24.0570   37.1840 C   0  0  0  0  0  2  0  0  0  0  0  0
   37.9670   24.2630   38.6100 C   0  0  0  0  0  2  0  0  0  0  0  0
   37.9510   23.3200   39.2290 H   0  0  0  0  0  0  0  0  0  0  0  0
  1  6  1  0  0  0  0
  2  3  1  0  0  0  0
  2  1  2  0  0  0  0
  3  4  2  0  0  0  0
  4  9  1  0  0  0  0
  4  5  1  0  0  0  0
  5 21  1  0  0  0  0
  6  5  2  0  0  0  0
  7  2  1  0  0  0  0
  8  3  1  0  0  0  0
 10  1  1  0  0  0  0
 10 13  1  0  0  0  0
 11 10  2  0  0  0  0
 12 17  2  0  0  0  0
 12 13  1  0  0  0  0
 13 14  2  0  0  0  0
 14 15  1  0  0  0  0
 14 19  1  0  0  0  0
 16 20  1  0  0  0  0
 16 15  2  0  0  0  0
 17 16  1  0  0  0  0
 18 12  1  0  0  0  0
 21 22  1  0  0  0  0
 22 27  1  0  0  0  0
 23 22  1  0  0  0  0
 24 22  1  0  0  0  0
 25 36  1  0  0  0  0
 25 30  1  1  0  0  0
 26 32  1  0  0  0  0
 26 25  1  0  0  0  0
 27 33  1  1  0  0  0
 27 28  1  0  0  0  0
 27 26  1  0  0  0  0
 28 29  1  0  0  0  0
 29 34  1  0  0  0  0
 29 25  1  0  0  0  0
 31 26  1  0  0  0  0
 35 29  1  0  0  0  0
 36 37  1  0  0  0  0
 37 38  1  0  0  0  0
 38 39  1  0  0  0  0
M  END
>  <minimizedAffinity>
-5.16794395

$$$$

 OpenBabel03262522173D

 39 41  0  0  1  0  0  0  0  0999 V2000
   38.0880   24.9160   35.6070 C   0  0  0  0  0  0  0  0  0  0  0  0
   38.4110   26.0720   36.3390 C   0  0  0  0  0  0  0  0  0  0  0  0
   38.3100   27.3190   35.7850 C   0  0  0  0  0  0  0  0  0  0  0  0
   37.8740   27.3700   34.4780 C   0  0  0  0  0  0  0  0  0  0  0  0
   37.5660   26.2400   33.7870 C   0  0  0  0  0  0  0  0  0  0  0  0
   37.6650   25.0050   34.3330 N   0  0  0  0  0  0  0  0  0  0  0  0
   38.7500   25.9610   37.3660 H   0  0  0  0  0  0  0  0  0  0  0  0
   38.5640   28.1870   36.3670 H   0  0  0  0  0  0  0  0  0  0  0  0
   37.7820   28.3410   34.0110 H   0  0  0  0  0  0  0  0  0  0  0  0
   38.2260   23.6480   36.2730 C   0  0  0  0  0  0  0  0  0  0  0  0
   37.2810   23.1460   36.8700 O   0  0  0  0  0  0  0  0  0  0  0  0
   40.0340   22.5150   37.5170 C   0  0  0  0  0  0  0  0  0  0  0  0
   39.4890   22.8910   36.2750 C   0  0  0  0  0  0  0  0  0  0  0  0
   40.1580   22.5370   35.1060 C   0  0  0  0  0  0  0  0  0  0  0  0
   41.3260   21.8330   35.1930 N   0  0  0  0  0  0  0  0  0  0  0  0
   41.8300   21.4830   36.4020 C   0  0  0  0  0  0  0  0  0  0  0  0
   41.1970   21.8180   37.5350 N   0  0  0  0  0  0  0  0  0  0  0  0
   39.5470   22.7700   38.4570 H   0  0  0  0  0  0  0  0  0  0  0  0
   39.7480   22.8200   34.1670 H   0  0  0  0  0  0  0  0  0  0  0  0
   42.7310   20.9360   36.5720 H   0  0  0  0  0  0  0  0  0  0  0  0
   36.9900   26.3140   32.0590 S   0  0  0  0  0  0  0  0  0  0  0  0
   37.4230   27.9780   31.4790 C   0  0  0  0  0  0  0  0  0  0  0  0
   37.8920   27.8920   30.4600 H   0  0  0  0  0  0  0  0  0  0  0  0
   38.1270   28.5070   32.1200 H   0  0  0  0  0  0  0  0  0  0  0  0
   35.2040   30.5180   32.5740 C   0  0  1  0  0  0  0  0  0  0  0  0
   36.3570   30.2220   31.6460 C   0  0  0  0  0  0  0  0  0  0  0  0
   36.1450   28.7740   31.3400 C   0  0  2  0  0  0  0  0  0  0  0  0
   35.1510   28.3040   32.1510 O   0  0  0  0  0  0  0  0  0  0  0  0
   35.0470   29.1580   33.2380 C   0  0  0  0  0  0  0  0  0  0  0  0
   34.3430   30.7600   31.9250 H   0  0  0  0  0  0  0  0  0  0  0  0
   37.3330   30.4290   32.1290 H   0  0  0  0  0  0  0  0  0  0  0  0
   36.3010   30.8470   30.7220 H   0  0  0  0  0  0  0  0  0  0  0  0
   35.8120   28.6750   30.2810 H   0  0  0  0  0  0  0  0  0  0  0  0
   34.0650   29.0280   33.7300 H   0  0  0  0  0  0  0  0  0  0  0  0
   35.8950   29.0740   33.9500 H   0  0  0  0  0  0  0  0  0  0  0  0
   35.5220   31.5020   33.4770 O   0  0  0  0  0  0  0  0  0  0  0  0
   35.0860   31.3230   34.7440 C   0  0  0  0  0  2  0  0  0  0  0  0
   36.0490   31.5690   35.8410 C   0  0  0  0  0  2  0  0  0  0  0  0
   36.2650   30.6630   36.4770 H   0  0  0  0  0  0  0  0  0  0  0  0
  1 10  1  0  0  0  0
  1  2  1  0  0  0  0
  2  7  1  0  0  0  0
  3  2  2  0  0  0  0
  3  8  1  0  0  0  0
  4  3  1  0  0  0  0
  5  6  1  0  0  0  0
  5  4  2  0  0  0  0
  6  1  2  0  0  0  0
  9  4  1  0  0  0  0
 10 13  1  0  0  0  0
 10 11  2  0  0  0  0
 12 17  1  0  0  0  0
 12 18  1  0  0  0  0
 13 12  2  0  0  0  0
 14 15  2  0  0  0  0
 14 13  1  0  0  0  0
 15 16  1  0  0  0  0
 16 20  1  0  0  0  0
 16 17  2  0  0  0  0
 19 14  1  0  0  0  0
 21  5  1  0  0  0  0
 22 21  1  0  0  0  0
 22 24  1  0  0  0  0
 23 22  1  0  0  0  0
 25 30  1  6  0  0  0
 25 29  1  0  0  0  0
 25 36  1  0  0  0  0
 26 31  1  0  0  0  0
 26 25  1  0  0  0  0
 27 33  1  6  0  0  0
 27 22  1  0  0  0  0
 27 26  1  0  0  0  0
 27 28  1  0  0  0  0
 28 29  1  0  0  0  0
 29 34  1  0  0  0  0
 29 35  1  0  0  0  0
 32 26  1  0  0  0  0
 36 37  1  0  0  0  0
 37 38  1  0  0  0  0
 38 39  1  0  0  0  0
M  END
>  <minimizedAffinity>
-5.08593845

$$$$

 OpenBabel03262522173D

 39 41  0  0  1  0  0  0  0  0999 V2000
   36.6480   26.0360   32.2580 C   0  0  0  0  0  0  0  0  0  0  0  0
   35.5730   26.3490   31.4080 C   0  0  0  0  0  0  0  0  0  0  0  0
   34.8670   25.3730   30.7600 C   0  0  0  0  0  0  0  0  0  0  0  0
   35.2730   24.0750   30.9920 C   0  0  0  0  0  0  0  0  0  0  0  0
   36.3150   23.7930   31.8180 C   0  0  0  0  0  0  0  0  0  0  0  0
   37.0150   24.7570   32.4600 N   0  0  0  0  0  0  0  0  0  0  0  0
   35.3060   27.3940   31.2690 H   0  0  0  0  0  0  0  0  0  0  0  0
   34.0490   25.6390   30.1160 H   0  0  0  0  0  0  0  0  0  0  0  0
   34.7350   23.2790   30.4960 H   0  0  0  0  0  0  0  0  0  0  0  0
   37.3310   27.1300   32.8950 C   0  0  0  0  0  0  0  0  0  0  0  0
   36.7390   28.1700   33.1640 O   0  0  0  0  0  0  0  0  0  0  0  0
   39.0890   26.9450   34.6210 C   0  0  0  0  0  0  0  0  0  0  0  0
   38.7570   27.0670   33.2580 C   0  0  0  0  0  0  0  0  0  0  0  0
   39.7790   27.1230   32.3140 C   0  0  0  0  0  0  0  0  0  0  0  0
   41.0780   27.0580   32.7330 N   0  0  0  0  0  0  0  0  0  0  0  0
   41.3720   26.9410   34.0510 C   0  0  0  0  0  0  0  0  0  0  0  0
   40.3980   26.8860   34.9700 N   0  0  0  0  0  0  0  0  0  0  0  0
   38.3240   26.8980   35.3950 H   0  0  0  0  0  0  0  0  0  0  0  0
   39.5310   27.2150   31.2850 H   0  0  0  0  0  0  0  0  0  0  0  0
   42.3510   26.8820   34.4740 H   0  0  0  0  0  0  0  0  0  0  0  0
   36.8460   22.0750   32.1200 S   0  0  0  0  0  0  0  0  0  0  0  0
   38.6430   22.1620   32.3590 C   0  0  0  0  0  0  0  0  0  0  0  0
   38.9680   23.2320   32.2440 H   0  0  0  0  0  0  0  0  0  0  0  0
   39.2190   21.5670   31.6510 H   0  0  0  0  0  0  0  0  0  0  0  0
   38.4550   22.6370   35.8680 C   0  0  1  0  0  0  0  0  0  0  0  0
   37.7900   21.9660   34.6910 C   0  0  0  0  0  0  0  0  0  0  0  0
   38.9490   21.7290   33.7750 C   0  0  2  0  0  0  0  0  0  0  0  0
   40.0410   22.3690   34.2880 O   0  0  0  0  0  0  0  0  0  0  0  0
   39.5910   23.3540   35.1540 C   0  0  0  0  0  0  0  0  0  0  0  0
   38.8260   21.8220   36.5150 H   0  0  0  0  0  0  0  0  0  0  0  0
   37.0050   22.6090   34.2450 H   0  0  0  0  0  0  0  0  0  0  0  0
   37.3070   21.0060   34.9940 H   0  0  0  0  0  0  0  0  0  0  0  0
   39.1630   20.6360   33.7430 H   0  0  0  0  0  0  0  0  0  0  0  0
   40.4060   23.6600   35.8370 H   0  0  0  0  0  0  0  0  0  0  0  0
   39.1210   24.2160   34.6370 H   0  0  0  0  0  0  0  0  0  0  0  0
   37.6050   23.5110   36.4970 O   0  0  0  0  0  0  0  0  0  0  0  0
   38.1230   24.2260   37.5220 C   0  0  0  0  0  2  0  0  0  0  0  0
   38.6410   23.4750   38.6880 C   0  0  0  0  0  2  0  0  0  0  0  0
   38.1060   23.7010   39.6560 H   0  0  0  0  0  0  0  0  0  0  0  0
  1  6  1  0  0  0  0
  1 10  1  0  0  0  0
  2  1  2  0  0  0  0
  3  4  2  0  0  0  0
  3  2  1  0  0  0  0
  4  5  1  0  0  0  0
  5 21  1  0  0  0  0
  5  6  2  0  0  0  0
  7  2  1  0  0  0  0
  8  3  1  0  0  0  0
  9  4  1  0  0  0  0
 10 11  2  0  0  0  0
 10 13  1  0  0  0  0
 12 17  1  0  0  0  0
 12 18  1  0  0  0  0
 13 12  2  0  0  0  0
 14 15  2  0  0  0  0
 14 13  1  0  0  0  0
 15 16  1  0  0  0  0
 16 20  1  0  0  0  0
 16 17  2  0  0  0  0
 19 14  1  0  0  0  0
 21 22  1  0  0  0  0
 22 27  1  0  0  0  0
 23 22  1  0  0  0  0
 24 22  1  0  0  0  0
 25 36  1  0  0  0  0
 25 30  1  1  0  0  0
 26 32  1  0  0  0  0
 26 25  1  0  0  0  0
 27 33  1  6  0  0  0
 27 28  1  0  0  0  0
 27 26  1  0  0  0  0
 28 29  1  0  0  0  0
 29 34  1  0  0  0  0
 29 25  1  0  0  0  0
 31 26  1  0  0  0  0
 35 29  1  0  0  0  0
 36 37  1  0  0  0  0
 37 38  1  0  0  0  0
 38 39  1  0  0  0  0
M  END
>  <minimizedAffinity>
-4.94497538

$$$$

 OpenBabel03262522173D

 39 41  0  0  1  0  0  0  0  0999 V2000
   36.2310   26.6770   31.5620 C   0  0  0  0  0  0  0  0  0  0  0  0
   35.3070   25.7270   31.0930 C   0  0  0  0  0  0  0  0  0  0  0  0
   35.5830   24.3870   31.1220 C   0  0  0  0  0  0  0  0  0  0  0  0
   36.8130   24.0330   31.6350 C   0  0  0  0  0  0  0  0  0  0  0  0
   37.6930   24.9670   32.0830 C   0  0  0  0  0  0  0  0  0  0  0  0
   37.4220   26.2930   32.0560 N   0  0  0  0  0  0  0  0  0  0  0  0
   34.3550   26.0760   30.7010 H   0  0  0  0  0  0  0  0  0  0  0  0
   34.8590   23.6810   30.7570 H   0  0  0  0  0  0  0  0  0  0  0  0
   37.0630   22.9810   31.6720 H   0  0  0  0  0  0  0  0  0  0  0  0
   35.8510   28.0630   31.4920 C   0  0  0  0  0  0  0  0  0  0  0  0
   35.0300   28.5300   32.2730 O   0  0  0  0  0  0  0  0  0  0  0  0
   36.1690   30.3640   30.6510 C   0  0  0  0  0  0  0  0  0  0  0  0
   36.4180   28.9870   30.4940 C   0  0  0  0  0  0  0  0  0  0  0  0
   37.1820   28.5540   29.4140 C   0  0  0  0  0  0  0  0  0  0  0  0
   37.6730   29.4770   28.5330 N   0  0  0  0  0  0  0  0  0  0  0  0
   37.4190   30.7970   28.7060 C   0  0  0  0  0  0  0  0  0  0  0  0
   36.6850   31.2270   29.7410 N   0  0  0  0  0  0  0  0  0  0  0  0
   35.5770   30.7490   31.4800 H   0  0  0  0  0  0  0  0  0  0  0  0
   37.3710   27.5160   29.2940 H   0  0  0  0  0  0  0  0  0  0  0  0
   37.7570   31.5900   28.0740 H   0  0  0  0  0  0  0  0  0  0  0  0
   39.3180   24.4900   32.7600 S   0  0  0  0  0  0  0  0  0  0  0  0
   40.1080   26.0460   33.2560 C   0  0  0  0  0  0  0  0  0  0  0  0
   39.5090   26.9020   32.8370 H   0  0  0  0  0  0  0  0  0  0  0  0
   41.1320   26.1620   32.9030 H   0  0  0  0  0  0  0  0  0  0  0  0
   38.4940   25.4680   36.3590 C   0  0  1  0  0  0  0  0  0  0  0  0
   39.4870   24.8980   35.3760 C   0  0  0  0  0  0  0  0  0  0  0  0
   40.0620   26.1360   34.7640 C   0  0  2  0  0  0  0  0  0  0  0  0
   39.3330   27.2080   35.1970 O   0  0  0  0  0  0  0  0  0  0  0  0
   38.1010   26.7410   35.6260 C   0  0  0  0  0  0  0  0  0  0  0  0
   39.0640   25.6840   37.2800 H   0  0  0  0  0  0  0  0  0  0  0  0
   38.9960   24.2330   34.6390 H   0  0  0  0  0  0  0  0  0  0  0  0
   40.2730   24.3000   35.8980 H   0  0  0  0  0  0  0  0  0  0  0  0
   41.1120   26.2580   35.1160 H   0  0  0  0  0  0  0  0  0  0  0  0
   37.6200   27.4890   36.2850 H   0  0  0  0  0  0  0  0  0  0  0  0
   37.4380   26.4160   34.7970 H   0  0  0  0  0  0  0  0  0  0  0  0
   37.4270   24.6250   36.5440 O   0  0  0  0  0  0  0  0  0  0  0  0
   37.6930   23.4320   37.1220 C   0  0  0  0  0  2  0  0  0  0  0  0
   38.2030   23.4420   38.5110 C   0  0  0  0  0  2  0  0  0  0  0  0
   39.2320   22.9940   38.6280 H   0  0  0  0  0  0  0  0  0  0  0  0
  1  6  1  0  0  0  0
  2  3  1  0  0  0  0
  2  1  2  0  0  0  0
  3  4  2  0  0  0  0
  4  9  1  0  0  0  0
  4  5  1  0  0  0  0
  5 21  1  0  0  0  0
  6  5  2  0  0  0  0
  7  2  1  0  0  0  0
  8  3  1  0  0  0  0
 10  1  1  0  0  0  0
 10 11  2  0  0  0  0
 12 18  1  0  0  0  0
 13 12  1  0  0  0  0
 13 10  1  0  0  0  0
 14 13  2  0  0  0  0
 15 16  2  0  0  0  0
 15 14  1  0  0  0  0
 16 17  1  0  0  0  0
 17 12  2  0  0  0  0
 19 14  1  0  0  0  0
 20 16  1  0  0  0  0
 21 22  1  0  0  0  0
 22 27  1  0  0  0  0
 23 22  1  0  0  0  0
 24 22  1  0  0  0  0
 25 36  1  0  0  0  0
 25 30  1  1  0  0  0
 26 32  1  0  0  0  0
 26 25  1  0  0  0  0
 27 33  1  1  0  0  0
 27 28  1  0  0  0  0
 27 26  1  0  0  0  0
 28 29  1  0  0  0  0
 29 34  1  0  0  0  0
 29 25  1  0  0  0  0
 31 26  1  0  0  0  0
 35 29  1  0  0  0  0
 36 37  1  0  0  0  0
 37 38  1  0  0  0  0
 38 39  1  0  0  0  0
M  END
>  <minimizedAffinity>
-4.93465757

$$$$

 OpenBabel03262522173D

 39 41  0  0  1  0  0  0  0  0999 V2000
   37.4040   26.5520   34.0800 C   0  0  0  0  0  0  0  0  0  0  0  0
   36.8820   27.8210   33.7730 C   0  0  0  0  0  0  0  0  0  0  0  0
   36.1690   28.0420   32.6270 C   0  0  0  0  0  0  0  0  0  0  0  0
   35.9980   26.9520   31.7990 C   0  0  0  0  0  0  0  0  0  0  0  0
   36.5100   25.7330   32.1140 C   0  0  0  0  0  0  0  0  0  0  0  0
   37.2160   25.5120   33.2480 N   0  0  0  0  0  0  0  0  0  0  0  0
   37.0550   28.6370   34.4700 H   0  0  0  0  0  0  0  0  0  0  0  0
   35.7810   29.0220   32.4160 H   0  0  0  0  0  0  0  0  0  0  0  0
   35.4380   27.0930   30.8840 H   0  0  0  0  0  0  0  0  0  0  0  0
   38.1390   26.4160   35.3090 C   0  0  0  0  0  0  0  0  0  0  0  0
   38.3680   27.3910   36.0160 O   0  0  0  0  0  0  0  0  0  0  0  0
   37.8510   24.3760   36.6720 C   0  0  0  0  0  0  0  0  0  0  0  0
   38.6510   25.1190   35.7840 C   0  0  0  0  0  0  0  0  0  0  0  0
   39.8850   24.6050   35.3900 C   0  0  0  0  0  0  0  0  0  0  0  0
   40.2870   23.3930   35.8760 N   0  0  0  0  0  0  0  0  0  0  0  0
   39.4980   22.6970   36.7310 C   0  0  0  0  0  0  0  0  0  0  0  0
   38.3090   23.1800   37.1180 N   0  0  0  0  0  0  0  0  0  0  0  0
   36.8800   24.7370   37.0080 H   0  0  0  0  0  0  0  0  0  0  0  0
   40.4900   25.1650   34.7200 H   0  0  0  0  0  0  0  0  0  0  0  0
   39.7240   21.7470   37.1620 H   0  0  0  0  0  0  0  0  0  0  0  0
   36.2790   24.2960   31.0150 S   0  0  0  0  0  0  0  0  0  0  0  0
   37.9380   23.8860   30.4050 C   0  0  0  0  0  0  0  0  0  0  0  0
   38.6870   24.5330   30.9390 H   0  0  0  0  0  0  0  0  0  0  0  0
   38.0740   24.0430   29.3350 H   0  0  0  0  0  0  0  0  0  0  0  0
   37.4250   21.0190   32.4270 C   0  0  1  0  0  0  0  0  0  0  0  0
   36.9840   21.7140   31.1620 C   0  0  0  0  0  0  0  0  0  0  0  0
   38.2260   22.4450   30.7610 C   0  0  2  0  0  0  0  0  0  0  0  0
   39.1370   22.3340   31.7740 O   0  0  0  0  0  0  0  0  0  0  0  0
   38.4470   22.0250   32.9360 C   0  0  0  0  0  0  0  0  0  0  0  0
   37.9030   20.0750   32.1070 H   0  0  0  0  0  0  0  0  0  0  0  0
   36.1210   22.3850   31.3450 H   0  0  0  0  0  0  0  0  0  0  0  0
   36.6770   20.9750   30.3830 H   0  0  0  0  0  0  0  0  0  0  0  0
   38.6500   21.9620   29.8510 H   0  0  0  0  0  0  0  0  0  0  0  0
   39.1390   21.5960   33.6860 H   0  0  0  0  0  0  0  0  0  0  0  0
   37.8550   22.8730   33.3380 H   0  0  0  0  0  0  0  0  0  0  0  0
   36.3820   20.8520   33.3020 O   0  0  0  0  0  0  0  0  0  0  0  0
   35.3080   20.1730   32.8390 C   0  0  0  0  0  2  0  0  0  0  0  0
   35.3770   18.6940   32.8480 C   0  0  0  0  0  2  0  0  0  0  0  0
   35.3010   18.2220   31.8250 H   0  0  0  0  0  0  0  0  0  0  0  0
  1 10  1  0  0  0  0
  2  1  1  0  0  0  0
  2  7  1  0  0  0  0
  3  2  2  0  0  0  0
  4  5  2  0  0  0  0
  4  3  1  0  0  0  0
  5  6  1  0  0  0  0
  6  1  2  0  0  0  0
  8  3  1  0  0  0  0
  9  4  1  0  0  0  0
 10 13  1  0  0  0  0
 10 11  2  0  0  0  0
 12 18  1  0  0  0  0
 12 17  1  0  0  0  0
 13 12  2  0  0  0  0
 14 13  1  0  0  0  0
 14 15  2  0  0  0  0
 15 16  1  0  0  0  0
 16 17  2  0  0  0  0
 16 20  1  0  0  0  0
 19 14  1  0  0  0  0
 21  5  1  0  0  0  0
 22 27  1  0  0  0  0
 22 23  1  0  0  0  0
 22 21  1  0  0  0  0
 24 22  1  0  0  0  0
 25 30  1  6  0  0  0
 25 29  1  0  0  0  0
 25 36  1  0  0  0  0
 26 31  1  0  0  0  0
 26 25  1  0  0  0  0
 27 33  1  6  0  0  0
 27 26  1  0  0  0  0
 27 28  1  0  0  0  0
 28 29  1  0  0  0  0
 29 35  1  0  0  0  0
 29 34  1  0  0  0  0
 32 26  1  0  0  0  0
 37 38  1  0  0  0  0
 37 36  1  0  0  0  0
 39 38  1  0  0  0  0
M  END
>  <minimizedAffinity>
-4.92779303

$$$$

 OpenBabel03262522173D

 39 41  0  0  1  0  0  0  0  0999 V2000
   35.3680   29.2080   32.9670 C   0  0  0  0  0  0  0  0  0  0  0  0
   35.7480   29.7350   31.7200 C   0  0  0  0  0  0  0  0  0  0  0  0
   36.7710   29.1870   30.9950 C   0  0  0  0  0  0  0  0  0  0  0  0
   37.3970   28.0960   31.5600 C   0  0  0  0  0  0  0  0  0  0  0  0
   37.0150   27.6010   32.7670 C   0  0  0  0  0  0  0  0  0  0  0  0
   36.0030   28.1420   33.4860 N   0  0  0  0  0  0  0  0  0  0  0  0
   35.2110   30.5970   31.3330 H   0  0  0  0  0  0  0  0  0  0  0  0
   37.0410   29.6080   30.0440 H   0  0  0  0  0  0  0  0  0  0  0  0
   38.2100   27.6380   31.0120 H   0  0  0  0  0  0  0  0  0  0  0  0
   34.2810   29.8530   33.6560 C   0  0  0  0  0  0  0  0  0  0  0  0
   33.1220   29.6880   33.2930 O   0  0  0  0  0  0  0  0  0  0  0  0
   33.4350   30.8860   35.7340 C   0  0  0  0  0  0  0  0  0  0  0  0
   34.4940   30.7310   34.8190 C   0  0  0  0  0  0  0  0  0  0  0  0
   35.6900   31.4080   35.0440 C   0  0  0  0  0  0  0  0  0  0  0  0
   35.8070   32.2050   36.1480 N   0  0  0  0  0  0  0  0  0  0  0  0
   34.7730   32.3370   37.0150 C   0  0  0  0  0  0  0  0  0  0  0  0
   33.6170   31.6920   36.8090 N   0  0  0  0  0  0  0  0  0  0  0  0
   32.4820   30.3770   35.5990 H   0  0  0  0  0  0  0  0  0  0  0  0
   36.4890   31.2920   34.3540 H   0  0  0  0  0  0  0  0  0  0  0  0
   34.7690   32.9330   37.9010 H   0  0  0  0  0  0  0  0  0  0  0  0
   37.8490   26.1590   33.5070 S   0  0  0  0  0  0  0  0  0  0  0  0
   37.5760   26.3110   35.2940 C   0  0  0  0  0  0  0  0  0  0  0  0
   36.5250   25.9850   35.5260 H   0  0  0  0  0  0  0  0  0  0  0  0
   37.6980   27.3210   35.6820 H   0  0  0  0  0  0  0  0  0  0  0  0
   38.6000   23.0420   36.2100 C   0  0  1  0  0  0  0  0  0  0  0  0
   38.7820   24.1350   35.1850 C   0  0  0  0  0  0  0  0  0  0  0  0
   38.5250   25.3650   35.9960 C   0  0  2  0  0  0  0  0  0  0  0  0
   38.0620   24.9830   37.2230 O   0  0  0  0  0  0  0  0  0  0  0  0
   37.5610   23.6960   37.1080 C   0  0  0  0  0  0  0  0  0  0  0  0
   39.5740   22.9350   36.7190 H   0  0  0  0  0  0  0  0  0  0  0  0
   38.0810   24.0170   34.3340 H   0  0  0  0  0  0  0  0  0  0  0  0
   39.8190   24.1290   34.7700 H   0  0  0  0  0  0  0  0  0  0  0  0
   39.4860   25.9110   36.1350 H   0  0  0  0  0  0  0  0  0  0  0  0
   37.4950   23.2240   38.1070 H   0  0  0  0  0  0  0  0  0  0  0  0
   36.6050   23.6420   36.5470 H   0  0  0  0  0  0  0  0  0  0  0  0
   38.1360   21.8850   35.6370 O   0  0  0  0  0  0  0  0  0  0  0  0
   37.9450   21.9070   34.2990 C   0  0  0  0  0  2  0  0  0  0  0  0
   36.6490   21.4100   33.7830 C   0  0  0  0  0  2  0  0  0  0  0  0
   36.7370   20.5150   33.1010 H   0  0  0  0  0  0  0  0  0  0  0  0
  1  6  1  0  0  0  0
  1 10  1  0  0  0  0
  2  1  2  0  0  0  0
  3  4  2  0  0  0  0
  3  2  1  0  0  0  0
  4  5  1  0  0  0  0
  5  6  2  0  0  0  0
  5 21  1  0  0  0  0
  7  2  1  0  0  0  0
  8  3  1  0  0  0  0
  9  4  1  0  0  0  0
 10 13  1  0  0  0  0
 11 10  2  0  0  0  0
 12 17  1  0  0  0  0
 13 14  1  0  0  0  0
 13 12  2  0  0  0  0
 14 15  2  0  0  0  0
 15 16  1  0  0  0  0
 16 20  1  0  0  0  0
 17 16  2  0  0  0  0
 18 12  1  0  0  0  0
 19 14  1  0  0  0  0
 21 22  1  0  0  0  0
 22 23  1  0  0  0  0
 22 24  1  0  0  0  0
 22 27  1  0  0  0  0
 25 30  1  1  0  0  0
 25 29  1  0  0  0  0
 26 27  1  0  0  0  0
 26 25  1  0  0  0  0
 27 33  1  1  0  0  0
 27 28  1  0  0  0  0
 29 28  1  0  0  0  0
 29 34  1  0  0  0  0
 31 26  1  0  0  0  0
 32 26  1  0  0  0  0
 35 29  1  0  0  0  0
 36 25  1  0  0  0  0
 37 36  1  0  0  0  0
 38 37  1  0  0  0  0
 39 38  1  0  0  0  0
M  END
>  <minimizedAffinity>
-4.90772915

$$$$

 OpenBabel03262522173D

 39 41  0  0  1  0  0  0  0  0999 V2000
   35.3550   29.5540   32.3660 C   0  0  0  0  0  0  0  0  0  0  0  0
   35.3890   30.5070   31.3330 C   0  0  0  0  0  0  0  0  0  0  0  0
   36.3540   30.4760   30.3640 C   0  0  0  0  0  0  0  0  0  0  0  0
   37.2820   29.4610   30.4650 C   0  0  0  0  0  0  0  0  0  0  0  0
   37.2330   28.5490   31.4720 C   0  0  0  0  0  0  0  0  0  0  0  0
   36.2780   28.5780   32.4310 N   0  0  0  0  0  0  0  0  0  0  0  0
   34.6260   31.2810   31.3140 H   0  0  0  0  0  0  0  0  0  0  0  0
   36.3580   31.2170   29.5850 H   0  0  0  0  0  0  0  0  0  0  0  0
   38.0600   29.4080   29.7140 H   0  0  0  0  0  0  0  0  0  0  0  0
   34.3020   29.6680   33.3400 C   0  0  0  0  0  0  0  0  0  0  0  0
   33.2270   29.1030   33.1720 O   0  0  0  0  0  0  0  0  0  0  0  0
   35.7310   30.9410   34.9010 C   0  0  0  0  0  0  0  0  0  0  0  0
   34.4510   30.4540   34.5770 C   0  0  0  0  0  0  0  0  0  0  0  0
   33.3840   30.7300   35.4280 C   0  0  0  0  0  0  0  0  0  0  0  0
   33.6060   31.4680   36.5570 N   0  0  0  0  0  0  0  0  0  0  0  0
   34.8480   31.9260   36.8470 C   0  0  0  0  0  0  0  0  0  0  0  0
   35.8840   31.6670   36.0360 N   0  0  0  0  0  0  0  0  0  0  0  0
   36.5950   30.7510   34.2660 H   0  0  0  0  0  0  0  0  0  0  0  0
   32.4170   30.3630   35.1850 H   0  0  0  0  0  0  0  0  0  0  0  0
   35.1200   32.5080   37.7000 H   0  0  0  0  0  0  0  0  0  0  0  0
   38.4640   27.2100   31.5980 S   0  0  0  0  0  0  0  0  0  0  0  0
   37.7140   25.9690   32.6890 C   0  0  0  0  0  0  0  0  0  0  0  0
   37.6030   25.0080   32.1160 H   0  0  0  0  0  0  0  0  0  0  0  0
   36.7280   26.2400   33.0660 H   0  0  0  0  0  0  0  0  0  0  0  0
   38.3460   25.1020   36.0690 C   0  0  1  0  0  0  0  0  0  0  0  0
   38.2370   24.5510   34.6680 C   0  0  0  0  0  0  0  0  0  0  0  0
   38.6630   25.7220   33.8400 C   0  0  2  0  0  0  0  0  0  0  0  0
   38.7770   26.8090   34.6600 O   0  0  0  0  0  0  0  0  0  0  0  0
   38.0280   26.5650   35.8000 C   0  0  0  0  0  0  0  0  0  0  0  0
   39.3990   24.9600   36.3720 H   0  0  0  0  0  0  0  0  0  0  0  0
   37.2070   24.2070   34.4440 H   0  0  0  0  0  0  0  0  0  0  0  0
   38.9210   23.6790   34.5230 H   0  0  0  0  0  0  0  0  0  0  0  0
   39.6620   25.5050   33.3980 H   0  0  0  0  0  0  0  0  0  0  0  0
   38.3520   27.2360   36.6180 H   0  0  0  0  0  0  0  0  0  0  0  0
   36.9320   26.6050   35.6260 H   0  0  0  0  0  0  0  0  0  0  0  0
   37.4360   24.5190   36.9130 O   0  0  0  0  0  0  0  0  0  0  0  0
   37.8010   23.3470   37.4800 C   0  0  0  0  0  2  0  0  0  0  0  0
   38.7830   23.3990   38.5870 C   0  0  0  0  0  2  0  0  0  0  0  0
   39.7460   22.8490   38.3750 H   0  0  0  0  0  0  0  0  0  0  0  0
  1  6  1  0  0  0  0
  1 10  1  0  0  0  0
  2  1  2  0  0  0  0
  3  4  2  0  0  0  0
  3  2  1  0  0  0  0
  4  5  1  0  0  0  0
  5 21  1  0  0  0  0
  5  6  2  0  0  0  0
  7  2  1  0  0  0  0
  8  3  1  0  0  0  0
  9  4  1  0  0  0  0
 10 13  1  0  0  0  0
 11 10  2  0  0  0  0
 12 17  1  0  0  0  0
 13 12  2  0  0  0  0
 13 14  1  0  0  0  0
 14 15  2  0  0  0  0
 15 16  1  0  0  0  0
 16 20  1  0  0  0  0
 17 16  2  0  0  0  0
 18 12  1  0  0  0  0
 19 14  1  0  0  0  0
 21 22  1  0  0  0  0
 22 24  1  0  0  0  0
 22 27  1  0  0  0  0
 23 22  1  0  0  0  0
 25 30  1  1  0  0  0
 25 36  1  0  0  0  0
 26 25  1  0  0  0  0
 27 33  1  6  0  0  0
 27 28  1  0  0  0  0
 27 26  1  0  0  0  0
 28 29  1  0  0  0  0
 29 25  1  0  0  0  0
 29 34  1  0  0  0  0
 31 26  1  0  0  0  0
 32 26  1  0  0  0  0
 35 29  1  0  0  0  0
 36 37  1  0  0  0  0
 37 38  1  0  0  0  0
 39 38  1  0  0  0  0
M  END
>  <minimizedAffinity>
-4.89444494

$$$$
