
 OpenBabel03272505493D

 34 37  0  0  0  0  0  0  0  0999 V2000
   37.7360   25.8250   33.6470 C   0  0  0  0  0  0  0  0  0  0  0  0
   37.1200   26.8440   33.0080 C   0  0  0  0  0  0  0  0  0  0  0  0
   36.2900   26.5920   31.9200 C   0  0  0  0  0  0  0  0  0  0  0  0
   36.1180   25.2730   31.5160 C   0  0  0  0  0  0  0  0  0  0  0  0
   36.7630   24.2220   32.1880 C   0  0  0  0  0  0  0  0  0  0  0  0
   37.5490   24.5470   33.2310 N   0  0  0  0  0  0  0  0  0  0  0  0
   37.2660   27.8500   33.3340 H   0  0  0  0  0  0  0  0  0  0  0  0
   35.7760   27.3770   31.3770 H   0  0  0  0  0  0  0  0  0  0  0  0
   35.4900   24.9760   30.6780 H   0  0  0  0  0  0  0  0  0  0  0  0
   38.6380   26.0860   34.8290 C   0  0  0  0  0  0  0  0  0  0  0  0
   39.7260   27.0810   34.6800 C   0  0  0  0  0  0  0  0  0  0  0  0
   38.5220   27.4300   35.4960 C   0  0  0  0  0  0  0  0  0  0  0  0
   40.6640   26.8360   35.2150 H   0  0  0  0  0  0  0  0  0  0  0  0
   39.8030   27.6300   33.7280 H   0  0  0  0  0  0  0  0  0  0  0  0
   38.6920   27.4560   36.5970 H   0  0  0  0  0  0  0  0  0  0  0  0
   37.7530   28.1310   35.1090 H   0  0  0  0  0  0  0  0  0  0  0  0
   37.8520   23.4830   37.3300 C   0  0  0  0  0  0  0  0  0  0  0  0
   39.0100   22.6890   37.3170 C   0  0  0  0  0  0  0  0  0  0  0  0
   40.0500   23.0590   36.4460 C   0  0  0  0  0  0  0  0  0  0  0  0
   39.8870   24.1540   35.6690 N   0  0  0  0  0  0  0  0  0  0  0  0
   38.7490   24.9050   35.7050 C   0  0  0  0  0  0  0  0  0  0  0  0
   37.7430   24.5720   36.5270 N   0  0  0  0  0  0  0  0  0  0  0  0
   37.0300   23.2170   37.9990 H   0  0  0  0  0  0  0  0  0  0  0  0
   39.0900   21.8340   37.9510 H   0  0  0  0  0  0  0  0  0  0  0  0
   40.9630   22.4800   36.3990 H   0  0  0  0  0  0  0  0  0  0  0  0
   36.6100   22.8210   31.7980 C   0  0  0  0  0  0  0  0  0  0  0  0
   37.4090   22.0380   31.0060 N   0  0  0  0  0  0  0  0  0  0  0  0
   36.8220   20.8000   30.9560 C   0  0  0  0  0  0  0  0  0  0  0  0
   35.6950   20.8280   31.6950 N   0  0  0  0  0  0  0  0  0  0  0  0
   35.5650   22.0500   32.2060 N   0  0  0  0  0  0  0  0  0  0  0  0
   37.1600   19.9140   30.4260 H   0  0  0  0  0  0  0  0  0  0  0  0
   34.7060   19.8090   31.9810 C   0  0  0  0  0  2  0  0  0  0  0  0
   35.4120   18.6930   32.7190 C   0  0  0  0  0  2  0  0  0  0  0  0
   36.3690   18.4940   32.1650 H   0  0  0  0  0  0  0  0  0  0  0  0
  1 10  1  0  0  0  0
  2  7  1  0  0  0  0
  2  1  2  0  0  0  0
  3  2  1  0  0  0  0
  4  3  2  0  0  0  0
  4  5  1  0  0  0  0
  5  6  2  0  0  0  0
  6  1  1  0  0  0  0
  8  3  1  0  0  0  0
  9  4  1  0  0  0  0
 10 12  1  0  0  0  0
 10 21  1  0  0  0  0
 11 10  1  0  0  0  0
 11 13  1  0  0  0  0
 11 12  1  0  0  0  0
 12 15  1  0  0  0  0
 14 11  1  0  0  0  0
 16 12  1  0  0  0  0
 17 23  1  0  0  0  0
 18 17  1  0  0  0  0
 18 24  1  0  0  0  0
 19 18  2  0  0  0  0
 20 21  2  0  0  0  0
 20 19  1  0  0  0  0
 21 22  1  0  0  0  0
 22 17  2  0  0  0  0
 25 19  1  0  0  0  0
 26  5  1  0  0  0  0
 26 30  2  0  0  0  0
 27 26  1  0  0  0  0
 28 27  2  0  0  0  0
 28 29  1  0  0  0  0
 29 32  1  0  0  0  0
 29 30  1  0  0  0  0
 31 28  1  0  0  0  0
 32 33  1  0  0  0  0
 34 33  1  0  0  0  0
M  END
>  <minimizedAffinity>
-5.57734442

$$$$

 OpenBabel03272505493D

 34 37  0  0  0  0  0  0  0  0999 V2000
   37.0550   25.7500   32.9430 C   0  0  0  0  0  0  0  0  0  0  0  0
   36.9200   27.0820   33.1200 C   0  0  0  0  0  0  0  0  0  0  0  0
   37.2440   27.6660   34.3400 C   0  0  0  0  0  0  0  0  0  0  0  0
   37.7040   26.8430   35.3610 C   0  0  0  0  0  0  0  0  0  0  0  0
   37.8410   25.4590   35.1670 C   0  0  0  0  0  0  0  0  0  0  0  0
   37.5070   24.9700   33.9580 N   0  0  0  0  0  0  0  0  0  0  0  0
   36.5640   27.6970   32.3220 H   0  0  0  0  0  0  0  0  0  0  0  0
   37.1510   28.7310   34.5260 H   0  0  0  0  0  0  0  0  0  0  0  0
   37.9820   27.2070   36.3480 H   0  0  0  0  0  0  0  0  0  0  0  0
   36.7080   25.1040   31.6230 C   0  0  0  0  0  0  0  0  0  0  0  0
   35.6200   24.0980   31.5950 C   0  0  0  0  0  0  0  0  0  0  0  0
   35.3760   25.4570   31.0180 C   0  0  0  0  0  0  0  0  0  0  0  0
   35.7770   23.2560   30.8930 H   0  0  0  0  0  0  0  0  0  0  0  0
   35.0710   23.8970   32.5290 H   0  0  0  0  0  0  0  0  0  0  0  0
   35.3290   25.4930   29.9050 H   0  0  0  0  0  0  0  0  0  0  0  0
   34.7490   26.2000   31.5530 H   0  0  0  0  0  0  0  0  0  0  0  0
   39.6620   26.0990   29.6410 C   0  0  0  0  0  0  0  0  0  0  0  0
   40.0280   24.8970   29.0160 C   0  0  0  0  0  0  0  0  0  0  0  0
   39.2530   23.7540   29.2840 C   0  0  0  0  0  0  0  0  0  0  0  0
   38.2000   23.8680   30.1250 N   0  0  0  0  0  0  0  0  0  0  0  0
   37.8690   25.0520   30.7170 C   0  0  0  0  0  0  0  0  0  0  0  0
   38.5940   26.1540   30.4760 N   0  0  0  0  0  0  0  0  0  0  0  0
   40.2490   27.0010   29.4480 H   0  0  0  0  0  0  0  0  0  0  0  0
   40.8690   24.8580   28.3600 H   0  0  0  0  0  0  0  0  0  0  0  0
   39.4940   22.8040   28.8270 H   0  0  0  0  0  0  0  0  0  0  0  0
   38.3210   24.5570   36.2130 C   0  0  0  0  0  0  0  0  0  0  0  0
   37.8120   24.3090   37.4600 N   0  0  0  0  0  0  0  0  0  0  0  0
   38.6340   23.3800   38.0440 C   0  0  0  0  0  0  0  0  0  0  0  0
   39.6190   23.0720   37.1760 N   0  0  0  0  0  0  0  0  0  0  0  0
   39.4320   23.7830   36.0670 N   0  0  0  0  0  0  0  0  0  0  0  0
   38.5550   22.9360   39.0320 H   0  0  0  0  0  0  0  0  0  0  0  0
   40.7410   22.1610   37.2790 C   0  0  0  0  0  2  0  0  0  0  0  0
   41.9360   22.8500   36.6570 C   0  0  0  0  0  2  0  0  0  0  0  0
   41.5830   23.2970   35.6880 H   0  0  0  0  0  0  0  0  0  0  0  0
  1  2  2  0  0  0  0
  1  6  1  0  0  0  0
  2  3  1  0  0  0  0
  3  8  1  0  0  0  0
  3  4  2  0  0  0  0
  4  9  1  0  0  0  0
  5  4  1  0  0  0  0
  5 26  1  0  0  0  0
  6  5  2  0  0  0  0
  7  2  1  0  0  0  0
 10  1  1  0  0  0  0
 11 10  1  0  0  0  0
 11 14  1  0  0  0  0
 12 16  1  0  0  0  0
 12 11  1  0  0  0  0
 12 10  1  0  0  0  0
 13 11  1  0  0  0  0
 15 12  1  0  0  0  0
 17 22  1  0  0  0  0
 18 19  1  0  0  0  0
 18 17  2  0  0  0  0
 19 20  2  0  0  0  0
 20 21  1  0  0  0  0
 21 10  1  0  0  0  0
 22 21  2  0  0  0  0
 23 17  1  0  0  0  0
 24 18  1  0  0  0  0
 25 19  1  0  0  0  0
 26 27  1  0  0  0  0
 27 28  2  0  0  0  0
 28 31  1  0  0  0  0
 29 32  1  0  0  0  0
 29 28  1  0  0  0  0
 30 26  2  0  0  0  0
 30 29  1  0  0  0  0
 33 32  1  0  0  0  0
 34 33  1  0  0  0  0
M  END
>  <minimizedAffinity>
-5.41234779

$$$$

 OpenBabel03272505493D

 34 37  0  0  0  0  0  0  0  0999 V2000
   36.0860   28.9680   33.5950 C   0  0  0  0  0  0  0  0  0  0  0  0
   36.3310   29.0380   32.2680 C   0  0  0  0  0  0  0  0  0  0  0  0
   37.1580   28.1020   31.6550 C   0  0  0  0  0  0  0  0  0  0  0  0
   37.7190   27.1040   32.4440 C   0  0  0  0  0  0  0  0  0  0  0  0
   37.4570   27.0400   33.8220 C   0  0  0  0  0  0  0  0  0  0  0  0
   36.6470   27.9820   34.3400 N   0  0  0  0  0  0  0  0  0  0  0  0
   35.8910   29.8140   31.6800 H   0  0  0  0  0  0  0  0  0  0  0  0
   37.3820   28.1200   30.5940 H   0  0  0  0  0  0  0  0  0  0  0  0
   38.3760   26.3280   32.0560 H   0  0  0  0  0  0  0  0  0  0  0  0
   35.1900   29.9770   34.2710 C   0  0  0  0  0  0  0  0  0  0  0  0
   35.7640   30.8210   35.3460 C   0  0  0  0  0  0  0  0  0  0  0  0
   35.4770   31.4310   34.0100 C   0  0  0  0  0  0  0  0  0  0  0  0
   35.0750   31.0520   36.1810 H   0  0  0  0  0  0  0  0  0  0  0  0
   36.8370   30.7150   35.5750 H   0  0  0  0  0  0  0  0  0  0  0  0
   34.5980   32.1160   33.9850 H   0  0  0  0  0  0  0  0  0  0  0  0
   36.2990   31.6740   33.3040 H   0  0  0  0  0  0  0  0  0  0  0  0
   31.8600   28.9040   33.0850 C   0  0  0  0  0  0  0  0  0  0  0  0
   31.1400   28.7670   34.2830 C   0  0  0  0  0  0  0  0  0  0  0  0
   31.8110   29.0460   35.4880 C   0  0  0  0  0  0  0  0  0  0  0  0
   33.1060   29.4300   35.4350 N   0  0  0  0  0  0  0  0  0  0  0  0
   33.7780   29.5540   34.2540 C   0  0  0  0  0  0  0  0  0  0  0  0
   33.1600   29.2930   33.0930 N   0  0  0  0  0  0  0  0  0  0  0  0
   31.3620   28.6930   32.1360 H   0  0  0  0  0  0  0  0  0  0  0  0
   30.1180   28.4600   34.2710 H   0  0  0  0  0  0  0  0  0  0  0  0
   31.3000   28.9550   36.4370 H   0  0  0  0  0  0  0  0  0  0  0  0
   38.0250   26.0080   34.6880 C   0  0  0  0  0  0  0  0  0  0  0  0
   39.1570   25.2530   34.5280 N   0  0  0  0  0  0  0  0  0  0  0  0
   39.2420   24.4330   35.6240 C   0  0  0  0  0  0  0  0  0  0  0  0
   38.1890   24.6810   36.4290 N   0  0  0  0  0  0  0  0  0  0  0  0
   37.4510   25.6340   35.8650 N   0  0  0  0  0  0  0  0  0  0  0  0
   40.0020   23.6920   35.8540 H   0  0  0  0  0  0  0  0  0  0  0  0
   37.7940   24.1070   37.6990 C   0  0  0  0  0  2  0  0  0  0  0  0
   38.9680   23.3050   38.2140 C   0  0  0  0  0  2  0  0  0  0  0  0
   39.3490   22.6980   37.3490 H   0  0  0  0  0  0  0  0  0  0  0  0
  1 10  1  0  0  0  0
  1  6  1  0  0  0  0
  2  1  2  0  0  0  0
  3  2  1  0  0  0  0
  3  4  2  0  0  0  0
  4  5  1  0  0  0  0
  5  6  2  0  0  0  0
  5 26  1  0  0  0  0
  7  2  1  0  0  0  0
  8  3  1  0  0  0  0
  9  4  1  0  0  0  0
 10 11  1  0  0  0  0
 11 14  1  0  0  0  0
 11 13  1  0  0  0  0
 12 10  1  0  0  0  0
 12 11  1  0  0  0  0
 15 12  1  0  0  0  0
 16 12  1  0  0  0  0
 17 22  2  0  0  0  0
 17 18  1  0  0  0  0
 18 19  2  0  0  0  0
 19 25  1  0  0  0  0
 20 19  1  0  0  0  0
 21 10  1  0  0  0  0
 21 20  2  0  0  0  0
 22 21  1  0  0  0  0
 23 17  1  0  0  0  0
 24 18  1  0  0  0  0
 26 30  2  0  0  0  0
 27 26  1  0  0  0  0
 27 28  2  0  0  0  0
 28 31  1  0  0  0  0
 28 29  1  0  0  0  0
 29 32  1  0  0  0  0
 30 29  1  0  0  0  0
 32 33  1  0  0  0  0
 34 33  1  0  0  0  0
M  END
>  <minimizedAffinity>
-5.35839367

$$$$

 OpenBabel03272505493D

 34 37  0  0  0  0  0  0  0  0999 V2000
   38.7530   24.8690   36.1300 C   0  0  0  0  0  0  0  0  0  0  0  0
   37.9280   24.8210   37.1980 C   0  0  0  0  0  0  0  0  0  0  0  0
   38.1000   23.8480   38.1760 C   0  0  0  0  0  0  0  0  0  0  0  0
   39.1370   22.9360   38.0210 C   0  0  0  0  0  0  0  0  0  0  0  0
   39.9900   22.9950   36.9070 C   0  0  0  0  0  0  0  0  0  0  0  0
   39.7580   23.9650   36.0040 N   0  0  0  0  0  0  0  0  0  0  0  0
   37.1360   25.5310   37.2980 H   0  0  0  0  0  0  0  0  0  0  0  0
   37.4620   23.7720   39.0500 H   0  0  0  0  0  0  0  0  0  0  0  0
   39.3520   22.1400   38.7320 H   0  0  0  0  0  0  0  0  0  0  0  0
   38.5770   25.9210   35.0610 C   0  0  0  0  0  0  0  0  0  0  0  0
   38.5160   27.3430   35.4750 C   0  0  0  0  0  0  0  0  0  0  0  0
   39.7460   26.8300   34.7940 C   0  0  0  0  0  0  0  0  0  0  0  0
   37.8230   27.9750   34.8870 H   0  0  0  0  0  0  0  0  0  0  0  0
   38.6550   27.5820   36.5410 H   0  0  0  0  0  0  0  0  0  0  0  0
   39.8800   27.1730   33.7430 H   0  0  0  0  0  0  0  0  0  0  0  0
   40.6800   26.6450   35.3650 H   0  0  0  0  0  0  0  0  0  0  0  0
   37.2890   23.6320   32.4630 C   0  0  0  0  0  0  0  0  0  0  0  0
   36.4630   24.4720   31.7000 C   0  0  0  0  0  0  0  0  0  0  0  0
   36.3580   25.8200   32.0890 C   0  0  0  0  0  0  0  0  0  0  0  0
   37.0520   26.2390   33.1710 N   0  0  0  0  0  0  0  0  0  0  0  0
   37.8480   25.3970   33.8920 C   0  0  0  0  0  0  0  0  0  0  0  0
   37.9630   24.1080   33.5400 N   0  0  0  0  0  0  0  0  0  0  0  0
   37.3870   22.5810   32.1810 H   0  0  0  0  0  0  0  0  0  0  0  0
   35.9350   24.0930   30.8540 H   0  0  0  0  0  0  0  0  0  0  0  0
   35.7330   26.5070   31.5330 H   0  0  0  0  0  0  0  0  0  0  0  0
   41.0930   22.0560   36.7030 C   0  0  0  0  0  0  0  0  0  0  0  0
   41.7190   21.2310   37.5990 N   0  0  0  0  0  0  0  0  0  0  0  0
   42.6880   20.5560   36.9020 C   0  0  0  0  0  0  0  0  0  0  0  0
   42.6540   20.9600   35.6170 N   0  0  0  0  0  0  0  0  0  0  0  0
   41.6890   21.8680   35.4940 N   0  0  0  0  0  0  0  0  0  0  0  0
   43.3910   19.8140   37.2710 H   0  0  0  0  0  0  0  0  0  0  0  0
   43.4460   20.5770   34.4660 C   0  0  0  0  0  2  0  0  0  0  0  0
   43.0160   19.1820   34.0700 C   0  0  0  0  0  2  0  0  0  0  0  0
   42.9610   18.5790   35.0160 H   0  0  0  0  0  0  0  0  0  0  0  0
  1  2  1  0  0  0  0
  2  7  1  0  0  0  0
  2  3  2  0  0  0  0
  3  8  1  0  0  0  0
  4  3  1  0  0  0  0
  4  9  1  0  0  0  0
  5  4  2  0  0  0  0
  6  1  2  0  0  0  0
  6  5  1  0  0  0  0
 10 11  1  0  0  0  0
 10  1  1  0  0  0  0
 11 14  1  0  0  0  0
 12 10  1  0  0  0  0
 12 16  1  0  0  0  0
 12 11  1  0  0  0  0
 13 11  1  0  0  0  0
 15 12  1  0  0  0  0
 17 22  1  0  0  0  0
 18 19  1  0  0  0  0
 18 17  2  0  0  0  0
 19 20  2  0  0  0  0
 20 21  1  0  0  0  0
 21 10  1  0  0  0  0
 22 21  2  0  0  0  0
 23 17  1  0  0  0  0
 24 18  1  0  0  0  0
 25 19  1  0  0  0  0
 26  5  1  0  0  0  0
 26 27  1  0  0  0  0
 28 31  1  0  0  0  0
 28 27  2  0  0  0  0
 29 28  1  0  0  0  0
 30 29  1  0  0  0  0
 30 26  2  0  0  0  0
 32 29  1  0  0  0  0
 33 32  1  0  0  0  0
 33 34  1  0  0  0  0
M  END
>  <minimizedAffinity>
-5.33974552

$$$$

 OpenBabel03272505493D

 34 37  0  0  0  0  0  0  0  0999 V2000
   38.2450   24.8900   35.1690 C   0  0  0  0  0  0  0  0  0  0  0  0
   38.0040   24.6310   36.4730 C   0  0  0  0  0  0  0  0  0  0  0  0
   37.6990   23.3390   36.8890 C   0  0  0  0  0  0  0  0  0  0  0  0
   37.6510   22.3340   35.9300 C   0  0  0  0  0  0  0  0  0  0  0  0
   37.9030   22.6140   34.5770 C   0  0  0  0  0  0  0  0  0  0  0  0
   38.1910   23.8890   34.2540 N   0  0  0  0  0  0  0  0  0  0  0  0
   38.0460   25.4180   37.1940 H   0  0  0  0  0  0  0  0  0  0  0  0
   37.4990   23.0860   37.9240 H   0  0  0  0  0  0  0  0  0  0  0  0
   37.4220   21.2950   36.1570 H   0  0  0  0  0  0  0  0  0  0  0  0
   38.5770   26.2880   34.7060 C   0  0  0  0  0  0  0  0  0  0  0  0
   38.7810   27.3400   35.7290 C   0  0  0  0  0  0  0  0  0  0  0  0
   39.9650   26.7940   34.9940 C   0  0  0  0  0  0  0  0  0  0  0  0
   38.4150   28.3460   35.4490 H   0  0  0  0  0  0  0  0  0  0  0  0
   38.7340   27.0500   36.7910 H   0  0  0  0  0  0  0  0  0  0  0  0
   40.4100   27.4840   34.2410 H   0  0  0  0  0  0  0  0  0  0  0  0
   40.6730   26.0970   35.4890 H   0  0  0  0  0  0  0  0  0  0  0  0
   38.2450   26.6460   31.0440 C   0  0  0  0  0  0  0  0  0  0  0  0
   36.9280   27.1090   30.9020 C   0  0  0  0  0  0  0  0  0  0  0  0
   36.1670   27.2940   32.0700 C   0  0  0  0  0  0  0  0  0  0  0  0
   36.7360   27.0190   33.2650 N   0  0  0  0  0  0  0  0  0  0  0  0
   38.0200   26.5690   33.3700 C   0  0  0  0  0  0  0  0  0  0  0  0
   38.7650   26.3850   32.2700 N   0  0  0  0  0  0  0  0  0  0  0  0
   38.8570   26.4940   30.1510 H   0  0  0  0  0  0  0  0  0  0  0  0
   36.5240   27.3130   29.9350 H   0  0  0  0  0  0  0  0  0  0  0  0
   35.1460   27.6500   32.0130 H   0  0  0  0  0  0  0  0  0  0  0  0
   37.8630   21.5880   33.5350 C   0  0  0  0  0  0  0  0  0  0  0  0
   38.8820   21.0510   32.7930 N   0  0  0  0  0  0  0  0  0  0  0  0
   38.3130   20.1260   31.9560 C   0  0  0  0  0  0  0  0  0  0  0  0
   36.9840   20.1020   32.1810 N   0  0  0  0  0  0  0  0  0  0  0  0
   36.7090   20.9860   33.1360 N   0  0  0  0  0  0  0  0  0  0  0  0
   38.8000   19.4950   31.2180 H   0  0  0  0  0  0  0  0  0  0  0  0
   35.9210   19.3200   31.5810 C   0  0  0  0  0  2  0  0  0  0  0  0
   35.3420   18.4430   32.6690 C   0  0  0  0  0  2  0  0  0  0  0  0
   36.2120   17.9930   33.2190 H   0  0  0  0  0  0  0  0  0  0  0  0
  1  2  1  0  0  0  0
  2  3  2  0  0  0  0
  2  7  1  0  0  0  0
  3  8  1  0  0  0  0
  4  9  1  0  0  0  0
  4  3  1  0  0  0  0
  5  4  2  0  0  0  0
  6  5  1  0  0  0  0
  6  1  2  0  0  0  0
 10 12  1  0  0  0  0
 10  1  1  0  0  0  0
 10 11  1  0  0  0  0
 11 14  1  0  0  0  0
 12 16  1  0  0  0  0
 12 11  1  0  0  0  0
 13 11  1  0  0  0  0
 15 12  1  0  0  0  0
 17 22  1  0  0  0  0
 18 17  2  0  0  0  0
 18 19  1  0  0  0  0
 19 20  2  0  0  0  0
 20 21  1  0  0  0  0
 21 10  1  0  0  0  0
 22 21  2  0  0  0  0
 23 17  1  0  0  0  0
 24 18  1  0  0  0  0
 25 19  1  0  0  0  0
 26  5  1  0  0  0  0
 27 26  1  0  0  0  0
 28 29  1  0  0  0  0
 28 27  2  0  0  0  0
 29 30  1  0  0  0  0
 30 26  2  0  0  0  0
 31 28  1  0  0  0  0
 32 29  1  0  0  0  0
 32 33  1  0  0  0  0
 33 34  1  0  0  0  0
M  END
>  <minimizedAffinity>
-5.27786207

$$$$

 OpenBabel03272505493D

 34 37  0  0  0  0  0  0  0  0999 V2000
   37.5010   26.1820   33.2680 C   0  0  0  0  0  0  0  0  0  0  0  0
   37.2560   27.4600   33.6320 C   0  0  0  0  0  0  0  0  0  0  0  0
   37.4260   27.8600   34.9530 C   0  0  0  0  0  0  0  0  0  0  0  0
   37.8510   26.9130   35.8770 C   0  0  0  0  0  0  0  0  0  0  0  0
   38.1040   25.5880   35.4880 C   0  0  0  0  0  0  0  0  0  0  0  0
   37.9160   25.2780   34.1920 N   0  0  0  0  0  0  0  0  0  0  0  0
   36.9290   28.1720   32.9060 H   0  0  0  0  0  0  0  0  0  0  0  0
   37.2410   28.8740   35.2890 H   0  0  0  0  0  0  0  0  0  0  0  0
   38.0130   27.1300   36.9310 H   0  0  0  0  0  0  0  0  0  0  0  0
   37.3200   25.7360   31.8370 C   0  0  0  0  0  0  0  0  0  0  0  0
   36.7970   26.7140   30.8540 C   0  0  0  0  0  0  0  0  0  0  0  0
   38.2440   26.3350   30.8100 C   0  0  0  0  0  0  0  0  0  0  0  0
   36.1260   26.2920   30.0820 H   0  0  0  0  0  0  0  0  0  0  0  0
   36.6090   27.7450   31.1940 H   0  0  0  0  0  0  0  0  0  0  0  0
   38.5330   25.6790   29.9580 H   0  0  0  0  0  0  0  0  0  0  0  0
   39.0290   27.0320   31.1710 H   0  0  0  0  0  0  0  0  0  0  0  0
   35.5570   22.4960   31.6360 C   0  0  0  0  0  0  0  0  0  0  0  0
   36.6150   21.5770   31.5680 C   0  0  0  0  0  0  0  0  0  0  0  0
   37.9280   22.0840   31.5920 C   0  0  0  0  0  0  0  0  0  0  0  0
   38.1050   23.4210   31.6790 N   0  0  0  0  0  0  0  0  0  0  0  0
   37.0540   24.2890   31.7440 C   0  0  0  0  0  0  0  0  0  0  0  0
   35.7940   23.8290   31.7220 N   0  0  0  0  0  0  0  0  0  0  0  0
   34.5280   22.1280   31.6190 H   0  0  0  0  0  0  0  0  0  0  0  0
   36.4230   20.5300   31.5000 H   0  0  0  0  0  0  0  0  0  0  0  0
   38.7780   21.4160   31.5420 H   0  0  0  0  0  0  0  0  0  0  0  0
   38.5530   24.5590   36.4260 C   0  0  0  0  0  0  0  0  0  0  0  0
   38.0700   24.2310   37.6650 N   0  0  0  0  0  0  0  0  0  0  0  0
   38.8420   23.1960   38.1270 C   0  0  0  0  0  0  0  0  0  0  0  0
   39.7710   22.9030   37.1960 N   0  0  0  0  0  0  0  0  0  0  0  0
   39.5980   23.7270   36.1650 N   0  0  0  0  0  0  0  0  0  0  0  0
   38.7640   22.6670   39.0730 H   0  0  0  0  0  0  0  0  0  0  0  0
   40.8260   21.9110   37.1680 C   0  0  0  0  0  2  0  0  0  0  0  0
   42.0800   22.6030   36.6800 C   0  0  0  0  0  2  0  0  0  0  0  0
   41.7820   23.2200   35.7890 H   0  0  0  0  0  0  0  0  0  0  0  0
  1  2  2  0  0  0  0
  1  6  1  0  0  0  0
  2  3  1  0  0  0  0
  3  8  1  0  0  0  0
  3  4  2  0  0  0  0
  4  9  1  0  0  0  0
  5  4  1  0  0  0  0
  5 26  1  0  0  0  0
  6  5  2  0  0  0  0
  7  2  1  0  0  0  0
 10  1  1  0  0  0  0
 11 14  1  0  0  0  0
 11 10  1  0  0  0  0
 12 11  1  0  0  0  0
 12 16  1  0  0  0  0
 12 10  1  0  0  0  0
 13 11  1  0  0  0  0
 15 12  1  0  0  0  0
 17 22  1  0  0  0  0
 18 19  1  0  0  0  0
 18 17  2  0  0  0  0
 19 20  2  0  0  0  0
 20 21  1  0  0  0  0
 21 10  1  0  0  0  0
 22 21  2  0  0  0  0
 23 17  1  0  0  0  0
 24 18  1  0  0  0  0
 25 19  1  0  0  0  0
 26 27  1  0  0  0  0
 27 28  2  0  0  0  0
 28 31  1  0  0  0  0
 29 28  1  0  0  0  0
 30 26  2  0  0  0  0
 30 29  1  0  0  0  0
 32 29  1  0  0  0  0
 33 32  1  0  0  0  0
 34 33  1  0  0  0  0
M  END
>  <minimizedAffinity>
-5.24971676

$$$$

 OpenBabel03272505493D

 34 37  0  0  0  0  0  0  0  0999 V2000
   37.3170   26.1240   33.1020 C   0  0  0  0  0  0  0  0  0  0  0  0
   36.9660   27.3240   33.6140 C   0  0  0  0  0  0  0  0  0  0  0  0
   37.2710   27.6410   34.9340 C   0  0  0  0  0  0  0  0  0  0  0  0
   37.9390   26.6940   35.7000 C   0  0  0  0  0  0  0  0  0  0  0  0
   38.3000   25.4500   35.1580 C   0  0  0  0  0  0  0  0  0  0  0  0
   37.9690   25.2180   33.8740 N   0  0  0  0  0  0  0  0  0  0  0  0
   36.4520   28.0380   33.0080 H   0  0  0  0  0  0  0  0  0  0  0  0
   37.0090   28.5910   35.3860 H   0  0  0  0  0  0  0  0  0  0  0  0
   38.2210   26.8500   36.7400 H   0  0  0  0  0  0  0  0  0  0  0  0
   36.9920   25.7680   31.6710 C   0  0  0  0  0  0  0  0  0  0  0  0
   36.8720   24.3360   31.3100 C   0  0  0  0  0  0  0  0  0  0  0  0
   35.6360   25.1740   31.4030 C   0  0  0  0  0  0  0  0  0  0  0  0
   37.2460   24.0720   30.3020 H   0  0  0  0  0  0  0  0  0  0  0  0
   36.9730   23.5870   32.1120 H   0  0  0  0  0  0  0  0  0  0  0  0
   35.1650   25.4280   30.4260 H   0  0  0  0  0  0  0  0  0  0  0  0
   34.9410   25.0730   32.2630 H   0  0  0  0  0  0  0  0  0  0  0  0
   37.1400   28.7470   29.4910 C   0  0  0  0  0  0  0  0  0  0  0  0
   38.4400   28.6760   28.9660 C   0  0  0  0  0  0  0  0  0  0  0  0
   39.2530   27.6010   29.3680 C   0  0  0  0  0  0  0  0  0  0  0  0
   38.7480   26.6950   30.2360 N   0  0  0  0  0  0  0  0  0  0  0  0
   37.4790   26.7920   30.7280 C   0  0  0  0  0  0  0  0  0  0  0  0
   36.6860   27.8090   30.3590 N   0  0  0  0  0  0  0  0  0  0  0  0
   36.4880   29.5730   29.1930 H   0  0  0  0  0  0  0  0  0  0  0  0
   38.7920   29.4170   28.2840 H   0  0  0  0  0  0  0  0  0  0  0  0
   40.2630   27.5020   28.9920 H   0  0  0  0  0  0  0  0  0  0  0  0
   39.0030   24.4240   35.9270 C   0  0  0  0  0  0  0  0  0  0  0  0
   38.5950   23.7190   37.0280 N   0  0  0  0  0  0  0  0  0  0  0  0
   39.6270   22.8800   37.3640 C   0  0  0  0  0  0  0  0  0  0  0  0
   40.6370   23.0720   36.4920 N   0  0  0  0  0  0  0  0  0  0  0  0
   40.2620   24.0050   35.6210 N   0  0  0  0  0  0  0  0  0  0  0  0
   39.6770   22.1670   38.1810 H   0  0  0  0  0  0  0  0  0  0  0  0
   41.9450   22.4580   36.3850 C   0  0  0  0  0  2  0  0  0  0  0  0
   41.9310   21.2180   37.2520 C   0  0  0  0  0  2  0  0  0  0  0  0
   41.4580   21.5110   38.2280 H   0  0  0  0  0  0  0  0  0  0  0  0
  1  2  2  0  0  0  0
  1  6  1  0  0  0  0
  2  3  1  0  0  0  0
  3  8  1  0  0  0  0
  3  4  2  0  0  0  0
  4  9  1  0  0  0  0
  5  4  1  0  0  0  0
  5 26  1  0  0  0  0
  6  5  2  0  0  0  0
  7  2  1  0  0  0  0
 10  1  1  0  0  0  0
 11 12  1  0  0  0  0
 11 10  1  0  0  0  0
 11 14  1  0  0  0  0
 12 10  1  0  0  0  0
 12 16  1  0  0  0  0
 13 11  1  0  0  0  0
 15 12  1  0  0  0  0
 17 22  1  0  0  0  0
 18 19  1  0  0  0  0
 18 17  2  0  0  0  0
 19 20  2  0  0  0  0
 20 21  1  0  0  0  0
 21 10  1  0  0  0  0
 22 21  2  0  0  0  0
 23 17  1  0  0  0  0
 24 18  1  0  0  0  0
 25 19  1  0  0  0  0
 26 27  1  0  0  0  0
 27 28  2  0  0  0  0
 28 31  1  0  0  0  0
 29 28  1  0  0  0  0
 30 26  2  0  0  0  0
 30 29  1  0  0  0  0
 32 29  1  0  0  0  0
 32 33  1  0  0  0  0
 33 34  1  0  0  0  0
M  END
>  <minimizedAffinity>
-5.17034245

$$$$

 OpenBabel03272505493D

 34 37  0  0  0  0  0  0  0  0999 V2000
   38.2110   25.2140   35.2410 C   0  0  0  0  0  0  0  0  0  0  0  0
   38.1960   24.9660   36.5690 C   0  0  0  0  0  0  0  0  0  0  0  0
   38.0930   23.6610   37.0400 C   0  0  0  0  0  0  0  0  0  0  0  0
   38.0070   22.6320   36.1100 C   0  0  0  0  0  0  0  0  0  0  0  0
   38.0240   22.9000   34.7320 C   0  0  0  0  0  0  0  0  0  0  0  0
   38.1250   24.1880   34.3560 N   0  0  0  0  0  0  0  0  0  0  0  0
   38.2620   25.7720   37.2670 H   0  0  0  0  0  0  0  0  0  0  0  0
   38.0780   23.4160   38.0970 H   0  0  0  0  0  0  0  0  0  0  0  0
   37.9250   21.5800   36.3810 H   0  0  0  0  0  0  0  0  0  0  0  0
   38.3220   26.6250   34.7180 C   0  0  0  0  0  0  0  0  0  0  0  0
   37.0740   27.3630   34.4100 C   0  0  0  0  0  0  0  0  0  0  0  0
   37.8610   27.7320   35.6280 C   0  0  0  0  0  0  0  0  0  0  0  0
   37.1300   28.0360   33.5330 H   0  0  0  0  0  0  0  0  0  0  0  0
   36.1120   26.8720   34.6240 H   0  0  0  0  0  0  0  0  0  0  0  0
   38.4130   28.6970   35.5580 H   0  0  0  0  0  0  0  0  0  0  0  0
   37.5090   27.4490   36.6420 H   0  0  0  0  0  0  0  0  0  0  0  0
   41.9140   26.9760   33.9290 C   0  0  0  0  0  0  0  0  0  0  0  0
   41.8980   27.2430   32.5510 C   0  0  0  0  0  0  0  0  0  0  0  0
   40.6490   27.3000   31.9070 C   0  0  0  0  0  0  0  0  0  0  0  0
   39.5310   27.0960   32.6410 N   0  0  0  0  0  0  0  0  0  0  0  0
   39.5800   26.8380   33.9800 C   0  0  0  0  0  0  0  0  0  0  0  0
   40.7600   26.7790   34.6150 N   0  0  0  0  0  0  0  0  0  0  0  0
   42.8720   26.9260   34.4520 H   0  0  0  0  0  0  0  0  0  0  0  0
   42.8080   27.3970   32.0160 H   0  0  0  0  0  0  0  0  0  0  0  0
   40.5830   27.5030   30.8460 H   0  0  0  0  0  0  0  0  0  0  0  0
   37.9360   21.8480   33.7200 C   0  0  0  0  0  0  0  0  0  0  0  0
   38.9120   21.3190   32.9170 N   0  0  0  0  0  0  0  0  0  0  0  0
   38.3090   20.3600   32.1450 C   0  0  0  0  0  0  0  0  0  0  0  0
   37.0010   20.3070   32.4670 N   0  0  0  0  0  0  0  0  0  0  0  0
   36.7730   21.2070   33.4200 N   0  0  0  0  0  0  0  0  0  0  0  0
   38.7580   19.7230   31.3880 H   0  0  0  0  0  0  0  0  0  0  0  0
   35.9190   19.4840   31.9660 C   0  0  0  0  0  2  0  0  0  0  0  0
   34.6500   20.3010   32.0680 C   0  0  0  0  0  2  0  0  0  0  0  0
   34.6520   20.7750   33.0860 H   0  0  0  0  0  0  0  0  0  0  0  0
  1  2  1  0  0  0  0
  2  3  2  0  0  0  0
  2  7  1  0  0  0  0
  3  8  1  0  0  0  0
  4  9  1  0  0  0  0
  4  3  1  0  0  0  0
  5  4  2  0  0  0  0
  6  5  1  0  0  0  0
  6  1  2  0  0  0  0
 10  1  1  0  0  0  0
 10 12  1  0  0  0  0
 11 14  1  0  0  0  0
 11 10  1  0  0  0  0
 11 12  1  0  0  0  0
 12 16  1  0  0  0  0
 13 11  1  0  0  0  0
 15 12  1  0  0  0  0
 17 23  1  0  0  0  0
 17 22  1  0  0  0  0
 18 17  2  0  0  0  0
 19 18  1  0  0  0  0
 19 20  2  0  0  0  0
 20 21  1  0  0  0  0
 21 22  2  0  0  0  0
 21 10  1  0  0  0  0
 24 18  1  0  0  0  0
 25 19  1  0  0  0  0
 26  5  1  0  0  0  0
 27 26  1  0  0  0  0
 28 29  1  0  0  0  0
 28 27  2  0  0  0  0
 29 30  1  0  0  0  0
 30 26  2  0  0  0  0
 31 28  1  0  0  0  0
 32 33  1  0  0  0  0
 32 29  1  0  0  0  0
 33 34  1  0  0  0  0
M  END
>  <minimizedAffinity>
-5.14976597

$$$$

 OpenBabel03272505493D

 34 37  0  0  0  0  0  0  0  0999 V2000
   38.5050   25.7060   33.5950 C   0  0  0  0  0  0  0  0  0  0  0  0
   38.1150   24.7300   32.7450 C   0  0  0  0  0  0  0  0  0  0  0  0
   37.0180   24.9220   31.9110 C   0  0  0  0  0  0  0  0  0  0  0  0
   36.3440   26.1350   31.9800 C   0  0  0  0  0  0  0  0  0  0  0  0
   36.7580   27.1430   32.8660 C   0  0  0  0  0  0  0  0  0  0  0  0
   37.8270   26.8810   33.6400 N   0  0  0  0  0  0  0  0  0  0  0  0
   38.6460   23.8050   32.7090 H   0  0  0  0  0  0  0  0  0  0  0  0
   36.6700   24.1670   31.2140 H   0  0  0  0  0  0  0  0  0  0  0  0
   35.4770   26.3780   31.3680 H   0  0  0  0  0  0  0  0  0  0  0  0
   39.6940   25.5100   34.5050 C   0  0  0  0  0  0  0  0  0  0  0  0
   41.0490   25.5100   33.9050 C   0  0  0  0  0  0  0  0  0  0  0  0
   40.6030   26.6910   34.7080 C   0  0  0  0  0  0  0  0  0  0  0  0
   41.7690   24.8090   34.3690 H   0  0  0  0  0  0  0  0  0  0  0  0
   41.1400   25.7060   32.8250 H   0  0  0  0  0  0  0  0  0  0  0  0
   41.0800   26.7860   35.7110 H   0  0  0  0  0  0  0  0  0  0  0  0
   40.3230   27.6450   34.2150 H   0  0  0  0  0  0  0  0  0  0  0  0
   39.7430   22.9000   37.1190 C   0  0  0  0  0  0  0  0  0  0  0  0
   38.6540   23.2590   37.9290 C   0  0  0  0  0  0  0  0  0  0  0  0
   37.9130   24.3980   37.5650 C   0  0  0  0  0  0  0  0  0  0  0  0
   38.2820   25.0870   36.4620 N   0  0  0  0  0  0  0  0  0  0  0  0
   39.3460   24.7120   35.6950 C   0  0  0  0  0  0  0  0  0  0  0  0
   40.0680   23.6300   36.0230 N   0  0  0  0  0  0  0  0  0  0  0  0
   40.3350   22.0190   37.3810 H   0  0  0  0  0  0  0  0  0  0  0  0
   38.4030   22.6820   38.7900 H   0  0  0  0  0  0  0  0  0  0  0  0
   37.0640   24.7160   38.1560 H   0  0  0  0  0  0  0  0  0  0  0  0
   36.0790   28.4340   32.9710 C   0  0  0  0  0  0  0  0  0  0  0  0
   35.5940   29.2530   31.9850 N   0  0  0  0  0  0  0  0  0  0  0  0
   35.0480   30.3420   32.6120 C   0  0  0  0  0  0  0  0  0  0  0  0
   35.1960   30.1920   33.9440 N   0  0  0  0  0  0  0  0  0  0  0  0
   35.8200   29.0380   34.1630 N   0  0  0  0  0  0  0  0  0  0  0  0
   34.5660   31.2070   32.1640 H   0  0  0  0  0  0  0  0  0  0  0  0
   34.8070   31.0340   35.0570 C   0  0  0  0  0  2  0  0  0  0  0  0
   36.0640   31.3650   35.8300 C   0  0  0  0  0  2  0  0  0  0  0  0
   36.6350   30.4050   35.9460 H   0  0  0  0  0  0  0  0  0  0  0  0
  1  6  1  0  0  0  0
  1 10  1  0  0  0  0
  2  1  2  0  0  0  0
  3  4  2  0  0  0  0
  3  2  1  0  0  0  0
  4  5  1  0  0  0  0
  5 26  1  0  0  0  0
  5  6  2  0  0  0  0
  7  2  1  0  0  0  0
  8  3  1  0  0  0  0
  9  4  1  0  0  0  0
 10 12  1  0  0  0  0
 10 21  1  0  0  0  0
 11 13  1  0  0  0  0
 11 10  1  0  0  0  0
 11 12  1  0  0  0  0
 12 15  1  0  0  0  0
 14 11  1  0  0  0  0
 16 12  1  0  0  0  0
 17 23  1  0  0  0  0
 17 18  1  0  0  0  0
 18 24  1  0  0  0  0
 19 18  2  0  0  0  0
 19 25  1  0  0  0  0
 20 19  1  0  0  0  0
 21 22  1  0  0  0  0
 21 20  2  0  0  0  0
 22 17  2  0  0  0  0
 26 30  2  0  0  0  0
 27 28  2  0  0  0  0
 27 26  1  0  0  0  0
 28 29  1  0  0  0  0
 29 30  1  0  0  0  0
 29 32  1  0  0  0  0
 31 28  1  0  0  0  0
 32 33  1  0  0  0  0
 33 34  1  0  0  0  0
M  END
>  <minimizedAffinity>
-5.12294388

$$$$
