
 OpenBabel03272501593D

 25 26  0  0  0  0  0  0  0  0999 V2000
   37.6960   25.6470   35.7810 C   0  0  0  0  0  0  0  0  0  0  0  0
   37.6620   25.2150   34.7690 H   0  0  0  0  0  0  0  0  0  0  0  0
   36.6760   25.8710   36.1760 H   0  0  0  0  0  0  0  0  0  0  0  0
   38.3370   24.6120   36.6660 C   0  0  0  0  0  0  0  0  0  0  0  0
   37.9740   24.3060   37.9480 C   0  0  0  0  0  0  0  0  0  0  0  0
   38.7760   23.3070   38.4580 C   0  0  0  0  0  0  0  0  0  0  0  0
   39.6360   23.0240   37.4340 N   0  0  0  0  0  0  0  0  0  0  0  0
   39.3630   23.8020   36.3860 N   0  0  0  0  0  0  0  0  0  0  0  0
   37.1630   24.7610   38.5370 H   0  0  0  0  0  0  0  0  0  0  0  0
   38.7870   22.8100   39.4310 H   0  0  0  0  0  0  0  0  0  0  0  0
   40.6980   22.0330   37.4510 C   0  0  0  0  0  2  0  0  0  0  0  0
   41.9390   22.5340   36.7470 C   0  0  0  0  0  2  0  0  0  0  0  0
   42.5940   21.6510   36.5480 H   0  0  0  0  0  0  0  0  0  0  0  0
   38.5740   26.8610   35.8390 C   0  0  0  0  0  0  0  0  0  0  0  0
   39.3090   26.8150   36.6790 H   0  0  0  0  0  0  0  0  0  0  0  0
   38.0360   27.8040   35.9690 H   0  0  0  0  0  0  0  0  0  0  0  0
   39.4450   27.1650   32.2590 C   0  0  0  0  0  0  0  0  0  0  0  0
   40.8460   27.1910   32.2760 C   0  0  0  0  0  0  0  0  0  0  0  0
   41.4760   27.1020   33.5420 C   0  0  0  0  0  0  0  0  0  0  0  0
   40.7090   26.9980   34.6580 N   0  0  0  0  0  0  0  0  0  0  0  0
   39.3500   26.9780   34.5660 C   0  0  0  0  0  0  0  0  0  0  0  0
   38.7470   27.0600   33.3860 N   0  0  0  0  0  0  0  0  0  0  0  0
   39.0130   27.2360   31.2670 H   0  0  0  0  0  0  0  0  0  0  0  0
   41.4660   27.2750   31.3910 H   0  0  0  0  0  0  0  0  0  0  0  0
   42.5610   27.1140   33.6540 H   0  0  0  0  0  0  0  0  0  0  0  0
  1 14  1  0  0  0  0
  1  3  1  0  0  0  0
  1  4  1  0  0  0  0
  2  1  1  0  0  0  0
  4  5  1  0  0  0  0
  5  6  2  0  0  0  0
  5  9  1  0  0  0  0
  6 10  1  0  0  0  0
  7 11  1  0  0  0  0
  7  6  1  0  0  0  0
  8  4  2  0  0  0  0
  8  7  1  0  0  0  0
 12 11  1  0  0  0  0
 13 12  1  0  0  0  0
 14 16  1  0  0  0  0
 14 15  1  0  0  0  0
 17 18  2  0  0  0  0
 17 22  1  0  0  0  0
 18 19  1  0  0  0  0
 19 25  1  0  0  0  0
 19 20  2  0  0  0  0
 21 20  1  0  0  0  0
 21 14  1  0  0  0  0
 22 21  2  0  0  0  0
 23 17  1  0  0  0  0
 24 18  1  0  0  0  0
M  END
>  <minimizedAffinity>
-4.27894163

$$$$

 OpenBabel03272501593D

 25 26  0  0  0  0  0  0  0  0999 V2000
   37.6960   27.5810   35.3970 C   0  0  0  0  0  0  0  0  0  0  0  0
   37.8340   28.6190   35.7420 H   0  0  0  0  0  0  0  0  0  0  0  0
   37.1040   26.9730   36.1220 H   0  0  0  0  0  0  0  0  0  0  0  0
   36.9350   27.6610   34.1010 C   0  0  0  0  0  0  0  0  0  0  0  0
   36.1020   28.6730   33.7120 C   0  0  0  0  0  0  0  0  0  0  0  0
   35.5730   28.4190   32.4660 C   0  0  0  0  0  0  0  0  0  0  0  0
   36.1180   27.2150   32.1180 N   0  0  0  0  0  0  0  0  0  0  0  0
   36.9190   26.7830   33.0930 N   0  0  0  0  0  0  0  0  0  0  0  0
   35.8550   29.5860   34.2770 H   0  0  0  0  0  0  0  0  0  0  0  0
   34.8810   28.9880   31.8400 H   0  0  0  0  0  0  0  0  0  0  0  0
   35.8830   26.4880   30.8820 C   0  0  0  0  0  2  0  0  0  0  0  0
   35.1580   25.1840   31.1320 C   0  0  0  0  0  2  0  0  0  0  0  0
   35.2610   24.5590   30.2110 H   0  0  0  0  0  0  0  0  0  0  0  0
   39.0060   26.9220   35.0840 C   0  0  0  0  0  0  0  0  0  0  0  0
   39.8750   27.4780   35.5110 H   0  0  0  0  0  0  0  0  0  0  0  0
   39.2170   26.8210   34.0150 H   0  0  0  0  0  0  0  0  0  0  0  0
   39.9510   23.4270   35.8310 C   0  0  0  0  0  0  0  0  0  0  0  0
   38.9860   23.0320   36.7670 C   0  0  0  0  0  0  0  0  0  0  0  0
   38.0110   23.9930   37.1300 C   0  0  0  0  0  0  0  0  0  0  0  0
   38.0550   25.2280   36.5650 N   0  0  0  0  0  0  0  0  0  0  0  0
   39.0230   25.5430   35.6610 C   0  0  0  0  0  0  0  0  0  0  0  0
   39.9430   24.6510   35.3120 N   0  0  0  0  0  0  0  0  0  0  0  0
   40.6740   22.6560   35.5870 H   0  0  0  0  0  0  0  0  0  0  0  0
   38.9440   22.0500   37.2220 H   0  0  0  0  0  0  0  0  0  0  0  0
   37.2200   23.7770   37.8500 H   0  0  0  0  0  0  0  0  0  0  0  0
  1  2  1  0  0  0  0
  1  3  1  0  0  0  0
  4  1  1  0  0  0  0
  5  4  1  0  0  0  0
  5  9  1  0  0  0  0
  6  5  2  0  0  0  0
  7  6  1  0  0  0  0
  7  8  1  0  0  0  0
  8  4  2  0  0  0  0
 10  6  1  0  0  0  0
 11 12  1  0  0  0  0
 11  7  1  0  0  0  0
 13 12  1  0  0  0  0
 14  1  1  0  0  0  0
 14 15  1  0  0  0  0
 14 21  1  0  0  0  0
 16 14  1  0  0  0  0
 17 18  1  0  0  0  0
 18 19  2  0  0  0  0
 18 24  1  0  0  0  0
 19 25  1  0  0  0  0
 20 19  1  0  0  0  0
 21 20  2  0  0  0  0
 22 21  1  0  0  0  0
 22 17  2  0  0  0  0
 23 17  1  0  0  0  0
M  END
>  <minimizedAffinity>
-4.13175917

$$$$

 OpenBabel03272501593D

 25 26  0  0  0  0  0  0  0  0999 V2000
   37.7110   25.6280   35.4410 C   0  0  0  0  0  0  0  0  0  0  0  0
   36.6470   25.3570   35.3510 H   0  0  0  0  0  0  0  0  0  0  0  0
   37.8500   26.6450   35.8800 H   0  0  0  0  0  0  0  0  0  0  0  0
   38.3320   24.6160   36.3660 C   0  0  0  0  0  0  0  0  0  0  0  0
   37.9410   24.3450   37.6480 C   0  0  0  0  0  0  0  0  0  0  0  0
   38.7300   23.3600   38.2020 C   0  0  0  0  0  0  0  0  0  0  0  0
   39.6120   23.0490   37.2050 N   0  0  0  0  0  0  0  0  0  0  0  0
   39.3630   23.7990   36.1300 N   0  0  0  0  0  0  0  0  0  0  0  0
   37.1170   24.8160   38.2070 H   0  0  0  0  0  0  0  0  0  0  0  0
   38.7200   22.8890   39.1880 H   0  0  0  0  0  0  0  0  0  0  0  0
   40.6720   22.0580   37.2720 C   0  0  0  0  0  2  0  0  0  0  0  0
   41.9920   22.6200   36.7900 C   0  0  0  0  0  2  0  0  0  0  0  0
   42.6760   21.7580   36.6000 H   0  0  0  0  0  0  0  0  0  0  0  0
   38.4290   25.5050   34.1300 C   0  0  0  0  0  0  0  0  0  0  0  0
   39.2710   24.7730   34.1740 H   0  0  0  0  0  0  0  0  0  0  0  0
   38.8680   26.4380   33.7650 H   0  0  0  0  0  0  0  0  0  0  0  0
   36.5050   23.3390   31.8330 C   0  0  0  0  0  0  0  0  0  0  0  0
   35.7010   24.2520   31.1380 C   0  0  0  0  0  0  0  0  0  0  0  0
   35.8390   25.6200   31.4780 C   0  0  0  0  0  0  0  0  0  0  0  0
   36.7250   25.9770   32.4440 N   0  0  0  0  0  0  0  0  0  0  0  0
   37.4760   25.0350   33.0800 C   0  0  0  0  0  0  0  0  0  0  0  0
   37.3570   23.7490   32.7690 N   0  0  0  0  0  0  0  0  0  0  0  0
   36.3620   22.3060   31.5360 H   0  0  0  0  0  0  0  0  0  0  0  0
   34.9920   23.9760   30.3670 H   0  0  0  0  0  0  0  0  0  0  0  0
   35.2560   26.4030   30.9910 H   0  0  0  0  0  0  0  0  0  0  0  0
  1  3  1  0  0  0  0
  1  4  1  0  0  0  0
  2  1  1  0  0  0  0
  4  5  1  0  0  0  0
  5  6  2  0  0  0  0
  5  9  1  0  0  0  0
  6 10  1  0  0  0  0
  7 11  1  0  0  0  0
  7  6  1  0  0  0  0
  8  4  2  0  0  0  0
  8  7  1  0  0  0  0
 12 11  1  0  0  0  0
 13 12  1  0  0  0  0
 14 15  1  0  0  0  0
 14  1  1  0  0  0  0
 16 14  1  0  0  0  0
 17 22  1  0  0  0  0
 18 19  1  0  0  0  0
 18 17  2  0  0  0  0
 19 20  2  0  0  0  0
 20 21  1  0  0  0  0
 21 14  1  0  0  0  0
 22 21  2  0  0  0  0
 23 17  1  0  0  0  0
 24 18  1  0  0  0  0
 25 19  1  0  0  0  0
M  END
>  <minimizedAffinity>
-4.07936096

$$$$

 OpenBabel03272501593D

 25 26  0  0  0  0  0  0  0  0999 V2000
   39.1230   26.3090   34.7050 C   0  0  0  0  0  0  0  0  0  0  0  0
   39.9960   26.4540   34.0490 H   0  0  0  0  0  0  0  0  0  0  0  0
   39.3230   26.6480   35.7500 H   0  0  0  0  0  0  0  0  0  0  0  0
   38.0150   27.1510   34.1310 C   0  0  0  0  0  0  0  0  0  0  0  0
   37.7830   27.3890   32.8050 C   0  0  0  0  0  0  0  0  0  0  0  0
   36.6840   28.2030   32.6390 C   0  0  0  0  0  0  0  0  0  0  0  0
   36.2620   28.4470   33.9150 N   0  0  0  0  0  0  0  0  0  0  0  0
   37.0580   27.8190   34.7820 N   0  0  0  0  0  0  0  0  0  0  0  0
   38.3630   27.0080   31.9490 H   0  0  0  0  0  0  0  0  0  0  0  0
   36.2030   28.6010   31.7420 H   0  0  0  0  0  0  0  0  0  0  0  0
   35.1240   29.2610   34.3050 C   0  0  0  0  0  2  0  0  0  0  0  0
   35.5580   30.6120   34.8280 C   0  0  0  0  0  2  0  0  0  0  0  0
   34.6860   31.0640   35.3620 H   0  0  0  0  0  0  0  0  0  0  0  0
   38.6380   24.8910   34.6820 C   0  0  0  0  0  0  0  0  0  0  0  0
   39.2280   24.2520   33.9820 H   0  0  0  0  0  0  0  0  0  0  0  0
   37.5940   24.7750   34.3780 H   0  0  0  0  0  0  0  0  0  0  0  0
   39.7970   22.8770   37.5580 C   0  0  0  0  0  0  0  0  0  0  0  0
   38.9190   23.2550   38.5820 C   0  0  0  0  0  0  0  0  0  0  0  0
   37.9260   24.2130   38.2580 C   0  0  0  0  0  0  0  0  0  0  0  0
   37.8730   24.7110   36.9950 N   0  0  0  0  0  0  0  0  0  0  0  0
   38.7600   24.2970   36.0480 C   0  0  0  0  0  0  0  0  0  0  0  0
   39.6950   23.4000   36.3390 N   0  0  0  0  0  0  0  0  0  0  0  0
   40.5370   22.1420   37.8560 H   0  0  0  0  0  0  0  0  0  0  0  0
   38.9540   22.8640   39.5910 H   0  0  0  0  0  0  0  0  0  0  0  0
   37.1990   24.5680   38.9900 H   0  0  0  0  0  0  0  0  0  0  0  0
  1  3  1  0  0  0  0
  2  1  1  0  0  0  0
  4  1  1  0  0  0  0
  4  8  2  0  0  0  0
  5  4  1  0  0  0  0
  6  5  2  0  0  0  0
  6  7  1  0  0  0  0
  7 11  1  0  0  0  0
  7  8  1  0  0  0  0
  9  5  1  0  0  0  0
 10  6  1  0  0  0  0
 11 12  1  0  0  0  0
 12 13  1  0  0  0  0
 14  1  1  0  0  0  0
 14 21  1  0  0  0  0
 15 14  1  0  0  0  0
 16 14  1  0  0  0  0
 17 23  1  0  0  0  0
 17 18  1  0  0  0  0
 18 24  1  0  0  0  0
 19 18  2  0  0  0  0
 19 25  1  0  0  0  0
 20 19  1  0  0  0  0
 21 22  1  0  0  0  0
 21 20  2  0  0  0  0
 22 17  2  0  0  0  0
M  END
>  <minimizedAffinity>
-4.07667017

$$$$

 OpenBabel03272501593D

 25 26  0  0  0  0  0  0  0  0999 V2000
   38.1530   25.9750   36.0190 C   0  0  0  0  0  0  0  0  0  0  0  0
   39.2280   26.2090   35.9600 H   0  0  0  0  0  0  0  0  0  0  0  0
   37.6330   26.5820   36.7980 H   0  0  0  0  0  0  0  0  0  0  0  0
   37.5690   26.3160   34.6740 C   0  0  0  0  0  0  0  0  0  0  0  0
   37.0150   27.5130   34.3130 C   0  0  0  0  0  0  0  0  0  0  0  0
   36.5800   27.4750   33.0050 C   0  0  0  0  0  0  0  0  0  0  0  0
   36.8930   26.2110   32.5930 N   0  0  0  0  0  0  0  0  0  0  0  0
   37.4760   25.5410   33.5890 N   0  0  0  0  0  0  0  0  0  0  0  0
   36.9060   28.4130   34.9380 H   0  0  0  0  0  0  0  0  0  0  0  0
   36.0950   28.2280   32.3790 H   0  0  0  0  0  0  0  0  0  0  0  0
   36.6450   25.6470   31.2770 C   0  0  0  0  0  2  0  0  0  0  0  0
   35.2100   25.1910   31.1280 C   0  0  0  0  0  2  0  0  0  0  0  0
   35.1580   24.5280   30.2300 H   0  0  0  0  0  0  0  0  0  0  0  0
   37.9130   24.5100   36.2290 C   0  0  0  0  0  0  0  0  0  0  0  0
   37.4060   24.0330   35.3570 H   0  0  0  0  0  0  0  0  0  0  0  0
   37.2920   24.2730   37.0980 H   0  0  0  0  0  0  0  0  0  0  0  0
   40.5740   22.3350   37.5920 C   0  0  0  0  0  0  0  0  0  0  0  0
   41.6500   22.5730   36.7260 C   0  0  0  0  0  0  0  0  0  0  0  0
   41.4360   23.4930   35.6710 C   0  0  0  0  0  0  0  0  0  0  0  0
   40.2220   24.0910   35.5490 N   0  0  0  0  0  0  0  0  0  0  0  0
   39.2200   23.8130   36.4290 C   0  0  0  0  0  0  0  0  0  0  0  0
   39.4080   22.9520   37.4220 N   0  0  0  0  0  0  0  0  0  0  0  0
   40.7890   21.6230   38.3810 H   0  0  0  0  0  0  0  0  0  0  0  0
   42.6210   22.1000   36.8150 H   0  0  0  0  0  0  0  0  0  0  0  0
   42.2150   23.7410   34.9480 H   0  0  0  0  0  0  0  0  0  0  0  0
  1 14  1  0  0  0  0
  1  3  1  0  0  0  0
  2  1  1  0  0  0  0
  4  1  1  0  0  0  0
  5  4  1  0  0  0  0
  5  9  1  0  0  0  0
  6  5  2  0  0  0  0
  7  6  1  0  0  0  0
  7  8  1  0  0  0  0
  8  4  2  0  0  0  0
 10  6  1  0  0  0  0
 11  7  1  0  0  0  0
 12 11  1  0  0  0  0
 13 12  1  0  0  0  0
 14 21  1  0  0  0  0
 14 16  1  0  0  0  0
 15 14  1  0  0  0  0
 17 23  1  0  0  0  0
 18 24  1  0  0  0  0
 18 17  2  0  0  0  0
 19 18  1  0  0  0  0
 20 19  2  0  0  0  0
 20 21  1  0  0  0  0
 21 22  2  0  0  0  0
 22 17  1  0  0  0  0
 25 19  1  0  0  0  0
M  END
>  <minimizedAffinity>
-4.06777525

$$$$

 OpenBabel03272501593D

 25 26  0  0  0  0  0  0  0  0999 V2000
   37.9600   25.2570   34.7910 C   0  0  0  0  0  0  0  0  0  0  0  0
   38.7820   25.3010   34.0590 H   0  0  0  0  0  0  0  0  0  0  0  0
   37.0470   24.7740   34.3690 H   0  0  0  0  0  0  0  0  0  0  0  0
   38.4580   24.4220   35.9400 C   0  0  0  0  0  0  0  0  0  0  0  0
   37.8820   24.3200   37.1760 C   0  0  0  0  0  0  0  0  0  0  0  0
   38.6030   23.4660   37.9830 C   0  0  0  0  0  0  0  0  0  0  0  0
   39.6360   23.0590   37.1870 N   0  0  0  0  0  0  0  0  0  0  0  0
   39.5350   23.6310   35.9860 N   0  0  0  0  0  0  0  0  0  0  0  0
   36.9690   24.8250   37.5290 H   0  0  0  0  0  0  0  0  0  0  0  0
   38.4530   23.1430   39.0160 H   0  0  0  0  0  0  0  0  0  0  0  0
   40.7000   22.1420   37.5580 C   0  0  0  0  0  2  0  0  0  0  0  0
   41.9570   22.3920   36.7550 C   0  0  0  0  0  2  0  0  0  0  0  0
   42.6200   21.5010   36.8780 H   0  0  0  0  0  0  0  0  0  0  0  0
   37.6430   26.6100   35.3530 C   0  0  0  0  0  0  0  0  0  0  0  0
   38.5380   27.1040   35.8040 H   0  0  0  0  0  0  0  0  0  0  0  0
   36.8810   26.6080   36.1380 H   0  0  0  0  0  0  0  0  0  0  0  0
   35.7550   29.1990   33.5070 C   0  0  0  0  0  0  0  0  0  0  0  0
   36.2660   29.0940   32.2070 C   0  0  0  0  0  0  0  0  0  0  0  0
   37.2680   28.1180   31.9850 C   0  0  0  0  0  0  0  0  0  0  0  0
   37.6800   27.3430   33.0230 N   0  0  0  0  0  0  0  0  0  0  0  0
   37.1390   27.5000   34.2630 C   0  0  0  0  0  0  0  0  0  0  0  0
   36.1980   28.4110   34.4840 N   0  0  0  0  0  0  0  0  0  0  0  0
   34.9920   29.9590   33.6240 H   0  0  0  0  0  0  0  0  0  0  0  0
   35.9450   29.7080   31.3740 H   0  0  0  0  0  0  0  0  0  0  0  0
   37.7250   27.9630   31.0060 H   0  0  0  0  0  0  0  0  0  0  0  0
  1 14  1  0  0  0  0
  1  4  1  0  0  0  0
  2  1  1  0  0  0  0
  3  1  1  0  0  0  0
  4  8  2  0  0  0  0
  4  5  1  0  0  0  0
  5  9  1  0  0  0  0
  5  6  2  0  0  0  0
  6 10  1  0  0  0  0
  7 11  1  0  0  0  0
  7  6  1  0  0  0  0
  8  7  1  0  0  0  0
 12 13  1  0  0  0  0
 12 11  1  0  0  0  0
 14 15  1  0  0  0  0
 14 16  1  0  0  0  0
 17 23  1  0  0  0  0
 17 22  1  0  0  0  0
 18 17  2  0  0  0  0
 19 18  1  0  0  0  0
 19 20  2  0  0  0  0
 20 21  1  0  0  0  0
 21 22  2  0  0  0  0
 21 14  1  0  0  0  0
 24 18  1  0  0  0  0
 25 19  1  0  0  0  0
M  END
>  <minimizedAffinity>
-4.03223515

$$$$

 OpenBabel03272501593D

 25 26  0  0  0  0  0  0  0  0999 V2000
   37.9890   26.9100   35.2370 C   0  0  0  0  0  0  0  0  0  0  0  0
   38.9880   27.3740   35.2500 H   0  0  0  0  0  0  0  0  0  0  0  0
   37.4500   27.0460   36.2050 H   0  0  0  0  0  0  0  0  0  0  0  0
   37.2120   27.6040   34.1510 C   0  0  0  0  0  0  0  0  0  0  0  0
   36.1800   28.4840   34.3300 C   0  0  0  0  0  0  0  0  0  0  0  0
   35.7000   28.9270   33.1180 C   0  0  0  0  0  0  0  0  0  0  0  0
   36.4800   28.2810   32.2010 N   0  0  0  0  0  0  0  0  0  0  0  0
   37.3670   27.5060   32.8270 N   0  0  0  0  0  0  0  0  0  0  0  0
   35.7540   28.8250   35.2870 H   0  0  0  0  0  0  0  0  0  0  0  0
   34.8960   29.6230   32.8650 H   0  0  0  0  0  0  0  0  0  0  0  0
   36.3880   28.3990   30.7560 C   0  0  0  0  0  2  0  0  0  0  0  0
   36.6520   29.8140   30.2930 C   0  0  0  0  0  2  0  0  0  0  0  0
   36.2940   29.8970   29.2380 H   0  0  0  0  0  0  0  0  0  0  0  0
   38.0550   25.4620   34.8560 C   0  0  0  0  0  0  0  0  0  0  0  0
   38.8220   25.2630   34.0690 H   0  0  0  0  0  0  0  0  0  0  0  0
   37.1180   25.0540   34.4640 H   0  0  0  0  0  0  0  0  0  0  0  0
   38.0820   24.0260   38.2630 C   0  0  0  0  0  0  0  0  0  0  0  0
   39.1380   23.1060   38.2090 C   0  0  0  0  0  0  0  0  0  0  0  0
   39.8330   22.9960   36.9800 C   0  0  0  0  0  0  0  0  0  0  0  0
   39.4520   23.7700   35.9300 N   0  0  0  0  0  0  0  0  0  0  0  0
   38.4150   24.6440   36.0540 C   0  0  0  0  0  0  0  0  0  0  0  0
   37.7550   24.7580   37.2010 N   0  0  0  0  0  0  0  0  0  0  0  0
   37.5830   24.0720   39.2240 H   0  0  0  0  0  0  0  0  0  0  0  0
   39.4480   22.4850   39.0400 H   0  0  0  0  0  0  0  0  0  0  0  0
   40.6690   22.3080   36.8430 H   0  0  0  0  0  0  0  0  0  0  0  0
  1  2  1  0  0  0  0
  1  3  1  0  0  0  0
  4  5  1  0  0  0  0
  4  1  1  0  0  0  0
  5  9  1  0  0  0  0
  6  5  2  0  0  0  0
  7  8  1  0  0  0  0
  7  6  1  0  0  0  0
  8  4  2  0  0  0  0
 10  6  1  0  0  0  0
 11  7  1  0  0  0  0
 12 11  1  0  0  0  0
 13 12  1  0  0  0  0
 14  1  1  0  0  0  0
 14 21  1  0  0  0  0
 15 14  1  0  0  0  0
 16 14  1  0  0  0  0
 17 23  1  0  0  0  0
 18 17  1  0  0  0  0
 18 24  1  0  0  0  0
 19 18  2  0  0  0  0
 20 21  2  0  0  0  0
 20 19  1  0  0  0  0
 21 22  1  0  0  0  0
 22 17  2  0  0  0  0
 25 19  1  0  0  0  0
M  END
>  <minimizedAffinity>
-4.00296307

$$$$

 OpenBabel03272501593D

 25 26  0  0  0  0  0  0  0  0999 V2000
   36.9320   23.6750   31.1410 C   0  0  0  0  0  0  0  0  0  0  0  0
   36.9560   24.4310   30.3400 H   0  0  0  0  0  0  0  0  0  0  0  0
   37.6810   22.8650   30.9760 H   0  0  0  0  0  0  0  0  0  0  0  0
   37.2770   24.3970   32.4160 C   0  0  0  0  0  0  0  0  0  0  0  0
   38.0530   23.9160   33.4340 C   0  0  0  0  0  0  0  0  0  0  0  0
   38.1600   24.8430   34.4480 C   0  0  0  0  0  0  0  0  0  0  0  0
   37.4180   25.9010   34.0030 N   0  0  0  0  0  0  0  0  0  0  0  0
   36.9050   25.6210   32.8040 N   0  0  0  0  0  0  0  0  0  0  0  0
   38.5480   22.9330   33.4870 H   0  0  0  0  0  0  0  0  0  0  0  0
   38.6880   24.8160   35.4040 H   0  0  0  0  0  0  0  0  0  0  0  0
   37.2000   27.1550   34.7030 C   0  0  0  0  0  2  0  0  0  0  0  0
   38.2930   27.4270   35.7130 C   0  0  0  0  0  2  0  0  0  0  0  0
   37.9290   28.2320   36.3960 H   0  0  0  0  0  0  0  0  0  0  0  0
   35.5570   23.1080   31.3300 C   0  0  0  0  0  0  0  0  0  0  0  0
   34.9320   23.1950   30.4090 H   0  0  0  0  0  0  0  0  0  0  0  0
   34.9770   23.5830   32.1260 H   0  0  0  0  0  0  0  0  0  0  0  0
   36.0490   19.4530   31.0730 C   0  0  0  0  0  0  0  0  0  0  0  0
   35.8200   19.0110   32.3830 C   0  0  0  0  0  0  0  0  0  0  0  0
   35.4950   19.9970   33.3470 C   0  0  0  0  0  0  0  0  0  0  0  0
   35.4220   21.2990   32.9660 N   0  0  0  0  0  0  0  0  0  0  0  0
   35.6570   21.6570   31.6730 C   0  0  0  0  0  0  0  0  0  0  0  0
   35.9620   20.7420   30.7590 N   0  0  0  0  0  0  0  0  0  0  0  0
   36.2940   18.6600   30.3740 H   0  0  0  0  0  0  0  0  0  0  0  0
   35.8780   17.9760   32.6960 H   0  0  0  0  0  0  0  0  0  0  0  0
   35.3000   19.7480   34.3920 H   0  0  0  0  0  0  0  0  0  0  0  0
  1 14  1  0  0  0  0
  1  4  1  0  0  0  0
  2  1  1  0  0  0  0
  3  1  1  0  0  0  0
  4  8  2  0  0  0  0
  4  5  1  0  0  0  0
  5  9  1  0  0  0  0
  5  6  2  0  0  0  0
  6 10  1  0  0  0  0
  7  6  1  0  0  0  0
  7 11  1  0  0  0  0
  8  7  1  0  0  0  0
 11 12  1  0  0  0  0
 12 13  1  0  0  0  0
 14 21  1  0  0  0  0
 14 16  1  0  0  0  0
 15 14  1  0  0  0  0
 17 18  1  0  0  0  0
 18 24  1  0  0  0  0
 18 19  2  0  0  0  0
 19 25  1  0  0  0  0
 20 19  1  0  0  0  0
 21 20  2  0  0  0  0
 22 17  2  0  0  0  0
 22 21  1  0  0  0  0
 23 17  1  0  0  0  0
M  END
>  <minimizedAffinity>
-3.92656994

$$$$

 OpenBabel03272501593D

 25 26  0  0  0  0  0  0  0  0999 V2000
   38.7900   27.0480   35.4500 C   0  0  0  0  0  0  0  0  0  0  0  0
   39.7590   26.8210   35.9230 H   0  0  0  0  0  0  0  0  0  0  0  0
   38.3680   28.0180   35.8040 H   0  0  0  0  0  0  0  0  0  0  0  0
   39.0520   27.1480   33.9720 C   0  0  0  0  0  0  0  0  0  0  0  0
   40.2660   27.0240   33.3540 C   0  0  0  0  0  0  0  0  0  0  0  0
   40.1380   27.1720   31.9900 C   0  0  0  0  0  0  0  0  0  0  0  0
   38.8020   27.3910   31.8090 N   0  0  0  0  0  0  0  0  0  0  0  0
   38.1770   27.3740   32.9870 N   0  0  0  0  0  0  0  0  0  0  0  0
   41.2390   26.8310   33.8320 H   0  0  0  0  0  0  0  0  0  0  0  0
   40.8740   27.1370   31.1830 H   0  0  0  0  0  0  0  0  0  0  0  0
   38.1290   27.6120   30.5400 C   0  0  0  0  0  2  0  0  0  0  0  0
   36.6260   27.6600   30.7060 C   0  0  0  0  0  2  0  0  0  0  0  0
   36.1710   27.5470   29.6930 H   0  0  0  0  0  0  0  0  0  0  0  0
   37.8060   25.9320   35.6350 C   0  0  0  0  0  0  0  0  0  0  0  0
   37.4650   25.5010   34.6630 H   0  0  0  0  0  0  0  0  0  0  0  0
   36.8940   26.2170   36.1680 H   0  0  0  0  0  0  0  0  0  0  0  0
   38.5920   23.5270   38.3310 C   0  0  0  0  0  0  0  0  0  0  0  0
   39.6570   22.7910   37.7960 C   0  0  0  0  0  0  0  0  0  0  0  0
   40.0930   23.1420   36.4950 C   0  0  0  0  0  0  0  0  0  0  0  0
   39.4710   24.1560   35.8380 N   0  0  0  0  0  0  0  0  0  0  0  0
   38.4400   24.8300   36.4200 C   0  0  0  0  0  0  0  0  0  0  0  0
   38.0220   24.5110   37.6390 N   0  0  0  0  0  0  0  0  0  0  0  0
   38.2960   23.2200   39.3280 H   0  0  0  0  0  0  0  0  0  0  0  0
   40.1590   21.9810   38.3120 H   0  0  0  0  0  0  0  0  0  0  0  0
   40.9160   22.6260   35.9970 H   0  0  0  0  0  0  0  0  0  0  0  0
  1 14  1  0  0  0  0
  1  3  1  0  0  0  0
  1  2  1  0  0  0  0
  4  1  1  0  0  0  0
  5  9  1  0  0  0  0
  5  4  1  0  0  0  0
  6  5  2  0  0  0  0
  7  6  1  0  0  0  0
  7  8  1  0  0  0  0
  8  4  2  0  0  0  0
 10  6  1  0  0  0  0
 11 12  1  0  0  0  0
 11  7  1  0  0  0  0
 13 12  1  0  0  0  0
 14 16  1  0  0  0  0
 14 21  1  0  0  0  0
 15 14  1  0  0  0  0
 17 23  1  0  0  0  0
 18 24  1  0  0  0  0
 18 17  1  0  0  0  0
 19 18  2  0  0  0  0
 20 21  2  0  0  0  0
 20 19  1  0  0  0  0
 21 22  1  0  0  0  0
 22 17  2  0  0  0  0
 25 19  1  0  0  0  0
M  END
>  <minimizedAffinity>
-3.92555547

$$$$
