
 OpenBabel03272507533D

 26 27  0  0  0  0  0  0  0  0999 V2000
   39.7890   22.6860   36.6970 C   0  0  0  0  0  0  0  0  0  0  0  0
   40.2770   23.5190   35.6630 C   0  0  0  0  0  0  0  0  0  0  0  0
   41.6490   23.4720   35.3460 C   0  0  0  0  0  0  0  0  0  0  0  0
   42.4390   22.6260   36.0540 N   0  0  0  0  0  0  0  0  0  0  0  0
   41.9720   21.8540   37.0180 C   0  0  0  0  0  0  0  0  0  0  0  0
   40.6680   21.8730   37.3470 N   0  0  0  0  0  0  0  0  0  0  0  0
   41.8900   24.1440   34.5510 H   0  0  0  0  0  0  0  0  0  0  0  0
   42.6380   21.1930   37.5590 H   0  0  0  0  0  0  0  0  0  0  0  0
   39.3460   24.3680   34.9980 N   0  0  0  0  0  0  0  0  0  0  0  0
   39.1890   25.6480   35.3130 C   0  0  0  0  0  0  0  0  0  0  0  0
   38.2620   26.4250   34.6160 C   0  0  0  0  0  0  0  0  0  0  0  0
   37.5810   25.7690   33.6380 C   0  0  0  0  0  0  0  0  0  0  0  0
   36.7490   26.4960   33.0200 O   0  0  0  0  0  0  0  0  0  0  0  0
   37.7040   24.4950   33.2880 N   0  0  0  0  0  0  0  0  0  0  0  0
   38.6160   23.7830   33.9950 C   0  0  0  0  0  0  0  0  0  0  0  0
   38.7540   22.5500   33.6780 O   0  0  0  0  0  0  0  0  0  0  0  0
   39.7780   26.0840   36.1100 H   0  0  0  0  0  0  0  0  0  0  0  0
   38.1250   27.4710   34.8650 H   0  0  0  0  0  0  0  0  0  0  0  0
   36.9310   23.8650   32.2220 C   0  0  0  0  0  2  0  0  0  0  0  0
   37.5920   24.0840   30.8870 C   0  0  0  0  0  2  0  0  0  0  0  0
   38.6940   24.2920   30.9990 H   0  0  0  0  0  0  0  0  0  0  0  0
   37.6760   23.4140   38.0290 C   0  0  0  0  0  0  0  0  0  0  0  0
   38.1750   24.3570   38.6780 O   0  0  0  0  0  0  0  0  0  0  0  0
   38.4350   22.6490   37.0820 N   0  0  0  0  0  0  0  0  0  0  0  0
   36.6380   23.2170   38.2340 H   0  0  0  0  0  0  0  0  0  0  0  0
   37.8120   21.9330   36.6040 H   0  0  0  0  0  0  0  0  0  0  0  0
  1 24  1  0  0  0  0
  1  6  1  0  0  0  0
  2  1  2  0  0  0  0
  3  2  1  0  0  0  0
  3  4  2  0  0  0  0
  4  5  1  0  0  0  0
  5  6  2  0  0  0  0
  5  8  1  0  0  0  0
  7  3  1  0  0  0  0
  9 10  1  0  0  0  0
  9  2  1  0  0  0  0
 10 17  1  0  0  0  0
 11 18  1  0  0  0  0
 11 10  2  0  0  0  0
 12 11  1  0  0  0  0
 13 12  2  0  0  0  0
 14 12  1  0  0  0  0
 14 15  1  0  0  0  0
 15  9  1  0  0  0  0
 16 15  2  0  0  0  0
 19 14  1  0  0  0  0
 20 21  1  0  0  0  0
 20 19  1  0  0  0  0
 22 25  1  0  0  0  0
 22 23  2  0  0  0  0
 24 22  1  0  0  0  0
 26 24  1  0  0  0  0
M  END
>  <minimizedAffinity>
-4.54127073

$$$$

 OpenBabel03272507533D

 26 27  0  0  0  0  0  0  0  0999 V2000
   39.5170   23.4370   36.2040 C   0  0  0  0  0  0  0  0  0  0  0  0
   39.9400   24.5140   35.3900 C   0  0  0  0  0  0  0  0  0  0  0  0
   41.2750   24.5410   34.9420 C   0  0  0  0  0  0  0  0  0  0  0  0
   42.0950   23.5270   35.3160 N   0  0  0  0  0  0  0  0  0  0  0  0
   41.6890   22.5270   36.0770 C   0  0  0  0  0  0  0  0  0  0  0  0
   40.4210   22.4680   36.5220 N   0  0  0  0  0  0  0  0  0  0  0  0
   41.4680   25.4010   34.3390 H   0  0  0  0  0  0  0  0  0  0  0  0
   42.3760   21.7360   36.3530 H   0  0  0  0  0  0  0  0  0  0  0  0
   38.9840   25.5220   35.0710 N   0  0  0  0  0  0  0  0  0  0  0  0
   38.7930   26.5960   35.8280 C   0  0  0  0  0  0  0  0  0  0  0  0
   37.8430   27.5480   35.4530 C   0  0  0  0  0  0  0  0  0  0  0  0
   37.1760   27.2730   34.3000 C   0  0  0  0  0  0  0  0  0  0  0  0
   36.3230   28.1520   33.9820 O   0  0  0  0  0  0  0  0  0  0  0  0
   37.3330   26.2160   33.5130 N   0  0  0  0  0  0  0  0  0  0  0  0
   38.2670   25.3200   33.9200 C   0  0  0  0  0  0  0  0  0  0  0  0
   38.4370   24.2900   33.1790 O   0  0  0  0  0  0  0  0  0  0  0  0
   39.3730   26.7290   36.7330 H   0  0  0  0  0  0  0  0  0  0  0  0
   37.6790   28.4280   36.0630 H   0  0  0  0  0  0  0  0  0  0  0  0
   36.5740   25.9950   32.2860 C   0  0  0  0  0  2  0  0  0  0  0  0
   37.2370   26.6820   31.1210 C   0  0  0  0  0  2  0  0  0  0  0  0
   38.3340   26.8510   31.3100 H   0  0  0  0  0  0  0  0  0  0  0  0
   37.5760   23.7410   37.9090 C   0  0  0  0  0  0  0  0  0  0  0  0
   38.1840   24.4050   38.7740 O   0  0  0  0  0  0  0  0  0  0  0  0
   38.2020   23.3100   36.6920 N   0  0  0  0  0  0  0  0  0  0  0  0
   36.5500   23.5140   38.1440 H   0  0  0  0  0  0  0  0  0  0  0  0
   37.4980   22.8070   36.0740 H   0  0  0  0  0  0  0  0  0  0  0  0
  1  6  1  0  0  0  0
  1 24  1  0  0  0  0
  2  1  2  0  0  0  0
  3  4  2  0  0  0  0
  3  2  1  0  0  0  0
  4  5  1  0  0  0  0
  5  8  1  0  0  0  0
  5  6  2  0  0  0  0
  7  3  1  0  0  0  0
  9  2  1  0  0  0  0
  9 10  1  0  0  0  0
 10 17  1  0  0  0  0
 11 10  2  0  0  0  0
 11 18  1  0  0  0  0
 12 11  1  0  0  0  0
 13 12  2  0  0  0  0
 14 15  1  0  0  0  0
 14 12  1  0  0  0  0
 15  9  1  0  0  0  0
 16 15  2  0  0  0  0
 19 14  1  0  0  0  0
 20 21  1  0  0  0  0
 20 19  1  0  0  0  0
 22 25  1  0  0  0  0
 22 23  2  0  0  0  0
 24 22  1  0  0  0  0
 26 24  1  0  0  0  0
M  END
>  <minimizedAffinity>
-4.48040819

$$$$

 OpenBabel03272507533D

 26 27  0  0  0  0  0  0  0  0999 V2000
   37.7680   25.3300   34.1810 C   0  0  0  0  0  0  0  0  0  0  0  0
   38.3800   25.6060   35.4270 C   0  0  0  0  0  0  0  0  0  0  0  0
   38.2810   26.9080   35.9560 C   0  0  0  0  0  0  0  0  0  0  0  0
   37.6020   27.8380   35.2400 N   0  0  0  0  0  0  0  0  0  0  0  0
   37.0360   27.5690   34.0770 C   0  0  0  0  0  0  0  0  0  0  0  0
   37.1090   26.3370   33.5420 N   0  0  0  0  0  0  0  0  0  0  0  0
   38.7810   26.9860   36.8960 H   0  0  0  0  0  0  0  0  0  0  0  0
   36.5030   28.3420   33.5380 H   0  0  0  0  0  0  0  0  0  0  0  0
   39.0690   24.5430   36.0790 N   0  0  0  0  0  0  0  0  0  0  0  0
   38.5430   23.8580   37.0870 C   0  0  0  0  0  0  0  0  0  0  0  0
   39.2720   22.8230   37.6780 C   0  0  0  0  0  0  0  0  0  0  0  0
   40.5030   22.6060   37.1390 C   0  0  0  0  0  0  0  0  0  0  0  0
   41.1410   21.6630   37.6910 O   0  0  0  0  0  0  0  0  0  0  0  0
   41.0680   23.2640   36.1350 N   0  0  0  0  0  0  0  0  0  0  0  0
   40.3210   24.2590   35.5960 C   0  0  0  0  0  0  0  0  0  0  0  0
   40.8440   24.9090   34.6250 O   0  0  0  0  0  0  0  0  0  0  0  0
   37.5530   24.1040   37.4490 H   0  0  0  0  0  0  0  0  0  0  0  0
   38.8530   22.2580   38.5010 H   0  0  0  0  0  0  0  0  0  0  0  0
   42.4000   22.9670   35.6150 C   0  0  0  0  0  2  0  0  0  0  0  0
   43.4550   23.6740   36.4250 C   0  0  0  0  0  2  0  0  0  0  0  0
   43.0860   23.9220   37.4600 H   0  0  0  0  0  0  0  0  0  0  0  0
   38.4510   23.5650   32.3960 C   0  0  0  0  0  0  0  0  0  0  0  0
   39.2080   24.2770   31.7030 O   0  0  0  0  0  0  0  0  0  0  0  0
   37.7970   24.0600   33.5730 N   0  0  0  0  0  0  0  0  0  0  0  0
   38.3250   22.5560   32.0450 H   0  0  0  0  0  0  0  0  0  0  0  0
   37.2450   23.2820   34.0420 H   0  0  0  0  0  0  0  0  0  0  0  0
  1  2  1  0  0  0  0
  2  3  2  0  0  0  0
  2  9  1  0  0  0  0
  3  7  1  0  0  0  0
  4  3  1  0  0  0  0
  5  4  2  0  0  0  0
  6  5  1  0  0  0  0
  6  1  2  0  0  0  0
  8  5  1  0  0  0  0
  9 10  1  0  0  0  0
 10 17  1  0  0  0  0
 10 11  2  0  0  0  0
 11 18  1  0  0  0  0
 12 11  1  0  0  0  0
 12 13  2  0  0  0  0
 14 12  1  0  0  0  0
 15  9  1  0  0  0  0
 15 14  1  0  0  0  0
 16 15  2  0  0  0  0
 19 14  1  0  0  0  0
 19 20  1  0  0  0  0
 20 21  1  0  0  0  0
 22 24  1  0  0  0  0
 23 22  2  0  0  0  0
 24 26  1  0  0  0  0
 24  1  1  0  0  0  0
 25 22  1  0  0  0  0
M  END
>  <minimizedAffinity>
-4.40594196

$$$$

 OpenBabel03272507533D

 26 27  0  0  0  0  0  0  0  0999 V2000
   39.6770   22.4590   36.5290 C   0  0  0  0  0  0  0  0  0  0  0  0
   40.1120   22.9020   35.2580 C   0  0  0  0  0  0  0  0  0  0  0  0
   41.4710   22.7510   34.9170 C   0  0  0  0  0  0  0  0  0  0  0  0
   42.2990   22.1860   35.8300 N   0  0  0  0  0  0  0  0  0  0  0  0
   41.8810   21.7770   37.0140 C   0  0  0  0  0  0  0  0  0  0  0  0
   40.5910   21.9050   37.3740 N   0  0  0  0  0  0  0  0  0  0  0  0
   41.6710   23.1220   33.9360 H   0  0  0  0  0  0  0  0  0  0  0  0
   42.5760   21.3310   37.7150 H   0  0  0  0  0  0  0  0  0  0  0  0
   39.1440   23.4850   34.3890 N   0  0  0  0  0  0  0  0  0  0  0  0
   38.3950   22.7640   33.5640 C   0  0  0  0  0  0  0  0  0  0  0  0
   37.4600   23.3990   32.7430 C   0  0  0  0  0  0  0  0  0  0  0  0
   37.4030   24.7520   32.8740 C   0  0  0  0  0  0  0  0  0  0  0  0
   36.5480   25.3020   32.1220 O   0  0  0  0  0  0  0  0  0  0  0  0
   38.1310   25.5120   33.6840 N   0  0  0  0  0  0  0  0  0  0  0  0
   39.0240   24.8490   34.4590 C   0  0  0  0  0  0  0  0  0  0  0  0
   39.7380   25.5600   35.2490 O   0  0  0  0  0  0  0  0  0  0  0  0
   38.5110   21.6880   33.5290 H   0  0  0  0  0  0  0  0  0  0  0  0
   36.8430   22.8210   32.0660 H   0  0  0  0  0  0  0  0  0  0  0  0
   38.0080   26.9650   33.7640 C   0  0  0  0  0  2  0  0  0  0  0  0
   36.9480   27.3530   34.7610 C   0  0  0  0  0  2  0  0  0  0  0  0
   36.7720   26.5370   35.5170 H   0  0  0  0  0  0  0  0  0  0  0  0
   37.6390   23.5360   37.7350 C   0  0  0  0  0  0  0  0  0  0  0  0
   38.1850   24.5860   38.1330 O   0  0  0  0  0  0  0  0  0  0  0  0
   38.3390   22.5530   36.9610 N   0  0  0  0  0  0  0  0  0  0  0  0
   36.6060   23.4240   38.0170 H   0  0  0  0  0  0  0  0  0  0  0  0
   37.6800   21.7660   36.6820 H   0  0  0  0  0  0  0  0  0  0  0  0
  1 24  1  0  0  0  0
  1  6  1  0  0  0  0
  2  1  2  0  0  0  0
  3  2  1  0  0  0  0
  3  4  2  0  0  0  0
  4  5  1  0  0  0  0
  5  6  2  0  0  0  0
  5  8  1  0  0  0  0
  7  3  1  0  0  0  0
  9 15  1  0  0  0  0
  9  2  1  0  0  0  0
 10  9  1  0  0  0  0
 11 12  1  0  0  0  0
 11 10  2  0  0  0  0
 12 14  1  0  0  0  0
 13 12  2  0  0  0  0
 14 19  1  0  0  0  0
 14 15  1  0  0  0  0
 15 16  2  0  0  0  0
 17 10  1  0  0  0  0
 18 11  1  0  0  0  0
 19 20  1  0  0  0  0
 20 21  1  0  0  0  0
 22 25  1  0  0  0  0
 22 23  2  0  0  0  0
 24 22  1  0  0  0  0
 26 24  1  0  0  0  0
M  END
>  <minimizedAffinity>
-4.35344553

$$$$

 OpenBabel03272507533D

 26 27  0  0  0  0  0  0  0  0999 V2000
   39.8130   24.3240   35.5180 C   0  0  0  0  0  0  0  0  0  0  0  0
   38.4360   24.6110   35.6700 C   0  0  0  0  0  0  0  0  0  0  0  0
   37.7240   23.9830   36.7110 C   0  0  0  0  0  0  0  0  0  0  0  0
   38.3990   23.1270   37.5200 N   0  0  0  0  0  0  0  0  0  0  0  0
   39.6850   22.8660   37.3670 C   0  0  0  0  0  0  0  0  0  0  0  0
   40.3950   23.4490   36.3840 N   0  0  0  0  0  0  0  0  0  0  0  0
   36.6990   24.2810   36.7190 H   0  0  0  0  0  0  0  0  0  0  0  0
   40.1850   22.1760   38.0350 H   0  0  0  0  0  0  0  0  0  0  0  0
   37.8420   25.5240   34.7510 N   0  0  0  0  0  0  0  0  0  0  0  0
   37.5940   26.7910   35.0590 C   0  0  0  0  0  0  0  0  0  0  0  0
   37.0140   27.6350   34.1080 C   0  0  0  0  0  0  0  0  0  0  0  0
   36.7490   27.0520   32.9070 C   0  0  0  0  0  0  0  0  0  0  0  0
   36.2260   27.8380   32.0640 O   0  0  0  0  0  0  0  0  0  0  0  0
   36.9780   25.7930   32.5570 N   0  0  0  0  0  0  0  0  0  0  0  0
   37.5410   25.0150   33.5140 C   0  0  0  0  0  0  0  0  0  0  0  0
   37.7730   23.7950   33.2010 O   0  0  0  0  0  0  0  0  0  0  0  0
   37.8400   27.1670   36.0440 H   0  0  0  0  0  0  0  0  0  0  0  0
   36.8080   28.6710   34.3470 H   0  0  0  0  0  0  0  0  0  0  0  0
   36.6620   25.2440   31.2410 C   0  0  0  0  0  2  0  0  0  0  0  0
   35.2330   24.7700   31.1940 C   0  0  0  0  0  2  0  0  0  0  0  0
   34.6000   25.2860   31.9700 H   0  0  0  0  0  0  0  0  0  0  0  0
   41.2520   24.3710   33.3500 C   0  0  0  0  0  0  0  0  0  0  0  0
   41.1170   23.1780   33.0060 O   0  0  0  0  0  0  0  0  0  0  0  0
   40.6160   24.9080   34.5180 N   0  0  0  0  0  0  0  0  0  0  0  0
   41.8800   24.9640   32.7080 H   0  0  0  0  0  0  0  0  0  0  0  0
   40.8160   25.9490   34.6010 H   0  0  0  0  0  0  0  0  0  0  0  0
  1  2  2  0  0  0  0
  1  6  1  0  0  0  0
  2  3  1  0  0  0  0
  3  7  1  0  0  0  0
  3  4  2  0  0  0  0
  5  4  1  0  0  0  0
  5  8  1  0  0  0  0
  6  5  2  0  0  0  0
  9 10  1  0  0  0  0
  9  2  1  0  0  0  0
 10 17  1  0  0  0  0
 11 18  1  0  0  0  0
 11 10  2  0  0  0  0
 12 11  1  0  0  0  0
 13 12  2  0  0  0  0
 14 12  1  0  0  0  0
 14 15  1  0  0  0  0
 15  9  1  0  0  0  0
 16 15  2  0  0  0  0
 19 14  1  0  0  0  0
 20 19  1  0  0  0  0
 20 21  1  0  0  0  0
 22 24  1  0  0  0  0
 23 22  2  0  0  0  0
 24 26  1  0  0  0  0
 24  1  1  0  0  0  0
 25 22  1  0  0  0  0
M  END
>  <minimizedAffinity>
-4.34269619

$$$$

 OpenBabel03272507533D

 26 27  0  0  0  0  0  0  0  0999 V2000
   39.6410   23.0780   36.3640 C   0  0  0  0  0  0  0  0  0  0  0  0
   38.4500   23.7250   35.9590 C   0  0  0  0  0  0  0  0  0  0  0  0
   37.5320   24.1350   36.9460 C   0  0  0  0  0  0  0  0  0  0  0  0
   37.8380   23.8860   38.2450 N   0  0  0  0  0  0  0  0  0  0  0  0
   38.9530   23.2800   38.6110 C   0  0  0  0  0  0  0  0  0  0  0  0
   39.8520   22.8760   37.6950 N   0  0  0  0  0  0  0  0  0  0  0  0
   36.6780   24.6080   36.5140 H   0  0  0  0  0  0  0  0  0  0  0  0
   39.1580   23.1000   39.6590 H   0  0  0  0  0  0  0  0  0  0  0  0
   38.2420   23.9230   34.5640 N   0  0  0  0  0  0  0  0  0  0  0  0
   38.4900   25.0780   33.9580 C   0  0  0  0  0  0  0  0  0  0  0  0
   38.2700   25.2030   32.5850 C   0  0  0  0  0  0  0  0  0  0  0  0
   37.8050   24.0810   31.9720 C   0  0  0  0  0  0  0  0  0  0  0  0
   37.6160   24.2190   30.7290 O   0  0  0  0  0  0  0  0  0  0  0  0
   37.5430   22.9070   32.5350 N   0  0  0  0  0  0  0  0  0  0  0  0
   37.7720   22.8380   33.8700 C   0  0  0  0  0  0  0  0  0  0  0  0
   37.5270   21.7160   34.4370 O   0  0  0  0  0  0  0  0  0  0  0  0
   38.8600   25.9200   34.5300 H   0  0  0  0  0  0  0  0  0  0  0  0
   38.4690   26.1400   32.0800 H   0  0  0  0  0  0  0  0  0  0  0  0
   37.0430   21.7470   31.8030 C   0  0  0  0  0  2  0  0  0  0  0  0
   35.5400   21.7870   31.7090 C   0  0  0  0  0  2  0  0  0  0  0  0
   35.1460   22.8360   31.8230 H   0  0  0  0  0  0  0  0  0  0  0  0
   41.7480   23.3020   34.8550 C   0  0  0  0  0  0  0  0  0  0  0  0
   42.0560   24.4810   35.1290 O   0  0  0  0  0  0  0  0  0  0  0  0
   40.6270   22.6420   35.4580 N   0  0  0  0  0  0  0  0  0  0  0  0
   42.3850   22.8200   34.1330 H   0  0  0  0  0  0  0  0  0  0  0  0
   40.5740   21.6320   35.1290 H   0  0  0  0  0  0  0  0  0  0  0  0
  1  6  1  0  0  0  0
  2  1  2  0  0  0  0
  2  3  1  0  0  0  0
  3  4  2  0  0  0  0
  4  5  1  0  0  0  0
  5  8  1  0  0  0  0
  6  5  2  0  0  0  0
  7  3  1  0  0  0  0
  9  2  1  0  0  0  0
 10 17  1  0  0  0  0
 10  9  1  0  0  0  0
 11 10  2  0  0  0  0
 12 14  1  0  0  0  0
 12 11  1  0  0  0  0
 13 12  2  0  0  0  0
 14 15  1  0  0  0  0
 15 16  2  0  0  0  0
 15  9  1  0  0  0  0
 18 11  1  0  0  0  0
 19 14  1  0  0  0  0
 20 19  1  0  0  0  0
 20 21  1  0  0  0  0
 22 23  2  0  0  0  0
 22 24  1  0  0  0  0
 24  1  1  0  0  0  0
 25 22  1  0  0  0  0
 26 24  1  0  0  0  0
M  END
>  <minimizedAffinity>
-4.27237606

$$$$

 OpenBabel03272507533D

 26 27  0  0  0  0  0  0  0  0999 V2000
   36.5710   28.5530   30.4070 C   0  0  0  0  0  0  0  0  0  0  0  0
   35.9220   27.9060   31.4850 C   0  0  0  0  0  0  0  0  0  0  0  0
   35.1060   28.6700   32.3420 C   0  0  0  0  0  0  0  0  0  0  0  0
   34.9830   29.9980   32.0900 N   0  0  0  0  0  0  0  0  0  0  0  0
   35.5940   30.5910   31.0810 C   0  0  0  0  0  0  0  0  0  0  0  0
   36.3810   29.8920   30.2430 N   0  0  0  0  0  0  0  0  0  0  0  0
   34.6750   28.0680   33.1120 H   0  0  0  0  0  0  0  0  0  0  0  0
   35.4690   31.6540   30.9150 H   0  0  0  0  0  0  0  0  0  0  0  0
   36.1360   26.5070   31.6470 N   0  0  0  0  0  0  0  0  0  0  0  0
   35.3690   25.5920   31.0670 C   0  0  0  0  0  0  0  0  0  0  0  0
   35.6390   24.2350   31.2630 C   0  0  0  0  0  0  0  0  0  0  0  0
   36.7080   23.9700   32.0610 C   0  0  0  0  0  0  0  0  0  0  0  0
   36.9320   22.7350   32.2210 O   0  0  0  0  0  0  0  0  0  0  0  0
   37.5010   24.8500   32.6600 N   0  0  0  0  0  0  0  0  0  0  0  0
   37.1980   26.1530   32.4400 C   0  0  0  0  0  0  0  0  0  0  0  0
   37.9480   27.0220   33.0070 O   0  0  0  0  0  0  0  0  0  0  0  0
   34.5370   25.8990   30.4460 H   0  0  0  0  0  0  0  0  0  0  0  0
   35.0190   23.4800   30.7950 H   0  0  0  0  0  0  0  0  0  0  0  0
   38.6330   24.4810   33.5050 C   0  0  0  0  0  2  0  0  0  0  0  0
   38.1910   24.2980   34.9340 C   0  0  0  0  0  2  0  0  0  0  0  0
   37.0910   24.0640   35.0000 H   0  0  0  0  0  0  0  0  0  0  0  0
   38.8170   27.6950   29.4150 C   0  0  0  0  0  0  0  0  0  0  0  0
   39.5920   28.1270   30.2940 O   0  0  0  0  0  0  0  0  0  0  0  0
   37.3970   27.8780   29.4880 N   0  0  0  0  0  0  0  0  0  0  0  0
   39.2940   27.1780   28.6000 H   0  0  0  0  0  0  0  0  0  0  0  0
   36.9200   27.3900   28.6720 H   0  0  0  0  0  0  0  0  0  0  0  0
  1  2  1  0  0  0  0
  2  9  1  0  0  0  0
  2  3  2  0  0  0  0
  3  7  1  0  0  0  0
  4  3  1  0  0  0  0
  5  4  2  0  0  0  0
  6  1  2  0  0  0  0
  6  5  1  0  0  0  0
  8  5  1  0  0  0  0
  9 15  1  0  0  0  0
 10 11  2  0  0  0  0
 10  9  1  0  0  0  0
 11 12  1  0  0  0  0
 12 13  2  0  0  0  0
 12 14  1  0  0  0  0
 14 19  1  0  0  0  0
 15 14  1  0  0  0  0
 15 16  2  0  0  0  0
 17 10  1  0  0  0  0
 18 11  1  0  0  0  0
 19 20  1  0  0  0  0
 20 21  1  0  0  0  0
 22 24  1  0  0  0  0
 22 23  2  0  0  0  0
 24  1  1  0  0  0  0
 25 22  1  0  0  0  0
 26 24  1  0  0  0  0
M  END
>  <minimizedAffinity>
-4.26990318

$$$$

 OpenBabel03272507533D

 26 27  0  0  0  0  0  0  0  0999 V2000
   38.2620   24.5400   36.4170 C   0  0  0  0  0  0  0  0  0  0  0  0
   39.0910   23.6350   35.7130 C   0  0  0  0  0  0  0  0  0  0  0  0
   39.7910   22.6510   36.4390 C   0  0  0  0  0  0  0  0  0  0  0  0
   39.6360   22.6210   37.7860 N   0  0  0  0  0  0  0  0  0  0  0  0
   38.8600   23.4720   38.4330 C   0  0  0  0  0  0  0  0  0  0  0  0
   38.1770   24.4240   37.7720 N   0  0  0  0  0  0  0  0  0  0  0  0
   40.3780   22.0330   35.7950 H   0  0  0  0  0  0  0  0  0  0  0  0
   38.7650   23.4140   39.5100 H   0  0  0  0  0  0  0  0  0  0  0  0
   39.1740   23.7740   34.2970 N   0  0  0  0  0  0  0  0  0  0  0  0
   40.0620   24.5620   33.7040 C   0  0  0  0  0  0  0  0  0  0  0  0
   40.0920   24.6470   32.3100 C   0  0  0  0  0  0  0  0  0  0  0  0
   39.1710   23.8800   31.6670 C   0  0  0  0  0  0  0  0  0  0  0  0
   39.2210   23.9730   30.4060 O   0  0  0  0  0  0  0  0  0  0  0  0
   38.2670   23.0790   32.2160 N   0  0  0  0  0  0  0  0  0  0  0  0
   38.2770   23.0320   33.5720 C   0  0  0  0  0  0  0  0  0  0  0  0
   37.4140   22.2660   34.1270 O   0  0  0  0  0  0  0  0  0  0  0  0
   40.7580   25.1380   34.3010 H   0  0  0  0  0  0  0  0  0  0  0  0
   40.8120   25.2870   31.8150 H   0  0  0  0  0  0  0  0  0  0  0  0
   37.3100   22.2860   31.4500 C   0  0  0  0  0  2  0  0  0  0  0  0
   36.0460   23.0690   31.2080 C   0  0  0  0  0  2  0  0  0  0  0  0
   36.2280   24.1780   31.2710 H   0  0  0  0  0  0  0  0  0  0  0  0
   37.7900   26.9280   35.5010 C   0  0  0  0  0  0  0  0  0  0  0  0
   38.8870   27.4580   35.7730 O   0  0  0  0  0  0  0  0  0  0  0  0
   37.5120   25.5500   35.7850 N   0  0  0  0  0  0  0  0  0  0  0  0
   37.0680   27.5820   35.0410 H   0  0  0  0  0  0  0  0  0  0  0  0
   36.5450   25.2870   35.4280 H   0  0  0  0  0  0  0  0  0  0  0  0
  1  6  1  0  0  0  0
  2  1  2  0  0  0  0
  2  3  1  0  0  0  0
  3  4  2  0  0  0  0
  4  5  1  0  0  0  0
  5  8  1  0  0  0  0
  6  5  2  0  0  0  0
  7  3  1  0  0  0  0
  9  2  1  0  0  0  0
 10  9  1  0  0  0  0
 10 17  1  0  0  0  0
 11 10  2  0  0  0  0
 12 14  1  0  0  0  0
 12 11  1  0  0  0  0
 13 12  2  0  0  0  0
 14 15  1  0  0  0  0
 15 16  2  0  0  0  0
 15  9  1  0  0  0  0
 18 11  1  0  0  0  0
 19 14  1  0  0  0  0
 20 21  1  0  0  0  0
 20 19  1  0  0  0  0
 22 23  2  0  0  0  0
 22 24  1  0  0  0  0
 24  1  1  0  0  0  0
 25 22  1  0  0  0  0
 26 24  1  0  0  0  0
M  END
>  <minimizedAffinity>
-4.20649815

$$$$

 OpenBabel03272507533D

 26 27  0  0  0  0  0  0  0  0999 V2000
   37.3550   26.1560   30.9810 C   0  0  0  0  0  0  0  0  0  0  0  0
   37.9320   27.3180   31.5450 C   0  0  0  0  0  0  0  0  0  0  0  0
   39.2760   27.2720   31.9650 C   0  0  0  0  0  0  0  0  0  0  0  0
   39.9530   26.1060   31.8090 N   0  0  0  0  0  0  0  0  0  0  0  0
   39.4030   25.0270   31.2820 C   0  0  0  0  0  0  0  0  0  0  0  0
   38.1230   25.0360   30.8700 N   0  0  0  0  0  0  0  0  0  0  0  0
   39.5920   28.2080   32.3700 H   0  0  0  0  0  0  0  0  0  0  0  0
   39.9800   24.1170   31.1760 H   0  0  0  0  0  0  0  0  0  0  0  0
   37.1130   28.4790   31.6600 N   0  0  0  0  0  0  0  0  0  0  0  0
   36.9780   29.3610   30.6770 C   0  0  0  0  0  0  0  0  0  0  0  0
   36.1530   30.4750   30.8540 C   0  0  0  0  0  0  0  0  0  0  0  0
   35.5410   30.5510   32.0670 C   0  0  0  0  0  0  0  0  0  0  0  0
   34.8000   31.5670   32.2010 O   0  0  0  0  0  0  0  0  0  0  0  0
   35.6470   29.6950   33.0760 N   0  0  0  0  0  0  0  0  0  0  0  0
   36.4590   28.6310   32.8550 C   0  0  0  0  0  0  0  0  0  0  0  0
   36.5780   27.7910   33.8130 O   0  0  0  0  0  0  0  0  0  0  0  0
   37.5060   29.2160   29.7430 H   0  0  0  0  0  0  0  0  0  0  0  0
   36.0350   31.2010   30.0600 H   0  0  0  0  0  0  0  0  0  0  0  0
   34.9530   29.8510   34.3510 C   0  0  0  0  0  2  0  0  0  0  0  0
   35.7240   30.7670   35.2660 C   0  0  0  0  0  2  0  0  0  0  0  0
   36.4050   31.4530   34.6870 H   0  0  0  0  0  0  0  0  0  0  0  0
   34.9430   25.1990   30.7860 C   0  0  0  0  0  0  0  0  0  0  0  0
   35.0460   24.2550   31.5970 O   0  0  0  0  0  0  0  0  0  0  0  0
   36.0250   26.1020   30.5200 N   0  0  0  0  0  0  0  0  0  0  0  0
   33.9860   25.2820   30.3000 H   0  0  0  0  0  0  0  0  0  0  0  0
   35.7140   26.8600   29.8420 H   0  0  0  0  0  0  0  0  0  0  0  0
  1  2  1  0  0  0  0
  2  9  1  0  0  0  0
  2  3  2  0  0  0  0
  3  7  1  0  0  0  0
  4  3  1  0  0  0  0
  5  4  2  0  0  0  0
  6  1  2  0  0  0  0
  6  5  1  0  0  0  0
  8  5  1  0  0  0  0
  9 15  1  0  0  0  0
 10 11  2  0  0  0  0
 10  9  1  0  0  0  0
 11 12  1  0  0  0  0
 12 13  2  0  0  0  0
 12 14  1  0  0  0  0
 14 19  1  0  0  0  0
 15 14  1  0  0  0  0
 15 16  2  0  0  0  0
 17 10  1  0  0  0  0
 18 11  1  0  0  0  0
 19 20  1  0  0  0  0
 21 20  1  0  0  0  0
 22 23  2  0  0  0  0
 24 22  1  0  0  0  0
 24  1  1  0  0  0  0
 25 22  1  0  0  0  0
 26 24  1  0  0  0  0
M  END
>  <minimizedAffinity>
-4.20512486

$$$$
