
     RDKit          3D

 33 35  0  0  0  0  0  0  0  0999 V2000
   33.8291   28.7909   48.2763 C   0  0  0  0  0  0  0  0  0  0  0  0
   34.4321   28.4276   49.4368 C   0  0  0  0  0  0  0  0  0  0  0  0
   35.7048   28.7950   49.8128 C   0  0  0  0  0  0  0  0  0  0  0  0
   36.4558   29.5824   48.9915 C   0  0  0  0  0  0  0  0  0  0  0  0
   35.8459   29.9652   47.7900 C   0  0  0  0  0  0  0  0  0  0  0  0
   34.5966   29.5803   47.4653 N   0  0  0  0  0  0  0  0  0  0  0  0
   31.6493   27.6634   48.6954 C   0  0  0  0  0  0  0  0  0  0  0  0
   32.5097   28.4093   47.8767 C   0  0  0  0  0  0  0  0  0  0  0  0
   32.0361   28.7625   46.6428 C   0  0  0  0  0  0  0  0  0  0  0  0
   30.7763   28.3853   46.2631 N   0  0  0  0  0  0  0  0  0  0  0  0
   29.9821   27.6587   47.1017 C   0  0  0  0  0  0  0  0  0  0  0  0
   30.4088   27.2878   48.3308 N   0  0  0  0  0  0  0  0  0  0  0  0
   37.7494   30.0483   49.2043 O   0  0  0  0  0  0  0  0  0  0  0  0
   38.1598   31.2972   48.7778 C   0  0  0  0  0  0  0  0  0  0  0  0
   37.8751   32.3231   49.6785 C   0  0  0  0  0  0  0  0  0  0  0  0
   38.3444   33.5067   49.1126 C   0  0  0  0  0  0  0  0  0  0  0  0
   38.8802   33.1784   47.9294 N   0  0  0  0  0  0  0  0  0  0  0  0
   38.7716   31.8866   47.7351 N   0  0  0  0  0  0  0  0  0  0  0  0
   33.9065   27.8027   50.1465 H   0  0  0  0  0  0  0  0  0  0  0  0
   36.1771   28.5010   50.7391 H   0  0  0  0  0  0  0  0  0  0  0  0
   36.3356   30.5879   47.0549 H   0  0  0  0  0  0  0  0  0  0  0  0
   31.9753   27.3594   49.6806 H   0  0  0  0  0  0  0  0  0  0  0  0
   32.6487   29.3348   45.9704 H   0  0  0  0  0  0  0  0  0  0  0  0
   29.0082   27.4346   46.6585 H   0  0  0  0  0  0  0  0  0  0  0  0
   37.3994   32.3963   50.6593 H   0  0  0  0  0  0  0  0  0  0  0  0
   38.3141   34.5247   49.4990 H   0  0  0  0  0  0  0  0  0  0  0  0
   39.4889   34.1107   47.0025 C   0  0  0  0  0  0  0  0  0  0  0  0
   40.7806   33.4875   46.5220 C   0  0  0  0  0  0  0  0  0  0  0  0
   41.6285   33.9499   47.0457 H   0  0  0  0  0  0  0  0  0  0  0  0
   38.7925   34.2526   46.1429 H   0  0  0  0  0  0  0  0  0  0  0  0
   39.6506   35.0961   47.4752 H   0  0  0  0  0  0  0  0  0  0  0  0
   40.7930   32.3991   46.6914 H   0  0  0  0  0  0  0  0  0  0  0  0
   40.8404   33.6540   45.4131 H   0  0  0  0  0  0  0  0  0  0  0  0
  1  2  2  0
  2  3  1  0
  4 13  1  0
  4  3  2  0
  5  4  1  0
  6  5  2  0
  6  1  1  0
  8  1  1  0
  8  7  2  0
  9  8  1  0
 10  9  2  0
 10 11  1  0
 11 12  2  0
 12  7  1  0
 14 13  1  0
 14 15  1  0
 16 15  2  0
 17 16  1  0
 18 17  1  0
 18 14  2  0
  2 19  1  0
  3 20  1  0
  5 21  1  0
  7 22  1  0
  9 23  1  0
 11 24  1  0
 15 25  1  0
 16 26  1  0
 27 28  1  0
 28 29  1  0
 27 30  1  0
 27 31  1  0
 28 32  1  0
 28 33  1  0
 17 27  1  0
M  ISO  8  19  14  20  14  21  14  22  14  23  14  24  14  25  14  26  14
M  ISO  1  29   8
M  END
>  <DihAtoms>  (1) 
15,16,26,27

>  <DihDeg>  (1) 
-90.00026764175277

$$$$
