
 OpenBabel03272510113D

 29 31  0  0  0  0  0  0  0  0999 V2000
   34.0270   28.8380   48.3120 C   0  0  0  0  0  0  0  0  0  0  0  0
   34.6600   28.3680   49.4170 C   0  0  0  0  0  0  0  0  0  0  0  0
   35.8910   28.7960   49.8640 C   0  0  0  0  0  0  0  0  0  0  0  0
   36.5640   29.7620   49.1780 C   0  0  0  0  0  0  0  0  0  0  0  0
   35.9220   30.2570   48.0350 C   0  0  0  0  0  0  0  0  0  0  0  0
   34.7170   29.8060   47.6370 N   0  0  0  0  0  0  0  0  0  0  0  0
   34.1960   27.5980   50.0200 H   0  0  0  0  0  0  0  0  0  0  0  0
   36.3870   28.4160   50.7450 H   0  0  0  0  0  0  0  0  0  0  0  0
   36.3510   31.0250   47.4060 H   0  0  0  0  0  0  0  0  0  0  0  0
   31.9270   27.5240   48.5680 C   0  0  0  0  0  0  0  0  0  0  0  0
   32.7520   28.3940   47.8400 C   0  0  0  0  0  0  0  0  0  0  0  0
   32.2880   28.8090   46.6220 C   0  0  0  0  0  0  0  0  0  0  0  0
   31.0710   28.3740   46.1710 N   0  0  0  0  0  0  0  0  0  0  0  0
   30.3100   27.5270   46.9240 C   0  0  0  0  0  0  0  0  0  0  0  0
   30.7300   27.0900   48.1340 N   0  0  0  0  0  0  0  0  0  0  0  0
   32.2480   27.1660   49.5370 H   0  0  0  0  0  0  0  0  0  0  0  0
   32.8740   29.4780   46.0170 H   0  0  0  0  0  0  0  0  0  0  0  0
   29.3690   27.2690   46.4310 H   0  0  0  0  0  0  0  0  0  0  0  0
   37.8050   30.3140   49.4770 O   0  0  0  0  0  0  0  0  0  0  0  0
   38.3800   31.2980   48.6950 C   0  0  0  0  0  0  0  0  0  0  0  0
   38.4430   32.5460   49.3140 C   0  0  0  0  0  0  0  0  0  0  0  0
   39.0400   33.4220   48.4100 C   0  0  0  0  0  0  0  0  0  0  0  0
   39.3120   32.7080   47.3090 N   0  0  0  0  0  0  0  0  0  0  0  0
   38.9270   31.4670   47.4770 N   0  0  0  0  0  0  0  0  0  0  0  0
   38.1470   32.9570   50.2820 H   0  0  0  0  0  0  0  0  0  0  0  0
   39.2690   34.4820   48.5130 H   0  0  0  0  0  0  0  0  0  0  0  0
   39.9400   33.2290   46.1120 C   0  0  0  0  0  2  0  0  0  0  0  0
   39.0940   32.7950   44.9360 C   0  0  0  0  0  2  0  0  0  0  0  0
   39.5730   31.9450   44.4320 H   0  0  0  0  0  0  0  0  0  0  0  0
  1  2  1  0  0  0  0
  2  3  2  0  0  0  0
  2  7  1  0  0  0  0
  3  8  1  0  0  0  0
  4 19  1  0  0  0  0
  4  3  1  0  0  0  0
  5  4  2  0  0  0  0
  6  5  1  0  0  0  0
  6  1  2  0  0  0  0
  9  5  1  0  0  0  0
 10 16  1  0  0  0  0
 11  1  1  0  0  0  0
 11 10  2  0  0  0  0
 12 11  1  0  0  0  0
 13 12  2  0  0  0  0
 13 14  1  0  0  0  0
 14 15  2  0  0  0  0
 15 10  1  0  0  0  0
 17 12  1  0  0  0  0
 18 14  1  0  0  0  0
 20 21  1  0  0  0  0
 20 19  1  0  0  0  0
 21 25  1  0  0  0  0
 22 26  1  0  0  0  0
 22 21  2  0  0  0  0
 23 24  1  0  0  0  0
 23 22  1  0  0  0  0
 24 20  2  0  0  0  0
 27 23  1  0  0  0  0
 28 27  1  0  0  0  0
 29 28  1  0  0  0  0
M  END
>  <minimizedAffinity>
-5.40137959

>  <minimizedRMSD>
0.59605515

$$$$
