
 OpenBabel03272506153D

 22 23  0  0  0  0  0  0  0  0999 V2000
   39.5470   22.7750   36.7950 C   0  0  0  0  0  0  0  0  0  0  0  0
   39.2230   23.0080   38.1470 C   0  0  0  0  0  0  0  0  0  0  0  0
   38.3680   24.1010   38.4460 C   0  0  0  0  0  0  0  0  0  0  0  0
   37.9170   24.8560   37.4080 N   0  0  0  0  0  0  0  0  0  0  0  0
   38.2540   24.5920   36.1380 C   0  0  0  0  0  0  0  0  0  0  0  0
   39.0640   23.5600   35.8170 N   0  0  0  0  0  0  0  0  0  0  0  0
   37.7870   25.3770   35.0350 N   0  0  0  0  0  0  0  0  0  0  0  0
   37.3990   26.6410   35.2680 C   0  0  0  0  0  0  0  0  0  0  0  0
   36.9620   27.3260   34.1470 C   0  0  0  0  0  0  0  0  0  0  0  0
   36.9130   26.7980   32.8820 C   0  0  0  0  0  0  0  0  0  0  0  0
   36.5110   27.4510   31.8940 O   0  0  0  0  0  0  0  0  0  0  0  0
   37.3200   25.5070   32.7050 N   0  0  0  0  0  0  0  0  0  0  0  0
   37.7430   24.8420   33.7930 C   0  0  0  0  0  0  0  0  0  0  0  0
   38.1300   23.6450   33.6800 O   0  0  0  0  0  0  0  0  0  0  0  0
   40.1900   21.9620   36.4940 H   0  0  0  0  0  0  0  0  0  0  0  0
   39.6270   22.3600   38.8860 H   0  0  0  0  0  0  0  0  0  0  0  0
   38.1140   24.2880   39.4710 H   0  0  0  0  0  0  0  0  0  0  0  0
   37.4090   27.1250   36.2330 H   0  0  0  0  0  0  0  0  0  0  0  0
   36.6400   28.3610   34.3110 H   0  0  0  0  0  0  0  0  0  0  0  0
   37.3130   24.8470   31.4260 C   0  0  0  0  0  2  0  0  0  0  0  0
   35.9980   24.1650   31.1290 C   0  0  0  0  0  2  0  0  0  0  0  0
   36.2130   23.3270   30.4340 H   0  0  0  0  0  0  0  0  0  0  0  0
  1  2  1  0  0  0  0
  2  3  2  0  0  0  0
  2 16  1  0  0  0  0
  3 17  1  0  0  0  0
  4  3  1  0  0  0  0
  5  4  2  0  0  0  0
  6  5  1  0  0  0  0
  6  1  2  0  0  0  0
  7  8  1  0  0  0  0
  7  5  1  0  0  0  0
  8 18  1  0  0  0  0
  9 19  1  0  0  0  0
  9  8  2  0  0  0  0
 10  9  1  0  0  0  0
 11 10  2  0  0  0  0
 12 10  1  0  0  0  0
 12 13  1  0  0  0  0
 13  7  1  0  0  0  0
 14 13  2  0  0  0  0
 15  1  1  0  0  0  0
 20 12  1  0  0  0  0
 21 20  1  0  0  0  0
 22 21  1  0  0  0  0
M  END
>  <minimizedAffinity>
-4.55006886

$$$$

 OpenBabel03272506153D

 22 23  0  0  0  0  0  0  0  0999 V2000
   37.9510   24.2930   38.1580 C   0  0  0  0  0  0  0  0  0  0  0  0
   38.9610   23.4510   38.6650 C   0  0  0  0  0  0  0  0  0  0  0  0
   39.7970   22.7820   37.7330 C   0  0  0  0  0  0  0  0  0  0  0  0
   39.5700   22.9940   36.4100 N   0  0  0  0  0  0  0  0  0  0  0  0
   38.5950   23.8060   35.9770 C   0  0  0  0  0  0  0  0  0  0  0  0
   37.7810   24.4600   36.8350 N   0  0  0  0  0  0  0  0  0  0  0  0
   38.3430   24.0400   34.5880 N   0  0  0  0  0  0  0  0  0  0  0  0
   38.7480   23.1190   33.6990 C   0  0  0  0  0  0  0  0  0  0  0  0
   38.4650   23.4250   32.3800 C   0  0  0  0  0  0  0  0  0  0  0  0
   37.8240   24.5650   31.9650 C   0  0  0  0  0  0  0  0  0  0  0  0
   37.5860   24.8060   30.7610 O   0  0  0  0  0  0  0  0  0  0  0  0
   37.4350   25.4680   32.9130 N   0  0  0  0  0  0  0  0  0  0  0  0
   37.7100   25.1700   34.1940 C   0  0  0  0  0  0  0  0  0  0  0  0
   37.3700   25.9740   35.1070 O   0  0  0  0  0  0  0  0  0  0  0  0
   37.2790   24.8340   38.8070 H   0  0  0  0  0  0  0  0  0  0  0  0
   39.0580   23.3510   39.7180 H   0  0  0  0  0  0  0  0  0  0  0  0
   40.5700   22.1380   38.1080 H   0  0  0  0  0  0  0  0  0  0  0  0
   39.2570   22.1990   33.9480 H   0  0  0  0  0  0  0  0  0  0  0  0
   38.7850   22.6880   31.6340 H   0  0  0  0  0  0  0  0  0  0  0  0
   36.7570   26.6970   32.5980 C   0  0  0  0  0  2  0  0  0  0  0  0
   37.7060   27.8000   32.1930 C   0  0  0  0  0  2  0  0  0  0  0  0
   37.2140   28.7640   32.4410 H   0  0  0  0  0  0  0  0  0  0  0  0
  1  2  1  0  0  0  0
  1 15  1  0  0  0  0
  2 16  1  0  0  0  0
  3 17  1  0  0  0  0
  3  2  2  0  0  0  0
  4  3  1  0  0  0  0
  5  4  2  0  0  0  0
  5  6  1  0  0  0  0
  6  1  2  0  0  0  0
  7  5  1  0  0  0  0
  8 18  1  0  0  0  0
  8  7  1  0  0  0  0
  9  8  2  0  0  0  0
 10  9  1  0  0  0  0
 10 12  1  0  0  0  0
 11 10  2  0  0  0  0
 12 13  1  0  0  0  0
 13  7  1  0  0  0  0
 13 14  2  0  0  0  0
 19  9  1  0  0  0  0
 20 12  1  0  0  0  0
 21 22  1  0  0  0  0
 21 20  1  0  0  0  0
M  END
>  <minimizedAffinity>
-4.37522507

$$$$

 OpenBabel03272506153D

 22 23  0  0  0  0  0  0  0  0999 V2000
   38.2720   26.6010   32.7270 C   0  0  0  0  0  0  0  0  0  0  0  0
   37.2780   27.5040   33.1570 C   0  0  0  0  0  0  0  0  0  0  0  0
   36.8440   27.4200   34.5060 C   0  0  0  0  0  0  0  0  0  0  0  0
   37.4140   26.4730   35.2980 N   0  0  0  0  0  0  0  0  0  0  0  0
   38.3570   25.6380   34.8410 C   0  0  0  0  0  0  0  0  0  0  0  0
   38.7940   25.6890   33.5630 N   0  0  0  0  0  0  0  0  0  0  0  0
   38.9670   24.6350   35.6620 N   0  0  0  0  0  0  0  0  0  0  0  0
   38.3000   24.1990   36.7420 C   0  0  0  0  0  0  0  0  0  0  0  0
   38.9610   23.2320   37.4780 C   0  0  0  0  0  0  0  0  0  0  0  0
   40.2000   22.7290   37.1680 C   0  0  0  0  0  0  0  0  0  0  0  0
   40.7650   21.8540   37.8600 O   0  0  0  0  0  0  0  0  0  0  0  0
   40.8320   23.2100   36.0580 N   0  0  0  0  0  0  0  0  0  0  0  0
   40.1890   24.1490   35.3430 C   0  0  0  0  0  0  0  0  0  0  0  0
   40.7340   24.6250   34.3080 O   0  0  0  0  0  0  0  0  0  0  0  0
   38.6490   26.6080   31.7150 H   0  0  0  0  0  0  0  0  0  0  0  0
   36.8940   28.2080   32.4600 H   0  0  0  0  0  0  0  0  0  0  0  0
   36.0880   28.1020   34.8450 H   0  0  0  0  0  0  0  0  0  0  0  0
   37.3240   24.5460   37.0500 H   0  0  0  0  0  0  0  0  0  0  0  0
   38.4370   22.8590   38.3650 H   0  0  0  0  0  0  0  0  0  0  0  0
   42.1310   22.7590   35.6340 C   0  0  0  0  0  2  0  0  0  0  0  0
   43.2560   23.4630   36.3540 C   0  0  0  0  0  2  0  0  0  0  0  0
   44.1400   23.4440   35.6820 H   0  0  0  0  0  0  0  0  0  0  0  0
  1  2  2  0  0  0  0
  1  6  1  0  0  0  0
  2  3  1  0  0  0  0
  3 17  1  0  0  0  0
  3  4  2  0  0  0  0
  5  4  1  0  0  0  0
  5  7  1  0  0  0  0
  6  5  2  0  0  0  0
  7  8  1  0  0  0  0
  8 18  1  0  0  0  0
  8  9  2  0  0  0  0
  9 19  1  0  0  0  0
 10  9  1  0  0  0  0
 10 11  2  0  0  0  0
 12 10  1  0  0  0  0
 13  7  1  0  0  0  0
 13 12  1  0  0  0  0
 14 13  2  0  0  0  0
 15  1  1  0  0  0  0
 16  2  1  0  0  0  0
 20 12  1  0  0  0  0
 20 21  1  0  0  0  0
 22 21  1  0  0  0  0
M  END
>  <minimizedAffinity>
-4.33189487

$$$$

 OpenBabel03272506153D

 22 23  0  0  0  0  0  0  0  0999 V2000
   33.8970   31.2840   34.3130 C   0  0  0  0  0  0  0  0  0  0  0  0
   34.4480   32.0840   35.3350 C   0  0  0  0  0  0  0  0  0  0  0  0
   35.6510   31.6440   35.9470 C   0  0  0  0  0  0  0  0  0  0  0  0
   36.1960   30.4780   35.5080 N   0  0  0  0  0  0  0  0  0  0  0  0
   35.6330   29.7530   34.5320 C   0  0  0  0  0  0  0  0  0  0  0  0
   34.4890   30.1420   33.9270 N   0  0  0  0  0  0  0  0  0  0  0  0
   36.1940   28.5230   34.0590 N   0  0  0  0  0  0  0  0  0  0  0  0
   37.0110   27.8380   34.8740 C   0  0  0  0  0  0  0  0  0  0  0  0
   37.5080   26.6620   34.3380 C   0  0  0  0  0  0  0  0  0  0  0  0
   37.2170   26.1960   33.0810 C   0  0  0  0  0  0  0  0  0  0  0  0
   37.6880   25.1270   32.6320 O   0  0  0  0  0  0  0  0  0  0  0  0
   36.3810   26.9350   32.2960 N   0  0  0  0  0  0  0  0  0  0  0  0
   35.8990   28.0760   32.8170 C   0  0  0  0  0  0  0  0  0  0  0  0
   35.1210   28.7950   32.1280 O   0  0  0  0  0  0  0  0  0  0  0  0
   32.9850   31.5570   33.8040 H   0  0  0  0  0  0  0  0  0  0  0  0
   33.9450   32.9800   35.6070 H   0  0  0  0  0  0  0  0  0  0  0  0
   36.0790   32.2450   36.7260 H   0  0  0  0  0  0  0  0  0  0  0  0
   37.2860   28.1390   35.8750 H   0  0  0  0  0  0  0  0  0  0  0  0
   38.1780   26.0830   34.9850 H   0  0  0  0  0  0  0  0  0  0  0  0
   36.0050   26.5480   30.9620 C   0  0  0  0  0  2  0  0  0  0  0  0
   34.9320   25.4860   30.9430 C   0  0  0  0  0  2  0  0  0  0  0  0
   35.0460   24.9200   29.9960 H   0  0  0  0  0  0  0  0  0  0  0  0
  1  2  1  0  0  0  0
  2 16  1  0  0  0  0
  2  3  2  0  0  0  0
  3 17  1  0  0  0  0
  4  3  1  0  0  0  0
  5  4  2  0  0  0  0
  6  1  2  0  0  0  0
  6  5  1  0  0  0  0
  7  5  1  0  0  0  0
  7  8  1  0  0  0  0
  8 18  1  0  0  0  0
  9  8  2  0  0  0  0
  9 19  1  0  0  0  0
 10  9  1  0  0  0  0
 11 10  2  0  0  0  0
 12 13  1  0  0  0  0
 12 10  1  0  0  0  0
 13  7  1  0  0  0  0
 14 13  2  0  0  0  0
 15  1  1  0  0  0  0
 20 12  1  0  0  0  0
 21 20  1  0  0  0  0
 22 21  1  0  0  0  0
M  END
>  <minimizedAffinity>
-4.20521402

$$$$

 OpenBabel03272506153D

 22 23  0  0  0  0  0  0  0  0999 V2000
   35.4930   19.9960   33.2010 C   0  0  0  0  0  0  0  0  0  0  0  0
   35.4450   19.7600   31.8130 C   0  0  0  0  0  0  0  0  0  0  0  0
   36.1510   20.6510   30.9620 C   0  0  0  0  0  0  0  0  0  0  0  0
   36.8270   21.6790   31.5420 N   0  0  0  0  0  0  0  0  0  0  0  0
   36.8420   21.8610   32.8690 C   0  0  0  0  0  0  0  0  0  0  0  0
   36.1830   21.0320   33.7080 N   0  0  0  0  0  0  0  0  0  0  0  0
   37.5500   22.9370   33.4950 N   0  0  0  0  0  0  0  0  0  0  0  0
   37.8160   24.0350   32.7690 C   0  0  0  0  0  0  0  0  0  0  0  0
   38.5020   25.0250   33.4510 C   0  0  0  0  0  0  0  0  0  0  0  0
   38.8990   24.9360   34.7610 C   0  0  0  0  0  0  0  0  0  0  0  0
   39.5190   25.8540   35.3420 O   0  0  0  0  0  0  0  0  0  0  0  0
   38.6010   23.7960   35.4500 N   0  0  0  0  0  0  0  0  0  0  0  0
   37.9350   22.8350   34.7880 C   0  0  0  0  0  0  0  0  0  0  0  0
   37.6370   21.7610   35.3820 O   0  0  0  0  0  0  0  0  0  0  0  0
   34.9810   19.3600   33.9070 H   0  0  0  0  0  0  0  0  0  0  0  0
   34.8880   18.9280   31.4570 H   0  0  0  0  0  0  0  0  0  0  0  0
   36.1210   20.4800   29.9030 H   0  0  0  0  0  0  0  0  0  0  0  0
   37.5360   24.1780   31.7360 H   0  0  0  0  0  0  0  0  0  0  0  0
   38.7310   25.9320   32.8800 H   0  0  0  0  0  0  0  0  0  0  0  0
   38.9660   23.5890   36.8260 C   0  0  0  0  0  2  0  0  0  0  0  0
   37.9540   24.1610   37.7900 C   0  0  0  0  0  2  0  0  0  0  0  0
   38.4950   24.4010   38.7300 H   0  0  0  0  0  0  0  0  0  0  0  0
  1  6  1  0  0  0  0
  1 15  1  0  0  0  0
  2  1  2  0  0  0  0
  3  4  2  0  0  0  0
  3  2  1  0  0  0  0
  4  5  1  0  0  0  0
  5  7  1  0  0  0  0
  5  6  2  0  0  0  0
  7 13  1  0  0  0  0
  8  9  2  0  0  0  0
  8  7  1  0  0  0  0
  9 10  1  0  0  0  0
 10 11  2  0  0  0  0
 10 12  1  0  0  0  0
 12 20  1  0  0  0  0
 13 14  2  0  0  0  0
 13 12  1  0  0  0  0
 16  2  1  0  0  0  0
 17  3  1  0  0  0  0
 18  8  1  0  0  0  0
 19  9  1  0  0  0  0
 20 21  1  0  0  0  0
 21 22  1  0  0  0  0
M  END
>  <minimizedAffinity>
-4.17782736

$$$$

 OpenBabel03272506153D

 22 23  0  0  0  0  0  0  0  0999 V2000
   36.0940   26.4150   31.0140 C   0  0  0  0  0  0  0  0  0  0  0  0
   36.3250   27.7860   30.7800 C   0  0  0  0  0  0  0  0  0  0  0  0
   37.0300   28.5190   31.7710 C   0  0  0  0  0  0  0  0  0  0  0  0
   37.4360   27.8520   32.8850 N   0  0  0  0  0  0  0  0  0  0  0  0
   37.1910   26.5460   33.0600 C   0  0  0  0  0  0  0  0  0  0  0  0
   36.5240   25.8180   32.1380 N   0  0  0  0  0  0  0  0  0  0  0  0
   37.6110   25.8300   34.2260 N   0  0  0  0  0  0  0  0  0  0  0  0
   37.8350   26.5210   35.3550 C   0  0  0  0  0  0  0  0  0  0  0  0
   38.2380   25.7510   36.4330 C   0  0  0  0  0  0  0  0  0  0  0  0
   38.4080   24.3900   36.3970 C   0  0  0  0  0  0  0  0  0  0  0  0
   38.7740   23.7290   37.3940 O   0  0  0  0  0  0  0  0  0  0  0  0
   38.1650   23.7400   35.2220 N   0  0  0  0  0  0  0  0  0  0  0  0
   37.7740   24.4870   34.1760 C   0  0  0  0  0  0  0  0  0  0  0  0
   37.5380   23.9320   33.0660 O   0  0  0  0  0  0  0  0  0  0  0  0
   35.5660   25.7970   30.3040 H   0  0  0  0  0  0  0  0  0  0  0  0
   35.9680   28.2160   29.8770 H   0  0  0  0  0  0  0  0  0  0  0  0
   37.2120   29.5630   31.6040 H   0  0  0  0  0  0  0  0  0  0  0  0
   37.7230   27.5900   35.4610 H   0  0  0  0  0  0  0  0  0  0  0  0
   38.4280   26.2910   37.3670 H   0  0  0  0  0  0  0  0  0  0  0  0
   38.3090   22.3170   35.0640 C   0  0  0  0  0  2  0  0  0  0  0  0
   37.0660   21.5570   35.4600 C   0  0  0  0  0  2  0  0  0  0  0  0
   37.3870   20.5420   35.7750 H   0  0  0  0  0  0  0  0  0  0  0  0
  1  6  1  0  0  0  0
  2  1  2  0  0  0  0
  2  3  1  0  0  0  0
  3  4  2  0  0  0  0
  4  5  1  0  0  0  0
  5  7  1  0  0  0  0
  6  5  2  0  0  0  0
  7  8  1  0  0  0  0
  8 18  1  0  0  0  0
  8  9  2  0  0  0  0
  9 19  1  0  0  0  0
 10  9  1  0  0  0  0
 10 11  2  0  0  0  0
 12 10  1  0  0  0  0
 13  7  1  0  0  0  0
 13 12  1  0  0  0  0
 14 13  2  0  0  0  0
 15  1  1  0  0  0  0
 16  2  1  0  0  0  0
 17  3  1  0  0  0  0
 20 12  1  0  0  0  0
 20 21  1  0  0  0  0
 21 22  1  0  0  0  0
M  END
>  <minimizedAffinity>
-4.10786676

$$$$

 OpenBabel03272506153D

 22 23  0  0  0  0  0  0  0  0999 V2000
   38.0300   27.3360   32.9190 C   0  0  0  0  0  0  0  0  0  0  0  0
   38.6610   27.3490   31.6590 C   0  0  0  0  0  0  0  0  0  0  0  0
   39.6940   26.4030   31.4250 C   0  0  0  0  0  0  0  0  0  0  0  0
   40.0090   25.5450   32.4320 N   0  0  0  0  0  0  0  0  0  0  0  0
   39.3780   25.5740   33.6130 C   0  0  0  0  0  0  0  0  0  0  0  0
   38.3900   26.4600   33.8700 N   0  0  0  0  0  0  0  0  0  0  0  0
   39.6980   24.6780   34.6830 N   0  0  0  0  0  0  0  0  0  0  0  0
   40.9180   24.1190   34.7070 C   0  0  0  0  0  0  0  0  0  0  0  0
   41.1430   23.2680   35.7740 C   0  0  0  0  0  0  0  0  0  0  0  0
   40.2230   22.9870   36.7530 C   0  0  0  0  0  0  0  0  0  0  0  0
   40.4650   22.2100   37.7030 O   0  0  0  0  0  0  0  0  0  0  0  0
   38.9980   23.5840   36.6780 N   0  0  0  0  0  0  0  0  0  0  0  0
   38.7800   24.4110   35.6410 C   0  0  0  0  0  0  0  0  0  0  0  0
   37.6620   24.9870   35.5280 O   0  0  0  0  0  0  0  0  0  0  0  0
   37.2370   28.0260   33.1660 H   0  0  0  0  0  0  0  0  0  0  0  0
   38.3420   28.0600   30.9360 H   0  0  0  0  0  0  0  0  0  0  0  0
   40.1820   26.4030   30.4690 H   0  0  0  0  0  0  0  0  0  0  0  0
   41.6930   24.2910   33.9750 H   0  0  0  0  0  0  0  0  0  0  0  0
   42.1320   22.7980   35.8170 H   0  0  0  0  0  0  0  0  0  0  0  0
   37.9550   23.3660   37.6450 C   0  0  0  0  0  2  0  0  0  0  0  0
   37.9740   24.3810   38.7630 C   0  0  0  0  0  2  0  0  0  0  0  0
   37.5180   23.8980   39.6530 H   0  0  0  0  0  0  0  0  0  0  0  0
  1 15  1  0  0  0  0
  1  6  1  0  0  0  0
  2  1  2  0  0  0  0
  3  2  1  0  0  0  0
  3  4  2  0  0  0  0
  4  5  1  0  0  0  0
  5  6  2  0  0  0  0
  5  7  1  0  0  0  0
  7  8  1  0  0  0  0
  7 13  1  0  0  0  0
  8  9  2  0  0  0  0
  9 19  1  0  0  0  0
  9 10  1  0  0  0  0
 10 11  2  0  0  0  0
 12 10  1  0  0  0  0
 12 20  1  0  0  0  0
 13 12  1  0  0  0  0
 14 13  2  0  0  0  0
 16  2  1  0  0  0  0
 17  3  1  0  0  0  0
 18  8  1  0  0  0  0
 20 21  1  0  0  0  0
 21 22  1  0  0  0  0
M  END
>  <minimizedAffinity>
-4.10006809

$$$$

 OpenBabel03272506153D

 22 23  0  0  0  0  0  0  0  0999 V2000
   37.9110   22.5700   36.7310 C   0  0  0  0  0  0  0  0  0  0  0  0
   38.7310   23.7150   36.7790 C   0  0  0  0  0  0  0  0  0  0  0  0
   39.2320   24.2240   35.5520 C   0  0  0  0  0  0  0  0  0  0  0  0
   38.8890   23.5730   34.4080 N   0  0  0  0  0  0  0  0  0  0  0  0
   38.1050   22.4870   34.4160 C   0  0  0  0  0  0  0  0  0  0  0  0
   37.6100   21.9750   35.5640 N   0  0  0  0  0  0  0  0  0  0  0  0
   37.7350   21.7910   33.2200 N   0  0  0  0  0  0  0  0  0  0  0  0
   38.5210   21.9140   32.1390 C   0  0  0  0  0  0  0  0  0  0  0  0
   38.0900   21.2090   31.0290 C   0  0  0  0  0  0  0  0  0  0  0  0
   36.9580   20.4340   30.9900 C   0  0  0  0  0  0  0  0  0  0  0  0
   36.6020   19.8110   29.9650 O   0  0  0  0  0  0  0  0  0  0  0  0
   36.1970   20.3460   32.1190 N   0  0  0  0  0  0  0  0  0  0  0  0
   36.6160   21.0300   33.1970 C   0  0  0  0  0  0  0  0  0  0  0  0
   35.9450   20.9800   34.2660 O   0  0  0  0  0  0  0  0  0  0  0  0
   37.4950   22.1280   37.6240 H   0  0  0  0  0  0  0  0  0  0  0  0
   38.9410   24.1510   37.7250 H   0  0  0  0  0  0  0  0  0  0  0  0
   39.8570   25.0960   35.5760 H   0  0  0  0  0  0  0  0  0  0  0  0
   39.4250   22.5040   32.0930 H   0  0  0  0  0  0  0  0  0  0  0  0
   38.7140   21.2930   30.1320 H   0  0  0  0  0  0  0  0  0  0  0  0
   34.9910   19.5650   32.1970 C   0  0  0  0  0  2  0  0  0  0  0  0
   35.2470   18.1350   32.6100 C   0  0  0  0  0  2  0  0  0  0  0  0
   34.4240   17.5190   32.1910 H   0  0  0  0  0  0  0  0  0  0  0  0
  1  2  1  0  0  0  0
  1 15  1  0  0  0  0
  2 16  1  0  0  0  0
  3 17  1  0  0  0  0
  3  2  2  0  0  0  0
  4  5  2  0  0  0  0
  4  3  1  0  0  0  0
  5  6  1  0  0  0  0
  6  1  2  0  0  0  0
  7  5  1  0  0  0  0
  8  7  1  0  0  0  0
  9  8  2  0  0  0  0
 10  9  1  0  0  0  0
 10 12  1  0  0  0  0
 11 10  2  0  0  0  0
 12 20  1  0  0  0  0
 12 13  1  0  0  0  0
 13  7  1  0  0  0  0
 13 14  2  0  0  0  0
 18  8  1  0  0  0  0
 19  9  1  0  0  0  0
 20 21  1  0  0  0  0
 22 21  1  0  0  0  0
M  END
>  <minimizedAffinity>
-4.02956963

$$$$

 OpenBabel03272506153D

 22 23  0  0  0  0  0  0  0  0999 V2000
   38.7650   25.2890   31.4390 C   0  0  0  0  0  0  0  0  0  0  0  0
   38.4030   26.6330   31.2190 C   0  0  0  0  0  0  0  0  0  0  0  0
   38.0790   27.4270   32.3510 C   0  0  0  0  0  0  0  0  0  0  0  0
   38.1350   26.8390   33.5750 N   0  0  0  0  0  0  0  0  0  0  0  0
   38.4850   25.5550   33.7320 C   0  0  0  0  0  0  0  0  0  0  0  0
   38.8010   24.7710   32.6780 N   0  0  0  0  0  0  0  0  0  0  0  0
   38.5490   24.9210   35.0140 N   0  0  0  0  0  0  0  0  0  0  0  0
   37.8260   25.4370   36.0200 C   0  0  0  0  0  0  0  0  0  0  0  0
   37.9470   24.7640   37.2230 C   0  0  0  0  0  0  0  0  0  0  0  0
   38.7300   23.6540   37.4190 C   0  0  0  0  0  0  0  0  0  0  0  0
   38.8130   23.0730   38.5230 O   0  0  0  0  0  0  0  0  0  0  0  0
   39.4440   23.1730   36.3600 N   0  0  0  0  0  0  0  0  0  0  0  0
   39.3270   23.8280   35.1920 C   0  0  0  0  0  0  0  0  0  0  0  0
   39.9680   23.4210   34.1830 O   0  0  0  0  0  0  0  0  0  0  0  0
   39.0250   24.6280   30.6260 H   0  0  0  0  0  0  0  0  0  0  0  0
   38.3900   27.0000   30.2220 H   0  0  0  0  0  0  0  0  0  0  0  0
   37.8020   28.4520   32.1950 H   0  0  0  0  0  0  0  0  0  0  0  0
   37.1880   26.3050   35.9430 H   0  0  0  0  0  0  0  0  0  0  0  0
   37.3660   25.1660   38.0610 H   0  0  0  0  0  0  0  0  0  0  0  0
   40.2980   22.0190   36.4450 C   0  0  0  0  0  2  0  0  0  0  0  0
   41.6840   22.3540   36.9430 C   0  0  0  0  0  2  0  0  0  0  0  0
   42.3750   21.5870   36.5340 H   0  0  0  0  0  0  0  0  0  0  0  0
  1  6  1  0  0  0  0
  2  1  2  0  0  0  0
  2  3  1  0  0  0  0
  3  4  2  0  0  0  0
  4  5  1  0  0  0  0
  5  7  1  0  0  0  0
  6  5  2  0  0  0  0
  7 13  1  0  0  0  0
  7  8  1  0  0  0  0
  8  9  2  0  0  0  0
  9 10  1  0  0  0  0
  9 19  1  0  0  0  0
 10 11  2  0  0  0  0
 12 20  1  0  0  0  0
 12 10  1  0  0  0  0
 13 12  1  0  0  0  0
 14 13  2  0  0  0  0
 15  1  1  0  0  0  0
 16  2  1  0  0  0  0
 17  3  1  0  0  0  0
 18  8  1  0  0  0  0
 20 21  1  0  0  0  0
 22 21  1  0  0  0  0
M  END
>  <minimizedAffinity>
-4.02468109

$$$$
