
 OpenBabel03272510113D

 29 31  0  0  0  0  0  0  0  0999 V2000
   34.0020   28.8140   48.2870 C   0  0  0  0  0  0  0  0  0  0  0  0
   34.6230   28.3710   49.4100 C   0  0  0  0  0  0  0  0  0  0  0  0
   35.8560   28.7990   49.8500 C   0  0  0  0  0  0  0  0  0  0  0  0
   36.5440   29.7360   49.1390 C   0  0  0  0  0  0  0  0  0  0  0  0
   35.9150   30.2020   47.9770 C   0  0  0  0  0  0  0  0  0  0  0  0
   34.7060   29.7530   47.5860 N   0  0  0  0  0  0  0  0  0  0  0  0
   34.1480   27.6260   50.0340 H   0  0  0  0  0  0  0  0  0  0  0  0
   36.3430   28.4410   50.7450 H   0  0  0  0  0  0  0  0  0  0  0  0
   36.3560   30.9450   47.3280 H   0  0  0  0  0  0  0  0  0  0  0  0
   31.9060   27.4960   48.5510 C   0  0  0  0  0  0  0  0  0  0  0  0
   32.7250   28.3700   47.8220 C   0  0  0  0  0  0  0  0  0  0  0  0
   32.2510   28.7900   46.6090 C   0  0  0  0  0  0  0  0  0  0  0  0
   31.0320   28.3540   46.1640 N   0  0  0  0  0  0  0  0  0  0  0  0
   30.2780   27.5030   46.9180 C   0  0  0  0  0  0  0  0  0  0  0  0
   30.7060   27.0620   48.1240 N   0  0  0  0  0  0  0  0  0  0  0  0
   32.2330   27.1350   49.5180 H   0  0  0  0  0  0  0  0  0  0  0  0
   32.8330   29.4610   46.0020 H   0  0  0  0  0  0  0  0  0  0  0  0
   29.3330   27.2460   46.4310 H   0  0  0  0  0  0  0  0  0  0  0  0
   37.7900   30.2820   49.4270 O   0  0  0  0  0  0  0  0  0  0  0  0
   38.3740   31.2470   48.6280 C   0  0  0  0  0  0  0  0  0  0  0  0
   38.4420   32.5070   49.2210 C   0  0  0  0  0  0  0  0  0  0  0  0
   39.0470   33.3610   48.3020 C   0  0  0  0  0  0  0  0  0  0  0  0
   39.3190   32.6220   47.2160 N   0  0  0  0  0  0  0  0  0  0  0  0
   38.9250   31.3880   47.4080 N   0  0  0  0  0  0  0  0  0  0  0  0
   38.1460   32.9390   50.1800 H   0  0  0  0  0  0  0  0  0  0  0  0
   39.2820   34.4210   48.3830 H   0  0  0  0  0  0  0  0  0  0  0  0
   39.9540   33.1150   46.0100 C   0  0  0  0  0  2  0  0  0  0  0  0
   40.6820   31.9500   45.3790 C   0  0  0  0  0  2  0  0  0  0  0  0
   41.7570   32.0290   45.5930 H   0  0  0  0  0  0  0  0  0  0  0  0
  1  2  1  0  0  0  0
  2  3  2  0  0  0  0
  2  7  1  0  0  0  0
  3  8  1  0  0  0  0
  4 19  1  0  0  0  0
  4  3  1  0  0  0  0
  5  4  2  0  0  0  0
  6  5  1  0  0  0  0
  6  1  2  0  0  0  0
  9  5  1  0  0  0  0
 10 16  1  0  0  0  0
 11  1  1  0  0  0  0
 11 10  2  0  0  0  0
 12 11  1  0  0  0  0
 13 12  2  0  0  0  0
 13 14  1  0  0  0  0
 14 15  2  0  0  0  0
 15 10  1  0  0  0  0
 17 12  1  0  0  0  0
 18 14  1  0  0  0  0
 20 21  1  0  0  0  0
 20 19  1  0  0  0  0
 21 25  1  0  0  0  0
 22 26  1  0  0  0  0
 22 21  2  0  0  0  0
 23 24  1  0  0  0  0
 23 22  1  0  0  0  0
 24 20  2  0  0  0  0
 27 23  1  0  0  0  0
 28 29  1  0  0  0  0
 28 27  1  0  0  0  0
M  END
>  <minimizedAffinity>
-5.50601244

>  <minimizedRMSD>
0.758896768

$$$$
