
 OpenBabel03272510113D

 29 31  0  0  0  0  0  0  0  0999 V2000
   33.5750   28.6340   48.2270 C   0  0  0  0  0  0  0  0  0  0  0  0
   34.0550   28.2860   49.4480 C   0  0  0  0  0  0  0  0  0  0  0  0
   35.3040   28.6120   49.9280 C   0  0  0  0  0  0  0  0  0  0  0  0
   36.1600   29.3390   49.1560 C   0  0  0  0  0  0  0  0  0  0  0  0
   35.6780   29.7060   47.8920 C   0  0  0  0  0  0  0  0  0  0  0  0
   34.4470   29.3630   47.4660 N   0  0  0  0  0  0  0  0  0  0  0  0
   33.4410   27.7070   50.1260 H   0  0  0  0  0  0  0  0  0  0  0  0
   35.6780   28.3300   50.9010 H   0  0  0  0  0  0  0  0  0  0  0  0
   36.2590   30.2830   47.1870 H   0  0  0  0  0  0  0  0  0  0  0  0
   31.3410   27.5610   48.4580 C   0  0  0  0  0  0  0  0  0  0  0  0
   32.2820   28.2940   47.7210 C   0  0  0  0  0  0  0  0  0  0  0  0
   31.9150   28.6770   46.4600 C   0  0  0  0  0  0  0  0  0  0  0  0
   30.6790   28.3400   45.9770 N   0  0  0  0  0  0  0  0  0  0  0  0
   29.8030   27.6250   46.7400 C   0  0  0  0  0  0  0  0  0  0  0  0
   30.1230   27.2250   47.9930 N   0  0  0  0  0  0  0  0  0  0  0  0
   31.5810   27.2340   49.4610 H   0  0  0  0  0  0  0  0  0  0  0  0
   32.5930   29.2430   45.8460 H   0  0  0  0  0  0  0  0  0  0  0  0
   28.8610   27.4340   46.2190 H   0  0  0  0  0  0  0  0  0  0  0  0
   37.4480   29.7580   49.4710 O   0  0  0  0  0  0  0  0  0  0  0  0
   37.9630   30.9580   49.0180 C   0  0  0  0  0  0  0  0  0  0  0  0
   37.5400   32.0670   49.7490 C   0  0  0  0  0  0  0  0  0  0  0  0
   38.1370   33.1880   49.1770 C   0  0  0  0  0  0  0  0  0  0  0  0
   38.8770   32.7440   48.1510 N   0  0  0  0  0  0  0  0  0  0  0  0
   38.7750   31.4410   48.0600 N   0  0  0  0  0  0  0  0  0  0  0  0
   36.8900   32.2360   50.6110 H   0  0  0  0  0  0  0  0  0  0  0  0
   38.0600   34.2380   49.4550 H   0  0  0  0  0  0  0  0  0  0  0  0
   39.6730   33.5810   47.2750 C   0  0  0  0  0  2  0  0  0  0  0  0
   40.2680   34.6820   48.1240 C   0  0  0  0  0  2  0  0  0  0  0  0
   39.7030   35.6110   47.9690 H   0  0  0  0  0  0  0  0  0  0  0  0
  1  2  1  0  0  0  0
  2  3  2  0  0  0  0
  2  7  1  0  0  0  0
  3  8  1  0  0  0  0
  4 19  1  0  0  0  0
  4  3  1  0  0  0  0
  5  4  2  0  0  0  0
  6  5  1  0  0  0  0
  6  1  2  0  0  0  0
  9  5  1  0  0  0  0
 10 16  1  0  0  0  0
 11  1  1  0  0  0  0
 11 10  2  0  0  0  0
 12 11  1  0  0  0  0
 13 12  2  0  0  0  0
 13 14  1  0  0  0  0
 14 15  2  0  0  0  0
 15 10  1  0  0  0  0
 17 12  1  0  0  0  0
 18 14  1  0  0  0  0
 20 19  1  0  0  0  0
 20 21  1  0  0  0  0
 21 25  1  0  0  0  0
 22 26  1  0  0  0  0
 22 21  2  0  0  0  0
 23 22  1  0  0  0  0
 24 23  1  0  0  0  0
 24 20  2  0  0  0  0
 27 28  1  0  0  0  0
 27 23  1  0  0  0  0
 29 28  1  0  0  0  0
M  END
>  <minimizedAffinity>
-4.74261618

>  <minimizedRMSD>
0.424624622

$$$$
