
 OpenBabel03272504253D

 33 35  0  0  0  0  0  0  0  0999 V2000
   37.6770   26.1060   33.7480 C   0  0  0  0  0  0  0  0  0  0  0  0
   37.4890   27.1980   34.5200 C   0  0  0  0  0  0  0  0  0  0  0  0
   38.3460   27.5320   35.4930 C   0  0  0  0  0  0  0  0  0  0  0  0
   39.4270   26.7290   35.6830 N   0  0  0  0  0  0  0  0  0  0  0  0
   39.6160   25.6680   34.9370 C   0  0  0  0  0  0  0  0  0  0  0  0
   38.7530   25.3310   33.9600 N   0  0  0  0  0  0  0  0  0  0  0  0
   36.6290   27.8360   34.3670 H   0  0  0  0  0  0  0  0  0  0  0  0
   38.1630   28.4270   36.1010 H   0  0  0  0  0  0  0  0  0  0  0  0
   40.7230   23.7490   35.9500 C   0  0  0  0  0  0  0  0  0  0  0  0
   40.8300   24.9140   35.1860 C   0  0  0  0  0  0  0  0  0  0  0  0
   42.0130   25.4170   34.6950 C   0  0  0  0  0  0  0  0  0  0  0  0
   43.1900   24.7500   34.9570 C   0  0  0  0  0  0  0  0  0  0  0  0
   43.1940   23.5950   35.6940 C   0  0  0  0  0  0  0  0  0  0  0  0
   41.9780   23.1800   36.1330 C   0  0  0  0  0  0  0  0  0  0  0  0
   41.9940   26.3440   34.1020 H   0  0  0  0  0  0  0  0  0  0  0  0
   44.0610   25.1960   34.5530 H   0  0  0  0  0  0  0  0  0  0  0  0
   44.0990   23.0550   35.9110 H   0  0  0  0  0  0  0  0  0  0  0  0
   41.9880   22.2470   36.7260 H   0  0  0  0  0  0  0  0  0  0  0  0
   39.3250   23.0700   36.5490 S   0  0  0  0  0  0  0  0  0  0  0  0
   39.9150   22.5800   37.9120 O   0  0  0  0  0  0  0  0  0  0  0  0
   38.9480   21.8710   35.7360 O   0  0  0  0  0  0  0  0  0  0  0  0
   37.9420   23.2580   37.3560 C   0  0  0  0  0  2  0  0  0  0  0  0
   38.0580   24.4520   38.3760 C   0  0  0  0  0  2  0  0  0  0  0  0
   38.8980   24.3100   39.0480 H   0  0  0  0  0  0  0  0  0  0  0  0
   35.2740   26.2670   30.9820 C   0  0  0  0  0  0  0  0  0  0  0  0
   35.0980   24.8940   30.6540 C   0  0  0  0  0  0  0  0  0  0  0  0
   35.8120   23.9520   31.3980 C   0  0  0  0  0  0  0  0  0  0  0  0
   36.6290   24.4020   32.3850 N   0  0  0  0  0  0  0  0  0  0  0  0
   36.7750   25.7210   32.6720 C   0  0  0  0  0  0  0  0  0  0  0  0
   36.0970   26.6420   31.9690 N   0  0  0  0  0  0  0  0  0  0  0  0
   34.7050   26.9520   30.3820 H   0  0  0  0  0  0  0  0  0  0  0  0
   34.4700   24.5040   29.8900 H   0  0  0  0  0  0  0  0  0  0  0  0
   35.7670   22.8840   31.2510 H   0  0  0  0  0  0  0  0  0  0  0  0
  1  6  2  0  0  0  0
  1  2  1  0  0  0  0
  2  3  2  0  0  0  0
  3  4  1  0  0  0  0
  3  8  1  0  0  0  0
  5 10  1  0  0  0  0
  5  4  2  0  0  0  0
  6  5  1  0  0  0  0
  7  2  1  0  0  0  0
  9 14  1  0  0  0  0
  9 19  1  0  0  0  0
 10  9  2  0  0  0  0
 11 12  2  0  0  0  0
 11 10  1  0  0  0  0
 12 13  1  0  0  0  0
 13 17  1  0  0  0  0
 13 14  2  0  0  0  0
 14 18  1  0  0  0  0
 15 11  1  0  0  0  0
 16 12  1  0  0  0  0
 19 22  1  0  0  0  0
 19 20  2  0  0  0  0
 21 19  2  0  0  0  0
 22 23  1  0  0  0  0
 23 24  1  0  0  0  0
 25 30  1  0  0  0  0
 26 25  2  0  0  0  0
 26 27  1  0  0  0  0
 27 28  2  0  0  0  0
 28 29  1  0  0  0  0
 29  1  1  0  0  0  0
 30 29  2  0  0  0  0
 31 25  1  0  0  0  0
 32 26  1  0  0  0  0
 33 27  1  0  0  0  0
M  END
>  <minimizedAffinity>
-5.49595928

$$$$

 OpenBabel03272504253D

 33 35  0  0  0  0  0  0  0  0999 V2000
   37.0870   22.9760   31.5240 C   0  0  0  0  0  0  0  0  0  0  0  0
   38.0490   23.1190   30.5860 C   0  0  0  0  0  0  0  0  0  0  0  0
   38.5890   24.3120   30.3040 C   0  0  0  0  0  0  0  0  0  0  0  0
   38.1370   25.3890   31.0010 N   0  0  0  0  0  0  0  0  0  0  0  0
   37.2050   25.2570   31.9130 C   0  0  0  0  0  0  0  0  0  0  0  0
   36.6600   24.0580   32.1950 N   0  0  0  0  0  0  0  0  0  0  0  0
   38.4070   22.2620   30.0330 H   0  0  0  0  0  0  0  0  0  0  0  0
   39.3690   24.3920   29.5360 H   0  0  0  0  0  0  0  0  0  0  0  0
   37.2740   26.5780   33.9580 C   0  0  0  0  0  0  0  0  0  0  0  0
   36.8380   26.4590   32.6360 C   0  0  0  0  0  0  0  0  0  0  0  0
   36.0470   27.3820   31.9920 C   0  0  0  0  0  0  0  0  0  0  0  0
   35.6400   28.5120   32.6690 C   0  0  0  0  0  0  0  0  0  0  0  0
   36.0170   28.7260   33.9690 C   0  0  0  0  0  0  0  0  0  0  0  0
   36.7970   27.7590   34.5150 C   0  0  0  0  0  0  0  0  0  0  0  0
   35.7540   27.1980   30.9470 H   0  0  0  0  0  0  0  0  0  0  0  0
   35.0300   29.1750   32.1130 H   0  0  0  0  0  0  0  0  0  0  0  0
   35.7130   29.6000   34.5170 H   0  0  0  0  0  0  0  0  0  0  0  0
   37.0980   27.9380   35.5640 H   0  0  0  0  0  0  0  0  0  0  0  0
   38.2540   25.5160   34.7880 S   0  0  0  0  0  0  0  0  0  0  0  0
   38.1460   26.2070   36.1870 O   0  0  0  0  0  0  0  0  0  0  0  0
   39.6660   25.6390   34.3060 O   0  0  0  0  0  0  0  0  0  0  0  0
   38.4010   24.1400   35.6140 C   0  0  0  0  0  2  0  0  0  0  0  0
   37.8330   24.3120   37.0730 C   0  0  0  0  0  2  0  0  0  0  0  0
   38.3150   25.1390   37.5840 H   0  0  0  0  0  0  0  0  0  0  0  0
   35.7510   19.5690   31.2780 C   0  0  0  0  0  0  0  0  0  0  0  0
   35.3520   19.3040   32.6160 C   0  0  0  0  0  0  0  0  0  0  0  0
   35.5530   20.3080   33.5650 C   0  0  0  0  0  0  0  0  0  0  0  0
   36.1170   21.4740   33.1550 N   0  0  0  0  0  0  0  0  0  0  0  0
   36.4880   21.6940   31.8680 C   0  0  0  0  0  0  0  0  0  0  0  0
   36.3020   20.7420   30.9400 N   0  0  0  0  0  0  0  0  0  0  0  0
   35.5760   18.7680   30.5860 H   0  0  0  0  0  0  0  0  0  0  0  0
   34.9080   18.4070   32.9760 H   0  0  0  0  0  0  0  0  0  0  0  0
   35.2950   20.2330   34.6100 H   0  0  0  0  0  0  0  0  0  0  0  0
  1 29  1  0  0  0  0
  1  6  1  0  0  0  0
  2  1  2  0  0  0  0
  3  2  1  0  0  0  0
  3  4  2  0  0  0  0
  4  5  1  0  0  0  0
  5  6  2  0  0  0  0
  5 10  1  0  0  0  0
  7  2  1  0  0  0  0
  8  3  1  0  0  0  0
  9 14  1  0  0  0  0
  9 19  1  0  0  0  0
 10  9  2  0  0  0  0
 11 10  1  0  0  0  0
 11 12  2  0  0  0  0
 12 13  1  0  0  0  0
 13 14  2  0  0  0  0
 13 17  1  0  0  0  0
 14 18  1  0  0  0  0
 15 11  1  0  0  0  0
 16 12  1  0  0  0  0
 19 22  1  0  0  0  0
 19 20  2  0  0  0  0
 21 19  2  0  0  0  0
 22 23  1  0  0  0  0
 23 24  1  0  0  0  0
 25 26  1  0  0  0  0
 26 32  1  0  0  0  0
 26 27  2  0  0  0  0
 27 33  1  0  0  0  0
 28 27  1  0  0  0  0
 29 28  2  0  0  0  0
 30 25  2  0  0  0  0
 30 29  1  0  0  0  0
 31 25  1  0  0  0  0
M  END
>  <minimizedAffinity>
-5.37051201

$$$$

 OpenBabel03272504253D

 33 35  0  0  0  0  0  0  0  0999 V2000
   36.3520   28.1350   33.5380 C   0  0  0  0  0  0  0  0  0  0  0  0
   36.2770   28.6250   32.2810 C   0  0  0  0  0  0  0  0  0  0  0  0
   35.6960   29.8020   32.0150 C   0  0  0  0  0  0  0  0  0  0  0  0
   35.1770   30.4990   33.0620 N   0  0  0  0  0  0  0  0  0  0  0  0
   35.2470   30.0290   34.2830 C   0  0  0  0  0  0  0  0  0  0  0  0
   35.8300   28.8460   34.5500 N   0  0  0  0  0  0  0  0  0  0  0  0
   36.6900   28.0690   31.4500 H   0  0  0  0  0  0  0  0  0  0  0  0
   35.6530   30.1700   30.9820 H   0  0  0  0  0  0  0  0  0  0  0  0
   33.3650   30.7300   35.6620 C   0  0  0  0  0  0  0  0  0  0  0  0
   34.7140   30.8790   35.3300 C   0  0  0  0  0  0  0  0  0  0  0  0
   35.5560   31.8080   35.8980 C   0  0  0  0  0  0  0  0  0  0  0  0
   35.0670   32.6640   36.8610 C   0  0  0  0  0  0  0  0  0  0  0  0
   33.7580   32.5970   37.2600 C   0  0  0  0  0  0  0  0  0  0  0  0
   33.0090   31.6480   36.6430 C   0  0  0  0  0  0  0  0  0  0  0  0
   36.6060   31.8480   35.5690 H   0  0  0  0  0  0  0  0  0  0  0  0
   35.7690   33.3550   37.2490 H   0  0  0  0  0  0  0  0  0  0  0  0
   33.3530   33.2530   38.0110 H   0  0  0  0  0  0  0  0  0  0  0  0
   31.9540   31.5990   36.9700 H   0  0  0  0  0  0  0  0  0  0  0  0
   32.3000   29.6110   35.0380 S   0  0  0  0  0  0  0  0  0  0  0  0
   30.9950   30.4460   35.2540 O   0  0  0  0  0  0  0  0  0  0  0  0
   32.2450   28.4060   35.9260 O   0  0  0  0  0  0  0  0  0  0  0  0
   31.5490   28.9970   33.7510 C   0  0  0  0  0  2  0  0  0  0  0  0
   30.7070   30.1120   33.0230 C   0  0  0  0  0  2  0  0  0  0  0  0
   30.0090   30.5820   33.7070 H   0  0  0  0  0  0  0  0  0  0  0  0
   37.8270   24.7890   33.2450 C   0  0  0  0  0  0  0  0  0  0  0  0
   38.2030   24.5060   34.5860 C   0  0  0  0  0  0  0  0  0  0  0  0
   37.9350   25.4770   35.5540 C   0  0  0  0  0  0  0  0  0  0  0  0
   37.3350   26.6290   35.1570 N   0  0  0  0  0  0  0  0  0  0  0  0
   36.9900   26.8680   33.8660 C   0  0  0  0  0  0  0  0  0  0  0  0
   37.2370   25.9470   32.9210 N   0  0  0  0  0  0  0  0  0  0  0  0
   38.0530   24.0140   32.5380 H   0  0  0  0  0  0  0  0  0  0  0  0
   38.6730   23.6190   34.9360 H   0  0  0  0  0  0  0  0  0  0  0  0
   38.1700   25.3850   36.6040 H   0  0  0  0  0  0  0  0  0  0  0  0
  1 29  1  0  0  0  0
  1  6  1  0  0  0  0
  2  1  2  0  0  0  0
  3  2  1  0  0  0  0
  3  4  2  0  0  0  0
  4  5  1  0  0  0  0
  5  6  2  0  0  0  0
  5 10  1  0  0  0  0
  7  2  1  0  0  0  0
  8  3  1  0  0  0  0
  9 14  1  0  0  0  0
 10  9  2  0  0  0  0
 10 11  1  0  0  0  0
 11 12  2  0  0  0  0
 12 16  1  0  0  0  0
 12 13  1  0  0  0  0
 13 17  1  0  0  0  0
 14 18  1  0  0  0  0
 14 13  2  0  0  0  0
 15 11  1  0  0  0  0
 19 20  2  0  0  0  0
 19  9  1  0  0  0  0
 19 21  2  0  0  0  0
 22 19  1  0  0  0  0
 23 24  1  0  0  0  0
 23 22  1  0  0  0  0
 25 26  1  0  0  0  0
 26 32  1  0  0  0  0
 26 27  2  0  0  0  0
 27 33  1  0  0  0  0
 28 27  1  0  0  0  0
 29 28  2  0  0  0  0
 30 25  2  0  0  0  0
 30 29  1  0  0  0  0
 31 25  1  0  0  0  0
M  END
>  <minimizedAffinity>
-5.33322859

$$$$

 OpenBabel03272504253D

 33 35  0  0  0  0  0  0  0  0999 V2000
   35.9870   23.5360   31.6230 C   0  0  0  0  0  0  0  0  0  0  0  0
   35.2580   24.3580   30.8360 C   0  0  0  0  0  0  0  0  0  0  0  0
   35.3290   25.6900   30.9490 C   0  0  0  0  0  0  0  0  0  0  0  0
   36.1690   26.1990   31.8910 N   0  0  0  0  0  0  0  0  0  0  0  0
   36.8790   25.4070   32.6570 C   0  0  0  0  0  0  0  0  0  0  0  0
   36.8060   24.0680   32.5450 N   0  0  0  0  0  0  0  0  0  0  0  0
   34.5920   23.9520   30.0880 H   0  0  0  0  0  0  0  0  0  0  0  0
   34.7240   26.3290   30.2930 H   0  0  0  0  0  0  0  0  0  0  0  0
   39.1100   26.2290   33.1850 C   0  0  0  0  0  0  0  0  0  0  0  0
   37.7830   26.0540   33.5880 C   0  0  0  0  0  0  0  0  0  0  0  0
   37.2910   26.4120   34.8220 C   0  0  0  0  0  0  0  0  0  0  0  0
   38.1380   26.9840   35.7460 C   0  0  0  0  0  0  0  0  0  0  0  0
   39.4580   27.2020   35.4490 C   0  0  0  0  0  0  0  0  0  0  0  0
   39.8470   26.8160   34.2070 C   0  0  0  0  0  0  0  0  0  0  0  0
   36.2280   26.2330   35.0450 H   0  0  0  0  0  0  0  0  0  0  0  0
   37.6930   27.2300   36.6750 H   0  0  0  0  0  0  0  0  0  0  0  0
   40.1390   27.6490   36.1530 H   0  0  0  0  0  0  0  0  0  0  0  0
   40.9120   26.9960   33.9740 H   0  0  0  0  0  0  0  0  0  0  0  0
   39.7640   25.8460   31.7020 S   0  0  0  0  0  0  0  0  0  0  0  0
   41.2660   25.8990   32.1330 O   0  0  0  0  0  0  0  0  0  0  0  0
   39.5100   26.9560   30.7290 O   0  0  0  0  0  0  0  0  0  0  0  0
   40.2300   24.7120   30.6560 C   0  0  0  0  0  2  0  0  0  0  0  0
   39.0450   24.3370   29.6870 C   0  0  0  0  0  2  0  0  0  0  0  0
   38.1670   24.0310   30.2450 H   0  0  0  0  0  0  0  0  0  0  0  0
   36.8200   20.0760   30.7380 C   0  0  0  0  0  0  0  0  0  0  0  0
   35.7880   19.3420   31.3830 C   0  0  0  0  0  0  0  0  0  0  0  0
   34.8320   20.0610   32.1030 C   0  0  0  0  0  0  0  0  0  0  0  0
   34.9470   21.4140   32.1460 N   0  0  0  0  0  0  0  0  0  0  0  0
   35.9470   22.0840   31.5190 C   0  0  0  0  0  0  0  0  0  0  0  0
   36.8750   21.4110   30.8200 N   0  0  0  0  0  0  0  0  0  0  0  0
   37.5300   19.4790   30.1980 H   0  0  0  0  0  0  0  0  0  0  0  0
   35.6640   18.2850   31.3740 H   0  0  0  0  0  0  0  0  0  0  0  0
   34.0010   19.6260   32.6360 H   0  0  0  0  0  0  0  0  0  0  0  0
  1  6  1  0  0  0  0
  2  3  1  0  0  0  0
  2  1  2  0  0  0  0
  3  4  2  0  0  0  0
  4  5  1  0  0  0  0
  5 10  1  0  0  0  0
  6  5  2  0  0  0  0
  7  2  1  0  0  0  0
  8  3  1  0  0  0  0
  9 10  2  0  0  0  0
  9 14  1  0  0  0  0
 10 11  1  0  0  0  0
 11 15  1  0  0  0  0
 11 12  2  0  0  0  0
 12 16  1  0  0  0  0
 13 12  1  0  0  0  0
 13 17  1  0  0  0  0
 14 13  2  0  0  0  0
 18 14  1  0  0  0  0
 19 20  2  0  0  0  0
 19  9  1  0  0  0  0
 21 19  2  0  0  0  0
 22 19  1  0  0  0  0
 23 24  1  0  0  0  0
 23 22  1  0  0  0  0
 25 30  2  0  0  0  0
 25 26  1  0  0  0  0
 26 27  2  0  0  0  0
 27 28  1  0  0  0  0
 27 33  1  0  0  0  0
 29  1  1  0  0  0  0
 29 28  2  0  0  0  0
 30 29  1  0  0  0  0
 31 25  1  0  0  0  0
 32 26  1  0  0  0  0
M  END
>  <minimizedAffinity>
-5.19232655

$$$$

 OpenBabel03272504253D

 33 35  0  0  0  0  0  0  0  0999 V2000
   36.8940   25.2460   32.6660 C   0  0  0  0  0  0  0  0  0  0  0  0
   36.1280   25.9160   31.7770 C   0  0  0  0  0  0  0  0  0  0  0  0
   35.3960   25.2790   30.8550 C   0  0  0  0  0  0  0  0  0  0  0  0
   35.4460   23.9190   30.8390 N   0  0  0  0  0  0  0  0  0  0  0  0
   36.1870   23.2640   31.6990 C   0  0  0  0  0  0  0  0  0  0  0  0
   36.9240   23.9050   32.6250 N   0  0  0  0  0  0  0  0  0  0  0  0
   36.0890   26.9970   31.7920 H   0  0  0  0  0  0  0  0  0  0  0  0
   34.7840   25.8540   30.1480 H   0  0  0  0  0  0  0  0  0  0  0  0
   37.1810   21.1510   31.0080 C   0  0  0  0  0  0  0  0  0  0  0  0
   36.1230   21.8170   31.6310 C   0  0  0  0  0  0  0  0  0  0  0  0
   35.0060   21.1970   32.1420 C   0  0  0  0  0  0  0  0  0  0  0  0
   34.8930   19.8260   32.0480 C   0  0  0  0  0  0  0  0  0  0  0  0
   35.8790   19.0790   31.4580 C   0  0  0  0  0  0  0  0  0  0  0  0
   36.9390   19.7820   30.9860 C   0  0  0  0  0  0  0  0  0  0  0  0
   34.2250   21.8100   32.6150 H   0  0  0  0  0  0  0  0  0  0  0  0
   34.0070   19.4180   32.4570 H   0  0  0  0  0  0  0  0  0  0  0  0
   35.8140   18.0080   31.3750 H   0  0  0  0  0  0  0  0  0  0  0  0
   37.7310   19.1730   30.5130 H   0  0  0  0  0  0  0  0  0  0  0  0
   38.5720   21.8340   30.3960 S   0  0  0  0  0  0  0  0  0  0  0  0
   38.9740   20.6480   29.4580 O   0  0  0  0  0  0  0  0  0  0  0  0
   39.6020   21.9550   31.4760 O   0  0  0  0  0  0  0  0  0  0  0  0
   39.2680   22.7810   29.2930 C   0  0  0  0  0  2  0  0  0  0  0  0
   39.0630   24.2990   29.6640 C   0  0  0  0  0  2  0  0  0  0  0  0
   38.0110   24.5320   29.7850 H   0  0  0  0  0  0  0  0  0  0  0  0
   39.6930   26.2020   34.8360 C   0  0  0  0  0  0  0  0  0  0  0  0
   39.1110   27.2080   35.6540 C   0  0  0  0  0  0  0  0  0  0  0  0
   37.7690   27.5270   35.4360 C   0  0  0  0  0  0  0  0  0  0  0  0
   37.1030   26.8600   34.4570 N   0  0  0  0  0  0  0  0  0  0  0  0
   37.6900   25.9040   33.6930 C   0  0  0  0  0  0  0  0  0  0  0  0
   38.9790   25.5820   33.8880 N   0  0  0  0  0  0  0  0  0  0  0  0
   40.7250   25.9920   35.0420 H   0  0  0  0  0  0  0  0  0  0  0  0
   39.5980   27.7510   36.4290 H   0  0  0  0  0  0  0  0  0  0  0  0
   37.2120   28.2690   35.9870 H   0  0  0  0  0  0  0  0  0  0  0  0
  1 29  1  0  0  0  0
  2  7  1  0  0  0  0
  2  1  2  0  0  0  0
  3  2  1  0  0  0  0
  4  3  2  0  0  0  0
  4  5  1  0  0  0  0
  5  6  2  0  0  0  0
  6  1  1  0  0  0  0
  8  3  1  0  0  0  0
  9 10  1  0  0  0  0
 10  5  1  0  0  0  0
 10 11  2  0  0  0  0
 11 15  1  0  0  0  0
 12 11  1  0  0  0  0
 12 16  1  0  0  0  0
 13 12  2  0  0  0  0
 14  9  2  0  0  0  0
 14 13  1  0  0  0  0
 17 13  1  0  0  0  0
 18 14  1  0  0  0  0
 19  9  1  0  0  0  0
 19 21  2  0  0  0  0
 20 19  2  0  0  0  0
 22 23  1  0  0  0  0
 22 19  1  0  0  0  0
 23 24  1  0  0  0  0
 25 31  1  0  0  0  0
 25 26  1  0  0  0  0
 26 32  1  0  0  0  0
 27 26  2  0  0  0  0
 27 33  1  0  0  0  0
 28 27  1  0  0  0  0
 29 30  1  0  0  0  0
 29 28  2  0  0  0  0
 30 25  2  0  0  0  0
M  END
>  <minimizedAffinity>
-5.16262817

$$$$

 OpenBabel03272504253D

 33 35  0  0  0  0  0  0  0  0999 V2000
   35.7550   29.4470   33.0680 C   0  0  0  0  0  0  0  0  0  0  0  0
   36.3180   30.1060   32.0320 C   0  0  0  0  0  0  0  0  0  0  0  0
   36.8690   29.4580   30.9980 C   0  0  0  0  0  0  0  0  0  0  0  0
   36.8430   28.0980   31.0210 N   0  0  0  0  0  0  0  0  0  0  0  0
   36.2980   27.4520   32.0230 C   0  0  0  0  0  0  0  0  0  0  0  0
   35.7460   28.1040   33.0630 N   0  0  0  0  0  0  0  0  0  0  0  0
   36.3370   31.1870   32.0150 H   0  0  0  0  0  0  0  0  0  0  0  0
   37.3170   30.0250   30.1720 H   0  0  0  0  0  0  0  0  0  0  0  0
   37.2770   25.2930   32.5810 C   0  0  0  0  0  0  0  0  0  0  0  0
   36.2740   26.0060   31.9190 C   0  0  0  0  0  0  0  0  0  0  0  0
   35.2960   25.4320   31.1400 C   0  0  0  0  0  0  0  0  0  0  0  0
   35.2760   24.0630   30.9810 C   0  0  0  0  0  0  0  0  0  0  0  0
   36.2140   23.2720   31.5930 C   0  0  0  0  0  0  0  0  0  0  0  0
   37.1350   23.9310   32.3390 C   0  0  0  0  0  0  0  0  0  0  0  0
   34.5480   26.0800   30.6580 H   0  0  0  0  0  0  0  0  0  0  0  0
   34.5000   23.6910   30.3660 H   0  0  0  0  0  0  0  0  0  0  0  0
   36.2180   22.2010   31.4860 H   0  0  0  0  0  0  0  0  0  0  0  0
   37.8870   23.2870   32.8300 H   0  0  0  0  0  0  0  0  0  0  0  0
   38.4700   25.9190   33.5610 S   0  0  0  0  0  0  0  0  0  0  0  0
   39.4800   26.2860   32.4250 O   0  0  0  0  0  0  0  0  0  0  0  0
   39.0700   24.8320   34.3970 O   0  0  0  0  0  0  0  0  0  0  0  0
   39.0790   27.1890   34.3450 C   0  0  0  0  0  2  0  0  0  0  0  0
   38.2420   27.4830   35.6480 C   0  0  0  0  0  2  0  0  0  0  0  0
   37.1930   27.6230   35.4140 H   0  0  0  0  0  0  0  0  0  0  0  0
   33.2760   30.5890   35.5180 C   0  0  0  0  0  0  0  0  0  0  0  0
   34.0520   31.4240   36.3670 C   0  0  0  0  0  0  0  0  0  0  0  0
   35.4080   31.5710   36.0690 C   0  0  0  0  0  0  0  0  0  0  0  0
   35.9030   30.9090   34.9910 N   0  0  0  0  0  0  0  0  0  0  0  0
   35.1330   30.1180   34.2010 C   0  0  0  0  0  0  0  0  0  0  0  0
   33.8270   29.9640   34.4700 N   0  0  0  0  0  0  0  0  0  0  0  0
   32.2400   30.5070   35.7870 H   0  0  0  0  0  0  0  0  0  0  0  0
   33.7030   31.9580   37.2180 H   0  0  0  0  0  0  0  0  0  0  0  0
   36.1040   32.1740   36.6320 H   0  0  0  0  0  0  0  0  0  0  0  0
  1 29  1  0  0  0  0
  2  1  2  0  0  0  0
  3  4  2  0  0  0  0
  3  2  1  0  0  0  0
  4  5  1  0  0  0  0
  5  6  2  0  0  0  0
  6  1  1  0  0  0  0
  7  2  1  0  0  0  0
  8  3  1  0  0  0  0
  9 19  1  0  0  0  0
 10  5  1  0  0  0  0
 10  9  2  0  0  0  0
 11 10  1  0  0  0  0
 12 11  2  0  0  0  0
 12 13  1  0  0  0  0
 13 14  2  0  0  0  0
 14  9  1  0  0  0  0
 14 18  1  0  0  0  0
 15 11  1  0  0  0  0
 16 12  1  0  0  0  0
 17 13  1  0  0  0  0
 19 22  1  0  0  0  0
 19 21  2  0  0  0  0
 20 19  2  0  0  0  0
 22 23  1  0  0  0  0
 24 23  1  0  0  0  0
 25 31  1  0  0  0  0
 25 26  1  0  0  0  0
 26 32  1  0  0  0  0
 27 26  2  0  0  0  0
 27 33  1  0  0  0  0
 28 27  1  0  0  0  0
 29 30  1  0  0  0  0
 29 28  2  0  0  0  0
 30 25  2  0  0  0  0
M  END
>  <minimizedAffinity>
-5.07606173

$$$$

 OpenBabel03272504253D

 33 35  0  0  0  0  0  0  0  0999 V2000
   37.3270   25.7690   31.3510 C   0  0  0  0  0  0  0  0  0  0  0  0
   38.3750   25.5420   30.5300 C   0  0  0  0  0  0  0  0  0  0  0  0
   38.8060   24.3030   30.2610 C   0  0  0  0  0  0  0  0  0  0  0  0
   38.1460   23.2660   30.8450 N   0  0  0  0  0  0  0  0  0  0  0  0
   37.1280   23.4800   31.6420 C   0  0  0  0  0  0  0  0  0  0  0  0
   36.6960   24.7260   31.9130 N   0  0  0  0  0  0  0  0  0  0  0  0
   38.8980   26.3670   30.0660 H   0  0  0  0  0  0  0  0  0  0  0  0
   39.6610   24.1530   29.5890 H   0  0  0  0  0  0  0  0  0  0  0  0
   36.9010   21.8030   33.3930 C   0  0  0  0  0  0  0  0  0  0  0  0
   36.4620   22.3030   32.1650 C   0  0  0  0  0  0  0  0  0  0  0  0
   35.4730   21.7280   31.3990 C   0  0  0  0  0  0  0  0  0  0  0  0
   34.8550   20.5800   31.8460 C   0  0  0  0  0  0  0  0  0  0  0  0
   35.2110   20.0110   33.0410 C   0  0  0  0  0  0  0  0  0  0  0  0
   36.1940   20.6520   33.7220 C   0  0  0  0  0  0  0  0  0  0  0  0
   35.1970   22.1990   30.4430 H   0  0  0  0  0  0  0  0  0  0  0  0
   34.1090   20.1910   31.2050 H   0  0  0  0  0  0  0  0  0  0  0  0
   34.7420   19.1160   33.4120 H   0  0  0  0  0  0  0  0  0  0  0  0
   36.4750   20.1880   34.6850 H   0  0  0  0  0  0  0  0  0  0  0  0
   38.0680   22.4620   34.3820 S   0  0  0  0  0  0  0  0  0  0  0  0
   39.2850   21.6690   33.8020 O   0  0  0  0  0  0  0  0  0  0  0  0
   37.8480   22.0250   35.7970 O   0  0  0  0  0  0  0  0  0  0  0  0
   39.1280   23.6450   34.6590 C   0  0  0  0  0  2  0  0  0  0  0  0
   38.3780   24.9680   35.0710 C   0  0  0  0  0  2  0  0  0  0  0  0
   37.6480   25.2530   34.3220 H   0  0  0  0  0  0  0  0  0  0  0  0
   36.0880   28.7030   33.1710 C   0  0  0  0  0  0  0  0  0  0  0  0
   35.8750   29.6410   32.1230 C   0  0  0  0  0  0  0  0  0  0  0  0
   36.1630   29.2340   30.8190 C   0  0  0  0  0  0  0  0  0  0  0  0
   36.6290   27.9720   30.6300 N   0  0  0  0  0  0  0  0  0  0  0  0
   36.8220   27.1010   31.6530 C   0  0  0  0  0  0  0  0  0  0  0  0
   36.5490   27.4730   32.9140 N   0  0  0  0  0  0  0  0  0  0  0  0
   35.8520   29.0620   34.1550 H   0  0  0  0  0  0  0  0  0  0  0  0
   35.5130   30.6350   32.2310 H   0  0  0  0  0  0  0  0  0  0  0  0
   36.0460   29.8470   29.9390 H   0  0  0  0  0  0  0  0  0  0  0  0
  1 29  1  0  0  0  0
  1  6  1  0  0  0  0
  2  1  2  0  0  0  0
  3  2  1  0  0  0  0
  3  4  2  0  0  0  0
  4  5  1  0  0  0  0
  5  6  2  0  0  0  0
  5 10  1  0  0  0  0
  7  2  1  0  0  0  0
  8  3  1  0  0  0  0
  9 14  1  0  0  0  0
  9 19  1  0  0  0  0
 10  9  2  0  0  0  0
 11 12  2  0  0  0  0
 11 10  1  0  0  0  0
 12 13  1  0  0  0  0
 13 17  1  0  0  0  0
 13 14  2  0  0  0  0
 14 18  1  0  0  0  0
 15 11  1  0  0  0  0
 16 12  1  0  0  0  0
 19 22  1  0  0  0  0
 19 21  2  0  0  0  0
 20 19  2  0  0  0  0
 22 23  1  0  0  0  0
 24 23  1  0  0  0  0
 25 31  1  0  0  0  0
 26 32  1  0  0  0  0
 26 25  2  0  0  0  0
 27 26  1  0  0  0  0
 28 27  2  0  0  0  0
 28 29  1  0  0  0  0
 29 30  2  0  0  0  0
 30 25  1  0  0  0  0
 33 27  1  0  0  0  0
M  END
>  <minimizedAffinity>
-5.01713753

$$$$

 OpenBabel03272504253D

 33 35  0  0  0  0  0  0  0  0999 V2000
   35.9460   28.9920   32.4950 C   0  0  0  0  0  0  0  0  0  0  0  0
   35.5810   29.7430   31.4330 C   0  0  0  0  0  0  0  0  0  0  0  0
   34.5720   30.6210   31.5020 C   0  0  0  0  0  0  0  0  0  0  0  0
   33.9190   30.7380   32.6890 N   0  0  0  0  0  0  0  0  0  0  0  0
   34.2690   30.0130   33.7230 C   0  0  0  0  0  0  0  0  0  0  0  0
   35.2820   29.1290   33.6540 N   0  0  0  0  0  0  0  0  0  0  0  0
   36.1010   29.6480   30.4890 H   0  0  0  0  0  0  0  0  0  0  0  0
   34.3020   31.2150   30.6190 H   0  0  0  0  0  0  0  0  0  0  0  0
   34.0140   31.2750   35.7910 C   0  0  0  0  0  0  0  0  0  0  0  0
   33.5440   30.2590   34.9550 C   0  0  0  0  0  0  0  0  0  0  0  0
   32.4710   29.4480   35.2440 C   0  0  0  0  0  0  0  0  0  0  0  0
   31.7920   29.6240   36.4300 C   0  0  0  0  0  0  0  0  0  0  0  0
   32.1700   30.5960   37.3190 C   0  0  0  0  0  0  0  0  0  0  0  0
   33.2390   31.3430   36.9430 C   0  0  0  0  0  0  0  0  0  0  0  0
   32.1770   28.6730   34.5200 H   0  0  0  0  0  0  0  0  0  0  0  0
   30.9810   28.9620   36.5890 H   0  0  0  0  0  0  0  0  0  0  0  0
   31.6560   30.7540   38.2500 H   0  0  0  0  0  0  0  0  0  0  0  0
   33.5390   32.1270   37.6640 H   0  0  0  0  0  0  0  0  0  0  0  0
   35.2850   32.3090   35.4920 S   0  0  0  0  0  0  0  0  0  0  0  0
   36.4280   31.3580   35.9770 O   0  0  0  0  0  0  0  0  0  0  0  0
   35.2190   33.4830   36.4190 O   0  0  0  0  0  0  0  0  0  0  0  0
   36.3730   32.8850   34.4510 C   0  0  0  0  0  2  0  0  0  0  0  0
   37.3760   33.8530   35.1850 C   0  0  0  0  0  2  0  0  0  0  0  0
   36.8460   34.6520   35.6920 H   0  0  0  0  0  0  0  0  0  0  0  0
   38.1870   26.2150   33.3440 C   0  0  0  0  0  0  0  0  0  0  0  0
   39.1600   26.2850   32.3090 C   0  0  0  0  0  0  0  0  0  0  0  0
   39.0160   27.2890   31.3490 C   0  0  0  0  0  0  0  0  0  0  0  0
   37.9590   28.1350   31.4600 N   0  0  0  0  0  0  0  0  0  0  0  0
   37.0470   28.0400   32.4610 C   0  0  0  0  0  0  0  0  0  0  0  0
   37.1680   27.0820   33.3940 N   0  0  0  0  0  0  0  0  0  0  0  0
   38.3400   25.4270   34.0570 H   0  0  0  0  0  0  0  0  0  0  0  0
   39.9990   25.6430   32.1880 H   0  0  0  0  0  0  0  0  0  0  0  0
   39.6830   27.4490   30.5160 H   0  0  0  0  0  0  0  0  0  0  0  0
  1  6  1  0  0  0  0
  2  3  1  0  0  0  0
  2  1  2  0  0  0  0
  3  4  2  0  0  0  0
  4  5  1  0  0  0  0
  5 10  1  0  0  0  0
  6  5  2  0  0  0  0
  7  2  1  0  0  0  0
  8  3  1  0  0  0  0
  9 14  1  0  0  0  0
 10 11  1  0  0  0  0
 10  9  2  0  0  0  0
 11 12  2  0  0  0  0
 12 16  1  0  0  0  0
 12 13  1  0  0  0  0
 13 17  1  0  0  0  0
 14 13  2  0  0  0  0
 14 18  1  0  0  0  0
 15 11  1  0  0  0  0
 19  9  1  0  0  0  0
 19 20  2  0  0  0  0
 19 21  2  0  0  0  0
 22 23  1  0  0  0  0
 22 19  1  0  0  0  0
 23 24  1  0  0  0  0
 25 30  1  0  0  0  0
 25 31  1  0  0  0  0
 26 25  2  0  0  0  0
 27 28  2  0  0  0  0
 27 26  1  0  0  0  0
 28 29  1  0  0  0  0
 29  1  1  0  0  0  0
 29 30  2  0  0  0  0
 32 26  1  0  0  0  0
 33 27  1  0  0  0  0
M  END
>  <minimizedAffinity>
-5.01656818

$$$$

 OpenBabel03272504253D

 33 35  0  0  0  0  0  0  0  0999 V2000
   37.7170   25.5770   33.0410 C   0  0  0  0  0  0  0  0  0  0  0  0
   37.3320   24.5970   32.1950 C   0  0  0  0  0  0  0  0  0  0  0  0
   38.0180   23.4530   32.0800 C   0  0  0  0  0  0  0  0  0  0  0  0
   39.1280   23.3030   32.8510 N   0  0  0  0  0  0  0  0  0  0  0  0
   39.5070   24.2500   33.6750 C   0  0  0  0  0  0  0  0  0  0  0  0
   38.8180   25.4010   33.7900 N   0  0  0  0  0  0  0  0  0  0  0  0
   36.4490   24.7180   31.5820 H   0  0  0  0  0  0  0  0  0  0  0  0
   37.6760   22.6770   31.3820 H   0  0  0  0  0  0  0  0  0  0  0  0
   40.4510   23.4950   35.7890 C   0  0  0  0  0  0  0  0  0  0  0  0
   40.6700   23.9640   34.4920 C   0  0  0  0  0  0  0  0  0  0  0  0
   41.9120   24.2150   33.9550 C   0  0  0  0  0  0  0  0  0  0  0  0
   43.0360   24.0000   34.7230 C   0  0  0  0  0  0  0  0  0  0  0  0
   42.9300   23.5370   36.0090 C   0  0  0  0  0  0  0  0  0  0  0  0
   41.6640   23.3190   36.4460 C   0  0  0  0  0  0  0  0  0  0  0  0
   41.9820   24.5840   32.9200 H   0  0  0  0  0  0  0  0  0  0  0  0
   43.9560   24.2190   34.2480 H   0  0  0  0  0  0  0  0  0  0  0  0
   43.7920   23.3600   36.6280 H   0  0  0  0  0  0  0  0  0  0  0  0
   41.5850   22.9440   37.4840 H   0  0  0  0  0  0  0  0  0  0  0  0
   38.9820   23.1430   36.4900 S   0  0  0  0  0  0  0  0  0  0  0  0
   39.5150   22.8820   37.9380 O   0  0  0  0  0  0  0  0  0  0  0  0
   38.4480   21.8550   35.9430 O   0  0  0  0  0  0  0  0  0  0  0  0
   37.6400   23.6710   37.2110 C   0  0  0  0  0  2  0  0  0  0  0  0
   37.9870   24.3320   38.5990 C   0  0  0  0  0  2  0  0  0  0  0  0
   38.5360   23.6430   39.2320 H   0  0  0  0  0  0  0  0  0  0  0  0
   36.2540   28.5980   34.5210 C   0  0  0  0  0  0  0  0  0  0  0  0
   35.5890   29.1860   33.4100 C   0  0  0  0  0  0  0  0  0  0  0  0
   35.6620   28.5230   32.1840 C   0  0  0  0  0  0  0  0  0  0  0  0
   36.3630   27.3610   32.1240 N   0  0  0  0  0  0  0  0  0  0  0  0
   36.9880   26.8270   33.2050 C   0  0  0  0  0  0  0  0  0  0  0  0
   36.9280   27.4480   34.3930 N   0  0  0  0  0  0  0  0  0  0  0  0
   36.1690   29.1440   35.4410 H   0  0  0  0  0  0  0  0  0  0  0  0
   35.0310   30.0920   33.4170 H   0  0  0  0  0  0  0  0  0  0  0  0
   35.2030   28.8620   31.2680 H   0  0  0  0  0  0  0  0  0  0  0  0
  1 29  1  0  0  0  0
  1  6  1  0  0  0  0
  2  1  2  0  0  0  0
  3  2  1  0  0  0  0
  3  4  2  0  0  0  0
  4  5  1  0  0  0  0
  5  6  2  0  0  0  0
  5 10  1  0  0  0  0
  7  2  1  0  0  0  0
  8  3  1  0  0  0  0
  9 14  1  0  0  0  0
  9 19  1  0  0  0  0
 10  9  2  0  0  0  0
 11 10  1  0  0  0  0
 11 12  2  0  0  0  0
 12 13  1  0  0  0  0
 13 14  2  0  0  0  0
 13 17  1  0  0  0  0
 14 18  1  0  0  0  0
 15 11  1  0  0  0  0
 16 12  1  0  0  0  0
 19 22  1  0  0  0  0
 19 20  2  0  0  0  0
 21 19  2  0  0  0  0
 22 23  1  0  0  0  0
 23 24  1  0  0  0  0
 25 31  1  0  0  0  0
 26 32  1  0  0  0  0
 26 25  2  0  0  0  0
 27 26  1  0  0  0  0
 28 27  2  0  0  0  0
 28 29  1  0  0  0  0
 29 30  2  0  0  0  0
 30 25  1  0  0  0  0
 33 27  1  0  0  0  0
M  END
>  <minimizedAffinity>
-4.99827814

$$$$
