REMARK  Name = 
REMARK  5 active torsions:
REMARK  status: ('A' for Active; 'I' for Inactive)
REMARK    1  A    between atoms: C_1  and  C_8
REMARK    2  A    between atoms: C_4  and  O_13
REMARK    3  A    between atoms: O_13  and  C_14
REMARK    4  A    between atoms: N_17  and  C_27
REMARK    5  A    between atoms: C_27  and  C_28
REMARK                            x       y       z     vdW  Elec       q    Type
REMARK                         _______ _______ _______ _____ _____    ______ ____
ROOT
ATOM      1  C   UNL     1      33.829  28.791  48.276  0.00  0.00    +0.000 A 
ATOM      2  C   UNL     1      34.432  28.428  49.437  0.00  0.00    +0.000 A 
ATOM      3  C   UNL     1      35.705  28.795  49.813  0.00  0.00    +0.000 A 
ATOM      4  C   UNL     1      36.456  29.582  48.992  0.00  0.00    +0.000 A 
ATOM      5  C   UNL     1      35.846  29.965  47.790  0.00  0.00    +0.000 A 
ATOM      6  N   UNL     1      34.597  29.580  47.465  0.00  0.00    +0.000 NA
ATOM      7  H   UNL     1      33.907  27.803  50.147  0.00  0.00    +0.000 HD
ATOM      8  H   UNL     1      36.177  28.501  50.739  0.00  0.00    +0.000 HD
ATOM      9  H   UNL     1      36.336  30.588  47.055  0.00  0.00    +0.000 HD
ENDROOT
BRANCH   1  11
ATOM     10  C   UNL     1      31.649  27.663  48.695  0.00  0.00    +0.000 A 
ATOM     11  C   UNL     1      32.510  28.409  47.877  0.00  0.00    +0.000 A 
ATOM     12  C   UNL     1      32.036  28.762  46.643  0.00  0.00    +0.000 A 
ATOM     13  N   UNL     1      30.776  28.385  46.263  0.00  0.00    +0.000 NA
ATOM     14  C   UNL     1      29.982  27.659  47.102  0.00  0.00    +0.000 A 
ATOM     15  N   UNL     1      30.409  27.288  48.331  0.00  0.00    +0.000 NA
ATOM     16  H   UNL     1      31.975  27.359  49.681  0.00  0.00    +0.000 HD
ATOM     17  H   UNL     1      32.649  29.335  45.970  0.00  0.00    +0.000 HD
ATOM     18  H   UNL     1      29.008  27.435  46.658  0.00  0.00    +0.000 HD
ENDBRANCH   1  11
BRANCH   4  19
ATOM     19  O   UNL     1      37.749  30.048  49.204  0.00  0.00    +0.000 OA
BRANCH  19  20
ATOM     20  C   UNL     1      38.160  31.297  48.778  0.00  0.00    +0.000 A 
ATOM     21  C   UNL     1      37.875  32.323  49.678  0.00  0.00    +0.000 A 
ATOM     22  C   UNL     1      38.344  33.507  49.113  0.00  0.00    +0.000 A 
ATOM     23  N   UNL     1      38.880  33.178  47.929  0.00  0.00    +0.000 N 
ATOM     24  N   UNL     1      38.772  31.887  47.735  0.00  0.00    +0.000 NA
ATOM     25  H   UNL     1      37.399  32.396  50.659  0.00  0.00    +0.000 HD
ATOM     26  H   UNL     1      38.314  34.525  49.499  0.00  0.00    +0.000 HD
BRANCH  23  27
ATOM     27  C   UNL     1      39.489  34.111  47.002  0.00  0.00    +0.000 C 
BRANCH  27  28
ATOM     28  C   UNL     1      40.076  35.239  47.821  0.00  0.00    +0.000 C 
ATOM     29  H   UNL     1      39.414  36.114  47.768  0.00  0.00    +0.000 HD
ENDBRANCH  27  28
ENDBRANCH  23  27
ENDBRANCH  19  20
ENDBRANCH   4  19
TORSDOF 5
