
 OpenBabel03272508003D

 33 35  0  0  0  0  0  0  0  0999 V2000
   35.2440   29.1210   33.9600 C   0  0  0  0  0  0  0  0  0  0  0  0
   35.4200   29.4890   32.6310 C   0  0  0  0  0  0  0  0  0  0  0  0
   36.4570   28.9010   31.9070 C   0  0  0  0  0  0  0  0  0  0  0  0
   37.2890   27.9670   32.5080 C   0  0  0  0  0  0  0  0  0  0  0  0
   37.0830   27.6250   33.8310 C   0  0  0  0  0  0  0  0  0  0  0  0
   36.0840   28.2080   34.4930 N   0  0  0  0  0  0  0  0  0  0  0  0
   34.9030   30.1620   31.9640 H   0  0  0  0  0  0  0  0  0  0  0  0
   36.7260   29.0720   30.8870 H   0  0  0  0  0  0  0  0  0  0  0  0
   38.1080   27.4680   32.0230 H   0  0  0  0  0  0  0  0  0  0  0  0
   33.2610   31.6260   35.9310 C   0  0  0  0  0  0  0  0  0  0  0  0
   34.3730   30.9680   35.3380 C   0  0  0  0  0  0  0  0  0  0  0  0
   34.1410   29.8130   34.5760 C   0  0  0  0  0  0  0  0  0  0  0  0
   32.8490   29.3840   34.4490 N   0  0  0  0  0  0  0  0  0  0  0  0
   31.8140   30.0510   35.0390 C   0  0  0  0  0  0  0  0  0  0  0  0
   32.0220   31.1590   35.7710 N   0  0  0  0  0  0  0  0  0  0  0  0
   30.5740   29.4260   34.7640 N   0  0  0  0  0  0  0  0  0  0  0  0
   33.4490   32.5160   36.5170 H   0  0  0  0  0  0  0  0  0  0  0  0
   30.1120   29.3230   33.8280 H   0  0  0  0  0  0  0  0  0  0  0  0
   29.9730   28.9880   35.4980 H   0  0  0  0  0  0  0  0  0  0  0  0
   35.7300   31.5260   35.5460 C   0  0  0  0  0  0  0  0  0  0  0  0
   36.2800   32.0070   34.3560 F   0  0  0  0  0  0  0  0  0  0  0  0
   35.6620   32.5540   36.4200 F   0  0  0  0  0  0  0  0  0  0  0  0
   36.6310   30.5910   36.0450 F   0  0  0  0  0  0  0  0  0  0  0  0
   37.9080   26.6500   34.5270 C   0  0  0  0  0  0  0  0  0  0  0  0
   39.2820   26.5870   34.5170 C   0  0  0  0  0  0  0  0  0  0  0  0
   39.7160   25.5260   35.2950 C   0  0  0  0  0  0  0  0  0  0  0  0
   38.5570   24.9700   35.7600 N   0  0  0  0  0  0  0  0  0  0  0  0
   37.5110   25.6330   35.3050 N   0  0  0  0  0  0  0  0  0  0  0  0
   39.8930   27.3050   33.9530 H   0  0  0  0  0  0  0  0  0  0  0  0
   40.7450   25.2410   35.4670 H   0  0  0  0  0  0  0  0  0  0  0  0
   38.6100   23.8080   36.6290 C   0  0  0  0  0  2  0  0  0  0  0  0
   38.1490   24.1590   38.0160 C   0  0  0  0  0  2  0  0  0  0  0  0
   38.9210   23.8550   38.7730 H   0  0  0  0  0  0  0  0  0  0  0  0
  1  6  1  0  0  0  0
  1 12  1  0  0  0  0
  2  1  2  0  0  0  0
  3  4  2  0  0  0  0
  3  2  1  0  0  0  0
  4  5  1  0  0  0  0
  5  6  2  0  0  0  0
  5 24  1  0  0  0  0
  7  2  1  0  0  0  0
  8  3  1  0  0  0  0
  9  4  1  0  0  0  0
 10 17  1  0  0  0  0
 11 20  1  0  0  0  0
 11 10  2  0  0  0  0
 12 11  1  0  0  0  0
 13 12  2  0  0  0  0
 13 14  1  0  0  0  0
 14 15  2  0  0  0  0
 15 10  1  0  0  0  0
 16 14  1  0  0  0  0
 16 19  1  0  0  0  0
 18 16  1  0  0  0  0
 20 23  1  0  0  0  0
 20 22  1  0  0  0  0
 21 20  1  0  0  0  0
 24 28  2  0  0  0  0
 25 24  1  0  0  0  0
 25 26  2  0  0  0  0
 26 30  1  0  0  0  0
 26 27  1  0  0  0  0
 27 31  1  0  0  0  0
 28 27  1  0  0  0  0
 29 25  1  0  0  0  0
 31 32  1  0  0  0  0
 32 33  1  0  0  0  0
M  END
>  <minimizedAffinity>
-5.57879066

$$$$

 OpenBabel03272508003D

 33 35  0  0  0  0  0  0  0  0999 V2000
   37.6870   26.4930   32.9050 C   0  0  0  0  0  0  0  0  0  0  0  0
   38.7720   26.6630   32.0520 C   0  0  0  0  0  0  0  0  0  0  0  0
   38.7380   27.7070   31.1270 C   0  0  0  0  0  0  0  0  0  0  0  0
   37.6410   28.5540   31.0670 C   0  0  0  0  0  0  0  0  0  0  0  0
   36.5800   28.3550   31.9310 C   0  0  0  0  0  0  0  0  0  0  0  0
   36.6460   27.3470   32.8010 N   0  0  0  0  0  0  0  0  0  0  0  0
   39.7170   26.1540   31.9290 H   0  0  0  0  0  0  0  0  0  0  0  0
   39.4820   27.9720   30.4070 H   0  0  0  0  0  0  0  0  0  0  0  0
   37.5350   29.3790   30.3870 H   0  0  0  0  0  0  0  0  0  0  0  0
   38.3240   24.4710   36.0020 C   0  0  0  0  0  0  0  0  0  0  0  0
   38.1560   25.5970   35.1500 C   0  0  0  0  0  0  0  0  0  0  0  0
   37.8640   25.3770   33.7970 C   0  0  0  0  0  0  0  0  0  0  0  0
   37.7570   24.0810   33.3720 N   0  0  0  0  0  0  0  0  0  0  0  0
   37.9270   23.0320   34.2290 C   0  0  0  0  0  0  0  0  0  0  0  0
   38.2080   23.2290   35.5290 N   0  0  0  0  0  0  0  0  0  0  0  0
   37.7650   21.7920   33.5650 N   0  0  0  0  0  0  0  0  0  0  0  0
   38.5500   24.6500   37.0450 H   0  0  0  0  0  0  0  0  0  0  0  0
   36.8900   21.4230   33.1210 H   0  0  0  0  0  0  0  0  0  0  0  0
   38.5350   21.0950   33.4500 H   0  0  0  0  0  0  0  0  0  0  0  0
   38.2960   26.9550   35.7250 C   0  0  0  0  0  0  0  0  0  0  0  0
   38.3760   26.9220   37.1190 F   0  0  0  0  0  0  0  0  0  0  0  0
   39.4270   27.5260   35.2550 F   0  0  0  0  0  0  0  0  0  0  0  0
   37.2270   27.7890   35.4140 F   0  0  0  0  0  0  0  0  0  0  0  0
   35.4000   29.2050   31.9340 C   0  0  0  0  0  0  0  0  0  0  0  0
   35.2470   30.3920   31.2560 C   0  0  0  0  0  0  0  0  0  0  0  0
   33.9890   30.9190   31.4960 C   0  0  0  0  0  0  0  0  0  0  0  0
   33.4090   30.0060   32.3330 N   0  0  0  0  0  0  0  0  0  0  0  0
   34.2410   29.0120   32.5800 N   0  0  0  0  0  0  0  0  0  0  0  0
   36.0470   30.8120   30.6300 H   0  0  0  0  0  0  0  0  0  0  0  0
   33.5980   31.8430   31.0920 H   0  0  0  0  0  0  0  0  0  0  0  0
   32.0560   30.2210   32.8120 C   0  0  0  0  0  2  0  0  0  0  0  0
   31.4720   28.9440   33.3490 C   0  0  0  0  0  2  0  0  0  0  0  0
   30.4860   28.7270   32.8550 H   0  0  0  0  0  0  0  0  0  0  0  0
  1 12  1  0  0  0  0
  2  1  2  0  0  0  0
  3  2  1  0  0  0  0
  4  3  2  0  0  0  0
  4  5  1  0  0  0  0
  5 24  1  0  0  0  0
  5  6  2  0  0  0  0
  6  1  1  0  0  0  0
  7  2  1  0  0  0  0
  8  3  1  0  0  0  0
  9  4  1  0  0  0  0
 10 17  1  0  0  0  0
 11 20  1  0  0  0  0
 11 10  2  0  0  0  0
 12 11  1  0  0  0  0
 13 12  2  0  0  0  0
 13 14  1  0  0  0  0
 14 15  2  0  0  0  0
 15 10  1  0  0  0  0
 16 14  1  0  0  0  0
 18 16  1  0  0  0  0
 19 16  1  0  0  0  0
 20 21  1  0  0  0  0
 22 20  1  0  0  0  0
 23 20  1  0  0  0  0
 24 28  2  0  0  0  0
 25 26  2  0  0  0  0
 25 24  1  0  0  0  0
 26 27  1  0  0  0  0
 27 28  1  0  0  0  0
 27 31  1  0  0  0  0
 29 25  1  0  0  0  0
 30 26  1  0  0  0  0
 31 32  1  0  0  0  0
 33 32  1  0  0  0  0
M  END
>  <minimizedAffinity>
-5.54763937

$$$$

 OpenBabel03272508003D

 33 35  0  0  0  0  0  0  0  0999 V2000
   37.2600   25.2420   32.5080 C   0  0  0  0  0  0  0  0  0  0  0  0
   36.4260   26.1530   31.8690 C   0  0  0  0  0  0  0  0  0  0  0  0
   35.3680   25.6660   31.1010 C   0  0  0  0  0  0  0  0  0  0  0  0
   35.1600   24.2990   30.9840 C   0  0  0  0  0  0  0  0  0  0  0  0
   36.0090   23.4240   31.6330 C   0  0  0  0  0  0  0  0  0  0  0  0
   37.0100   23.9240   32.3580 N   0  0  0  0  0  0  0  0  0  0  0  0
   36.3840   27.2320   31.8290 H   0  0  0  0  0  0  0  0  0  0  0  0
   34.6440   26.2260   30.5510 H   0  0  0  0  0  0  0  0  0  0  0  0
   34.3720   23.8430   30.4140 H   0  0  0  0  0  0  0  0  0  0  0  0
   40.6180   26.5890   33.5110 C   0  0  0  0  0  0  0  0  0  0  0  0
   39.6110   25.9400   32.7450 C   0  0  0  0  0  0  0  0  0  0  0  0
   38.3060   25.8920   33.2560 C   0  0  0  0  0  0  0  0  0  0  0  0
   38.0760   26.4770   34.4700 N   0  0  0  0  0  0  0  0  0  0  0  0
   39.0780   27.0890   35.1680 C   0  0  0  0  0  0  0  0  0  0  0  0
   40.3330   27.1420   34.6900 N   0  0  0  0  0  0  0  0  0  0  0  0
   38.6020   27.6240   36.3900 N   0  0  0  0  0  0  0  0  0  0  0  0
   41.6220   26.6210   33.1090 H   0  0  0  0  0  0  0  0  0  0  0  0
   37.9030   28.3960   36.5110 H   0  0  0  0  0  0  0  0  0  0  0  0
   38.9160   27.2880   37.3280 H   0  0  0  0  0  0  0  0  0  0  0  0
   39.9790   25.3400   31.4410 C   0  0  0  0  0  0  0  0  0  0  0  0
   39.1860   25.8330   30.4020 F   0  0  0  0  0  0  0  0  0  0  0  0
   41.2670   25.6350   31.1590 F   0  0  0  0  0  0  0  0  0  0  0  0
   39.8360   23.9560   31.4200 F   0  0  0  0  0  0  0  0  0  0  0  0
   35.8500   21.9800   31.5650 C   0  0  0  0  0  0  0  0  0  0  0  0
   34.9490   21.2220   32.2780 C   0  0  0  0  0  0  0  0  0  0  0  0
   35.0880   19.8840   31.9500 C   0  0  0  0  0  0  0  0  0  0  0  0
   36.0940   19.8790   31.0240 N   0  0  0  0  0  0  0  0  0  0  0  0
   36.5300   21.1060   30.8090 N   0  0  0  0  0  0  0  0  0  0  0  0
   34.2470   21.6740   32.9920 H   0  0  0  0  0  0  0  0  0  0  0  0
   34.5100   19.0660   32.3580 H   0  0  0  0  0  0  0  0  0  0  0  0
   36.5290   18.6250   30.4360 C   0  0  0  0  0  2  0  0  0  0  0  0
   36.7450   18.7780   28.9560 C   0  0  0  0  0  2  0  0  0  0  0  0
   36.1610   18.0000   28.3940 H   0  0  0  0  0  0  0  0  0  0  0  0
  1 12  1  0  0  0  0
  2  1  2  0  0  0  0
  3  2  1  0  0  0  0
  4  3  2  0  0  0  0
  4  5  1  0  0  0  0
  5  6  2  0  0  0  0
  6  1  1  0  0  0  0
  7  2  1  0  0  0  0
  8  3  1  0  0  0  0
  9  4  1  0  0  0  0
 10 15  1  0  0  0  0
 11 12  1  0  0  0  0
 11 10  2  0  0  0  0
 12 13  2  0  0  0  0
 13 14  1  0  0  0  0
 14 16  1  0  0  0  0
 15 14  2  0  0  0  0
 16 18  1  0  0  0  0
 16 19  1  0  0  0  0
 17 10  1  0  0  0  0
 20 11  1  0  0  0  0
 21 20  1  0  0  0  0
 22 20  1  0  0  0  0
 23 20  1  0  0  0  0
 24  5  1  0  0  0  0
 24 25  1  0  0  0  0
 25 29  1  0  0  0  0
 26 25  2  0  0  0  0
 26 30  1  0  0  0  0
 27 26  1  0  0  0  0
 28 27  1  0  0  0  0
 28 24  2  0  0  0  0
 31 27  1  0  0  0  0
 32 31  1  0  0  0  0
 33 32  1  0  0  0  0
M  END
>  <minimizedAffinity>
-5.53036928

$$$$

 OpenBabel03272508003D

 33 35  0  0  0  0  0  0  0  0999 V2000
   37.5060   26.6400   33.2030 C   0  0  0  0  0  0  0  0  0  0  0  0
   37.7290   26.8610   31.8490 C   0  0  0  0  0  0  0  0  0  0  0  0
   37.1780   27.9980   31.2580 C   0  0  0  0  0  0  0  0  0  0  0  0
   36.4250   28.8850   32.0150 C   0  0  0  0  0  0  0  0  0  0  0  0
   36.2250   28.6330   33.3590 C   0  0  0  0  0  0  0  0  0  0  0  0
   36.7660   27.5360   33.8900 N   0  0  0  0  0  0  0  0  0  0  0  0
   38.2790   26.3350   31.0830 H   0  0  0  0  0  0  0  0  0  0  0  0
   37.2520   28.3120   30.2400 H   0  0  0  0  0  0  0  0  0  0  0  0
   35.9660   29.7810   31.6390 H   0  0  0  0  0  0  0  0  0  0  0  0
   39.9200   24.2740   34.8380 C   0  0  0  0  0  0  0  0  0  0  0  0
   39.3300   25.4900   34.3940 C   0  0  0  0  0  0  0  0  0  0  0  0
   38.1320   25.4290   33.6680 C   0  0  0  0  0  0  0  0  0  0  0  0
   37.5970   24.1940   33.4270 N   0  0  0  0  0  0  0  0  0  0  0  0
   38.2010   23.0540   33.8740 C   0  0  0  0  0  0  0  0  0  0  0  0
   39.3490   23.0980   34.5710 N   0  0  0  0  0  0  0  0  0  0  0  0
   37.4640   21.9020   33.5090 N   0  0  0  0  0  0  0  0  0  0  0  0
   40.8440   24.3300   35.3970 H   0  0  0  0  0  0  0  0  0  0  0  0
   36.4990   21.6420   33.8300 H   0  0  0  0  0  0  0  0  0  0  0  0
   37.8240   21.1680   32.8580 H   0  0  0  0  0  0  0  0  0  0  0  0
   40.0030   26.7700   34.7160 C   0  0  0  0  0  0  0  0  0  0  0  0
   39.2810   27.5130   35.6520 F   0  0  0  0  0  0  0  0  0  0  0  0
   41.2240   26.5160   35.2370 F   0  0  0  0  0  0  0  0  0  0  0  0
   40.1660   27.5910   33.6050 F   0  0  0  0  0  0  0  0  0  0  0  0
   35.4550   29.5190   34.2180 C   0  0  0  0  0  0  0  0  0  0  0  0
   34.0840   29.6230   34.2640 C   0  0  0  0  0  0  0  0  0  0  0  0
   33.7100   30.5700   35.2030 C   0  0  0  0  0  0  0  0  0  0  0  0
   34.9010   31.0170   35.7050 N   0  0  0  0  0  0  0  0  0  0  0  0
   35.9100   30.3980   35.1230 N   0  0  0  0  0  0  0  0  0  0  0  0
   33.4320   29.0150   33.6220 H   0  0  0  0  0  0  0  0  0  0  0  0
   32.6970   30.8570   35.4500 H   0  0  0  0  0  0  0  0  0  0  0  0
   34.9130   32.0390   36.7360 C   0  0  0  0  0  2  0  0  0  0  0  0
   33.5300   32.2580   37.2840 C   0  0  0  0  0  2  0  0  0  0  0  0
   33.2560   33.3470   37.2290 H   0  0  0  0  0  0  0  0  0  0  0  0
  1 12  1  0  0  0  0
  1  6  1  0  0  0  0
  2  1  2  0  0  0  0
  3  2  1  0  0  0  0
  3  4  2  0  0  0  0
  4  5  1  0  0  0  0
  5  6  2  0  0  0  0
  5 24  1  0  0  0  0
  7  2  1  0  0  0  0
  8  3  1  0  0  0  0
  9  4  1  0  0  0  0
 10 17  1  0  0  0  0
 11 20  1  0  0  0  0
 11 10  2  0  0  0  0
 12 11  1  0  0  0  0
 13 12  2  0  0  0  0
 13 14  1  0  0  0  0
 14 15  2  0  0  0  0
 15 10  1  0  0  0  0
 16 18  1  0  0  0  0
 16 14  1  0  0  0  0
 19 16  1  0  0  0  0
 20 22  1  0  0  0  0
 20 21  1  0  0  0  0
 23 20  1  0  0  0  0
 24 25  1  0  0  0  0
 24 28  2  0  0  0  0
 25 26  2  0  0  0  0
 26 30  1  0  0  0  0
 26 27  1  0  0  0  0
 27 31  1  0  0  0  0
 28 27  1  0  0  0  0
 29 25  1  0  0  0  0
 31 32  1  0  0  0  0
 33 32  1  0  0  0  0
M  END
>  <minimizedAffinity>
-5.52126074

$$$$

 OpenBabel03272508003D

 33 35  0  0  0  0  0  0  0  0999 V2000
   38.6490   24.0670   35.5360 C   0  0  0  0  0  0  0  0  0  0  0  0
   37.8670   24.0600   36.6850 C   0  0  0  0  0  0  0  0  0  0  0  0
   38.3630   23.4320   37.8280 C   0  0  0  0  0  0  0  0  0  0  0  0
   39.6130   22.8300   37.8080 C   0  0  0  0  0  0  0  0  0  0  0  0
   40.3630   22.8570   36.6470 C   0  0  0  0  0  0  0  0  0  0  0  0
   39.8570   23.4650   35.5750 N   0  0  0  0  0  0  0  0  0  0  0  0
   36.8970   24.4660   36.9360 H   0  0  0  0  0  0  0  0  0  0  0  0
   37.8930   23.3370   38.7820 H   0  0  0  0  0  0  0  0  0  0  0  0
   40.0670   22.3260   38.6410 H   0  0  0  0  0  0  0  0  0  0  0  0
   37.2880   26.7840   33.3310 C   0  0  0  0  0  0  0  0  0  0  0  0
   37.9320   26.1460   34.4270 C   0  0  0  0  0  0  0  0  0  0  0  0
   38.0040   24.7460   34.4410 C   0  0  0  0  0  0  0  0  0  0  0  0
   37.4470   24.0700   33.3910 N   0  0  0  0  0  0  0  0  0  0  0  0
   36.8390   24.7270   32.3600 C   0  0  0  0  0  0  0  0  0  0  0  0
   36.7630   26.0690   32.3350 N   0  0  0  0  0  0  0  0  0  0  0  0
   36.3440   23.8220   31.3920 N   0  0  0  0  0  0  0  0  0  0  0  0
   37.2360   27.8640   33.3280 H   0  0  0  0  0  0  0  0  0  0  0  0
   36.9060   23.1750   30.7870 H   0  0  0  0  0  0  0  0  0  0  0  0
   35.3280   23.7060   31.1760 H   0  0  0  0  0  0  0  0  0  0  0  0
   38.4990   26.9850   35.5090 C   0  0  0  0  0  0  0  0  0  0  0  0
   39.8890   26.8730   35.5760 F   0  0  0  0  0  0  0  0  0  0  0  0
   38.1950   28.2810   35.2780 F   0  0  0  0  0  0  0  0  0  0  0  0
   38.0170   26.6440   36.7690 F   0  0  0  0  0  0  0  0  0  0  0  0
   41.6830   22.2550   36.5520 C   0  0  0  0  0  0  0  0  0  0  0  0
   42.8460   22.8920   36.1850 C   0  0  0  0  0  0  0  0  0  0  0  0
   43.9050   22.0000   36.2090 C   0  0  0  0  0  0  0  0  0  0  0  0
   43.3300   20.8230   36.6020 N   0  0  0  0  0  0  0  0  0  0  0  0
   42.0350   20.9850   36.7980 N   0  0  0  0  0  0  0  0  0  0  0  0
   42.8670   23.9580   35.9210 H   0  0  0  0  0  0  0  0  0  0  0  0
   44.9350   22.2270   35.9670 H   0  0  0  0  0  0  0  0  0  0  0  0
   44.1460   19.6310   36.7430 C   0  0  0  0  0  2  0  0  0  0  0  0
   43.2830   18.4040   36.8440 C   0  0  0  0  0  2  0  0  0  0  0  0
   43.5490   17.8130   37.7620 H   0  0  0  0  0  0  0  0  0  0  0  0
  1  6  2  0  0  0  0
  1  2  1  0  0  0  0
  2  7  1  0  0  0  0
  2  3  2  0  0  0  0
  3  8  1  0  0  0  0
  4  3  1  0  0  0  0
  4  9  1  0  0  0  0
  5  4  2  0  0  0  0
  6  5  1  0  0  0  0
 10 11  1  0  0  0  0
 11 12  2  0  0  0  0
 11 20  1  0  0  0  0
 12  1  1  0  0  0  0
 13 12  1  0  0  0  0
 14 13  2  0  0  0  0
 15 14  1  0  0  0  0
 15 10  2  0  0  0  0
 16 14  1  0  0  0  0
 17 10  1  0  0  0  0
 18 16  1  0  0  0  0
 19 16  1  0  0  0  0
 20 21  1  0  0  0  0
 20 23  1  0  0  0  0
 22 20  1  0  0  0  0
 24  5  1  0  0  0  0
 24 28  2  0  0  0  0
 25 26  2  0  0  0  0
 25 24  1  0  0  0  0
 26 27  1  0  0  0  0
 27 31  1  0  0  0  0
 27 28  1  0  0  0  0
 29 25  1  0  0  0  0
 30 26  1  0  0  0  0
 31 32  1  0  0  0  0
 32 33  1  0  0  0  0
M  END
>  <minimizedAffinity>
-5.51077747

$$$$

 OpenBabel03272508003D

 33 35  0  0  0  0  0  0  0  0999 V2000
   36.6220   27.7460   32.6920 C   0  0  0  0  0  0  0  0  0  0  0  0
   36.9120   28.3590   31.4790 C   0  0  0  0  0  0  0  0  0  0  0  0
   36.6340   29.7180   31.3330 C   0  0  0  0  0  0  0  0  0  0  0  0
   36.0790   30.4360   32.3830 C   0  0  0  0  0  0  0  0  0  0  0  0
   35.8040   29.7930   33.5760 C   0  0  0  0  0  0  0  0  0  0  0  0
   36.0820   28.4930   33.6790 N   0  0  0  0  0  0  0  0  0  0  0  0
   37.3480   28.0190   30.5510 H   0  0  0  0  0  0  0  0  0  0  0  0
   36.7940   30.3340   30.4750 H   0  0  0  0  0  0  0  0  0  0  0  0
   35.8340   31.4810   32.3550 H   0  0  0  0  0  0  0  0  0  0  0  0
   38.4030   24.5070   33.3460 C   0  0  0  0  0  0  0  0  0  0  0  0
   38.1010   25.8960   33.3690 C   0  0  0  0  0  0  0  0  0  0  0  0
   36.9590   26.3460   32.6900 C   0  0  0  0  0  0  0  0  0  0  0  0
   36.1970   25.4140   32.0410 N   0  0  0  0  0  0  0  0  0  0  0  0
   36.5290   24.0890   32.0480 C   0  0  0  0  0  0  0  0  0  0  0  0
   37.6200   23.6450   32.6940 N   0  0  0  0  0  0  0  0  0  0  0  0
   35.5930   23.3200   31.3160 N   0  0  0  0  0  0  0  0  0  0  0  0
   39.2860   24.1690   33.8710 H   0  0  0  0  0  0  0  0  0  0  0  0
   34.5800   23.1740   31.5430 H   0  0  0  0  0  0  0  0  0  0  0  0
   35.8320   22.7990   30.4430 H   0  0  0  0  0  0  0  0  0  0  0  0
   39.0020   26.8120   34.1060 C   0  0  0  0  0  0  0  0  0  0  0  0
   39.9910   26.1140   34.8040 F   0  0  0  0  0  0  0  0  0  0  0  0
   39.6140   27.6400   33.2310 F   0  0  0  0  0  0  0  0  0  0  0  0
   38.3350   27.5900   35.0470 F   0  0  0  0  0  0  0  0  0  0  0  0
   35.2300   30.4780   34.7230 C   0  0  0  0  0  0  0  0  0  0  0  0
   35.8940   31.3190   35.5870 C   0  0  0  0  0  0  0  0  0  0  0  0
   35.0230   31.7860   36.5580 C   0  0  0  0  0  0  0  0  0  0  0  0
   33.8320   31.1960   36.2380 N   0  0  0  0  0  0  0  0  0  0  0  0
   33.9660   30.4360   35.1670 N   0  0  0  0  0  0  0  0  0  0  0  0
   36.9620   31.5470   35.4710 H   0  0  0  0  0  0  0  0  0  0  0  0
   35.2730   32.4630   37.3640 H   0  0  0  0  0  0  0  0  0  0  0  0
   32.6560   31.4540   37.0480 C   0  0  0  0  0  2  0  0  0  0  0  0
   31.6960   30.2980   36.9760 C   0  0  0  0  0  2  0  0  0  0  0  0
   30.6750   30.6580   36.6770 H   0  0  0  0  0  0  0  0  0  0  0  0
  1  6  1  0  0  0  0
  2  1  2  0  0  0  0
  3  2  1  0  0  0  0
  3  4  2  0  0  0  0
  4  5  1  0  0  0  0
  5  6  2  0  0  0  0
  5 24  1  0  0  0  0
  7  2  1  0  0  0  0
  8  3  1  0  0  0  0
  9  4  1  0  0  0  0
 10 11  1  0  0  0  0
 10 17  1  0  0  0  0
 11 20  1  0  0  0  0
 12  1  1  0  0  0  0
 12 11  2  0  0  0  0
 13 14  2  0  0  0  0
 13 12  1  0  0  0  0
 14 15  1  0  0  0  0
 15 10  2  0  0  0  0
 16 18  1  0  0  0  0
 16 14  1  0  0  0  0
 19 16  1  0  0  0  0
 20 21  1  0  0  0  0
 20 23  1  0  0  0  0
 22 20  1  0  0  0  0
 24 28  2  0  0  0  0
 24 25  1  0  0  0  0
 25 26  2  0  0  0  0
 26 30  1  0  0  0  0
 27 26  1  0  0  0  0
 27 31  1  0  0  0  0
 28 27  1  0  0  0  0
 29 25  1  0  0  0  0
 32 31  1  0  0  0  0
 33 32  1  0  0  0  0
M  END
>  <minimizedAffinity>
-5.50558043

$$$$

 OpenBabel03272508003D

 33 35  0  0  0  0  0  0  0  0999 V2000
   37.7130   25.2790   32.7800 C   0  0  0  0  0  0  0  0  0  0  0  0
   38.8130   25.4170   31.9420 C   0  0  0  0  0  0  0  0  0  0  0  0
   39.1010   26.6780   31.4180 C   0  0  0  0  0  0  0  0  0  0  0  0
   38.3000   27.7660   31.7330 C   0  0  0  0  0  0  0  0  0  0  0  0
   37.2140   27.5910   32.5710 C   0  0  0  0  0  0  0  0  0  0  0  0
   36.9690   26.3730   33.0520 N   0  0  0  0  0  0  0  0  0  0  0  0
   39.5700   24.7370   31.5780 H   0  0  0  0  0  0  0  0  0  0  0  0
   39.9000   26.9510   30.7640 H   0  0  0  0  0  0  0  0  0  0  0  0
   38.4500   28.7670   31.3740 H   0  0  0  0  0  0  0  0  0  0  0  0
   36.5930   21.7020   32.9890 C   0  0  0  0  0  0  0  0  0  0  0  0
   36.7400   23.0330   32.5090 C   0  0  0  0  0  0  0  0  0  0  0  0
   37.5420   23.9240   33.2370 C   0  0  0  0  0  0  0  0  0  0  0  0
   38.1390   23.4580   34.3750 N   0  0  0  0  0  0  0  0  0  0  0  0
   37.9680   22.1700   34.7960 C   0  0  0  0  0  0  0  0  0  0  0  0
   37.2030   21.3060   34.1080 N   0  0  0  0  0  0  0  0  0  0  0  0
   38.6850   21.9180   35.9900 N   0  0  0  0  0  0  0  0  0  0  0  0
   35.9730   21.0210   32.4220 H   0  0  0  0  0  0  0  0  0  0  0  0
   39.7260   21.9320   36.1170 H   0  0  0  0  0  0  0  0  0  0  0  0
   38.2270   21.6840   36.9000 H   0  0  0  0  0  0  0  0  0  0  0  0
   36.0420   23.4240   31.2620 C   0  0  0  0  0  0  0  0  0  0  0  0
   36.9370   23.8670   30.2860 F   0  0  0  0  0  0  0  0  0  0  0  0
   35.3780   22.3570   30.7670 F   0  0  0  0  0  0  0  0  0  0  0  0
   35.1280   24.4550   31.4520 F   0  0  0  0  0  0  0  0  0  0  0  0
   36.3340   28.6840   32.9530 C   0  0  0  0  0  0  0  0  0  0  0  0
   35.6970   29.5560   32.1000 C   0  0  0  0  0  0  0  0  0  0  0  0
   34.9420   30.4640   32.8250 C   0  0  0  0  0  0  0  0  0  0  0  0
   35.1540   30.0980   34.1250 N   0  0  0  0  0  0  0  0  0  0  0  0
   35.9670   29.0610   34.1870 N   0  0  0  0  0  0  0  0  0  0  0  0
   35.8120   29.4910   31.0100 H   0  0  0  0  0  0  0  0  0  0  0  0
   34.3380   31.2610   32.4130 H   0  0  0  0  0  0  0  0  0  0  0  0
   34.5130   30.8360   35.1980 C   0  0  0  0  0  2  0  0  0  0  0  0
   35.5330   31.5750   36.0200 C   0  0  0  0  0  2  0  0  0  0  0  0
   35.4170   31.3190   37.1070 H   0  0  0  0  0  0  0  0  0  0  0  0
  1  6  1  0  0  0  0
  1 12  1  0  0  0  0
  2  1  2  0  0  0  0
  3  4  2  0  0  0  0
  3  2  1  0  0  0  0
  4  5  1  0  0  0  0
  5 24  1  0  0  0  0
  5  6  2  0  0  0  0
  7  2  1  0  0  0  0
  8  3  1  0  0  0  0
  9  4  1  0  0  0  0
 10 15  1  0  0  0  0
 11 10  2  0  0  0  0
 11 12  1  0  0  0  0
 12 13  2  0  0  0  0
 13 14  1  0  0  0  0
 14 16  1  0  0  0  0
 15 14  2  0  0  0  0
 16 18  1  0  0  0  0
 16 19  1  0  0  0  0
 17 10  1  0  0  0  0
 20 23  1  0  0  0  0
 20 11  1  0  0  0  0
 21 20  1  0  0  0  0
 22 20  1  0  0  0  0
 24 28  2  0  0  0  0
 25 26  2  0  0  0  0
 25 24  1  0  0  0  0
 26 27  1  0  0  0  0
 27 28  1  0  0  0  0
 27 31  1  0  0  0  0
 29 25  1  0  0  0  0
 30 26  1  0  0  0  0
 31 32  1  0  0  0  0
 32 33  1  0  0  0  0
M  END
>  <minimizedAffinity>
-5.47102785

$$$$

 OpenBabel03272508003D

 33 35  0  0  0  0  0  0  0  0999 V2000
   37.6950   25.4540   32.3470 C   0  0  0  0  0  0  0  0  0  0  0  0
   36.8030   26.4060   31.8680 C   0  0  0  0  0  0  0  0  0  0  0  0
   35.6080   25.9730   31.2940 C   0  0  0  0  0  0  0  0  0  0  0  0
   35.3240   24.6180   31.2060 C   0  0  0  0  0  0  0  0  0  0  0  0
   36.2350   23.6990   31.6920 C   0  0  0  0  0  0  0  0  0  0  0  0
   37.3670   24.1490   32.2340 N   0  0  0  0  0  0  0  0  0  0  0  0
   36.8000   27.4860   31.8430 H   0  0  0  0  0  0  0  0  0  0  0  0
   34.8230   26.5690   30.8810 H   0  0  0  0  0  0  0  0  0  0  0  0
   34.4300   24.2010   30.7790 H   0  0  0  0  0  0  0  0  0  0  0  0
   40.1970   26.7780   34.8120 C   0  0  0  0  0  0  0  0  0  0  0  0
   39.0130   26.1850   34.2950 C   0  0  0  0  0  0  0  0  0  0  0  0
   38.8820   26.0490   32.9050 C   0  0  0  0  0  0  0  0  0  0  0  0
   39.9090   26.4990   32.1230 N   0  0  0  0  0  0  0  0  0  0  0  0
   41.0280   27.0620   32.6670 C   0  0  0  0  0  0  0  0  0  0  0  0
   41.1660   27.1980   33.9970 N   0  0  0  0  0  0  0  0  0  0  0  0
   41.9520   27.4450   31.6650 N   0  0  0  0  0  0  0  0  0  0  0  0
   40.2900   26.8800   35.8850 H   0  0  0  0  0  0  0  0  0  0  0  0
   42.4640   26.8120   31.0040 H   0  0  0  0  0  0  0  0  0  0  0  0
   42.2250   28.4360   31.4810 H   0  0  0  0  0  0  0  0  0  0  0  0
   37.9650   25.7360   35.2420 C   0  0  0  0  0  0  0  0  0  0  0  0
   37.7470   24.3590   35.1570 F   0  0  0  0  0  0  0  0  0  0  0  0
   38.3520   26.0200   36.5050 F   0  0  0  0  0  0  0  0  0  0  0  0
   36.7340   26.3430   35.0180 F   0  0  0  0  0  0  0  0  0  0  0  0
   36.0050   22.2640   31.6430 C   0  0  0  0  0  0  0  0  0  0  0  0
   35.0840   21.5590   32.3840 C   0  0  0  0  0  0  0  0  0  0  0  0
   35.1510   20.2120   32.0680 C   0  0  0  0  0  0  0  0  0  0  0  0
   36.1360   20.1490   31.1220 N   0  0  0  0  0  0  0  0  0  0  0  0
   36.6260   21.3500   30.8830 N   0  0  0  0  0  0  0  0  0  0  0  0
   34.4200   22.0510   33.1070 H   0  0  0  0  0  0  0  0  0  0  0  0
   34.5440   19.4270   32.4970 H   0  0  0  0  0  0  0  0  0  0  0  0
   36.4980   18.8690   30.5390 C   0  0  0  0  0  2  0  0  0  0  0  0
   36.7950   19.0170   29.0720 C   0  0  0  0  0  2  0  0  0  0  0  0
   36.1780   18.2940   28.4740 H   0  0  0  0  0  0  0  0  0  0  0  0
  1 12  1  0  0  0  0
  2  1  2  0  0  0  0
  3  2  1  0  0  0  0
  4  3  2  0  0  0  0
  4  5  1  0  0  0  0
  5  6  2  0  0  0  0
  6  1  1  0  0  0  0
  7  2  1  0  0  0  0
  8  3  1  0  0  0  0
  9  4  1  0  0  0  0
 10 17  1  0  0  0  0
 11 10  1  0  0  0  0
 11 20  1  0  0  0  0
 12 11  2  0  0  0  0
 13 14  2  0  0  0  0
 13 12  1  0  0  0  0
 14 15  1  0  0  0  0
 15 10  2  0  0  0  0
 16 14  1  0  0  0  0
 18 16  1  0  0  0  0
 19 16  1  0  0  0  0
 20 22  1  0  0  0  0
 21 20  1  0  0  0  0
 23 20  1  0  0  0  0
 24  5  1  0  0  0  0
 24 25  1  0  0  0  0
 25 29  1  0  0  0  0
 26 25  2  0  0  0  0
 26 30  1  0  0  0  0
 27 26  1  0  0  0  0
 28 27  1  0  0  0  0
 28 24  2  0  0  0  0
 31 27  1  0  0  0  0
 32 31  1  0  0  0  0
 33 32  1  0  0  0  0
M  END
>  <minimizedAffinity>
-5.45626974

$$$$

 OpenBabel03272508003D

 33 35  0  0  0  0  0  0  0  0999 V2000
   35.0890   29.7240   33.0550 C   0  0  0  0  0  0  0  0  0  0  0  0
   35.7640   30.5970   32.2110 C   0  0  0  0  0  0  0  0  0  0  0  0
   36.5350   30.0650   31.1770 C   0  0  0  0  0  0  0  0  0  0  0  0
   36.6190   28.6910   31.0020 C   0  0  0  0  0  0  0  0  0  0  0  0
   35.9330   27.8530   31.8610 C   0  0  0  0  0  0  0  0  0  0  0  0
   35.2070   28.3970   32.8380 N   0  0  0  0  0  0  0  0  0  0  0  0
   35.8340   31.6730   32.1430 H   0  0  0  0  0  0  0  0  0  0  0  0
   37.1110   30.5920   30.4480 H   0  0  0  0  0  0  0  0  0  0  0  0
   37.1890   28.2000   30.2350 H   0  0  0  0  0  0  0  0  0  0  0  0
   32.2490   31.2680   34.9650 C   0  0  0  0  0  0  0  0  0  0  0  0
   32.9550   30.5780   33.9410 C   0  0  0  0  0  0  0  0  0  0  0  0
   34.3420   30.4180   34.0730 C   0  0  0  0  0  0  0  0  0  0  0  0
   34.9390   30.9390   35.1870 N   0  0  0  0  0  0  0  0  0  0  0  0
   34.2180   31.5940   36.1440 C   0  0  0  0  0  0  0  0  0  0  0  0
   32.8890   31.7550   36.0300 N   0  0  0  0  0  0  0  0  0  0  0  0
   35.0480   32.0390   37.2000 N   0  0  0  0  0  0  0  0  0  0  0  0
   31.1800   31.3870   34.8550 H   0  0  0  0  0  0  0  0  0  0  0  0
   35.5920   31.4430   37.8700 H   0  0  0  0  0  0  0  0  0  0  0  0
   35.2050   33.0470   37.4260 H   0  0  0  0  0  0  0  0  0  0  0  0
   32.1990   30.0560   32.7780 C   0  0  0  0  0  0  0  0  0  0  0  0
   30.8390   30.3620   32.8660 F   0  0  0  0  0  0  0  0  0  0  0  0
   32.6790   30.6130   31.6450 F   0  0  0  0  0  0  0  0  0  0  0  0
   32.2820   28.6730   32.6530 F   0  0  0  0  0  0  0  0  0  0  0  0
   35.9660   26.4040   31.7370 C   0  0  0  0  0  0  0  0  0  0  0  0
   35.1550   25.6350   30.9340 C   0  0  0  0  0  0  0  0  0  0  0  0
   35.4770   24.2960   31.0780 C   0  0  0  0  0  0  0  0  0  0  0  0
   36.4980   24.3020   31.9870 N   0  0  0  0  0  0  0  0  0  0  0  0
   36.7730   25.5360   32.3640 N   0  0  0  0  0  0  0  0  0  0  0  0
   34.3820   26.0790   30.2940 H   0  0  0  0  0  0  0  0  0  0  0  0
   35.0030   23.4690   30.5670 H   0  0  0  0  0  0  0  0  0  0  0  0
   37.1090   23.0510   32.3970 C   0  0  0  0  0  2  0  0  0  0  0  0
   36.3590   21.8800   31.8270 C   0  0  0  0  0  2  0  0  0  0  0  0
   36.0680   21.1660   32.6440 H   0  0  0  0  0  0  0  0  0  0  0  0
  1 12  1  0  0  0  0
  2  1  2  0  0  0  0
  3  2  1  0  0  0  0
  4  3  2  0  0  0  0
  4  5  1  0  0  0  0
  5  6  2  0  0  0  0
  6  1  1  0  0  0  0
  7  2  1  0  0  0  0
  8  3  1  0  0  0  0
  9  4  1  0  0  0  0
 10 15  1  0  0  0  0
 11 12  1  0  0  0  0
 11 10  2  0  0  0  0
 12 13  2  0  0  0  0
 13 14  1  0  0  0  0
 14 16  1  0  0  0  0
 15 14  2  0  0  0  0
 16 19  1  0  0  0  0
 16 18  1  0  0  0  0
 17 10  1  0  0  0  0
 20 21  1  0  0  0  0
 20 11  1  0  0  0  0
 22 20  1  0  0  0  0
 23 20  1  0  0  0  0
 24  5  1  0  0  0  0
 24 28  2  0  0  0  0
 25 26  2  0  0  0  0
 25 24  1  0  0  0  0
 26 27  1  0  0  0  0
 27 28  1  0  0  0  0
 27 31  1  0  0  0  0
 29 25  1  0  0  0  0
 30 26  1  0  0  0  0
 32 31  1  0  0  0  0
 32 33  1  0  0  0  0
M  END
>  <minimizedAffinity>
-5.44705439

$$$$
