
 OpenBabel03262521063D

 36 37  0  0  1  0  0  0  0  0999 V2000
   37.3950   31.2770   44.9610 C   0  0  2  0  0  0  0  0  0  0  0  0
   38.7350   31.0700   44.3750 C   0  0  0  0  0  0  0  0  0  0  0  0
   39.7800   30.7190   45.4120 C   0  0  0  0  0  0  0  0  0  0  0  0
   39.8760   31.7370   46.5120 C   0  0  0  0  0  0  0  0  0  0  0  0
   38.5460   32.2990   46.9280 C   0  0  0  0  0  0  0  0  0  0  0  0
   37.3920   31.4210   46.4490 C   0  0  2  0  0  0  0  0  0  0  0  0
   36.9230   32.2340   44.5720 H   0  0  0  0  0  0  0  0  0  0  0  0
   39.0980   32.0770   43.9690 H   0  0  0  0  0  0  0  0  0  0  0  0
   38.9060   30.3680   43.5870 H   0  0  0  0  0  0  0  0  0  0  0  0
   40.7490   30.6550   44.8620 H   0  0  0  0  0  0  0  0  0  0  0  0
   39.5680   29.7020   45.7880 H   0  0  0  0  0  0  0  0  0  0  0  0
   40.5880   32.5260   46.1880 H   0  0  0  0  0  0  0  0  0  0  0  0
   40.3660   31.2250   47.3720 H   0  0  0  0  0  0  0  0  0  0  0  0
   38.4360   33.2630   46.3810 H   0  0  0  0  0  0  0  0  0  0  0  0
   38.5630   32.4220   48.0030 H   0  0  0  0  0  0  0  0  0  0  0  0
   36.4620   32.0000   46.7220 H   0  0  0  0  0  0  0  0  0  0  0  0
   36.4290   30.2250   44.6100 C   0  0  0  0  0  0  0  0  0  0  0  0
   36.8400   29.3470   43.5800 C   0  0  0  0  0  0  0  0  0  0  0  0
   35.9500   28.3290   43.2490 C   0  0  0  0  0  0  0  0  0  0  0  0
   34.7620   28.2230   43.9050 N   0  0  0  0  0  0  0  0  0  0  0  0
   34.4110   29.0940   44.8900 C   0  0  0  0  0  0  0  0  0  0  0  0
   35.2440   30.0510   45.2040 N   0  0  0  0  0  0  0  0  0  0  0  0
   37.6730   29.2060   42.9190 H   0  0  0  0  0  0  0  0  0  0  0  0
   36.0080   27.5450   42.5250 H   0  0  0  0  0  0  0  0  0  0  0  0
   33.4720   29.0250   45.4200 H   0  0  0  0  0  0  0  0  0  0  0  0
   37.4010   30.2730   47.2470 N   0  0  0  0  0  0  0  0  0  0  0  0
   37.3230   29.3920   46.6920 H   0  0  0  0  0  0  0  0  0  0  0  0
   36.2600   30.2140   48.5120 S   0  0  0  0  0  0  0  0  0  0  0  0
   34.9710   30.8020   47.9590 O   0  0  0  0  0  0  0  0  0  0  0  0
   34.5780   31.6040   48.3700 H   0  0  0  0  0  0  0  0  0  0  0  0
   35.9820   28.8190   48.9890 O   0  0  0  0  0  0  0  0  0  0  0  0
   36.6040   28.4190   49.6620 H   0  0  0  0  0  0  0  0  0  0  0  0
   36.6780   31.1630   49.8140 O   0  0  0  0  0  0  0  0  0  0  0  0
   37.8200   30.7290   50.4560 C   0  0  0  0  0  0  0  0  0  0  0  0
   37.3900   30.0690   51.7540 C   0  0  0  0  0  0  0  0  0  0  0  0
   37.9110   29.0980   51.9260 H   0  0  0  0  0  0  0  0  0  0  0  0
  1  7  1  6  0  0  0
  1  6  1  0  0  0  0
  2  1  1  0  0  0  0
  2  3  1  0  0  0  0
  3 11  1  0  0  0  0
  3  4  1  0  0  0  0
  4  5  1  0  0  0  0
  4 13  1  0  0  0  0
  5 15  1  0  0  0  0
  6 16  1  1  0  0  0
  6  5  1  0  0  0  0
  6 26  1  0  0  0  0
  8  2  1  0  0  0  0
  9  2  1  0  0  0  0
 10  3  1  0  0  0  0
 12  4  1  0  0  0  0
 14  5  1  0  0  0  0
 17  1  1  0  0  0  0
 17 22  1  0  0  0  0
 18 17  2  0  0  0  0
 19 18  1  0  0  0  0
 19 20  2  0  0  0  0
 20 21  1  0  0  0  0
 21 22  2  0  0  0  0
 21 25  1  0  0  0  0
 23 18  1  0  0  0  0
 24 19  1  0  0  0  0
 26 28  1  0  0  0  0
 27 26  1  0  0  0  0
 28 31  1  0  0  0  0
 28 33  1  0  0  0  0
 29 30  1  0  0  0  0
 29 28  1  0  0  0  0
 31 32  1  0  0  0  0
 33 34  1  0  0  0  0
 34 35  1  0  0  0  0
 35 36  1  0  0  0  0
M  END
>  <minimizedAffinity>
-4.33633518

>  <minimizedRMSD>
3.28635454

$$$$
