
 OpenBabel03272510103D

 22 23  0  0  0  0  0  0  0  0999 V2000
   37.2470   30.9180   48.0540 C   0  0  0  0  0  0  0  0  0  0  0  0
   38.2640   31.8440   47.9860 C   0  0  0  0  0  0  0  0  0  0  0  0
   38.6930   32.3710   46.7750 C   0  0  0  0  0  0  0  0  0  0  0  0
   38.1260   31.9970   45.5940 C   0  0  0  0  0  0  0  0  0  0  0  0
   37.1130   31.0690   45.7080 C   0  0  0  0  0  0  0  0  0  0  0  0
   36.6930   30.5560   46.8790 N   0  0  0  0  0  0  0  0  0  0  0  0
   38.7510   32.1780   48.8930 H   0  0  0  0  0  0  0  0  0  0  0  0
   39.5050   33.1090   46.7330 H   0  0  0  0  0  0  0  0  0  0  0  0
   36.5750   30.6840   44.8510 H   0  0  0  0  0  0  0  0  0  0  0  0
   37.5100   30.4110   50.5100 C   0  0  0  0  0  0  0  0  0  0  0  0
   36.7780   30.3500   49.3020 C   0  0  0  0  0  0  0  0  0  0  0  0
   35.5580   29.7120   49.3330 C   0  0  0  0  0  0  0  0  0  0  0  0
   35.1040   29.1720   50.4980 N   0  0  0  0  0  0  0  0  0  0  0  0
   35.8380   29.2530   51.6360 C   0  0  0  0  0  0  0  0  0  0  0  0
   37.0280   29.8670   51.6400 N   0  0  0  0  0  0  0  0  0  0  0  0
   38.4590   30.9260   50.4110 H   0  0  0  0  0  0  0  0  0  0  0  0
   34.9000   29.5990   48.4650 H   0  0  0  0  0  0  0  0  0  0  0  0
   35.4920   28.8300   52.5720 H   0  0  0  0  0  0  0  0  0  0  0  0
   38.4760   32.4580   44.3360 O   0  0  0  0  0  0  0  0  0  0  0  0
   39.8210   32.6000   43.9580 C   0  0  0  0  0  2  0  0  0  0  0  0
   40.1950   34.0560   44.1080 C   0  0  0  0  0  2  0  0  0  0  0  0
   39.2700   34.6650   43.9480 H   0  0  0  0  0  0  0  0  0  0  0  0
  1 11  1  0  0  0  0
  2  1  1  0  0  0  0
  2  7  1  0  0  0  0
  3  2  2  0  0  0  0
  4  5  2  0  0  0  0
  4  3  1  0  0  0  0
  5  6  1  0  0  0  0
  6  1  2  0  0  0  0
  8  3  1  0  0  0  0
  9  5  1  0  0  0  0
 10 15  1  0  0  0  0
 11 12  1  0  0  0  0
 11 10  2  0  0  0  0
 12 13  2  0  0  0  0
 13 14  1  0  0  0  0
 14 15  2  0  0  0  0
 14 18  1  0  0  0  0
 16 10  1  0  0  0  0
 17 12  1  0  0  0  0
 19  4  1  0  0  0  0
 20 21  1  0  0  0  0
 20 19  1  0  0  0  0
 22 21  1  0  0  0  0
M  END
>  <minimizedAffinity>
-4.18655396

>  <minimizedRMSD>
2.33959389

$$$$
