
 OpenBabel03272510103D

 22 23  0  0  0  0  0  0  0  0999 V2000
   35.0050   29.8350   48.4410 C   0  0  0  0  0  0  0  0  0  0  0  0
   35.3600   30.1320   49.7380 C   0  0  0  0  0  0  0  0  0  0  0  0
   36.5230   30.8300   50.0350 C   0  0  0  0  0  0  0  0  0  0  0  0
   37.3690   31.2550   49.0560 C   0  0  0  0  0  0  0  0  0  0  0  0
   36.9760   30.9370   47.7740 C   0  0  0  0  0  0  0  0  0  0  0  0
   35.8510   30.2610   47.4800 N   0  0  0  0  0  0  0  0  0  0  0  0
   34.7250   29.8190   50.5560 H   0  0  0  0  0  0  0  0  0  0  0  0
   36.7960   31.0610   51.0740 H   0  0  0  0  0  0  0  0  0  0  0  0
   37.5530   31.2130   46.9020 H   0  0  0  0  0  0  0  0  0  0  0  0
   33.1850   28.1680   48.9580 C   0  0  0  0  0  0  0  0  0  0  0  0
   33.7990   29.1080   48.0990 C   0  0  0  0  0  0  0  0  0  0  0  0
   33.2050   29.3300   46.8760 C   0  0  0  0  0  0  0  0  0  0  0  0
   32.0710   28.6540   46.5400 N   0  0  0  0  0  0  0  0  0  0  0  0
   31.5130   27.7610   47.3950 C   0  0  0  0  0  0  0  0  0  0  0  0
   32.0660   27.5220   48.5910 N   0  0  0  0  0  0  0  0  0  0  0  0
   33.7050   28.0450   49.9010 H   0  0  0  0  0  0  0  0  0  0  0  0
   33.5850   30.0300   46.1260 H   0  0  0  0  0  0  0  0  0  0  0  0
   30.6110   27.2150   47.1440 H   0  0  0  0  0  0  0  0  0  0  0  0
   38.5500   31.9550   49.2430 O   0  0  0  0  0  0  0  0  0  0  0  0
   38.8960   33.0390   48.4180 C   0  0  0  0  0  2  0  0  0  0  0  0
   39.4110   34.1490   49.3030 C   0  0  0  0  0  2  0  0  0  0  0  0
   38.9090   34.0550   50.2980 H   0  0  0  0  0  0  0  0  0  0  0  0
  1  2  1  0  0  0  0
  2  3  2  0  0  0  0
  2  7  1  0  0  0  0
  3  8  1  0  0  0  0
  4 19  1  0  0  0  0
  4  3  1  0  0  0  0
  5  4  2  0  0  0  0
  6  5  1  0  0  0  0
  6  1  2  0  0  0  0
  9  5  1  0  0  0  0
 10 16  1  0  0  0  0
 11  1  1  0  0  0  0
 11 10  2  0  0  0  0
 12 11  1  0  0  0  0
 13 12  2  0  0  0  0
 13 14  1  0  0  0  0
 14 15  2  0  0  0  0
 15 10  1  0  0  0  0
 17 12  1  0  0  0  0
 18 14  1  0  0  0  0
 20 19  1  0  0  0  0
 20 21  1  0  0  0  0
 21 22  1  0  0  0  0
M  END
>  <minimizedAffinity>
-4.55588818

>  <minimizedRMSD>
3.71891356

$$$$
