REMARK  Name = 
REMARK  5 active torsions:
REMARK  status: ('A' for Active; 'I' for Inactive)
REMARK    1  A    between atoms: C_3  and  C_10
REMARK    2  A    between atoms: C_8  and  C_15
REMARK    3  A    between atoms: C_15  and  O_17
REMARK    4  A    between atoms: O_17  and  C_23
REMARK    5  A    between atoms: C_23  and  C_24
REMARK                            x       y       z     vdW  Elec       q    Type
REMARK                         _______ _______ _______ _____ _____    ______ ____
ROOT
ATOM      1 CL   UNL     1      36.809  32.177  50.130  0.00  0.00    +0.000 Cl
ATOM      2  C   UNL     1      37.544  31.917  48.581  0.00  0.00    +0.000 A 
ATOM      3  C   UNL     1      36.965  30.904  47.882  0.00  0.00    +0.000 A 
ATOM      4  C   UNL     1      37.496  30.613  46.601  0.00  0.00    +0.000 A 
ATOM      5  C   UNL     1      38.542  31.311  46.079  0.00  0.00    +0.000 A 
ATOM      6  C   UNL     1      39.100  32.328  46.814  0.00  0.00    +0.000 A 
ATOM      7 CL   UNL     1      40.435  33.243  46.187  0.00  0.00    +0.000 Cl
ATOM      8  C   UNL     1      38.602  32.617  48.044  0.00  0.00    +0.000 A 
ATOM      9  H   UNL     1      37.104  29.828  45.971  0.00  0.00    +0.000 HD
ATOM     10  H   UNL     1      38.951  31.092  45.099  0.00  0.00    +0.000 HD
ENDROOT
BRANCH   3  12
ATOM     11  C   UNL     1      36.034  29.093  49.260  0.00  0.00    +0.000 A 
ATOM     12  C   UNL     1      35.843  30.027  48.240  0.00  0.00    +0.000 A 
ATOM     13  C   UNL     1      34.589  30.081  47.609  0.00  0.00    +0.000 A 
ATOM     14  N   UNL     1      33.634  29.219  48.028  0.00  0.00    +0.000 NA
ATOM     15  C   UNL     1      33.856  28.327  49.021  0.00  0.00    +0.000 A 
ATOM     16  N   UNL     1      35.062  28.263  49.640  0.00  0.00    +0.000 NA
ATOM     17  H   UNL     1      37.003  29.060  49.739  0.00  0.00    +0.000 HD
ATOM     18  H   UNL     1      34.449  30.791  46.836  0.00  0.00    +0.000 HD
ATOM     19  H   UNL     1      33.091  27.632  49.362  0.00  0.00    +0.000 HD
ENDBRANCH   3  12
BRANCH   8  20
ATOM     20  C   UNL     1      39.139  33.691  48.901  0.00  0.00    +0.000 C 
ATOM     21  O   UNL     1      39.273  34.885  48.663  0.00  0.00    +0.000 OA
BRANCH  20  22
ATOM     22  O   UNL     1      39.622  33.536  50.221  0.00  0.00    +0.000 OA
BRANCH  22  23
ATOM     23  C   UNL     1      40.116  34.590  50.978  0.00  0.00    +0.000 C 
BRANCH  23  24
ATOM     24  C   UNL     1      41.397  34.300  51.714  0.00  0.00    +0.000 C 
ATOM     25  H   UNL     1      41.422  34.955  52.629  0.00  0.00    +0.000 HD
ENDBRANCH  23  24
ENDBRANCH  22  23
ENDBRANCH  20  22
ENDBRANCH   8  20
TORSDOF 5
