
     RDKit          3D

 21 21  0  0  0  0  0  0  0  0999 V2000
   36.7914   29.6821   51.1341 C   0  0  0  0  0  0  0  0  0  0  0  0
   37.3080   30.0600   49.8877 C   0  0  0  0  0  0  0  0  0  0  0  0
   36.5514   29.8525   48.7341 C   0  0  0  0  0  0  0  0  0  0  0  0
   35.3182   29.2772   48.8950 N   0  0  0  0  0  0  0  0  0  0  0  0
   34.8430   28.9229   50.0995 C   0  0  0  0  0  0  0  0  0  0  0  0
   35.5581   29.1179   51.1991 N   0  0  0  0  0  0  0  0  0  0  0  0
   38.6290   32.0638   49.5045 C   0  0  0  0  0  0  0  0  0  0  0  0
   37.7850   33.0423   49.4569 O   0  0  0  0  0  0  0  0  0  0  0  0
   38.5537   30.6476   49.6723 N   0  0  0  0  0  0  0  0  0  0  0  0
   37.6563   29.9527   52.1609 O   0  0  0  0  0  0  0  0  0  0  0  0
   36.9052   30.1267   47.7480 H   0  0  0  0  0  0  0  0  0  0  0  0
   33.8704   28.4681   50.2361 H   0  0  0  0  0  0  0  0  0  0  0  0
   39.4773   32.7272   49.3640 H   0  0  0  0  0  0  0  0  0  0  0  0
   39.5300   30.2865   49.5956 H   0  0  0  0  0  0  0  0  0  0  0  0
   37.2791   29.6293   53.4843 C   0  0  0  0  0  0  0  0  0  0  0  0
   35.7775   29.7303   53.6068 C   0  0  0  0  0  0  0  0  0  0  0  0
   35.3497   28.8907   54.2126 H   0  0  0  0  0  0  0  0  0  0  0  0
   37.7625   30.2808   54.2326 H   0  0  0  0  0  0  0  0  0  0  0  0
   37.5305   28.5718   53.7403 H   0  0  0  0  0  0  0  0  0  0  0  0
   35.5638   30.7165   54.1080 H   0  0  0  0  0  0  0  0  0  0  0  0
   35.3491   29.7448   52.5989 H   0  0  0  0  0  0  0  0  0  0  0  0
  1  6  2  0
  1 10  1  0
  2  1  1  0
  3  4  1  0
  3  2  2  0
  4  5  2  0
  5  6  1  0
  7  9  1  0
  8  7  2  0
  9  2  1  0
  3 11  1  0
  5 12  1  0
  7 13  1  0
  9 14  1  0
 15 16  1  0
 16 17  1  0
 15 18  1  0
 15 19  1  0
 16 20  1  0
 16 21  1  0
 10 15  1  0
M  ISO  4  11  14  12  14  13   6  17   8
M  END
>  <DihAtoms>  (1) 
0,9,14,15

>  <DihDeg>  (1) 
-60.191961843582426

$$$$
