
 OpenBabel03272507373D

 17 17  0  0  0  0  0  0  0  0999 V2000
   37.4960   30.1610   49.1570 C   0  0  0  0  0  0  0  0  0  0  0  0
   36.3130   29.4120   49.1160 C   0  0  0  0  0  0  0  0  0  0  0  0
   35.6590   29.0880   50.3060 C   0  0  0  0  0  0  0  0  0  0  0  0
   36.2280   29.5340   51.4690 N   0  0  0  0  0  0  0  0  0  0  0  0
   37.3630   30.2510   51.4840 C   0  0  0  0  0  0  0  0  0  0  0  0
   37.9890   30.5610   50.3570 N   0  0  0  0  0  0  0  0  0  0  0  0
   34.7410   28.5130   50.3280 H   0  0  0  0  0  0  0  0  0  0  0  0
   37.8200   30.6070   52.3990 H   0  0  0  0  0  0  0  0  0  0  0  0
   34.6020   29.6730   47.4090 C   0  0  0  0  0  0  0  0  0  0  0  0
   33.9400   30.7370   47.7300 O   0  0  0  0  0  0  0  0  0  0  0  0
   35.6940   28.9370   47.9600 N   0  0  0  0  0  0  0  0  0  0  0  0
   34.0060   29.5140   46.5160 H   0  0  0  0  0  0  0  0  0  0  0  0
   35.8380   28.1100   47.3410 H   0  0  0  0  0  0  0  0  0  0  0  0
   38.0100   30.3920   47.9090 O   0  0  0  0  0  0  0  0  0  0  0  0
   38.5430   31.6660   47.6070 C   0  0  0  0  0  2  0  0  0  0  0  0
   38.1310   32.0530   46.2070 C   0  0  0  0  0  2  0  0  0  0  0  0
   37.8350   33.1300   46.1400 H   0  0  0  0  0  0  0  0  0  0  0  0
  1  6  1  0  0  0  0
  2  1  2  0  0  0  0
  2  3  1  0  0  0  0
  3  7  1  0  0  0  0
  3  4  2  0  0  0  0
  4  5  1  0  0  0  0
  5  8  1  0  0  0  0
  6  5  2  0  0  0  0
  9 10  2  0  0  0  0
  9 11  1  0  0  0  0
 11  2  1  0  0  0  0
 12  9  1  0  0  0  0
 13 11  1  0  0  0  0
 14  1  1  0  0  0  0
 15 14  1  0  0  0  0
 16 15  1  0  0  0  0
 17 16  1  0  0  0  0
M  END
>  <minimizedAffinity>
-3.35826874

>  <minimizedRMSD>
4.32594776

$$$$
