
 OpenBabel03262521463D

 24 24  0  0  0  0  0  0  0  0999 V2000
   37.7480   30.5260   50.8630 C   0  0  0  0  0  0  0  0  0  0  0  0
   37.2550   31.2740   51.5430 H   0  0  0  0  0  0  0  0  0  0  0  0
   38.6960   30.2740   51.3960 H   0  0  0  0  0  0  0  0  0  0  0  0
   38.1100   31.1930   49.6100 C   0  0  0  0  0  0  0  0  0  0  0  0
   38.5510   32.5030   49.5550 C   0  0  0  0  0  0  0  0  0  0  0  0
   38.8700   33.0350   48.2790 C   0  0  0  0  0  0  0  0  0  0  0  0
   38.7240   32.2240   47.1800 N   0  0  0  0  0  0  0  0  0  0  0  0
   38.2850   30.9390   47.2910 C   0  0  0  0  0  0  0  0  0  0  0  0
   37.9830   30.4390   48.5080 N   0  0  0  0  0  0  0  0  0  0  0  0
   38.6430   33.0840   50.4610 H   0  0  0  0  0  0  0  0  0  0  0  0
   39.2140   34.0430   48.2050 H   0  0  0  0  0  0  0  0  0  0  0  0
   38.1930   30.3620   46.3880 H   0  0  0  0  0  0  0  0  0  0  0  0
   36.9750   29.2630   50.7010 C   0  0  0  0  0  0  0  0  0  0  0  0
   36.8110   29.0750   49.6230 H   0  0  0  0  0  0  0  0  0  0  0  0
   37.4770   28.3820   51.1740 H   0  0  0  0  0  0  0  0  0  0  0  0
   35.7130   29.4480   51.2800 O   0  0  0  0  0  0  0  0  0  0  0  0
   34.6900   30.5310   49.1440 O   0  0  0  0  0  0  0  0  0  0  0  0
   34.4790   29.3920   50.1450 P   0  0  2  0  0  0  0  0  0  0  0  0
   32.9770   29.6480   50.8140 O   0  0  0  0  0  0  0  0  0  0  0  0
   32.6970   28.9030   51.3980 H   0  0  0  0  0  0  0  0  0  0  0  0
   34.4820   27.9130   49.3240 O   0  0  0  0  0  0  0  0  0  0  0  0
   33.4360   27.7880   48.4550 C   0  0  0  0  0  0  0  0  0  0  0  0
   33.7140   26.5820   47.5490 C   0  0  0  0  0  0  0  0  0  0  0  0
   33.4480   25.6320   48.0520 H   0  0  0  0  0  0  0  0  0  0  0  0
  1  3  1  0  0  0  0
  1  2  1  0  0  0  0
  4  1  1  0  0  0  0
  5  4  1  0  0  0  0
  5 10  1  0  0  0  0
  6  5  2  0  0  0  0
  7  8  2  0  0  0  0
  7  6  1  0  0  0  0
  8  9  1  0  0  0  0
  9  4  2  0  0  0  0
 11  6  1  0  0  0  0
 12  8  1  0  0  0  0
 13  1  1  0  0  0  0
 13 15  1  0  0  0  0
 13 16  1  0  0  0  0
 14 13  1  0  0  0  0
 18 17  2  6  0  0  0
 18 19  1  0  0  0  0
 18 16  1  0  0  0  0
 19 20  1  0  0  0  0
 21 18  1  0  0  0  0
 22 21  1  0  0  0  0
 23 24  1  0  0  0  0
 23 22  1  0  0  0  0
M  END
>  <minimizedAffinity>
-4.72172308

>  <minimizedRMSD>
0.150593907

$$$$
