
     RDKit          3D

 29 30  0  0  0  0  0  0  0  0999 V2000
   36.8087   32.1770   50.1305 Cl  0  0  0  0  0  0  0  0  0  0  0  0
   37.5439   31.9171   48.5810 C   0  0  0  0  0  0  0  0  0  0  0  0
   36.9645   30.9036   47.8819 C   0  0  0  0  0  0  0  0  0  0  0  0
   37.4956   30.6134   46.6014 C   0  0  0  0  0  0  0  0  0  0  0  0
   38.5420   31.3115   46.0788 C   0  0  0  0  0  0  0  0  0  0  0  0
   39.1004   32.3275   46.8142 C   0  0  0  0  0  0  0  0  0  0  0  0
   40.4352   33.2427   46.1869 Cl  0  0  0  0  0  0  0  0  0  0  0  0
   38.6017   32.6169   48.0436 C   0  0  0  0  0  0  0  0  0  0  0  0
   36.0339   29.0932   49.2599 C   0  0  0  0  0  0  0  0  0  0  0  0
   35.8426   30.0269   48.2403 C   0  0  0  0  0  0  0  0  0  0  0  0
   34.5894   30.0814   47.6086 C   0  0  0  0  0  0  0  0  0  0  0  0
   33.6337   29.2192   48.0283 N   0  0  0  0  0  0  0  0  0  0  0  0
   33.8564   28.3272   49.0207 C   0  0  0  0  0  0  0  0  0  0  0  0
   35.0624   28.2634   49.6401 N   0  0  0  0  0  0  0  0  0  0  0  0
   39.1386   33.6907   48.9010 C   0  0  0  0  0  0  0  0  0  0  0  0
   39.2731   34.8854   48.6629 O   0  0  0  0  0  0  0  0  0  0  0  0
   39.6218   33.5358   50.2209 O   0  0  0  0  0  0  0  0  0  0  0  0
   37.1042   29.8282   45.9707 H   0  0  0  0  0  0  0  0  0  0  0  0
   38.9509   31.0916   45.0985 H   0  0  0  0  0  0  0  0  0  0  0  0
   37.0033   29.0603   49.7394 H   0  0  0  0  0  0  0  0  0  0  0  0
   34.4493   30.7912   46.8359 H   0  0  0  0  0  0  0  0  0  0  0  0
   33.0909   27.6317   49.3618 H   0  0  0  0  0  0  0  0  0  0  0  0
   40.1163   34.5899   50.9785 C   0  0  0  0  0  0  0  0  0  0  0  0
   41.5462   34.4396   51.4221 C   0  0  0  0  0  0  0  0  0  0  0  0
   41.6699   35.0176   52.3809 H   0  0  0  0  0  0  0  0  0  0  0  0
   39.4452   34.7228   51.8449 H   0  0  0  0  0  0  0  0  0  0  0  0
   39.9942   35.5183   50.3627 H   0  0  0  0  0  0  0  0  0  0  0  0
   42.2575   34.8733   50.7038 H   0  0  0  0  0  0  0  0  0  0  0  0
   41.7503   33.3764   51.6627 H   0  0  0  0  0  0  0  0  0  0  0  0
  2  1  1  0
  3 10  1  0
  3  2  2  0
  4  3  1  0
  5  4  2  0
  5  6  1  0
  6  8  2  0
  7  6  1  0
  8  2  1  0
  8 15  1  0
  9 14  2  0
 10  9  1  0
 11 12  1  0
 11 10  2  0
 12 13  2  0
 13 14  1  0
 15 17  1  0
 16 15  2  0
  4 18  1  0
  5 19  1  0
  9 20  1  0
 11 21  1  0
 13 22  1  0
 23 24  1  0
 24 25  1  0
 23 26  1  0
 23 27  1  0
 24 28  1  0
 24 29  1  0
 17 23  1  0
M  ISO  6  18  14  19  14  20  14  21  14  22  14  25   8
M  END
>  <DihAtoms>  (1) 
14,16,22,23

>  <DihDeg>  (1) 
-60.00134026236387

$$$$
