
     RDKit          3D

 31 32  0  0  0  0  0  0  0  0999 V2000
   37.9931   31.4005   47.6451 C   0  0  0  0  0  0  0  0  0  0  0  0
   37.0733   31.3302   48.6742 C   0  0  0  0  0  0  0  0  0  0  0  0
   37.2006   32.3541   49.6102 C   0  0  0  0  0  0  0  0  0  0  0  0
   38.1746   33.3459   49.4964 C   0  0  0  0  0  0  0  0  0  0  0  0
   39.0620   33.3264   48.4107 C   0  0  0  0  0  0  0  0  0  0  0  0
   38.9479   32.3266   47.4840 C   0  0  0  0  0  0  0  0  0  0  0  0
   34.9345   30.3498   47.9871 C   0  0  0  0  0  0  0  0  0  0  0  0
   36.0744   30.3129   48.7913 C   0  0  0  0  0  0  0  0  0  0  0  0
   36.1975   29.2554   49.7027 C   0  0  0  0  0  0  0  0  0  0  0  0
   35.2047   28.3337   49.7489 N   0  0  0  0  0  0  0  0  0  0  0  0
   34.1087   28.4028   48.9493 C   0  0  0  0  0  0  0  0  0  0  0  0
   33.9770   29.4131   48.0690 N   0  0  0  0  0  0  0  0  0  0  0  0
   37.3749   29.1580   50.5796 C   0  0  0  0  0  0  0  0  0  0  0  0
   37.9459   30.3999   46.6374 O   0  0  0  0  0  0  0  0  0  0  0  0
   39.8469   32.3348   46.4113 O   0  0  0  0  0  0  0  0  0  0  0  0
   36.5210   32.3803   50.4534 H   0  0  0  0  0  0  0  0  0  0  0  0
   38.2623   34.1340   50.2295 H   0  0  0  0  0  0  0  0  0  0  0  0
   39.8193   34.0932   48.3177 H   0  0  0  0  0  0  0  0  0  0  0  0
   34.8586   31.1754   47.2892 H   0  0  0  0  0  0  0  0  0  0  0  0
   33.3372   27.6469   49.0162 H   0  0  0  0  0  0  0  0  0  0  0  0
   38.1646   29.8335   50.1958 H   0  0  0  0  0  0  0  0  0  0  0  0
   37.1845   29.3937   51.6425 H   0  0  0  0  0  0  0  0  0  0  0  0
   37.7305   28.0912   50.4928 H   0  0  0  0  0  0  0  0  0  0  0  0
   37.4485   30.5613   45.7658 H   0  0  0  0  0  0  0  0  0  0  0  0
   40.8372   33.2988   46.2462 C   0  0  0  0  0  0  0  0  0  0  0  0
   41.3604   33.2090   44.8084 C   0  0  0  0  0  0  0  0  0  0  0  0
   40.6466   33.6828   44.1156 H   0  0  0  0  0  0  0  0  0  0  0  0
   41.6758   33.1134   46.9573 H   0  0  0  0  0  0  0  0  0  0  0  0
   40.4503   34.3219   46.4393 H   0  0  0  0  0  0  0  0  0  0  0  0
   42.3244   33.7420   44.6839 H   0  0  0  0  0  0  0  0  0  0  0  0
   41.5192   32.1383   44.5666 H   0  0  0  0  0  0  0  0  0  0  0  0
  1  2  2  0
  2  8  1  0
  2  3  1  0
  4  3  2  0
  5  4  1  0
  6  1  1  0
  6  5  2  0
  7 12  2  0
  7  8  1  0
  8  9  2  0
  9 10  1  0
  9 13  1  0
 11 10  2  0
 12 11  1  0
 14  1  1  0
 15  6  1  0
  3 16  1  0
  4 17  1  0
  5 18  1  0
  7 19  1  0
 11 20  1  0
 13 21  1  0
 13 22  1  0
 13 23  1  0
 14 24  1  0
 25 26  1  0
 26 27  1  0
 25 28  1  0
 25 29  1  0
 26 30  1  0
 26 31  1  0
 15 25  1  0
M  ISO  8  16  14  17  14  18  14  19  14  20  14  21   8  22   8  23   8
M  ISO  2  24   3  27   8
M  END
>  <DihAtoms>  (1) 
5,14,24,25

>  <DihDeg>  (1) 
-179.9976157010713

$$$$
