REMARK  Name = 
REMARK  3 active torsions:
REMARK  status: ('A' for Active; 'I' for Inactive)
REMARK    1  A    between atoms: C_5  and  O_7
REMARK    2  A    between atoms: O_7  and  C_11
REMARK    3  A    between atoms: C_11  and  C_12
REMARK                            x       y       z     vdW  Elec       q    Type
REMARK                         _______ _______ _______ _____ _____    ______ ____
ROOT
ATOM      1  C   UNL     1      37.325  30.230  51.413  0.00  0.00    +0.000 A 
ATOM      2  C   UNL     1      38.074  30.733  50.344  0.00  0.00    +0.000 A 
ATOM      3  C   UNL     1      37.700  30.374  49.045  0.00  0.00    +0.000 A 
ATOM      4  N   UNL     1      36.615  29.548  48.914  0.00  0.00    +0.000 NA
ATOM      5  C   UNL     1      35.920  29.084  49.965  0.00  0.00    +0.000 A 
ATOM      6  N   UNL     1      36.286  29.434  51.214  0.00  0.00    +0.000 NA
ATOM      7  H   UNL     1      37.600  30.498  52.436  0.00  0.00    +0.000 HD
ATOM      8  H   UNL     1      38.922  31.382  50.484  0.00  0.00    +0.000 HD
ATOM      9  H   UNL     1      38.263  30.752  48.222  0.00  0.00    +0.000 HD
ENDROOT
BRANCH   5  10
ATOM     10  O   UNL     1      34.872  28.271  49.593  0.00  0.00    +0.000 OA
BRANCH  10  11
ATOM     11  C   UNL     1      34.060  27.717  50.612  0.00  0.00    +0.000 C 
BRANCH  11  12
ATOM     12  C   UNL     1      34.005  28.627  51.807  0.00  0.00    +0.000 C 
ATOM     13  H   UNL     1      33.321  29.471  51.650  0.00  0.00    +0.000 HD
ENDBRANCH  11  12
ENDBRANCH  10  11
ENDBRANCH   5  10
TORSDOF 3
