
 OpenBabel03272508093D

 18 18  0  0  0  0  0  0  0  0999 V2000
   38.7890   23.3900   38.4950 C   0  0  0  0  0  0  0  0  0  0  0  0
   37.9970   24.2920   37.7880 C   0  0  0  0  0  0  0  0  0  0  0  0
   38.2880   24.5340   36.4370 C   0  0  0  0  0  0  0  0  0  0  0  0
   39.3390   23.8630   35.8980 N   0  0  0  0  0  0  0  0  0  0  0  0
   40.0920   22.9930   36.6080 C   0  0  0  0  0  0  0  0  0  0  0  0
   39.8110   22.7640   37.8960 N   0  0  0  0  0  0  0  0  0  0  0  0
   38.4610   23.2890   39.5330 H   0  0  0  0  0  0  0  0  0  0  0  0
   37.1700   24.8370   38.1630 H   0  0  0  0  0  0  0  0  0  0  0  0
   40.9280   22.4760   36.1320 H   0  0  0  0  0  0  0  0  0  0  0  0
   37.6610   25.3560   35.5730 O   0  0  0  0  0  0  0  0  0  0  0  0
   39.0430   26.9440   33.9240 O   0  0  0  0  0  0  0  0  0  0  0  0
   38.1010   26.9030   35.0760 P   0  0  2  0  0  0  0  0  0  0  0  0
   38.7120   27.7990   36.3830 O   0  0  0  0  0  0  0  0  0  0  0  0
   39.4060   27.3050   36.8860 H   0  0  0  0  0  0  0  0  0  0  0  0
   36.6780   27.7250   34.6020 O   0  0  0  0  0  0  0  0  0  0  0  0
   36.5530   27.7310   33.2190 C   0  0  0  0  0  2  0  0  0  0  0  0
   36.1120   29.0450   32.6540 C   0  0  0  0  0  2  0  0  0  0  0  0
   36.2610   29.9100   33.3270 H   0  0  0  0  0  0  0  0  0  0  0  0
  1  7  1  0  0  0  0
  2  8  1  0  0  0  0
  2  1  2  0  0  0  0
  3  2  1  0  0  0  0
  4  3  2  0  0  0  0
  4  5  1  0  0  0  0
  5  6  2  0  0  0  0
  6  1  1  0  0  0  0
  9  5  1  0  0  0  0
 10  3  1  0  0  0  0
 12 11  2  6  0  0  0
 12 10  1  0  0  0  0
 12 13  1  0  0  0  0
 13 14  1  0  0  0  0
 15 12  1  0  0  0  0
 16 15  1  0  0  0  0
 17 16  1  0  0  0  0
 17 18  1  0  0  0  0
M  END
>  <minimizedAffinity>
-4.01314974

$$$$

 OpenBabel03272508093D

 18 18  0  0  0  0  0  0  0  0999 V2000
   39.8710   22.7840   37.5310 C   0  0  0  0  0  0  0  0  0  0  0  0
   39.9140   23.4200   36.2930 C   0  0  0  0  0  0  0  0  0  0  0  0
   38.9970   24.4480   36.0270 C   0  0  0  0  0  0  0  0  0  0  0  0
   38.1130   24.7600   37.0100 N   0  0  0  0  0  0  0  0  0  0  0  0
   38.0920   24.1260   38.2030 C   0  0  0  0  0  0  0  0  0  0  0  0
   38.9690   23.1460   38.4530 N   0  0  0  0  0  0  0  0  0  0  0  0
   40.6330   22.0050   37.6140 H   0  0  0  0  0  0  0  0  0  0  0  0
   40.5830   23.2120   35.4970 H   0  0  0  0  0  0  0  0  0  0  0  0
   37.3620   24.4120   38.9640 H   0  0  0  0  0  0  0  0  0  0  0  0
   38.8610   25.1900   34.9110 O   0  0  0  0  0  0  0  0  0  0  0  0
   40.3360   27.2520   34.0580 O   0  0  0  0  0  0  0  0  0  0  0  0
   39.0610   26.8500   34.7140 P   0  0  2  0  0  0  0  0  0  0  0  0
   38.8680   27.6540   36.1970 O   0  0  0  0  0  0  0  0  0  0  0  0
   39.4100   27.2490   36.9180 H   0  0  0  0  0  0  0  0  0  0  0  0
   37.7810   27.4180   33.7320 O   0  0  0  0  0  0  0  0  0  0  0  0
   36.6430   27.6490   34.4930 C   0  0  0  0  0  2  0  0  0  0  0  0
   35.9190   28.9090   34.1370 C   0  0  0  0  0  2  0  0  0  0  0  0
   36.1610   29.3150   33.1380 H   0  0  0  0  0  0  0  0  0  0  0  0
  1  7  1  0  0  0  0
  1  6  1  0  0  0  0
  2  1  2  0  0  0  0
  3  2  1  0  0  0  0
  3  4  2  0  0  0  0
  4  5  1  0  0  0  0
  5  6  2  0  0  0  0
  5  9  1  0  0  0  0
  8  2  1  0  0  0  0
 10  3  1  0  0  0  0
 12 11  2  6  0  0  0
 12 10  1  0  0  0  0
 12 13  1  0  0  0  0
 13 14  1  0  0  0  0
 15 16  1  0  0  0  0
 15 12  1  0  0  0  0
 17 16  1  0  0  0  0
 18 17  1  0  0  0  0
M  END
>  <minimizedAffinity>
-3.93182111

$$$$

 OpenBabel03272508093D

 18 18  0  0  0  0  0  0  0  0999 V2000
   37.6340   27.6280   35.3290 C   0  0  0  0  0  0  0  0  0  0  0  0
   38.4410   26.7680   36.0710 C   0  0  0  0  0  0  0  0  0  0  0  0
   38.6800   25.4750   35.5810 C   0  0  0  0  0  0  0  0  0  0  0  0
   38.1010   25.1420   34.3990 N   0  0  0  0  0  0  0  0  0  0  0  0
   37.3220   25.9970   33.7000 C   0  0  0  0  0  0  0  0  0  0  0  0
   37.0960   27.2280   34.1690 N   0  0  0  0  0  0  0  0  0  0  0  0
   37.5250   28.6020   35.8150 H   0  0  0  0  0  0  0  0  0  0  0  0
   38.9120   26.9820   36.9950 H   0  0  0  0  0  0  0  0  0  0  0  0
   36.8770   25.6840   32.7520 H   0  0  0  0  0  0  0  0  0  0  0  0
   39.4200   24.4900   36.1270 O   0  0  0  0  0  0  0  0  0  0  0  0
   37.5080   22.7160   36.7160 O   0  0  0  0  0  0  0  0  0  0  0  0
   38.9100   23.1370   36.9880 P   0  0  2  0  0  0  0  0  0  0  0  0
   39.1570   23.3600   38.6530 O   0  0  0  0  0  0  0  0  0  0  0  0
   38.7960   24.2240   38.9750 H   0  0  0  0  0  0  0  0  0  0  0  0
   39.9270   21.8300   36.5610 O   0  0  0  0  0  0  0  0  0  0  0  0
   41.0380   21.7800   37.3930 C   0  0  0  0  0  2  0  0  0  0  0  0
   42.2620   21.2210   36.7390 C   0  0  0  0  0  2  0  0  0  0  0  0
   42.2420   21.2310   35.6340 H   0  0  0  0  0  0  0  0  0  0  0  0
  1  7  1  0  0  0  0
  1  2  1  0  0  0  0
  2  8  1  0  0  0  0
  3  2  2  0  0  0  0
  3 10  1  0  0  0  0
  4  3  1  0  0  0  0
  5  6  1  0  0  0  0
  5  4  2  0  0  0  0
  6  1  2  0  0  0  0
  9  5  1  0  0  0  0
 10 12  1  0  0  0  0
 12 11  2  6  0  0  0
 12 13  1  0  0  0  0
 13 14  1  0  0  0  0
 15 12  1  0  0  0  0
 15 16  1  0  0  0  0
 17 16  1  0  0  0  0
 18 17  1  0  0  0  0
M  END
>  <minimizedAffinity>
-3.65314555

$$$$

 OpenBabel03272508093D

 18 18  0  0  0  0  0  0  0  0999 V2000
   42.2730   20.7600   37.3070 C   0  0  0  0  0  0  0  0  0  0  0  0
   41.3160   21.7510   37.5120 C   0  0  0  0  0  0  0  0  0  0  0  0
   40.8550   22.4860   36.4090 C   0  0  0  0  0  0  0  0  0  0  0  0
   41.3790   22.1770   35.1950 N   0  0  0  0  0  0  0  0  0  0  0  0
   42.3080   21.2090   35.0250 C   0  0  0  0  0  0  0  0  0  0  0  0
   42.7450   20.5120   36.0790 N   0  0  0  0  0  0  0  0  0  0  0  0
   42.5480   20.2630   38.2410 H   0  0  0  0  0  0  0  0  0  0  0  0
   40.8780   22.0280   38.4370 H   0  0  0  0  0  0  0  0  0  0  0  0
   42.7010   20.9960   34.0280 H   0  0  0  0  0  0  0  0  0  0  0  0
   39.9430   23.4780   36.3770 O   0  0  0  0  0  0  0  0  0  0  0  0
   38.4260   23.7100   38.5670 O   0  0  0  0  0  0  0  0  0  0  0  0
   38.4190   23.5370   37.0880 P   0  0  2  0  0  0  0  0  0  0  0  0
   37.5010   22.1780   36.6470 O   0  0  0  0  0  0  0  0  0  0  0  0
   37.9940   21.3310   36.7800 H   0  0  0  0  0  0  0  0  0  0  0  0
   37.5820   24.8720   36.4230 O   0  0  0  0  0  0  0  0  0  0  0  0
   38.4270   25.6350   35.6280 C   0  0  0  0  0  2  0  0  0  0  0  0
   38.4850   27.0800   36.0130 C   0  0  0  0  0  2  0  0  0  0  0  0
   38.1370   27.2990   37.0390 H   0  0  0  0  0  0  0  0  0  0  0  0
  1  2  1  0  0  0  0
  1  7  1  0  0  0  0
  2  8  1  0  0  0  0
  3  2  2  0  0  0  0
  4  3  1  0  0  0  0
  5  4  2  0  0  0  0
  5  6  1  0  0  0  0
  6  1  2  0  0  0  0
  9  5  1  0  0  0  0
 10  3  1  0  0  0  0
 10 12  1  0  0  0  0
 12 11  2  1  0  0  0
 13 14  1  0  0  0  0
 13 12  1  0  0  0  0
 15 12  1  0  0  0  0
 16 17  1  0  0  0  0
 16 15  1  0  0  0  0
 17 18  1  0  0  0  0
M  END
>  <minimizedAffinity>
-3.54387808

$$$$

 OpenBabel03272508093D

 18 18  0  0  0  0  0  0  0  0999 V2000
   38.7440   23.4390   38.5540 C   0  0  0  0  0  0  0  0  0  0  0  0
   37.9610   24.2790   37.7660 C   0  0  0  0  0  0  0  0  0  0  0  0
   38.2740   24.4170   36.4050 C   0  0  0  0  0  0  0  0  0  0  0  0
   39.3350   23.7100   35.9370 N   0  0  0  0  0  0  0  0  0  0  0  0
   40.0790   22.9010   36.7240 C   0  0  0  0  0  0  0  0  0  0  0  0
   39.7780   22.7720   38.0210 N   0  0  0  0  0  0  0  0  0  0  0  0
   38.4000   23.4180   39.5910 H   0  0  0  0  0  0  0  0  0  0  0  0
   37.1270   24.8490   38.0840 H   0  0  0  0  0  0  0  0  0  0  0  0
   40.9240   22.3510   36.3030 H   0  0  0  0  0  0  0  0  0  0  0  0
   37.6580   25.1670   35.4700 O   0  0  0  0  0  0  0  0  0  0  0  0
   38.6630   27.6000   35.9370 O   0  0  0  0  0  0  0  0  0  0  0  0
   38.0620   26.7030   34.9130 P   0  0  2  0  0  0  0  0  0  0  0  0
   36.7220   27.4430   34.1780 O   0  0  0  0  0  0  0  0  0  0  0  0
   35.9110   27.4010   34.7440 H   0  0  0  0  0  0  0  0  0  0  0  0
   39.2100   26.5190   33.6580 O   0  0  0  0  0  0  0  0  0  0  0  0
   40.4060   27.1420   33.9910 C   0  0  0  0  0  2  0  0  0  0  0  0
   41.4680   26.2010   34.4650 C   0  0  0  0  0  2  0  0  0  0  0  0
   41.3070   25.1430   34.1870 H   0  0  0  0  0  0  0  0  0  0  0  0
  1  7  1  0  0  0  0
  2  8  1  0  0  0  0
  2  1  2  0  0  0  0
  3  2  1  0  0  0  0
  4  3  2  0  0  0  0
  4  5  1  0  0  0  0
  5  6  2  0  0  0  0
  6  1  1  0  0  0  0
  9  5  1  0  0  0  0
 10  3  1  0  0  0  0
 12 10  1  0  0  0  0
 12 11  2  1  0  0  0
 13 14  1  0  0  0  0
 13 12  1  0  0  0  0
 15 16  1  0  0  0  0
 15 12  1  0  0  0  0
 16 17  1  0  0  0  0
 18 17  1  0  0  0  0
M  END
>  <minimizedAffinity>
-3.49802661

$$$$

 OpenBabel03272508093D

 18 18  0  0  0  0  0  0  0  0999 V2000
   37.7560   27.6300   35.2960 C   0  0  0  0  0  0  0  0  0  0  0  0
   38.7320   26.7910   35.8310 C   0  0  0  0  0  0  0  0  0  0  0  0
   38.9440   25.5370   35.2390 C   0  0  0  0  0  0  0  0  0  0  0  0
   38.1730   25.2180   34.1660 N   0  0  0  0  0  0  0  0  0  0  0  0
   37.2340   26.0520   33.6680 C   0  0  0  0  0  0  0  0  0  0  0  0
   37.0340   27.2470   34.2350 N   0  0  0  0  0  0  0  0  0  0  0  0
   37.6880   28.5740   35.8440 H   0  0  0  0  0  0  0  0  0  0  0  0
   39.3550   26.9940   36.6630 H   0  0  0  0  0  0  0  0  0  0  0  0
   36.6380   25.7520   32.8020 H   0  0  0  0  0  0  0  0  0  0  0  0
   39.8240   24.5770   35.5870 O   0  0  0  0  0  0  0  0  0  0  0  0
   40.5950   22.0200   35.7210 O   0  0  0  0  0  0  0  0  0  0  0  0
   39.5240   22.9940   36.0720 P   0  0  2  0  0  0  0  0  0  0  0  0
   38.0180   22.4660   35.4900 O   0  0  0  0  0  0  0  0  0  0  0  0
   37.9080   22.6370   34.5220 H   0  0  0  0  0  0  0  0  0  0  0  0
   39.3680   22.9880   37.7750 O   0  0  0  0  0  0  0  0  0  0  0  0
   38.0710   23.3160   38.1500 C   0  0  0  0  0  2  0  0  0  0  0  0
   37.9460   24.6620   38.7910 C   0  0  0  0  0  2  0  0  0  0  0  0
   38.7900   25.3480   38.5940 H   0  0  0  0  0  0  0  0  0  0  0  0
  1  2  1  0  0  0  0
  1  7  1  0  0  0  0
  2  8  1  0  0  0  0
  3 10  1  0  0  0  0
  3  2  2  0  0  0  0
  4  3  1  0  0  0  0
  5  4  2  0  0  0  0
  5  6  1  0  0  0  0
  6  1  2  0  0  0  0
  9  5  1  0  0  0  0
 10 12  1  0  0  0  0
 12 11  2  6  0  0  0
 12 15  1  0  0  0  0
 13 12  1  0  0  0  0
 14 13  1  0  0  0  0
 15 16  1  0  0  0  0
 16 17  1  0  0  0  0
 18 17  1  0  0  0  0
M  END
>  <minimizedAffinity>
-3.47723937

$$$$

 OpenBabel03272508093D

 18 18  0  0  0  0  0  0  0  0999 V2000
   36.0170   20.7660   33.2120 C   0  0  0  0  0  0  0  0  0  0  0  0
   37.1090   21.6280   33.1530 C   0  0  0  0  0  0  0  0  0  0  0  0
   37.6440   22.1270   34.3500 C   0  0  0  0  0  0  0  0  0  0  0  0
   37.0520   21.7300   35.5070 N   0  0  0  0  0  0  0  0  0  0  0  0
   35.9930   20.8920   35.5350 C   0  0  0  0  0  0  0  0  0  0  0  0
   35.4860   20.4180   34.3920 N   0  0  0  0  0  0  0  0  0  0  0  0
   35.6960   20.4480   32.2160 H   0  0  0  0  0  0  0  0  0  0  0  0
   37.6030   21.9650   32.2780 H   0  0  0  0  0  0  0  0  0  0  0  0
   35.5500   20.6000   36.4910 H   0  0  0  0  0  0  0  0  0  0  0  0
   38.6850   22.9640   34.5250 O   0  0  0  0  0  0  0  0  0  0  0  0
   40.8210   23.9780   35.7750 O   0  0  0  0  0  0  0  0  0  0  0  0
   39.4580   23.4050   35.9530 P   0  0  2  0  0  0  0  0  0  0  0  0
   39.4920   22.1020   37.0420 O   0  0  0  0  0  0  0  0  0  0  0  0
   39.8260   21.2710   36.6230 H   0  0  0  0  0  0  0  0  0  0  0  0
   38.5010   24.5980   36.7200 O   0  0  0  0  0  0  0  0  0  0  0  0
   38.0320   25.5210   35.7950 C   0  0  0  0  0  2  0  0  0  0  0  0
   38.5260   26.9150   36.0240 C   0  0  0  0  0  2  0  0  0  0  0  0
   39.4280   26.9880   36.6590 H   0  0  0  0  0  0  0  0  0  0  0  0
  1  6  1  0  0  0  0
  2  1  2  0  0  0  0
  2  3  1  0  0  0  0
  3 10  1  0  0  0  0
  3  4  2  0  0  0  0
  4  5  1  0  0  0  0
  5  9  1  0  0  0  0
  6  5  2  0  0  0  0
  7  1  1  0  0  0  0
  8  2  1  0  0  0  0
 10 12  1  0  0  0  0
 12 11  2  6  0  0  0
 12 15  1  0  0  0  0
 12 13  1  0  0  0  0
 14 13  1  0  0  0  0
 16 17  1  0  0  0  0
 16 15  1  0  0  0  0
 17 18  1  0  0  0  0
M  END
>  <minimizedAffinity>
-3.4740963

$$$$

 OpenBabel03272508093D

 18 18  0  0  0  0  0  0  0  0999 V2000
   40.1450   23.0700   36.4670 C   0  0  0  0  0  0  0  0  0  0  0  0
   39.4110   24.0390   35.7870 C   0  0  0  0  0  0  0  0  0  0  0  0
   38.3450   24.6680   36.4480 C   0  0  0  0  0  0  0  0  0  0  0  0
   38.0960   24.2860   37.7280 N   0  0  0  0  0  0  0  0  0  0  0  0
   38.8250   23.3430   38.3640 C   0  0  0  0  0  0  0  0  0  0  0  0
   39.8400   22.7450   37.7310 N   0  0  0  0  0  0  0  0  0  0  0  0
   40.9450   22.6570   35.8470 H   0  0  0  0  0  0  0  0  0  0  0  0
   39.5660   24.3690   34.7920 H   0  0  0  0  0  0  0  0  0  0  0  0
   38.5880   23.0690   39.3950 H   0  0  0  0  0  0  0  0  0  0  0  0
   37.5110   25.6210   35.9870 O   0  0  0  0  0  0  0  0  0  0  0  0
   37.1870   25.6150   33.3330 O   0  0  0  0  0  0  0  0  0  0  0  0
   37.5510   26.4400   34.5180 P   0  0  2  0  0  0  0  0  0  0  0  0
   39.0590   27.1860   34.2900 O   0  0  0  0  0  0  0  0  0  0  0  0
   39.8130   26.5650   34.4450 H   0  0  0  0  0  0  0  0  0  0  0  0
   36.4290   27.7280   34.6060 O   0  0  0  0  0  0  0  0  0  0  0  0
   36.3710   28.4130   33.3990 C   0  0  0  0  0  2  0  0  0  0  0  0
   35.4760   29.6120   33.4230 C   0  0  0  0  0  2  0  0  0  0  0  0
   35.2440   29.9960   34.4330 H   0  0  0  0  0  0  0  0  0  0  0  0
  1  6  1  0  0  0  0
  2  3  1  0  0  0  0
  2  1  2  0  0  0  0
  3  4  2  0  0  0  0
  4  5  1  0  0  0  0
  5  9  1  0  0  0  0
  6  5  2  0  0  0  0
  7  1  1  0  0  0  0
  8  2  1  0  0  0  0
 10  3  1  0  0  0  0
 12 11  2  6  0  0  0
 12 15  1  0  0  0  0
 12 10  1  0  0  0  0
 13 14  1  0  0  0  0
 13 12  1  0  0  0  0
 16 17  1  0  0  0  0
 16 15  1  0  0  0  0
 17 18  1  0  0  0  0
M  END
>  <minimizedAffinity>
-3.40462756

$$$$

 OpenBabel03272508093D

 18 18  0  0  0  0  0  0  0  0999 V2000
   38.1890   23.7780   38.2330 C   0  0  0  0  0  0  0  0  0  0  0  0
   37.6440   23.9250   36.9590 C   0  0  0  0  0  0  0  0  0  0  0  0
   38.3510   23.4180   35.8580 C   0  0  0  0  0  0  0  0  0  0  0  0
   39.5380   22.8070   36.1100 N   0  0  0  0  0  0  0  0  0  0  0  0
   40.0430   22.6780   37.3570 C   0  0  0  0  0  0  0  0  0  0  0  0
   39.3660   23.1630   38.4040 N   0  0  0  0  0  0  0  0  0  0  0  0
   37.5450   24.2140   39.0020 H   0  0  0  0  0  0  0  0  0  0  0  0
   36.7260   24.3930   36.7130 H   0  0  0  0  0  0  0  0  0  0  0  0
   41.0020   22.1780   37.5120 H   0  0  0  0  0  0  0  0  0  0  0  0
   38.0160   23.4490   34.5530 O   0  0  0  0  0  0  0  0  0  0  0  0
   37.0920   25.4560   33.0470 O   0  0  0  0  0  0  0  0  0  0  0  0
   38.2940   24.6600   33.4180 P   0  0  2  0  0  0  0  0  0  0  0  0
   39.0430   24.0210   32.0350 O   0  0  0  0  0  0  0  0  0  0  0  0
   38.5750   23.2210   31.6890 H   0  0  0  0  0  0  0  0  0  0  0  0
   39.4390   25.7440   34.0800 O   0  0  0  0  0  0  0  0  0  0  0  0
   38.8470   26.9660   34.3720 C   0  0  0  0  0  2  0  0  0  0  0  0
   38.7260   27.2490   35.8360 C   0  0  0  0  0  2  0  0  0  0  0  0
   39.3930   26.6470   36.4800 H   0  0  0  0  0  0  0  0  0  0  0  0
  1  6  1  0  0  0  0
  1  7  1  0  0  0  0
  2  1  2  0  0  0  0
  3  4  2  0  0  0  0
  3  2  1  0  0  0  0
  4  5  1  0  0  0  0
  5  9  1  0  0  0  0
  5  6  2  0  0  0  0
  8  2  1  0  0  0  0
 10  3  1  0  0  0  0
 12 11  2  6  0  0  0
 12 15  1  0  0  0  0
 12 10  1  0  0  0  0
 13 12  1  0  0  0  0
 14 13  1  0  0  0  0
 15 16  1  0  0  0  0
 16 17  1  0  0  0  0
 17 18  1  0  0  0  0
M  END
>  <minimizedAffinity>
-3.38711643

$$$$
