
 OpenBabel03272505443D

 18 18  0  0  0  0  0  0  0  0999 V2000
   39.7910   22.8920   37.6430 C   0  0  0  0  0  0  0  0  0  0  0  0
   38.9300   23.2680   38.6980 C   0  0  0  0  0  0  0  0  0  0  0  0
   37.9670   24.2520   38.4480 C   0  0  0  0  0  0  0  0  0  0  0  0
   37.9080   24.7970   37.2020 N   0  0  0  0  0  0  0  0  0  0  0  0
   38.7390   24.4220   36.2110 C   0  0  0  0  0  0  0  0  0  0  0  0
   39.6830   23.4660   36.4360 N   0  0  0  0  0  0  0  0  0  0  0  0
   40.5680   22.1360   37.7450 H   0  0  0  0  0  0  0  0  0  0  0  0
   39.0520   22.7860   39.6360 H   0  0  0  0  0  0  0  0  0  0  0  0
   37.2990   24.5530   39.2450 H   0  0  0  0  0  0  0  0  0  0  0  0
   38.5180   25.0960   35.0150 O   0  0  0  0  0  0  0  0  0  0  0  0
   39.0330   27.3070   33.7100 O   0  0  0  0  0  0  0  0  0  0  0  0
   38.2740   26.7610   34.9060 P   0  0  2  0  0  0  0  0  0  0  0  0
   38.8820   27.5900   36.2450 O   0  0  0  0  0  0  0  0  0  0  0  0
   39.7850   27.2080   36.4210 H   0  0  0  0  0  0  0  0  0  0  0  0
   36.6670   27.2140   34.6940 O   0  0  0  0  0  0  0  0  0  0  0  0
   36.4840   28.0730   33.6300 C   0  0  0  0  0  2  0  0  0  0  0  0
   35.7390   29.2890   34.1140 C   0  0  0  0  0  2  0  0  0  0  0  0
   35.5530   29.2340   35.2140 H   0  0  0  0  0  0  0  0  0  0  0  0
  1  7  1  0  0  0  0
  1  2  1  0  0  0  0
  2  8  1  0  0  0  0
  3  2  2  0  0  0  0
  3  9  1  0  0  0  0
  4  3  1  0  0  0  0
  5  6  1  0  0  0  0
  5  4  2  0  0  0  0
  6  1  2  0  0  0  0
 10  5  1  0  0  0  0
 12 11  2  6  0  0  0
 12 10  1  0  0  0  0
 12 13  1  0  0  0  0
 13 14  1  0  0  0  0
 15 12  1  0  0  0  0
 16 17  1  0  0  0  0
 16 15  1  0  0  0  0
 17 18  1  0  0  0  0
M  END
>  <minimizedAffinity>
-3.96269131

$$$$

 OpenBabel03272505443D

 18 18  0  0  0  0  0  0  0  0999 V2000
   37.6890   25.3290   33.2340 C   0  0  0  0  0  0  0  0  0  0  0  0
   37.1200   26.6210   33.3130 C   0  0  0  0  0  0  0  0  0  0  0  0
   37.0460   27.2370   34.5660 C   0  0  0  0  0  0  0  0  0  0  0  0
   37.5250   26.5620   35.6470 N   0  0  0  0  0  0  0  0  0  0  0  0
   38.0640   25.3320   35.5490 C   0  0  0  0  0  0  0  0  0  0  0  0
   38.1430   24.7160   34.3370 N   0  0  0  0  0  0  0  0  0  0  0  0
   37.7880   24.7740   32.3030 H   0  0  0  0  0  0  0  0  0  0  0  0
   36.7740   27.0670   32.4130 H   0  0  0  0  0  0  0  0  0  0  0  0
   36.6140   28.2260   34.6460 H   0  0  0  0  0  0  0  0  0  0  0  0
   38.4940   24.8140   36.7660 O   0  0  0  0  0  0  0  0  0  0  0  0
   37.1110   22.5910   36.8100 O   0  0  0  0  0  0  0  0  0  0  0  0
   38.4720   23.1720   37.1500 P   0  0  2  0  0  0  0  0  0  0  0  0
   38.6850   22.8940   38.8010 O   0  0  0  0  0  0  0  0  0  0  0  0
   38.0940   23.5450   39.2700 H   0  0  0  0  0  0  0  0  0  0  0  0
   39.6030   22.2500   36.3120 O   0  0  0  0  0  0  0  0  0  0  0  0
   40.7110   21.9330   37.0720 C   0  0  0  0  0  2  0  0  0  0  0  0
   41.8380   22.8550   36.6890 C   0  0  0  0  0  2  0  0  0  0  0  0
   41.5060   23.5990   35.9250 H   0  0  0  0  0  0  0  0  0  0  0  0
  1  2  2  0  0  0  0
  1  6  1  0  0  0  0
  2  3  1  0  0  0  0
  3  9  1  0  0  0  0
  3  4  2  0  0  0  0
  5  4  1  0  0  0  0
  5 10  1  0  0  0  0
  6  5  2  0  0  0  0
  7  1  1  0  0  0  0
  8  2  1  0  0  0  0
 10 12  1  0  0  0  0
 12 11  2  6  0  0  0
 12 13  1  0  0  0  0
 13 14  1  0  0  0  0
 15 16  1  0  0  0  0
 15 12  1  0  0  0  0
 17 16  1  0  0  0  0
 18 17  1  0  0  0  0
M  END
>  <minimizedAffinity>
-3.63978314

$$$$

 OpenBabel03272505443D

 18 18  0  0  0  0  0  0  0  0999 V2000
   35.5940   20.7690   33.4370 C   0  0  0  0  0  0  0  0  0  0  0  0
   35.3040   21.3730   32.1930 C   0  0  0  0  0  0  0  0  0  0  0  0
   36.0720   22.4730   31.7970 C   0  0  0  0  0  0  0  0  0  0  0  0
   37.0600   22.9050   32.6280 N   0  0  0  0  0  0  0  0  0  0  0  0
   37.3190   22.3130   33.8090 C   0  0  0  0  0  0  0  0  0  0  0  0
   36.5820   21.2420   34.2120 N   0  0  0  0  0  0  0  0  0  0  0  0
   35.0510   19.9090   33.8270 H   0  0  0  0  0  0  0  0  0  0  0  0
   34.5140   20.9640   31.6130 H   0  0  0  0  0  0  0  0  0  0  0  0
   35.8650   22.9500   30.8470 H   0  0  0  0  0  0  0  0  0  0  0  0
   38.3660   22.9040   34.5090 O   0  0  0  0  0  0  0  0  0  0  0  0
   39.6510   22.4730   36.7500 O   0  0  0  0  0  0  0  0  0  0  0  0
   38.3860   23.0930   36.1850 P   0  0  2  0  0  0  0  0  0  0  0  0
   37.1090   22.2870   36.9400 O   0  0  0  0  0  0  0  0  0  0  0  0
   37.0650   21.3850   36.5200 H   0  0  0  0  0  0  0  0  0  0  0  0
   38.3730   24.6950   36.7010 O   0  0  0  0  0  0  0  0  0  0  0  0
   37.9020   25.5680   35.7410 C   0  0  0  0  0  2  0  0  0  0  0  0
   38.4600   26.9390   36.0200 C   0  0  0  0  0  2  0  0  0  0  0  0
   39.1510   26.9200   36.8980 H   0  0  0  0  0  0  0  0  0  0  0  0
  1  7  1  0  0  0  0
  1  6  1  0  0  0  0
  2  1  2  0  0  0  0
  3  2  1  0  0  0  0
  3  4  2  0  0  0  0
  4  5  1  0  0  0  0
  5  6  2  0  0  0  0
  5 10  1  0  0  0  0
  8  2  1  0  0  0  0
  9  3  1  0  0  0  0
 10 12  1  0  0  0  0
 12 15  1  0  0  0  0
 12 11  2  1  0  0  0
 12 13  1  0  0  0  0
 14 13  1  0  0  0  0
 16 17  1  0  0  0  0
 16 15  1  0  0  0  0
 17 18  1  0  0  0  0
M  END
>  <minimizedAffinity>
-3.58252025

$$$$

 OpenBabel03272505443D

 18 18  0  0  0  0  0  0  0  0999 V2000
   37.8040   23.8660   38.2520 C   0  0  0  0  0  0  0  0  0  0  0  0
   39.0480   23.3180   38.6430 C   0  0  0  0  0  0  0  0  0  0  0  0
   39.8800   22.7900   37.6510 C   0  0  0  0  0  0  0  0  0  0  0  0
   39.4520   22.8300   36.3590 N   0  0  0  0  0  0  0  0  0  0  0  0
   38.2630   23.3570   36.0100 C   0  0  0  0  0  0  0  0  0  0  0  0
   37.4390   23.8750   36.9620 N   0  0  0  0  0  0  0  0  0  0  0  0
   37.0930   24.2990   38.9540 H   0  0  0  0  0  0  0  0  0  0  0  0
   39.2950   23.3330   39.6760 H   0  0  0  0  0  0  0  0  0  0  0  0
   40.8360   22.3670   37.9320 H   0  0  0  0  0  0  0  0  0  0  0  0
   38.0110   23.3010   34.6430 O   0  0  0  0  0  0  0  0  0  0  0  0
   37.3470   24.3340   32.3300 O   0  0  0  0  0  0  0  0  0  0  0  0
   38.0940   24.6370   33.6170 P   0  0  2  0  0  0  0  0  0  0  0  0
   39.6770   24.9910   33.1490 O   0  0  0  0  0  0  0  0  0  0  0  0
   40.0950   24.1210   32.9040 H   0  0  0  0  0  0  0  0  0  0  0  0
   37.4070   26.0380   34.2460 O   0  0  0  0  0  0  0  0  0  0  0  0
   38.3230   27.0530   34.4300 C   0  0  0  0  0  2  0  0  0  0  0  0
   38.6100   27.1830   35.9030 C   0  0  0  0  0  2  0  0  0  0  0  0
   38.0580   26.4090   36.4890 H   0  0  0  0  0  0  0  0  0  0  0  0
  1  2  1  0  0  0  0
  1  7  1  0  0  0  0
  2  8  1  0  0  0  0
  3  9  1  0  0  0  0
  3  2  2  0  0  0  0
  4  3  1  0  0  0  0
  5  4  2  0  0  0  0
  5  6  1  0  0  0  0
  6  1  2  0  0  0  0
 10  5  1  0  0  0  0
 12 11  2  6  0  0  0
 12 15  1  0  0  0  0
 12 10  1  0  0  0  0
 13 12  1  0  0  0  0
 14 13  1  0  0  0  0
 15 16  1  0  0  0  0
 16 17  1  0  0  0  0
 17 18  1  0  0  0  0
M  END
>  <minimizedAffinity>
-3.50770569

$$$$

 OpenBabel03272505443D

 18 18  0  0  0  0  0  0  0  0999 V2000
   38.2030   27.6080   35.4140 C   0  0  0  0  0  0  0  0  0  0  0  0
   37.7690   27.2580   34.1150 C   0  0  0  0  0  0  0  0  0  0  0  0
   37.5290   25.9080   33.8390 C   0  0  0  0  0  0  0  0  0  0  0  0
   37.7230   24.9990   34.8340 N   0  0  0  0  0  0  0  0  0  0  0  0
   38.1360   25.3560   36.0640 C   0  0  0  0  0  0  0  0  0  0  0  0
   38.3760   26.6650   36.3520 N   0  0  0  0  0  0  0  0  0  0  0  0
   38.4130   28.6310   35.7190 H   0  0  0  0  0  0  0  0  0  0  0  0
   37.6450   28.0380   33.4050 H   0  0  0  0  0  0  0  0  0  0  0  0
   37.1960   25.6210   32.8490 H   0  0  0  0  0  0  0  0  0  0  0  0
   38.2750   24.2820   36.9370 O   0  0  0  0  0  0  0  0  0  0  0  0
   38.8980   21.9580   35.9040 O   0  0  0  0  0  0  0  0  0  0  0  0
   39.4450   23.0790   36.7690 P   0  0  2  0  0  0  0  0  0  0  0  0
   39.8450   22.3600   38.2430 O   0  0  0  0  0  0  0  0  0  0  0  0
   38.9820   22.1840   38.7090 H   0  0  0  0  0  0  0  0  0  0  0  0
   40.8680   23.5940   36.0330 O   0  0  0  0  0  0  0  0  0  0  0  0
   40.9420   23.2460   34.7000 C   0  0  0  0  0  2  0  0  0  0  0  0
   41.2210   24.4870   33.8930 C   0  0  0  0  0  2  0  0  0  0  0  0
   41.3470   25.3770   34.5550 H   0  0  0  0  0  0  0  0  0  0  0  0
  1  7  1  0  0  0  0
  1  6  1  0  0  0  0
  2  1  2  0  0  0  0
  3  2  1  0  0  0  0
  3  4  2  0  0  0  0
  4  5  1  0  0  0  0
  5  6  2  0  0  0  0
  5 10  1  0  0  0  0
  8  2  1  0  0  0  0
  9  3  1  0  0  0  0
 12 11  2  6  0  0  0
 12 10  1  0  0  0  0
 12 13  1  0  0  0  0
 13 14  1  0  0  0  0
 15 12  1  0  0  0  0
 16 15  1  0  0  0  0
 17 18  1  0  0  0  0
 17 16  1  0  0  0  0
M  END
>  <minimizedAffinity>
-3.40971661

$$$$

 OpenBabel03272505443D

 18 18  0  0  0  0  0  0  0  0999 V2000
   40.0130   22.6490   37.3810 C   0  0  0  0  0  0  0  0  0  0  0  0
   39.2190   23.2760   38.3680 C   0  0  0  0  0  0  0  0  0  0  0  0
   37.8500   23.4250   38.1200 C   0  0  0  0  0  0  0  0  0  0  0  0
   37.3510   22.9600   36.9420 N   0  0  0  0  0  0  0  0  0  0  0  0
   38.1270   22.3650   36.0160 C   0  0  0  0  0  0  0  0  0  0  0  0
   39.4610   22.2110   36.2390 N   0  0  0  0  0  0  0  0  0  0  0  0
   41.0840   22.4880   37.4870 H   0  0  0  0  0  0  0  0  0  0  0  0
   39.6980   23.6060   39.2560 H   0  0  0  0  0  0  0  0  0  0  0  0
   37.2260   23.9040   38.8650 H   0  0  0  0  0  0  0  0  0  0  0  0
   37.4290   21.9600   34.8830 O   0  0  0  0  0  0  0  0  0  0  0  0
   38.5400   20.8410   32.7930 O   0  0  0  0  0  0  0  0  0  0  0  0
   37.9960   22.1610   33.3080 P   0  0  2  0  0  0  0  0  0  0  0  0
   39.2850   23.2480   33.2220 O   0  0  0  0  0  0  0  0  0  0  0  0
   39.8990   23.0080   33.9680 H   0  0  0  0  0  0  0  0  0  0  0  0
   36.8220   22.6510   32.2060 O   0  0  0  0  0  0  0  0  0  0  0  0
   36.2670   21.5990   31.5050 C   0  0  0  0  0  2  0  0  0  0  0  0
   35.0260   21.1420   32.2260 C   0  0  0  0  0  2  0  0  0  0  0  0
   34.8220   21.7810   33.1190 H   0  0  0  0  0  0  0  0  0  0  0  0
  1  7  1  0  0  0  0
  1  2  1  0  0  0  0
  2  8  1  0  0  0  0
  3  2  2  0  0  0  0
  3  9  1  0  0  0  0
  4  3  1  0  0  0  0
  5  6  1  0  0  0  0
  5  4  2  0  0  0  0
  6  1  2  0  0  0  0
 10  5  1  0  0  0  0
 12 11  2  6  0  0  0
 12 10  1  0  0  0  0
 13 12  1  0  0  0  0
 13 14  1  0  0  0  0
 15 12  1  0  0  0  0
 16 15  1  0  0  0  0
 16 17  1  0  0  0  0
 17 18  1  0  0  0  0
M  END
>  <minimizedAffinity>
-3.37984395

$$$$

 OpenBabel03272505443D

 18 18  0  0  0  0  0  0  0  0999 V2000
   39.7950   22.8120   37.4860 C   0  0  0  0  0  0  0  0  0  0  0  0
   38.9600   23.3500   38.4920 C   0  0  0  0  0  0  0  0  0  0  0  0
   37.8540   24.1100   38.0980 C   0  0  0  0  0  0  0  0  0  0  0  0
   37.6360   24.2930   36.7670 N   0  0  0  0  0  0  0  0  0  0  0  0
   38.4450   23.7700   35.8260 C   0  0  0  0  0  0  0  0  0  0  0  0
   39.5270   23.0280   36.1900 N   0  0  0  0  0  0  0  0  0  0  0  0
   40.6760   22.2080   37.6980 H   0  0  0  0  0  0  0  0  0  0  0  0
   39.2120   23.1520   39.5050 H   0  0  0  0  0  0  0  0  0  0  0  0
   37.2040   24.5310   38.8550 H   0  0  0  0  0  0  0  0  0  0  0  0
   38.0520   24.0720   34.5260 O   0  0  0  0  0  0  0  0  0  0  0  0
   39.1180   26.3150   33.6970 O   0  0  0  0  0  0  0  0  0  0  0  0
   37.7860   25.6390   33.9640 P   0  0  2  0  0  0  0  0  0  0  0  0
   37.0060   26.6080   35.1050 O   0  0  0  0  0  0  0  0  0  0  0  0
   37.4660   26.4390   35.9720 H   0  0  0  0  0  0  0  0  0  0  0  0
   36.9160   25.7210   32.5250 O   0  0  0  0  0  0  0  0  0  0  0  0
   36.6090   24.4790   32.0090 C   0  0  0  0  0  2  0  0  0  0  0  0
   37.4330   24.2540   30.7690 C   0  0  0  0  0  2  0  0  0  0  0  0
   38.1250   25.1120   30.5860 H   0  0  0  0  0  0  0  0  0  0  0  0
  1  7  1  0  0  0  0
  1  2  1  0  0  0  0
  2  8  1  0  0  0  0
  3  2  2  0  0  0  0
  3  9  1  0  0  0  0
  4  3  1  0  0  0  0
  5  6  1  0  0  0  0
  5  4  2  0  0  0  0
  6  1  2  0  0  0  0
 10  5  1  0  0  0  0
 12 11  2  6  0  0  0
 12 10  1  0  0  0  0
 12 13  1  0  0  0  0
 13 14  1  0  0  0  0
 15 12  1  0  0  0  0
 16 15  1  0  0  0  0
 17 16  1  0  0  0  0
 18 17  1  0  0  0  0
M  END
>  <minimizedAffinity>
-3.36693001

$$$$

 OpenBabel03272505443D

 18 18  0  0  0  0  0  0  0  0999 V2000
   39.8920   22.8690   37.1610 C   0  0  0  0  0  0  0  0  0  0  0  0
   39.1710   23.0510   38.3640 C   0  0  0  0  0  0  0  0  0  0  0  0
   38.1210   23.9740   38.3730 C   0  0  0  0  0  0  0  0  0  0  0  0
   37.8430   24.6490   37.2240 N   0  0  0  0  0  0  0  0  0  0  0  0
   38.5420   24.4590   36.0890 C   0  0  0  0  0  0  0  0  0  0  0  0
   39.5690   23.5650   36.0610 N   0  0  0  0  0  0  0  0  0  0  0  0
   40.7230   22.1730   37.0610 H   0  0  0  0  0  0  0  0  0  0  0  0
   39.4620   22.4780   39.2090 H   0  0  0  0  0  0  0  0  0  0  0  0
   37.5580   24.1280   39.2850 H   0  0  0  0  0  0  0  0  0  0  0  0
   38.1050   25.2440   35.0270 O   0  0  0  0  0  0  0  0  0  0  0  0
   37.9500   27.7990   35.5770 O   0  0  0  0  0  0  0  0  0  0  0  0
   38.6810   26.7950   34.7050 P   0  0  2  0  0  0  0  0  0  0  0  0
   38.3840   27.2750   33.1140 O   0  0  0  0  0  0  0  0  0  0  0  0
   37.4400   27.0210   32.9200 H   0  0  0  0  0  0  0  0  0  0  0  0
   40.3220   27.0030   35.0170 O   0  0  0  0  0  0  0  0  0  0  0  0
   41.0970   26.9640   33.8760 C   0  0  0  0  0  2  0  0  0  0  0  0
   41.4740   25.5330   33.5990 C   0  0  0  0  0  2  0  0  0  0  0  0
   41.0070   24.8430   34.3420 H   0  0  0  0  0  0  0  0  0  0  0  0
  1  2  1  0  0  0  0
  2  3  2  0  0  0  0
  2  8  1  0  0  0  0
  3  9  1  0  0  0  0
  4  3  1  0  0  0  0
  5  4  2  0  0  0  0
  6  5  1  0  0  0  0
  6  1  2  0  0  0  0
  7  1  1  0  0  0  0
 10  5  1  0  0  0  0
 12 15  1  0  0  0  0
 12 10  1  0  0  0  0
 12 11  2  1  0  0  0
 13 12  1  0  0  0  0
 14 13  1  0  0  0  0
 16 15  1  0  0  0  0
 17 16  1  0  0  0  0
 17 18  1  0  0  0  0
M  END
>  <minimizedAffinity>
-3.32471681

$$$$

 OpenBabel03272505443D

 18 18  0  0  0  0  0  0  0  0999 V2000
   37.1690   21.1320   31.6010 C   0  0  0  0  0  0  0  0  0  0  0  0
   35.8860   20.5870   31.3650 C   0  0  0  0  0  0  0  0  0  0  0  0
   35.0340   20.4030   32.4590 C   0  0  0  0  0  0  0  0  0  0  0  0
   35.4830   20.7570   33.6950 N   0  0  0  0  0  0  0  0  0  0  0  0
   36.7090   21.2740   33.8950 C   0  0  0  0  0  0  0  0  0  0  0  0
   37.5530   21.4600   32.8430 N   0  0  0  0  0  0  0  0  0  0  0  0
   37.8980   21.3110   30.8110 H   0  0  0  0  0  0  0  0  0  0  0  0
   35.6250   20.3430   30.3650 H   0  0  0  0  0  0  0  0  0  0  0  0
   34.0480   19.9870   32.2980 H   0  0  0  0  0  0  0  0  0  0  0  0
   36.9770   21.5690   35.2280 O   0  0  0  0  0  0  0  0  0  0  0  0
   37.7190   23.2790   37.0670 O   0  0  0  0  0  0  0  0  0  0  0  0
   38.1310   22.6920   35.7290 P   0  0  2  0  0  0  0  0  0  0  0  0
   38.2500   24.0060   34.6750 O   0  0  0  0  0  0  0  0  0  0  0  0
   37.3140   24.2790   34.4670 H   0  0  0  0  0  0  0  0  0  0  0  0
   39.6720   22.0530   35.9460 O   0  0  0  0  0  0  0  0  0  0  0  0
   40.2390   22.4080   37.1540 C   0  0  0  0  0  2  0  0  0  0  0  0
   41.4490   21.5450   37.3910 C   0  0  0  0  0  2  0  0  0  0  0  0
   41.6310   20.8620   36.5260 H   0  0  0  0  0  0  0  0  0  0  0  0
  1  6  1  0  0  0  0
  2  1  2  0  0  0  0
  2  3  1  0  0  0  0
  3  4  2  0  0  0  0
  4  5  1  0  0  0  0
  5 10  1  0  0  0  0
  6  5  2  0  0  0  0
  7  1  1  0  0  0  0
  8  2  1  0  0  0  0
  9  3  1  0  0  0  0
 10 12  1  0  0  0  0
 12 15  1  0  0  0  0
 12 11  2  1  0  0  0
 13 12  1  0  0  0  0
 14 13  1  0  0  0  0
 15 16  1  0  0  0  0
 16 17  1  0  0  0  0
 18 17  1  0  0  0  0
M  END
>  <minimizedAffinity>
-3.31735849

$$$$
