
 OpenBabel03272510243D

 26 28  0  0  0  0  0  0  0  0999 V2000
   36.1280   30.1290   46.7940 C   0  0  0  0  0  0  0  0  0  0  0  0
   37.0050   30.7200   47.6930 C   0  0  0  0  0  0  0  0  0  0  0  0
   37.9730   31.6230   47.2660 C   0  0  0  0  0  0  0  0  0  0  0  0
   38.0080   31.8920   45.9040 C   0  0  0  0  0  0  0  0  0  0  0  0
   38.8510   32.7280   45.2440 N   0  0  0  0  0  0  0  0  0  0  0  0
   38.5120   32.6670   43.9540 C   0  0  0  0  0  0  0  0  0  0  0  0
   37.4930   31.8290   43.7610 N   0  0  0  0  0  0  0  0  0  0  0  0
   37.1560   31.3280   44.9720 C   0  0  0  0  0  0  0  0  0  0  0  0
   36.1980   30.4270   45.4340 C   0  0  0  0  0  0  0  0  0  0  0  0
   35.3710   29.4320   47.0720 H   0  0  0  0  0  0  0  0  0  0  0  0
   38.6560   32.0850   47.9610 H   0  0  0  0  0  0  0  0  0  0  0  0
   39.6220   33.3120   45.6760 H   0  0  0  0  0  0  0  0  0  0  0  0
   35.5170   29.9700   44.7240 H   0  0  0  0  0  0  0  0  0  0  0  0
   37.5560   30.2480   51.3900 C   0  0  0  0  0  0  0  0  0  0  0  0
   37.7810   30.6380   50.0850 C   0  0  0  0  0  0  0  0  0  0  0  0
   36.8690   30.3580   49.0910 C   0  0  0  0  0  0  0  0  0  0  0  0
   35.7550   29.6850   49.4700 N   0  0  0  0  0  0  0  0  0  0  0  0
   35.5360   29.3040   50.7520 C   0  0  0  0  0  0  0  0  0  0  0  0
   36.4310   29.5850   51.6990 N   0  0  0  0  0  0  0  0  0  0  0  0
   38.3360   30.5180   52.0900 H   0  0  0  0  0  0  0  0  0  0  0  0
   38.6760   31.1730   49.8030 H   0  0  0  0  0  0  0  0  0  0  0  0
   34.6140   28.7610   50.9960 H   0  0  0  0  0  0  0  0  0  0  0  0
   39.1860   33.4160   42.9750 O   0  0  0  0  0  0  0  0  0  0  0  0
   39.1050   33.0250   41.6110 C   0  0  0  0  0  2  0  0  0  0  0  0
   38.2060   34.0160   40.9000 C   0  0  0  0  0  2  0  0  0  0  0  0
   37.5240   34.5540   41.5970 H   0  0  0  0  0  0  0  0  0  0  0  0
  1 10  1  0  0  0  0
  1  2  1  0  0  0  0
  2 16  1  0  0  0  0
  3  2  2  0  0  0  0
  3 11  1  0  0  0  0
  4  3  1  0  0  0  0
  5 12  1  0  0  0  0
  5  4  1  0  0  0  0
  6  5  1  0  0  0  0
  7  6  2  0  0  0  0
  7  8  1  0  0  0  0
  8  9  1  0  0  0  0
  8  4  2  0  0  0  0
  9  1  2  0  0  0  0
 13  9  1  0  0  0  0
 14 19  1  0  0  0  0
 14 20  1  0  0  0  0
 15 14  2  0  0  0  0
 16 17  2  0  0  0  0
 16 15  1  0  0  0  0
 17 18  1  0  0  0  0
 18 22  1  0  0  0  0
 18 19  2  0  0  0  0
 21 15  1  0  0  0  0
 23  6  1  0  0  0  0
 24 23  1  0  0  0  0
 25 26  1  0  0  0  0
 25 24  1  0  0  0  0
M  END
>  <minimizedAffinity>
-5.05443573

>  <minimizedRMSD>
1.20151484

$$$$
