REMARK  Name = 
REMARK  6 active torsions:
REMARK  status: ('A' for Active; 'I' for Inactive)
REMARK    1  A    between atoms: C_1  and  O_14
REMARK    2  A    between atoms: C_2  and  C_8
REMARK    3  A    between atoms: C_6  and  O_15
REMARK    4  A    between atoms: C_9  and  C_13
REMARK    5  A    between atoms: O_15  and  C_25
REMARK    6  A    between atoms: C_25  and  C_26
REMARK                            x       y       z     vdW  Elec       q    Type
REMARK                         _______ _______ _______ _____ _____    ______ ____
ROOT
ATOM      1  C   UNL     1      37.993  31.401  47.645  0.00  0.00    +0.000 A 
ATOM      2  C   UNL     1      37.073  31.330  48.674  0.00  0.00    +0.000 A 
ATOM      3  C   UNL     1      37.201  32.354  49.610  0.00  0.00    +0.000 A 
ATOM      4  C   UNL     1      38.175  33.346  49.496  0.00  0.00    +0.000 A 
ATOM      5  C   UNL     1      39.062  33.326  48.411  0.00  0.00    +0.000 A 
ATOM      6  C   UNL     1      38.948  32.327  47.484  0.00  0.00    +0.000 A 
ATOM      7  H   UNL     1      36.521  32.380  50.453  0.00  0.00    +0.000 HD
ATOM      8  H   UNL     1      38.262  34.134  50.230  0.00  0.00    +0.000 HD
ATOM      9  H   UNL     1      39.819  34.093  48.318  0.00  0.00    +0.000 HD
ENDROOT
BRANCH   2  11
ATOM     10  C   UNL     1      34.934  30.350  47.987  0.00  0.00    +0.000 A 
ATOM     11  C   UNL     1      36.074  30.313  48.791  0.00  0.00    +0.000 A 
ATOM     12  C   UNL     1      36.197  29.255  49.703  0.00  0.00    +0.000 A 
ATOM     13  N   UNL     1      35.205  28.334  49.749  0.00  0.00    +0.000 NA
ATOM     14  C   UNL     1      34.109  28.403  48.949  0.00  0.00    +0.000 A 
ATOM     15  N   UNL     1      33.977  29.413  48.069  0.00  0.00    +0.000 NA
ATOM     16  H   UNL     1      34.859  31.175  47.289  0.00  0.00    +0.000 HD
ATOM     17  H   UNL     1      33.337  27.647  49.016  0.00  0.00    +0.000 HD
BRANCH  12  18
ATOM     18  C   UNL     1      37.375  29.158  50.580  0.00  0.00    +0.000 C 
ATOM     19  H   UNL     1      38.165  29.834  50.196  0.00  0.00    +0.000 HD
ATOM     20  H   UNL     1      37.184  29.394  51.642  0.00  0.00    +0.000 HD
ATOM     21  H   UNL     1      37.730  28.091  50.493  0.00  0.00    +0.000 HD
ENDBRANCH  12  18
ENDBRANCH   2  11
BRANCH   1  22
ATOM     22  O   UNL     1      37.946  30.400  46.637  0.00  0.00    +0.000 OA
ATOM     23  H   UNL     1      37.449  30.561  45.766  0.00  0.00    +0.000 HD
ENDBRANCH   1  22
BRANCH   6  24
ATOM     24  O   UNL     1      39.847  32.335  46.411  0.00  0.00    +0.000 OA
BRANCH  24  25
ATOM     25  C   UNL     1      40.837  33.299  46.246  0.00  0.00    +0.000 C 
BRANCH  25  26
ATOM     26  C   UNL     1      41.360  33.209  44.808  0.00  0.00    +0.000 C 
ATOM     27  H   UNL     1      40.647  33.683  44.116  0.00  0.00    +0.000 HD
ENDBRANCH  25  26
ENDBRANCH  24  25
ENDBRANCH   6  24
TORSDOF 6
