
 OpenBabel03272503113D

 40 43  0  0  0  0  0  0  0  0999 V2000
   39.2760   31.9000   44.9520 C   0  0  0  0  0  0  0  0  0  0  0  0
   38.1900   32.5600   45.0650 O   0  0  0  0  0  0  0  0  0  0  0  0
   39.9540   31.6340   46.1590 N   0  0  0  0  0  0  0  0  0  0  0  0
   40.8440   31.1050   46.0900 H   0  0  0  0  0  0  0  0  0  0  0  0
   39.1780   32.1990   42.5740 C   0  0  0  0  0  0  0  0  0  0  0  0
   39.7080   31.4940   43.6240 C   0  0  0  0  0  0  0  0  0  0  0  0
   40.6020   30.4620   43.4680 C   0  0  0  0  0  0  0  0  0  0  0  0
   40.9980   30.1050   42.1870 C   0  0  0  0  0  0  0  0  0  0  0  0
   41.8330   29.1770   41.7330 N   0  0  0  0  0  0  0  0  0  0  0  0
   41.8580   29.2690   40.3950 C   0  0  0  0  0  0  0  0  0  0  0  0
   41.0290   30.2620   40.0140 N   0  0  0  0  0  0  0  0  0  0  0  0
   40.4690   30.8130   41.1210 C   0  0  0  0  0  0  0  0  0  0  0  0
   39.5620   31.8590   41.2610 C   0  0  0  0  0  0  0  0  0  0  0  0
   38.4910   32.9970   42.7470 H   0  0  0  0  0  0  0  0  0  0  0  0
   40.9770   29.9500   44.3340 H   0  0  0  0  0  0  0  0  0  0  0  0
   42.3820   28.4910   42.2970 H   0  0  0  0  0  0  0  0  0  0  0  0
   42.4390   28.6570   39.7030 H   0  0  0  0  0  0  0  0  0  0  0  0
   39.0460   32.5460   40.2020 O   0  0  0  0  0  0  0  0  0  0  0  0
   38.5210   33.8360   40.2780 C   0  0  0  0  0  0  0  0  0  0  0  0
   37.1680   34.0180   39.6650 C   0  0  0  0  0  0  0  0  0  0  0  0
   36.4340   34.5130   40.3550 H   0  0  0  0  0  0  0  0  0  0  0  0
   38.1130   30.1480   47.4930 F   0  0  0  0  0  0  0  0  0  0  0  0
   38.3680   31.3920   47.9870 C   0  0  0  0  0  0  0  0  0  0  0  0
   37.7150   31.8460   49.1000 C   0  0  0  0  0  0  0  0  0  0  0  0
   38.0190   33.0990   49.5380 C   0  0  0  0  0  0  0  0  0  0  0  0
   38.9420   33.9020   48.9110 C   0  0  0  0  0  0  0  0  0  0  0  0
   39.5900   33.4220   47.7870 C   0  0  0  0  0  0  0  0  0  0  0  0
   39.2950   32.1460   47.3210 C   0  0  0  0  0  0  0  0  0  0  0  0
   37.4940   33.4530   50.4250 H   0  0  0  0  0  0  0  0  0  0  0  0
   39.1030   34.8680   49.3390 H   0  0  0  0  0  0  0  0  0  0  0  0
   40.3090   34.0610   47.3060 H   0  0  0  0  0  0  0  0  0  0  0  0
   36.0790   29.3520   51.4490 C   0  0  0  0  0  0  0  0  0  0  0  0
   37.0350   30.2170   50.8630 C   0  0  0  0  0  0  0  0  0  0  0  0
   36.7410   30.9430   49.7270 C   0  0  0  0  0  0  0  0  0  0  0  0
   35.4900   30.7870   49.1990 N   0  0  0  0  0  0  0  0  0  0  0  0
   34.5810   29.9670   49.7520 C   0  0  0  0  0  0  0  0  0  0  0  0
   34.8680   29.2690   50.8500 N   0  0  0  0  0  0  0  0  0  0  0  0
   36.3260   28.7890   52.3420 H   0  0  0  0  0  0  0  0  0  0  0  0
   38.0180   30.3080   51.3190 H   0  0  0  0  0  0  0  0  0  0  0  0
   33.6150   29.9020   49.2740 H   0  0  0  0  0  0  0  0  0  0  0  0
  1  2  2  0  0  0  0
  1  3  1  0  0  0  0
  3 28  1  0  0  0  0
  4  3  1  0  0  0  0
  5 14  1  0  0  0  0
  5  6  1  0  0  0  0
  6  1  1  0  0  0  0
  7  6  2  0  0  0  0
  7 15  1  0  0  0  0
  8  7  1  0  0  0  0
  9  8  1  0  0  0  0
  9 16  1  0  0  0  0
 10  9  1  0  0  0  0
 11 10  2  0  0  0  0
 11 12  1  0  0  0  0
 12 13  1  0  0  0  0
 12  8  2  0  0  0  0
 13  5  2  0  0  0  0
 17 10  1  0  0  0  0
 18 19  1  0  0  0  0
 18 13  1  0  0  0  0
 20 19  1  0  0  0  0
 20 21  1  0  0  0  0
 22 23  1  0  0  0  0
 23 24  1  0  0  0  0
 24 25  2  0  0  0  0
 24 34  1  0  0  0  0
 25 29  1  0  0  0  0
 26 30  1  0  0  0  0
 26 25  1  0  0  0  0
 27 26  2  0  0  0  0
 28 27  1  0  0  0  0
 28 23  2  0  0  0  0
 31 27  1  0  0  0  0
 32 38  1  0  0  0  0
 33 39  1  0  0  0  0
 33 32  1  0  0  0  0
 34 33  2  0  0  0  0
 35 34  1  0  0  0  0
 35 36  2  0  0  0  0
 36 37  1  0  0  0  0
 37 32  2  0  0  0  0
 40 36  1  0  0  0  0
M  END
>  <minimizedAffinity>
-7.09279108

>  <minimizedRMSD>
0.141303271

$$$$
