
 OpenBabel03272503143D

 40 43  0  0  0  0  0  0  0  0999 V2000
   37.9670   26.2940   35.0640 C   0  0  0  0  0  0  0  0  0  0  0  0
   38.7450   26.7540   35.9650 O   0  0  0  0  0  0  0  0  0  0  0  0
   37.7280   24.9060   35.1190 N   0  0  0  0  0  0  0  0  0  0  0  0
   37.1040   24.5080   34.3910 H   0  0  0  0  0  0  0  0  0  0  0  0
   36.4930   28.1170   34.5560 C   0  0  0  0  0  0  0  0  0  0  0  0
   37.4150   27.2170   34.0850 C   0  0  0  0  0  0  0  0  0  0  0  0
   37.8210   27.1660   32.7730 C   0  0  0  0  0  0  0  0  0  0  0  0
   37.2790   28.0670   31.8680 C   0  0  0  0  0  0  0  0  0  0  0  0
   37.4770   28.2600   30.5690 N   0  0  0  0  0  0  0  0  0  0  0  0
   36.6960   29.2800   30.1830 C   0  0  0  0  0  0  0  0  0  0  0  0
   36.0040   29.7230   31.2520 N   0  0  0  0  0  0  0  0  0  0  0  0
   36.3480   28.9790   32.3350 C   0  0  0  0  0  0  0  0  0  0  0  0
   35.9250   29.0430   33.6580 C   0  0  0  0  0  0  0  0  0  0  0  0
   36.2130   28.1200   35.5850 H   0  0  0  0  0  0  0  0  0  0  0  0
   38.5480   26.4350   32.4710 H   0  0  0  0  0  0  0  0  0  0  0  0
   38.1200   27.7270   29.9420 H   0  0  0  0  0  0  0  0  0  0  0  0
   36.6090   29.7020   29.1810 H   0  0  0  0  0  0  0  0  0  0  0  0
   35.0040   29.9450   34.1050 O   0  0  0  0  0  0  0  0  0  0  0  0
   35.2900   31.2710   34.4290 C   0  0  0  0  0  2  0  0  0  0  0  0
   35.9290   31.4850   35.7660 C   0  0  0  0  0  2  0  0  0  0  0  0
   36.8610   32.1080   35.7150 H   0  0  0  0  0  0  0  0  0  0  0  0
   40.1950   23.8200   34.7790 F   0  0  0  0  0  0  0  0  0  0  0  0
   39.6380   23.6970   36.0170 C   0  0  0  0  0  0  0  0  0  0  0  0
   40.3090   23.0530   37.0210 C   0  0  0  0  0  0  0  0  0  0  0  0
   39.6930   22.9680   38.2320 C   0  0  0  0  0  0  0  0  0  0  0  0
   38.4460   23.4970   38.4710 C   0  0  0  0  0  0  0  0  0  0  0  0
   37.7870   24.1430   37.4410 C   0  0  0  0  0  0  0  0  0  0  0  0
   38.3960   24.2430   36.1960 C   0  0  0  0  0  0  0  0  0  0  0  0
   40.2340   22.4540   39.0260 H   0  0  0  0  0  0  0  0  0  0  0  0
   38.0560   23.3720   39.4580 H   0  0  0  0  0  0  0  0  0  0  0  0
   36.8130   24.5520   37.6410 H   0  0  0  0  0  0  0  0  0  0  0  0
   43.1780   20.6530   36.3710 C   0  0  0  0  0  0  0  0  0  0  0  0
   41.8890   21.1530   36.6760 C   0  0  0  0  0  0  0  0  0  0  0  0
   41.6360   22.5100   36.7060 C   0  0  0  0  0  0  0  0  0  0  0  0
   42.6850   23.3410   36.4280 N   0  0  0  0  0  0  0  0  0  0  0  0
   43.9090   22.8700   36.1380 C   0  0  0  0  0  0  0  0  0  0  0  0
   44.1490   21.5590   36.1090 N   0  0  0  0  0  0  0  0  0  0  0  0
   43.3590   19.5850   36.3510 H   0  0  0  0  0  0  0  0  0  0  0  0
   41.0850   20.4530   36.8920 H   0  0  0  0  0  0  0  0  0  0  0  0
   44.6830   23.5930   35.9290 H   0  0  0  0  0  0  0  0  0  0  0  0
  1  3  1  0  0  0  0
  1  2  2  0  0  0  0
  3 28  1  0  0  0  0
  4  3  1  0  0  0  0
  5 14  1  0  0  0  0
  6  5  1  0  0  0  0
  6  1  1  0  0  0  0
  7  6  2  0  0  0  0
  8 12  2  0  0  0  0
  8  7  1  0  0  0  0
  9  8  1  0  0  0  0
 10  9  1  0  0  0  0
 10 11  2  0  0  0  0
 11 12  1  0  0  0  0
 12 13  1  0  0  0  0
 13 18  1  0  0  0  0
 13  5  2  0  0  0  0
 15  7  1  0  0  0  0
 16  9  1  0  0  0  0
 17 10  1  0  0  0  0
 18 19  1  0  0  0  0
 19 20  1  0  0  0  0
 21 20  1  0  0  0  0
 22 23  1  0  0  0  0
 23 28  2  0  0  0  0
 23 24  1  0  0  0  0
 24 25  2  0  0  0  0
 25 26  1  0  0  0  0
 25 29  1  0  0  0  0
 26 30  1  0  0  0  0
 27 31  1  0  0  0  0
 27 26  2  0  0  0  0
 28 27  1  0  0  0  0
 32 33  1  0  0  0  0
 33 34  2  0  0  0  0
 33 39  1  0  0  0  0
 34 24  1  0  0  0  0
 35 34  1  0  0  0  0
 36 35  2  0  0  0  0
 37 36  1  0  0  0  0
 37 32  2  0  0  0  0
 38 32  1  0  0  0  0
 40 36  1  0  0  0  0
M  END
>  <minimizedAffinity>
-6.45144033

$$$$

 OpenBabel03272503143D

 40 43  0  0  0  0  0  0  0  0999 V2000
   36.5400   25.6200   32.1690 C   0  0  0  0  0  0  0  0  0  0  0  0
   35.4650   26.0290   31.6170 O   0  0  0  0  0  0  0  0  0  0  0  0
   37.3820   26.6290   32.6790 N   0  0  0  0  0  0  0  0  0  0  0  0
   38.2660   26.3200   33.1260 H   0  0  0  0  0  0  0  0  0  0  0  0
   37.6930   23.7680   33.1670 C   0  0  0  0  0  0  0  0  0  0  0  0
   36.7950   24.1890   32.2200 C   0  0  0  0  0  0  0  0  0  0  0  0
   36.1480   23.3360   31.3580 C   0  0  0  0  0  0  0  0  0  0  0  0
   36.4090   21.9750   31.4390 C   0  0  0  0  0  0  0  0  0  0  0  0
   35.9440   20.9320   30.7620 N   0  0  0  0  0  0  0  0  0  0  0  0
   36.5270   19.8300   31.2560 C   0  0  0  0  0  0  0  0  0  0  0  0
   37.3640   20.1930   32.2490 N   0  0  0  0  0  0  0  0  0  0  0  0
   37.3140   21.5420   32.3920 C   0  0  0  0  0  0  0  0  0  0  0  0
   37.9770   22.3920   33.2720 C   0  0  0  0  0  0  0  0  0  0  0  0
   38.1650   24.4700   33.8170 H   0  0  0  0  0  0  0  0  0  0  0  0
   35.4560   23.7330   30.6390 H   0  0  0  0  0  0  0  0  0  0  0  0
   35.2490   20.9440   29.9820 H   0  0  0  0  0  0  0  0  0  0  0  0
   36.3730   18.8010   30.9310 H   0  0  0  0  0  0  0  0  0  0  0  0
   38.8700   21.9520   34.2050 O   0  0  0  0  0  0  0  0  0  0  0  0
   38.7400   22.1530   35.5790 C   0  0  0  0  0  2  0  0  0  0  0  0
   40.0210   22.1630   36.3530 C   0  0  0  0  0  2  0  0  0  0  0  0
   40.1310   23.0630   37.0140 H   0  0  0  0  0  0  0  0  0  0  0  0
   36.1330   27.9390   34.7040 F   0  0  0  0  0  0  0  0  0  0  0  0
   36.2480   28.6080   33.5220 C   0  0  0  0  0  0  0  0  0  0  0  0
   35.7490   29.8750   33.3890 C   0  0  0  0  0  0  0  0  0  0  0  0
   35.9000   30.4840   32.1800 C   0  0  0  0  0  0  0  0  0  0  0  0
   36.5230   29.8780   31.1150 C   0  0  0  0  0  0  0  0  0  0  0  0
   37.0190   28.5960   31.2730 C   0  0  0  0  0  0  0  0  0  0  0  0
   36.8770   27.9550   32.4980 C   0  0  0  0  0  0  0  0  0  0  0  0
   35.5000   31.4930   32.0820 H   0  0  0  0  0  0  0  0  0  0  0  0
   36.5860   30.4460   30.2120 H   0  0  0  0  0  0  0  0  0  0  0  0
   37.5050   28.1340   30.4320 H   0  0  0  0  0  0  0  0  0  0  0  0
   35.1210   31.8320   36.5810 C   0  0  0  0  0  0  0  0  0  0  0  0
   35.7740   31.2690   35.4580 C   0  0  0  0  0  0  0  0  0  0  0  0
   35.0940   30.4700   34.5610 C   0  0  0  0  0  0  0  0  0  0  0  0
   33.7690   30.2500   34.8080 N   0  0  0  0  0  0  0  0  0  0  0  0
   33.1450   30.7820   35.8730 C   0  0  0  0  0  0  0  0  0  0  0  0
   33.8060   31.5540   36.7370 N   0  0  0  0  0  0  0  0  0  0  0  0
   35.6690   32.4570   37.2760 H   0  0  0  0  0  0  0  0  0  0  0  0
   36.8310   31.4720   35.3020 H   0  0  0  0  0  0  0  0  0  0  0  0
   32.0960   30.5610   35.9970 H   0  0  0  0  0  0  0  0  0  0  0  0
  1  6  1  0  0  0  0
  1  3  1  0  0  0  0
  2  1  2  0  0  0  0
  3  4  1  0  0  0  0
  5 13  1  0  0  0  0
  5 14  1  0  0  0  0
  6  5  2  0  0  0  0
  7  8  2  0  0  0  0
  7  6  1  0  0  0  0
  8 12  1  0  0  0  0
  9 10  1  0  0  0  0
  9  8  1  0  0  0  0
 10 11  2  0  0  0  0
 11 12  1  0  0  0  0
 12 13  2  0  0  0  0
 13 18  1  0  0  0  0
 15  7  1  0  0  0  0
 16  9  1  0  0  0  0
 17 10  1  0  0  0  0
 18 19  1  0  0  0  0
 19 20  1  0  0  0  0
 20 21  1  0  0  0  0
 23 22  1  0  0  0  0
 24 23  1  0  0  0  0
 24 34  1  0  0  0  0
 25 24  2  0  0  0  0
 26 27  2  0  0  0  0
 26 25  1  0  0  0  0
 27 28  1  0  0  0  0
 28  3  1  0  0  0  0
 28 23  2  0  0  0  0
 29 25  1  0  0  0  0
 30 26  1  0  0  0  0
 31 27  1  0  0  0  0
 32 37  1  0  0  0  0
 32 38  1  0  0  0  0
 33 32  2  0  0  0  0
 34 35  2  0  0  0  0
 34 33  1  0  0  0  0
 35 36  1  0  0  0  0
 36 40  1  0  0  0  0
 36 37  2  0  0  0  0
 39 33  1  0  0  0  0
M  END
>  <minimizedAffinity>
-6.04124069

$$$$

 OpenBabel03272503143D

 40 43  0  0  0  0  0  0  0  0999 V2000
   37.8370   26.2700   35.1170 C   0  0  0  0  0  0  0  0  0  0  0  0
   38.5650   26.7640   36.0420 O   0  0  0  0  0  0  0  0  0  0  0  0
   37.6840   24.8690   35.1470 N   0  0  0  0  0  0  0  0  0  0  0  0
   37.1020   24.4450   34.4000 H   0  0  0  0  0  0  0  0  0  0  0  0
   37.5590   26.9280   32.8270 C   0  0  0  0  0  0  0  0  0  0  0  0
   37.2480   27.1720   34.1400 C   0  0  0  0  0  0  0  0  0  0  0  0
   36.4260   28.1960   34.5450 C   0  0  0  0  0  0  0  0  0  0  0  0
   35.8750   29.0330   33.5860 C   0  0  0  0  0  0  0  0  0  0  0  0
   35.0590   30.0780   33.6700 N   0  0  0  0  0  0  0  0  0  0  0  0
   34.8290   30.5200   32.4250 C   0  0  0  0  0  0  0  0  0  0  0  0
   35.5110   29.7440   31.5580 N   0  0  0  0  0  0  0  0  0  0  0  0
   36.1830   28.7930   32.2580 C   0  0  0  0  0  0  0  0  0  0  0  0
   37.0140   27.7620   31.8310 C   0  0  0  0  0  0  0  0  0  0  0  0
   38.1980   26.1160   32.5620 H   0  0  0  0  0  0  0  0  0  0  0  0
   36.2250   28.3320   35.5910 H   0  0  0  0  0  0  0  0  0  0  0  0
   34.6560   30.4960   34.5390 H   0  0  0  0  0  0  0  0  0  0  0  0
   34.2040   31.3630   32.1290 H   0  0  0  0  0  0  0  0  0  0  0  0
   37.3110   27.5380   30.5190 O   0  0  0  0  0  0  0  0  0  0  0  0
   38.5070   27.9100   29.9050 C   0  0  0  0  0  2  0  0  0  0  0  0
   38.5500   29.3070   29.3690 C   0  0  0  0  0  2  0  0  0  0  0  0
   39.4470   29.8860   29.7150 H   0  0  0  0  0  0  0  0  0  0  0  0
   40.1570   23.8000   34.8010 F   0  0  0  0  0  0  0  0  0  0  0  0
   39.6150   23.6940   36.0470 C   0  0  0  0  0  0  0  0  0  0  0  0
   40.3030   23.0760   37.0550 C   0  0  0  0  0  0  0  0  0  0  0  0
   39.7010   23.0080   38.2740 C   0  0  0  0  0  0  0  0  0  0  0  0
   38.4520   23.5300   38.5170 C   0  0  0  0  0  0  0  0  0  0  0  0
   37.7760   24.1510   37.4820 C   0  0  0  0  0  0  0  0  0  0  0  0
   38.3700   24.2320   36.2290 C   0  0  0  0  0  0  0  0  0  0  0  0
   40.2550   22.5130   39.0720 H   0  0  0  0  0  0  0  0  0  0  0  0
   38.0730   23.4200   39.5110 H   0  0  0  0  0  0  0  0  0  0  0  0
   36.8000   24.5550   37.6860 H   0  0  0  0  0  0  0  0  0  0  0  0
   43.1890   20.6900   36.4280 C   0  0  0  0  0  0  0  0  0  0  0  0
   41.8990   21.1840   36.7390 C   0  0  0  0  0  0  0  0  0  0  0  0
   41.6310   22.5380   36.7350 C   0  0  0  0  0  0  0  0  0  0  0  0
   42.6660   23.3730   36.4190 N   0  0  0  0  0  0  0  0  0  0  0  0
   43.8920   22.9070   36.1240 C   0  0  0  0  0  0  0  0  0  0  0  0
   44.1450   21.5980   36.1280 N   0  0  0  0  0  0  0  0  0  0  0  0
   43.3820   19.6240   36.4360 H   0  0  0  0  0  0  0  0  0  0  0  0
   41.1060   20.4810   36.9860 H   0  0  0  0  0  0  0  0  0  0  0  0
   44.6540   23.6330   35.8840 H   0  0  0  0  0  0  0  0  0  0  0  0
  1  3  1  0  0  0  0
  1  2  2  0  0  0  0
  3 28  1  0  0  0  0
  4  3  1  0  0  0  0
  5  6  1  0  0  0  0
  6  7  2  0  0  0  0
  6  1  1  0  0  0  0
  7 15  1  0  0  0  0
  8  9  1  0  0  0  0
  8  7  1  0  0  0  0
  9 16  1  0  0  0  0
 10  9  1  0  0  0  0
 11 12  1  0  0  0  0
 11 10  2  0  0  0  0
 12  8  2  0  0  0  0
 13 12  1  0  0  0  0
 13  5  2  0  0  0  0
 14  5  1  0  0  0  0
 17 10  1  0  0  0  0
 18 13  1  0  0  0  0
 19 18  1  0  0  0  0
 20 21  1  0  0  0  0
 20 19  1  0  0  0  0
 22 23  1  0  0  0  0
 23 28  2  0  0  0  0
 23 24  1  0  0  0  0
 24 25  2  0  0  0  0
 25 26  1  0  0  0  0
 25 29  1  0  0  0  0
 26 30  1  0  0  0  0
 27 31  1  0  0  0  0
 27 26  2  0  0  0  0
 28 27  1  0  0  0  0
 32 38  1  0  0  0  0
 32 33  1  0  0  0  0
 33 39  1  0  0  0  0
 34 33  2  0  0  0  0
 34 24  1  0  0  0  0
 35 34  1  0  0  0  0
 36 37  1  0  0  0  0
 36 35  2  0  0  0  0
 37 32  2  0  0  0  0
 40 36  1  0  0  0  0
M  END
>  <minimizedAffinity>
-6.00505781

$$$$

 OpenBabel03272503143D

 40 43  0  0  0  0  0  0  0  0999 V2000
   36.5940   25.8510   32.0090 C   0  0  0  0  0  0  0  0  0  0  0  0
   35.4600   26.1660   31.5170 O   0  0  0  0  0  0  0  0  0  0  0  0
   37.3640   26.9260   32.4980 N   0  0  0  0  0  0  0  0  0  0  0  0
   38.2940   26.6940   32.8960 H   0  0  0  0  0  0  0  0  0  0  0  0
   36.0250   23.5530   31.6200 C   0  0  0  0  0  0  0  0  0  0  0  0
   36.9840   24.4490   32.0180 C   0  0  0  0  0  0  0  0  0  0  0  0
   38.2500   24.0810   32.4020 C   0  0  0  0  0  0  0  0  0  0  0  0
   38.5910   22.7360   32.3910 C   0  0  0  0  0  0  0  0  0  0  0  0
   39.7120   22.0930   32.6960 N   0  0  0  0  0  0  0  0  0  0  0  0
   39.4990   20.7840   32.5000 C   0  0  0  0  0  0  0  0  0  0  0  0
   38.2330   20.6110   32.0710 N   0  0  0  0  0  0  0  0  0  0  0  0
   37.6290   21.8250   31.9910 C   0  0  0  0  0  0  0  0  0  0  0  0
   36.3420   22.1800   31.5990 C   0  0  0  0  0  0  0  0  0  0  0  0
   35.0560   23.8890   31.3250 H   0  0  0  0  0  0  0  0  0  0  0  0
   38.9530   24.8360   32.7040 H   0  0  0  0  0  0  0  0  0  0  0  0
   40.6100   22.5110   33.0300 H   0  0  0  0  0  0  0  0  0  0  0  0
   40.2090   19.9700   32.6530 H   0  0  0  0  0  0  0  0  0  0  0  0
   35.4030   21.2710   31.2090 O   0  0  0  0  0  0  0  0  0  0  0  0
   34.6170   20.5220   32.0840 C   0  0  0  0  0  2  0  0  0  0  0  0
   34.9650   19.0690   32.1800 C   0  0  0  0  0  2  0  0  0  0  0  0
   35.1080   18.7180   33.2360 H   0  0  0  0  0  0  0  0  0  0  0  0
   36.2000   28.1320   34.6360 F   0  0  0  0  0  0  0  0  0  0  0  0
   36.1430   28.8020   33.4510 C   0  0  0  0  0  0  0  0  0  0  0  0
   35.5240   30.0190   33.3680 C   0  0  0  0  0  0  0  0  0  0  0  0
   35.5060   30.6320   32.1530 C   0  0  0  0  0  0  0  0  0  0  0  0
   36.0780   30.0780   31.0320 C   0  0  0  0  0  0  0  0  0  0  0  0
   36.6980   28.8460   31.1390 C   0  0  0  0  0  0  0  0  0  0  0  0
   36.7290   28.2010   32.3700 C   0  0  0  0  0  0  0  0  0  0  0  0
   35.0120   31.6020   32.0960 H   0  0  0  0  0  0  0  0  0  0  0  0
   36.0050   30.6440   30.1280 H   0  0  0  0  0  0  0  0  0  0  0  0
   37.1410   28.4230   30.2550 H   0  0  0  0  0  0  0  0  0  0  0  0
   35.0540   31.8690   36.6510 C   0  0  0  0  0  0  0  0  0  0  0  0
   35.6460   31.3580   35.4700 C   0  0  0  0  0  0  0  0  0  0  0  0
   34.9330   30.5610   34.5980 C   0  0  0  0  0  0  0  0  0  0  0  0
   33.6350   30.2900   34.9290 N   0  0  0  0  0  0  0  0  0  0  0  0
   33.0690   30.7730   36.0480 C   0  0  0  0  0  0  0  0  0  0  0  0
   33.7620   31.5430   36.8870 N   0  0  0  0  0  0  0  0  0  0  0  0
   35.6290   32.4930   37.3240 H   0  0  0  0  0  0  0  0  0  0  0  0
   36.6840   31.6010   35.2490 H   0  0  0  0  0  0  0  0  0  0  0  0
   32.0380   30.5130   36.2360 H   0  0  0  0  0  0  0  0  0  0  0  0
  1  6  1  0  0  0  0
  1  3  1  0  0  0  0
  2  1  2  0  0  0  0
  3  4  1  0  0  0  0
  5  6  1  0  0  0  0
  6  7  2  0  0  0  0
  7 15  1  0  0  0  0
  8  7  1  0  0  0  0
  8  9  1  0  0  0  0
  9 16  1  0  0  0  0
 10 17  1  0  0  0  0
 10  9  1  0  0  0  0
 11 10  2  0  0  0  0
 12 11  1  0  0  0  0
 12  8  2  0  0  0  0
 13  5  2  0  0  0  0
 13 12  1  0  0  0  0
 14  5  1  0  0  0  0
 18 13  1  0  0  0  0
 18 19  1  0  0  0  0
 19 20  1  0  0  0  0
 20 21  1  0  0  0  0
 23 22  1  0  0  0  0
 24 23  1  0  0  0  0
 24 34  1  0  0  0  0
 25 24  2  0  0  0  0
 26 27  2  0  0  0  0
 26 25  1  0  0  0  0
 27 28  1  0  0  0  0
 28  3  1  0  0  0  0
 28 23  2  0  0  0  0
 29 25  1  0  0  0  0
 30 26  1  0  0  0  0
 31 27  1  0  0  0  0
 32 37  1  0  0  0  0
 32 38  1  0  0  0  0
 33 32  2  0  0  0  0
 34 35  2  0  0  0  0
 34 33  1  0  0  0  0
 35 36  1  0  0  0  0
 36 40  1  0  0  0  0
 36 37  2  0  0  0  0
 39 33  1  0  0  0  0
M  END
>  <minimizedAffinity>
-5.91135359

$$$$

 OpenBabel03272503143D

 40 43  0  0  0  0  0  0  0  0999 V2000
   36.8280   27.0260   31.8040 C   0  0  0  0  0  0  0  0  0  0  0  0
   37.5860   26.5540   32.7160 O   0  0  0  0  0  0  0  0  0  0  0  0
   36.6270   26.1900   30.6870 N   0  0  0  0  0  0  0  0  0  0  0  0
   36.0190   26.5580   29.9300 H   0  0  0  0  0  0  0  0  0  0  0  0
   35.9530   28.7000   33.2840 C   0  0  0  0  0  0  0  0  0  0  0  0
   36.2560   28.3510   31.9930 C   0  0  0  0  0  0  0  0  0  0  0  0
   36.0510   29.1800   30.9170 C   0  0  0  0  0  0  0  0  0  0  0  0
   35.5110   30.4400   31.1340 C   0  0  0  0  0  0  0  0  0  0  0  0
   35.2130   31.4400   30.3130 N   0  0  0  0  0  0  0  0  0  0  0  0
   34.7190   32.4440   31.0530 C   0  0  0  0  0  0  0  0  0  0  0  0
   34.7090   32.0620   32.3470 N   0  0  0  0  0  0  0  0  0  0  0  0
   35.2030   30.8000   32.4340 C   0  0  0  0  0  0  0  0  0  0  0  0
   35.4030   29.9730   33.5340 C   0  0  0  0  0  0  0  0  0  0  0  0
   36.1360   28.0220   34.0880 H   0  0  0  0  0  0  0  0  0  0  0  0
   36.3100   28.8430   29.9310 H   0  0  0  0  0  0  0  0  0  0  0  0
   35.3320   31.4630   29.2760 H   0  0  0  0  0  0  0  0  0  0  0  0
   34.3730   33.4160   30.7000 H   0  0  0  0  0  0  0  0  0  0  0  0
   35.0930   30.3400   34.8110 O   0  0  0  0  0  0  0  0  0  0  0  0
   35.9230   31.0940   35.6410 C   0  0  0  0  0  2  0  0  0  0  0  0
   35.2220   31.9940   36.6090 C   0  0  0  0  0  2  0  0  0  0  0  0
   35.5760   31.8670   37.6660 H   0  0  0  0  0  0  0  0  0  0  0  0
   35.3970   24.0020   31.7250 F   0  0  0  0  0  0  0  0  0  0  0  0
   36.6810   23.8360   31.2960 C   0  0  0  0  0  0  0  0  0  0  0  0
   37.2960   22.6190   31.3960 C   0  0  0  0  0  0  0  0  0  0  0  0
   38.5780   22.5260   30.9480 C   0  0  0  0  0  0  0  0  0  0  0  0
   39.2570   23.5940   30.4100 C   0  0  0  0  0  0  0  0  0  0  0  0
   38.6140   24.8150   30.3200 C   0  0  0  0  0  0  0  0  0  0  0  0
   37.3050   24.9340   30.7710 C   0  0  0  0  0  0  0  0  0  0  0  0
   39.0610   21.5520   31.0300 H   0  0  0  0  0  0  0  0  0  0  0  0
   40.2600   23.4100   30.0900 H   0  0  0  0  0  0  0  0  0  0  0  0
   39.1570   25.6430   29.8970 H   0  0  0  0  0  0  0  0  0  0  0  0
   35.1500   19.5110   31.7830 C   0  0  0  0  0  0  0  0  0  0  0  0
   35.8930   20.5650   31.1990 C   0  0  0  0  0  0  0  0  0  0  0  0
   36.5210   21.5150   31.9780 C   0  0  0  0  0  0  0  0  0  0  0  0
   36.3920   21.3890   33.3320 N   0  0  0  0  0  0  0  0  0  0  0  0
   35.6880   20.3900   33.8910 C   0  0  0  0  0  0  0  0  0  0  0  0
   35.0830   19.4740   33.1340 N   0  0  0  0  0  0  0  0  0  0  0  0
   34.6630   18.7730   31.1570 H   0  0  0  0  0  0  0  0  0  0  0  0
   35.9670   20.6250   30.1150 H   0  0  0  0  0  0  0  0  0  0  0  0
   35.6360   20.3610   34.9690 H   0  0  0  0  0  0  0  0  0  0  0  0
  1  6  1  0  0  0  0
  1  2  2  0  0  0  0
  3 28  1  0  0  0  0
  3  1  1  0  0  0  0
  4  3  1  0  0  0  0
  5 13  1  0  0  0  0
  5 14  1  0  0  0  0
  6  5  2  0  0  0  0
  7  8  2  0  0  0  0
  7  6  1  0  0  0  0
  8 12  1  0  0  0  0
  9 10  1  0  0  0  0
  9  8  1  0  0  0  0
 10 11  2  0  0  0  0
 11 12  1  0  0  0  0
 12 13  2  0  0  0  0
 13 18  1  0  0  0  0
 15  7  1  0  0  0  0
 16  9  1  0  0  0  0
 17 10  1  0  0  0  0
 18 19  1  0  0  0  0
 19 20  1  0  0  0  0
 20 21  1  0  0  0  0
 23 24  1  0  0  0  0
 23 22  1  0  0  0  0
 24 34  1  0  0  0  0
 25 29  1  0  0  0  0
 25 24  2  0  0  0  0
 26 25  1  0  0  0  0
 27 26  2  0  0  0  0
 27 28  1  0  0  0  0
 28 23  2  0  0  0  0
 30 26  1  0  0  0  0
 31 27  1  0  0  0  0
 32 37  1  0  0  0  0
 33 32  2  0  0  0  0
 33 34  1  0  0  0  0
 34 35  2  0  0  0  0
 35 36  1  0  0  0  0
 36 40  1  0  0  0  0
 37 36  2  0  0  0  0
 38 32  1  0  0  0  0
 39 33  1  0  0  0  0
M  END
>  <minimizedAffinity>
-5.90037298

$$$$

 OpenBabel03272503143D

 40 43  0  0  0  0  0  0  0  0999 V2000
   38.6380   26.2300   33.6560 C   0  0  0  0  0  0  0  0  0  0  0  0
   39.2010   27.3620   33.8330 O   0  0  0  0  0  0  0  0  0  0  0  0
   37.3480   26.2760   33.0880 N   0  0  0  0  0  0  0  0  0  0  0  0
   36.8690   25.3670   32.9420 H   0  0  0  0  0  0  0  0  0  0  0  0
   38.9150   24.4020   35.1840 C   0  0  0  0  0  0  0  0  0  0  0  0
   39.3570   25.0280   34.0460 C   0  0  0  0  0  0  0  0  0  0  0  0
   40.4090   24.5700   33.2910 C   0  0  0  0  0  0  0  0  0  0  0  0
   41.0680   23.4150   33.6880 C   0  0  0  0  0  0  0  0  0  0  0  0
   42.0900   22.7430   33.1690 N   0  0  0  0  0  0  0  0  0  0  0  0
   42.3220   21.6810   33.9550 C   0  0  0  0  0  0  0  0  0  0  0  0
   41.4370   21.6940   34.9720 N   0  0  0  0  0  0  0  0  0  0  0  0
   40.6280   22.7770   34.8340 C   0  0  0  0  0  0  0  0  0  0  0  0
   39.5660   23.2270   35.6110 C   0  0  0  0  0  0  0  0  0  0  0  0
   38.0890   24.7940   35.7330 H   0  0  0  0  0  0  0  0  0  0  0  0
   40.7040   25.1100   32.4100 H   0  0  0  0  0  0  0  0  0  0  0  0
   42.6300   22.9800   32.3080 H   0  0  0  0  0  0  0  0  0  0  0  0
   43.0900   20.9180   33.8230 H   0  0  0  0  0  0  0  0  0  0  0  0
   39.1440   22.5900   36.7410 O   0  0  0  0  0  0  0  0  0  0  0  0
   39.2980   23.0890   38.0340 C   0  0  0  0  0  2  0  0  0  0  0  0
   38.1490   23.8930   38.5560 C   0  0  0  0  0  2  0  0  0  0  0  0
   37.7910   23.5510   39.5630 H   0  0  0  0  0  0  0  0  0  0  0  0
   36.1190   27.7850   34.9830 F   0  0  0  0  0  0  0  0  0  0  0  0
   36.2690   28.3520   33.7520 C   0  0  0  0  0  0  0  0  0  0  0  0
   35.8140   29.6190   33.5100 C   0  0  0  0  0  0  0  0  0  0  0  0
   35.9980   30.1220   32.2580 C   0  0  0  0  0  0  0  0  0  0  0  0
   36.6140   29.4120   31.2540 C   0  0  0  0  0  0  0  0  0  0  0  0
   37.0660   28.1330   31.5230 C   0  0  0  0  0  0  0  0  0  0  0  0
   36.8890   27.5980   32.7930 C   0  0  0  0  0  0  0  0  0  0  0  0
   35.6330   31.1320   32.0730 H   0  0  0  0  0  0  0  0  0  0  0  0
   36.7060   29.9030   30.3090 H   0  0  0  0  0  0  0  0  0  0  0  0
   37.5460   27.5880   30.7290 H   0  0  0  0  0  0  0  0  0  0  0  0
   35.2150   31.8360   36.5330 C   0  0  0  0  0  0  0  0  0  0  0  0
   35.8630   31.1630   35.4690 C   0  0  0  0  0  0  0  0  0  0  0  0
   35.1650   30.3280   34.6200 C   0  0  0  0  0  0  0  0  0  0  0  0
   33.8270   30.1820   34.8560 N   0  0  0  0  0  0  0  0  0  0  0  0
   33.2090   30.8190   35.8650 C   0  0  0  0  0  0  0  0  0  0  0  0
   33.8860   31.6260   36.6820 N   0  0  0  0  0  0  0  0  0  0  0  0
   35.7770   32.4880   37.1900 H   0  0  0  0  0  0  0  0  0  0  0  0
   36.9300   31.3090   35.3200 H   0  0  0  0  0  0  0  0  0  0  0  0
   32.1490   30.6520   35.9830 H   0  0  0  0  0  0  0  0  0  0  0  0
  1  2  2  0  0  0  0
  1  6  1  0  0  0  0
  3  1  1  0  0  0  0
  4  3  1  0  0  0  0
  5 13  1  0  0  0  0
  5 14  1  0  0  0  0
  6  5  2  0  0  0  0
  7  8  2  0  0  0  0
  7  6  1  0  0  0  0
  8 12  1  0  0  0  0
  9  8  1  0  0  0  0
  9 10  1  0  0  0  0
 10 11  2  0  0  0  0
 12 11  1  0  0  0  0
 12 13  2  0  0  0  0
 13 18  1  0  0  0  0
 15  7  1  0  0  0  0
 16  9  1  0  0  0  0
 17 10  1  0  0  0  0
 18 19  1  0  0  0  0
 19 20  1  0  0  0  0
 20 21  1  0  0  0  0
 23 22  1  0  0  0  0
 24 23  1  0  0  0  0
 24 34  1  0  0  0  0
 25 24  2  0  0  0  0
 26 27  2  0  0  0  0
 26 25  1  0  0  0  0
 27 28  1  0  0  0  0
 28  3  1  0  0  0  0
 28 23  2  0  0  0  0
 29 25  1  0  0  0  0
 30 26  1  0  0  0  0
 31 27  1  0  0  0  0
 32 37  1  0  0  0  0
 32 38  1  0  0  0  0
 33 32  2  0  0  0  0
 34 35  2  0  0  0  0
 34 33  1  0  0  0  0
 35 36  1  0  0  0  0
 36 40  1  0  0  0  0
 36 37  2  0  0  0  0
 39 33  1  0  0  0  0
M  END
>  <minimizedAffinity>
-5.69764757

$$$$

 OpenBabel03272503143D

 40 43  0  0  0  0  0  0  0  0999 V2000
   39.2110   26.0790   34.3270 C   0  0  0  0  0  0  0  0  0  0  0  0
   39.6300   27.2850   34.3290 O   0  0  0  0  0  0  0  0  0  0  0  0
   37.9620   25.8710   33.7070 N   0  0  0  0  0  0  0  0  0  0  0  0
   37.5980   24.8990   33.7000 H   0  0  0  0  0  0  0  0  0  0  0  0
   41.3790   25.1160   34.6850 C   0  0  0  0  0  0  0  0  0  0  0  0
   40.0350   25.0560   34.9520 C   0  0  0  0  0  0  0  0  0  0  0  0
   39.4660   24.1030   35.7620 C   0  0  0  0  0  0  0  0  0  0  0  0
   40.2830   23.1460   36.3480 C   0  0  0  0  0  0  0  0  0  0  0  0
   40.0290   22.1290   37.1630 N   0  0  0  0  0  0  0  0  0  0  0  0
   41.1940   21.5230   37.4360 C   0  0  0  0  0  0  0  0  0  0  0  0
   42.1810   22.1680   36.7820 N   0  0  0  0  0  0  0  0  0  0  0  0
   41.6410   23.2010   36.0840 C   0  0  0  0  0  0  0  0  0  0  0  0
   42.2320   24.1570   35.2660 C   0  0  0  0  0  0  0  0  0  0  0  0
   41.7730   25.8800   34.0530 H   0  0  0  0  0  0  0  0  0  0  0  0
   38.4050   24.1130   35.9280 H   0  0  0  0  0  0  0  0  0  0  0  0
   39.0990   21.8370   37.5370 H   0  0  0  0  0  0  0  0  0  0  0  0
   41.3500   20.6520   38.0730 H   0  0  0  0  0  0  0  0  0  0  0  0
   43.5720   24.1970   35.0120 O   0  0  0  0  0  0  0  0  0  0  0  0
   44.1480   23.9470   33.7670 C   0  0  0  0  0  2  0  0  0  0  0  0
   43.9820   22.5530   33.2480 C   0  0  0  0  0  2  0  0  0  0  0  0
   43.5740   22.5170   32.2030 H   0  0  0  0  0  0  0  0  0  0  0  0
   36.4890   27.5370   35.2660 F   0  0  0  0  0  0  0  0  0  0  0  0
   36.6330   27.8930   33.9580 C   0  0  0  0  0  0  0  0  0  0  0  0
   36.0540   29.0360   33.4800 C   0  0  0  0  0  0  0  0  0  0  0  0
   36.2410   29.3290   32.1630 C   0  0  0  0  0  0  0  0  0  0  0  0
   36.9760   28.5300   31.3200 C   0  0  0  0  0  0  0  0  0  0  0  0
   37.5520   27.3790   31.8270 C   0  0  0  0  0  0  0  0  0  0  0  0
   37.3760   27.0580   33.1670 C   0  0  0  0  0  0  0  0  0  0  0  0
   35.7770   30.2420   31.7900 H   0  0  0  0  0  0  0  0  0  0  0  0
   37.0580   28.8540   30.3050 H   0  0  0  0  0  0  0  0  0  0  0  0
   38.1250   26.7630   31.1560 H   0  0  0  0  0  0  0  0  0  0  0  0
   33.1890   30.5230   35.4780 C   0  0  0  0  0  0  0  0  0  0  0  0
   33.9130   29.7270   34.5580 C   0  0  0  0  0  0  0  0  0  0  0  0
   35.2810   29.8490   34.4270 C   0  0  0  0  0  0  0  0  0  0  0  0
   35.8990   30.7710   35.2250 N   0  0  0  0  0  0  0  0  0  0  0  0
   35.2160   31.5280   36.0990 C   0  0  0  0  0  0  0  0  0  0  0  0
   33.8940   31.4060   36.2230 N   0  0  0  0  0  0  0  0  0  0  0  0
   32.1150   30.4140   35.5680 H   0  0  0  0  0  0  0  0  0  0  0  0
   33.3770   29.0060   33.9430 H   0  0  0  0  0  0  0  0  0  0  0  0
   35.7790   32.2320   36.6930 H   0  0  0  0  0  0  0  0  0  0  0  0
  1  2  2  0  0  0  0
  1  6  1  0  0  0  0
  3  1  1  0  0  0  0
  4  3  1  0  0  0  0
  5  6  2  0  0  0  0
  5 13  1  0  0  0  0
  6  7  1  0  0  0  0
  7 15  1  0  0  0  0
  7  8  2  0  0  0  0
  8  9  1  0  0  0  0
  9 10  1  0  0  0  0
  9 16  1  0  0  0  0
 10 17  1  0  0  0  0
 11 10  2  0  0  0  0
 12  8  1  0  0  0  0
 12 11  1  0  0  0  0
 13 12  2  0  0  0  0
 14  5  1  0  0  0  0
 18 13  1  0  0  0  0
 19 18  1  0  0  0  0
 20 19  1  0  0  0  0
 21 20  1  0  0  0  0
 23 22  1  0  0  0  0
 24 23  1  0  0  0  0
 24 34  1  0  0  0  0
 25 24  2  0  0  0  0
 26 27  2  0  0  0  0
 26 25  1  0  0  0  0
 27 28  1  0  0  0  0
 28  3  1  0  0  0  0
 28 23  2  0  0  0  0
 29 25  1  0  0  0  0
 30 26  1  0  0  0  0
 31 27  1  0  0  0  0
 32 38  1  0  0  0  0
 32 37  1  0  0  0  0
 33 32  2  0  0  0  0
 34 33  1  0  0  0  0
 34 35  2  0  0  0  0
 35 36  1  0  0  0  0
 36 37  2  0  0  0  0
 36 40  1  0  0  0  0
 39 33  1  0  0  0  0
M  END
>  <minimizedAffinity>
-5.64315891

$$$$

 OpenBabel03272503143D

 40 43  0  0  0  0  0  0  0  0999 V2000
   36.3790   25.8060   31.3720 C   0  0  0  0  0  0  0  0  0  0  0  0
   35.4100   26.3420   30.7370 O   0  0  0  0  0  0  0  0  0  0  0  0
   37.1720   26.6920   32.1290 N   0  0  0  0  0  0  0  0  0  0  0  0
   37.9700   26.2790   32.6490 H   0  0  0  0  0  0  0  0  0  0  0  0
   37.7830   23.9600   30.7590 C   0  0  0  0  0  0  0  0  0  0  0  0
   36.5740   24.3690   31.2590 C   0  0  0  0  0  0  0  0  0  0  0  0
   35.5840   23.5000   31.6490 C   0  0  0  0  0  0  0  0  0  0  0  0
   35.8060   22.1350   31.5350 C   0  0  0  0  0  0  0  0  0  0  0  0
   35.0580   21.0770   31.8300 N   0  0  0  0  0  0  0  0  0  0  0  0
   35.7660   19.9790   31.5290 C   0  0  0  0  0  0  0  0  0  0  0  0
   36.9650   20.3570   31.0410 N   0  0  0  0  0  0  0  0  0  0  0  0
   37.0250   21.7140   31.0310 C   0  0  0  0  0  0  0  0  0  0  0  0
   38.0370   22.5800   30.6320 C   0  0  0  0  0  0  0  0  0  0  0  0
   38.5230   24.6750   30.4750 H   0  0  0  0  0  0  0  0  0  0  0  0
   34.6580   23.8880   32.0330 H   0  0  0  0  0  0  0  0  0  0  0  0
   34.0910   21.0780   32.2250 H   0  0  0  0  0  0  0  0  0  0  0  0
   35.4540   18.9410   31.6460 H   0  0  0  0  0  0  0  0  0  0  0  0
   39.2330   22.1520   30.1330 O   0  0  0  0  0  0  0  0  0  0  0  0
   39.6530   22.3410   28.8170 C   0  0  0  0  0  2  0  0  0  0  0  0
   40.8510   23.2210   28.6430 C   0  0  0  0  0  2  0  0  0  0  0  0
   41.6550   22.7540   28.0160 H   0  0  0  0  0  0  0  0  0  0  0  0
   36.0470   27.9090   34.2820 F   0  0  0  0  0  0  0  0  0  0  0  0
   36.1770   28.6620   33.1530 C   0  0  0  0  0  0  0  0  0  0  0  0
   35.7530   29.9620   33.1310 C   0  0  0  0  0  0  0  0  0  0  0  0
   35.9150   30.6540   31.9700 C   0  0  0  0  0  0  0  0  0  0  0  0
   36.4780   30.0990   30.8450 C   0  0  0  0  0  0  0  0  0  0  0  0
   36.8990   28.7820   30.8910 C   0  0  0  0  0  0  0  0  0  0  0  0
   36.7440   28.0550   32.0650 C   0  0  0  0  0  0  0  0  0  0  0  0
   35.5750   31.6900   31.9610 H   0  0  0  0  0  0  0  0  0  0  0  0
   36.5560   30.7320   29.9880 H   0  0  0  0  0  0  0  0  0  0  0  0
   37.3380   28.3600   30.0040 H   0  0  0  0  0  0  0  0  0  0  0  0
   33.2910   30.8120   35.8930 C   0  0  0  0  0  0  0  0  0  0  0  0
   33.8400   30.2820   34.7010 C   0  0  0  0  0  0  0  0  0  0  0  0
   35.1610   30.5000   34.3620 C   0  0  0  0  0  0  0  0  0  0  0  0
   35.9070   31.2480   35.2290 N   0  0  0  0  0  0  0  0  0  0  0  0
   35.3890   31.7530   36.3620 C   0  0  0  0  0  0  0  0  0  0  0  0
   34.1130   31.5390   36.6850 N   0  0  0  0  0  0  0  0  0  0  0  0
   32.2530   30.6320   36.1440 H   0  0  0  0  0  0  0  0  0  0  0  0
   33.2070   29.6930   34.0410 H   0  0  0  0  0  0  0  0  0  0  0  0
   36.0450   32.3320   36.9930 H   0  0  0  0  0  0  0  0  0  0  0  0
  1  3  1  0  0  0  0
  2  1  2  0  0  0  0
  3  4  1  0  0  0  0
  5  6  1  0  0  0  0
  6  1  1  0  0  0  0
  6  7  2  0  0  0  0
  7 15  1  0  0  0  0
  8  7  1  0  0  0  0
  8  9  1  0  0  0  0
  9 16  1  0  0  0  0
 10 17  1  0  0  0  0
 10  9  1  0  0  0  0
 11 10  2  0  0  0  0
 12 11  1  0  0  0  0
 12  8  2  0  0  0  0
 13  5  2  0  0  0  0
 13 12  1  0  0  0  0
 14  5  1  0  0  0  0
 18 13  1  0  0  0  0
 19 18  1  0  0  0  0
 20 19  1  0  0  0  0
 21 20  1  0  0  0  0
 23 22  1  0  0  0  0
 24 23  1  0  0  0  0
 24 34  1  0  0  0  0
 25 24  2  0  0  0  0
 26 27  2  0  0  0  0
 26 25  1  0  0  0  0
 27 28  1  0  0  0  0
 28  3  1  0  0  0  0
 28 23  2  0  0  0  0
 29 25  1  0  0  0  0
 30 26  1  0  0  0  0
 31 27  1  0  0  0  0
 32 38  1  0  0  0  0
 32 37  1  0  0  0  0
 33 32  2  0  0  0  0
 34 33  1  0  0  0  0
 34 35  2  0  0  0  0
 35 36  1  0  0  0  0
 36 37  2  0  0  0  0
 36 40  1  0  0  0  0
 39 33  1  0  0  0  0
M  END
>  <minimizedAffinity>
-5.6137557

$$$$

 OpenBabel03272503143D

 40 43  0  0  0  0  0  0  0  0999 V2000
   37.1870   26.4230   31.5450 C   0  0  0  0  0  0  0  0  0  0  0  0
   36.1240   26.0120   32.1180 O   0  0  0  0  0  0  0  0  0  0  0  0
   38.3100   25.5800   31.6710 N   0  0  0  0  0  0  0  0  0  0  0  0
   39.1880   25.8980   31.2180 H   0  0  0  0  0  0  0  0  0  0  0  0
   36.4910   28.7180   31.4630 C   0  0  0  0  0  0  0  0  0  0  0  0
   37.1480   27.6910   30.8340 C   0  0  0  0  0  0  0  0  0  0  0  0
   37.7510   27.8200   29.6060 C   0  0  0  0  0  0  0  0  0  0  0  0
   37.7010   29.0460   28.9590 C   0  0  0  0  0  0  0  0  0  0  0  0
   38.1850   29.4660   27.7950 N   0  0  0  0  0  0  0  0  0  0  0  0
   37.8540   30.7580   27.6570 C   0  0  0  0  0  0  0  0  0  0  0  0
   37.1560   31.1450   28.7430 N   0  0  0  0  0  0  0  0  0  0  0  0
   37.0400   30.0870   29.5870 C   0  0  0  0  0  0  0  0  0  0  0  0
   36.4230   29.9740   30.8290 C   0  0  0  0  0  0  0  0  0  0  0  0
   36.0430   28.5690   32.4200 H   0  0  0  0  0  0  0  0  0  0  0  0
   38.2490   26.9740   29.1680 H   0  0  0  0  0  0  0  0  0  0  0  0
   38.7290   28.9080   27.0990 H   0  0  0  0  0  0  0  0  0  0  0  0
   38.0930   31.4140   26.8180 H   0  0  0  0  0  0  0  0  0  0  0  0
   35.7730   31.0080   31.4370 O   0  0  0  0  0  0  0  0  0  0  0  0
   36.4060   32.0990   32.0320 C   0  0  0  0  0  2  0  0  0  0  0  0
   36.0080   32.3810   33.4470 C   0  0  0  0  0  2  0  0  0  0  0  0
   36.8860   32.4800   34.1400 H   0  0  0  0  0  0  0  0  0  0  0  0
   38.8320   25.4640   34.3340 F   0  0  0  0  0  0  0  0  0  0  0  0
   38.3270   24.3350   33.7600 C   0  0  0  0  0  0  0  0  0  0  0  0
   38.1050   23.2140   34.5100 C   0  0  0  0  0  0  0  0  0  0  0  0
   37.5990   22.1230   33.8720 C   0  0  0  0  0  0  0  0  0  0  0  0
   37.3110   22.1150   32.5270 C   0  0  0  0  0  0  0  0  0  0  0  0
   37.5440   23.2620   31.7890 C   0  0  0  0  0  0  0  0  0  0  0  0
   38.0610   24.3870   32.4190 C   0  0  0  0  0  0  0  0  0  0  0  0
   37.4240   21.2330   34.4770 H   0  0  0  0  0  0  0  0  0  0  0  0
   36.9170   21.2050   32.1280 H   0  0  0  0  0  0  0  0  0  0  0  0
   37.3140   23.2420   30.7380 H   0  0  0  0  0  0  0  0  0  0  0  0
   39.8880   22.8290   37.8400 C   0  0  0  0  0  0  0  0  0  0  0  0
   39.5960   22.7510   36.4570 C   0  0  0  0  0  0  0  0  0  0  0  0
   38.4310   23.2810   35.9410 C   0  0  0  0  0  0  0  0  0  0  0  0
   37.5790   23.8800   36.8250 N   0  0  0  0  0  0  0  0  0  0  0  0
   37.8520   23.9560   38.1380 C   0  0  0  0  0  0  0  0  0  0  0  0
   38.9800   23.4430   38.6320 N   0  0  0  0  0  0  0  0  0  0  0  0
   40.8080   22.4070   38.2290 H   0  0  0  0  0  0  0  0  0  0  0  0
   40.3050   22.2640   35.7910 H   0  0  0  0  0  0  0  0  0  0  0  0
   37.1270   24.4460   38.7700 H   0  0  0  0  0  0  0  0  0  0  0  0
  1  3  1  0  0  0  0
  1  2  2  0  0  0  0
  3 28  1  0  0  0  0
  4  3  1  0  0  0  0
  5 14  1  0  0  0  0
  6  5  1  0  0  0  0
  6  1  1  0  0  0  0
  7  6  2  0  0  0  0
  8 12  2  0  0  0  0
  8  7  1  0  0  0  0
  9  8  1  0  0  0  0
 10  9  1  0  0  0  0
 10 11  2  0  0  0  0
 11 12  1  0  0  0  0
 12 13  1  0  0  0  0
 13 18  1  0  0  0  0
 13  5  2  0  0  0  0
 15  7  1  0  0  0  0
 16  9  1  0  0  0  0
 17 10  1  0  0  0  0
 18 19  1  0  0  0  0
 19 20  1  0  0  0  0
 20 21  1  0  0  0  0
 23 22  1  0  0  0  0
 23 24  1  0  0  0  0
 24 34  1  0  0  0  0
 25 29  1  0  0  0  0
 25 24  2  0  0  0  0
 26 25  1  0  0  0  0
 27 28  1  0  0  0  0
 27 26  2  0  0  0  0
 28 23  2  0  0  0  0
 30 26  1  0  0  0  0
 31 27  1  0  0  0  0
 32 38  1  0  0  0  0
 32 37  1  0  0  0  0
 33 32  2  0  0  0  0
 34 33  1  0  0  0  0
 34 35  2  0  0  0  0
 35 36  1  0  0  0  0
 36 37  2  0  0  0  0
 36 40  1  0  0  0  0
 39 33  1  0  0  0  0
M  END
>  <minimizedAffinity>
-5.54488802

$$$$
