REMARK  Name = 
REMARK  4 active torsions:
REMARK  status: ('A' for Active; 'I' for Inactive)
REMARK    1  A    between atoms: C_2  and  C_12
REMARK    2  A    between atoms: C_6  and  O_16
REMARK    3  A    between atoms: O_16  and  C_24
REMARK    4  A    between atoms: C_24  and  C_25
REMARK                            x       y       z     vdW  Elec       q    Type
REMARK                         _______ _______ _______ _____ _____    ______ ____
ROOT
ATOM      1  C   UNL     1      36.859  30.537  46.904  0.00  0.00    +0.000 A 
ATOM      2  C   UNL     1      37.518  31.033  48.021  0.00  0.00    +0.000 A 
ATOM      3  C   UNL     1      38.510  32.001  47.901  0.00  0.00    +0.000 A 
ATOM      4  C   UNL     1      38.797  32.434  46.613  0.00  0.00    +0.000 A 
ATOM      5  N   UNL     1      39.714  33.361  46.234  0.00  0.00    +0.000 N 
ATOM      6  C   UNL     1      39.636  33.449  44.904  0.00  0.00    +0.000 A 
ATOM      7  N   UNL     1      38.712  32.620  44.417  0.00  0.00    +0.000 NA
ATOM      8  C   UNL     1      38.168  31.969  45.472  0.00  0.00    +0.000 A 
ATOM      9  C   UNL     1      37.179  30.999  45.628  0.00  0.00    +0.000 A 
ATOM     10  H   UNL     1      36.094  29.796  46.944  0.00  0.00    +0.000 HD
ATOM     11  H   UNL     1      39.023  32.389  48.766  0.00  0.00    +0.000 HD
ATOM     12  H   UNL     1      40.360  33.904  46.874  0.00  0.00    +0.000 HD
ATOM     13  H   UNL     1      36.670  30.618  44.750  0.00  0.00    +0.000 HD
ENDROOT
BRANCH   2  16
ATOM     14  C   UNL     1      37.396  30.065  51.660  0.00  0.00    +0.000 A 
ATOM     15  C   UNL     1      37.857  30.608  50.477  0.00  0.00    +0.000 A 
ATOM     16  C   UNL     1      37.129  30.502  49.313  0.00  0.00    +0.000 A 
ATOM     17  N   UNL     1      35.949  29.840  49.401  0.00  0.00    +0.000 NA
ATOM     18  C   UNL     1      35.498  29.308  50.564  0.00  0.00    +0.000 A 
ATOM     19  N   UNL     1      36.219  29.422  51.679  0.00  0.00    +0.000 NA
ATOM     20  H   UNL     1      38.047  30.206  52.513  0.00  0.00    +0.000 HD
ATOM     21  H   UNL     1      38.801  31.132  50.428  0.00  0.00    +0.000 HD
ATOM     22  H   UNL     1      34.535  28.783  50.570  0.00  0.00    +0.000 HD
ENDBRANCH   2  16
BRANCH   6  23
ATOM     23  O   UNL     1      40.454  34.325  44.170  0.00  0.00    +0.000 OA
BRANCH  23  24
ATOM     24  C   UNL     1      40.333  34.381  42.755  0.00  0.00    +0.000 C 
BRANCH  24  25
ATOM     25  C   UNL     1      39.949  35.798  42.380  0.00  0.00    +0.000 C 
ATOM     26  H   UNL     1      39.481  36.354  43.225  0.00  0.00    +0.000 HD
ENDBRANCH  24  25
ENDBRANCH  23  24
ENDBRANCH   6  23
TORSDOF 4
