
     RDKit          3D

 29 30  0  0  0  0  0  0  0  0999 V2000
   37.4070   29.9435   50.5662 C   0  0  0  0  0  0  0  0  0  0  0  0
   37.8604   30.4070   49.3238 C   0  0  0  0  0  0  0  0  0  0  0  0
   36.9985   30.6676   48.2886 C   0  0  0  0  0  0  0  0  0  0  0  0
   35.6895   30.4521   48.5322 N   0  0  0  0  0  0  0  0  0  0  0  0
   35.1986   30.0056   49.7101 C   0  0  0  0  0  0  0  0  0  0  0  0
   36.0636   29.7500   50.7339 N   0  0  0  0  0  0  0  0  0  0  0  0
   37.4432   31.1376   47.0492 N   0  0  0  0  0  0  0  0  0  0  0  0
   36.7965   30.8050   45.8968 C   0  0  0  0  0  0  0  0  0  0  0  0
   37.2325   31.2702   44.6629 C   0  0  0  0  0  0  0  0  0  0  0  0
   38.3642   32.0969   44.6359 C   0  0  0  0  0  0  0  0  0  0  0  0
   38.7945   32.5407   43.5406 O   0  0  0  0  0  0  0  0  0  0  0  0
   39.0012   32.4217   45.7950 N   0  0  0  0  0  0  0  0  0  0  0  0
   38.4969   31.9186   46.9345 C   0  0  0  0  0  0  0  0  0  0  0  0
   39.1131   32.2452   47.9710 O   0  0  0  0  0  0  0  0  0  0  0  0
   40.1746   33.2737   45.7748 C   0  0  0  0  0  0  0  0  0  0  0  0
   40.0412   34.2236   44.8032 F   0  0  0  0  0  0  0  0  0  0  0  0
   41.3364   32.5905   45.5099 F   0  0  0  0  0  0  0  0  0  0  0  0
   40.2671   33.9433   47.0005 F   0  0  0  0  0  0  0  0  0  0  0  0
   38.0375   29.7227   51.4157 H   0  0  0  0  0  0  0  0  0  0  0  0
   38.9167   30.4983   49.3356 H   0  0  0  0  0  0  0  0  0  0  0  0
   34.1228   29.8623   49.8090 H   0  0  0  0  0  0  0  0  0  0  0  0
   35.9245   30.1653   45.9392 H   0  0  0  0  0  0  0  0  0  0  0  0
   36.5107   30.8978   43.4226 C   0  0  0  0  0  0  0  0  0  0  0  0
   35.0111   30.9967   43.6050 C   0  0  0  0  0  0  0  0  0  0  0  0
   34.5535   31.1364   42.6275 H   0  0  0  0  0  0  0  0  0  0  0  0
   36.7967   29.8954   43.1027 H   0  0  0  0  0  0  0  0  0  0  0  0
   36.7905   31.6204   42.6135 H   0  0  0  0  0  0  0  0  0  0  0  0
   34.6170   30.0749   44.0797 H   0  0  0  0  0  0  0  0  0  0  0  0
   34.8292   31.8726   44.2399 H   0  0  0  0  0  0  0  0  0  0  0  0
  1  6  2  0
  2  1  1  0
  3  4  1  0
  3  2  2  0
  4  5  2  0
  5  6  1  0
  7  3  1  0
  8  7  1  0
  9  8  2  0
 10  9  1  0
 10 12  1  0
 11 10  2  0
 12 13  1  0
 13  7  1  0
 13 14  2  0
 15 12  1  0
 15 18  1  0
 16 15  1  0
 17 15  1  0
  1 19  1  0
  2 20  1  0
  5 21  1  0
  8 22  1  0
 23 24  1  0
 24 25  1  0
 23 26  1  0
 23 27  1  0
 24 28  1  0
 24 29  1  0
  9 23  1  0
M  ISO  5  19  14  20  14  21  14  22  14  25   8
M  END
>  <DihAtoms>  (1) 
7,8,22,23

>  <DihDeg>  (1) 
103.64985221049693

$$$$
