
 OpenBabel03262520223D

 17 17  0  0  0  0  0  0  0  0999 V2000
   39.7540   23.4360   35.2460 C   0  0  0  0  0  0  0  0  0  0  0  0
   39.4870   23.2730   36.6190 C   0  0  0  0  0  0  0  0  0  0  0  0
   38.5020   24.0580   37.1830 C   0  0  0  0  0  0  0  0  0  0  0  0
   37.8610   24.9390   36.3590 N   0  0  0  0  0  0  0  0  0  0  0  0
   38.1260   25.0850   35.0620 C   0  0  0  0  0  0  0  0  0  0  0  0
   39.0800   24.3150   34.5310 N   0  0  0  0  0  0  0  0  0  0  0  0
   37.4170   26.0680   34.3510 N   0  0  0  0  0  0  0  0  0  0  0  0
   40.4900   22.8940   34.6690 H   0  0  0  0  0  0  0  0  0  0  0  0
   36.4770   25.8500   33.9980 H   0  0  0  0  0  0  0  0  0  0  0  0
   37.9640   26.9740   34.2550 H   0  0  0  0  0  0  0  0  0  0  0  0
   38.1790   23.8830   38.6070 C   0  0  0  0  0  0  0  0  0  0  0  0
   37.5250   24.9510   39.0360 F   0  0  0  0  0  0  0  0  0  0  0  0
   37.4640   22.7310   38.8540 F   0  0  0  0  0  0  0  0  0  0  0  0
   39.3640   23.7860   39.3840 F   0  0  0  0  0  0  0  0  0  0  0  0
   40.3770   22.2480   37.2280 C   0  0  0  0  0  2  0  0  0  0  0  0
   41.8200   22.3610   36.8090 C   0  0  0  0  0  2  0  0  0  0  0  0
   42.1060   21.5550   36.0810 H   0  0  0  0  0  0  0  0  0  0  0  0
  1  2  1  0  0  0  0
  2  3  2  0  0  0  0
  2 15  1  0  0  0  0
  3 11  1  0  0  0  0
  4  3  1  0  0  0  0
  5  4  2  0  0  0  0
  6  5  1  0  0  0  0
  6  1  2  0  0  0  0
  7  5  1  0  0  0  0
  8  1  1  0  0  0  0
  9  7  1  0  0  0  0
 10  7  1  0  0  0  0
 11 13  1  0  0  0  0
 11 12  1  0  0  0  0
 11 14  1  0  0  0  0
 16 15  1  0  0  0  0
 17 16  1  0  0  0  0
M  END
>  <minimizedAffinity>
-4.36196423

$$$$

 OpenBabel03262520223D

 17 17  0  0  0  0  0  0  0  0999 V2000
   38.1820   24.4220   34.6390 C   0  0  0  0  0  0  0  0  0  0  0  0
   38.2680   23.7390   35.8680 C   0  0  0  0  0  0  0  0  0  0  0  0
   38.2560   24.4890   37.0260 C   0  0  0  0  0  0  0  0  0  0  0  0
   38.1660   25.8460   36.8870 N   0  0  0  0  0  0  0  0  0  0  0  0
   38.0900   26.4790   35.7180 C   0  0  0  0  0  0  0  0  0  0  0  0
   38.0980   25.7380   34.6070 N   0  0  0  0  0  0  0  0  0  0  0  0
   38.0500   27.8840   35.7310 N   0  0  0  0  0  0  0  0  0  0  0  0
   38.1770   23.9720   33.6570 H   0  0  0  0  0  0  0  0  0  0  0  0
   37.1530   28.3580   35.8950 H   0  0  0  0  0  0  0  0  0  0  0  0
   39.0050   28.3190   35.5610 H   0  0  0  0  0  0  0  0  0  0  0  0
   38.3080   23.7990   38.3240 C   0  0  0  0  0  0  0  0  0  0  0  0
   38.3060   24.7010   39.2930 F   0  0  0  0  0  0  0  0  0  0  0  0
   37.2840   22.8920   38.4870 F   0  0  0  0  0  0  0  0  0  0  0  0
   39.5140   23.0600   38.4530 F   0  0  0  0  0  0  0  0  0  0  0  0
   38.3760   22.2700   35.6660 C   0  0  0  0  0  2  0  0  0  0  0  0
   37.0570   21.5850   35.4150 C   0  0  0  0  0  2  0  0  0  0  0  0
   36.7150   21.0030   36.3120 H   0  0  0  0  0  0  0  0  0  0  0  0
  1  2  1  0  0  0  0
  2  3  2  0  0  0  0
  3 11  1  0  0  0  0
  4  3  1  0  0  0  0
  5  7  1  0  0  0  0
  5  4  2  0  0  0  0
  6  1  2  0  0  0  0
  6  5  1  0  0  0  0
  7  9  1  0  0  0  0
  8  1  1  0  0  0  0
 10  7  1  0  0  0  0
 11 14  1  0  0  0  0
 11 13  1  0  0  0  0
 11 12  1  0  0  0  0
 15  2  1  0  0  0  0
 16 15  1  0  0  0  0
 16 17  1  0  0  0  0
M  END
>  <minimizedAffinity>
-4.31599903

$$$$

 OpenBabel03262520223D

 17 17  0  0  0  0  0  0  0  0999 V2000
   40.8310   23.4370   35.3630 C   0  0  0  0  0  0  0  0  0  0  0  0
   39.6440   23.8830   35.9770 C   0  0  0  0  0  0  0  0  0  0  0  0
   39.2720   23.2920   37.1680 C   0  0  0  0  0  0  0  0  0  0  0  0
   40.0890   22.3120   37.6580 N   0  0  0  0  0  0  0  0  0  0  0  0
   41.2080   21.8980   37.0650 C   0  0  0  0  0  0  0  0  0  0  0  0
   41.5550   22.4830   35.9150 N   0  0  0  0  0  0  0  0  0  0  0  0
   41.9210   20.8470   37.6640 N   0  0  0  0  0  0  0  0  0  0  0  0
   41.2480   23.8040   34.4370 H   0  0  0  0  0  0  0  0  0  0  0  0
   42.5670   21.0560   38.4360 H   0  0  0  0  0  0  0  0  0  0  0  0
   41.6990   19.9040   37.2260 H   0  0  0  0  0  0  0  0  0  0  0  0
   38.0560   23.7630   37.8490 C   0  0  0  0  0  0  0  0  0  0  0  0
   37.8130   22.9800   38.8880 F   0  0  0  0  0  0  0  0  0  0  0  0
   38.1360   25.0840   38.2300 F   0  0  0  0  0  0  0  0  0  0  0  0
   36.9290   23.6670   36.9890 F   0  0  0  0  0  0  0  0  0  0  0  0
   38.9810   24.9430   35.1730 C   0  0  0  0  0  2  0  0  0  0  0  0
   39.7020   26.2660   35.1880 C   0  0  0  0  0  2  0  0  0  0  0  0
   39.1730   27.0210   35.8280 H   0  0  0  0  0  0  0  0  0  0  0  0
  1  6  2  0  0  0  0
  1  2  1  0  0  0  0
  2  3  2  0  0  0  0
  3  4  1  0  0  0  0
  3 11  1  0  0  0  0
  5  4  2  0  0  0  0
  5  7  1  0  0  0  0
  6  5  1  0  0  0  0
  7  9  1  0  0  0  0
  8  1  1  0  0  0  0
 10  7  1  0  0  0  0
 11 13  1  0  0  0  0
 11 12  1  0  0  0  0
 14 11  1  0  0  0  0
 15 16  1  0  0  0  0
 15  2  1  0  0  0  0
 16 17  1  0  0  0  0
M  END
>  <minimizedAffinity>
-4.25753164

$$$$

 OpenBabel03262520223D

 17 17  0  0  0  0  0  0  0  0999 V2000
   38.1620   23.1930   34.9100 C   0  0  0  0  0  0  0  0  0  0  0  0
   38.2980   24.5930   34.8290 C   0  0  0  0  0  0  0  0  0  0  0  0
   38.2260   25.3180   36.0020 C   0  0  0  0  0  0  0  0  0  0  0  0
   38.0230   24.6140   37.1560 N   0  0  0  0  0  0  0  0  0  0  0  0
   37.8930   23.2900   37.2170 C   0  0  0  0  0  0  0  0  0  0  0  0
   37.9690   22.6030   36.0730 N   0  0  0  0  0  0  0  0  0  0  0  0
   37.6400   22.7100   38.4720 N   0  0  0  0  0  0  0  0  0  0  0  0
   38.1990   22.4990   34.0830 H   0  0  0  0  0  0  0  0  0  0  0  0
   38.4280   22.5280   39.1070 H   0  0  0  0  0  0  0  0  0  0  0  0
   36.6070   22.5150   38.6290 H   0  0  0  0  0  0  0  0  0  0  0  0
   38.4000   26.7770   35.9500 C   0  0  0  0  0  0  0  0  0  0  0  0
   38.2890   27.2680   37.1740 F   0  0  0  0  0  0  0  0  0  0  0  0
   39.5920   27.1520   35.3710 F   0  0  0  0  0  0  0  0  0  0  0  0
   37.3760   27.3790   35.1720 F   0  0  0  0  0  0  0  0  0  0  0  0
   38.4850   25.0410   33.4240 C   0  0  0  0  0  2  0  0  0  0  0  0
   37.1990   25.1880   32.6500 C   0  0  0  0  0  2  0  0  0  0  0  0
   37.0610   24.3530   31.9130 H   0  0  0  0  0  0  0  0  0  0  0  0
  1  6  1  0  0  0  0
  2  1  2  0  0  0  0
  2  3  1  0  0  0  0
  3  4  2  0  0  0  0
  4  5  1  0  0  0  0
  5  7  1  0  0  0  0
  6  5  2  0  0  0  0
  7 10  1  0  0  0  0
  7  9  1  0  0  0  0
  8  1  1  0  0  0  0
 11  3  1  0  0  0  0
 11 12  1  0  0  0  0
 13 11  1  0  0  0  0
 14 11  1  0  0  0  0
 15  2  1  0  0  0  0
 16 15  1  0  0  0  0
 17 16  1  0  0  0  0
M  END
>  <minimizedAffinity>
-4.18269491

$$$$

 OpenBabel03262520223D

 17 17  0  0  0  0  0  0  0  0999 V2000
   38.3350   24.1870   37.3500 C   0  0  0  0  0  0  0  0  0  0  0  0
   38.6930   24.6600   36.0720 C   0  0  0  0  0  0  0  0  0  0  0  0
   39.7450   24.0420   35.4270 C   0  0  0  0  0  0  0  0  0  0  0  0
   40.3620   23.0160   36.0850 N   0  0  0  0  0  0  0  0  0  0  0  0
   40.0150   22.5820   37.2950 C   0  0  0  0  0  0  0  0  0  0  0  0
   38.9920   23.1880   37.9050 N   0  0  0  0  0  0  0  0  0  0  0  0
   40.7750   21.5470   37.8660 N   0  0  0  0  0  0  0  0  0  0  0  0
   37.5370   24.5670   37.9710 H   0  0  0  0  0  0  0  0  0  0  0  0
   40.5720   20.5740   37.6050 H   0  0  0  0  0  0  0  0  0  0  0  0
   41.5130   21.9090   38.5400 H   0  0  0  0  0  0  0  0  0  0  0  0
   40.1170   24.4920   34.0760 C   0  0  0  0  0  0  0  0  0  0  0  0
   41.0270   23.6680   33.5820 F   0  0  0  0  0  0  0  0  0  0  0  0
   39.0330   24.6000   33.2330 F   0  0  0  0  0  0  0  0  0  0  0  0
   40.7110   25.7820   34.1220 F   0  0  0  0  0  0  0  0  0  0  0  0
   37.8360   25.8010   35.6550 C   0  0  0  0  0  2  0  0  0  0  0  0
   38.3770   27.1520   36.0480 C   0  0  0  0  0  2  0  0  0  0  0  0
   37.8050   27.5940   36.9070 H   0  0  0  0  0  0  0  0  0  0  0  0
  1  6  1  0  0  0  0
  1  8  1  0  0  0  0
  2  1  2  0  0  0  0
  3  2  1  0  0  0  0
  3  4  2  0  0  0  0
  4  5  1  0  0  0  0
  5  7  1  0  0  0  0
  5  6  2  0  0  0  0
  7 10  1  0  0  0  0
  9  7  1  0  0  0  0
 11 14  1  0  0  0  0
 11  3  1  0  0  0  0
 12 11  1  0  0  0  0
 13 11  1  0  0  0  0
 15 16  1  0  0  0  0
 15  2  1  0  0  0  0
 16 17  1  0  0  0  0
M  END
>  <minimizedAffinity>
-4.00246239

$$$$

 OpenBabel03262520223D

 17 17  0  0  0  0  0  0  0  0999 V2000
   38.3400   22.7180   34.3300 C   0  0  0  0  0  0  0  0  0  0  0  0
   38.6300   23.2920   35.5830 C   0  0  0  0  0  0  0  0  0  0  0  0
   37.8680   22.8990   36.6650 C   0  0  0  0  0  0  0  0  0  0  0  0
   36.8850   21.9800   36.4320 N   0  0  0  0  0  0  0  0  0  0  0  0
   36.6190   21.4480   35.2400 C   0  0  0  0  0  0  0  0  0  0  0  0
   37.3690   21.8360   34.2040 N   0  0  0  0  0  0  0  0  0  0  0  0
   35.5440   20.5490   35.1450 N   0  0  0  0  0  0  0  0  0  0  0  0
   38.8490   22.9250   33.4000 H   0  0  0  0  0  0  0  0  0  0  0  0
   35.6890   19.5650   35.4030 H   0  0  0  0  0  0  0  0  0  0  0  0
   34.6540   21.0150   34.7970 H   0  0  0  0  0  0  0  0  0  0  0  0
   38.1730   23.4560   37.9920 C   0  0  0  0  0  0  0  0  0  0  0  0
   38.0760   24.7750   37.9390 F   0  0  0  0  0  0  0  0  0  0  0  0
   37.3700   22.9390   38.9850 F   0  0  0  0  0  0  0  0  0  0  0  0
   39.5090   23.1570   38.3690 F   0  0  0  0  0  0  0  0  0  0  0  0
   39.7440   24.2720   35.4880 C   0  0  0  0  0  2  0  0  0  0  0  0
   41.1150   23.6450   35.4730 C   0  0  0  0  0  2  0  0  0  0  0  0
   41.6460   23.7860   36.4510 H   0  0  0  0  0  0  0  0  0  0  0  0
  1  2  1  0  0  0  0
  2  3  2  0  0  0  0
  3 11  1  0  0  0  0
  4  3  1  0  0  0  0
  5  4  2  0  0  0  0
  6  1  2  0  0  0  0
  6  5  1  0  0  0  0
  7  5  1  0  0  0  0
  7  9  1  0  0  0  0
  8  1  1  0  0  0  0
 10  7  1  0  0  0  0
 11 14  1  0  0  0  0
 11 13  1  0  0  0  0
 12 11  1  0  0  0  0
 15  2  1  0  0  0  0
 16 15  1  0  0  0  0
 16 17  1  0  0  0  0
M  END
>  <minimizedAffinity>
-3.99446416

$$$$

 OpenBabel03262520223D

 17 17  0  0  0  0  0  0  0  0999 V2000
   40.8750   24.3750   34.7910 C   0  0  0  0  0  0  0  0  0  0  0  0
   39.6680   24.8630   35.3310 C   0  0  0  0  0  0  0  0  0  0  0  0
   39.4720   26.2290   35.3420 C   0  0  0  0  0  0  0  0  0  0  0  0
   40.4720   27.0050   34.8280 N   0  0  0  0  0  0  0  0  0  0  0  0
   41.6090   26.5310   34.3240 C   0  0  0  0  0  0  0  0  0  0  0  0
   41.7820   25.2060   34.3170 N   0  0  0  0  0  0  0  0  0  0  0  0
   42.5670   27.4550   33.8740 N   0  0  0  0  0  0  0  0  0  0  0  0
   41.1660   23.3380   34.7130 H   0  0  0  0  0  0  0  0  0  0  0  0
   42.4730   27.8560   32.9330 H   0  0  0  0  0  0  0  0  0  0  0  0
   43.3210   27.6440   34.5990 H   0  0  0  0  0  0  0  0  0  0  0  0
   38.2060   26.7630   35.8670 C   0  0  0  0  0  0  0  0  0  0  0  0
   38.1370   28.0560   35.5930 F   0  0  0  0  0  0  0  0  0  0  0  0
   37.1030   26.0930   35.3840 F   0  0  0  0  0  0  0  0  0  0  0  0
   38.1550   26.6390   37.2810 F   0  0  0  0  0  0  0  0  0  0  0  0
   38.8070   23.7560   35.8240 C   0  0  0  0  0  2  0  0  0  0  0  0
   39.1250   23.3090   37.2280 C   0  0  0  0  0  2  0  0  0  0  0  0
   39.6600   22.3230   37.2390 H   0  0  0  0  0  0  0  0  0  0  0  0
  1  2  1  0  0  0  0
  2  3  2  0  0  0  0
  2 15  1  0  0  0  0
  3 11  1  0  0  0  0
  4  3  1  0  0  0  0
  5  4  2  0  0  0  0
  6  5  1  0  0  0  0
  6  1  2  0  0  0  0
  7  5  1  0  0  0  0
  7 10  1  0  0  0  0
  8  1  1  0  0  0  0
  9  7  1  0  0  0  0
 11 14  1  0  0  0  0
 12 11  1  0  0  0  0
 13 11  1  0  0  0  0
 15 16  1  0  0  0  0
 16 17  1  0  0  0  0
M  END
>  <minimizedAffinity>
-3.91363502

$$$$

 OpenBabel03262520223D

 17 17  0  0  0  0  0  0  0  0999 V2000
   39.6650   27.1350   32.1500 C   0  0  0  0  0  0  0  0  0  0  0  0
   38.6300   27.1120   33.1060 C   0  0  0  0  0  0  0  0  0  0  0  0
   38.9840   27.1310   34.4400 C   0  0  0  0  0  0  0  0  0  0  0  0
   40.3190   27.1680   34.7280 N   0  0  0  0  0  0  0  0  0  0  0  0
   41.2870   27.1870   33.8140 C   0  0  0  0  0  0  0  0  0  0  0  0
   40.9280   27.1710   32.5270 N   0  0  0  0  0  0  0  0  0  0  0  0
   42.6190   27.1760   34.2630 N   0  0  0  0  0  0  0  0  0  0  0  0
   39.5430   27.1270   31.0760 H   0  0  0  0  0  0  0  0  0  0  0  0
   43.0570   28.0600   34.5500 H   0  0  0  0  0  0  0  0  0  0  0  0
   43.0430   26.2020   34.2530 H   0  0  0  0  0  0  0  0  0  0  0  0
   37.9240   27.1430   35.4590 C   0  0  0  0  0  0  0  0  0  0  0  0
   37.2930   28.3060   35.4110 F   0  0  0  0  0  0  0  0  0  0  0  0
   37.0420   26.0940   35.3240 F   0  0  0  0  0  0  0  0  0  0  0  0
   38.4770   27.0290   36.7620 F   0  0  0  0  0  0  0  0  0  0  0  0
   37.2930   27.0500   32.4590 C   0  0  0  0  0  2  0  0  0  0  0  0
   36.7310   28.3960   32.0800 C   0  0  0  0  0  2  0  0  0  0  0  0
   35.9050   28.7110   32.7720 H   0  0  0  0  0  0  0  0  0  0  0  0
  1  6  2  0  0  0  0
  1  2  1  0  0  0  0
  2  3  2  0  0  0  0
  3  4  1  0  0  0  0
  3 11  1  0  0  0  0
  5  7  1  0  0  0  0
  5  4  2  0  0  0  0
  6  5  1  0  0  0  0
  7  9  1  0  0  0  0
  8  1  1  0  0  0  0
 10  7  1  0  0  0  0
 11 14  1  0  0  0  0
 12 11  1  0  0  0  0
 13 11  1  0  0  0  0
 15  2  1  0  0  0  0
 16 15  1  0  0  0  0
 16 17  1  0  0  0  0
M  END
>  <minimizedAffinity>
-3.89246917

$$$$

 OpenBabel03262520223D

 17 17  0  0  0  0  0  0  0  0999 V2000
   37.9200   24.1290   33.3470 C   0  0  0  0  0  0  0  0  0  0  0  0
   38.0020   25.4200   33.9060 C   0  0  0  0  0  0  0  0  0  0  0  0
   38.1220   25.5230   35.2770 C   0  0  0  0  0  0  0  0  0  0  0  0
   38.1470   24.3560   35.9890 N   0  0  0  0  0  0  0  0  0  0  0  0
   38.0650   23.1420   35.4470 C   0  0  0  0  0  0  0  0  0  0  0  0
   37.9540   23.0600   34.1180 N   0  0  0  0  0  0  0  0  0  0  0  0
   38.0570   22.0340   36.3120 N   0  0  0  0  0  0  0  0  0  0  0  0
   37.8270   23.8930   32.2970 H   0  0  0  0  0  0  0  0  0  0  0  0
   38.9500   21.6700   36.6670 H   0  0  0  0  0  0  0  0  0  0  0  0
   37.0740   21.6810   36.5100 H   0  0  0  0  0  0  0  0  0  0  0  0
   38.2450   26.8570   35.8840 C   0  0  0  0  0  0  0  0  0  0  0  0
   37.2780   27.6320   35.4220 F   0  0  0  0  0  0  0  0  0  0  0  0
   38.2370   26.8190   37.2610 F   0  0  0  0  0  0  0  0  0  0  0  0
   39.4730   27.4660   35.5140 F   0  0  0  0  0  0  0  0  0  0  0  0
   37.9220   26.4720   32.8590 C   0  0  0  0  0  2  0  0  0  0  0  0
   39.2480   26.8110   32.2270 C   0  0  0  0  0  2  0  0  0  0  0  0
   39.6370   27.8020   32.5840 H   0  0  0  0  0  0  0  0  0  0  0  0
  1  2  2  0  0  0  0
  1  6  1  0  0  0  0
  2  3  1  0  0  0  0
  3 11  1  0  0  0  0
  3  4  2  0  0  0  0
  5  4  1  0  0  0  0
  5  7  1  0  0  0  0
  6  5  2  0  0  0  0
  7 10  1  0  0  0  0
  7  9  1  0  0  0  0
  8  1  1  0  0  0  0
 11 13  1  0  0  0  0
 12 11  1  0  0  0  0
 14 11  1  0  0  0  0
 15  2  1  0  0  0  0
 16 17  1  0  0  0  0
 16 15  1  0  0  0  0
M  END
>  <minimizedAffinity>
-3.88874722

$$$$
