
 OpenBabel03272506213D

 38 40  0  0  1  0  0  0  0  0999 V2000
   38.7090   23.8020   34.2190 C   0  0  0  0  0  0  0  0  0  0  0  0
   38.6470   24.9560   33.4350 C   0  0  0  0  0  0  0  0  0  0  0  0
   37.8900   24.8800   32.2580 C   0  0  0  0  0  0  0  0  0  0  0  0
   37.2530   23.6900   31.9340 N   0  0  0  0  0  0  0  0  0  0  0  0
   37.3480   22.5890   32.7410 C   0  0  0  0  0  0  0  0  0  0  0  0
   38.0630   22.6560   33.8560 N   0  0  0  0  0  0  0  0  0  0  0  0
   37.7650   25.9850   31.3870 N   0  0  0  0  0  0  0  0  0  0  0  0
   38.8540   26.5690   30.7990 C   0  0  0  0  0  0  0  0  0  0  0  0
   38.7180   27.6400   29.9570 C   0  0  0  0  0  0  0  0  0  0  0  0
   37.4550   28.1120   29.7200 C   0  0  0  0  0  0  0  0  0  0  0  0
   37.2950   29.1030   28.9450 O   0  0  0  0  0  0  0  0  0  0  0  0
   36.3770   27.5430   30.2960 N   0  0  0  0  0  0  0  0  0  0  0  0
   36.5670   26.4920   31.1160 C   0  0  0  0  0  0  0  0  0  0  0  0
   35.4880   26.0250   31.6080 O   0  0  0  0  0  0  0  0  0  0  0  0
   39.1030   25.9010   33.6170 H   0  0  0  0  0  0  0  0  0  0  0  0
   36.8240   21.6980   32.4220 H   0  0  0  0  0  0  0  0  0  0  0  0
   39.8280   26.1340   31.0390 H   0  0  0  0  0  0  0  0  0  0  0  0
   39.6020   28.0740   29.5110 H   0  0  0  0  0  0  0  0  0  0  0  0
   35.4280   27.9370   30.0860 H   0  0  0  0  0  0  0  0  0  0  0  0
   39.5180   23.9150   35.4770 C   0  0  2  0  0  0  0  0  0  0  0  0
   40.9120   23.3540   35.2050 C   0  0  0  0  0  0  0  0  0  0  0  0
   41.1860   22.0800   35.9210 C   0  0  0  0  0  0  0  0  0  0  0  0
   40.9290   22.1640   37.4040 C   0  0  0  0  0  0  0  0  0  0  0  0
   39.6580   22.8830   37.7470 C   0  0  0  0  0  0  0  0  0  0  0  0
   38.7990   23.2000   36.5470 C   0  0  1  0  0  0  0  0  0  0  0  0
   39.6310   24.9910   35.7210 H   0  0  0  0  0  0  0  0  0  0  0  0
   41.6810   24.1130   35.4350 H   0  0  0  0  0  0  0  0  0  0  0  0
   41.0180   23.1530   34.1150 H   0  0  0  0  0  0  0  0  0  0  0  0
   42.2380   21.8190   35.7470 H   0  0  0  0  0  0  0  0  0  0  0  0
   40.5180   21.3070   35.5040 H   0  0  0  0  0  0  0  0  0  0  0  0
   41.7710   22.7110   37.9180 H   0  0  0  0  0  0  0  0  0  0  0  0
   40.9820   21.1250   37.7950 H   0  0  0  0  0  0  0  0  0  0  0  0
   39.0740   22.1900   38.3900 H   0  0  0  0  0  0  0  0  0  0  0  0
   39.8220   23.7960   38.3570 H   0  0  0  0  0  0  0  0  0  0  0  0
   38.2960   22.3090   36.1570 H   0  0  0  0  0  0  0  0  0  0  0  0
   37.7080   24.1510   37.0600 C   0  0  0  0  0  2  0  0  0  0  0  0
   37.8800   24.5110   38.4990 C   0  0  0  0  0  2  0  0  0  0  0  0
   38.1550   25.6030   38.5660 H   0  0  0  0  0  0  0  0  0  0  0  0
  1 20  1  0  0  0  0
  2 15  1  0  0  0  0
  2  1  2  0  0  0  0
  3  2  1  0  0  0  0
  4  3  2  0  0  0  0
  4  5  1  0  0  0  0
  5  6  2  0  0  0  0
  6  1  1  0  0  0  0
  7  3  1  0  0  0  0
  8 17  1  0  0  0  0
  8  7  1  0  0  0  0
  9  8  2  0  0  0  0
 10  9  1  0  0  0  0
 10 12  1  0  0  0  0
 11 10  2  0  0  0  0
 12 13  1  0  0  0  0
 13  7  1  0  0  0  0
 13 14  2  0  0  0  0
 16  5  1  0  0  0  0
 18  9  1  0  0  0  0
 19 12  1  0  0  0  0
 20 26  1  1  0  0  0
 20 25  1  0  0  0  0
 21 27  1  0  0  0  0
 21 20  1  0  0  0  0
 21 22  1  0  0  0  0
 22 23  1  0  0  0  0
 23 24  1  0  0  0  0
 23 32  1  0  0  0  0
 23 31  1  0  0  0  0
 24 34  1  0  0  0  0
 24 33  1  0  0  0  0
 25 35  1  6  0  0  0
 25 36  1  0  0  0  0
 25 24  1  0  0  0  0
 28 21  1  0  0  0  0
 29 22  1  0  0  0  0
 30 22  1  0  0  0  0
 36 37  1  0  0  0  0
 37 38  1  0  0  0  0
M  END
>  <minimizedAffinity>
-5.84827566

$$$$

 OpenBabel03272506213D

 38 40  0  0  1  0  0  0  0  0999 V2000
   36.6480   27.7300   33.2170 C   0  0  0  0  0  0  0  0  0  0  0  0
   36.3000   28.5940   34.2570 C   0  0  0  0  0  0  0  0  0  0  0  0
   35.2910   29.5280   33.9900 C   0  0  0  0  0  0  0  0  0  0  0  0
   34.6980   29.5510   32.7350 N   0  0  0  0  0  0  0  0  0  0  0  0
   35.0790   28.6790   31.7520 C   0  0  0  0  0  0  0  0  0  0  0  0
   36.0350   27.7920   31.9990 N   0  0  0  0  0  0  0  0  0  0  0  0
   34.8640   30.4550   34.9680 N   0  0  0  0  0  0  0  0  0  0  0  0
   35.7240   31.3580   35.5320 C   0  0  0  0  0  0  0  0  0  0  0  0
   35.2970   32.2500   36.4790 C   0  0  0  0  0  0  0  0  0  0  0  0
   33.9790   32.2130   36.8460 C   0  0  0  0  0  0  0  0  0  0  0  0
   33.5520   33.0260   37.7210 O   0  0  0  0  0  0  0  0  0  0  0  0
   33.1250   31.3260   36.2950 N   0  0  0  0  0  0  0  0  0  0  0  0
   33.5970   30.4710   35.3680 C   0  0  0  0  0  0  0  0  0  0  0  0
   32.7140   29.6760   34.9090 O   0  0  0  0  0  0  0  0  0  0  0  0
   36.7050   28.6360   35.2410 H   0  0  0  0  0  0  0  0  0  0  0  0
   34.5720   28.7570   30.8000 H   0  0  0  0  0  0  0  0  0  0  0  0
   36.7610   31.3240   35.1860 H   0  0  0  0  0  0  0  0  0  0  0  0
   36.0070   32.9480   36.9020 H   0  0  0  0  0  0  0  0  0  0  0  0
   32.1240   31.3330   36.6060 H   0  0  0  0  0  0  0  0  0  0  0  0
   37.7260   26.7350   33.5320 C   0  0  2  0  0  0  0  0  0  0  0  0
   37.7880   26.5570   35.0470 C   0  0  0  0  0  0  0  0  0  0  0  0
   39.0270   27.1080   35.6560 C   0  0  0  0  0  0  0  0  0  0  0  0
   40.2880   26.5930   35.0100 C   0  0  0  0  0  0  0  0  0  0  0  0
   40.2170   26.5580   33.5120 C   0  0  0  0  0  0  0  0  0  0  0  0
   38.9860   27.2280   32.9490 C   0  0  1  0  0  0  0  0  0  0  0  0
   37.4360   25.7590   33.0920 H   0  0  0  0  0  0  0  0  0  0  0  0
   37.6540   25.4930   35.3140 H   0  0  0  0  0  0  0  0  0  0  0  0
   36.9250   27.0850   35.5130 H   0  0  0  0  0  0  0  0  0  0  0  0
   39.0260   26.8370   36.7200 H   0  0  0  0  0  0  0  0  0  0  0  0
   39.0070   28.2050   35.5330 H   0  0  0  0  0  0  0  0  0  0  0  0
   40.5060   25.5420   35.3570 H   0  0  0  0  0  0  0  0  0  0  0  0
   41.1240   27.2050   35.4110 H   0  0  0  0  0  0  0  0  0  0  0  0
   41.0940   27.1340   33.1470 H   0  0  0  0  0  0  0  0  0  0  0  0
   40.3270   25.5370   33.0910 H   0  0  0  0  0  0  0  0  0  0  0  0
   39.0500   28.3200   33.0120 H   0  0  0  0  0  0  0  0  0  0  0  0
   38.9600   26.8580   31.4590 C   0  0  0  0  0  2  0  0  0  0  0  0
   38.8160   25.3900   31.2270 C   0  0  0  0  0  2  0  0  0  0  0  0
   37.8000   25.1960   30.7750 H   0  0  0  0  0  0  0  0  0  0  0  0
  1 20  1  0  0  0  0
  1  2  1  0  0  0  0
  2 15  1  0  0  0  0
  3  2  2  0  0  0  0
  3  7  1  0  0  0  0
  4  3  1  0  0  0  0
  5  6  1  0  0  0  0
  5  4  2  0  0  0  0
  6  1  2  0  0  0  0
  7 13  1  0  0  0  0
  7  8  1  0  0  0  0
  8  9  2  0  0  0  0
  9 10  1  0  0  0  0
  9 18  1  0  0  0  0
 10 11  2  0  0  0  0
 12 19  1  0  0  0  0
 12 10  1  0  0  0  0
 13 12  1  0  0  0  0
 14 13  2  0  0  0  0
 16  5  1  0  0  0  0
 17  8  1  0  0  0  0
 20 26  1  6  0  0  0
 20 21  1  0  0  0  0
 21 27  1  0  0  0  0
 21 28  1  0  0  0  0
 21 22  1  0  0  0  0
 22 29  1  0  0  0  0
 23 31  1  0  0  0  0
 23 32  1  0  0  0  0
 23 22  1  0  0  0  0
 24 23  1  0  0  0  0
 25 35  1  1  0  0  0
 25 24  1  0  0  0  0
 25 20  1  0  0  0  0
 30 22  1  0  0  0  0
 33 24  1  0  0  0  0
 34 24  1  0  0  0  0
 36 25  1  0  0  0  0
 37 36  1  0  0  0  0
 38 37  1  0  0  0  0
M  END
>  <minimizedAffinity>
-5.76271486

$$$$

 OpenBabel03272506213D

 38 40  0  0  1  0  0  0  0  0999 V2000
   38.6450   22.3790   34.2980 C   0  0  0  0  0  0  0  0  0  0  0  0
   38.1610   23.6330   33.9200 C   0  0  0  0  0  0  0  0  0  0  0  0
   38.0880   23.8930   32.5450 C   0  0  0  0  0  0  0  0  0  0  0  0
   38.4920   22.9160   31.6450 N   0  0  0  0  0  0  0  0  0  0  0  0
   38.9580   21.7030   32.0730 C   0  0  0  0  0  0  0  0  0  0  0  0
   39.0290   21.4520   33.3730 N   0  0  0  0  0  0  0  0  0  0  0  0
   37.6200   25.1310   32.0500 N   0  0  0  0  0  0  0  0  0  0  0  0
   38.2280   26.3140   32.3700 C   0  0  0  0  0  0  0  0  0  0  0  0
   37.7640   27.5070   31.8840 C   0  0  0  0  0  0  0  0  0  0  0  0
   36.6670   27.4810   31.0650 C   0  0  0  0  0  0  0  0  0  0  0  0
   36.2110   28.5690   30.5990 O   0  0  0  0  0  0  0  0  0  0  0  0
   36.0610   26.3200   30.7460 N   0  0  0  0  0  0  0  0  0  0  0  0
   36.5590   25.1750   31.2510 C   0  0  0  0  0  0  0  0  0  0  0  0
   35.9180   24.1350   30.8900 O   0  0  0  0  0  0  0  0  0  0  0  0
   37.8320   24.4280   34.5470 H   0  0  0  0  0  0  0  0  0  0  0  0
   39.2540   20.9930   31.3120 H   0  0  0  0  0  0  0  0  0  0  0  0
   39.0990   26.2510   33.0290 H   0  0  0  0  0  0  0  0  0  0  0  0
   38.2710   28.4210   32.1580 H   0  0  0  0  0  0  0  0  0  0  0  0
   35.2230   26.3460   30.1160 H   0  0  0  0  0  0  0  0  0  0  0  0
   38.7040   22.1250   35.7750 C   0  0  2  0  0  0  0  0  0  0  0  0
   37.3540   22.4980   36.3830 C   0  0  0  0  0  0  0  0  0  0  0  0
   37.4100   23.7040   37.2510 C   0  0  0  0  0  0  0  0  0  0  0  0
   38.4680   23.6170   38.3220 C   0  0  0  0  0  0  0  0  0  0  0  0
   39.7730   23.0680   37.8260 C   0  0  0  0  0  0  0  0  0  0  0  0
   39.8290   22.9020   36.3270 C   0  0  1  0  0  0  0  0  0  0  0  0
   38.8530   21.0370   35.9340 H   0  0  0  0  0  0  0  0  0  0  0  0
   36.9270   21.6370   36.9270 H   0  0  0  0  0  0  0  0  0  0  0  0
   36.6310   22.7120   35.5630 H   0  0  0  0  0  0  0  0  0  0  0  0
   36.4250   23.8250   37.7200 H   0  0  0  0  0  0  0  0  0  0  0  0
   37.6470   24.5720   36.6100 H   0  0  0  0  0  0  0  0  0  0  0  0
   38.1220   22.9480   39.1620 H   0  0  0  0  0  0  0  0  0  0  0  0
   38.5450   24.6290   38.7760 H   0  0  0  0  0  0  0  0  0  0  0  0
   40.5470   23.8160   38.0990 H   0  0  0  0  0  0  0  0  0  0  0  0
   40.0710   22.1250   38.3300 H   0  0  0  0  0  0  0  0  0  0  0  0
   39.9340   23.8630   35.8120 H   0  0  0  0  0  0  0  0  0  0  0  0
   41.1040   22.0940   36.0480 C   0  0  0  0  0  2  0  0  0  0  0  0
   41.6090   21.3700   37.2530 C   0  0  0  0  0  2  0  0  0  0  0  0
   41.4760   20.2610   37.0880 H   0  0  0  0  0  0  0  0  0  0  0  0
  1 20  1  0  0  0  0
  2  1  1  0  0  0  0
  2 15  1  0  0  0  0
  3  2  2  0  0  0  0
  4  5  2  0  0  0  0
  4  3  1  0  0  0  0
  5  6  1  0  0  0  0
  6  1  2  0  0  0  0
  7  8  1  0  0  0  0
  7  3  1  0  0  0  0
  8 17  1  0  0  0  0
  9 18  1  0  0  0  0
  9  8  2  0  0  0  0
 10  9  1  0  0  0  0
 11 10  2  0  0  0  0
 12 10  1  0  0  0  0
 12 13  1  0  0  0  0
 13  7  1  0  0  0  0
 14 13  2  0  0  0  0
 16  5  1  0  0  0  0
 19 12  1  0  0  0  0
 20 26  1  1  0  0  0
 20 25  1  0  0  0  0
 20 21  1  0  0  0  0
 21 27  1  0  0  0  0
 21 22  1  0  0  0  0
 22 29  1  0  0  0  0
 22 23  1  0  0  0  0
 23 32  1  0  0  0  0
 23 31  1  0  0  0  0
 24 33  1  0  0  0  0
 24 23  1  0  0  0  0
 24 34  1  0  0  0  0
 25 35  1  6  0  0  0
 25 24  1  0  0  0  0
 28 21  1  0  0  0  0
 30 22  1  0  0  0  0
 36 25  1  0  0  0  0
 36 37  1  0  0  0  0
 38 37  1  0  0  0  0
M  END
>  <minimizedAffinity>
-5.72565651

$$$$

 OpenBabel03272506213D

 38 40  0  0  1  0  0  0  0  0999 V2000
   38.9300   24.9950   34.8830 C   0  0  0  0  0  0  0  0  0  0  0  0
   37.8090   25.7810   34.6110 C   0  0  0  0  0  0  0  0  0  0  0  0
   37.9880   26.8500   33.7220 C   0  0  0  0  0  0  0  0  0  0  0  0
   39.2400   27.0730   33.1680 N   0  0  0  0  0  0  0  0  0  0  0  0
   40.3050   26.2690   33.4700 C   0  0  0  0  0  0  0  0  0  0  0  0
   40.1420   25.2560   34.3110 N   0  0  0  0  0  0  0  0  0  0  0  0
   36.9220   27.7140   33.3820 N   0  0  0  0  0  0  0  0  0  0  0  0
   36.2540   28.4460   34.3250 C   0  0  0  0  0  0  0  0  0  0  0  0
   35.2240   29.2780   33.9810 C   0  0  0  0  0  0  0  0  0  0  0  0
   34.8790   29.3580   32.6580 C   0  0  0  0  0  0  0  0  0  0  0  0
   33.9290   30.1200   32.3060 O   0  0  0  0  0  0  0  0  0  0  0  0
   35.5320   28.6400   31.7220 N   0  0  0  0  0  0  0  0  0  0  0  0
   36.5380   27.8370   32.1150 C   0  0  0  0  0  0  0  0  0  0  0  0
   37.0910   27.2030   31.1580 O   0  0  0  0  0  0  0  0  0  0  0  0
   36.8210   25.6730   34.9930 H   0  0  0  0  0  0  0  0  0  0  0  0
   41.2500   26.5050   32.9990 H   0  0  0  0  0  0  0  0  0  0  0  0
   36.5890   28.3270   35.3600 H   0  0  0  0  0  0  0  0  0  0  0  0
   34.7200   29.8410   34.7550 H   0  0  0  0  0  0  0  0  0  0  0  0
   35.2350   28.7320   30.7210 H   0  0  0  0  0  0  0  0  0  0  0  0
   38.7080   23.8540   35.8300 C   0  0  2  0  0  0  0  0  0  0  0  0
   37.5940   24.2410   36.7990 C   0  0  0  0  0  0  0  0  0  0  0  0
   38.0690   24.4480   38.1930 C   0  0  0  0  0  0  0  0  0  0  0  0
   38.8580   23.2810   38.7310 C   0  0  0  0  0  0  0  0  0  0  0  0
   39.8440   22.7250   37.7470 C   0  0  0  0  0  0  0  0  0  0  0  0
   39.9890   23.5600   36.4980 C   0  0  1  0  0  0  0  0  0  0  0  0
   38.3540   22.9810   35.2440 H   0  0  0  0  0  0  0  0  0  0  0  0
   36.7800   23.4960   36.7630 H   0  0  0  0  0  0  0  0  0  0  0  0
   37.1310   25.1960   36.4610 H   0  0  0  0  0  0  0  0  0  0  0  0
   37.1880   24.6150   38.8250 H   0  0  0  0  0  0  0  0  0  0  0  0
   38.7280   25.3340   38.1990 H   0  0  0  0  0  0  0  0  0  0  0  0
   38.1660   22.4390   39.0220 H   0  0  0  0  0  0  0  0  0  0  0  0
   39.3140   23.6200   39.6870 H   0  0  0  0  0  0  0  0  0  0  0  0
   40.8300   22.7310   38.2580 H   0  0  0  0  0  0  0  0  0  0  0  0
   39.6470   21.6650   37.4810 H   0  0  0  0  0  0  0  0  0  0  0  0
   40.5560   24.4790   36.6840 H   0  0  0  0  0  0  0  0  0  0  0  0
   40.8120   22.7060   35.5230 C   0  0  0  0  0  2  0  0  0  0  0  0
   41.8120   21.8380   36.2120 C   0  0  0  0  0  2  0  0  0  0  0  0
   41.4940   20.7610   36.0950 H   0  0  0  0  0  0  0  0  0  0  0  0
  1 20  1  0  0  0  0
  2  1  1  0  0  0  0
  2 15  1  0  0  0  0
  3  2  2  0  0  0  0
  4  5  2  0  0  0  0
  4  3  1  0  0  0  0
  5  6  1  0  0  0  0
  6  1  2  0  0  0  0
  7  3  1  0  0  0  0
  7  8  1  0  0  0  0
  8 17  1  0  0  0  0
  9  8  2  0  0  0  0
  9 18  1  0  0  0  0
 10  9  1  0  0  0  0
 11 10  2  0  0  0  0
 12 13  1  0  0  0  0
 12 10  1  0  0  0  0
 13  7  1  0  0  0  0
 14 13  2  0  0  0  0
 16  5  1  0  0  0  0
 19 12  1  0  0  0  0
 20 26  1  6  0  0  0
 20 25  1  0  0  0  0
 20 21  1  0  0  0  0
 21 22  1  0  0  0  0
 22 30  1  0  0  0  0
 22 23  1  0  0  0  0
 22 29  1  0  0  0  0
 23 31  1  0  0  0  0
 23 32  1  0  0  0  0
 24 33  1  0  0  0  0
 24 23  1  0  0  0  0
 25 35  1  1  0  0  0
 25 24  1  0  0  0  0
 27 21  1  0  0  0  0
 28 21  1  0  0  0  0
 34 24  1  0  0  0  0
 36 37  1  0  0  0  0
 36 25  1  0  0  0  0
 38 37  1  0  0  0  0
M  END
>  <minimizedAffinity>
-5.64668083

$$$$

 OpenBabel03272506213D

 38 40  0  0  1  0  0  0  0  0999 V2000
   38.2210   26.4220   33.3510 C   0  0  0  0  0  0  0  0  0  0  0  0
   38.8990   25.3170   33.8700 C   0  0  0  0  0  0  0  0  0  0  0  0
   39.0350   25.2570   35.2640 C   0  0  0  0  0  0  0  0  0  0  0  0
   38.5020   26.2740   36.0440 N   0  0  0  0  0  0  0  0  0  0  0  0
   37.8460   27.3340   35.4810 C   0  0  0  0  0  0  0  0  0  0  0  0
   37.7150   27.3950   34.1620 N   0  0  0  0  0  0  0  0  0  0  0  0
   39.7090   24.1880   35.8950 N   0  0  0  0  0  0  0  0  0  0  0  0
   41.0200   23.9020   35.6290 C   0  0  0  0  0  0  0  0  0  0  0  0
   41.6610   22.8630   36.2480 C   0  0  0  0  0  0  0  0  0  0  0  0
   40.9480   22.1140   37.1460 C   0  0  0  0  0  0  0  0  0  0  0  0
   41.5120   21.1440   37.7360 O   0  0  0  0  0  0  0  0  0  0  0  0
   39.6560   22.3890   37.4140 N   0  0  0  0  0  0  0  0  0  0  0  0
   39.0740   23.4220   36.7760 C   0  0  0  0  0  0  0  0  0  0  0  0
   37.8540   23.6010   37.0980 O   0  0  0  0  0  0  0  0  0  0  0  0
   39.3310   24.5010   33.3400 H   0  0  0  0  0  0  0  0  0  0  0  0
   37.4580   28.0870   36.1540 H   0  0  0  0  0  0  0  0  0  0  0  0
   41.5210   24.5460   34.9000 H   0  0  0  0  0  0  0  0  0  0  0  0
   42.6980   22.6680   36.0120 H   0  0  0  0  0  0  0  0  0  0  0  0
   39.1470   21.7900   38.1080 H   0  0  0  0  0  0  0  0  0  0  0  0
   38.0830   26.4560   31.8580 C   0  0  2  0  0  0  0  0  0  0  0  0
   39.4780   26.5530   31.2470 C   0  0  0  0  0  0  0  0  0  0  0  0
   39.7480   27.8630   30.5970 C   0  0  0  0  0  0  0  0  0  0  0  0
   38.6990   28.2520   29.5860 C   0  0  0  0  0  0  0  0  0  0  0  0
   37.2970   27.9950   30.0550 C   0  0  0  0  0  0  0  0  0  0  0  0
   37.2090   27.5900   31.5070 C   0  0  1  0  0  0  0  0  0  0  0  0
   37.6400   25.4940   31.5290 H   0  0  0  0  0  0  0  0  0  0  0  0
   39.6480   25.7190   30.5450 H   0  0  0  0  0  0  0  0  0  0  0  0
   40.2390   26.4180   32.0500 H   0  0  0  0  0  0  0  0  0  0  0  0
   40.7250   27.7950   30.1000 H   0  0  0  0  0  0  0  0  0  0  0  0
   39.7630   28.6360   31.3850 H   0  0  0  0  0  0  0  0  0  0  0  0
   38.8410   27.6730   28.6290 H   0  0  0  0  0  0  0  0  0  0  0  0
   38.8980   29.3110   29.3120 H   0  0  0  0  0  0  0  0  0  0  0  0
   36.7550   28.9590   29.9550 H   0  0  0  0  0  0  0  0  0  0  0  0
   36.7480   27.2710   29.4180 H   0  0  0  0  0  0  0  0  0  0  0  0
   37.3760   28.4390   32.1790 H   0  0  0  0  0  0  0  0  0  0  0  0
   35.7640   27.1180   31.7170 C   0  0  0  0  0  2  0  0  0  0  0  0
   35.4760   25.8130   31.0520 C   0  0  0  0  0  2  0  0  0  0  0  0
   35.3120   25.0310   31.8500 H   0  0  0  0  0  0  0  0  0  0  0  0
  1  2  2  0  0  0  0
  1  6  1  0  0  0  0
  2  3  1  0  0  0  0
  3  7  1  0  0  0  0
  3  4  2  0  0  0  0
  5  4  1  0  0  0  0
  5 16  1  0  0  0  0
  6  5  2  0  0  0  0
  7 13  1  0  0  0  0
  8  7  1  0  0  0  0
  8  9  2  0  0  0  0
  9 10  1  0  0  0  0
 10 12  1  0  0  0  0
 10 11  2  0  0  0  0
 12 19  1  0  0  0  0
 13 14  2  0  0  0  0
 13 12  1  0  0  0  0
 15  2  1  0  0  0  0
 17  8  1  0  0  0  0
 18  9  1  0  0  0  0
 20 26  1  6  0  0  0
 20  1  1  0  0  0  0
 21 20  1  0  0  0  0
 21 28  1  0  0  0  0
 22 21  1  0  0  0  0
 22 30  1  0  0  0  0
 23 24  1  0  0  0  0
 23 22  1  0  0  0  0
 24 25  1  0  0  0  0
 25 36  1  0  0  0  0
 25 20  1  0  0  0  0
 25 35  1  1  0  0  0
 27 21  1  0  0  0  0
 29 22  1  0  0  0  0
 31 23  1  0  0  0  0
 32 23  1  0  0  0  0
 33 24  1  0  0  0  0
 34 24  1  0  0  0  0
 37 36  1  0  0  0  0
 37 38  1  0  0  0  0
M  END
>  <minimizedAffinity>
-5.56406593

$$$$

 OpenBabel03272506213D

 38 40  0  0  1  0  0  0  0  0999 V2000
   38.5650   24.1840   34.6410 C   0  0  0  0  0  0  0  0  0  0  0  0
   38.3400   22.9390   34.0500 C   0  0  0  0  0  0  0  0  0  0  0  0
   37.5690   22.9260   32.8800 C   0  0  0  0  0  0  0  0  0  0  0  0
   37.0770   24.1210   32.3750 N   0  0  0  0  0  0  0  0  0  0  0  0
   37.3300   25.3140   32.9960 C   0  0  0  0  0  0  0  0  0  0  0  0
   38.0580   25.3320   34.1040 N   0  0  0  0  0  0  0  0  0  0  0  0
   37.2740   21.7210   32.2030 N   0  0  0  0  0  0  0  0  0  0  0  0
   36.5990   20.6970   32.8090 C   0  0  0  0  0  0  0  0  0  0  0  0
   36.3200   19.5350   32.1410 C   0  0  0  0  0  0  0  0  0  0  0  0
   36.7400   19.4260   30.8430 C   0  0  0  0  0  0  0  0  0  0  0  0
   36.4980   18.3620   30.1970 O   0  0  0  0  0  0  0  0  0  0  0  0
   37.4060   20.4300   30.2380 N   0  0  0  0  0  0  0  0  0  0  0  0
   37.6540   21.5510   30.9410 C   0  0  0  0  0  0  0  0  0  0  0  0
   38.2880   22.4390   30.2810 O   0  0  0  0  0  0  0  0  0  0  0  0
   38.6840   21.9850   34.3750 H   0  0  0  0  0  0  0  0  0  0  0  0
   36.9120   26.2030   32.5430 H   0  0  0  0  0  0  0  0  0  0  0  0
   36.2980   20.8610   33.8480 H   0  0  0  0  0  0  0  0  0  0  0  0
   35.7840   18.7490   32.6550 H   0  0  0  0  0  0  0  0  0  0  0  0
   37.7090   20.3040   29.2420 H   0  0  0  0  0  0  0  0  0  0  0  0
   39.3990   24.1700   35.8870 C   0  0  2  0  0  0  0  0  0  0  0  0
   40.8650   24.0380   35.4840 C   0  0  0  0  0  0  0  0  0  0  0  0
   41.4640   22.7280   35.8540 C   0  0  0  0  0  0  0  0  0  0  0  0
   41.2810   22.3800   37.3090 C   0  0  0  0  0  0  0  0  0  0  0  0
   39.9020   22.6730   37.8220 C   0  0  0  0  0  0  0  0  0  0  0  0
   38.9250   23.0650   36.7400 C   0  0  1  0  0  0  0  0  0  0  0  0
   39.2780   25.1480   36.3970 H   0  0  0  0  0  0  0  0  0  0  0  0
   41.4530   24.8750   35.9000 H   0  0  0  0  0  0  0  0  0  0  0  0
   40.9510   24.1430   34.3790 H   0  0  0  0  0  0  0  0  0  0  0  0
   42.5360   22.7730   35.6220 H   0  0  0  0  0  0  0  0  0  0  0  0
   40.9660   21.9470   35.2540 H   0  0  0  0  0  0  0  0  0  0  0  0
   42.0040   22.9660   37.9470 H   0  0  0  0  0  0  0  0  0  0  0  0
   41.5920   21.3200   37.4240 H   0  0  0  0  0  0  0  0  0  0  0  0
   39.5300   21.7260   38.2680 H   0  0  0  0  0  0  0  0  0  0  0  0
   39.8890   23.4200   38.6430 H   0  0  0  0  0  0  0  0  0  0  0  0
   38.6160   22.2050   36.1360 H   0  0  0  0  0  0  0  0  0  0  0  0
   37.6780   23.5770   37.4760 C   0  0  0  0  0  2  0  0  0  0  0  0
   38.0050   24.4970   38.6040 C   0  0  0  0  0  2  0  0  0  0  0  0
   37.6530   25.5360   38.3350 H   0  0  0  0  0  0  0  0  0  0  0  0
  1 20  1  0  0  0  0
  2 15  1  0  0  0  0
  2  1  2  0  0  0  0
  3  2  1  0  0  0  0
  4  3  2  0  0  0  0
  4  5  1  0  0  0  0
  5  6  2  0  0  0  0
  6  1  1  0  0  0  0
  7  8  1  0  0  0  0
  7  3  1  0  0  0  0
  8 17  1  0  0  0  0
  9 18  1  0  0  0  0
  9  8  2  0  0  0  0
 10  9  1  0  0  0  0
 11 10  2  0  0  0  0
 12 10  1  0  0  0  0
 12 13  1  0  0  0  0
 13  7  1  0  0  0  0
 14 13  2  0  0  0  0
 16  5  1  0  0  0  0
 19 12  1  0  0  0  0
 20 26  1  1  0  0  0
 20 25  1  0  0  0  0
 21 22  1  0  0  0  0
 21 20  1  0  0  0  0
 21 27  1  0  0  0  0
 22 23  1  0  0  0  0
 23 32  1  0  0  0  0
 23 24  1  0  0  0  0
 23 31  1  0  0  0  0
 24 33  1  0  0  0  0
 24 34  1  0  0  0  0
 25 35  1  6  0  0  0
 25 36  1  0  0  0  0
 25 24  1  0  0  0  0
 28 21  1  0  0  0  0
 29 22  1  0  0  0  0
 30 22  1  0  0  0  0
 36 37  1  0  0  0  0
 38 37  1  0  0  0  0
M  END
>  <minimizedAffinity>
-5.53143072

$$$$

 OpenBabel03272506213D

 38 40  0  0  1  0  0  0  0  0999 V2000
   38.7640   24.6320   34.9920 C   0  0  0  0  0  0  0  0  0  0  0  0
   37.9680   23.7540   34.2550 C   0  0  0  0  0  0  0  0  0  0  0  0
   37.8850   22.4350   34.7210 C   0  0  0  0  0  0  0  0  0  0  0  0
   38.5810   22.0720   35.8650 N   0  0  0  0  0  0  0  0  0  0  0  0
   39.3470   22.9760   36.5490 C   0  0  0  0  0  0  0  0  0  0  0  0
   39.4290   24.2260   36.1120 N   0  0  0  0  0  0  0  0  0  0  0  0
   37.1130   21.4610   34.0480 N   0  0  0  0  0  0  0  0  0  0  0  0
   37.3560   21.1190   32.7460 C   0  0  0  0  0  0  0  0  0  0  0  0
   36.5990   20.1730   32.1070 C   0  0  0  0  0  0  0  0  0  0  0  0
   35.5890   19.5770   32.8120 C   0  0  0  0  0  0  0  0  0  0  0  0
   34.8690   18.6980   32.2480 O   0  0  0  0  0  0  0  0  0  0  0  0
   35.3420   19.9090   34.0950 N   0  0  0  0  0  0  0  0  0  0  0  0
   36.1160   20.8450   34.6760 C   0  0  0  0  0  0  0  0  0  0  0  0
   35.8050   21.0870   35.8880 O   0  0  0  0  0  0  0  0  0  0  0  0
   37.4050   23.9570   33.3740 H   0  0  0  0  0  0  0  0  0  0  0  0
   39.8600   22.6180   37.4320 H   0  0  0  0  0  0  0  0  0  0  0  0
   38.1800   21.6400   32.2520 H   0  0  0  0  0  0  0  0  0  0  0  0
   36.8220   19.9300   31.0770 H   0  0  0  0  0  0  0  0  0  0  0  0
   34.5580   19.4280   34.5970 H   0  0  0  0  0  0  0  0  0  0  0  0
   38.8280   26.0390   34.4760 C   0  0  2  0  0  0  0  0  0  0  0  0
   37.4310   26.6480   34.5610 C   0  0  0  0  0  0  0  0  0  0  0  0
   36.8080   26.8840   33.2320 C   0  0  0  0  0  0  0  0  0  0  0  0
   37.6800   27.6870   32.3010 C   0  0  0  0  0  0  0  0  0  0  0  0
   39.1180   27.2620   32.3170 C   0  0  0  0  0  0  0  0  0  0  0  0
   39.3660   25.9970   33.1040 C   0  0  1  0  0  0  0  0  0  0  0  0
   39.4900   26.6250   35.1460 H   0  0  0  0  0  0  0  0  0  0  0  0
   37.4530   27.5750   35.1600 H   0  0  0  0  0  0  0  0  0  0  0  0
   36.7640   25.9550   35.1230 H   0  0  0  0  0  0  0  0  0  0  0  0
   35.8620   27.4170   33.3960 H   0  0  0  0  0  0  0  0  0  0  0  0
   36.6260   25.9010   32.7630 H   0  0  0  0  0  0  0  0  0  0  0  0
   37.6530   28.7800   32.5810 H   0  0  0  0  0  0  0  0  0  0  0  0
   37.2040   27.6380   31.2980 H   0  0  0  0  0  0  0  0  0  0  0  0
   39.3890   27.0450   31.2620 H   0  0  0  0  0  0  0  0  0  0  0  0
   39.8090   28.0640   32.6500 H   0  0  0  0  0  0  0  0  0  0  0  0
   39.0140   25.1080   32.5700 H   0  0  0  0  0  0  0  0  0  0  0  0
   40.8910   25.8800   33.2290 C   0  0  0  0  0  2  0  0  0  0  0  0
   41.4990   27.0030   34.0030 C   0  0  0  0  0  2  0  0  0  0  0  0
   41.8940   26.5940   34.9790 H   0  0  0  0  0  0  0  0  0  0  0  0
  1  6  1  0  0  0  0
  2  3  1  0  0  0  0
  2  1  2  0  0  0  0
  3  4  2  0  0  0  0
  4  5  1  0  0  0  0
  5 16  1  0  0  0  0
  6  5  2  0  0  0  0
  7 13  1  0  0  0  0
  7  3  1  0  0  0  0
  8  7  1  0  0  0  0
  9  8  2  0  0  0  0
  9 10  1  0  0  0  0
 10 12  1  0  0  0  0
 11 10  2  0  0  0  0
 12 19  1  0  0  0  0
 12 13  1  0  0  0  0
 13 14  2  0  0  0  0
 15  2  1  0  0  0  0
 17  8  1  0  0  0  0
 18  9  1  0  0  0  0
 20 21  1  0  0  0  0
 20  1  1  0  0  0  0
 20 26  1  1  0  0  0
 21 28  1  0  0  0  0
 21 27  1  0  0  0  0
 22 29  1  0  0  0  0
 22 21  1  0  0  0  0
 23 24  1  0  0  0  0
 23 31  1  0  0  0  0
 23 22  1  0  0  0  0
 24 34  1  0  0  0  0
 24 25  1  0  0  0  0
 25 35  1  6  0  0  0
 25 36  1  0  0  0  0
 25 20  1  0  0  0  0
 30 22  1  0  0  0  0
 32 23  1  0  0  0  0
 33 24  1  0  0  0  0
 36 37  1  0  0  0  0
 37 38  1  0  0  0  0
M  END
>  <minimizedAffinity>
-5.50355005

$$$$

 OpenBabel03272506213D

 38 40  0  0  1  0  0  0  0  0999 V2000
   38.3940   25.7800   31.8260 C   0  0  0  0  0  0  0  0  0  0  0  0
   37.7090   24.6490   32.2750 C   0  0  0  0  0  0  0  0  0  0  0  0
   37.7190   23.5290   31.4330 C   0  0  0  0  0  0  0  0  0  0  0  0
   38.3920   23.5940   30.2210 N   0  0  0  0  0  0  0  0  0  0  0  0
   39.0480   24.7300   29.8320 C   0  0  0  0  0  0  0  0  0  0  0  0
   39.0410   25.7930   30.6250 N   0  0  0  0  0  0  0  0  0  0  0  0
   37.0530   22.3330   31.7840 N   0  0  0  0  0  0  0  0  0  0  0  0
   35.7060   22.2990   32.0220 C   0  0  0  0  0  0  0  0  0  0  0  0
   35.0730   21.1340   32.3620 C   0  0  0  0  0  0  0  0  0  0  0  0
   35.8310   19.9980   32.4590 C   0  0  0  0  0  0  0  0  0  0  0  0
   35.2750   18.9020   32.7720 O   0  0  0  0  0  0  0  0  0  0  0  0
   37.1590   20.0230   32.2260 N   0  0  0  0  0  0  0  0  0  0  0  0
   37.7310   21.1960   31.8950 C   0  0  0  0  0  0  0  0  0  0  0  0
   38.9870   21.1140   31.6950 O   0  0  0  0  0  0  0  0  0  0  0  0
   37.1750   24.5220   33.1880 H   0  0  0  0  0  0  0  0  0  0  0  0
   39.5500   24.7060   28.8730 H   0  0  0  0  0  0  0  0  0  0  0  0
   35.1710   23.2480   31.9260 H   0  0  0  0  0  0  0  0  0  0  0  0
   34.0070   21.1470   32.5430 H   0  0  0  0  0  0  0  0  0  0  0  0
   37.7010   19.1300   32.3110 H   0  0  0  0  0  0  0  0  0  0  0  0
   38.3740   26.9600   32.7520 C   0  0  2  0  0  0  0  0  0  0  0  0
   39.5170   26.8070   33.7520 C   0  0  0  0  0  0  0  0  0  0  0  0
   39.0550   26.5410   35.1400 C   0  0  0  0  0  0  0  0  0  0  0  0
   38.0480   27.5480   35.6350 C   0  0  0  0  0  0  0  0  0  0  0  0
   37.0000   27.8910   34.6180 C   0  0  0  0  0  0  0  0  0  0  0  0
   37.0450   27.0190   33.3860 C   0  0  1  0  0  0  0  0  0  0  0  0
   38.5720   27.8730   32.1530 H   0  0  0  0  0  0  0  0  0  0  0  0
   40.1780   27.6910   33.7160 H   0  0  0  0  0  0  0  0  0  0  0  0
   40.1600   25.9510   33.4450 H   0  0  0  0  0  0  0  0  0  0  0  0
   39.9370   26.5550   35.7940 H   0  0  0  0  0  0  0  0  0  0  0  0
   38.5750   25.5470   35.1530 H   0  0  0  0  0  0  0  0  0  0  0  0
   38.5620   28.5100   35.9210 H   0  0  0  0  0  0  0  0  0  0  0  0
   37.6410   27.1480   36.5890 H   0  0  0  0  0  0  0  0  0  0  0  0
   36.0210   27.7080   35.1090 H   0  0  0  0  0  0  0  0  0  0  0  0
   37.0010   28.9630   34.3320 H   0  0  0  0  0  0  0  0  0  0  0  0
   36.6560   26.0140   33.5820 H   0  0  0  0  0  0  0  0  0  0  0  0
   36.1000   27.6850   32.3750 C   0  0  0  0  0  2  0  0  0  0  0  0
   36.5810   29.0250   31.9260 C   0  0  0  0  0  2  0  0  0  0  0  0
   36.8770   28.9540   30.8380 H   0  0  0  0  0  0  0  0  0  0  0  0
  1  2  1  0  0  0  0
  1 20  1  0  0  0  0
  2 15  1  0  0  0  0
  3  7  1  0  0  0  0
  3  2  2  0  0  0  0
  4  3  1  0  0  0  0
  5  4  2  0  0  0  0
  5  6  1  0  0  0  0
  6  1  2  0  0  0  0
  7 13  1  0  0  0  0
  7  8  1  0  0  0  0
  8  9  2  0  0  0  0
  9 10  1  0  0  0  0
  9 18  1  0  0  0  0
 10 11  2  0  0  0  0
 12 19  1  0  0  0  0
 12 10  1  0  0  0  0
 13 12  1  0  0  0  0
 14 13  2  0  0  0  0
 16  5  1  0  0  0  0
 17  8  1  0  0  0  0
 20 26  1  6  0  0  0
 20 25  1  0  0  0  0
 20 21  1  0  0  0  0
 21 22  1  0  0  0  0
 22 30  1  0  0  0  0
 22 23  1  0  0  0  0
 22 29  1  0  0  0  0
 23 31  1  0  0  0  0
 23 32  1  0  0  0  0
 24 33  1  0  0  0  0
 24 23  1  0  0  0  0
 25 35  1  1  0  0  0
 25 24  1  0  0  0  0
 27 21  1  0  0  0  0
 28 21  1  0  0  0  0
 34 24  1  0  0  0  0
 36 25  1  0  0  0  0
 37 36  1  0  0  0  0
 38 37  1  0  0  0  0
M  END
>  <minimizedAffinity>
-5.49690866

$$$$

 OpenBabel03272506213D

 38 40  0  0  1  0  0  0  0  0999 V2000
   36.0930   20.9330   34.0670 C   0  0  0  0  0  0  0  0  0  0  0  0
   37.2460   21.7100   33.9390 C   0  0  0  0  0  0  0  0  0  0  0  0
   37.7620   22.2730   35.1150 C   0  0  0  0  0  0  0  0  0  0  0  0
   37.1180   22.0380   36.3210 N   0  0  0  0  0  0  0  0  0  0  0  0
   35.9890   21.2680   36.3880 C   0  0  0  0  0  0  0  0  0  0  0  0
   35.4970   20.7320   35.2780 N   0  0  0  0  0  0  0  0  0  0  0  0
   38.9210   23.0810   35.1000 N   0  0  0  0  0  0  0  0  0  0  0  0
   38.9880   24.2350   34.3680 C   0  0  0  0  0  0  0  0  0  0  0  0
   40.1180   25.0090   34.3640 C   0  0  0  0  0  0  0  0  0  0  0  0
   41.1830   24.5920   35.1160 C   0  0  0  0  0  0  0  0  0  0  0  0
   42.2440   25.2860   35.1330 O   0  0  0  0  0  0  0  0  0  0  0  0
   41.1250   23.4560   35.8400 N   0  0  0  0  0  0  0  0  0  0  0  0
   39.9900   22.7330   35.8090 C   0  0  0  0  0  0  0  0  0  0  0  0
   40.0340   21.6790   36.5250 O   0  0  0  0  0  0  0  0  0  0  0  0
   37.7960   21.9320   33.0540 H   0  0  0  0  0  0  0  0  0  0  0  0
   35.5430   21.1300   37.3640 H   0  0  0  0  0  0  0  0  0  0  0  0
   38.0960   24.5000   33.7930 H   0  0  0  0  0  0  0  0  0  0  0  0
   40.1330   25.9140   33.7730 H   0  0  0  0  0  0  0  0  0  0  0  0
   41.9640   23.1750   36.4010 H   0  0  0  0  0  0  0  0  0  0  0  0
   35.5680   20.3360   32.7950 C   0  0  2  0  0  0  0  0  0  0  0  0
   35.7840   18.8260   32.8460 C   0  0  0  0  0  0  0  0  0  0  0  0
   36.8070   18.3420   31.8820 C   0  0  0  0  0  0  0  0  0  0  0  0
   36.5500   18.7930   30.4660 C   0  0  0  0  0  0  0  0  0  0  0  0
   36.1400   20.2320   30.3660 C   0  0  0  0  0  0  0  0  0  0  0  0
   36.2590   20.9880   31.6670 C   0  0  1  0  0  0  0  0  0  0  0  0
   34.4750   20.5170   32.7520 H   0  0  0  0  0  0  0  0  0  0  0  0
   34.8250   18.2970   32.7060 H   0  0  0  0  0  0  0  0  0  0  0  0
   36.1280   18.5400   33.8670 H   0  0  0  0  0  0  0  0  0  0  0  0
   36.8110   17.2450   31.9210 H   0  0  0  0  0  0  0  0  0  0  0  0
   37.7860   18.7470   32.1940 H   0  0  0  0  0  0  0  0  0  0  0  0
   35.7260   18.1780   30.0020 H   0  0  0  0  0  0  0  0  0  0  0  0
   37.4610   18.5390   29.8820 H   0  0  0  0  0  0  0  0  0  0  0  0
   36.8440   20.7060   29.6500 H   0  0  0  0  0  0  0  0  0  0  0  0
   35.1270   20.3690   29.9310 H   0  0  0  0  0  0  0  0  0  0  0  0
   37.3020   21.2080   31.9180 H   0  0  0  0  0  0  0  0  0  0  0  0
   35.5530   22.3310   31.4310 C   0  0  0  0  0  2  0  0  0  0  0  0
   36.4830   23.4030   30.9690 C   0  0  0  0  0  2  0  0  0  0  0  0
   36.2320   23.6590   29.8980 H   0  0  0  0  0  0  0  0  0  0  0  0
  1  6  1  0  0  0  0
  2  1  2  0  0  0  0
  2  3  1  0  0  0  0
  3  4  2  0  0  0  0
  4  5  1  0  0  0  0
  5 16  1  0  0  0  0
  6  5  2  0  0  0  0
  7  3  1  0  0  0  0
  7 13  1  0  0  0  0
  8  7  1  0  0  0  0
  9  8  2  0  0  0  0
  9 10  1  0  0  0  0
 10 11  2  0  0  0  0
 10 12  1  0  0  0  0
 12 19  1  0  0  0  0
 13 12  1  0  0  0  0
 13 14  2  0  0  0  0
 15  2  1  0  0  0  0
 17  8  1  0  0  0  0
 18  9  1  0  0  0  0
 20 26  1  6  0  0  0
 20 21  1  0  0  0  0
 20  1  1  0  0  0  0
 21 28  1  0  0  0  0
 22 29  1  0  0  0  0
 22 30  1  0  0  0  0
 22 21  1  0  0  0  0
 23 22  1  0  0  0  0
 24 23  1  0  0  0  0
 24 25  1  0  0  0  0
 25 35  1  1  0  0  0
 25 20  1  0  0  0  0
 27 21  1  0  0  0  0
 31 23  1  0  0  0  0
 32 23  1  0  0  0  0
 33 24  1  0  0  0  0
 34 24  1  0  0  0  0
 36 25  1  0  0  0  0
 37 36  1  0  0  0  0
 38 37  1  0  0  0  0
M  END
>  <minimizedAffinity>
-5.47839022

$$$$
