REMARK  Name = 
REMARK  3 active torsions:
REMARK  status: ('A' for Active; 'I' for Inactive)
REMARK    1  A    between atoms: C_1  and  C_15
REMARK    2  A    between atoms: C_20  and  C_36
REMARK    3  A    between atoms: C_36  and  C_37
REMARK                            x       y       z     vdW  Elec       q    Type
REMARK                         _______ _______ _______ _____ _____    ______ ____
ROOT
ATOM      1  C   UNL     1      34.599  29.532  48.895  0.00  0.00    +0.000 A 
ATOM      2  C   UNL     1      34.111  30.181  47.759  0.00  0.00    +0.000 A 
ATOM      3  C   UNL     1      33.310  29.423  46.894  0.00  0.00    +0.000 A 
ATOM      4  N   UNL     1      33.046  28.095  47.199  0.00  0.00    +0.000 NA
ATOM      5  C   UNL     1      33.551  27.510  48.328  0.00  0.00    +0.000 A 
ATOM      6  N   UNL     1      34.310  28.223  49.150  0.00  0.00    +0.000 NA
ATOM      7  N   UNL     1      32.769  29.977  45.712  0.00  0.00    +0.000 N 
ATOM      8  C   UNL     1      33.564  30.494  44.726  0.00  0.00    +0.000 A 
ATOM      9  C   UNL     1      33.026  31.028  43.586  0.00  0.00    +0.000 A 
ATOM     10  C   UNL     1      31.663  31.030  43.461  0.00  0.00    +0.000 A 
ATOM     11  O   UNL     1      31.133  31.518  42.417  0.00  0.00    +0.000 OA
ATOM     12  N   UNL     1      30.872  30.523  44.428  0.00  0.00    +0.000 N 
ATOM     13  C   UNL     1      31.453  30.010  45.529  0.00  0.00    +0.000 A 
ATOM     14  O   UNL     1      30.622  29.556  46.382  0.00  0.00    +0.000 OA
ATOM     15  H   UNL     1      34.267  31.191  47.460  0.00  0.00    +0.000 HD
ATOM     16  H   UNL     1      33.302  26.471  48.498  0.00  0.00    +0.000 HD
ATOM     17  H   UNL     1      34.643  30.456  44.901  0.00  0.00    +0.000 HD
ATOM     18  H   UNL     1      33.687  31.427  42.829  0.00  0.00    +0.000 HD
ATOM     19  H   UNL     1      29.833  30.545  44.291  0.00  0.00    +0.000 HD
ENDROOT
BRANCH   1  20
ATOM     20  C   UNL     1      35.446  30.369  49.807  0.00  0.00    +0.000 C 
ATOM     21  C   UNL     1      36.474  31.115  48.960  0.00  0.00    +0.000 C 
ATOM     22  C   UNL     1      37.868  30.643  49.172  0.00  0.00    +0.000 C 
ATOM     23  C   UNL     1      38.280  30.637  50.622  0.00  0.00    +0.000 C 
ATOM     24  C   UNL     1      37.225  30.091  51.538  0.00  0.00    +0.000 C 
ATOM     25  C   UNL     1      36.052  29.477  50.812  0.00  0.00    +0.000 C 
ATOM     26  H   UNL     1      34.794  31.127  50.287  0.00  0.00    +0.000 HD
ATOM     27  H   UNL     1      36.393  32.203  49.130  0.00  0.00    +0.000 HD
ATOM     28  H   UNL     1      36.234  30.970  47.882  0.00  0.00    +0.000 HD
ATOM     29  H   UNL     1      38.535  31.306  48.606  0.00  0.00    +0.000 HD
ATOM     30  H   UNL     1      37.936  29.607  48.796  0.00  0.00    +0.000 HD
ATOM     31  H   UNL     1      38.512  31.685  50.969  0.00  0.00    +0.000 HD
ATOM     32  H   UNL     1      39.250  30.097  50.675  0.00  0.00    +0.000 HD
ATOM     33  H   UNL     1      37.709  29.277  52.118  0.00  0.00    +0.000 HD
ATOM     34  H   UNL     1      36.871  30.829  52.288  0.00  0.00    +0.000 HD
ATOM     35  H   UNL     1      36.305  28.505  50.375  0.00  0.00    +0.000 HD
BRANCH  25  36
ATOM     36  C   UNL     1      34.984  29.230  51.887  0.00  0.00    +0.000 C 
BRANCH  36  37
ATOM     37  C   UNL     1      34.278  30.479  52.302  0.00  0.00    +0.000 C 
ATOM     38  H   UNL     1      33.209  30.423  51.945  0.00  0.00    +0.000 HD
ENDBRANCH  36  37
ENDBRANCH  25  36
ENDBRANCH   1  20
TORSDOF 3
