
 OpenBabel03272506203D

 38 40  0  0  1  0  0  0  0  0999 V2000
   34.4760   29.1390   47.9770 C   0  0  0  0  0  0  0  0  0  0  0  0
   33.2840   29.5770   47.3960 C   0  0  0  0  0  0  0  0  0  0  0  0
   32.3200   28.5990   47.1190 C   0  0  0  0  0  0  0  0  0  0  0  0
   32.5870   27.2720   47.4280 N   0  0  0  0  0  0  0  0  0  0  0  0
   33.7740   26.9000   47.9980 C   0  0  0  0  0  0  0  0  0  0  0  0
   34.6900   27.8220   48.2620 N   0  0  0  0  0  0  0  0  0  0  0  0
   31.0810   28.9290   46.5250 N   0  0  0  0  0  0  0  0  0  0  0  0
   31.0050   29.5310   45.2990 C   0  0  0  0  0  0  0  0  0  0  0  0
   29.7970   29.8460   44.7350 C   0  0  0  0  0  0  0  0  0  0  0  0
   28.6630   29.5400   45.4380 C   0  0  0  0  0  0  0  0  0  0  0  0
   27.5290   29.8190   44.9440 O   0  0  0  0  0  0  0  0  0  0  0  0
   28.7290   28.9480   46.6470 N   0  0  0  0  0  0  0  0  0  0  0  0
   29.9420   28.6590   47.1550 C   0  0  0  0  0  0  0  0  0  0  0  0
   29.8980   28.1010   48.3000 O   0  0  0  0  0  0  0  0  0  0  0  0
   33.0060   30.5710   47.1330 H   0  0  0  0  0  0  0  0  0  0  0  0
   33.9100   25.8470   48.2090 H   0  0  0  0  0  0  0  0  0  0  0  0
   31.9550   29.7430   44.8010 H   0  0  0  0  0  0  0  0  0  0  0  0
   29.7780   30.3210   43.7640 H   0  0  0  0  0  0  0  0  0  0  0  0
   27.8360   28.7310   47.1510 H   0  0  0  0  0  0  0  0  0  0  0  0
   35.4860   30.2080   48.2700 C   0  0  2  0  0  0  0  0  0  0  0  0
   36.0100   30.7520   46.9440 C   0  0  0  0  0  0  0  0  0  0  0  0
   37.4300   30.3980   46.6800 C   0  0  0  0  0  0  0  0  0  0  0  0
   38.3560   30.7720   47.8100 C   0  0  0  0  0  0  0  0  0  0  0  0
   37.8070   30.4380   49.1650 C   0  0  0  0  0  0  0  0  0  0  0  0
   36.5380   29.6200   49.1190 C   0  0  1  0  0  0  0  0  0  0  0  0
   34.9700   31.0390   48.7930 H   0  0  0  0  0  0  0  0  0  0  0  0
   35.8570   31.8440   46.8910 H   0  0  0  0  0  0  0  0  0  0  0  0
   35.4030   30.3320   46.1100 H   0  0  0  0  0  0  0  0  0  0  0  0
   37.7410   30.9200   45.7660 H   0  0  0  0  0  0  0  0  0  0  0  0
   37.4870   29.3040   46.5440 H   0  0  0  0  0  0  0  0  0  0  0  0
   38.5620   31.8810   47.7980 H   0  0  0  0  0  0  0  0  0  0  0  0
   39.3360   30.2970   47.5880 H   0  0  0  0  0  0  0  0  0  0  0  0
   38.5760   29.8140   49.6660 H   0  0  0  0  0  0  0  0  0  0  0  0
   37.6680   31.3280   49.8140 H   0  0  0  0  0  0  0  0  0  0  0  0
   36.7330   28.5790   48.8400 H   0  0  0  0  0  0  0  0  0  0  0  0
   35.9980   29.6150   50.5560 C   0  0  0  0  0  2  0  0  0  0  0  0
   37.0600   29.8540   51.5780 C   0  0  0  0  0  2  0  0  0  0  0  0
   36.8830   30.8620   52.0510 H   0  0  0  0  0  0  0  0  0  0  0  0
  1  6  1  0  0  0  0
  1 20  1  0  0  0  0
  2  1  2  0  0  0  0
  3  2  1  0  0  0  0
  3  4  2  0  0  0  0
  4  5  1  0  0  0  0
  5 16  1  0  0  0  0
  5  6  2  0  0  0  0
  7  3  1  0  0  0  0
  7 13  1  0  0  0  0
  8  7  1  0  0  0  0
  9  8  2  0  0  0  0
  9 10  1  0  0  0  0
 10 12  1  0  0  0  0
 11 10  2  0  0  0  0
 12 19  1  0  0  0  0
 12 13  1  0  0  0  0
 13 14  2  0  0  0  0
 15  2  1  0  0  0  0
 17  8  1  0  0  0  0
 18  9  1  0  0  0  0
 20 26  1  1  0  0  0
 20 25  1  0  0  0  0
 21 20  1  0  0  0  0
 22 21  1  0  0  0  0
 22 23  1  0  0  0  0
 23 24  1  0  0  0  0
 24 33  1  0  0  0  0
 24 34  1  0  0  0  0
 25 35  1  6  0  0  0
 25 24  1  0  0  0  0
 25 36  1  0  0  0  0
 27 21  1  0  0  0  0
 28 21  1  0  0  0  0
 29 22  1  0  0  0  0
 30 22  1  0  0  0  0
 31 23  1  0  0  0  0
 32 23  1  0  0  0  0
 36 37  1  0  0  0  0
 37 38  1  0  0  0  0
M  END
>  <minimizedAffinity>
-5.37958527

>  <minimizedRMSD>
2.46215391

$$$$
