
 OpenBabel03272502243D

 23 24  0  0  0  0  0  0  0  0999 V2000
   38.0210   25.0080   35.0920 C   0  0  0  0  0  0  0  0  0  0  0  0
   38.8270   24.0820   34.4750 C   0  0  0  0  0  0  0  0  0  0  0  0
   39.4580   23.0670   35.1790 C   0  0  0  0  0  0  0  0  0  0  0  0
   39.2830   22.9790   36.5120 N   0  0  0  0  0  0  0  0  0  0  0  0
   38.4930   23.8920   37.0950 C   0  0  0  0  0  0  0  0  0  0  0  0
   37.8780   24.8760   36.4270 N   0  0  0  0  0  0  0  0  0  0  0  0
   38.9830   24.1350   33.4030 H   0  0  0  0  0  0  0  0  0  0  0  0
   40.0960   22.3330   34.6940 H   0  0  0  0  0  0  0  0  0  0  0  0
   36.4510   28.2710   34.0200 C   0  0  0  0  0  0  0  0  0  0  0  0
   37.0910   27.3310   34.8530 C   0  0  0  0  0  0  0  0  0  0  0  0
   37.3610   26.0760   34.3300 C   0  0  0  0  0  0  0  0  0  0  0  0
   36.9950   25.8280   33.0540 N   0  0  0  0  0  0  0  0  0  0  0  0
   36.3870   26.7400   32.2790 C   0  0  0  0  0  0  0  0  0  0  0  0
   36.1140   27.9670   32.7640 N   0  0  0  0  0  0  0  0  0  0  0  0
   36.2530   29.2440   34.4560 H   0  0  0  0  0  0  0  0  0  0  0  0
   37.3750   27.5430   35.8670 H   0  0  0  0  0  0  0  0  0  0  0  0
   35.9940   26.4420   30.8750 C   0  0  0  0  0  2  0  0  0  0  0  0
   34.9240   25.3640   30.8530 C   0  0  0  0  0  2  0  0  0  0  0  0
   34.3440   25.3900   29.9070 H   0  0  0  0  0  0  0  0  0  0  0  0
   38.2780   23.8230   38.5660 C   0  0  0  0  0  0  0  0  0  0  0  0
   37.8470   25.0750   38.9980 F   0  0  0  0  0  0  0  0  0  0  0  0
   37.3370   22.8560   38.8880 F   0  0  0  0  0  0  0  0  0  0  0  0
   39.4250   23.5460   39.2440 F   0  0  0  0  0  0  0  0  0  0  0  0
  1  6  1  0  0  0  0
  2  1  2  0  0  0  0
  2  3  1  0  0  0  0
  3  4  2  0  0  0  0
  4  5  1  0  0  0  0
  5 20  1  0  0  0  0
  6  5  2  0  0  0  0
  7  2  1  0  0  0  0
  8  3  1  0  0  0  0
  9 15  1  0  0  0  0
  9 10  1  0  0  0  0
 10 16  1  0  0  0  0
 11 10  2  0  0  0  0
 11  1  1  0  0  0  0
 12 11  1  0  0  0  0
 13 14  1  0  0  0  0
 13 12  2  0  0  0  0
 14  9  2  0  0  0  0
 17 13  1  0  0  0  0
 18 17  1  0  0  0  0
 19 18  1  0  0  0  0
 20 22  1  0  0  0  0
 20 21  1  0  0  0  0
 20 23  1  0  0  0  0
M  END
>  <minimizedAffinity>
-5.45351028

$$$$

 OpenBabel03272502243D

 23 24  0  0  0  0  0  0  0  0999 V2000
   38.0630   23.2110   34.7470 C   0  0  0  0  0  0  0  0  0  0  0  0
   38.1270   24.5070   34.2980 C   0  0  0  0  0  0  0  0  0  0  0  0
   38.2130   25.5860   35.1660 C   0  0  0  0  0  0  0  0  0  0  0  0
   38.2350   25.3660   36.4950 N   0  0  0  0  0  0  0  0  0  0  0  0
   38.1720   24.0930   36.9120 C   0  0  0  0  0  0  0  0  0  0  0  0
   38.0890   23.0430   36.0850 N   0  0  0  0  0  0  0  0  0  0  0  0
   38.1100   24.7080   33.2320 H   0  0  0  0  0  0  0  0  0  0  0  0
   38.2640   26.6130   34.8130 H   0  0  0  0  0  0  0  0  0  0  0  0
   38.8500   20.4700   32.2700 C   0  0  0  0  0  0  0  0  0  0  0  0
   39.0670   21.5560   33.1420 C   0  0  0  0  0  0  0  0  0  0  0  0
   37.9720   22.0810   33.8120 C   0  0  0  0  0  0  0  0  0  0  0  0
   36.7640   21.5220   33.5890 N   0  0  0  0  0  0  0  0  0  0  0  0
   36.5820   20.4880   32.7530 C   0  0  0  0  0  0  0  0  0  0  0  0
   37.6300   19.9590   32.0910 N   0  0  0  0  0  0  0  0  0  0  0  0
   39.7240   20.0810   31.7600 H   0  0  0  0  0  0  0  0  0  0  0  0
   40.0350   21.9910   33.3080 H   0  0  0  0  0  0  0  0  0  0  0  0
   35.2390   19.8880   32.5250 C   0  0  0  0  0  2  0  0  0  0  0  0
   35.3100   18.3800   32.6900 C   0  0  0  0  0  2  0  0  0  0  0  0
   34.3100   17.9510   32.9120 H   0  0  0  0  0  0  0  0  0  0  0  0
   38.1940   23.8140   38.3740 C   0  0  0  0  0  0  0  0  0  0  0  0
   39.4540   23.3170   38.6980 F   0  0  0  0  0  0  0  0  0  0  0  0
   37.9310   24.9620   39.1060 F   0  0  0  0  0  0  0  0  0  0  0  0
   37.2910   22.8620   38.7320 F   0  0  0  0  0  0  0  0  0  0  0  0
  1  6  1  0  0  0  0
  2  1  2  0  0  0  0
  2  3  1  0  0  0  0
  3  4  2  0  0  0  0
  4  5  1  0  0  0  0
  5 20  1  0  0  0  0
  6  5  2  0  0  0  0
  7  2  1  0  0  0  0
  8  3  1  0  0  0  0
  9 10  1  0  0  0  0
 10 16  1  0  0  0  0
 10 11  2  0  0  0  0
 11  1  1  0  0  0  0
 12 11  1  0  0  0  0
 13 12  2  0  0  0  0
 14  9  2  0  0  0  0
 14 13  1  0  0  0  0
 15  9  1  0  0  0  0
 17 18  1  0  0  0  0
 17 13  1  0  0  0  0
 18 19  1  0  0  0  0
 20 21  1  0  0  0  0
 20 23  1  0  0  0  0
 20 22  1  0  0  0  0
M  END
>  <minimizedAffinity>
-5.21811485

$$$$

 OpenBabel03272502243D

 23 24  0  0  0  0  0  0  0  0999 V2000
   38.5730   22.7240   34.8990 C   0  0  0  0  0  0  0  0  0  0  0  0
   39.8400   22.1920   34.8960 C   0  0  0  0  0  0  0  0  0  0  0  0
   40.6190   22.1340   36.0420 C   0  0  0  0  0  0  0  0  0  0  0  0
   40.1280   22.6140   37.2010 N   0  0  0  0  0  0  0  0  0  0  0  0
   38.8900   23.1290   37.1840 C   0  0  0  0  0  0  0  0  0  0  0  0
   38.1280   23.1900   36.0840 N   0  0  0  0  0  0  0  0  0  0  0  0
   40.2560   21.8010   33.9740 H   0  0  0  0  0  0  0  0  0  0  0  0
   41.6220   21.7140   36.0430 H   0  0  0  0  0  0  0  0  0  0  0  0
   37.0300   23.7300   31.6030 C   0  0  0  0  0  0  0  0  0  0  0  0
   37.8650   23.7930   32.7380 C   0  0  0  0  0  0  0  0  0  0  0  0
   37.7630   22.7770   33.6760 C   0  0  0  0  0  0  0  0  0  0  0  0
   36.8720   21.7890   33.4480 N   0  0  0  0  0  0  0  0  0  0  0  0
   36.0870   21.7510   32.3590 C   0  0  0  0  0  0  0  0  0  0  0  0
   36.1670   22.7260   31.4320 N   0  0  0  0  0  0  0  0  0  0  0  0
   37.1320   24.5380   30.8870 H   0  0  0  0  0  0  0  0  0  0  0  0
   38.5680   24.5860   32.9050 H   0  0  0  0  0  0  0  0  0  0  0  0
   35.1120   20.6500   32.1300 C   0  0  0  0  0  2  0  0  0  0  0  0
   35.4540   19.4630   33.0150 C   0  0  0  0  0  2  0  0  0  0  0  0
   34.5720   18.8050   33.1670 H   0  0  0  0  0  0  0  0  0  0  0  0
   38.3170   23.6670   38.4470 C   0  0  0  0  0  0  0  0  0  0  0  0
   39.3310   23.6960   39.4020 F   0  0  0  0  0  0  0  0  0  0  0  0
   37.8010   24.9390   38.2590 F   0  0  0  0  0  0  0  0  0  0  0  0
   37.3310   22.8730   38.9460 F   0  0  0  0  0  0  0  0  0  0  0  0
  1  6  1  0  0  0  0
  2  1  2  0  0  0  0
  2  3  1  0  0  0  0
  3  8  1  0  0  0  0
  3  4  2  0  0  0  0
  5  4  1  0  0  0  0
  5 20  1  0  0  0  0
  6  5  2  0  0  0  0
  7  2  1  0  0  0  0
  9 10  1  0  0  0  0
 10 16  1  0  0  0  0
 10 11  2  0  0  0  0
 11  1  1  0  0  0  0
 12 11  1  0  0  0  0
 13 12  2  0  0  0  0
 14  9  2  0  0  0  0
 14 13  1  0  0  0  0
 15  9  1  0  0  0  0
 17 13  1  0  0  0  0
 17 18  1  0  0  0  0
 18 19  1  0  0  0  0
 20 23  1  0  0  0  0
 20 21  1  0  0  0  0
 22 20  1  0  0  0  0
M  END
>  <minimizedAffinity>
-5.17060804

$$$$

 OpenBabel03272502243D

 23 24  0  0  0  0  0  0  0  0999 V2000
   37.9940   25.0040   34.9820 C   0  0  0  0  0  0  0  0  0  0  0  0
   38.5690   23.9500   34.3150 C   0  0  0  0  0  0  0  0  0  0  0  0
   39.0500   22.8310   34.9780 C   0  0  0  0  0  0  0  0  0  0  0  0
   38.9570   22.7660   36.3200 N   0  0  0  0  0  0  0  0  0  0  0  0
   38.3920   23.8050   36.9530 C   0  0  0  0  0  0  0  0  0  0  0  0
   37.9230   24.8910   36.3240 N   0  0  0  0  0  0  0  0  0  0  0  0
   38.6550   23.9820   33.2340 H   0  0  0  0  0  0  0  0  0  0  0  0
   39.5060   21.9960   34.4530 H   0  0  0  0  0  0  0  0  0  0  0  0
   36.4360   28.3270   34.0890 C   0  0  0  0  0  0  0  0  0  0  0  0
   36.8790   27.2550   34.8920 C   0  0  0  0  0  0  0  0  0  0  0  0
   37.4890   26.1810   34.2620 C   0  0  0  0  0  0  0  0  0  0  0  0
   37.6230   26.2250   32.9200 N   0  0  0  0  0  0  0  0  0  0  0  0
   37.1940   27.2570   32.1770 C   0  0  0  0  0  0  0  0  0  0  0  0
   36.5980   28.3130   32.7640 N   0  0  0  0  0  0  0  0  0  0  0  0
   35.9630   29.1520   34.6090 H   0  0  0  0  0  0  0  0  0  0  0  0
   36.7630   27.2350   35.9590 H   0  0  0  0  0  0  0  0  0  0  0  0
   37.3550   27.2810   30.6970 C   0  0  0  0  0  2  0  0  0  0  0  0
   36.8800   28.6150   30.1460 C   0  0  0  0  0  2  0  0  0  0  0  0
   37.3270   28.8230   29.1510 H   0  0  0  0  0  0  0  0  0  0  0  0
   38.2730   23.7650   38.4360 C   0  0  0  0  0  0  0  0  0  0  0  0
   37.9170   25.0390   38.8730 F   0  0  0  0  0  0  0  0  0  0  0  0
   37.3220   22.8390   38.8350 F   0  0  0  0  0  0  0  0  0  0  0  0
   39.4520   23.4570   39.0410 F   0  0  0  0  0  0  0  0  0  0  0  0
  1  6  1  0  0  0  0
  2  3  1  0  0  0  0
  2  1  2  0  0  0  0
  3  4  2  0  0  0  0
  4  5  1  0  0  0  0
  5 20  1  0  0  0  0
  6  5  2  0  0  0  0
  7  2  1  0  0  0  0
  8  3  1  0  0  0  0
  9 15  1  0  0  0  0
  9 10  1  0  0  0  0
 10 16  1  0  0  0  0
 11 10  2  0  0  0  0
 11  1  1  0  0  0  0
 12 11  1  0  0  0  0
 13 14  1  0  0  0  0
 13 12  2  0  0  0  0
 14  9  2  0  0  0  0
 17 13  1  0  0  0  0
 18 17  1  0  0  0  0
 19 18  1  0  0  0  0
 20 22  1  0  0  0  0
 20 21  1  0  0  0  0
 20 23  1  0  0  0  0
M  END
>  <minimizedAffinity>
-5.13882875

$$$$

 OpenBabel03272502243D

 23 24  0  0  0  0  0  0  0  0999 V2000
   38.1830   24.6690   34.7960 C   0  0  0  0  0  0  0  0  0  0  0  0
   38.5650   23.4750   34.2340 C   0  0  0  0  0  0  0  0  0  0  0  0
   38.8710   22.3610   35.0020 C   0  0  0  0  0  0  0  0  0  0  0  0
   38.7970   22.4430   36.3440 N   0  0  0  0  0  0  0  0  0  0  0  0
   38.4240   23.6160   36.8740 C   0  0  0  0  0  0  0  0  0  0  0  0
   38.1250   24.6980   36.1440 N   0  0  0  0  0  0  0  0  0  0  0  0
   38.6310   23.3860   33.1540 H   0  0  0  0  0  0  0  0  0  0  0  0
   39.1720   21.4150   34.5590 H   0  0  0  0  0  0  0  0  0  0  0  0
   37.9400   27.1650   31.9720 C   0  0  0  0  0  0  0  0  0  0  0  0
   38.3170   25.9960   32.6660 C   0  0  0  0  0  0  0  0  0  0  0  0
   37.8620   25.8370   33.9660 C   0  0  0  0  0  0  0  0  0  0  0  0
   37.0860   26.8090   34.4910 N   0  0  0  0  0  0  0  0  0  0  0  0
   36.7390   27.9130   33.8110 C   0  0  0  0  0  0  0  0  0  0  0  0
   37.1680   28.0910   32.5460 N   0  0  0  0  0  0  0  0  0  0  0  0
   38.3100   27.2620   30.9580 H   0  0  0  0  0  0  0  0  0  0  0  0
   38.9360   25.2330   32.2350 H   0  0  0  0  0  0  0  0  0  0  0  0
   35.8810   28.9700   34.4120 C   0  0  0  0  0  2  0  0  0  0  0  0
   35.5020   29.9930   33.3540 C   0  0  0  0  0  2  0  0  0  0  0  0
   34.5860   30.5510   33.6430 H   0  0  0  0  0  0  0  0  0  0  0  0
   38.3320   23.7410   38.3540 C   0  0  0  0  0  0  0  0  0  0  0  0
   37.3330   22.8770   38.7970 F   0  0  0  0  0  0  0  0  0  0  0  0
   39.5390   23.4250   38.9580 F   0  0  0  0  0  0  0  0  0  0  0  0
   37.9710   24.9930   38.7460 F   0  0  0  0  0  0  0  0  0  0  0  0
  1  6  1  0  0  0  0
  2  1  2  0  0  0  0
  2  3  1  0  0  0  0
  3  4  2  0  0  0  0
  4  5  1  0  0  0  0
  5 20  1  0  0  0  0
  6  5  2  0  0  0  0
  7  2  1  0  0  0  0
  8  3  1  0  0  0  0
  9 14  2  0  0  0  0
  9 10  1  0  0  0  0
 10 11  2  0  0  0  0
 11 12  1  0  0  0  0
 11  1  1  0  0  0  0
 13 17  1  0  0  0  0
 13 12  2  0  0  0  0
 14 13  1  0  0  0  0
 15  9  1  0  0  0  0
 16 10  1  0  0  0  0
 18 19  1  0  0  0  0
 18 17  1  0  0  0  0
 20 23  1  0  0  0  0
 20 21  1  0  0  0  0
 20 22  1  0  0  0  0
M  END
>  <minimizedAffinity>
-5.12902594

$$$$

 OpenBabel03272502243D

 23 24  0  0  0  0  0  0  0  0999 V2000
   38.4390   24.4600   36.1470 C   0  0  0  0  0  0  0  0  0  0  0  0
   37.7980   24.4390   37.3610 C   0  0  0  0  0  0  0  0  0  0  0  0
   38.2790   23.7080   38.4380 C   0  0  0  0  0  0  0  0  0  0  0  0
   39.4100   22.9900   38.2970 N   0  0  0  0  0  0  0  0  0  0  0  0
   40.0210   23.0240   37.1040 C   0  0  0  0  0  0  0  0  0  0  0  0
   39.5680   23.7260   36.0580 N   0  0  0  0  0  0  0  0  0  0  0  0
   36.8850   25.0090   37.4970 H   0  0  0  0  0  0  0  0  0  0  0  0
   37.7740   23.6890   39.4000 H   0  0  0  0  0  0  0  0  0  0  0  0
   37.0980   27.2260   33.9520 C   0  0  0  0  0  0  0  0  0  0  0  0
   37.5950   26.5870   35.1080 C   0  0  0  0  0  0  0  0  0  0  0  0
   37.9150   25.2410   35.0190 C   0  0  0  0  0  0  0  0  0  0  0  0
   37.7340   24.6220   33.8330 N   0  0  0  0  0  0  0  0  0  0  0  0
   37.2600   25.2510   32.7460 C   0  0  0  0  0  0  0  0  0  0  0  0
   36.9410   26.5590   32.8060 N   0  0  0  0  0  0  0  0  0  0  0  0
   36.8570   28.2780   34.0510 H   0  0  0  0  0  0  0  0  0  0  0  0
   37.7320   27.0930   36.0440 H   0  0  0  0  0  0  0  0  0  0  0  0
   37.0700   24.5460   31.4490 C   0  0  0  0  0  2  0  0  0  0  0  0
   35.5870   24.4270   31.1370 C   0  0  0  0  0  2  0  0  0  0  0  0
   35.4150   24.2740   30.0500 H   0  0  0  0  0  0  0  0  0  0  0  0
   41.2740   22.2430   36.9150 C   0  0  0  0  0  0  0  0  0  0  0  0
   41.1790   21.5630   35.7030 F   0  0  0  0  0  0  0  0  0  0  0  0
   42.3840   23.0720   36.9130 F   0  0  0  0  0  0  0  0  0  0  0  0
   41.4460   21.3000   37.8820 F   0  0  0  0  0  0  0  0  0  0  0  0
  1  2  1  0  0  0  0
  2  7  1  0  0  0  0
  2  3  2  0  0  0  0
  3  8  1  0  0  0  0
  4  3  1  0  0  0  0
  5  4  2  0  0  0  0
  6  1  2  0  0  0  0
  6  5  1  0  0  0  0
  9 15  1  0  0  0  0
  9 10  1  0  0  0  0
 10 16  1  0  0  0  0
 11 10  2  0  0  0  0
 11  1  1  0  0  0  0
 12 11  1  0  0  0  0
 13 14  1  0  0  0  0
 13 12  2  0  0  0  0
 14  9  2  0  0  0  0
 17 13  1  0  0  0  0
 18 17  1  0  0  0  0
 19 18  1  0  0  0  0
 20  5  1  0  0  0  0
 20 23  1  0  0  0  0
 21 20  1  0  0  0  0
 22 20  1  0  0  0  0
M  END
>  <minimizedAffinity>
-5.02756023

$$$$

 OpenBabel03272502243D

 23 24  0  0  0  0  0  0  0  0999 V2000
   38.4620   24.4250   36.1130 C   0  0  0  0  0  0  0  0  0  0  0  0
   37.8100   24.4360   37.3230 C   0  0  0  0  0  0  0  0  0  0  0  0
   38.2740   23.7230   38.4180 C   0  0  0  0  0  0  0  0  0  0  0  0
   39.3990   22.9900   38.3020 N   0  0  0  0  0  0  0  0  0  0  0  0
   40.0190   22.9920   37.1140 C   0  0  0  0  0  0  0  0  0  0  0  0
   39.5820   23.6770   36.0490 N   0  0  0  0  0  0  0  0  0  0  0  0
   36.9020   25.0190   37.4390 H   0  0  0  0  0  0  0  0  0  0  0  0
   37.7610   23.7300   39.3760 H   0  0  0  0  0  0  0  0  0  0  0  0
   37.4760   25.5450   32.6440 C   0  0  0  0  0  0  0  0  0  0  0  0
   37.9940   24.7170   33.6610 C   0  0  0  0  0  0  0  0  0  0  0  0
   37.9550   25.1870   34.9650 C   0  0  0  0  0  0  0  0  0  0  0  0
   37.4250   26.4090   35.1830 N   0  0  0  0  0  0  0  0  0  0  0  0
   36.9370   27.1790   34.1980 C   0  0  0  0  0  0  0  0  0  0  0  0
   36.9630   26.7450   32.9230 N   0  0  0  0  0  0  0  0  0  0  0  0
   37.5190   25.1500   31.6350 H   0  0  0  0  0  0  0  0  0  0  0  0
   38.4140   23.7470   33.4710 H   0  0  0  0  0  0  0  0  0  0  0  0
   36.3560   28.5240   34.4650 C   0  0  0  0  0  2  0  0  0  0  0  0
   35.5230   28.9740   33.2770 C   0  0  0  0  0  2  0  0  0  0  0  0
   34.7840   29.7490   33.5720 H   0  0  0  0  0  0  0  0  0  0  0  0
   41.2650   22.1930   36.9510 C   0  0  0  0  0  0  0  0  0  0  0  0
   42.3380   23.0780   36.8880 F   0  0  0  0  0  0  0  0  0  0  0  0
   41.4330   21.3110   38.0070 F   0  0  0  0  0  0  0  0  0  0  0  0
   41.2740   21.4800   35.7920 F   0  0  0  0  0  0  0  0  0  0  0  0
  1  2  1  0  0  0  0
  2  7  1  0  0  0  0
  2  3  2  0  0  0  0
  3  8  1  0  0  0  0
  4  3  1  0  0  0  0
  5  4  2  0  0  0  0
  6  1  2  0  0  0  0
  6  5  1  0  0  0  0
  9 14  2  0  0  0  0
  9 10  1  0  0  0  0
 10 11  2  0  0  0  0
 11 12  1  0  0  0  0
 11  1  1  0  0  0  0
 13 17  1  0  0  0  0
 13 12  2  0  0  0  0
 14 13  1  0  0  0  0
 15  9  1  0  0  0  0
 16 10  1  0  0  0  0
 18 19  1  0  0  0  0
 18 17  1  0  0  0  0
 20  5  1  0  0  0  0
 20 22  1  0  0  0  0
 21 20  1  0  0  0  0
 23 20  1  0  0  0  0
M  END
>  <minimizedAffinity>
-4.95081282

$$$$

 OpenBabel03272502243D

 23 24  0  0  0  0  0  0  0  0999 V2000
   39.3610   23.3090   34.9250 C   0  0  0  0  0  0  0  0  0  0  0  0
   40.4200   22.4470   35.0780 C   0  0  0  0  0  0  0  0  0  0  0  0
   40.8290   21.9930   36.3230 C   0  0  0  0  0  0  0  0  0  0  0  0
   40.1750   22.4080   37.4260 N   0  0  0  0  0  0  0  0  0  0  0  0
   39.1450   23.2490   37.2550 C   0  0  0  0  0  0  0  0  0  0  0  0
   38.7390   23.6930   36.0580 N   0  0  0  0  0  0  0  0  0  0  0  0
   40.9610   22.1000   34.2040 H   0  0  0  0  0  0  0  0  0  0  0  0
   41.6660   21.3110   36.4470 H   0  0  0  0  0  0  0  0  0  0  0  0
   39.2510   24.8840   31.4940 C   0  0  0  0  0  0  0  0  0  0  0  0
   39.7710   24.4890   32.7440 C   0  0  0  0  0  0  0  0  0  0  0  0
   38.9420   23.7770   33.5970 C   0  0  0  0  0  0  0  0  0  0  0  0
   37.6870   23.5050   33.1820 N   0  0  0  0  0  0  0  0  0  0  0  0
   37.2140   23.8910   31.9870 C   0  0  0  0  0  0  0  0  0  0  0  0
   38.0000   24.5830   31.1390 N   0  0  0  0  0  0  0  0  0  0  0  0
   39.9220   25.4380   30.8480 H   0  0  0  0  0  0  0  0  0  0  0  0
   40.7720   24.7140   33.0600 H   0  0  0  0  0  0  0  0  0  0  0  0
   35.8250   23.5770   31.5520 C   0  0  0  0  0  2  0  0  0  0  0  0
   35.1410   24.8390   31.0520 C   0  0  0  0  0  2  0  0  0  0  0  0
   34.2900   24.5970   30.3810 H   0  0  0  0  0  0  0  0  0  0  0  0
   38.4000   23.7260   38.4520 C   0  0  0  0  0  0  0  0  0  0  0  0
   39.2810   23.7360   39.5310 F   0  0  0  0  0  0  0  0  0  0  0  0
   37.8830   24.9950   38.2460 F   0  0  0  0  0  0  0  0  0  0  0  0
   37.3760   22.8960   38.7880 F   0  0  0  0  0  0  0  0  0  0  0  0
  1  2  2  0  0  0  0
  1  6  1  0  0  0  0
  2  3  1  0  0  0  0
  3  8  1  0  0  0  0
  3  4  2  0  0  0  0
  5  4  1  0  0  0  0
  5 20  1  0  0  0  0
  6  5  2  0  0  0  0
  7  2  1  0  0  0  0
  9 10  1  0  0  0  0
 10 16  1  0  0  0  0
 10 11  2  0  0  0  0
 11  1  1  0  0  0  0
 12 11  1  0  0  0  0
 13 12  2  0  0  0  0
 14  9  2  0  0  0  0
 14 13  1  0  0  0  0
 15  9  1  0  0  0  0
 17 13  1  0  0  0  0
 18 17  1  0  0  0  0
 19 18  1  0  0  0  0
 20 23  1  0  0  0  0
 20 21  1  0  0  0  0
 22 20  1  0  0  0  0
M  END
>  <minimizedAffinity>
-4.90272045

$$$$

 OpenBabel03272502243D

 23 24  0  0  0  0  0  0  0  0999 V2000
   37.7380   22.6550   34.6030 C   0  0  0  0  0  0  0  0  0  0  0  0
   38.3880   23.6890   33.9730 C   0  0  0  0  0  0  0  0  0  0  0  0
   39.0030   24.7130   34.6780 C   0  0  0  0  0  0  0  0  0  0  0  0
   38.9670   24.7040   36.0250 N   0  0  0  0  0  0  0  0  0  0  0  0
   38.3280   23.6870   36.6210 C   0  0  0  0  0  0  0  0  0  0  0  0
   37.7300   22.6920   35.9520 N   0  0  0  0  0  0  0  0  0  0  0  0
   38.4290   23.7160   32.8900 H   0  0  0  0  0  0  0  0  0  0  0  0
   39.5190   25.5310   34.1830 H   0  0  0  0  0  0  0  0  0  0  0  0
   35.4640   19.8600   33.4740 C   0  0  0  0  0  0  0  0  0  0  0  0
   35.9930   20.8720   34.3010 C   0  0  0  0  0  0  0  0  0  0  0  0
   37.0930   21.5790   33.8400 C   0  0  0  0  0  0  0  0  0  0  0  0
   37.5910   21.2580   32.6280 N   0  0  0  0  0  0  0  0  0  0  0  0
   37.0690   20.2910   31.8570 C   0  0  0  0  0  0  0  0  0  0  0  0
   36.0010   19.5890   32.2820 N   0  0  0  0  0  0  0  0  0  0  0  0
   34.6040   19.3240   33.8610 H   0  0  0  0  0  0  0  0  0  0  0  0
   35.5860   21.1140   35.2650 H   0  0  0  0  0  0  0  0  0  0  0  0
   37.6370   19.9560   30.5220 C   0  0  0  0  0  2  0  0  0  0  0  0
   36.6460   19.1180   29.7320 C   0  0  0  0  0  2  0  0  0  0  0  0
   36.8460   19.1780   28.6420 H   0  0  0  0  0  0  0  0  0  0  0  0
   38.2690   23.6470   38.1070 C   0  0  0  0  0  0  0  0  0  0  0  0
   37.2430   22.7780   38.4740 F   0  0  0  0  0  0  0  0  0  0  0  0
   39.4730   23.2170   38.6430 F   0  0  0  0  0  0  0  0  0  0  0  0
   37.9690   24.8600   38.6460 F   0  0  0  0  0  0  0  0  0  0  0  0
  1  6  1  0  0  0  0
  2  1  2  0  0  0  0
  2  3  1  0  0  0  0
  3  4  2  0  0  0  0
  4  5  1  0  0  0  0
  5 20  1  0  0  0  0
  6  5  2  0  0  0  0
  7  2  1  0  0  0  0
  8  3  1  0  0  0  0
  9 15  1  0  0  0  0
  9 10  1  0  0  0  0
 10 16  1  0  0  0  0
 11 10  2  0  0  0  0
 11  1  1  0  0  0  0
 12 11  1  0  0  0  0
 13 14  1  0  0  0  0
 13 12  2  0  0  0  0
 14  9  2  0  0  0  0
 17 13  1  0  0  0  0
 18 17  1  0  0  0  0
 19 18  1  0  0  0  0
 20 21  1  0  0  0  0
 20 22  1  0  0  0  0
 20 23  1  0  0  0  0
M  END
>  <minimizedAffinity>
-4.87527514

$$$$
