REMARK  Name = 
REMARK  4 active torsions:
REMARK  status: ('A' for Active; 'I' for Inactive)
REMARK    1  A    between atoms: C_3  and  N_7
REMARK    2  A    between atoms: C_9  and  C_23
REMARK    3  A    between atoms: N_12  and  C_15
REMARK    4  A    between atoms: C_23  and  C_24
REMARK                            x       y       z     vdW  Elec       q    Type
REMARK                         _______ _______ _______ _____ _____    ______ ____
ROOT
ATOM      1  N   UNL     1      37.443  31.138  47.049  0.00  0.00    +0.000 N 
ATOM      2  C   UNL     1      36.797  30.805  45.897  0.00  0.00    +0.000 A 
ATOM      3  C   UNL     1      37.233  31.270  44.663  0.00  0.00    +0.000 A 
ATOM      4  C   UNL     1      38.364  32.097  44.636  0.00  0.00    +0.000 A 
ATOM      5  O   UNL     1      38.794  32.541  43.541  0.00  0.00    +0.000 OA
ATOM      6  N   UNL     1      39.001  32.422  45.795  0.00  0.00    +0.000 N 
ATOM      7  C   UNL     1      38.497  31.919  46.934  0.00  0.00    +0.000 A 
ATOM      8  O   UNL     1      39.113  32.245  47.971  0.00  0.00    +0.000 OA
ATOM      9  H   UNL     1      35.925  30.165  45.939  0.00  0.00    +0.000 HD
ENDROOT
BRANCH   1  12
ATOM     10  C   UNL     1      37.407  29.944  50.566  0.00  0.00    +0.000 A 
ATOM     11  C   UNL     1      37.860  30.407  49.324  0.00  0.00    +0.000 A 
ATOM     12  C   UNL     1      36.998  30.668  48.289  0.00  0.00    +0.000 A 
ATOM     13  N   UNL     1      35.690  30.452  48.532  0.00  0.00    +0.000 NA
ATOM     14  C   UNL     1      35.199  30.006  49.710  0.00  0.00    +0.000 A 
ATOM     15  N   UNL     1      36.064  29.750  50.734  0.00  0.00    +0.000 NA
ATOM     16  H   UNL     1      38.038  29.723  51.416  0.00  0.00    +0.000 HD
ATOM     17  H   UNL     1      38.917  30.498  49.336  0.00  0.00    +0.000 HD
ATOM     18  H   UNL     1      34.123  29.862  49.809  0.00  0.00    +0.000 HD
ENDBRANCH   1  12
BRANCH   6  19
ATOM     19  C   UNL     1      40.175  33.274  45.775  0.00  0.00    +0.000 C 
ATOM     20  F   UNL     1      40.041  34.224  44.803  0.00  0.00    +0.000 F 
ATOM     21  F   UNL     1      41.336  32.590  45.510  0.00  0.00    +0.000 F 
ATOM     22  F   UNL     1      40.267  33.943  47.001  0.00  0.00    +0.000 F 
ENDBRANCH   6  19
BRANCH   3  23
ATOM     23  C   UNL     1      36.511  30.898  43.423  0.00  0.00    +0.000 C 
BRANCH  23  24
ATOM     24  C   UNL     1      35.011  30.997  43.605  0.00  0.00    +0.000 C 
ATOM     25  H   UNL     1      34.553  31.136  42.627  0.00  0.00    +0.000 HD
ENDBRANCH  23  24
ENDBRANCH   3  23
TORSDOF 4
