
 OpenBabel03272504263D

 36 38  0  0  0  0  0  0  0  0999 V2000
   35.6530   29.7310   48.3820 C   0  0  0  0  0  0  0  0  0  0  0  0
   35.4660   28.7720   49.3130 C   0  0  0  0  0  0  0  0  0  0  0  0
   34.6530   27.7350   49.0870 C   0  0  0  0  0  0  0  0  0  0  0  0
   34.0070   27.6570   47.8950 N   0  0  0  0  0  0  0  0  0  0  0  0
   34.1980   28.6040   46.9850 C   0  0  0  0  0  0  0  0  0  0  0  0
   35.0110   29.6460   47.2040 N   0  0  0  0  0  0  0  0  0  0  0  0
   35.9850   28.8430   50.2610 H   0  0  0  0  0  0  0  0  0  0  0  0
   34.5160   26.9810   49.8410 H   0  0  0  0  0  0  0  0  0  0  0  0
   32.1160   28.1130   45.7760 C   0  0  0  0  0  0  0  0  0  0  0  0
   33.4800   28.4030   45.7450 C   0  0  0  0  0  0  0  0  0  0  0  0
   34.2270   28.4930   44.5870 C   0  0  0  0  0  0  0  0  0  0  0  0
   33.6050   28.2840   43.3770 C   0  0  0  0  0  0  0  0  0  0  0  0
   32.2630   27.9910   43.3070 C   0  0  0  0  0  0  0  0  0  0  0  0
   31.6130   27.9250   44.4950 C   0  0  0  0  0  0  0  0  0  0  0  0
   35.2830   28.7220   44.6110 H   0  0  0  0  0  0  0  0  0  0  0  0
   34.1930   28.3540   42.4630 H   0  0  0  0  0  0  0  0  0  0  0  0
   31.7710   27.8260   42.3790 H   0  0  0  0  0  0  0  0  0  0  0  0
   30.5390   27.6900   44.4360 H   0  0  0  0  0  0  0  0  0  0  0  0
   31.1790   28.0180   47.1510 S   0  0  0  0  0  0  0  0  0  0  0  0
   30.4230   26.7030   46.7660 O   0  0  0  0  0  0  0  0  0  0  0  0
   30.2000   29.1610   47.1040 O   0  0  0  0  0  0  0  0  0  0  0  0
   30.9510   27.6340   48.6830 C   0  0  0  0  0  0  0  0  0  0  0  0
   30.5260   26.3730   49.1510 F   0  0  0  0  0  0  0  0  0  0  0  0
   29.6890   28.2230   49.1600 F   0  0  0  0  0  0  0  0  0  0  0  0
   31.5830   28.3550   49.7360 F   0  0  0  0  0  0  0  0  0  0  0  0
   37.3250   32.6500   49.8600 C   0  0  0  0  0  0  0  0  0  0  0  0
   38.2790   32.9890   48.8740 C   0  0  0  0  0  0  0  0  0  0  0  0
   38.3170   32.1910   47.7130 C   0  0  0  0  0  0  0  0  0  0  0  0
   37.4440   31.1640   47.6250 N   0  0  0  0  0  0  0  0  0  0  0  0
   36.5350   30.8650   48.5970 C   0  0  0  0  0  0  0  0  0  0  0  0
   36.4890   31.6120   49.7000 N   0  0  0  0  0  0  0  0  0  0  0  0
   37.3570   33.3000   50.7090 H   0  0  0  0  0  0  0  0  0  0  0  0
   38.9680   33.8160   48.9670 H   0  0  0  0  0  0  0  0  0  0  0  0
   39.2910   32.4780   46.6250 C   0  0  0  0  0  0  0  0  0  0  0  0
   39.8120   31.1560   46.0500 C   0  0  0  0  0  0  0  0  0  0  0  0
   39.9890   30.4620   46.8870 H   0  0  0  0  0  0  0  0  0  0  0  0
  1 30  1  0  0  0  0
  1  2  1  0  0  0  0
  2  7  1  0  0  0  0
  3  2  2  0  0  0  0
  3  8  1  0  0  0  0
  4  3  1  0  0  0  0
  5  6  1  0  0  0  0
  5  4  2  0  0  0  0
  6  1  2  0  0  0  0
  9 19  1  0  0  0  0
 10  9  1  0  0  0  0
 10  5  1  0  0  0  0
 11 15  1  0  0  0  0
 11 10  2  0  0  0  0
 12 11  1  0  0  0  0
 13 12  2  0  0  0  0
 13 14  1  0  0  0  0
 14  9  2  0  0  0  0
 16 12  1  0  0  0  0
 17 13  1  0  0  0  0
 18 14  1  0  0  0  0
 19 22  1  0  0  0  0
 20 19  2  0  0  0  0
 21 19  2  0  0  0  0
 22 23  1  0  0  0  0
 22 24  1  0  0  0  0
 22 25  1  0  0  0  0
 26 32  1  0  0  0  0
 27 33  1  0  0  0  0
 27 26  2  0  0  0  0
 28 27  1  0  0  0  0
 29 28  2  0  0  0  0
 29 30  1  0  0  0  0
 30 31  2  0  0  0  0
 31 26  1  0  0  0  0
 34 28  1  0  0  0  0
 35 34  1  0  0  0  0
 35 36  1  0  0  0  0
M  END
>  <minimizedAffinity>
-5.67978573

>  <minimizedRMSD>
0.167496949

$$$$
