
 OpenBabel03272509003D

 22 23  0  0  0  0  0  0  0  0999 V2000
   38.8660   32.3170   48.9460 Cl  0  0  0  0  0  0  0  0  0  0  0  0
   37.5020   31.3990   48.3690 C   0  0  0  0  0  0  0  0  0  0  0  0
   37.4160   31.1060   47.0200 C   0  0  0  0  0  0  0  0  0  0  0  0
   36.3560   30.3880   46.5250 C   0  0  0  0  0  0  0  0  0  0  0  0
   35.3470   29.9400   47.3590 C   0  0  0  0  0  0  0  0  0  0  0  0
   35.4160   30.2240   48.7150 C   0  0  0  0  0  0  0  0  0  0  0  0
   34.2070   29.7120   49.8720 Cl  0  0  0  0  0  0  0  0  0  0  0  0
   36.4960   30.9480   49.1750 C   0  0  0  0  0  0  0  0  0  0  0  0
   36.2660   30.1440   45.4710 H   0  0  0  0  0  0  0  0  0  0  0  0
   34.5040   29.3730   46.9930 H   0  0  0  0  0  0  0  0  0  0  0  0
   39.2060   33.0110   44.4460 C   0  0  0  0  0  0  0  0  0  0  0  0
   40.4550   32.3930   44.4110 C   0  0  0  0  0  0  0  0  0  0  0  0
   40.6690   31.3030   45.2940 C   0  0  0  0  0  0  0  0  0  0  0  0
   39.6480   30.9260   46.1180 N   0  0  0  0  0  0  0  0  0  0  0  0
   38.4560   31.5620   46.1090 C   0  0  0  0  0  0  0  0  0  0  0  0
   38.2470   32.5960   45.2760 N   0  0  0  0  0  0  0  0  0  0  0  0
   39.0080   33.8450   43.7910 H   0  0  0  0  0  0  0  0  0  0  0  0
   41.1980   32.7440   43.7420 H   0  0  0  0  0  0  0  0  0  0  0  0
   41.6280   30.8030   45.2880 H   0  0  0  0  0  0  0  0  0  0  0  0
   36.6670   31.3110   50.6270 C   0  0  0  0  0  0  0  0  0  0  0  0
   37.3480   30.2040   51.4020 C   0  0  0  0  0  0  0  0  0  0  0  0
   36.6310   29.8570   52.2020 H   0  0  0  0  0  0  0  0  0  0  0  0
  2  1  1  0  0  0  0
  2  8  1  0  0  0  0
  3  2  2  0  0  0  0
  4  3  1  0  0  0  0
  4  5  2  0  0  0  0
  5  6  1  0  0  0  0
  6  8  2  0  0  0  0
  6  7  1  0  0  0  0
  8 20  1  0  0  0  0
  9  4  1  0  0  0  0
 10  5  1  0  0  0  0
 11 16  1  0  0  0  0
 12 11  2  0  0  0  0
 12 13  1  0  0  0  0
 13 14  2  0  0  0  0
 15 14  1  0  0  0  0
 15  3  1  0  0  0  0
 16 15  2  0  0  0  0
 17 11  1  0  0  0  0
 18 12  1  0  0  0  0
 19 13  1  0  0  0  0
 20 21  1  0  0  0  0
 21 22  1  0  0  0  0
M  END
>  <minimizedAffinity>
-5.86205101

>  <minimizedRMSD>
3.48546791

$$$$
