
 OpenBabel03272506243D

 25 26  0  0  0  0  0  0  0  0999 V2000
   39.6130   24.0510   35.3030 C   0  0  0  0  0  0  0  0  0  0  0  0
   40.9370   24.1800   34.9450 C   0  0  0  0  0  0  0  0  0  0  0  0
   41.9980   23.6310   35.6480 C   0  0  0  0  0  0  0  0  0  0  0  0
   41.7130   22.8810   36.8160 C   0  0  0  0  0  0  0  0  0  0  0  0
   40.3710   22.7520   37.1750 C   0  0  0  0  0  0  0  0  0  0  0  0
   39.3340   23.3060   36.4650 C   0  0  0  0  0  0  0  0  0  0  0  0
   41.2410   24.7390   34.0590 H   0  0  0  0  0  0  0  0  0  0  0  0
   43.0100   23.7490   35.3500 H   0  0  0  0  0  0  0  0  0  0  0  0
   42.4850   22.4200   37.4160 H   0  0  0  0  0  0  0  0  0  0  0  0
   40.0860   22.2010   38.0360 H   0  0  0  0  0  0  0  0  0  0  0  0
   38.1570   23.9270   33.3480 C   0  0  0  0  0  0  0  0  0  0  0  0
   38.6410   24.6830   34.4600 C   0  0  0  0  0  0  0  0  0  0  0  0
   38.1300   25.9690   34.6260 C   0  0  0  0  0  0  0  0  0  0  0  0
   37.2130   26.4220   33.7320 N   0  0  0  0  0  0  0  0  0  0  0  0
   36.7660   25.6770   32.6760 C   0  0  0  0  0  0  0  0  0  0  0  0
   37.2560   24.4190   32.5010 N   0  0  0  0  0  0  0  0  0  0  0  0
   38.5000   22.9210   33.1510 H   0  0  0  0  0  0  0  0  0  0  0  0
   36.0470   26.0910   32.0080 H   0  0  0  0  0  0  0  0  0  0  0  0
   38.5350   26.8570   35.7260 C   0  0  0  0  0  0  0  0  0  0  0  0
   37.8950   28.1110   35.5860 F   0  0  0  0  0  0  0  0  0  0  0  0
   38.3290   26.4080   36.9900 F   0  0  0  0  0  0  0  0  0  0  0  0
   39.8870   27.1810   35.6050 F   0  0  0  0  0  0  0  0  0  0  0  0
   37.9080   23.1830   36.8520 C   0  0  0  0  0  2  0  0  0  0  0  0
   37.6960   23.4250   38.3180 C   0  0  0  0  0  2  0  0  0  0  0  0
   37.8690   22.5540   38.9620 H   0  0  0  0  0  0  0  0  0  0  0  0
  1  6  1  0  0  0  0
  2  1  2  0  0  0  0
  2  3  1  0  0  0  0
  3  4  2  0  0  0  0
  4  5  1  0  0  0  0
  4  9  1  0  0  0  0
  5 10  1  0  0  0  0
  6 23  1  0  0  0  0
  6  5  2  0  0  0  0
  7  2  1  0  0  0  0
  8  3  1  0  0  0  0
 11 12  1  0  0  0  0
 12 13  2  0  0  0  0
 12  1  1  0  0  0  0
 13 19  1  0  0  0  0
 14 13  1  0  0  0  0
 15 14  2  0  0  0  0
 16 15  1  0  0  0  0
 16 11  2  0  0  0  0
 17 11  1  0  0  0  0
 18 15  1  0  0  0  0
 19 21  1  0  0  0  0
 20 19  1  0  0  0  0
 22 19  1  0  0  0  0
 23 24  1  0  0  0  0
 24 25  1  0  0  0  0
M  END
>  <minimizedAffinity>
-5.14701605

$$$$

 OpenBabel03272506243D

 25 26  0  0  0  0  0  0  0  0999 V2000
   38.8330   25.2030   35.3630 C   0  0  0  0  0  0  0  0  0  0  0  0
   38.9060   26.4800   35.8740 C   0  0  0  0  0  0  0  0  0  0  0  0
   38.1990   27.5660   35.3820 C   0  0  0  0  0  0  0  0  0  0  0  0
   37.3360   27.3600   34.2780 C   0  0  0  0  0  0  0  0  0  0  0  0
   37.2630   26.0660   33.7620 C   0  0  0  0  0  0  0  0  0  0  0  0
   37.9750   25.0030   34.2640 C   0  0  0  0  0  0  0  0  0  0  0  0
   39.5440   26.7220   36.7250 H   0  0  0  0  0  0  0  0  0  0  0  0
   38.2770   28.5400   35.7960 H   0  0  0  0  0  0  0  0  0  0  0  0
   36.7500   28.1560   33.8390 H   0  0  0  0  0  0  0  0  0  0  0  0
   36.6340   25.8400   32.9370 H   0  0  0  0  0  0  0  0  0  0  0  0
   40.9030   23.9120   35.4060 C   0  0  0  0  0  0  0  0  0  0  0  0
   39.6320   24.1950   35.9950 C   0  0  0  0  0  0  0  0  0  0  0  0
   39.2800   23.4660   37.1290 C   0  0  0  0  0  0  0  0  0  0  0  0
   40.1540   22.5410   37.6020 N   0  0  0  0  0  0  0  0  0  0  0  0
   41.3640   22.2880   37.0190 C   0  0  0  0  0  0  0  0  0  0  0  0
   41.7230   22.9930   35.9100 N   0  0  0  0  0  0  0  0  0  0  0  0
   41.2530   24.4350   34.5280 H   0  0  0  0  0  0  0  0  0  0  0  0
   42.0050   21.5460   37.4360 H   0  0  0  0  0  0  0  0  0  0  0  0
   38.0060   23.6560   37.8400 C   0  0  0  0  0  0  0  0  0  0  0  0
   38.0180   24.9000   38.5140 F   0  0  0  0  0  0  0  0  0  0  0  0
   36.8700   23.5760   37.1030 F   0  0  0  0  0  0  0  0  0  0  0  0
   37.9010   22.7360   38.8840 F   0  0  0  0  0  0  0  0  0  0  0  0
   37.9110   23.6300   33.7080 C   0  0  0  0  0  2  0  0  0  0  0  0
   37.3410   23.6050   32.3200 C   0  0  0  0  0  2  0  0  0  0  0  0
   36.2450   23.5970   32.2690 H   0  0  0  0  0  0  0  0  0  0  0  0
  1  2  1  0  0  0  0
  1 12  1  0  0  0  0
  2  7  1  0  0  0  0
  3  8  1  0  0  0  0
  3  2  2  0  0  0  0
  4  3  1  0  0  0  0
  5  6  1  0  0  0  0
  5  4  2  0  0  0  0
  6  1  2  0  0  0  0
  9  4  1  0  0  0  0
 10  5  1  0  0  0  0
 11 16  2  0  0  0  0
 11 12  1  0  0  0  0
 12 13  2  0  0  0  0
 13 14  1  0  0  0  0
 13 19  1  0  0  0  0
 15 18  1  0  0  0  0
 15 14  2  0  0  0  0
 16 15  1  0  0  0  0
 17 11  1  0  0  0  0
 19 20  1  0  0  0  0
 19 22  1  0  0  0  0
 21 19  1  0  0  0  0
 23  6  1  0  0  0  0
 24 23  1  0  0  0  0
 25 24  1  0  0  0  0
M  END
>  <minimizedAffinity>
-5.05663204

$$$$

 OpenBabel03272506243D

 25 26  0  0  0  0  0  0  0  0999 V2000
   38.9100   24.1000   35.9010 C   0  0  0  0  0  0  0  0  0  0  0  0
   37.9540   24.5890   36.7640 C   0  0  0  0  0  0  0  0  0  0  0  0
   37.8910   24.2920   38.1170 C   0  0  0  0  0  0  0  0  0  0  0  0
   38.8720   23.4270   38.6610 C   0  0  0  0  0  0  0  0  0  0  0  0
   39.8390   22.9330   37.7840 C   0  0  0  0  0  0  0  0  0  0  0  0
   39.8820   23.2400   36.4450 C   0  0  0  0  0  0  0  0  0  0  0  0
   37.1660   25.2630   36.4270 H   0  0  0  0  0  0  0  0  0  0  0  0
   37.1410   24.6820   38.7580 H   0  0  0  0  0  0  0  0  0  0  0  0
   38.8910   23.1490   39.7050 H   0  0  0  0  0  0  0  0  0  0  0  0
   40.6050   22.2830   38.1250 H   0  0  0  0  0  0  0  0  0  0  0  0
   38.0090   23.7240   33.6640 C   0  0  0  0  0  0  0  0  0  0  0  0
   38.8290   24.5120   34.5300 C   0  0  0  0  0  0  0  0  0  0  0  0
   39.4790   25.6090   33.9680 C   0  0  0  0  0  0  0  0  0  0  0  0
   39.2990   25.8610   32.6460 N   0  0  0  0  0  0  0  0  0  0  0  0
   38.5100   25.0900   31.8380 C   0  0  0  0  0  0  0  0  0  0  0  0
   37.8670   24.0150   32.3740 N   0  0  0  0  0  0  0  0  0  0  0  0
   37.4690   22.8600   34.0220 H   0  0  0  0  0  0  0  0  0  0  0  0
   38.4110   25.3390   30.8070 H   0  0  0  0  0  0  0  0  0  0  0  0
   40.3490   26.5080   34.7410 C   0  0  0  0  0  0  0  0  0  0  0  0
   39.5830   27.1860   35.7200 F   0  0  0  0  0  0  0  0  0  0  0  0
   41.4280   25.9530   35.3470 F   0  0  0  0  0  0  0  0  0  0  0  0
   40.8050   27.5470   33.9280 F   0  0  0  0  0  0  0  0  0  0  0  0
   40.8990   22.7050   35.5080 C   0  0  0  0  0  2  0  0  0  0  0  0
   42.2830   22.7430   36.0890 C   0  0  0  0  0  2  0  0  0  0  0  0
   42.8020   23.7040   35.9880 H   0  0  0  0  0  0  0  0  0  0  0  0
  1  6  2  0  0  0  0
  1  2  1  0  0  0  0
  2  3  2  0  0  0  0
  3  4  1  0  0  0  0
  3  8  1  0  0  0  0
  4  9  1  0  0  0  0
  5 10  1  0  0  0  0
  5  4  2  0  0  0  0
  6  5  1  0  0  0  0
  7  2  1  0  0  0  0
 11 17  1  0  0  0  0
 11 12  1  0  0  0  0
 12  1  1  0  0  0  0
 13 12  2  0  0  0  0
 13 19  1  0  0  0  0
 14 13  1  0  0  0  0
 15 16  1  0  0  0  0
 15 14  2  0  0  0  0
 16 11  2  0  0  0  0
 18 15  1  0  0  0  0
 19 21  1  0  0  0  0
 19 20  1  0  0  0  0
 22 19  1  0  0  0  0
 23 24  1  0  0  0  0
 23  6  1  0  0  0  0
 25 24  1  0  0  0  0
M  END
>  <minimizedAffinity>
-4.98451471

$$$$

 OpenBabel03272506243D

 25 26  0  0  0  0  0  0  0  0999 V2000
   39.3160   24.0170   35.5090 C   0  0  0  0  0  0  0  0  0  0  0  0
   38.7210   23.4020   36.5870 C   0  0  0  0  0  0  0  0  0  0  0  0
   39.4050   22.7080   37.5730 C   0  0  0  0  0  0  0  0  0  0  0  0
   40.8150   22.6210   37.4760 C   0  0  0  0  0  0  0  0  0  0  0  0
   41.4160   23.2450   36.3820 C   0  0  0  0  0  0  0  0  0  0  0  0
   40.7180   23.9270   35.4150 C   0  0  0  0  0  0  0  0  0  0  0  0
   37.6410   23.4240   36.7370 H   0  0  0  0  0  0  0  0  0  0  0  0
   38.9180   22.2410   38.3930 H   0  0  0  0  0  0  0  0  0  0  0  0
   41.4200   22.0990   38.2060 H   0  0  0  0  0  0  0  0  0  0  0  0
   42.4690   23.2220   36.2500 H   0  0  0  0  0  0  0  0  0  0  0  0
   37.9680   23.9330   33.4760 C   0  0  0  0  0  0  0  0  0  0  0  0
   38.4570   24.6940   34.5820 C   0  0  0  0  0  0  0  0  0  0  0  0
   38.0590   26.0270   34.6630 C   0  0  0  0  0  0  0  0  0  0  0  0
   37.2410   26.5190   33.6970 N   0  0  0  0  0  0  0  0  0  0  0  0
   36.7880   25.7690   32.6470 C   0  0  0  0  0  0  0  0  0  0  0  0
   37.1680   24.4640   32.5550 N   0  0  0  0  0  0  0  0  0  0  0  0
   38.2270   22.8920   33.3420 H   0  0  0  0  0  0  0  0  0  0  0  0
   36.1500   26.2140   31.9190 H   0  0  0  0  0  0  0  0  0  0  0  0
   38.4820   26.9260   35.7480 C   0  0  0  0  0  0  0  0  0  0  0  0
   37.8730   28.1920   35.5810 F   0  0  0  0  0  0  0  0  0  0  0  0
   38.2620   26.5060   37.0190 F   0  0  0  0  0  0  0  0  0  0  0  0
   39.8420   27.2160   35.6250 F   0  0  0  0  0  0  0  0  0  0  0  0
   41.3520   24.5790   34.2440 C   0  0  0  0  0  2  0  0  0  0  0  0
   42.5150   25.4430   34.6360 C   0  0  0  0  0  2  0  0  0  0  0  0
   42.2510   26.4560   34.9630 H   0  0  0  0  0  0  0  0  0  0  0  0
  1  2  1  0  0  0  0
  2  7  1  0  0  0  0
  2  3  2  0  0  0  0
  3  8  1  0  0  0  0
  4  3  1  0  0  0  0
  4  9  1  0  0  0  0
  5  4  2  0  0  0  0
  6  1  2  0  0  0  0
  6  5  1  0  0  0  0
 10  5  1  0  0  0  0
 11 12  1  0  0  0  0
 12 13  2  0  0  0  0
 12  1  1  0  0  0  0
 13 19  1  0  0  0  0
 14 13  1  0  0  0  0
 15 14  2  0  0  0  0
 16 15  1  0  0  0  0
 16 11  2  0  0  0  0
 17 11  1  0  0  0  0
 18 15  1  0  0  0  0
 19 21  1  0  0  0  0
 20 19  1  0  0  0  0
 22 19  1  0  0  0  0
 23 24  1  0  0  0  0
 23  6  1  0  0  0  0
 24 25  1  0  0  0  0
M  END
>  <minimizedAffinity>
-4.93988752

$$$$

 OpenBabel03272506243D

 25 26  0  0  0  0  0  0  0  0999 V2000
   38.7450   24.1170   34.4930 C   0  0  0  0  0  0  0  0  0  0  0  0
   38.0670   23.2730   33.6420 C   0  0  0  0  0  0  0  0  0  0  0  0
   37.2390   23.6930   32.6120 C   0  0  0  0  0  0  0  0  0  0  0  0
   37.0730   25.0850   32.4110 C   0  0  0  0  0  0  0  0  0  0  0  0
   37.7610   25.9380   33.2750 C   0  0  0  0  0  0  0  0  0  0  0  0
   38.5760   25.5000   34.2910 C   0  0  0  0  0  0  0  0  0  0  0  0
   38.1430   22.1880   33.7270 H   0  0  0  0  0  0  0  0  0  0  0  0
   36.7270   23.0190   31.9730 H   0  0  0  0  0  0  0  0  0  0  0  0
   36.4470   25.4910   31.6290 H   0  0  0  0  0  0  0  0  0  0  0  0
   37.6850   26.9920   33.1780 H   0  0  0  0  0  0  0  0  0  0  0  0
   40.9280   23.2630   35.1710 C   0  0  0  0  0  0  0  0  0  0  0  0
   39.5610   23.5120   35.5050 C   0  0  0  0  0  0  0  0  0  0  0  0
   39.1400   23.1430   36.7800 C   0  0  0  0  0  0  0  0  0  0  0  0
   40.0420   22.5750   37.6220 N   0  0  0  0  0  0  0  0  0  0  0  0
   41.3450   22.3470   37.2780 C   0  0  0  0  0  0  0  0  0  0  0  0
   41.7720   22.7030   36.0340 N   0  0  0  0  0  0  0  0  0  0  0  0
   41.3350   23.5230   34.2040 H   0  0  0  0  0  0  0  0  0  0  0  0
   42.0040   21.8950   37.9830 H   0  0  0  0  0  0  0  0  0  0  0  0
   37.7640   23.3430   37.2600 C   0  0  0  0  0  0  0  0  0  0  0  0
   37.6810   22.9950   38.6290 F   0  0  0  0  0  0  0  0  0  0  0  0
   37.2270   24.5780   37.0960 F   0  0  0  0  0  0  0  0  0  0  0  0
   36.9080   22.4230   36.6520 F   0  0  0  0  0  0  0  0  0  0  0  0
   39.2960   26.4030   35.2190 C   0  0  0  0  0  2  0  0  0  0  0  0
   38.3950   27.4490   35.8080 C   0  0  0  0  0  2  0  0  0  0  0  0
   38.2420   28.3360   35.1820 H   0  0  0  0  0  0  0  0  0  0  0  0
  1 12  1  0  0  0  0
  2  7  1  0  0  0  0
  2  1  2  0  0  0  0
  3  2  1  0  0  0  0
  4  3  2  0  0  0  0
  4  5  1  0  0  0  0
  5  6  2  0  0  0  0
  6  1  1  0  0  0  0
  6 23  1  0  0  0  0
  8  3  1  0  0  0  0
  9  4  1  0  0  0  0
 10  5  1  0  0  0  0
 11 12  2  0  0  0  0
 11 16  1  0  0  0  0
 12 13  1  0  0  0  0
 13 19  1  0  0  0  0
 13 14  2  0  0  0  0
 15 14  1  0  0  0  0
 15 18  1  0  0  0  0
 16 15  2  0  0  0  0
 17 11  1  0  0  0  0
 19 20  1  0  0  0  0
 21 19  1  0  0  0  0
 22 19  1  0  0  0  0
 23 24  1  0  0  0  0
 25 24  1  0  0  0  0
M  END
>  <minimizedAffinity>
-4.77320576

$$$$

 OpenBabel03272506243D

 25 26  0  0  0  0  0  0  0  0999 V2000
   39.6510   24.3200   35.7600 C   0  0  0  0  0  0  0  0  0  0  0  0
   40.9280   24.2540   35.2500 C   0  0  0  0  0  0  0  0  0  0  0  0
   41.9090   23.3810   35.6970 C   0  0  0  0  0  0  0  0  0  0  0  0
   41.5860   22.4900   36.7490 C   0  0  0  0  0  0  0  0  0  0  0  0
   40.2910   22.5600   37.2640 C   0  0  0  0  0  0  0  0  0  0  0  0
   39.3340   23.4340   36.8080 C   0  0  0  0  0  0  0  0  0  0  0  0
   41.2570   24.9030   34.4370 H   0  0  0  0  0  0  0  0  0  0  0  0
   42.8870   23.3540   35.2850 H   0  0  0  0  0  0  0  0  0  0  0  0
   42.2950   21.7790   37.1510 H   0  0  0  0  0  0  0  0  0  0  0  0
   39.9800   21.9190   38.0510 H   0  0  0  0  0  0  0  0  0  0  0  0
   38.7100   26.5720   35.7930 C   0  0  0  0  0  0  0  0  0  0  0  0
   38.7610   25.2820   35.1790 C   0  0  0  0  0  0  0  0  0  0  0  0
   37.9410   25.0710   34.0730 C   0  0  0  0  0  0  0  0  0  0  0  0
   37.1500   26.0900   33.6490 N   0  0  0  0  0  0  0  0  0  0  0  0
   37.1190   27.3150   34.2540 C   0  0  0  0  0  0  0  0  0  0  0  0
   37.9160   27.5370   35.3370 N   0  0  0  0  0  0  0  0  0  0  0  0
   39.3170   26.8180   36.6520 H   0  0  0  0  0  0  0  0  0  0  0  0
   36.4740   28.0730   33.8750 H   0  0  0  0  0  0  0  0  0  0  0  0
   37.8940   23.7950   33.3420 C   0  0  0  0  0  0  0  0  0  0  0  0
   36.8680   23.8430   32.3680 F   0  0  0  0  0  0  0  0  0  0  0  0
   39.0390   23.3850   32.7420 F   0  0  0  0  0  0  0  0  0  0  0  0
   37.4690   22.7730   34.1920 F   0  0  0  0  0  0  0  0  0  0  0  0
   37.9620   23.5200   37.3630 C   0  0  0  0  0  2  0  0  0  0  0  0
   37.9200   24.2770   38.6590 C   0  0  0  0  0  2  0  0  0  0  0  0
   38.1640   23.6850   39.5500 H   0  0  0  0  0  0  0  0  0  0  0  0
  1  6  1  0  0  0  0
  2  3  1  0  0  0  0
  2  1  2  0  0  0  0
  3  4  2  0  0  0  0
  4  9  1  0  0  0  0
  4  5  1  0  0  0  0
  5 10  1  0  0  0  0
  6  5  2  0  0  0  0
  6 23  1  0  0  0  0
  7  2  1  0  0  0  0
  8  3  1  0  0  0  0
 11 17  1  0  0  0  0
 12  1  1  0  0  0  0
 12 11  2  0  0  0  0
 13 12  1  0  0  0  0
 14 13  2  0  0  0  0
 14 15  1  0  0  0  0
 15 16  2  0  0  0  0
 16 11  1  0  0  0  0
 18 15  1  0  0  0  0
 19 13  1  0  0  0  0
 19 22  1  0  0  0  0
 20 19  1  0  0  0  0
 21 19  1  0  0  0  0
 23 24  1  0  0  0  0
 24 25  1  0  0  0  0
M  END
>  <minimizedAffinity>
-4.75427103

$$$$

 OpenBabel03272506243D

 25 26  0  0  0  0  0  0  0  0999 V2000
   38.5940   26.4130   33.0030 C   0  0  0  0  0  0  0  0  0  0  0  0
   39.6780   26.7630   32.2290 C   0  0  0  0  0  0  0  0  0  0  0  0
   40.9160   27.1360   32.7310 C   0  0  0  0  0  0  0  0  0  0  0  0
   41.0890   27.1620   34.1370 C   0  0  0  0  0  0  0  0  0  0  0  0
   39.9900   26.8070   34.9180 C   0  0  0  0  0  0  0  0  0  0  0  0
   38.7710   26.4420   34.4000 C   0  0  0  0  0  0  0  0  0  0  0  0
   39.6290   26.7670   31.1390 H   0  0  0  0  0  0  0  0  0  0  0  0
   41.7330   27.4040   32.1090 H   0  0  0  0  0  0  0  0  0  0  0  0
   42.0240   27.4400   34.6040 H   0  0  0  0  0  0  0  0  0  0  0  0
   40.0510   26.8010   35.9780 H   0  0  0  0  0  0  0  0  0  0  0  0
   37.2260   24.6730   31.9760 C   0  0  0  0  0  0  0  0  0  0  0  0
   37.3880   26.0510   32.3180 C   0  0  0  0  0  0  0  0  0  0  0  0
   36.3630   26.9220   31.9550 C   0  0  0  0  0  0  0  0  0  0  0  0
   35.2830   26.4170   31.3050 N   0  0  0  0  0  0  0  0  0  0  0  0
   35.1530   25.0930   30.9880 C   0  0  0  0  0  0  0  0  0  0  0  0
   36.1470   24.2290   31.3370 N   0  0  0  0  0  0  0  0  0  0  0  0
   37.9730   23.9330   32.2250 H   0  0  0  0  0  0  0  0  0  0  0  0
   34.2820   24.7590   30.4730 H   0  0  0  0  0  0  0  0  0  0  0  0
   36.3940   28.3630   32.2470 C   0  0  0  0  0  0  0  0  0  0  0  0
   35.2230   28.9770   31.7430 F   0  0  0  0  0  0  0  0  0  0  0  0
   36.5460   28.7270   33.5450 F   0  0  0  0  0  0  0  0  0  0  0  0
   37.4100   28.9770   31.5120 F   0  0  0  0  0  0  0  0  0  0  0  0
   37.5960   26.0780   35.2280 C   0  0  0  0  0  2  0  0  0  0  0  0
   37.9400   25.0780   36.2930 C   0  0  0  0  0  2  0  0  0  0  0  0
   37.9380   24.0310   35.9640 H   0  0  0  0  0  0  0  0  0  0  0  0
  1  6  1  0  0  0  0
  2  3  1  0  0  0  0
  2  1  2  0  0  0  0
  3  4  2  0  0  0  0
  4  9  1  0  0  0  0
  4  5  1  0  0  0  0
  5 10  1  0  0  0  0
  6  5  2  0  0  0  0
  6 23  1  0  0  0  0
  7  2  1  0  0  0  0
  8  3  1  0  0  0  0
 11 17  1  0  0  0  0
 11 12  1  0  0  0  0
 12  1  1  0  0  0  0
 13 19  1  0  0  0  0
 13 12  2  0  0  0  0
 14 13  1  0  0  0  0
 15 14  2  0  0  0  0
 15 16  1  0  0  0  0
 16 11  2  0  0  0  0
 18 15  1  0  0  0  0
 19 21  1  0  0  0  0
 20 19  1  0  0  0  0
 22 19  1  0  0  0  0
 23 24  1  0  0  0  0
 25 24  1  0  0  0  0
M  END
>  <minimizedAffinity>
-4.72180414

$$$$

 OpenBabel03272506243D

 25 26  0  0  0  0  0  0  0  0999 V2000
   40.2270   23.8200   35.2480 C   0  0  0  0  0  0  0  0  0  0  0  0
   41.4130   23.1650   35.4930 C   0  0  0  0  0  0  0  0  0  0  0  0
   42.6620   23.7680   35.4840 C   0  0  0  0  0  0  0  0  0  0  0  0
   42.7350   25.1550   35.2050 C   0  0  0  0  0  0  0  0  0  0  0  0
   41.5310   25.8170   34.9570 C   0  0  0  0  0  0  0  0  0  0  0  0
   40.3040   25.1990   34.9700 C   0  0  0  0  0  0  0  0  0  0  0  0
   41.4440   22.0980   35.7190 H   0  0  0  0  0  0  0  0  0  0  0  0
   43.5600   23.2360   35.6740 H   0  0  0  0  0  0  0  0  0  0  0  0
   43.6700   25.6970   35.1810 H   0  0  0  0  0  0  0  0  0  0  0  0
   41.5130   26.8560   34.7450 H   0  0  0  0  0  0  0  0  0  0  0  0
   38.6030   22.4180   34.0850 C   0  0  0  0  0  0  0  0  0  0  0  0
   39.0240   23.0420   35.3000 C   0  0  0  0  0  0  0  0  0  0  0  0
   38.2290   22.8440   36.4260 C   0  0  0  0  0  0  0  0  0  0  0  0
   37.1130   22.0790   36.3060 N   0  0  0  0  0  0  0  0  0  0  0  0
   36.7320   21.4930   35.1310 C   0  0  0  0  0  0  0  0  0  0  0  0
   37.5000   21.6770   34.0210 N   0  0  0  0  0  0  0  0  0  0  0  0
   39.1660   22.5190   33.1680 H   0  0  0  0  0  0  0  0  0  0  0  0
   35.8430   20.9060   35.1000 H   0  0  0  0  0  0  0  0  0  0  0  0
   38.5430   23.4230   37.7420 C   0  0  0  0  0  0  0  0  0  0  0  0
   37.5800   23.0020   38.6890 F   0  0  0  0  0  0  0  0  0  0  0  0
   39.7790   23.1770   38.2450 F   0  0  0  0  0  0  0  0  0  0  0  0
   38.3650   24.8070   37.7100 F   0  0  0  0  0  0  0  0  0  0  0  0
   39.0260   25.8960   34.6920 C   0  0  0  0  0  2  0  0  0  0  0  0
   38.8890   27.1670   35.4800 C   0  0  0  0  0  2  0  0  0  0  0  0
   38.5120   27.0400   36.5020 H   0  0  0  0  0  0  0  0  0  0  0  0
  1 12  1  0  0  0  0
  1  2  1  0  0  0  0
  2  7  1  0  0  0  0
  3  2  2  0  0  0  0
  3  8  1  0  0  0  0
  4  3  1  0  0  0  0
  5  6  1  0  0  0  0
  5  4  2  0  0  0  0
  6  1  2  0  0  0  0
  9  4  1  0  0  0  0
 10  5  1  0  0  0  0
 11 12  1  0  0  0  0
 12 13  2  0  0  0  0
 13 19  1  0  0  0  0
 14 13  1  0  0  0  0
 15 14  2  0  0  0  0
 16 11  2  0  0  0  0
 16 15  1  0  0  0  0
 17 11  1  0  0  0  0
 18 15  1  0  0  0  0
 19 21  1  0  0  0  0
 19 20  1  0  0  0  0
 22 19  1  0  0  0  0
 23  6  1  0  0  0  0
 23 24  1  0  0  0  0
 24 25  1  0  0  0  0
M  END
>  <minimizedAffinity>
-4.69799042

$$$$

 OpenBabel03272506243D

 25 26  0  0  0  0  0  0  0  0999 V2000
   38.0740   26.1180   33.0260 C   0  0  0  0  0  0  0  0  0  0  0  0
   36.8390   26.5270   32.5750 C   0  0  0  0  0  0  0  0  0  0  0  0
   36.6390   27.4380   31.5490 C   0  0  0  0  0  0  0  0  0  0  0  0
   37.7770   27.9910   30.9120 C   0  0  0  0  0  0  0  0  0  0  0  0
   39.0270   27.5750   31.3710 C   0  0  0  0  0  0  0  0  0  0  0  0
   39.2030   26.6710   32.3910 C   0  0  0  0  0  0  0  0  0  0  0  0
   35.9140   26.1470   33.0100 H   0  0  0  0  0  0  0  0  0  0  0  0
   35.6740   27.7370   31.2240 H   0  0  0  0  0  0  0  0  0  0  0  0
   37.7030   28.7060   30.1040 H   0  0  0  0  0  0  0  0  0  0  0  0
   39.9210   27.9460   30.9370 H   0  0  0  0  0  0  0  0  0  0  0  0
   38.0250   23.7840   33.7390 C   0  0  0  0  0  0  0  0  0  0  0  0
   38.0990   25.1650   34.0980 C   0  0  0  0  0  0  0  0  0  0  0  0
   38.1860   25.4660   35.4550 C   0  0  0  0  0  0  0  0  0  0  0  0
   38.1950   24.4420   36.3470 N   0  0  0  0  0  0  0  0  0  0  0  0
   38.1210   23.1280   35.9770 C   0  0  0  0  0  0  0  0  0  0  0  0
   38.0360   22.8180   34.6530 N   0  0  0  0  0  0  0  0  0  0  0  0
   37.9580   23.4660   32.7080 H   0  0  0  0  0  0  0  0  0  0  0  0
   38.1290   22.3700   36.7260 H   0  0  0  0  0  0  0  0  0  0  0  0
   38.2730   26.8420   35.9670 C   0  0  0  0  0  0  0  0  0  0  0  0
   39.5700   27.3570   35.7320 F   0  0  0  0  0  0  0  0  0  0  0  0
   37.3650   27.7340   35.4980 F   0  0  0  0  0  0  0  0  0  0  0  0
   38.1870   26.8400   37.3600 F   0  0  0  0  0  0  0  0  0  0  0  0
   40.5290   26.2380   32.8910 C   0  0  0  0  0  2  0  0  0  0  0  0
   41.4810   27.3880   33.0470 C   0  0  0  0  0  2  0  0  0  0  0  0
   42.0060   27.6830   32.1300 H   0  0  0  0  0  0  0  0  0  0  0  0
  1 12  1  0  0  0  0
  2  7  1  0  0  0  0
  2  1  1  0  0  0  0
  3  2  2  0  0  0  0
  4  5  2  0  0  0  0
  4  3  1  0  0  0  0
  5  6  1  0  0  0  0
  6 23  1  0  0  0  0
  6  1  2  0  0  0  0
  8  3  1  0  0  0  0
  9  4  1  0  0  0  0
 10  5  1  0  0  0  0
 11 12  2  0  0  0  0
 11 16  1  0  0  0  0
 12 13  1  0  0  0  0
 13 19  1  0  0  0  0
 13 14  2  0  0  0  0
 15 14  1  0  0  0  0
 15 18  1  0  0  0  0
 16 15  2  0  0  0  0
 17 11  1  0  0  0  0
 19 22  1  0  0  0  0
 20 19  1  0  0  0  0
 21 19  1  0  0  0  0
 23 24  1  0  0  0  0
 25 24  1  0  0  0  0
M  END
>  <minimizedAffinity>
-4.60345745

$$$$
