
 OpenBabel03272509003D

 22 23  0  0  0  0  0  0  0  0999 V2000
   35.9110   20.8340   35.9160 Cl  0  0  0  0  0  0  0  0  0  0  0  0
   36.7370   21.3840   34.4830 C   0  0  0  0  0  0  0  0  0  0  0  0
   37.8320   22.2180   34.6220 C   0  0  0  0  0  0  0  0  0  0  0  0
   38.5090   22.6760   33.5200 C   0  0  0  0  0  0  0  0  0  0  0  0
   38.1140   22.3180   32.2420 C   0  0  0  0  0  0  0  0  0  0  0  0
   37.0190   21.4820   32.0830 C   0  0  0  0  0  0  0  0  0  0  0  0
   36.4240   20.9550   30.5240 Cl  0  0  0  0  0  0  0  0  0  0  0  0
   36.3650   21.0430   33.2140 C   0  0  0  0  0  0  0  0  0  0  0  0
   39.3700   23.3300   33.6010 H   0  0  0  0  0  0  0  0  0  0  0  0
   38.6310   22.6650   31.3590 H   0  0  0  0  0  0  0  0  0  0  0  0
   37.9140   23.7430   37.9580 C   0  0  0  0  0  0  0  0  0  0  0  0
   39.1550   23.3470   38.4530 C   0  0  0  0  0  0  0  0  0  0  0  0
   39.9670   22.5430   37.6120 C   0  0  0  0  0  0  0  0  0  0  0  0
   39.4890   22.2070   36.3780 N   0  0  0  0  0  0  0  0  0  0  0  0
   38.2770   22.6200   35.9490 C   0  0  0  0  0  0  0  0  0  0  0  0
   37.5020   23.3810   36.7410 N   0  0  0  0  0  0  0  0  0  0  0  0
   37.2680   24.3530   38.5710 H   0  0  0  0  0  0  0  0  0  0  0  0
   39.4560   23.6500   39.4230 H   0  0  0  0  0  0  0  0  0  0  0  0
   40.9370   22.2220   37.9680 H   0  0  0  0  0  0  0  0  0  0  0  0
   35.1640   20.1350   33.1540 C   0  0  0  0  0  2  0  0  0  0  0  0
   35.5680   18.6910   32.9460 C   0  0  0  0  0  2  0  0  0  0  0  0
   35.1170   18.3470   31.9700 H   0  0  0  0  0  0  0  0  0  0  0  0
  2  3  1  0  0  0  0
  2  1  1  0  0  0  0
  3 15  1  0  0  0  0
  4  9  1  0  0  0  0
  4  3  2  0  0  0  0
  5  4  1  0  0  0  0
  6  5  2  0  0  0  0
  6  8  1  0  0  0  0
  7  6  1  0  0  0  0
  8  2  2  0  0  0  0
 10  5  1  0  0  0  0
 11 12  1  0  0  0  0
 11 17  1  0  0  0  0
 12 18  1  0  0  0  0
 13 19  1  0  0  0  0
 13 12  2  0  0  0  0
 14 13  1  0  0  0  0
 15 14  2  0  0  0  0
 15 16  1  0  0  0  0
 16 11  2  0  0  0  0
 20  8  1  0  0  0  0
 21 20  1  0  0  0  0
 22 21  1  0  0  0  0
M  END
>  <minimizedAffinity>
-4.71513367

$$$$

 OpenBabel03272509003D

 22 23  0  0  0  0  0  0  0  0999 V2000
   38.6190   23.6710   33.5570 Cl  0  0  0  0  0  0  0  0  0  0  0  0
   37.4140   22.4390   33.8130 C   0  0  0  0  0  0  0  0  0  0  0  0
   37.2430   21.9270   35.0860 C   0  0  0  0  0  0  0  0  0  0  0  0
   36.3070   20.9520   35.3290 C   0  0  0  0  0  0  0  0  0  0  0  0
   35.5130   20.4570   34.3100 C   0  0  0  0  0  0  0  0  0  0  0  0
   35.6700   20.9590   33.0260 C   0  0  0  0  0  0  0  0  0  0  0  0
   34.7280   20.4180   31.6550 Cl  0  0  0  0  0  0  0  0  0  0  0  0
   36.6210   21.9370   32.8210 C   0  0  0  0  0  0  0  0  0  0  0  0
   36.1520   20.5340   36.3180 H   0  0  0  0  0  0  0  0  0  0  0  0
   34.7700   19.6910   34.4760 H   0  0  0  0  0  0  0  0  0  0  0  0
   40.1060   22.5520   37.2930 C   0  0  0  0  0  0  0  0  0  0  0  0
   39.5690   23.3820   38.2750 C   0  0  0  0  0  0  0  0  0  0  0  0
   38.1970   23.7240   38.1620 C   0  0  0  0  0  0  0  0  0  0  0  0
   37.4880   23.2220   37.1080 N   0  0  0  0  0  0  0  0  0  0  0  0
   38.0610   22.4200   36.1850 C   0  0  0  0  0  0  0  0  0  0  0  0
   39.3610   22.0930   36.2850 N   0  0  0  0  0  0  0  0  0  0  0  0
   41.1470   22.2730   37.3450 H   0  0  0  0  0  0  0  0  0  0  0  0
   40.1850   23.7310   39.0640 H   0  0  0  0  0  0  0  0  0  0  0  0
   37.7520   24.3660   38.9100 H   0  0  0  0  0  0  0  0  0  0  0  0
   36.8740   22.5470   31.4680 C   0  0  0  0  0  2  0  0  0  0  0  0
   35.9540   23.7200   31.2050 C   0  0  0  0  0  2  0  0  0  0  0  0
   35.3290   23.4680   30.3000 H   0  0  0  0  0  0  0  0  0  0  0  0
  1  2  1  0  0  0  0
  2  3  1  0  0  0  0
  3  4  2  0  0  0  0
  3 15  1  0  0  0  0
  4  9  1  0  0  0  0
  5 10  1  0  0  0  0
  5  4  1  0  0  0  0
  6  5  2  0  0  0  0
  7  6  1  0  0  0  0
  8  6  1  0  0  0  0
  8  2  2  0  0  0  0
 11 17  1  0  0  0  0
 11 12  1  0  0  0  0
 12 18  1  0  0  0  0
 13 12  2  0  0  0  0
 13 19  1  0  0  0  0
 14 13  1  0  0  0  0
 15 16  1  0  0  0  0
 15 14  2  0  0  0  0
 16 11  2  0  0  0  0
 20  8  1  0  0  0  0
 21 20  1  0  0  0  0
 22 21  1  0  0  0  0
M  END
>  <minimizedAffinity>
-4.65558052

$$$$

 OpenBabel03272509003D

 22 23  0  0  0  0  0  0  0  0999 V2000
   37.7710   23.5550   33.0230 Cl  0  0  0  0  0  0  0  0  0  0  0  0
   37.4530   25.2150   33.4460 C   0  0  0  0  0  0  0  0  0  0  0  0
   37.7640   25.6500   34.7220 C   0  0  0  0  0  0  0  0  0  0  0  0
   37.5260   26.9480   35.0970 C   0  0  0  0  0  0  0  0  0  0  0  0
   36.9700   27.8550   34.2120 C   0  0  0  0  0  0  0  0  0  0  0  0
   36.6540   27.4380   32.9280 C   0  0  0  0  0  0  0  0  0  0  0  0
   35.9500   28.4870   31.7160 Cl  0  0  0  0  0  0  0  0  0  0  0  0
   36.9060   26.1250   32.5880 C   0  0  0  0  0  0  0  0  0  0  0  0
   37.7610   27.3140   36.0910 H   0  0  0  0  0  0  0  0  0  0  0  0
   36.7750   28.8820   34.4830 H   0  0  0  0  0  0  0  0  0  0  0  0
   40.1280   23.4120   36.4150 C   0  0  0  0  0  0  0  0  0  0  0  0
   39.4100   22.9860   37.5310 C   0  0  0  0  0  0  0  0  0  0  0  0
   38.0920   23.4850   37.6900 C   0  0  0  0  0  0  0  0  0  0  0  0
   37.6060   24.3450   36.7480 N   0  0  0  0  0  0  0  0  0  0  0  0
   38.3470   24.7250   35.6840 C   0  0  0  0  0  0  0  0  0  0  0  0
   39.5970   24.2570   35.5270 N   0  0  0  0  0  0  0  0  0  0  0  0
   41.1340   23.0560   36.2630 H   0  0  0  0  0  0  0  0  0  0  0  0
   39.8560   22.3140   38.2190 H   0  0  0  0  0  0  0  0  0  0  0  0
   37.5100   23.1700   38.5460 H   0  0  0  0  0  0  0  0  0  0  0  0
   36.5980   25.5690   31.2230 C   0  0  0  0  0  2  0  0  0  0  0  0
   35.1700   25.0750   31.1320 C   0  0  0  0  0  2  0  0  0  0  0  0
   35.2050   23.9700   30.9050 H   0  0  0  0  0  0  0  0  0  0  0  0
  1  2  1  0  0  0  0
  2  3  1  0  0  0  0
  3  4  2  0  0  0  0
  3 15  1  0  0  0  0
  4  9  1  0  0  0  0
  5 10  1  0  0  0  0
  5  4  1  0  0  0  0
  6  5  2  0  0  0  0
  7  6  1  0  0  0  0
  8  6  1  0  0  0  0
  8  2  2  0  0  0  0
 11 12  1  0  0  0  0
 12 13  2  0  0  0  0
 12 18  1  0  0  0  0
 13 19  1  0  0  0  0
 14 13  1  0  0  0  0
 15 14  2  0  0  0  0
 16 15  1  0  0  0  0
 16 11  2  0  0  0  0
 17 11  1  0  0  0  0
 20  8  1  0  0  0  0
 21 20  1  0  0  0  0
 22 21  1  0  0  0  0
M  END
>  <minimizedAffinity>
-4.60175419

$$$$

 OpenBabel03272509003D

 22 23  0  0  0  0  0  0  0  0999 V2000
   38.0520   23.2630   33.5610 Cl  0  0  0  0  0  0  0  0  0  0  0  0
   37.0580   24.3360   32.6140 C   0  0  0  0  0  0  0  0  0  0  0  0
   36.1370   23.7930   31.7360 C   0  0  0  0  0  0  0  0  0  0  0  0
   35.3370   24.6030   30.9700 C   0  0  0  0  0  0  0  0  0  0  0  0
   35.4300   25.9810   31.0540 C   0  0  0  0  0  0  0  0  0  0  0  0
   36.3470   26.5440   31.9300 C   0  0  0  0  0  0  0  0  0  0  0  0
   36.5580   28.2700   32.1300 Cl  0  0  0  0  0  0  0  0  0  0  0  0
   37.1330   25.6980   32.6830 C   0  0  0  0  0  0  0  0  0  0  0  0
   34.6080   24.2030   30.2740 H   0  0  0  0  0  0  0  0  0  0  0  0
   34.8110   26.6390   30.4620 H   0  0  0  0  0  0  0  0  0  0  0  0
   36.7170   20.3150   30.7220 C   0  0  0  0  0  0  0  0  0  0  0  0
   35.7400   19.6160   31.4280 C   0  0  0  0  0  0  0  0  0  0  0  0
   34.8740   20.3680   32.2630 C   0  0  0  0  0  0  0  0  0  0  0  0
   35.0470   21.7210   32.3240 N   0  0  0  0  0  0  0  0  0  0  0  0
   36.0110   22.3470   31.6160 C   0  0  0  0  0  0  0  0  0  0  0  0
   36.8360   21.6410   30.8240 N   0  0  0  0  0  0  0  0  0  0  0  0
   37.3960   19.7760   30.0790 H   0  0  0  0  0  0  0  0  0  0  0  0
   35.6690   18.5630   31.3270 H   0  0  0  0  0  0  0  0  0  0  0  0
   34.1050   19.8530   32.8220 H   0  0  0  0  0  0  0  0  0  0  0  0
   38.1600   26.2040   33.6610 C   0  0  0  0  0  2  0  0  0  0  0  0
   37.5480   26.4810   35.0180 C   0  0  0  0  0  2  0  0  0  0  0  0
   37.6870   27.5790   35.2380 H   0  0  0  0  0  0  0  0  0  0  0  0
  2  8  1  0  0  0  0
  2  1  1  0  0  0  0
  3  2  2  0  0  0  0
  4  5  2  0  0  0  0
  4  3  1  0  0  0  0
  5  6  1  0  0  0  0
  6  7  1  0  0  0  0
  6  8  2  0  0  0  0
  8 20  1  0  0  0  0
  9  4  1  0  0  0  0
 10  5  1  0  0  0  0
 11 16  2  0  0  0  0
 11 12  1  0  0  0  0
 12 13  2  0  0  0  0
 13 14  1  0  0  0  0
 13 19  1  0  0  0  0
 15  3  1  0  0  0  0
 15 14  2  0  0  0  0
 16 15  1  0  0  0  0
 17 11  1  0  0  0  0
 18 12  1  0  0  0  0
 20 21  1  0  0  0  0
 21 22  1  0  0  0  0
M  END
>  <minimizedAffinity>
-4.36993694

$$$$

 OpenBabel03272509003D

 22 23  0  0  0  0  0  0  0  0999 V2000
   41.3830   25.4150   34.2210 Cl  0  0  0  0  0  0  0  0  0  0  0  0
   40.7400   24.3000   35.3950 C   0  0  0  0  0  0  0  0  0  0  0  0
   39.4260   24.4420   35.8020 C   0  0  0  0  0  0  0  0  0  0  0  0
   38.8810   23.5880   36.7270 C   0  0  0  0  0  0  0  0  0  0  0  0
   39.6310   22.5630   37.2780 C   0  0  0  0  0  0  0  0  0  0  0  0
   40.9510   22.4040   36.8820 C   0  0  0  0  0  0  0  0  0  0  0  0
   42.0010   21.1480   37.5010 Cl  0  0  0  0  0  0  0  0  0  0  0  0
   41.4630   23.2830   35.9500 C   0  0  0  0  0  0  0  0  0  0  0  0
   37.8540   23.6770   37.0620 H   0  0  0  0  0  0  0  0  0  0  0  0
   39.2250   21.8770   38.0070 H   0  0  0  0  0  0  0  0  0  0  0  0
   37.1850   26.3270   33.5910 C   0  0  0  0  0  0  0  0  0  0  0  0
   37.0590   27.5520   34.2430 C   0  0  0  0  0  0  0  0  0  0  0  0
   37.7640   27.7180   35.4640 C   0  0  0  0  0  0  0  0  0  0  0  0
   38.5180   26.6760   35.9230 N   0  0  0  0  0  0  0  0  0  0  0  0
   38.6050   25.5100   35.2480 C   0  0  0  0  0  0  0  0  0  0  0  0
   37.9390   25.3460   34.0910 N   0  0  0  0  0  0  0  0  0  0  0  0
   36.6610   26.1640   32.6620 H   0  0  0  0  0  0  0  0  0  0  0  0
   36.4530   28.3130   33.8220 H   0  0  0  0  0  0  0  0  0  0  0  0
   37.6870   28.6580   35.9910 H   0  0  0  0  0  0  0  0  0  0  0  0
   42.8820   23.2000   35.4540 C   0  0  0  0  0  2  0  0  0  0  0  0
   43.8370   23.9310   36.3740 C   0  0  0  0  0  2  0  0  0  0  0  0
   44.3200   24.7590   35.7780 H   0  0  0  0  0  0  0  0  0  0  0  0
  1  2  1  0  0  0  0
  2  3  2  0  0  0  0
  2  8  1  0  0  0  0
  3  4  1  0  0  0  0
  4  9  1  0  0  0  0
  4  5  2  0  0  0  0
  5 10  1  0  0  0  0
  6  5  1  0  0  0  0
  6  7  1  0  0  0  0
  8  6  2  0  0  0  0
 11 16  2  0  0  0  0
 11 12  1  0  0  0  0
 12 13  2  0  0  0  0
 13 14  1  0  0  0  0
 13 19  1  0  0  0  0
 15  3  1  0  0  0  0
 15 14  2  0  0  0  0
 16 15  1  0  0  0  0
 17 11  1  0  0  0  0
 18 12  1  0  0  0  0
 20  8  1  0  0  0  0
 20 21  1  0  0  0  0
 22 21  1  0  0  0  0
M  END
>  <minimizedAffinity>
-4.33029699

$$$$

 OpenBabel03272509003D

 22 23  0  0  0  0  0  0  0  0999 V2000
   39.0280   26.7730   35.5730 Cl  0  0  0  0  0  0  0  0  0  0  0  0
   38.2670   25.7850   34.3560 C   0  0  0  0  0  0  0  0  0  0  0  0
   38.4000   24.4100   34.4340 C   0  0  0  0  0  0  0  0  0  0  0  0
   37.8190   23.5950   33.4940 C   0  0  0  0  0  0  0  0  0  0  0  0
   37.0870   24.1260   32.4470 C   0  0  0  0  0  0  0  0  0  0  0  0
   36.9410   25.5030   32.3530 C   0  0  0  0  0  0  0  0  0  0  0  0
   36.0390   26.2940   31.0800 Cl  0  0  0  0  0  0  0  0  0  0  0  0
   37.5400   26.2880   33.3150 C   0  0  0  0  0  0  0  0  0  0  0  0
   37.9080   22.5150   33.5320 H   0  0  0  0  0  0  0  0  0  0  0  0
   36.6200   23.5060   31.6960 H   0  0  0  0  0  0  0  0  0  0  0  0
   39.3020   22.9980   37.6980 C   0  0  0  0  0  0  0  0  0  0  0  0
   40.6490   22.6780   37.5390 C   0  0  0  0  0  0  0  0  0  0  0  0
   41.2430   22.9590   36.2820 C   0  0  0  0  0  0  0  0  0  0  0  0
   40.4680   23.5230   35.3100 N   0  0  0  0  0  0  0  0  0  0  0  0
   39.1650   23.8130   35.5190 C   0  0  0  0  0  0  0  0  0  0  0  0
   38.5950   23.5490   36.7080 N   0  0  0  0  0  0  0  0  0  0  0  0
   38.8160   22.7950   38.6390 H   0  0  0  0  0  0  0  0  0  0  0  0
   41.1850   22.2420   38.3420 H   0  0  0  0  0  0  0  0  0  0  0  0
   42.2880   22.7240   36.1300 H   0  0  0  0  0  0  0  0  0  0  0  0
   37.4460   27.7910   33.3060 C   0  0  0  0  0  2  0  0  0  0  0  0
   36.2600   28.2800   34.1100 C   0  0  0  0  0  2  0  0  0  0  0  0
   35.5780   28.8400   33.4060 H   0  0  0  0  0  0  0  0  0  0  0  0
  2  3  1  0  0  0  0
  2  1  1  0  0  0  0
  3 15  1  0  0  0  0
  4  9  1  0  0  0  0
  4  3  2  0  0  0  0
  5  4  1  0  0  0  0
  6  5  2  0  0  0  0
  6  8  1  0  0  0  0
  7  6  1  0  0  0  0
  8  2  2  0  0  0  0
 10  5  1  0  0  0  0
 11 17  1  0  0  0  0
 12 11  1  0  0  0  0
 12 18  1  0  0  0  0
 13 12  2  0  0  0  0
 14 15  2  0  0  0  0
 14 13  1  0  0  0  0
 15 16  1  0  0  0  0
 16 11  2  0  0  0  0
 19 13  1  0  0  0  0
 20  8  1  0  0  0  0
 20 21  1  0  0  0  0
 22 21  1  0  0  0  0
M  END
>  <minimizedAffinity>
-4.22739267

$$$$

 OpenBabel03272509003D

 22 23  0  0  0  0  0  0  0  0999 V2000
   37.0850   21.5100   34.6580 Cl  0  0  0  0  0  0  0  0  0  0  0  0
   37.8350   22.8340   33.8070 C   0  0  0  0  0  0  0  0  0  0  0  0
   38.5420   23.7770   34.5300 C   0  0  0  0  0  0  0  0  0  0  0  0
   39.1440   24.8370   33.8990 C   0  0  0  0  0  0  0  0  0  0  0  0
   39.0590   24.9910   32.5260 C   0  0  0  0  0  0  0  0  0  0  0  0
   38.3550   24.0530   31.7840 C   0  0  0  0  0  0  0  0  0  0  0  0
   38.1770   24.1340   30.0450 Cl  0  0  0  0  0  0  0  0  0  0  0  0
   37.7630   23.0030   32.4540 C   0  0  0  0  0  0  0  0  0  0  0  0
   39.7040   25.5900   34.4420 H   0  0  0  0  0  0  0  0  0  0  0  0
   39.5250   25.8150   32.0070 H   0  0  0  0  0  0  0  0  0  0  0  0
   37.8550   24.1040   38.1190 C   0  0  0  0  0  0  0  0  0  0  0  0
   38.8950   23.3840   38.7040 C   0  0  0  0  0  0  0  0  0  0  0  0
   39.8410   22.7820   37.8350 C   0  0  0  0  0  0  0  0  0  0  0  0
   39.6800   22.9430   36.4890 N   0  0  0  0  0  0  0  0  0  0  0  0
   38.6520   23.6530   35.9770 C   0  0  0  0  0  0  0  0  0  0  0  0
   37.7510   24.2260   36.7940 N   0  0  0  0  0  0  0  0  0  0  0  0
   37.1150   24.5740   38.7490 H   0  0  0  0  0  0  0  0  0  0  0  0
   38.9530   23.3050   39.7590 H   0  0  0  0  0  0  0  0  0  0  0  0
   40.6610   22.2180   38.2600 H   0  0  0  0  0  0  0  0  0  0  0  0
   36.9740   21.9340   31.7450 C   0  0  0  0  0  2  0  0  0  0  0  0
   35.5220   22.3280   31.5830 C   0  0  0  0  0  2  0  0  0  0  0  0
   34.8970   21.5680   32.1360 H   0  0  0  0  0  0  0  0  0  0  0  0
  2  3  1  0  0  0  0
  2  1  1  0  0  0  0
  3 15  1  0  0  0  0
  4  9  1  0  0  0  0
  4  3  2  0  0  0  0
  5  4  1  0  0  0  0
  6  8  1  0  0  0  0
  6  5  2  0  0  0  0
  7  6  1  0  0  0  0
  8  2  2  0  0  0  0
 10  5  1  0  0  0  0
 11 12  1  0  0  0  0
 11 17  1  0  0  0  0
 12 18  1  0  0  0  0
 13 19  1  0  0  0  0
 13 12  2  0  0  0  0
 14 13  1  0  0  0  0
 15 14  2  0  0  0  0
 15 16  1  0  0  0  0
 16 11  2  0  0  0  0
 20  8  1  0  0  0  0
 21 20  1  0  0  0  0
 21 22  1  0  0  0  0
M  END
>  <minimizedAffinity>
-4.18841648

$$$$

 OpenBabel03272509003D

 22 23  0  0  0  0  0  0  0  0999 V2000
   35.1490   30.5030   31.8200 Cl  0  0  0  0  0  0  0  0  0  0  0  0
   36.0300   29.1650   32.5050 C   0  0  0  0  0  0  0  0  0  0  0  0
   36.0050   28.9800   33.8760 C   0  0  0  0  0  0  0  0  0  0  0  0
   36.6890   27.9410   34.4550 C   0  0  0  0  0  0  0  0  0  0  0  0
   37.4200   27.0530   33.6870 C   0  0  0  0  0  0  0  0  0  0  0  0
   37.4560   27.2220   32.3100 C   0  0  0  0  0  0  0  0  0  0  0  0
   38.3410   26.1660   31.2300 Cl  0  0  0  0  0  0  0  0  0  0  0  0
   36.7570   28.2780   31.7640 C   0  0  0  0  0  0  0  0  0  0  0  0
   36.6850   27.7730   35.5270 H   0  0  0  0  0  0  0  0  0  0  0  0
   37.9650   26.2270   34.1190 H   0  0  0  0  0  0  0  0  0  0  0  0
   33.2250   30.6470   35.5940 C   0  0  0  0  0  0  0  0  0  0  0  0
   33.8650   31.6410   36.3330 C   0  0  0  0  0  0  0  0  0  0  0  0
   35.2770   31.7270   36.2270 C   0  0  0  0  0  0  0  0  0  0  0  0
   35.9210   30.8390   35.4140 N   0  0  0  0  0  0  0  0  0  0  0  0
   35.2500   29.8950   34.7190 C   0  0  0  0  0  0  0  0  0  0  0  0
   33.9120   29.8080   34.8150 N   0  0  0  0  0  0  0  0  0  0  0  0
   32.1520   30.5500   35.6520 H   0  0  0  0  0  0  0  0  0  0  0  0
   33.2940   32.2940   36.9420 H   0  0  0  0  0  0  0  0  0  0  0  0
   35.8000   32.4890   36.7870 H   0  0  0  0  0  0  0  0  0  0  0  0
   36.7320   28.5520   30.2840 C   0  0  0  0  0  2  0  0  0  0  0  0
   37.8950   29.4240   29.8590 C   0  0  0  0  0  2  0  0  0  0  0  0
   37.4680   30.3750   29.4260 H   0  0  0  0  0  0  0  0  0  0  0  0
  1  2  1  0  0  0  0
  2  3  1  0  0  0  0
  3  4  2  0  0  0  0
  3 15  1  0  0  0  0
  4  9  1  0  0  0  0
  5 10  1  0  0  0  0
  5  4  1  0  0  0  0
  6  5  2  0  0  0  0
  7  6  1  0  0  0  0
  8  6  1  0  0  0  0
  8  2  2  0  0  0  0
 11 17  1  0  0  0  0
 11 12  1  0  0  0  0
 12 18  1  0  0  0  0
 13 12  2  0  0  0  0
 13 19  1  0  0  0  0
 14 13  1  0  0  0  0
 15 16  1  0  0  0  0
 15 14  2  0  0  0  0
 16 11  2  0  0  0  0
 20  8  1  0  0  0  0
 21 20  1  0  0  0  0
 22 21  1  0  0  0  0
M  END
>  <minimizedAffinity>
-4.18294764

$$$$

 OpenBabel03272509003D

 22 23  0  0  0  0  0  0  0  0999 V2000
   39.3190   26.5800   35.2310 Cl  0  0  0  0  0  0  0  0  0  0  0  0
   38.7990   25.3090   34.1590 C   0  0  0  0  0  0  0  0  0  0  0  0
   38.5040   24.0660   34.6900 C   0  0  0  0  0  0  0  0  0  0  0  0
   38.0940   23.0370   33.8810 C   0  0  0  0  0  0  0  0  0  0  0  0
   37.9670   23.2130   32.5140 C   0  0  0  0  0  0  0  0  0  0  0  0
   38.2570   24.4530   31.9630 C   0  0  0  0  0  0  0  0  0  0  0  0
   38.1330   24.8030   30.2530 Cl  0  0  0  0  0  0  0  0  0  0  0  0
   38.6670   25.4620   32.8090 C   0  0  0  0  0  0  0  0  0  0  0  0
   37.8560   22.0540   34.2720 H   0  0  0  0  0  0  0  0  0  0  0  0
   37.6450   22.4190   31.8560 H   0  0  0  0  0  0  0  0  0  0  0  0
   37.7740   23.9980   38.2860 C   0  0  0  0  0  0  0  0  0  0  0  0
   38.9050   23.3840   38.8230 C   0  0  0  0  0  0  0  0  0  0  0  0
   39.9270   22.9940   37.9200 C   0  0  0  0  0  0  0  0  0  0  0  0
   39.7460   23.2410   36.5890 N   0  0  0  0  0  0  0  0  0  0  0  0
   38.6290   23.8400   36.1230 C   0  0  0  0  0  0  0  0  0  0  0  0
   37.6550   24.2120   36.9730 N   0  0  0  0  0  0  0  0  0  0  0  0
   36.9750   24.3050   38.9420 H   0  0  0  0  0  0  0  0  0  0  0  0
   38.9720   23.2270   39.8690 H   0  0  0  0  0  0  0  0  0  0  0  0
   40.8170   22.5180   38.3080 H   0  0  0  0  0  0  0  0  0  0  0  0
   39.0090   26.8430   32.3140 C   0  0  0  0  0  2  0  0  0  0  0  0
   37.7750   27.7090   32.1810 C   0  0  0  0  0  2  0  0  0  0  0  0
   37.6800   28.0050   31.0960 H   0  0  0  0  0  0  0  0  0  0  0  0
  2  3  1  0  0  0  0
  2  1  1  0  0  0  0
  3 15  1  0  0  0  0
  4  9  1  0  0  0  0
  4  3  2  0  0  0  0
  5  4  1  0  0  0  0
  6  5  2  0  0  0  0
  6  8  1  0  0  0  0
  7  6  1  0  0  0  0
  8  2  2  0  0  0  0
 10  5  1  0  0  0  0
 11 12  1  0  0  0  0
 11 17  1  0  0  0  0
 12 18  1  0  0  0  0
 13 19  1  0  0  0  0
 13 12  2  0  0  0  0
 14 13  1  0  0  0  0
 15 14  2  0  0  0  0
 15 16  1  0  0  0  0
 16 11  2  0  0  0  0
 20  8  1  0  0  0  0
 21 20  1  0  0  0  0
 22 21  1  0  0  0  0
M  END
>  <minimizedAffinity>
-4.16058016

$$$$
