
 OpenBabel03272504553D

 21 22  0  0  1  0  0  0  0  0999 V2000
   38.2020   32.3860   48.3840 C   0  0  0  0  0  0  0  0  0  0  0  0
   38.5510   33.3610   49.3250 C   0  0  0  0  0  0  0  0  0  0  0  0
   39.5400   34.2300   48.9390 C   0  0  0  0  0  0  0  0  0  0  0  0
   40.1140   34.1110   47.7090 N   0  0  0  0  0  0  0  0  0  0  0  0
   39.7540   33.1620   46.8270 C   0  0  0  0  0  0  0  0  0  0  0  0
   38.7690   32.2770   47.1790 N   0  0  0  0  0  0  0  0  0  0  0  0
   40.3340   33.0410   45.5460 N   0  0  0  0  0  0  0  0  0  0  0  0
   38.0700   33.4070   50.2690 H   0  0  0  0  0  0  0  0  0  0  0  0
   39.8490   35.0090   49.6360 H   0  0  0  0  0  0  0  0  0  0  0  0
   39.8310   32.5330   44.7870 H   0  0  0  0  0  0  0  0  0  0  0  0
   41.2850   33.4710   45.3600 H   0  0  0  0  0  0  0  0  0  0  0  0
   37.0910   31.4270   48.7620 C   0  0  1  0  0  0  0  0  0  0  0  0
   36.9700   30.1350   48.1430 C   0  0  0  0  0  0  0  0  0  0  0  0
   37.6190   30.1940   49.5050 C   0  0  2  0  0  0  0  0  0  0  0  0
   36.2730   31.9700   49.2780 H   0  0  0  0  0  0  0  0  0  0  0  0
   35.9760   29.6600   48.0600 H   0  0  0  0  0  0  0  0  0  0  0  0
   37.6720   29.8550   47.3230 H   0  0  0  0  0  0  0  0  0  0  0  0
   38.7020   30.0560   49.6130 H   0  0  0  0  0  0  0  0  0  0  0  0
   36.7510   29.7350   50.6280 C   0  0  0  0  0  0  0  0  0  0  0  0
   37.4060   29.9120   51.9870 C   0  0  0  0  0  0  0  0  0  0  0  0
   38.4460   29.5220   51.9950 H   0  0  0  0  0  0  0  0  0  0  0  0
  1 12  1  0  0  0  0
  1  2  1  0  0  0  0
  2  8  1  0  0  0  0
  3  2  2  0  0  0  0
  3  9  1  0  0  0  0
  4  3  1  0  0  0  0
  5  6  1  0  0  0  0
  5  4  2  0  0  0  0
  6  1  2  0  0  0  0
  7  5  1  0  0  0  0
 10  7  1  0  0  0  0
 11  7  1  0  0  0  0
 12 15  1  1  0  0  0
 12 14  1  0  0  0  0
 13 12  1  0  0  0  0
 13 14  1  0  0  0  0
 14 18  1  1  0  0  0
 14 19  1  0  0  0  0
 16 13  1  0  0  0  0
 17 13  1  0  0  0  0
 19 20  1  0  0  0  0
 20 21  1  0  0  0  0
M  END
>  <minimizedAffinity>
-4.77094507

>  <minimizedRMSD>
1.90774107

$$$$
