
 OpenBabel03272503353D

 35 37  0  0  1  0  0  0  0  0999 V2000
   37.6530   23.9970   33.2090 C   0  0  0  0  0  0  0  0  0  0  0  0
   37.1360   22.8870   32.5560 C   0  0  0  0  0  0  0  0  0  0  0  0
   36.2590   23.1220   31.4930 C   0  0  0  0  0  0  0  0  0  0  0  0
   35.9820   24.4360   31.1840 N   0  0  0  0  0  0  0  0  0  0  0  0
   36.5000   25.4620   31.8370 C   0  0  0  0  0  0  0  0  0  0  0  0
   37.3470   25.2590   32.8620 N   0  0  0  0  0  0  0  0  0  0  0  0
   37.3480   21.8660   32.7930 H   0  0  0  0  0  0  0  0  0  0  0  0
   35.8030   22.3280   30.9210 H   0  0  0  0  0  0  0  0  0  0  0  0
   38.5580   23.7550   34.3050 N   0  0  0  0  0  0  0  0  0  0  0  0
   38.7740   24.5960   35.4420 C   0  0  0  0  0  0  0  0  0  0  0  0
   39.2020   23.5930   36.5140 C   0  0  2  0  0  0  0  0  0  0  0  0
   39.0620   22.2110   35.8850 C   0  0  0  0  0  0  0  0  0  0  0  0
   39.4330   22.5990   34.4640 C   0  0  0  0  0  0  0  0  0  0  0  0
   39.5630   25.3270   35.2150 H   0  0  0  0  0  0  0  0  0  0  0  0
   37.8140   25.0660   35.7500 H   0  0  0  0  0  0  0  0  0  0  0  0
   40.2460   23.8080   36.7350 H   0  0  0  0  0  0  0  0  0  0  0  0
   38.0340   21.8480   35.9040 H   0  0  0  0  0  0  0  0  0  0  0  0
   39.8000   21.5180   36.3260 H   0  0  0  0  0  0  0  0  0  0  0  0
   39.1630   21.7990   33.7660 H   0  0  0  0  0  0  0  0  0  0  0  0
   40.4820   22.9170   34.3990 H   0  0  0  0  0  0  0  0  0  0  0  0
   38.3830   23.7230   37.7710 C   0  0  0  0  0  0  0  0  0  0  0  0
   38.0560   25.0570   37.8940 F   0  0  0  0  0  0  0  0  0  0  0  0
   39.2170   23.4210   38.8290 F   0  0  0  0  0  0  0  0  0  0  0  0
   37.2760   22.9190   37.7800 F   0  0  0  0  0  0  0  0  0  0  0  0
   36.0950   27.1370   31.3800 S   0  0  0  0  0  0  0  0  0  0  0  0
   35.9850   28.2870   32.6020 C   0  0  0  0  0  0  0  0  0  0  0  0
   36.0990   28.3940   33.9540 C   0  0  0  0  0  0  0  0  0  0  0  0
   35.9180   29.5660   34.6620 C   0  0  0  0  0  0  0  0  0  0  0  0
   35.5840   30.7120   33.7890 C   0  0  0  0  0  0  0  0  0  0  0  0
   35.5580   30.0370   32.0990 S   0  0  0  0  0  0  0  0  0  0  0  0
   36.3490   27.4550   34.4250 H   0  0  0  0  0  0  0  0  0  0  0  0
   36.0070   29.6470   35.7230 H   0  0  0  0  0  0  0  0  0  0  0  0
   35.3530   32.0380   34.3340 C   0  0  0  0  0  2  0  0  0  0  0  0
   36.0230   32.0310   35.6880 C   0  0  0  0  0  2  0  0  0  0  0  0
   36.1030   31.0110   36.1220 H   0  0  0  0  0  0  0  0  0  0  0  0
  1  9  1  0  0  0  0
  2  7  1  0  0  0  0
  2  1  2  0  0  0  0
  3  2  1  0  0  0  0
  4  3  2  0  0  0  0
  4  5  1  0  0  0  0
  5  6  2  0  0  0  0
  6  1  1  0  0  0  0
  8  3  1  0  0  0  0
  9 13  1  0  0  0  0
  9 10  1  0  0  0  0
 10 15  1  0  0  0  0
 10 11  1  0  0  0  0
 11 16  1  1  0  0  0
 11 21  1  0  0  0  0
 12 17  1  0  0  0  0
 12 18  1  0  0  0  0
 12 11  1  0  0  0  0
 13 12  1  0  0  0  0
 14 10  1  0  0  0  0
 19 13  1  0  0  0  0
 20 13  1  0  0  0  0
 21 24  1  0  0  0  0
 21 22  1  0  0  0  0
 21 23  1  0  0  0  0
 25  5  1  0  0  0  0
 25 26  1  0  0  0  0
 26 27  2  0  0  0  0
 27 31  1  0  0  0  0
 27 28  1  0  0  0  0
 28 32  1  0  0  0  0
 29 33  1  0  0  0  0
 29 28  2  0  0  0  0
 30 26  1  0  0  0  0
 30 29  1  0  0  0  0
 33 34  1  0  0  0  0
 34 35  1  0  0  0  0
M  END
>  <minimizedAffinity>
-5.65037775

$$$$

 OpenBabel03272503353D

 35 37  0  0  1  0  0  0  0  0999 V2000
   36.4670   29.3200   31.7480 C   0  0  0  0  0  0  0  0  0  0  0  0
   36.4330   29.5420   30.3790 C   0  0  0  0  0  0  0  0  0  0  0  0
   37.1600   28.6640   29.5700 C   0  0  0  0  0  0  0  0  0  0  0  0
   37.8480   27.6500   30.2010 N   0  0  0  0  0  0  0  0  0  0  0  0
   37.8500   27.4780   31.5110 C   0  0  0  0  0  0  0  0  0  0  0  0
   37.1570   28.3110   32.3080 N   0  0  0  0  0  0  0  0  0  0  0  0
   35.9010   30.3290   29.8860 H   0  0  0  0  0  0  0  0  0  0  0  0
   37.1980   28.7510   28.4950 H   0  0  0  0  0  0  0  0  0  0  0  0
   35.7180   30.2250   32.5830 N   0  0  0  0  0  0  0  0  0  0  0  0
   35.2900   29.9980   33.9290 C   0  0  0  0  0  0  0  0  0  0  0  0
   35.2290   31.4160   34.4960 C   0  0  2  0  0  0  0  0  0  0  0  0
   35.7690   32.3350   33.4070 C   0  0  0  0  0  0  0  0  0  0  0  0
   35.2490   31.5550   32.2110 C   0  0  0  0  0  0  0  0  0  0  0  0
   34.3070   29.5060   33.9250 H   0  0  0  0  0  0  0  0  0  0  0  0
   36.0670   29.4220   34.4780 H   0  0  0  0  0  0  0  0  0  0  0  0
   34.1780   31.6260   34.6860 H   0  0  0  0  0  0  0  0  0  0  0  0
   36.8600   32.3540   33.3810 H   0  0  0  0  0  0  0  0  0  0  0  0
   35.2970   33.3310   33.4830 H   0  0  0  0  0  0  0  0  0  0  0  0
   35.7310   31.9010   31.2910 H   0  0  0  0  0  0  0  0  0  0  0  0
   34.1520   31.5650   32.1760 H   0  0  0  0  0  0  0  0  0  0  0  0
   36.0080   31.5470   35.7780 C   0  0  0  0  0  0  0  0  0  0  0  0
   36.6890   30.3610   35.9520 F   0  0  0  0  0  0  0  0  0  0  0  0
   35.0870   31.6290   36.8040 F   0  0  0  0  0  0  0  0  0  0  0  0
   36.8470   32.6280   35.7920 F   0  0  0  0  0  0  0  0  0  0  0  0
   38.7650   26.1420   32.2580 S   0  0  0  0  0  0  0  0  0  0  0  0
   38.5140   25.8260   33.8900 C   0  0  0  0  0  0  0  0  0  0  0  0
   38.4260   26.4770   35.0830 C   0  0  0  0  0  0  0  0  0  0  0  0
   38.2120   25.8540   36.2970 C   0  0  0  0  0  0  0  0  0  0  0  0
   38.0840   24.3860   36.1690 C   0  0  0  0  0  0  0  0  0  0  0  0
   38.2750   24.0400   34.3920 S   0  0  0  0  0  0  0  0  0  0  0  0
   38.5430   27.5450   34.9820 H   0  0  0  0  0  0  0  0  0  0  0  0
   38.1440   26.3670   37.2310 H   0  0  0  0  0  0  0  0  0  0  0  0
   37.8550   23.5420   37.3280 C   0  0  0  0  0  2  0  0  0  0  0  0
   37.9860   24.4610   38.5190 C   0  0  0  0  0  2  0  0  0  0  0  0
   38.6260   25.3460   38.3120 H   0  0  0  0  0  0  0  0  0  0  0  0
  1  6  1  0  0  0  0
  1  9  1  0  0  0  0
  2  1  2  0  0  0  0
  3  4  2  0  0  0  0
  3  2  1  0  0  0  0
  4  5  1  0  0  0  0
  5 25  1  0  0  0  0
  5  6  2  0  0  0  0
  7  2  1  0  0  0  0
  8  3  1  0  0  0  0
  9 10  1  0  0  0  0
 10 15  1  0  0  0  0
 10 11  1  0  0  0  0
 11 16  1  1  0  0  0
 11 21  1  0  0  0  0
 12 18  1  0  0  0  0
 12 11  1  0  0  0  0
 13  9  1  0  0  0  0
 13 12  1  0  0  0  0
 14 10  1  0  0  0  0
 17 12  1  0  0  0  0
 19 13  1  0  0  0  0
 20 13  1  0  0  0  0
 21 24  1  0  0  0  0
 21 22  1  0  0  0  0
 21 23  1  0  0  0  0
 25 26  1  0  0  0  0
 26 30  1  0  0  0  0
 26 27  2  0  0  0  0
 27 28  1  0  0  0  0
 28 32  1  0  0  0  0
 29 28  2  0  0  0  0
 29 33  1  0  0  0  0
 30 29  1  0  0  0  0
 31 27  1  0  0  0  0
 33 34  1  0  0  0  0
 35 34  1  0  0  0  0
M  END
>  <minimizedAffinity>
-5.57305384

$$$$

 OpenBabel03272503353D

 35 37  0  0  1  0  0  0  0  0999 V2000
   37.8600   22.8530   34.1530 C   0  0  0  0  0  0  0  0  0  0  0  0
   38.2430   22.0310   35.2040 C   0  0  0  0  0  0  0  0  0  0  0  0
   38.7550   22.6500   36.3470 C   0  0  0  0  0  0  0  0  0  0  0  0
   38.8360   24.0260   36.3350 N   0  0  0  0  0  0  0  0  0  0  0  0
   38.4590   24.7680   35.3090 C   0  0  0  0  0  0  0  0  0  0  0  0
   37.9630   24.1930   34.1990 N   0  0  0  0  0  0  0  0  0  0  0  0
   38.1820   20.9630   35.2160 H   0  0  0  0  0  0  0  0  0  0  0  0
   39.0810   22.1000   37.2170 H   0  0  0  0  0  0  0  0  0  0  0  0
   37.3320   22.2150   32.9740 N   0  0  0  0  0  0  0  0  0  0  0  0
   37.3590   20.8180   32.6680 C   0  0  0  0  0  0  0  0  0  0  0  0
   36.1250   20.6540   31.7800 C   0  0  2  0  0  0  0  0  0  0  0  0
   35.4230   22.0070   31.7710 C   0  0  0  0  0  0  0  0  0  0  0  0
   36.6650   22.8780   31.8590 C   0  0  0  0  0  0  0  0  0  0  0  0
   38.2910   20.5750   32.1380 H   0  0  0  0  0  0  0  0  0  0  0  0
   37.2150   20.2270   33.5990 H   0  0  0  0  0  0  0  0  0  0  0  0
   36.4930   20.4090   30.7850 H   0  0  0  0  0  0  0  0  0  0  0  0
   34.8080   22.1630   32.6590 H   0  0  0  0  0  0  0  0  0  0  0  0
   34.8890   22.1500   30.8150 H   0  0  0  0  0  0  0  0  0  0  0  0
   36.3930   23.9070   32.1150 H   0  0  0  0  0  0  0  0  0  0  0  0
   37.2790   22.7880   30.9530 H   0  0  0  0  0  0  0  0  0  0  0  0
   35.2180   19.5550   32.2680 C   0  0  0  0  0  0  0  0  0  0  0  0
   35.3760   19.4900   33.6360 F   0  0  0  0  0  0  0  0  0  0  0  0
   35.7090   18.3700   31.7560 F   0  0  0  0  0  0  0  0  0  0  0  0
   33.9110   19.7340   31.9090 F   0  0  0  0  0  0  0  0  0  0  0  0
   38.5940   26.5450   35.3650 S   0  0  0  0  0  0  0  0  0  0  0  0
   37.6150   27.4460   34.3370 C   0  0  0  0  0  0  0  0  0  0  0  0
   36.5060   28.2360   34.3700 C   0  0  0  0  0  0  0  0  0  0  0  0
   35.9440   28.8360   33.2610 C   0  0  0  0  0  0  0  0  0  0  0  0
   36.6800   28.5330   32.0140 C   0  0  0  0  0  0  0  0  0  0  0  0
   38.0570   27.4560   32.5200 S   0  0  0  0  0  0  0  0  0  0  0  0
   36.1050   28.3450   35.3660 H   0  0  0  0  0  0  0  0  0  0  0  0
   35.0730   29.4540   33.2890 H   0  0  0  0  0  0  0  0  0  0  0  0
   36.2530   29.0670   30.7330 C   0  0  0  0  0  2  0  0  0  0  0  0
   36.1970   30.5640   30.9280 C   0  0  0  0  0  2  0  0  0  0  0  0
   36.0340   30.8540   31.9880 H   0  0  0  0  0  0  0  0  0  0  0  0
  1  6  2  0  0  0  0
  1  2  1  0  0  0  0
  2  7  1  0  0  0  0
  2  3  2  0  0  0  0
  3  8  1  0  0  0  0
  4  3  1  0  0  0  0
  5 25  1  0  0  0  0
  5  4  2  0  0  0  0
  6  5  1  0  0  0  0
  9  1  1  0  0  0  0
 10  9  1  0  0  0  0
 10 15  1  0  0  0  0
 11 16  1  6  0  0  0
 11 21  1  0  0  0  0
 11 10  1  0  0  0  0
 12 11  1  0  0  0  0
 12 13  1  0  0  0  0
 12 17  1  0  0  0  0
 13 19  1  0  0  0  0
 13  9  1  0  0  0  0
 14 10  1  0  0  0  0
 18 12  1  0  0  0  0
 20 13  1  0  0  0  0
 21 22  1  0  0  0  0
 23 21  1  0  0  0  0
 24 21  1  0  0  0  0
 26 27  2  0  0  0  0
 26 25  1  0  0  0  0
 27 31  1  0  0  0  0
 28 32  1  0  0  0  0
 28 27  1  0  0  0  0
 29 30  1  0  0  0  0
 29 28  2  0  0  0  0
 30 26  1  0  0  0  0
 33 34  1  0  0  0  0
 33 29  1  0  0  0  0
 34 35  1  0  0  0  0
M  END
>  <minimizedAffinity>
-5.43771458

$$$$

 OpenBabel03272503353D

 35 37  0  0  1  0  0  0  0  0999 V2000
   37.4010   26.1060   33.3590 C   0  0  0  0  0  0  0  0  0  0  0  0
   36.8250   25.2210   32.4590 C   0  0  0  0  0  0  0  0  0  0  0  0
   35.9220   25.7480   31.5320 C   0  0  0  0  0  0  0  0  0  0  0  0
   35.6800   27.1040   31.5910 N   0  0  0  0  0  0  0  0  0  0  0  0
   36.2530   27.9080   32.4680 C   0  0  0  0  0  0  0  0  0  0  0  0
   37.1260   27.4220   33.3690 N   0  0  0  0  0  0  0  0  0  0  0  0
   37.0100   24.1680   32.4110 H   0  0  0  0  0  0  0  0  0  0  0  0
   35.4210   25.1440   30.7910 H   0  0  0  0  0  0  0  0  0  0  0  0
   38.3330   25.5630   34.3150 N   0  0  0  0  0  0  0  0  0  0  0  0
   38.3910   25.8480   35.7160 C   0  0  0  0  0  0  0  0  0  0  0  0
   38.9920   24.5630   36.2860 C   0  0  2  0  0  0  0  0  0  0  0  0
   39.1060   23.5900   35.1180 C   0  0  0  0  0  0  0  0  0  0  0  0
   39.4030   24.6120   34.0340 C   0  0  0  0  0  0  0  0  0  0  0  0
   39.0340   26.7230   35.8880 H   0  0  0  0  0  0  0  0  0  0  0  0
   37.3610   25.9740   36.1170 H   0  0  0  0  0  0  0  0  0  0  0  0
   39.9800   24.8270   36.6610 H   0  0  0  0  0  0  0  0  0  0  0  0
   38.1600   23.0920   34.8980 H   0  0  0  0  0  0  0  0  0  0  0  0
   39.9560   22.9040   35.2790 H   0  0  0  0  0  0  0  0  0  0  0  0
   39.2830   24.1630   33.0430 H   0  0  0  0  0  0  0  0  0  0  0  0
   40.3770   25.0920   34.1960 H   0  0  0  0  0  0  0  0  0  0  0  0
   38.1620   23.9980   37.4080 C   0  0  0  0  0  0  0  0  0  0  0  0
   38.0240   25.0020   38.3430 F   0  0  0  0  0  0  0  0  0  0  0  0
   38.9110   23.0020   38.0040 F   0  0  0  0  0  0  0  0  0  0  0  0
   36.9520   23.5130   36.9940 F   0  0  0  0  0  0  0  0  0  0  0  0
   35.8900   29.6540   32.4840 S   0  0  0  0  0  0  0  0  0  0  0  0
   35.3570   30.3390   33.9240 C   0  0  0  0  0  0  0  0  0  0  0  0
   35.8280   31.0520   34.9830 C   0  0  0  0  0  0  0  0  0  0  0  0
   35.0570   31.4560   36.0560 C   0  0  0  0  0  0  0  0  0  0  0  0
   33.6450   31.0300   35.9350 C   0  0  0  0  0  0  0  0  0  0  0  0
   33.5500   30.1250   34.3590 S   0  0  0  0  0  0  0  0  0  0  0  0
   36.8810   31.2730   34.8990 H   0  0  0  0  0  0  0  0  0  0  0  0
   35.4290   32.0140   36.8860 H   0  0  0  0  0  0  0  0  0  0  0  0
   32.6660   31.3530   36.9580 C   0  0  0  0  0  2  0  0  0  0  0  0
   31.9360   30.0580   37.2290 C   0  0  0  0  0  2  0  0  0  0  0  0
   31.9610   29.3610   36.3640 H   0  0  0  0  0  0  0  0  0  0  0  0
  1  6  1  0  0  0  0
  1  9  1  0  0  0  0
  2  1  2  0  0  0  0
  3  4  2  0  0  0  0
  3  2  1  0  0  0  0
  4  5  1  0  0  0  0
  5 25  1  0  0  0  0
  5  6  2  0  0  0  0
  7  2  1  0  0  0  0
  8  3  1  0  0  0  0
  9 10  1  0  0  0  0
 10 14  1  0  0  0  0
 10 15  1  0  0  0  0
 10 11  1  0  0  0  0
 11 16  1  1  0  0  0
 11 21  1  0  0  0  0
 12 18  1  0  0  0  0
 12 11  1  0  0  0  0
 13 20  1  0  0  0  0
 13  9  1  0  0  0  0
 13 12  1  0  0  0  0
 17 12  1  0  0  0  0
 19 13  1  0  0  0  0
 21 23  1  0  0  0  0
 21 22  1  0  0  0  0
 24 21  1  0  0  0  0
 25 26  1  0  0  0  0
 26 30  1  0  0  0  0
 26 27  2  0  0  0  0
 27 28  1  0  0  0  0
 28 32  1  0  0  0  0
 29 28  2  0  0  0  0
 29 33  1  0  0  0  0
 30 29  1  0  0  0  0
 31 27  1  0  0  0  0
 33 34  1  0  0  0  0
 35 34  1  0  0  0  0
M  END
>  <minimizedAffinity>
-5.41619682

$$$$

 OpenBabel03272503353D

 35 37  0  0  1  0  0  0  0  0999 V2000
   35.9900   29.2130   32.0170 C   0  0  0  0  0  0  0  0  0  0  0  0
   36.1670   29.8000   30.7710 C   0  0  0  0  0  0  0  0  0  0  0  0
   36.9860   29.1280   29.8590 C   0  0  0  0  0  0  0  0  0  0  0  0
   37.5470   27.9390   30.2740 N   0  0  0  0  0  0  0  0  0  0  0  0
   37.3490   27.4200   31.4720 C   0  0  0  0  0  0  0  0  0  0  0  0
   36.5640   28.0490   32.3660 N   0  0  0  0  0  0  0  0  0  0  0  0
   35.7340   30.7220   30.4470 H   0  0  0  0  0  0  0  0  0  0  0  0
   37.1870   29.5000   28.8660 H   0  0  0  0  0  0  0  0  0  0  0  0
   35.1460   29.9060   32.9580 N   0  0  0  0  0  0  0  0  0  0  0  0
   35.1020   29.7140   34.3750 C   0  0  0  0  0  0  0  0  0  0  0  0
   34.6490   31.0860   34.8760 C   0  0  2  0  0  0  0  0  0  0  0  0
   34.5970   31.9910   33.6510 C   0  0  0  0  0  0  0  0  0  0  0  0
   34.1670   30.9400   32.6420 C   0  0  0  0  0  0  0  0  0  0  0  0
   34.3810   28.9210   34.6180 H   0  0  0  0  0  0  0  0  0  0  0  0
   36.1260   29.5100   34.7590 H   0  0  0  0  0  0  0  0  0  0  0  0
   33.6520   30.9460   35.2910 H   0  0  0  0  0  0  0  0  0  0  0  0
   35.5790   32.3770   33.3770 H   0  0  0  0  0  0  0  0  0  0  0  0
   33.8240   32.7680   33.7880 H   0  0  0  0  0  0  0  0  0  0  0  0
   34.3010   31.3130   31.6220 H   0  0  0  0  0  0  0  0  0  0  0  0
   33.1550   30.5720   32.8580 H   0  0  0  0  0  0  0  0  0  0  0  0
   35.5650   31.6320   35.9390 C   0  0  0  0  0  0  0  0  0  0  0  0
   34.8330   31.6790   37.1070 F   0  0  0  0  0  0  0  0  0  0  0  0
   35.8470   32.9400   35.5960 F   0  0  0  0  0  0  0  0  0  0  0  0
   36.7170   30.9090   36.0840 F   0  0  0  0  0  0  0  0  0  0  0  0
   38.1090   25.8760   31.9390 S   0  0  0  0  0  0  0  0  0  0  0  0
   37.1640   24.4860   31.9080 C   0  0  0  0  0  0  0  0  0  0  0  0
   36.0460   23.9920   31.3090 C   0  0  0  0  0  0  0  0  0  0  0  0
   35.5240   22.7360   31.5490 C   0  0  0  0  0  0  0  0  0  0  0  0
   36.3150   21.9690   32.5350 C   0  0  0  0  0  0  0  0  0  0  0  0
   37.6830   23.0700   33.0140 S   0  0  0  0  0  0  0  0  0  0  0  0
   35.6010   24.6920   30.6190 H   0  0  0  0  0  0  0  0  0  0  0  0
   34.6460   22.3510   31.0780 H   0  0  0  0  0  0  0  0  0  0  0  0
   35.9370   20.6230   32.9280 C   0  0  0  0  0  2  0  0  0  0  0  0
   34.7250   20.2920   32.0890 C   0  0  0  0  0  2  0  0  0  0  0  0
   34.1670   21.1960   31.7630 H   0  0  0  0  0  0  0  0  0  0  0  0
  1  6  1  0  0  0  0
  1  9  1  0  0  0  0
  2  1  2  0  0  0  0
  3  4  2  0  0  0  0
  3  2  1  0  0  0  0
  4  5  1  0  0  0  0
  5 25  1  0  0  0  0
  5  6  2  0  0  0  0
  7  2  1  0  0  0  0
  8  3  1  0  0  0  0
  9 10  1  0  0  0  0
 10 14  1  0  0  0  0
 10 15  1  0  0  0  0
 10 11  1  0  0  0  0
 11 16  1  1  0  0  0
 11 21  1  0  0  0  0
 12 18  1  0  0  0  0
 12 11  1  0  0  0  0
 13 20  1  0  0  0  0
 13  9  1  0  0  0  0
 13 12  1  0  0  0  0
 17 12  1  0  0  0  0
 19 13  1  0  0  0  0
 21 24  1  0  0  0  0
 21 22  1  0  0  0  0
 23 21  1  0  0  0  0
 26 25  1  0  0  0  0
 26 30  1  0  0  0  0
 27 28  1  0  0  0  0
 27 26  2  0  0  0  0
 28 29  2  0  0  0  0
 29 33  1  0  0  0  0
 29 30  1  0  0  0  0
 31 27  1  0  0  0  0
 32 28  1  0  0  0  0
 34 33  1  0  0  0  0
 35 34  1  0  0  0  0
M  END
>  <minimizedAffinity>
-5.27850723

$$$$

 OpenBabel03272503353D

 35 37  0  0  1  0  0  0  0  0999 V2000
   37.7710   24.6310   34.1940 C   0  0  0  0  0  0  0  0  0  0  0  0
   38.4140   24.7830   35.4140 C   0  0  0  0  0  0  0  0  0  0  0  0
   38.4180   26.0600   35.9810 C   0  0  0  0  0  0  0  0  0  0  0  0
   37.7820   27.0610   35.2800 N   0  0  0  0  0  0  0  0  0  0  0  0
   37.1820   26.8690   34.1190 C   0  0  0  0  0  0  0  0  0  0  0  0
   37.1660   25.6470   33.5550 N   0  0  0  0  0  0  0  0  0  0  0  0
   38.9100   24.0080   35.9610 H   0  0  0  0  0  0  0  0  0  0  0  0
   38.8900   26.2820   36.9260 H   0  0  0  0  0  0  0  0  0  0  0  0
   37.7670   23.3140   33.6090 N   0  0  0  0  0  0  0  0  0  0  0  0
   37.5460   22.0740   34.2870 C   0  0  0  0  0  0  0  0  0  0  0  0
   36.9560   21.1970   33.1810 C   0  0  2  0  0  0  0  0  0  0  0  0
   36.7810   22.1030   31.9670 C   0  0  0  0  0  0  0  0  0  0  0  0
   37.9890   22.9920   32.2030 C   0  0  0  0  0  0  0  0  0  0  0  0
   38.5030   21.6840   34.6630 H   0  0  0  0  0  0  0  0  0  0  0  0
   36.7830   22.2110   35.0840 H   0  0  0  0  0  0  0  0  0  0  0  0
   37.6950   20.4240   32.9760 H   0  0  0  0  0  0  0  0  0  0  0  0
   35.8720   22.7040   32.0250 H   0  0  0  0  0  0  0  0  0  0  0  0
   36.8800   21.5140   31.0380 H   0  0  0  0  0  0  0  0  0  0  0  0
   37.9310   23.8890   31.5780 H   0  0  0  0  0  0  0  0  0  0  0  0
   38.9250   22.4290   32.0960 H   0  0  0  0  0  0  0  0  0  0  0  0
   35.6590   20.5580   33.5970 C   0  0  0  0  0  0  0  0  0  0  0  0
   35.7720   19.2120   33.3160 F   0  0  0  0  0  0  0  0  0  0  0  0
   34.6770   21.0540   32.7610 F   0  0  0  0  0  0  0  0  0  0  0  0
   35.3400   20.7830   34.9080 F   0  0  0  0  0  0  0  0  0  0  0  0
   36.3780   28.2140   33.2680 S   0  0  0  0  0  0  0  0  0  0  0  0
   35.6690   29.4260   34.1940 C   0  0  0  0  0  0  0  0  0  0  0  0
   36.0100   30.4190   35.0590 C   0  0  0  0  0  0  0  0  0  0  0  0
   35.1060   31.2630   35.6740 C   0  0  0  0  0  0  0  0  0  0  0  0
   33.7070   30.9740   35.2900 C   0  0  0  0  0  0  0  0  0  0  0  0
   33.8060   29.5760   34.1300 S   0  0  0  0  0  0  0  0  0  0  0  0
   37.0760   30.4820   35.2180 H   0  0  0  0  0  0  0  0  0  0  0  0
   35.3760   32.0410   36.3530 H   0  0  0  0  0  0  0  0  0  0  0  0
   32.5990   31.7460   35.8250 C   0  0  0  0  0  2  0  0  0  0  0  0
   32.8630   31.8400   37.3100 C   0  0  0  0  0  2  0  0  0  0  0  0
   33.4860   31.0010   37.6900 H   0  0  0  0  0  0  0  0  0  0  0  0
  1  2  1  0  0  0  0
  2  7  1  0  0  0  0
  2  3  2  0  0  0  0
  3  8  1  0  0  0  0
  4  3  1  0  0  0  0
  5  4  2  0  0  0  0
  6  5  1  0  0  0  0
  6  1  2  0  0  0  0
  9  1  1  0  0  0  0
  9 10  1  0  0  0  0
 10 14  1  0  0  0  0
 10 15  1  0  0  0  0
 11 16  1  6  0  0  0
 11 21  1  0  0  0  0
 11 10  1  0  0  0  0
 12 17  1  0  0  0  0
 12 13  1  0  0  0  0
 12 11  1  0  0  0  0
 13  9  1  0  0  0  0
 18 12  1  0  0  0  0
 19 13  1  0  0  0  0
 20 13  1  0  0  0  0
 21 24  1  0  0  0  0
 22 21  1  0  0  0  0
 23 21  1  0  0  0  0
 25  5  1  0  0  0  0
 25 26  1  0  0  0  0
 26 27  2  0  0  0  0
 27 31  1  0  0  0  0
 27 28  1  0  0  0  0
 28 32  1  0  0  0  0
 29 28  2  0  0  0  0
 29 33  1  0  0  0  0
 30 26  1  0  0  0  0
 30 29  1  0  0  0  0
 33 34  1  0  0  0  0
 34 35  1  0  0  0  0
M  END
>  <minimizedAffinity>
-5.27527952

$$$$

 OpenBabel03272503353D

 35 37  0  0  1  0  0  0  0  0999 V2000
   36.5560   28.2790   32.1130 C   0  0  0  0  0  0  0  0  0  0  0  0
   37.2030   28.7250   30.9690 C   0  0  0  0  0  0  0  0  0  0  0  0
   38.0950   27.8420   30.3540 C   0  0  0  0  0  0  0  0  0  0  0  0
   38.2550   26.6030   30.9350 N   0  0  0  0  0  0  0  0  0  0  0  0
   37.6160   26.2220   32.0270 C   0  0  0  0  0  0  0  0  0  0  0  0
   36.7530   27.0560   32.6350 N   0  0  0  0  0  0  0  0  0  0  0  0
   37.0820   29.6860   30.5160 H   0  0  0  0  0  0  0  0  0  0  0  0
   38.6480   28.0920   29.4610 H   0  0  0  0  0  0  0  0  0  0  0  0
   35.6360   29.1890   32.7480 N   0  0  0  0  0  0  0  0  0  0  0  0
   35.3880   29.3190   34.1500 C   0  0  0  0  0  0  0  0  0  0  0  0
   34.9560   30.7810   34.2710 C   0  0  2  0  0  0  0  0  0  0  0  0
   35.1280   31.3920   32.8850 C   0  0  0  0  0  0  0  0  0  0  0  0
   34.7750   30.1560   32.0760 C   0  0  0  0  0  0  0  0  0  0  0  0
   34.5920   28.6230   34.4510 H   0  0  0  0  0  0  0  0  0  0  0  0
   36.3350   29.1750   34.7150 H   0  0  0  0  0  0  0  0  0  0  0  0
   33.9050   30.7680   34.5550 H   0  0  0  0  0  0  0  0  0  0  0  0
   36.1610   31.6770   32.6810 H   0  0  0  0  0  0  0  0  0  0  0  0
   34.3930   32.2030   32.7350 H   0  0  0  0  0  0  0  0  0  0  0  0
   35.0700   30.2880   31.0290 H   0  0  0  0  0  0  0  0  0  0  0  0
   33.7230   29.8760   32.2150 H   0  0  0  0  0  0  0  0  0  0  0  0
   35.7510   31.5230   35.3130 C   0  0  0  0  0  0  0  0  0  0  0  0
   34.8390   32.1590   36.1280 F   0  0  0  0  0  0  0  0  0  0  0  0
   36.4530   32.5140   34.6560 F   0  0  0  0  0  0  0  0  0  0  0  0
   36.5980   30.7160   36.0220 F   0  0  0  0  0  0  0  0  0  0  0  0
   37.8740   24.6010   32.7230 S   0  0  0  0  0  0  0  0  0  0  0  0
   38.1530   24.4840   34.3760 C   0  0  0  0  0  0  0  0  0  0  0  0
   37.9030   25.1590   35.5320 C   0  0  0  0  0  0  0  0  0  0  0  0
   38.3210   24.7460   36.7820 C   0  0  0  0  0  0  0  0  0  0  0  0
   39.0770   23.4760   36.7390 C   0  0  0  0  0  0  0  0  0  0  0  0
   39.1230   23.0040   34.9810 S   0  0  0  0  0  0  0  0  0  0  0  0
   37.3370   26.0640   35.3700 H   0  0  0  0  0  0  0  0  0  0  0  0
   38.1240   25.2780   37.6870 H   0  0  0  0  0  0  0  0  0  0  0  0
   39.6060   22.8670   37.9460 C   0  0  0  0  0  2  0  0  0  0  0  0
   40.8040   22.0670   37.4930 C   0  0  0  0  0  2  0  0  0  0  0  0
   40.7380   21.7580   36.4280 H   0  0  0  0  0  0  0  0  0  0  0  0
  1  6  1  0  0  0  0
  1  9  1  0  0  0  0
  2  1  2  0  0  0  0
  3  4  2  0  0  0  0
  3  2  1  0  0  0  0
  4  5  1  0  0  0  0
  5  6  2  0  0  0  0
  5 25  1  0  0  0  0
  7  2  1  0  0  0  0
  8  3  1  0  0  0  0
  9 10  1  0  0  0  0
 10 11  1  0  0  0  0
 10 14  1  0  0  0  0
 10 15  1  0  0  0  0
 11 16  1  1  0  0  0
 11 21  1  0  0  0  0
 12 11  1  0  0  0  0
 13 20  1  0  0  0  0
 13  9  1  0  0  0  0
 13 12  1  0  0  0  0
 17 12  1  0  0  0  0
 18 12  1  0  0  0  0
 19 13  1  0  0  0  0
 21 24  1  0  0  0  0
 21 22  1  0  0  0  0
 23 21  1  0  0  0  0
 25 26  1  0  0  0  0
 26 30  1  0  0  0  0
 26 27  2  0  0  0  0
 27 28  1  0  0  0  0
 28 32  1  0  0  0  0
 29 28  2  0  0  0  0
 29 33  1  0  0  0  0
 30 29  1  0  0  0  0
 31 27  1  0  0  0  0
 34 33  1  0  0  0  0
 35 34  1  0  0  0  0
M  END
>  <minimizedAffinity>
-5.23688745

$$$$

 OpenBabel03272503353D

 35 37  0  0  1  0  0  0  0  0999 V2000
   38.1400   25.1700   35.5230 C   0  0  0  0  0  0  0  0  0  0  0  0
   38.4060   26.3330   36.2320 C   0  0  0  0  0  0  0  0  0  0  0  0
   38.1200   27.5460   35.6010 C   0  0  0  0  0  0  0  0  0  0  0  0
   37.5970   27.4850   34.3270 N   0  0  0  0  0  0  0  0  0  0  0  0
   37.3600   26.3510   33.6910 C   0  0  0  0  0  0  0  0  0  0  0  0
   37.6280   25.1720   34.2810 N   0  0  0  0  0  0  0  0  0  0  0  0
   38.8130   26.3840   37.2210 H   0  0  0  0  0  0  0  0  0  0  0  0
   38.2900   28.5050   36.0660 H   0  0  0  0  0  0  0  0  0  0  0  0
   38.4350   23.9180   36.1740 N   0  0  0  0  0  0  0  0  0  0  0  0
   39.2220   22.8430   35.6520 C   0  0  0  0  0  0  0  0  0  0  0  0
   39.7680   22.1920   36.9230 C   0  0  2  0  0  0  0  0  0  0  0  0
   39.3160   23.0730   38.0820 C   0  0  0  0  0  0  0  0  0  0  0  0
   37.9820   23.5050   37.4980 C   0  0  0  0  0  0  0  0  0  0  0  0
   38.5790   22.1620   35.0760 H   0  0  0  0  0  0  0  0  0  0  0  0
   40.0710   23.2510   35.0620 H   0  0  0  0  0  0  0  0  0  0  0  0
   39.3040   21.2090   36.9880 H   0  0  0  0  0  0  0  0  0  0  0  0
   39.9550   23.9470   38.2130 H   0  0  0  0  0  0  0  0  0  0  0  0
   39.1860   22.4620   38.9930 H   0  0  0  0  0  0  0  0  0  0  0  0
   37.5760   24.3530   38.0590 H   0  0  0  0  0  0  0  0  0  0  0  0
   37.2930   22.6550   37.4060 H   0  0  0  0  0  0  0  0  0  0  0  0
   41.2650   22.0400   36.8840 C   0  0  0  0  0  0  0  0  0  0  0  0
   41.7950   23.3060   37.0250 F   0  0  0  0  0  0  0  0  0  0  0  0
   41.5950   21.6140   35.6120 F   0  0  0  0  0  0  0  0  0  0  0  0
   41.7460   21.1740   37.8260 F   0  0  0  0  0  0  0  0  0  0  0  0
   36.6820   26.3500   32.0420 S   0  0  0  0  0  0  0  0  0  0  0  0
   36.8620   27.7370   31.1100 C   0  0  0  0  0  0  0  0  0  0  0  0
   37.5300   28.1830   30.0110 C   0  0  0  0  0  0  0  0  0  0  0  0
   37.4390   29.4670   29.5100 C   0  0  0  0  0  0  0  0  0  0  0  0
   36.5260   30.3220   30.2990 C   0  0  0  0  0  0  0  0  0  0  0  0
   35.9040   29.2560   31.6370 S   0  0  0  0  0  0  0  0  0  0  0  0
   38.1480   27.4190   29.5640 H   0  0  0  0  0  0  0  0  0  0  0  0
   37.9650   29.8130   28.6480 H   0  0  0  0  0  0  0  0  0  0  0  0
   36.2890   31.7090   29.9410 C   0  0  0  0  0  2  0  0  0  0  0  0
   37.4780   32.4670   30.4840 C   0  0  0  0  0  2  0  0  0  0  0  0
   37.9580   31.9540   31.3450 H   0  0  0  0  0  0  0  0  0  0  0  0
  1  9  1  0  0  0  0
  1  2  1  0  0  0  0
  2  7  1  0  0  0  0
  3  8  1  0  0  0  0
  3  2  2  0  0  0  0
  4  3  1  0  0  0  0
  5  6  1  0  0  0  0
  5  4  2  0  0  0  0
  6  1  2  0  0  0  0
  9 13  1  0  0  0  0
 10  9  1  0  0  0  0
 10 11  1  0  0  0  0
 11 16  1  1  0  0  0
 11 12  1  0  0  0  0
 12 17  1  0  0  0  0
 12 18  1  0  0  0  0
 13 19  1  0  0  0  0
 13 12  1  0  0  0  0
 14 10  1  0  0  0  0
 15 10  1  0  0  0  0
 20 13  1  0  0  0  0
 21 11  1  0  0  0  0
 21 22  1  0  0  0  0
 21 24  1  0  0  0  0
 23 21  1  0  0  0  0
 25  5  1  0  0  0  0
 26 30  1  0  0  0  0
 26 25  1  0  0  0  0
 27 26  2  0  0  0  0
 28 27  1  0  0  0  0
 28 29  2  0  0  0  0
 29 30  1  0  0  0  0
 31 27  1  0  0  0  0
 32 28  1  0  0  0  0
 33 29  1  0  0  0  0
 33 34  1  0  0  0  0
 34 35  1  0  0  0  0
M  END
>  <minimizedAffinity>
-5.20150185

$$$$

 OpenBabel03272503353D

 35 37  0  0  1  0  0  0  0  0999 V2000
   37.7290   24.1270   33.1990 C   0  0  0  0  0  0  0  0  0  0  0  0
   37.4030   23.0940   32.3310 C   0  0  0  0  0  0  0  0  0  0  0  0
   36.5650   23.4040   31.2560 C   0  0  0  0  0  0  0  0  0  0  0  0
   36.1350   24.7080   31.1480 N   0  0  0  0  0  0  0  0  0  0  0  0
   36.4720   25.6590   32.0020 C   0  0  0  0  0  0  0  0  0  0  0  0
   37.2780   25.3830   33.0430 N   0  0  0  0  0  0  0  0  0  0  0  0
   37.7350   22.0800   32.4120 H   0  0  0  0  0  0  0  0  0  0  0  0
   36.2530   22.6730   30.5250 H   0  0  0  0  0  0  0  0  0  0  0  0
   38.5930   23.8090   34.3080 N   0  0  0  0  0  0  0  0  0  0  0  0
   38.8530   24.6230   35.4550 C   0  0  0  0  0  0  0  0  0  0  0  0
   39.1830   23.5820   36.5260 C   0  0  2  0  0  0  0  0  0  0  0  0
   38.9490   22.2200   35.8840 C   0  0  0  0  0  0  0  0  0  0  0  0
   39.3740   22.5880   34.4720 C   0  0  0  0  0  0  0  0  0  0  0  0
   39.6990   25.2930   35.2480 H   0  0  0  0  0  0  0  0  0  0  0  0
   37.9260   25.1630   35.7510 H   0  0  0  0  0  0  0  0  0  0  0  0
   40.2370   23.7140   36.7670 H   0  0  0  0  0  0  0  0  0  0  0  0
   37.8950   21.9360   35.8820 H   0  0  0  0  0  0  0  0  0  0  0  0
   39.6230   21.4690   36.3320 H   0  0  0  0  0  0  0  0  0  0  0  0
   39.0550   21.8160   33.7640 H   0  0  0  0  0  0  0  0  0  0  0  0
   40.4450   22.8240   34.4280 H   0  0  0  0  0  0  0  0  0  0  0  0
   38.3550   23.7660   37.7700 C   0  0  0  0  0  0  0  0  0  0  0  0
   38.0570   25.1100   37.8520 F   0  0  0  0  0  0  0  0  0  0  0  0
   39.1710   23.4750   38.8460 F   0  0  0  0  0  0  0  0  0  0  0  0
   37.2300   22.9890   37.7900 F   0  0  0  0  0  0  0  0  0  0  0  0
   35.8750   27.3270   31.7990 S   0  0  0  0  0  0  0  0  0  0  0  0
   36.7730   28.3780   30.8420 C   0  0  0  0  0  0  0  0  0  0  0  0
   36.6640   29.5860   30.2240 C   0  0  0  0  0  0  0  0  0  0  0  0
   37.6620   30.1680   29.4670 C   0  0  0  0  0  0  0  0  0  0  0  0
   38.8820   29.3340   29.3970 C   0  0  0  0  0  0  0  0  0  0  0  0
   38.5070   27.8500   30.3800 S   0  0  0  0  0  0  0  0  0  0  0  0
   35.7030   30.0490   30.3870 H   0  0  0  0  0  0  0  0  0  0  0  0
   37.5730   31.1150   28.9830 H   0  0  0  0  0  0  0  0  0  0  0  0
   40.0510   29.7640   28.6500 C   0  0  0  0  0  2  0  0  0  0  0  0
   41.2350   29.2900   29.4610 C   0  0  0  0  0  2  0  0  0  0  0  0
   40.9970   29.1730   30.5400 H   0  0  0  0  0  0  0  0  0  0  0  0
  1  9  1  0  0  0  0
  2  7  1  0  0  0  0
  2  1  2  0  0  0  0
  3  2  1  0  0  0  0
  4  3  2  0  0  0  0
  4  5  1  0  0  0  0
  5  6  2  0  0  0  0
  6  1  1  0  0  0  0
  8  3  1  0  0  0  0
  9 13  1  0  0  0  0
  9 10  1  0  0  0  0
 10 15  1  0  0  0  0
 10 11  1  0  0  0  0
 11 16  1  1  0  0  0
 11 21  1  0  0  0  0
 12 18  1  0  0  0  0
 12 11  1  0  0  0  0
 13 12  1  0  0  0  0
 14 10  1  0  0  0  0
 17 12  1  0  0  0  0
 19 13  1  0  0  0  0
 20 13  1  0  0  0  0
 21 24  1  0  0  0  0
 21 22  1  0  0  0  0
 21 23  1  0  0  0  0
 25  5  1  0  0  0  0
 26 25  1  0  0  0  0
 27 31  1  0  0  0  0
 27 26  2  0  0  0  0
 28 27  1  0  0  0  0
 29 28  2  0  0  0  0
 29 30  1  0  0  0  0
 30 26  1  0  0  0  0
 32 28  1  0  0  0  0
 33 29  1  0  0  0  0
 33 34  1  0  0  0  0
 34 35  1  0  0  0  0
M  END
>  <minimizedAffinity>
-5.12279844

$$$$
