
 OpenBabel03272508053D

 29 31  0  0  0  0  0  0  0  0999 V2000
   38.9100   30.9040   45.7870 C   0  0  0  0  0  0  0  0  0  0  0  0
   40.0980   31.5330   46.0440 C   0  0  0  0  0  0  0  0  0  0  0  0
   40.9520   31.4780   44.9350 C   0  0  0  0  0  0  0  0  0  0  0  0
   40.2020   30.7930   44.0370 N   0  0  0  0  0  0  0  0  0  0  0  0
   39.0260   30.4560   44.5150 N   0  0  0  0  0  0  0  0  0  0  0  0
   40.3880   32.0250   46.9720 H   0  0  0  0  0  0  0  0  0  0  0  0
   41.9330   31.8490   44.7690 H   0  0  0  0  0  0  0  0  0  0  0  0
   37.7750   30.7470   46.6770 C   0  0  0  0  0  0  0  0  0  0  0  0
   37.9960   30.9700   48.0650 C   0  0  0  0  0  0  0  0  0  0  0  0
   36.9060   30.8190   48.9180 C   0  0  0  0  0  0  0  0  0  0  0  0
   35.7020   30.4670   48.3750 N   0  0  0  0  0  0  0  0  0  0  0  0
   35.5250   30.2610   47.0480 C   0  0  0  0  0  0  0  0  0  0  0  0
   36.5740   30.4060   46.2130 N   0  0  0  0  0  0  0  0  0  0  0  0
   38.9710   31.2430   48.3950 H   0  0  0  0  0  0  0  0  0  0  0  0
   34.5360   29.9840   46.6990 H   0  0  0  0  0  0  0  0  0  0  0  0
   37.0990   31.0450   50.3790 C   0  0  0  0  0  0  0  0  0  0  0  0
   36.5720   32.2890   50.6310 F   0  0  0  0  0  0  0  0  0  0  0  0
   36.4180   30.1030   51.1500 F   0  0  0  0  0  0  0  0  0  0  0  0
   38.4480   31.0390   50.7230 F   0  0  0  0  0  0  0  0  0  0  0  0
   40.5610   30.4200   42.6640 C   0  0  0  0  0  0  0  0  0  0  0  0
   40.1850   31.2200   41.5700 C   0  0  0  0  0  0  0  0  0  0  0  0
   40.5530   30.8240   40.3140 C   0  0  0  0  0  0  0  0  0  0  0  0
   41.2950   29.6250   40.1500 C   0  0  0  0  0  0  0  0  0  0  0  0
   41.4840   29.0250   41.9000 S   0  0  0  0  0  0  0  0  0  0  0  0
   39.6190   32.1340   41.6750 H   0  0  0  0  0  0  0  0  0  0  0  0
   40.3490   31.3140   39.3770 H   0  0  0  0  0  0  0  0  0  0  0  0
   41.8290   28.9230   39.0620 C   0  0  0  0  0  2  0  0  0  0  0  0
   41.2640   29.4920   37.7540 C   0  0  0  0  0  2  0  0  0  0  0  0
   41.0550   30.5690   37.9150 H   0  0  0  0  0  0  0  0  0  0  0  0
  1  2  1  0  0  0  0
  1  8  1  0  0  0  0
  2  6  1  0  0  0  0
  3  2  2  0  0  0  0
  4  5  1  0  0  0  0
  4  3  1  0  0  0  0
  5  1  2  0  0  0  0
  7  3  1  0  0  0  0
  8  9  1  0  0  0  0
  9 14  1  0  0  0  0
  9 10  2  0  0  0  0
 10 16  1  0  0  0  0
 11 10  1  0  0  0  0
 12 11  2  0  0  0  0
 13  8  2  0  0  0  0
 13 12  1  0  0  0  0
 15 12  1  0  0  0  0
 16 17  1  0  0  0  0
 16 19  1  0  0  0  0
 16 18  1  0  0  0  0
 20  4  1  0  0  0  0
 21 25  1  0  0  0  0
 21 20  2  0  0  0  0
 22 21  1  0  0  0  0
 23 22  2  0  0  0  0
 23 24  1  0  0  0  0
 24 20  1  0  0  0  0
 26 22  1  0  0  0  0
 27 23  1  0  0  0  0
 28 29  1  0  0  0  0
 28 27  1  0  0  0  0
M  END
>  <minimizedAffinity>
-5.90523767

>  <minimizedRMSD>
0.0346593782

$$$$
