
 OpenBabel03272507563D

 17 17  0  0  0  0  0  0  0  0999 V2000
   38.0170   22.4840   36.1610 C   0  0  0  0  0  0  0  0  0  0  0  0
   38.1410   23.7350   36.8030 C   0  0  0  0  0  0  0  0  0  0  0  0
   38.2150   24.8910   36.0080 C   0  0  0  0  0  0  0  0  0  0  0  0
   38.1590   24.7050   34.6430 N   0  0  0  0  0  0  0  0  0  0  0  0
   38.0410   23.4850   34.0820 C   0  0  0  0  0  0  0  0  0  0  0  0
   37.9680   22.3660   34.8300 N   0  0  0  0  0  0  0  0  0  0  0  0
   37.9860   23.5700   32.6700 N   0  0  0  0  0  0  0  0  0  0  0  0
   37.9620   21.6010   36.8030 H   0  0  0  0  0  0  0  0  0  0  0  0
   37.0800   23.1360   32.3500 H   0  0  0  0  0  0  0  0  0  0  0  0
   38.6810   23.9760   32.0250 H   0  0  0  0  0  0  0  0  0  0  0  0
   38.1860   23.7840   38.2970 C   0  0  0  0  0  0  0  0  0  0  0  0
   37.7230   24.9930   38.7860 F   0  0  0  0  0  0  0  0  0  0  0  0
   37.3520   22.7890   38.7640 F   0  0  0  0  0  0  0  0  0  0  0  0
   39.4510   23.5460   38.7990 F   0  0  0  0  0  0  0  0  0  0  0  0
   38.3400   26.2070   36.6350 C   0  0  0  0  0  2  0  0  0  0  0  0
   38.9230   27.1710   35.6210 C   0  0  0  0  0  2  0  0  0  0  0  0
   38.9450   26.7380   34.5920 H   0  0  0  0  0  0  0  0  0  0  0  0
  1  8  1  0  0  0  0
  1  2  1  0  0  0  0
  2 11  1  0  0  0  0
  3 15  1  0  0  0  0
  3  2  2  0  0  0  0
  4  3  1  0  0  0  0
  5  4  2  0  0  0  0
  5  6  1  0  0  0  0
  6  1  2  0  0  0  0
  7  5  1  0  0  0  0
  9  7  1  0  0  0  0
 10  7  1  0  0  0  0
 11 13  1  0  0  0  0
 11 12  1  0  0  0  0
 11 14  1  0  0  0  0
 16 15  1  0  0  0  0
 17 16  1  0  0  0  0
M  END
>  <minimizedAffinity>
-4.42537022

$$$$

 OpenBabel03272507563D

 17 17  0  0  0  0  0  0  0  0999 V2000
   37.8960   24.8640   36.3940 C   0  0  0  0  0  0  0  0  0  0  0  0
   38.6060   23.9410   37.1900 C   0  0  0  0  0  0  0  0  0  0  0  0
   39.6170   23.1740   36.5860 C   0  0  0  0  0  0  0  0  0  0  0  0
   39.8350   23.3920   35.2420 N   0  0  0  0  0  0  0  0  0  0  0  0
   39.1260   24.2890   34.5280 C   0  0  0  0  0  0  0  0  0  0  0  0
   38.1530   25.0330   35.0930 N   0  0  0  0  0  0  0  0  0  0  0  0
   39.5580   24.3340   33.1810 N   0  0  0  0  0  0  0  0  0  0  0  0
   37.1150   25.4480   36.8900 H   0  0  0  0  0  0  0  0  0  0  0  0
   39.8670   25.3200   32.9680 H   0  0  0  0  0  0  0  0  0  0  0  0
   39.5880   23.5680   32.4910 H   0  0  0  0  0  0  0  0  0  0  0  0
   38.2620   23.8140   38.6400 C   0  0  0  0  0  0  0  0  0  0  0  0
   39.3930   23.7730   39.4360 F   0  0  0  0  0  0  0  0  0  0  0  0
   37.5360   24.9340   38.9880 F   0  0  0  0  0  0  0  0  0  0  0  0
   37.4800   22.7050   38.9050 F   0  0  0  0  0  0  0  0  0  0  0  0
   40.3790   22.2080   37.3770 C   0  0  0  0  0  2  0  0  0  0  0  0
   41.8140   22.2090   36.8880 C   0  0  0  0  0  2  0  0  0  0  0  0
   42.0210   23.0570   36.1930 H   0  0  0  0  0  0  0  0  0  0  0  0
  1  8  1  0  0  0  0
  1  2  1  0  0  0  0
  2 11  1  0  0  0  0
  3  2  2  0  0  0  0
  3 15  1  0  0  0  0
  4  3  1  0  0  0  0
  5  6  1  0  0  0  0
  5  4  2  0  0  0  0
  6  1  2  0  0  0  0
  7  5  1  0  0  0  0
  9  7  1  0  0  0  0
 10  7  1  0  0  0  0
 11 14  1  0  0  0  0
 11 13  1  0  0  0  0
 11 12  1  0  0  0  0
 16 15  1  0  0  0  0
 17 16  1  0  0  0  0
M  END
>  <minimizedAffinity>
-4.24728394

$$$$

 OpenBabel03272507563D

 17 17  0  0  0  0  0  0  0  0999 V2000
   38.0910   25.7800   36.5950 C   0  0  0  0  0  0  0  0  0  0  0  0
   38.1750   24.3850   36.7870 C   0  0  0  0  0  0  0  0  0  0  0  0
   38.1740   23.5520   35.6540 C   0  0  0  0  0  0  0  0  0  0  0  0
   38.0900   24.1790   34.4290 N   0  0  0  0  0  0  0  0  0  0  0  0
   38.0110   25.5190   34.3040 C   0  0  0  0  0  0  0  0  0  0  0  0
   38.0100   26.3320   35.3800 N   0  0  0  0  0  0  0  0  0  0  0  0
   37.9530   25.9080   32.9440 N   0  0  0  0  0  0  0  0  0  0  0  0
   38.0940   26.4040   37.4930 H   0  0  0  0  0  0  0  0  0  0  0  0
   38.7690   26.5470   32.7510 H   0  0  0  0  0  0  0  0  0  0  0  0
   37.2600   25.6390   32.2290 H   0  0  0  0  0  0  0  0  0  0  0  0
   38.2660   23.8450   38.1780 C   0  0  0  0  0  0  0  0  0  0  0  0
   39.4950   23.2590   38.4240 F   0  0  0  0  0  0  0  0  0  0  0  0
   38.1220   24.9120   39.0410 F   0  0  0  0  0  0  0  0  0  0  0  0
   37.2650   22.9350   38.4610 F   0  0  0  0  0  0  0  0  0  0  0  0
   38.2640   22.1010   35.8090 C   0  0  0  0  0  2  0  0  0  0  0  0
   36.9280   21.4910   35.4340 C   0  0  0  0  0  2  0  0  0  0  0  0
   36.2500   22.2320   34.9460 H   0  0  0  0  0  0  0  0  0  0  0  0
  1  2  1  0  0  0  0
  1  8  1  0  0  0  0
  2 11  1  0  0  0  0
  3 15  1  0  0  0  0
  3  2  2  0  0  0  0
  4  3  1  0  0  0  0
  5  4  2  0  0  0  0
  5  6  1  0  0  0  0
  6  1  2  0  0  0  0
  7  5  1  0  0  0  0
  9  7  1  0  0  0  0
 10  7  1  0  0  0  0
 11 12  1  0  0  0  0
 11 14  1  0  0  0  0
 11 13  1  0  0  0  0
 16 15  1  0  0  0  0
 17 16  1  0  0  0  0
M  END
>  <minimizedAffinity>
-4.00021315

$$$$

 OpenBabel03272507563D

 17 17  0  0  0  0  0  0  0  0999 V2000
   38.4670   24.6030   34.4120 C   0  0  0  0  0  0  0  0  0  0  0  0
   38.1930   23.7590   35.5100 C   0  0  0  0  0  0  0  0  0  0  0  0
   38.0240   24.3430   36.7770 C   0  0  0  0  0  0  0  0  0  0  0  0
   38.1410   25.7150   36.8430 N   0  0  0  0  0  0  0  0  0  0  0  0
   38.4040   26.4740   35.7600 C   0  0  0  0  0  0  0  0  0  0  0  0
   38.5700   25.9300   34.5380 N   0  0  0  0  0  0  0  0  0  0  0  0
   38.4540   27.8490   36.0930 N   0  0  0  0  0  0  0  0  0  0  0  0
   38.5940   24.1220   33.4380 H   0  0  0  0  0  0  0  0  0  0  0  0
   37.7310   28.3530   35.5160 H   0  0  0  0  0  0  0  0  0  0  0  0
   39.0690   28.3220   36.7740 H   0  0  0  0  0  0  0  0  0  0  0  0
   38.0900   22.2850   35.2870 C   0  0  0  0  0  0  0  0  0  0  0  0
   36.8630   21.7880   35.6870 F   0  0  0  0  0  0  0  0  0  0  0  0
   38.2170   22.0660   33.9300 F   0  0  0  0  0  0  0  0  0  0  0  0
   39.0940   21.5790   35.9240 F   0  0  0  0  0  0  0  0  0  0  0  0
   37.7360   23.5050   37.9400 C   0  0  0  0  0  2  0  0  0  0  0  0
   38.9980   23.3800   38.7710 C   0  0  0  0  0  2  0  0  0  0  0  0
   39.7920   24.0890   38.4370 H   0  0  0  0  0  0  0  0  0  0  0  0
  1  6  2  0  0  0  0
  1  2  1  0  0  0  0
  2  3  2  0  0  0  0
  3  4  1  0  0  0  0
  3 15  1  0  0  0  0
  5  7  1  0  0  0  0
  5  4  2  0  0  0  0
  6  5  1  0  0  0  0
  7 10  1  0  0  0  0
  8  1  1  0  0  0  0
  9  7  1  0  0  0  0
 11  2  1  0  0  0  0
 11 12  1  0  0  0  0
 11 14  1  0  0  0  0
 13 11  1  0  0  0  0
 15 16  1  0  0  0  0
 17 16  1  0  0  0  0
M  END
>  <minimizedAffinity>
-3.9960959

$$$$

 OpenBabel03272507563D

 17 17  0  0  0  0  0  0  0  0999 V2000
   38.0760   24.4350   36.8120 C   0  0  0  0  0  0  0  0  0  0  0  0
   38.7830   24.9720   35.7160 C   0  0  0  0  0  0  0  0  0  0  0  0
   40.0300   24.4130   35.3850 C   0  0  0  0  0  0  0  0  0  0  0  0
   40.4650   23.3690   36.1720 N   0  0  0  0  0  0  0  0  0  0  0  0
   39.7470   22.8940   37.2100 C   0  0  0  0  0  0  0  0  0  0  0  0
   38.5500   23.4190   37.5410 N   0  0  0  0  0  0  0  0  0  0  0  0
   40.4050   21.8110   37.8400 N   0  0  0  0  0  0  0  0  0  0  0  0
   37.1090   24.8880   37.0480 H   0  0  0  0  0  0  0  0  0  0  0  0
   39.7670   20.9730   37.8030 H   0  0  0  0  0  0  0  0  0  0  0  0
   41.3410   21.7930   38.2730 H   0  0  0  0  0  0  0  0  0  0  0  0
   38.1840   26.1060   34.9480 C   0  0  0  0  0  0  0  0  0  0  0  0
   38.0910   25.8220   33.5970 F   0  0  0  0  0  0  0  0  0  0  0  0
   36.9060   26.2980   35.4320 F   0  0  0  0  0  0  0  0  0  0  0  0
   38.8810   27.2880   35.1150 F   0  0  0  0  0  0  0  0  0  0  0  0
   40.7930   24.9380   34.2530 C   0  0  0  0  0  2  0  0  0  0  0  0
   41.9600   25.7440   34.7900 C   0  0  0  0  0  2  0  0  0  0  0  0
   42.0970   25.6040   35.8890 H   0  0  0  0  0  0  0  0  0  0  0  0
  1  8  1  0  0  0  0
  1  6  1  0  0  0  0
  2  1  2  0  0  0  0
  3  2  1  0  0  0  0
  3  4  2  0  0  0  0
  4  5  1  0  0  0  0
  5  6  2  0  0  0  0
  5  7  1  0  0  0  0
  7 10  1  0  0  0  0
  9  7  1  0  0  0  0
 11 14  1  0  0  0  0
 11 13  1  0  0  0  0
 11  2  1  0  0  0  0
 12 11  1  0  0  0  0
 15 16  1  0  0  0  0
 15  3  1  0  0  0  0
 16 17  1  0  0  0  0
M  END
>  <minimizedAffinity>
-3.971874

$$$$

 OpenBabel03272507563D

 17 17  0  0  0  0  0  0  0  0999 V2000
   38.9480   22.7650   34.9370 C   0  0  0  0  0  0  0  0  0  0  0  0
   38.4450   24.0510   34.6460 C   0  0  0  0  0  0  0  0  0  0  0  0
   38.1090   24.8970   35.7180 C   0  0  0  0  0  0  0  0  0  0  0  0
   38.3020   24.3910   36.9860 N   0  0  0  0  0  0  0  0  0  0  0  0
   38.7870   23.1520   37.2060 C   0  0  0  0  0  0  0  0  0  0  0  0
   39.1140   22.3290   36.1900 N   0  0  0  0  0  0  0  0  0  0  0  0
   38.9080   22.8840   38.5910 N   0  0  0  0  0  0  0  0  0  0  0  0
   39.2020   22.1280   34.0850 H   0  0  0  0  0  0  0  0  0  0  0  0
   39.9170   22.6560   38.7940 H   0  0  0  0  0  0  0  0  0  0  0  0
   38.1720   22.8990   39.3140 H   0  0  0  0  0  0  0  0  0  0  0  0
   38.2920   24.4670   33.2190 C   0  0  0  0  0  0  0  0  0  0  0  0
   39.1300   25.5200   32.8960 F   0  0  0  0  0  0  0  0  0  0  0  0
   38.6460   23.3870   32.4370 F   0  0  0  0  0  0  0  0  0  0  0  0
   36.9910   24.8100   32.9020 F   0  0  0  0  0  0  0  0  0  0  0  0
   37.5880   26.2380   35.4600 C   0  0  0  0  0  2  0  0  0  0  0  0
   38.6840   27.2460   35.7440 C   0  0  0  0  0  2  0  0  0  0  0  0
   39.6770   26.7570   35.8910 H   0  0  0  0  0  0  0  0  0  0  0  0
  1  6  1  0  0  0  0
  2  1  2  0  0  0  0
  2  3  1  0  0  0  0
  3  4  2  0  0  0  0
  4  5  1  0  0  0  0
  5  7  1  0  0  0  0
  6  5  2  0  0  0  0
  7  9  1  0  0  0  0
  7 10  1  0  0  0  0
  8  1  1  0  0  0  0
 11  2  1  0  0  0  0
 12 11  1  0  0  0  0
 13 11  1  0  0  0  0
 14 11  1  0  0  0  0
 15  3  1  0  0  0  0
 15 16  1  0  0  0  0
 16 17  1  0  0  0  0
M  END
>  <minimizedAffinity>
-3.96879196

$$$$

 OpenBabel03272507563D

 17 17  0  0  0  0  0  0  0  0999 V2000
   41.0320   23.6540   35.3630 C   0  0  0  0  0  0  0  0  0  0  0  0
   39.7540   24.1030   35.7570 C   0  0  0  0  0  0  0  0  0  0  0  0
   39.1390   23.4880   36.8610 C   0  0  0  0  0  0  0  0  0  0  0  0
   39.8490   22.4790   37.4780 N   0  0  0  0  0  0  0  0  0  0  0  0
   41.0700   22.0900   37.0590 C   0  0  0  0  0  0  0  0  0  0  0  0
   41.6730   22.6700   36.0010 N   0  0  0  0  0  0  0  0  0  0  0  0
   41.5880   21.0540   37.8720 N   0  0  0  0  0  0  0  0  0  0  0  0
   41.4880   24.1500   34.5010 H   0  0  0  0  0  0  0  0  0  0  0  0
   42.5030   21.3840   38.2790 H   0  0  0  0  0  0  0  0  0  0  0  0
   41.1820   20.1260   38.0650 H   0  0  0  0  0  0  0  0  0  0  0  0
   39.1050   25.2120   34.9930 C   0  0  0  0  0  0  0  0  0  0  0  0
   38.8990   26.3300   35.7830 F   0  0  0  0  0  0  0  0  0  0  0  0
   39.9640   25.5640   33.9730 F   0  0  0  0  0  0  0  0  0  0  0  0
   37.9040   24.8330   34.4230 F   0  0  0  0  0  0  0  0  0  0  0  0
   37.8160   23.9260   37.3040 C   0  0  0  0  0  2  0  0  0  0  0  0
   37.9400   24.4970   38.7030 C   0  0  0  0  0  2  0  0  0  0  0  0
   39.0050   24.6410   39.0060 H   0  0  0  0  0  0  0  0  0  0  0  0
  1  2  2  0  0  0  0
  1  6  1  0  0  0  0
  2  3  1  0  0  0  0
  3 15  1  0  0  0  0
  3  4  2  0  0  0  0
  5  4  1  0  0  0  0
  5  7  1  0  0  0  0
  6  5  2  0  0  0  0
  7 10  1  0  0  0  0
  7  9  1  0  0  0  0
  8  1  1  0  0  0  0
 11  2  1  0  0  0  0
 11 12  1  0  0  0  0
 13 11  1  0  0  0  0
 14 11  1  0  0  0  0
 15 16  1  0  0  0  0
 16 17  1  0  0  0  0
M  END
>  <minimizedAffinity>
-3.89050961

$$$$

 OpenBabel03272507563D

 17 17  0  0  0  0  0  0  0  0999 V2000
   37.6520   21.9950   34.6450 C   0  0  0  0  0  0  0  0  0  0  0  0
   37.0420   21.4760   33.4830 C   0  0  0  0  0  0  0  0  0  0  0  0
   35.8640   20.7230   33.6250 C   0  0  0  0  0  0  0  0  0  0  0  0
   35.3930   20.5520   34.9100 N   0  0  0  0  0  0  0  0  0  0  0  0
   36.0180   21.0710   35.9860 C   0  0  0  0  0  0  0  0  0  0  0  0
   37.1490   21.7950   35.8670 N   0  0  0  0  0  0  0  0  0  0  0  0
   35.3230   20.7680   37.1820 N   0  0  0  0  0  0  0  0  0  0  0  0
   38.5680   22.5770   34.5060 H   0  0  0  0  0  0  0  0  0  0  0  0
   35.0660   21.6770   37.6510 H   0  0  0  0  0  0  0  0  0  0  0  0
   35.0830   19.8420   37.5670 H   0  0  0  0  0  0  0  0  0  0  0  0
   37.6650   21.7460   32.1520 C   0  0  0  0  0  0  0  0  0  0  0  0
   38.7700   22.5730   32.2580 F   0  0  0  0  0  0  0  0  0  0  0  0
   38.0870   20.5350   31.6430 F   0  0  0  0  0  0  0  0  0  0  0  0
   36.7730   22.2950   31.2490 F   0  0  0  0  0  0  0  0  0  0  0  0
   35.1980   20.1700   32.4460 C   0  0  0  0  0  2  0  0  0  0  0  0
   35.2380   18.6570   32.5340 C   0  0  0  0  0  2  0  0  0  0  0  0
   35.5760   18.3030   33.5370 H   0  0  0  0  0  0  0  0  0  0  0  0
  1  6  1  0  0  0  0
  2  3  1  0  0  0  0
  2  1  2  0  0  0  0
  3  4  2  0  0  0  0
  4  5  1  0  0  0  0
  5  7  1  0  0  0  0
  6  5  2  0  0  0  0
  7 10  1  0  0  0  0
  7  9  1  0  0  0  0
  8  1  1  0  0  0  0
 11 12  1  0  0  0  0
 11  2  1  0  0  0  0
 13 11  1  0  0  0  0
 14 11  1  0  0  0  0
 15 16  1  0  0  0  0
 15  3  1  0  0  0  0
 16 17  1  0  0  0  0
M  END
>  <minimizedAffinity>
-3.88904691

$$$$

 OpenBabel03272507563D

 17 17  0  0  0  0  0  0  0  0999 V2000
   37.0960   26.8530   33.5930 C   0  0  0  0  0  0  0  0  0  0  0  0
   37.9440   26.2070   34.5170 C   0  0  0  0  0  0  0  0  0  0  0  0
   38.2630   24.8560   34.3030 C   0  0  0  0  0  0  0  0  0  0  0  0
   37.7110   24.2620   33.1870 N   0  0  0  0  0  0  0  0  0  0  0  0
   36.9050   24.9270   32.3360 C   0  0  0  0  0  0  0  0  0  0  0  0
   36.5890   26.2240   32.5270 N   0  0  0  0  0  0  0  0  0  0  0  0
   36.4890   24.0990   31.2660 N   0  0  0  0  0  0  0  0  0  0  0  0
   36.8640   27.9040   33.7830 H   0  0  0  0  0  0  0  0  0  0  0  0
   36.7990   24.5480   30.3640 H   0  0  0  0  0  0  0  0  0  0  0  0
   35.9750   23.2060   31.3080 H   0  0  0  0  0  0  0  0  0  0  0  0
   38.4730   26.9810   35.6820 C   0  0  0  0  0  0  0  0  0  0  0  0
   39.8360   27.1950   35.5820 F   0  0  0  0  0  0  0  0  0  0  0  0
   37.8470   28.2100   35.6760 F   0  0  0  0  0  0  0  0  0  0  0  0
   38.1980   26.3730   36.8930 F   0  0  0  0  0  0  0  0  0  0  0  0
   39.1420   24.1510   35.2350 C   0  0  0  0  0  2  0  0  0  0  0  0
   38.3160   23.1460   36.0130 C   0  0  0  0  0  2  0  0  0  0  0  0
   37.2920   23.0220   35.5850 H   0  0  0  0  0  0  0  0  0  0  0  0
  1  8  1  0  0  0  0
  1  2  1  0  0  0  0
  2 11  1  0  0  0  0
  3  2  2  0  0  0  0
  3 15  1  0  0  0  0
  4  3  1  0  0  0  0
  5  6  1  0  0  0  0
  5  4  2  0  0  0  0
  6  1  2  0  0  0  0
  7 10  1  0  0  0  0
  7  5  1  0  0  0  0
  9  7  1  0  0  0  0
 11 14  1  0  0  0  0
 12 11  1  0  0  0  0
 13 11  1  0  0  0  0
 15 16  1  0  0  0  0
 17 16  1  0  0  0  0
M  END
>  <minimizedAffinity>
-3.84664798

$$$$
