
 OpenBabel03272504553D

 21 22  0  0  1  0  0  0  0  0999 V2000
   38.5970   24.8300   36.4200 C   0  0  0  0  0  0  0  0  0  0  0  0
   37.8970   25.1340   37.5940 C   0  0  0  0  0  0  0  0  0  0  0  0
   38.0360   24.2300   38.6160 C   0  0  0  0  0  0  0  0  0  0  0  0
   38.8140   23.1240   38.4520 N   0  0  0  0  0  0  0  0  0  0  0  0
   39.4740   22.8620   37.3100 C   0  0  0  0  0  0  0  0  0  0  0  0
   39.3590   23.7430   36.2670 N   0  0  0  0  0  0  0  0  0  0  0  0
   40.2930   21.7270   37.1370 N   0  0  0  0  0  0  0  0  0  0  0  0
   37.3060   26.0110   37.6660 H   0  0  0  0  0  0  0  0  0  0  0  0
   37.5110   24.4200   39.5530 H   0  0  0  0  0  0  0  0  0  0  0  0
   41.0280   21.7150   36.3970 H   0  0  0  0  0  0  0  0  0  0  0  0
   40.1570   20.8830   37.7650 H   0  0  0  0  0  0  0  0  0  0  0  0
   38.4940   25.8220   35.2790 C   0  0  1  0  0  0  0  0  0  0  0  0
   38.2820   27.2240   35.5180 C   0  0  0  0  0  0  0  0  0  0  0  0
   39.6940   26.7740   35.2290 C   0  0  2  0  0  0  0  0  0  0  0  0
   38.2760   25.2930   34.3280 H   0  0  0  0  0  0  0  0  0  0  0  0
   37.7640   27.8350   34.7560 H   0  0  0  0  0  0  0  0  0  0  0  0
   38.1300   27.5820   36.5630 H   0  0  0  0  0  0  0  0  0  0  0  0
   40.4420   26.7370   36.0310 H   0  0  0  0  0  0  0  0  0  0  0  0
   40.1770   27.0830   33.8510 C   0  0  0  0  0  2  0  0  0  0  0  0
   41.6910   27.1610   33.7630 C   0  0  0  0  0  2  0  0  0  0  0  0
   42.1170   27.7900   34.5720 H   0  0  0  0  0  0  0  0  0  0  0  0
  1  2  1  0  0  0  0
  2  8  1  0  0  0  0
  2  3  2  0  0  0  0
  3  9  1  0  0  0  0
  4  3  1  0  0  0  0
  5  4  2  0  0  0  0
  6  1  2  0  0  0  0
  6  5  1  0  0  0  0
  7  5  1  0  0  0  0
  7 11  1  0  0  0  0
 10  7  1  0  0  0  0
 12 15  1  6  0  0  0
 12 13  1  0  0  0  0
 12  1  1  0  0  0  0
 13 17  1  0  0  0  0
 14 12  1  0  0  0  0
 14 13  1  0  0  0  0
 14 18  1  1  0  0  0
 16 13  1  0  0  0  0
 19 14  1  0  0  0  0
 20 19  1  0  0  0  0
 20 21  1  0  0  0  0
M  END
>  <minimizedAffinity>
-4.38285017

$$$$

 OpenBabel03272504553D

 21 22  0  0  1  0  0  0  0  0999 V2000
   37.6010   22.2850   35.8940 C   0  0  0  0  0  0  0  0  0  0  0  0
   37.5770   21.9470   34.5360 C   0  0  0  0  0  0  0  0  0  0  0  0
   36.5260   21.1580   34.1410 C   0  0  0  0  0  0  0  0  0  0  0  0
   35.5930   20.7550   35.0480 N   0  0  0  0  0  0  0  0  0  0  0  0
   35.6460   21.0980   36.3470 C   0  0  0  0  0  0  0  0  0  0  0  0
   36.6810   21.8850   36.7780 N   0  0  0  0  0  0  0  0  0  0  0  0
   34.6760   20.6970   37.2900 N   0  0  0  0  0  0  0  0  0  0  0  0
   38.3300   22.2900   33.8740 H   0  0  0  0  0  0  0  0  0  0  0  0
   36.4610   20.8670   33.0920 H   0  0  0  0  0  0  0  0  0  0  0  0
   34.5570   21.2250   38.1810 H   0  0  0  0  0  0  0  0  0  0  0  0
   34.0670   19.8520   37.0860 H   0  0  0  0  0  0  0  0  0  0  0  0
   38.7290   23.1810   36.3630 C   0  0  1  0  0  0  0  0  0  0  0  0
   39.0590   23.3080   37.7570 C   0  0  0  0  0  0  0  0  0  0  0  0
   39.9100   22.3800   36.9240 C   0  0  2  0  0  0  0  0  0  0  0  0
   38.9930   23.9130   35.5720 H   0  0  0  0  0  0  0  0  0  0  0  0
   39.5160   24.2440   38.1270 H   0  0  0  0  0  0  0  0  0  0  0  0
   38.4320   22.7830   38.5160 H   0  0  0  0  0  0  0  0  0  0  0  0
   39.8170   21.2920   37.0320 H   0  0  0  0  0  0  0  0  0  0  0  0
   41.2500   22.9240   36.5600 C   0  0  0  0  0  2  0  0  0  0  0  0
   42.3610   21.9000   36.7110 C   0  0  0  0  0  2  0  0  0  0  0  0
   42.3060   21.3770   37.6890 H   0  0  0  0  0  0  0  0  0  0  0  0
  1 12  1  0  0  0  0
  1  6  1  0  0  0  0
  2  1  2  0  0  0  0
  3  2  1  0  0  0  0
  3  4  2  0  0  0  0
  4  5  1  0  0  0  0
  5  6  2  0  0  0  0
  5  7  1  0  0  0  0
  7 10  1  0  0  0  0
  8  2  1  0  0  0  0
  9  3  1  0  0  0  0
 11  7  1  0  0  0  0
 12 15  1  6  0  0  0
 12 14  1  0  0  0  0
 12 13  1  0  0  0  0
 13 16  1  0  0  0  0
 13 17  1  0  0  0  0
 14 18  1  1  0  0  0
 14 13  1  0  0  0  0
 19 20  1  0  0  0  0
 19 14  1  0  0  0  0
 20 21  1  0  0  0  0
M  END
>  <minimizedAffinity>
-4.19184637

$$$$

 OpenBabel03272504553D

 21 22  0  0  1  0  0  0  0  0999 V2000
   38.9730   24.4780   36.1710 C   0  0  0  0  0  0  0  0  0  0  0  0
   38.0220   24.9220   37.0970 C   0  0  0  0  0  0  0  0  0  0  0  0
   37.9820   24.2310   38.2810 C   0  0  0  0  0  0  0  0  0  0  0  0
   38.8320   23.1880   38.4950 N   0  0  0  0  0  0  0  0  0  0  0  0
   39.7350   22.7870   37.5830 C   0  0  0  0  0  0  0  0  0  0  0  0
   39.8040   23.4540   36.3890 N   0  0  0  0  0  0  0  0  0  0  0  0
   40.6280   21.7170   37.8020 N   0  0  0  0  0  0  0  0  0  0  0  0
   37.3850   25.7410   36.8780 H   0  0  0  0  0  0  0  0  0  0  0  0
   37.2580   24.5370   39.0380 H   0  0  0  0  0  0  0  0  0  0  0  0
   41.5050   21.6400   37.2430 H   0  0  0  0  0  0  0  0  0  0  0  0
   40.4020   20.9900   38.5410 H   0  0  0  0  0  0  0  0  0  0  0  0
   39.0690   25.2370   34.8630 C   0  0  1  0  0  0  0  0  0  0  0  0
   38.5950   24.6700   33.6280 C   0  0  0  0  0  0  0  0  0  0  0  0
   37.6920   25.6530   34.3320 C   0  0  2  0  0  0  0  0  0  0  0  0
   39.8070   26.0610   34.9490 H   0  0  0  0  0  0  0  0  0  0  0  0
   39.0580   24.9790   32.6730 H   0  0  0  0  0  0  0  0  0  0  0  0
   38.2050   23.6250   33.6220 H   0  0  0  0  0  0  0  0  0  0  0  0
   36.7900   25.3080   34.8530 H   0  0  0  0  0  0  0  0  0  0  0  0
   37.6550   27.0140   33.7200 C   0  0  0  0  0  2  0  0  0  0  0  0
   36.6680   27.9400   34.4070 C   0  0  0  0  0  2  0  0  0  0  0  0
   35.6800   27.4530   34.5530 H   0  0  0  0  0  0  0  0  0  0  0  0
  1  6  2  0  0  0  0
  1  2  1  0  0  0  0
  2  3  2  0  0  0  0
  3  4  1  0  0  0  0
  3  9  1  0  0  0  0
  5  7  1  0  0  0  0
  5  4  2  0  0  0  0
  6  5  1  0  0  0  0
  7 11  1  0  0  0  0
  8  2  1  0  0  0  0
 10  7  1  0  0  0  0
 12 15  1  6  0  0  0
 12  1  1  0  0  0  0
 13 14  1  0  0  0  0
 13 12  1  0  0  0  0
 14 18  1  1  0  0  0
 14 12  1  0  0  0  0
 16 13  1  0  0  0  0
 17 13  1  0  0  0  0
 19 14  1  0  0  0  0
 19 20  1  0  0  0  0
 20 21  1  0  0  0  0
M  END
>  <minimizedAffinity>
-4.14487076

$$$$

 OpenBabel03272504553D

 21 22  0  0  1  0  0  0  0  0999 V2000
   38.2640   24.6610   35.2330 C   0  0  0  0  0  0  0  0  0  0  0  0
   38.1630   23.6690   34.2500 C   0  0  0  0  0  0  0  0  0  0  0  0
   37.8850   22.4070   34.7100 C   0  0  0  0  0  0  0  0  0  0  0  0
   37.7250   22.1830   36.0450 N   0  0  0  0  0  0  0  0  0  0  0  0
   37.8290   23.1600   36.9630 C   0  0  0  0  0  0  0  0  0  0  0  0
   38.1060   24.4330   36.5400 N   0  0  0  0  0  0  0  0  0  0  0  0
   37.6510   22.9390   38.3450 N   0  0  0  0  0  0  0  0  0  0  0  0
   38.2960   23.9000   33.2240 H   0  0  0  0  0  0  0  0  0  0  0  0
   37.7950   21.5970   33.9850 H   0  0  0  0  0  0  0  0  0  0  0  0
   37.4150   23.7330   38.9790 H   0  0  0  0  0  0  0  0  0  0  0  0
   37.7600   21.9590   38.7360 H   0  0  0  0  0  0  0  0  0  0  0  0
   38.5390   26.0740   34.7610 C   0  0  1  0  0  0  0  0  0  0  0  0
   38.8920   27.1190   35.6850 C   0  0  0  0  0  0  0  0  0  0  0  0
   40.0150   26.4600   34.9200 C   0  0  2  0  0  0  0  0  0  0  0  0
   38.1210   26.2300   33.7460 H   0  0  0  0  0  0  0  0  0  0  0  0
   38.6430   28.1680   35.4420 H   0  0  0  0  0  0  0  0  0  0  0  0
   38.9040   26.9000   36.7780 H   0  0  0  0  0  0  0  0  0  0  0  0
   40.6990   25.7660   35.4230 H   0  0  0  0  0  0  0  0  0  0  0  0
   40.5620   27.2720   33.7940 C   0  0  0  0  0  2  0  0  0  0  0  0
   42.0750   27.1890   33.6900 C   0  0  0  0  0  2  0  0  0  0  0  0
   42.5630   27.3450   34.6750 H   0  0  0  0  0  0  0  0  0  0  0  0
  1  6  1  0  0  0  0
  2  3  1  0  0  0  0
  2  1  2  0  0  0  0
  3  4  2  0  0  0  0
  4  5  1  0  0  0  0
  5  7  1  0  0  0  0
  6  5  2  0  0  0  0
  7 11  1  0  0  0  0
  7 10  1  0  0  0  0
  8  2  1  0  0  0  0
  9  3  1  0  0  0  0
 12 15  1  6  0  0  0
 12 14  1  0  0  0  0
 12  1  1  0  0  0  0
 12 13  1  0  0  0  0
 13 17  1  0  0  0  0
 14 18  1  1  0  0  0
 14 13  1  0  0  0  0
 16 13  1  0  0  0  0
 19 14  1  0  0  0  0
 20 19  1  0  0  0  0
 20 21  1  0  0  0  0
M  END
>  <minimizedAffinity>
-4.03022337

$$$$

 OpenBabel03272504553D

 21 22  0  0  1  0  0  0  0  0999 V2000
   37.2810   27.0410   33.5910 C   0  0  0  0  0  0  0  0  0  0  0  0
   36.6360   28.2480   33.8830 C   0  0  0  0  0  0  0  0  0  0  0  0
   35.6730   28.6370   32.9850 C   0  0  0  0  0  0  0  0  0  0  0  0
   35.4000   27.8640   31.8960 N   0  0  0  0  0  0  0  0  0  0  0  0
   36.0390   26.7080   31.6470 C   0  0  0  0  0  0  0  0  0  0  0  0
   37.0060   26.2880   32.5210 N   0  0  0  0  0  0  0  0  0  0  0  0
   35.7520   25.8950   30.5290 N   0  0  0  0  0  0  0  0  0  0  0  0
   36.8890   28.8090   34.7460 H   0  0  0  0  0  0  0  0  0  0  0  0
   35.1400   29.5710   33.1660 H   0  0  0  0  0  0  0  0  0  0  0  0
   36.0110   24.8850   30.5320 H   0  0  0  0  0  0  0  0  0  0  0  0
   35.2690   26.3190   29.6850 H   0  0  0  0  0  0  0  0  0  0  0  0
   38.3280   26.5620   34.5760 C   0  0  1  0  0  0  0  0  0  0  0  0
   38.4950   27.1890   35.8600 C   0  0  0  0  0  0  0  0  0  0  0  0
   37.7040   25.9050   35.8120 C   0  0  2  0  0  0  0  0  0  0  0  0
   39.0940   25.9500   34.0560 H   0  0  0  0  0  0  0  0  0  0  0  0
   39.4850   27.1730   36.3500 H   0  0  0  0  0  0  0  0  0  0  0  0
   37.8820   28.0860   36.1130 H   0  0  0  0  0  0  0  0  0  0  0  0
   36.6130   25.9180   35.9330 H   0  0  0  0  0  0  0  0  0  0  0  0
   38.4370   24.7030   36.3060 C   0  0  0  0  0  2  0  0  0  0  0  0
   38.0030   24.2810   37.6980 C   0  0  0  0  0  2  0  0  0  0  0  0
   37.9710   25.1430   38.3970 H   0  0  0  0  0  0  0  0  0  0  0  0
  1  2  1  0  0  0  0
  1 12  1  0  0  0  0
  2  8  1  0  0  0  0
  3  9  1  0  0  0  0
  3  2  2  0  0  0  0
  4  3  1  0  0  0  0
  5  4  2  0  0  0  0
  5  6  1  0  0  0  0
  6  1  2  0  0  0  0
  7 10  1  0  0  0  0
  7  5  1  0  0  0  0
 11  7  1  0  0  0  0
 12 15  1  6  0  0  0
 12 14  1  0  0  0  0
 12 13  1  0  0  0  0
 13 17  1  0  0  0  0
 13 16  1  0  0  0  0
 14 13  1  0  0  0  0
 14 18  1  1  0  0  0
 14 19  1  0  0  0  0
 19 20  1  0  0  0  0
 20 21  1  0  0  0  0
M  END
>  <minimizedAffinity>
-3.9829278

$$$$

 OpenBabel03272504553D

 21 22  0  0  1  0  0  0  0  0999 V2000
   38.9100   24.2570   35.9800 C   0  0  0  0  0  0  0  0  0  0  0  0
   37.9980   24.7990   36.8930 C   0  0  0  0  0  0  0  0  0  0  0  0
   38.0240   24.2510   38.1500 C   0  0  0  0  0  0  0  0  0  0  0  0
   38.8980   23.2480   38.4430 N   0  0  0  0  0  0  0  0  0  0  0  0
   39.7620   22.7500   37.5410 C   0  0  0  0  0  0  0  0  0  0  0  0
   39.7650   23.2730   36.2750 N   0  0  0  0  0  0  0  0  0  0  0  0
   40.6800   21.7210   37.8400 N   0  0  0  0  0  0  0  0  0  0  0  0
   37.3400   25.5800   36.6100 H   0  0  0  0  0  0  0  0  0  0  0  0
   37.3330   24.6380   38.9000 H   0  0  0  0  0  0  0  0  0  0  0  0
   41.5300   21.5860   37.2520 H   0  0  0  0  0  0  0  0  0  0  0  0
   40.5000   21.0850   38.6700 H   0  0  0  0  0  0  0  0  0  0  0  0
   38.9330   24.8570   34.5880 C   0  0  1  0  0  0  0  0  0  0  0  0
   39.4850   24.1400   33.4690 C   0  0  0  0  0  0  0  0  0  0  0  0
   37.9840   24.1300   33.6280 C   0  0  2  0  0  0  0  0  0  0  0  0
   38.7940   25.9560   34.6410 H   0  0  0  0  0  0  0  0  0  0  0  0
   39.9150   24.7020   32.6210 H   0  0  0  0  0  0  0  0  0  0  0  0
   39.9620   23.1470   33.6400 H   0  0  0  0  0  0  0  0  0  0  0  0
   37.4660   23.2240   33.9700 H   0  0  0  0  0  0  0  0  0  0  0  0
   37.2520   25.0290   32.6890 C   0  0  0  0  0  2  0  0  0  0  0  0
   36.3560   24.2690   31.7270 C   0  0  0  0  0  2  0  0  0  0  0  0
   36.8890   23.4160   31.2560 H   0  0  0  0  0  0  0  0  0  0  0  0
  1  6  2  0  0  0  0
  1  2  1  0  0  0  0
  2  3  2  0  0  0  0
  3  4  1  0  0  0  0
  3  9  1  0  0  0  0
  5  7  1  0  0  0  0
  5  4  2  0  0  0  0
  6  5  1  0  0  0  0
  7 11  1  0  0  0  0
  8  2  1  0  0  0  0
 10  7  1  0  0  0  0
 12 15  1  6  0  0  0
 12  1  1  0  0  0  0
 13 14  1  0  0  0  0
 13 17  1  0  0  0  0
 13 12  1  0  0  0  0
 14 18  1  1  0  0  0
 14 12  1  0  0  0  0
 16 13  1  0  0  0  0
 19 14  1  0  0  0  0
 20 19  1  0  0  0  0
 21 20  1  0  0  0  0
M  END
>  <minimizedAffinity>
-3.97883701

$$$$

 OpenBabel03272504553D

 21 22  0  0  1  0  0  0  0  0999 V2000
   38.9380   25.1480   35.9400 C   0  0  0  0  0  0  0  0  0  0  0  0
   39.8720   24.3970   35.2180 C   0  0  0  0  0  0  0  0  0  0  0  0
   40.0230   23.0950   35.6220 C   0  0  0  0  0  0  0  0  0  0  0  0
   39.2890   22.6100   36.6630 N   0  0  0  0  0  0  0  0  0  0  0  0
   38.3980   23.3600   37.3350 C   0  0  0  0  0  0  0  0  0  0  0  0
   38.2210   24.6650   36.9600 N   0  0  0  0  0  0  0  0  0  0  0  0
   37.6250   22.8620   38.4050 N   0  0  0  0  0  0  0  0  0  0  0  0
   40.4160   24.8260   34.4160 H   0  0  0  0  0  0  0  0  0  0  0  0
   40.7390   22.4660   35.0910 H   0  0  0  0  0  0  0  0  0  0  0  0
   36.7400   23.3400   38.6820 H   0  0  0  0  0  0  0  0  0  0  0  0
   37.9480   21.9960   38.9250 H   0  0  0  0  0  0  0  0  0  0  0  0
   38.7200   26.5830   35.5040 C   0  0  1  0  0  0  0  0  0  0  0  0
   39.0470   27.0230   34.1740 C   0  0  0  0  0  0  0  0  0  0  0  0
   37.6000   26.7090   34.4650 C   0  0  2  0  0  0  0  0  0  0  0  0
   38.6130   27.2430   36.3900 H   0  0  0  0  0  0  0  0  0  0  0  0
   39.3270   28.0770   34.0010 H   0  0  0  0  0  0  0  0  0  0  0  0
   39.5290   26.3070   33.4660 H   0  0  0  0  0  0  0  0  0  0  0  0
   37.1350   25.7990   34.0640 H   0  0  0  0  0  0  0  0  0  0  0  0
   36.7260   27.9050   34.6440 C   0  0  0  0  0  2  0  0  0  0  0  0
   36.2140   28.4610   33.3270 C   0  0  0  0  0  2  0  0  0  0  0  0
   37.0300   28.5700   32.5820 H   0  0  0  0  0  0  0  0  0  0  0  0
  1  6  1  0  0  0  0
  2  3  1  0  0  0  0
  2  1  2  0  0  0  0
  3  4  2  0  0  0  0
  4  5  1  0  0  0  0
  5  7  1  0  0  0  0
  6  5  2  0  0  0  0
  7 10  1  0  0  0  0
  7 11  1  0  0  0  0
  8  2  1  0  0  0  0
  9  3  1  0  0  0  0
 12  1  1  0  0  0  0
 12 15  1  1  0  0  0
 13 14  1  0  0  0  0
 13 12  1  0  0  0  0
 14 18  1  6  0  0  0
 14 19  1  0  0  0  0
 14 12  1  0  0  0  0
 16 13  1  0  0  0  0
 17 13  1  0  0  0  0
 20 19  1  0  0  0  0
 21 20  1  0  0  0  0
M  END
>  <minimizedAffinity>
-3.85770869

$$$$

 OpenBabel03272504553D

 21 22  0  0  1  0  0  0  0  0999 V2000
   39.9910   23.5020   36.2330 C   0  0  0  0  0  0  0  0  0  0  0  0
   39.3200   24.5930   35.6690 C   0  0  0  0  0  0  0  0  0  0  0  0
   38.1770   24.9850   36.3190 C   0  0  0  0  0  0  0  0  0  0  0  0
   37.7630   24.3240   37.4360 N   0  0  0  0  0  0  0  0  0  0  0  0
   38.4320   23.2780   37.9520 C   0  0  0  0  0  0  0  0  0  0  0  0
   39.5780   22.8590   37.3300 N   0  0  0  0  0  0  0  0  0  0  0  0
   38.0180   22.5970   39.1160 N   0  0  0  0  0  0  0  0  0  0  0  0
   39.6890   25.0710   34.7980 H   0  0  0  0  0  0  0  0  0  0  0  0
   37.6170   25.8310   35.9200 H   0  0  0  0  0  0  0  0  0  0  0  0
   38.6990   22.0290   39.6650 H   0  0  0  0  0  0  0  0  0  0  0  0
   37.0070   22.6660   39.4300 H   0  0  0  0  0  0  0  0  0  0  0  0
   41.2750   23.0590   35.5620 C   0  0  1  0  0  0  0  0  0  0  0  0
   42.4360   23.9070   35.5260 C   0  0  0  0  0  0  0  0  0  0  0  0
   42.4030   22.8180   36.5710 C   0  0  2  0  0  0  0  0  0  0  0  0
   41.0760   22.2140   34.8710 H   0  0  0  0  0  0  0  0  0  0  0  0
   43.1580   23.8090   34.6950 H   0  0  0  0  0  0  0  0  0  0  0  0
   42.3720   24.9370   35.9480 H   0  0  0  0  0  0  0  0  0  0  0  0
   42.2390   23.0650   37.6280 H   0  0  0  0  0  0  0  0  0  0  0  0
   43.2600   21.6350   36.2660 C   0  0  0  0  0  2  0  0  0  0  0  0
   42.8500   20.3960   37.0430 C   0  0  0  0  0  2  0  0  0  0  0  0
   42.7060   20.6180   38.1220 H   0  0  0  0  0  0  0  0  0  0  0  0
  1  6  1  0  0  0  0
  2  1  2  0  0  0  0
  2  3  1  0  0  0  0
  3  4  2  0  0  0  0
  4  5  1  0  0  0  0
  5  7  1  0  0  0  0
  6  5  2  0  0  0  0
  7 11  1  0  0  0  0
  7 10  1  0  0  0  0
  8  2  1  0  0  0  0
  9  3  1  0  0  0  0
 12 15  1  6  0  0  0
 12  1  1  0  0  0  0
 12 14  1  0  0  0  0
 13 12  1  0  0  0  0
 13 17  1  0  0  0  0
 13 14  1  0  0  0  0
 14 18  1  1  0  0  0
 16 13  1  0  0  0  0
 19 14  1  0  0  0  0
 19 20  1  0  0  0  0
 20 21  1  0  0  0  0
M  END
>  <minimizedAffinity>
-3.82001638

$$$$

 OpenBabel03272504553D

 21 22  0  0  1  0  0  0  0  0999 V2000
   36.8580   27.7360   33.8600 C   0  0  0  0  0  0  0  0  0  0  0  0
   36.0100   28.7880   34.2270 C   0  0  0  0  0  0  0  0  0  0  0  0
   35.1360   29.2090   33.2570 C   0  0  0  0  0  0  0  0  0  0  0  0
   35.1300   28.6100   32.0330 N   0  0  0  0  0  0  0  0  0  0  0  0
   35.9590   27.6000   31.7140 C   0  0  0  0  0  0  0  0  0  0  0  0
   36.8460   27.1540   32.6580 N   0  0  0  0  0  0  0  0  0  0  0  0
   35.9500   26.9650   30.4540 N   0  0  0  0  0  0  0  0  0  0  0  0
   36.0580   29.2170   35.1950 H   0  0  0  0  0  0  0  0  0  0  0  0
   34.4530   30.0260   33.4910 H   0  0  0  0  0  0  0  0  0  0  0  0
   36.3500   26.0090   30.3430 H   0  0  0  0  0  0  0  0  0  0  0  0
   35.5330   27.4680   29.6180 H   0  0  0  0  0  0  0  0  0  0  0  0
   37.8170   27.2240   34.9150 C   0  0  1  0  0  0  0  0  0  0  0  0
   37.9650   25.8170   35.1770 C   0  0  0  0  0  0  0  0  0  0  0  0
   39.0050   26.4730   34.3020 C   0  0  2  0  0  0  0  0  0  0  0  0
   38.0900   28.0390   35.6170 H   0  0  0  0  0  0  0  0  0  0  0  0
   38.2700   25.4780   36.1840 H   0  0  0  0  0  0  0  0  0  0  0  0
   37.3160   25.0900   34.6350 H   0  0  0  0  0  0  0  0  0  0  0  0
   39.0220   26.2870   33.2210 H   0  0  0  0  0  0  0  0  0  0  0  0
   40.3110   26.7340   34.9750 C   0  0  0  0  0  2  0  0  0  0  0  0
   41.4330   27.0150   33.9920 C   0  0  0  0  0  2  0  0  0  0  0  0
   41.4580   26.2660   33.1720 H   0  0  0  0  0  0  0  0  0  0  0  0
  1  2  1  0  0  0  0
  1 12  1  0  0  0  0
  2  8  1  0  0  0  0
  3  9  1  0  0  0  0
  3  2  2  0  0  0  0
  4  3  1  0  0  0  0
  5  4  2  0  0  0  0
  5  6  1  0  0  0  0
  6  1  2  0  0  0  0
  7  5  1  0  0  0  0
 10  7  1  0  0  0  0
 11  7  1  0  0  0  0
 12 13  1  0  0  0  0
 12 15  1  1  0  0  0
 13 16  1  0  0  0  0
 14 18  1  6  0  0  0
 14 12  1  0  0  0  0
 14 19  1  0  0  0  0
 14 13  1  0  0  0  0
 17 13  1  0  0  0  0
 20 19  1  0  0  0  0
 21 20  1  0  0  0  0
M  END
>  <minimizedAffinity>
-3.74522185

$$$$
