
 OpenBabel03272508043D

 29 31  0  0  0  0  0  0  0  0999 V2000
   38.9100   30.9050   45.7880 C   0  0  0  0  0  0  0  0  0  0  0  0
   40.0980   31.5360   46.0440 C   0  0  0  0  0  0  0  0  0  0  0  0
   40.9510   31.4800   44.9350 C   0  0  0  0  0  0  0  0  0  0  0  0
   40.2010   30.7930   44.0380 N   0  0  0  0  0  0  0  0  0  0  0  0
   39.0260   30.4560   44.5160 N   0  0  0  0  0  0  0  0  0  0  0  0
   40.3880   32.0290   46.9710 H   0  0  0  0  0  0  0  0  0  0  0  0
   41.9310   31.8520   44.7680 H   0  0  0  0  0  0  0  0  0  0  0  0
   37.7750   30.7480   46.6790 C   0  0  0  0  0  0  0  0  0  0  0  0
   37.9970   30.9710   48.0660 C   0  0  0  0  0  0  0  0  0  0  0  0
   36.9080   30.8200   48.9200 C   0  0  0  0  0  0  0  0  0  0  0  0
   35.7030   30.4680   48.3780 N   0  0  0  0  0  0  0  0  0  0  0  0
   35.5250   30.2620   47.0510 C   0  0  0  0  0  0  0  0  0  0  0  0
   36.5740   30.4070   46.2150 N   0  0  0  0  0  0  0  0  0  0  0  0
   38.9730   31.2430   48.3960 H   0  0  0  0  0  0  0  0  0  0  0  0
   34.5370   29.9850   46.7020 H   0  0  0  0  0  0  0  0  0  0  0  0
   37.1010   31.0460   50.3810 C   0  0  0  0  0  0  0  0  0  0  0  0
   36.5730   32.2890   50.6340 F   0  0  0  0  0  0  0  0  0  0  0  0
   36.4220   30.1030   51.1520 F   0  0  0  0  0  0  0  0  0  0  0  0
   38.4510   31.0400   50.7240 F   0  0  0  0  0  0  0  0  0  0  0  0
   40.5600   30.4190   42.6650 C   0  0  0  0  0  0  0  0  0  0  0  0
   40.1870   31.2190   41.5700 C   0  0  0  0  0  0  0  0  0  0  0  0
   40.5540   30.8220   40.3150 C   0  0  0  0  0  0  0  0  0  0  0  0
   41.2930   29.6210   40.1520 C   0  0  0  0  0  0  0  0  0  0  0  0
   41.4810   29.0210   41.9020 S   0  0  0  0  0  0  0  0  0  0  0  0
   39.6230   32.1350   41.6750 H   0  0  0  0  0  0  0  0  0  0  0  0
   40.3520   31.3130   39.3770 H   0  0  0  0  0  0  0  0  0  0  0  0
   41.8260   28.9180   39.0640 C   0  0  0  0  0  0  0  0  0  0  0  0
   41.2960   27.4790   39.0690 C   0  0  0  0  0  0  0  0  0  0  0  0
   40.2840   27.4920   39.5250 H   0  0  0  0  0  0  0  0  0  0  0  0
  1  2  1  0  0  0  0
  1  8  1  0  0  0  0
  2  6  1  0  0  0  0
  3  2  2  0  0  0  0
  4  5  1  0  0  0  0
  4  3  1  0  0  0  0
  5  1  2  0  0  0  0
  7  3  1  0  0  0  0
  8  9  1  0  0  0  0
  9 14  1  0  0  0  0
  9 10  2  0  0  0  0
 10 16  1  0  0  0  0
 11 10  1  0  0  0  0
 12 11  2  0  0  0  0
 13  8  2  0  0  0  0
 13 12  1  0  0  0  0
 15 12  1  0  0  0  0
 16 17  1  0  0  0  0
 16 19  1  0  0  0  0
 16 18  1  0  0  0  0
 20  4  1  0  0  0  0
 21 25  1  0  0  0  0
 21 20  2  0  0  0  0
 22 21  1  0  0  0  0
 23 22  2  0  0  0  0
 23 24  1  0  0  0  0
 24 20  1  0  0  0  0
 26 22  1  0  0  0  0
 27 28  1  0  0  0  0
 27 23  1  0  0  0  0
 28 29  1  0  0  0  0
M  END
>  <minimizedAffinity>
-5.97440577

>  <minimizedRMSD>
0.0528239347

$$$$
