
 OpenBabel03262521293D

 27 28  0  0  1  0  0  0  0  0999 V2000
   36.7090   30.8980   48.5460 N   0  0  0  0  0  0  0  0  0  0  0  0
   37.9160   31.3720   47.9070 C   0  0  0  0  0  0  0  0  0  0  0  0
   38.2350   32.6450   48.6950 C   0  0  0  0  0  0  0  0  0  0  0  0
   37.1620   32.7520   49.7510 C   0  0  0  0  0  0  0  0  0  0  0  0
   36.7750   31.3090   49.9360 C   0  0  2  0  0  0  0  0  0  0  0  0
   37.7070   31.6440   46.8530 H   0  0  0  0  0  0  0  0  0  0  0  0
   38.7470   30.6460   47.9660 H   0  0  0  0  0  0  0  0  0  0  0  0
   39.2560   32.5680   49.0910 H   0  0  0  0  0  0  0  0  0  0  0  0
   38.1980   33.5230   48.0030 H   0  0  0  0  0  0  0  0  0  0  0  0
   36.2920   33.2720   49.2700 H   0  0  0  0  0  0  0  0  0  0  0  0
   37.5050   33.2350   50.6690 H   0  0  0  0  0  0  0  0  0  0  0  0
   35.7680   31.2570   50.4230 H   0  0  0  0  0  0  0  0  0  0  0  0
   35.6520   30.1710   47.9530 C   0  0  0  0  0  0  0  0  0  0  0  0
   35.5490   30.2290   46.5600 C   0  0  0  0  0  0  0  0  0  0  0  0
   34.5270   29.5350   45.9060 C   0  0  0  0  0  0  0  0  0  0  0  0
   33.6730   28.8260   46.6980 N   0  0  0  0  0  0  0  0  0  0  0  0
   33.8010   28.7900   48.0440 C   0  0  0  0  0  0  0  0  0  0  0  0
   34.7950   29.4660   48.6820 N   0  0  0  0  0  0  0  0  0  0  0  0
   36.2280   30.7900   45.9550 H   0  0  0  0  0  0  0  0  0  0  0  0
   34.4250   29.5620   44.8270 H   0  0  0  0  0  0  0  0  0  0  0  0
   32.7940   27.9760   48.7490 C   0  0  0  0  0  0  0  0  0  0  0  0
   32.2870   26.8260   47.9440 C   0  0  0  0  0  0  0  0  0  0  0  0
   31.3010   27.1390   47.4940 H   0  0  0  0  0  0  0  0  0  0  0  0
   37.7370   30.5340   50.7580 C   0  0  0  0  0  0  0  0  0  0  0  0
   37.9830   29.2860   50.1600 F   0  0  0  0  0  0  0  0  0  0  0  0
   37.3340   30.3720   52.0420 F   0  0  0  0  0  0  0  0  0  0  0  0
   38.9680   31.1980   50.8350 F   0  0  0  0  0  0  0  0  0  0  0  0
  1  5  1  0  0  0  0
  2  7  1  0  0  0  0
  2  1  1  0  0  0  0
  2  3  1  0  0  0  0
  3  8  1  0  0  0  0
  3  4  1  0  0  0  0
  4  5  1  0  0  0  0
  4 11  1  0  0  0  0
  5 12  1  1  0  0  0
  5 24  1  0  0  0  0
  6  2  1  0  0  0  0
  9  3  1  0  0  0  0
 10  4  1  0  0  0  0
 13  1  1  0  0  0  0
 13 18  1  0  0  0  0
 14 13  2  0  0  0  0
 15 14  1  0  0  0  0
 15 16  2  0  0  0  0
 16 17  1  0  0  0  0
 17 18  2  0  0  0  0
 17 21  1  0  0  0  0
 19 14  1  0  0  0  0
 20 15  1  0  0  0  0
 22 21  1  0  0  0  0
 23 22  1  0  0  0  0
 24 27  1  0  0  0  0
 24 26  1  0  0  0  0
 25 24  1  0  0  0  0
M  END
>  <minimizedAffinity>
-5.51871061

>  <minimizedRMSD>
0.876965702

$$$$
