
 OpenBabel03272508043D

 29 31  0  0  0  0  0  0  0  0999 V2000
   38.9100   30.9040   45.7860 C   0  0  0  0  0  0  0  0  0  0  0  0
   40.0980   31.5320   46.0430 C   0  0  0  0  0  0  0  0  0  0  0  0
   40.9520   31.4780   44.9350 C   0  0  0  0  0  0  0  0  0  0  0  0
   40.2010   30.7930   44.0370 N   0  0  0  0  0  0  0  0  0  0  0  0
   39.0250   30.4570   44.5130 N   0  0  0  0  0  0  0  0  0  0  0  0
   40.3880   32.0240   46.9720 H   0  0  0  0  0  0  0  0  0  0  0  0
   41.9330   31.8480   44.7690 H   0  0  0  0  0  0  0  0  0  0  0  0
   37.7740   30.7470   46.6760 C   0  0  0  0  0  0  0  0  0  0  0  0
   37.9940   30.9700   48.0630 C   0  0  0  0  0  0  0  0  0  0  0  0
   36.9050   30.8190   48.9160 C   0  0  0  0  0  0  0  0  0  0  0  0
   35.7010   30.4670   48.3730 N   0  0  0  0  0  0  0  0  0  0  0  0
   35.5240   30.2600   47.0460 C   0  0  0  0  0  0  0  0  0  0  0  0
   36.5730   30.4050   46.2110 N   0  0  0  0  0  0  0  0  0  0  0  0
   38.9700   31.2430   48.3940 H   0  0  0  0  0  0  0  0  0  0  0  0
   34.5360   29.9840   46.6970 H   0  0  0  0  0  0  0  0  0  0  0  0
   37.0970   31.0460   50.3780 C   0  0  0  0  0  0  0  0  0  0  0  0
   36.5710   32.2900   50.6290 F   0  0  0  0  0  0  0  0  0  0  0  0
   36.4150   30.1040   51.1480 F   0  0  0  0  0  0  0  0  0  0  0  0
   38.4450   31.0380   50.7220 F   0  0  0  0  0  0  0  0  0  0  0  0
   40.5610   30.4200   42.6630 C   0  0  0  0  0  0  0  0  0  0  0  0
   40.1850   31.2200   41.5690 C   0  0  0  0  0  0  0  0  0  0  0  0
   40.5530   30.8240   40.3140 C   0  0  0  0  0  0  0  0  0  0  0  0
   41.2950   29.6250   40.1490 C   0  0  0  0  0  0  0  0  0  0  0  0
   41.4850   29.0250   41.8990 S   0  0  0  0  0  0  0  0  0  0  0  0
   39.6190   32.1350   41.6750 H   0  0  0  0  0  0  0  0  0  0  0  0
   40.3490   31.3150   39.3760 H   0  0  0  0  0  0  0  0  0  0  0  0
   41.8290   28.9240   39.0610 C   0  0  0  0  0  2  0  0  0  0  0  0
   41.8380   29.8250   37.8200 C   0  0  0  0  0  2  0  0  0  0  0  0
   41.9590   30.8740   38.1630 H   0  0  0  0  0  0  0  0  0  0  0  0
  1  2  1  0  0  0  0
  1  8  1  0  0  0  0
  2  6  1  0  0  0  0
  3  2  2  0  0  0  0
  4  5  1  0  0  0  0
  4  3  1  0  0  0  0
  5  1  2  0  0  0  0
  7  3  1  0  0  0  0
  8  9  1  0  0  0  0
  9 14  1  0  0  0  0
  9 10  2  0  0  0  0
 10 16  1  0  0  0  0
 11 10  1  0  0  0  0
 12 11  2  0  0  0  0
 13  8  2  0  0  0  0
 13 12  1  0  0  0  0
 15 12  1  0  0  0  0
 16 17  1  0  0  0  0
 16 19  1  0  0  0  0
 16 18  1  0  0  0  0
 20  4  1  0  0  0  0
 21 25  1  0  0  0  0
 21 20  2  0  0  0  0
 22 21  1  0  0  0  0
 23 22  2  0  0  0  0
 23 24  1  0  0  0  0
 24 20  1  0  0  0  0
 26 22  1  0  0  0  0
 27 23  1  0  0  0  0
 28 29  1  0  0  0  0
 28 27  1  0  0  0  0
M  END
>  <minimizedAffinity>
-5.91190624

>  <minimizedRMSD>
0.0281797238

$$$$
