
 OpenBabel03272507593D

 26 27  0  0  0  0  0  0  0  0999 V2000
   38.8610   26.4230   32.5140 C   0  0  0  0  0  0  0  0  0  0  0  0
   39.1520   25.9140   33.8160 C   0  0  0  0  0  0  0  0  0  0  0  0
   38.4940   24.7490   34.2100 C   0  0  0  0  0  0  0  0  0  0  0  0
   37.6160   24.1580   33.3470 N   0  0  0  0  0  0  0  0  0  0  0  0
   37.3780   24.6910   32.1130 C   0  0  0  0  0  0  0  0  0  0  0  0
   37.9930   25.8110   31.7000 N   0  0  0  0  0  0  0  0  0  0  0  0
   36.4290   23.9010   31.3960 N   0  0  0  0  0  0  0  0  0  0  0  0
   39.3540   27.3270   32.1740 H   0  0  0  0  0  0  0  0  0  0  0  0
   35.4290   23.6990   31.6600 H   0  0  0  0  0  0  0  0  0  0  0  0
   36.9940   23.5940   30.5660 H   0  0  0  0  0  0  0  0  0  0  0  0
   38.7570   24.1910   35.5270 C   0  0  0  0  0  0  0  0  0  0  0  0
   37.8630   24.6720   36.4920 C   0  0  0  0  0  0  0  0  0  0  0  0
   37.9940   24.2220   37.8040 C   0  0  0  0  0  0  0  0  0  0  0  0
   38.9850   23.3220   38.1460 C   0  0  0  0  0  0  0  0  0  0  0  0
   39.8330   22.8840   37.1600 C   0  0  0  0  0  0  0  0  0  0  0  0
   39.7040   23.3180   35.8980 N   0  0  0  0  0  0  0  0  0  0  0  0
   37.0420   25.3730   36.3770 H   0  0  0  0  0  0  0  0  0  0  0  0
   37.3510   24.5390   38.6070 H   0  0  0  0  0  0  0  0  0  0  0  0
   39.0910   22.9700   39.1630 H   0  0  0  0  0  0  0  0  0  0  0  0
   40.9050   21.9190   37.4940 C   0  0  0  0  0  2  0  0  0  0  0  0
   42.1740   22.1970   36.7450 C   0  0  0  0  0  2  0  0  0  0  0  0
   42.5100   23.2480   36.8850 H   0  0  0  0  0  0  0  0  0  0  0  0
   40.1220   26.6340   34.6720 C   0  0  0  0  0  0  0  0  0  0  0  0
   41.1320   25.7910   35.1150 F   0  0  0  0  0  0  0  0  0  0  0  0
   40.6930   27.6360   33.9310 F   0  0  0  0  0  0  0  0  0  0  0  0
   39.5380   27.2150   35.7790 F   0  0  0  0  0  0  0  0  0  0  0  0
  1  2  1  0  0  0  0
  2  3  2  0  0  0  0
  2 23  1  0  0  0  0
  3 11  1  0  0  0  0
  4  3  1  0  0  0  0
  5  4  2  0  0  0  0
  6  5  1  0  0  0  0
  6  1  2  0  0  0  0
  7  9  1  0  0  0  0
  7  5  1  0  0  0  0
  8  1  1  0  0  0  0
 10  7  1  0  0  0  0
 11 16  2  0  0  0  0
 11 12  1  0  0  0  0
 12 13  2  0  0  0  0
 13 14  1  0  0  0  0
 13 18  1  0  0  0  0
 14 19  1  0  0  0  0
 15 20  1  0  0  0  0
 15 14  2  0  0  0  0
 16 15  1  0  0  0  0
 17 12  1  0  0  0  0
 21 22  1  0  0  0  0
 21 20  1  0  0  0  0
 23 24  1  0  0  0  0
 23 26  1  0  0  0  0
 25 23  1  0  0  0  0
M  END
>  <minimizedAffinity>
-5.32313871

$$$$

 OpenBabel03272507593D

 26 27  0  0  0  0  0  0  0  0999 V2000
   37.2220   26.7580   33.5990 C   0  0  0  0  0  0  0  0  0  0  0  0
   38.0700   26.1310   34.5640 C   0  0  0  0  0  0  0  0  0  0  0  0
   38.3410   24.7740   34.3930 C   0  0  0  0  0  0  0  0  0  0  0  0
   37.7930   24.1160   33.3290 N   0  0  0  0  0  0  0  0  0  0  0  0
   36.9900   24.7670   32.4390 C   0  0  0  0  0  0  0  0  0  0  0  0
   36.7070   26.0740   32.5710 N   0  0  0  0  0  0  0  0  0  0  0  0
   36.5400   23.8770   31.4180 N   0  0  0  0  0  0  0  0  0  0  0  0
   36.9900   27.8110   33.7000 H   0  0  0  0  0  0  0  0  0  0  0  0
   35.9520   23.0090   31.5340 H   0  0  0  0  0  0  0  0  0  0  0  0
   36.9490   24.3170   30.5580 H   0  0  0  0  0  0  0  0  0  0  0  0
   39.1980   24.0920   35.3490 C   0  0  0  0  0  0  0  0  0  0  0  0
   38.4690   23.5220   36.4000 C   0  0  0  0  0  0  0  0  0  0  0  0
   39.1610   22.8330   37.3940 C   0  0  0  0  0  0  0  0  0  0  0  0
   40.5360   22.7150   37.3450 C   0  0  0  0  0  0  0  0  0  0  0  0
   41.2000   23.2930   36.2920 C   0  0  0  0  0  0  0  0  0  0  0  0
   40.5320   23.9550   35.3360 N   0  0  0  0  0  0  0  0  0  0  0  0
   37.3970   23.5300   36.5740 H   0  0  0  0  0  0  0  0  0  0  0  0
   38.6800   22.3650   38.2360 H   0  0  0  0  0  0  0  0  0  0  0  0
   41.0770   22.1820   38.1140 H   0  0  0  0  0  0  0  0  0  0  0  0
   42.6750   23.1840   36.2100 C   0  0  0  0  0  2  0  0  0  0  0  0
   43.3280   24.5090   35.9540 C   0  0  0  0  0  2  0  0  0  0  0  0
   43.0140   25.2720   36.7000 H   0  0  0  0  0  0  0  0  0  0  0  0
   38.6110   26.9390   35.6810 C   0  0  0  0  0  0  0  0  0  0  0  0
   39.9920   27.0590   35.5970 F   0  0  0  0  0  0  0  0  0  0  0  0
   38.0660   28.1950   35.6100 F   0  0  0  0  0  0  0  0  0  0  0  0
   38.3050   26.4200   36.9210 F   0  0  0  0  0  0  0  0  0  0  0  0
  1  8  1  0  0  0  0
  1  2  1  0  0  0  0
  2 23  1  0  0  0  0
  3  2  2  0  0  0  0
  3 11  1  0  0  0  0
  4  3  1  0  0  0  0
  5  6  1  0  0  0  0
  5  4  2  0  0  0  0
  6  1  2  0  0  0  0
  7  9  1  0  0  0  0
  7  5  1  0  0  0  0
 10  7  1  0  0  0  0
 11 12  1  0  0  0  0
 12 17  1  0  0  0  0
 12 13  2  0  0  0  0
 13 18  1  0  0  0  0
 14 13  1  0  0  0  0
 14 19  1  0  0  0  0
 15 14  2  0  0  0  0
 16 11  2  0  0  0  0
 16 15  1  0  0  0  0
 20 15  1  0  0  0  0
 21 20  1  0  0  0  0
 21 22  1  0  0  0  0
 23 26  1  0  0  0  0
 24 23  1  0  0  0  0
 25 23  1  0  0  0  0
M  END
>  <minimizedAffinity>
-5.20242643

$$$$

 OpenBabel03272507593D

 26 27  0  0  0  0  0  0  0  0999 V2000
   36.8870   27.1680   33.4070 C   0  0  0  0  0  0  0  0  0  0  0  0
   37.8750   26.5330   34.2220 C   0  0  0  0  0  0  0  0  0  0  0  0
   38.3900   25.3170   33.7720 C   0  0  0  0  0  0  0  0  0  0  0  0
   37.9350   24.7970   32.5940 N   0  0  0  0  0  0  0  0  0  0  0  0
   36.9890   25.4500   31.8580 C   0  0  0  0  0  0  0  0  0  0  0  0
   36.4700   26.6220   32.2590 N   0  0  0  0  0  0  0  0  0  0  0  0
   36.6750   24.7170   30.6740 N   0  0  0  0  0  0  0  0  0  0  0  0
   36.4650   28.1140   33.7250 H   0  0  0  0  0  0  0  0  0  0  0  0
   36.2650   23.7470   30.6070 H   0  0  0  0  0  0  0  0  0  0  0  0
   36.9590   25.3940   29.9240 H   0  0  0  0  0  0  0  0  0  0  0  0
   39.3980   24.6320   34.5660 C   0  0  0  0  0  0  0  0  0  0  0  0
   40.6780   24.7550   34.0130 C   0  0  0  0  0  0  0  0  0  0  0  0
   41.7470   24.1480   34.6680 C   0  0  0  0  0  0  0  0  0  0  0  0
   41.5490   23.4400   35.8370 C   0  0  0  0  0  0  0  0  0  0  0  0
   40.2730   23.3520   36.3350 C   0  0  0  0  0  0  0  0  0  0  0  0
   39.2460   23.9370   35.7030 N   0  0  0  0  0  0  0  0  0  0  0  0
   40.9890   25.2730   33.1110 H   0  0  0  0  0  0  0  0  0  0  0  0
   42.7630   24.1920   34.3130 H   0  0  0  0  0  0  0  0  0  0  0  0
   42.3760   22.9670   36.3490 H   0  0  0  0  0  0  0  0  0  0  0  0
   40.0280   22.6000   37.5870 C   0  0  0  0  0  2  0  0  0  0  0  0
   38.9800   23.2470   38.4410 C   0  0  0  0  0  2  0  0  0  0  0  0
   38.0380   23.4190   37.8750 H   0  0  0  0  0  0  0  0  0  0  0  0
   38.2980   27.1840   35.4820 C   0  0  0  0  0  0  0  0  0  0  0  0
   39.6630   27.4410   35.4870 F   0  0  0  0  0  0  0  0  0  0  0  0
   37.6360   28.3790   35.5950 F   0  0  0  0  0  0  0  0  0  0  0  0
   38.0030   26.4360   36.6020 F   0  0  0  0  0  0  0  0  0  0  0  0
  1  8  1  0  0  0  0
  1  2  1  0  0  0  0
  2 23  1  0  0  0  0
  3  2  2  0  0  0  0
  3 11  1  0  0  0  0
  4  3  1  0  0  0  0
  5  6  1  0  0  0  0
  5  4  2  0  0  0  0
  6  1  2  0  0  0  0
  7  5  1  0  0  0  0
  9  7  1  0  0  0  0
 10  7  1  0  0  0  0
 11 16  1  0  0  0  0
 12 11  2  0  0  0  0
 12 13  1  0  0  0  0
 13 14  2  0  0  0  0
 14 15  1  0  0  0  0
 14 19  1  0  0  0  0
 15 20  1  0  0  0  0
 16 15  2  0  0  0  0
 17 12  1  0  0  0  0
 18 13  1  0  0  0  0
 20 21  1  0  0  0  0
 22 21  1  0  0  0  0
 23 24  1  0  0  0  0
 23 25  1  0  0  0  0
 23 26  1  0  0  0  0
M  END
>  <minimizedAffinity>
-5.13639116

$$$$

 OpenBabel03272507593D

 26 27  0  0  0  0  0  0  0  0999 V2000
   40.9910   23.0620   36.3860 C   0  0  0  0  0  0  0  0  0  0  0  0
   40.3270   24.0350   35.5770 C   0  0  0  0  0  0  0  0  0  0  0  0
   39.0650   24.4590   35.9910 C   0  0  0  0  0  0  0  0  0  0  0  0
   38.5290   23.9340   37.1320 N   0  0  0  0  0  0  0  0  0  0  0  0
   39.2100   23.0060   37.8660 C   0  0  0  0  0  0  0  0  0  0  0  0
   40.4280   22.5740   37.4980 N   0  0  0  0  0  0  0  0  0  0  0  0
   38.4520   22.6090   39.0080 N   0  0  0  0  0  0  0  0  0  0  0  0
   41.9730   22.7090   36.0950 H   0  0  0  0  0  0  0  0  0  0  0  0
   37.5080   22.1380   39.0220 H   0  0  0  0  0  0  0  0  0  0  0  0
   39.0800   22.9090   39.7930 H   0  0  0  0  0  0  0  0  0  0  0  0
   38.3500   25.4490   35.2010 C   0  0  0  0  0  0  0  0  0  0  0  0
   38.3630   26.7140   35.8020 C   0  0  0  0  0  0  0  0  0  0  0  0
   37.7150   27.7640   35.1570 C   0  0  0  0  0  0  0  0  0  0  0  0
   37.0740   27.5630   33.9490 C   0  0  0  0  0  0  0  0  0  0  0  0
   37.0940   26.3040   33.4060 C   0  0  0  0  0  0  0  0  0  0  0  0
   37.7180   25.2940   34.0290 N   0  0  0  0  0  0  0  0  0  0  0  0
   38.8190   27.0230   36.7380 H   0  0  0  0  0  0  0  0  0  0  0  0
   37.6760   28.7660   35.5470 H   0  0  0  0  0  0  0  0  0  0  0  0
   36.5700   28.3760   33.4450 H   0  0  0  0  0  0  0  0  0  0  0  0
   36.4150   26.0560   32.1130 C   0  0  0  0  0  2  0  0  0  0  0  0
   36.4490   24.6090   31.7220 C   0  0  0  0  0  2  0  0  0  0  0  0
   36.0460   23.9570   32.5280 H   0  0  0  0  0  0  0  0  0  0  0  0
   41.0000   24.5390   34.3580 C   0  0  0  0  0  0  0  0  0  0  0  0
   41.1200   25.9220   34.3800 F   0  0  0  0  0  0  0  0  0  0  0  0
   42.2590   24.0000   34.3040 F   0  0  0  0  0  0  0  0  0  0  0  0
   40.3460   24.1880   33.1960 F   0  0  0  0  0  0  0  0  0  0  0  0
  1  6  1  0  0  0  0
  2  3  1  0  0  0  0
  2  1  2  0  0  0  0
  3  4  2  0  0  0  0
  4  5  1  0  0  0  0
  5  7  1  0  0  0  0
  6  5  2  0  0  0  0
  7  9  1  0  0  0  0
  7 10  1  0  0  0  0
  8  1  1  0  0  0  0
 11 12  1  0  0  0  0
 11  3  1  0  0  0  0
 12 17  1  0  0  0  0
 13 18  1  0  0  0  0
 13 12  2  0  0  0  0
 14 13  1  0  0  0  0
 15 14  2  0  0  0  0
 15 16  1  0  0  0  0
 16 11  2  0  0  0  0
 19 14  1  0  0  0  0
 20 15  1  0  0  0  0
 21 20  1  0  0  0  0
 21 22  1  0  0  0  0
 23 24  1  0  0  0  0
 23  2  1  0  0  0  0
 25 23  1  0  0  0  0
 26 23  1  0  0  0  0
M  END
>  <minimizedAffinity>
-5.0685668

$$$$

 OpenBabel03272507593D

 26 27  0  0  0  0  0  0  0  0999 V2000
   38.7900   27.5790   31.8970 C   0  0  0  0  0  0  0  0  0  0  0  0
   38.9530   26.6600   32.9790 C   0  0  0  0  0  0  0  0  0  0  0  0
   37.9880   25.6630   33.1230 C   0  0  0  0  0  0  0  0  0  0  0  0
   36.9490   25.6120   32.2380 N   0  0  0  0  0  0  0  0  0  0  0  0
   36.8450   26.5180   31.2230 C   0  0  0  0  0  0  0  0  0  0  0  0
   37.7550   27.4910   31.0530 N   0  0  0  0  0  0  0  0  0  0  0  0
   35.6840   26.2630   30.4340 N   0  0  0  0  0  0  0  0  0  0  0  0
   39.5210   28.3670   31.7550 H   0  0  0  0  0  0  0  0  0  0  0  0
   34.6760   26.2820   30.7460 H   0  0  0  0  0  0  0  0  0  0  0  0
   36.1060   26.0600   29.4950 H   0  0  0  0  0  0  0  0  0  0  0  0
   38.1100   24.7030   34.2080 C   0  0  0  0  0  0  0  0  0  0  0  0
   38.4900   23.4350   33.7520 C   0  0  0  0  0  0  0  0  0  0  0  0
   38.6470   22.4120   34.6830 C   0  0  0  0  0  0  0  0  0  0  0  0
   38.4320   22.6410   36.0280 C   0  0  0  0  0  0  0  0  0  0  0  0
   38.0610   23.9030   36.4200 C   0  0  0  0  0  0  0  0  0  0  0  0
   37.9110   24.8870   35.5220 N   0  0  0  0  0  0  0  0  0  0  0  0
   38.6930   23.1050   32.7370 H   0  0  0  0  0  0  0  0  0  0  0  0
   38.9360   21.4090   34.4190 H   0  0  0  0  0  0  0  0  0  0  0  0
   38.5520   21.8500   36.7540 H   0  0  0  0  0  0  0  0  0  0  0  0
   37.8230   24.1820   37.8550 C   0  0  0  0  0  2  0  0  0  0  0  0
   38.7810   23.4470   38.7430 C   0  0  0  0  0  2  0  0  0  0  0  0
   39.8380   23.6440   38.4570 H   0  0  0  0  0  0  0  0  0  0  0  0
   40.1180   26.8050   33.8800 C   0  0  0  0  0  0  0  0  0  0  0  0
   40.8230   25.6150   33.9950 F   0  0  0  0  0  0  0  0  0  0  0  0
   40.9580   27.7520   33.3530 F   0  0  0  0  0  0  0  0  0  0  0  0
   39.7710   27.2170   35.1500 F   0  0  0  0  0  0  0  0  0  0  0  0
  1  2  1  0  0  0  0
  2  3  2  0  0  0  0
  2 23  1  0  0  0  0
  3 11  1  0  0  0  0
  4  3  1  0  0  0  0
  5  4  2  0  0  0  0
  6  5  1  0  0  0  0
  6  1  2  0  0  0  0
  7  9  1  0  0  0  0
  7  5  1  0  0  0  0
  8  1  1  0  0  0  0
 10  7  1  0  0  0  0
 11 16  1  0  0  0  0
 12 11  2  0  0  0  0
 12 13  1  0  0  0  0
 13 14  2  0  0  0  0
 14 15  1  0  0  0  0
 14 19  1  0  0  0  0
 15 20  1  0  0  0  0
 16 15  2  0  0  0  0
 17 12  1  0  0  0  0
 18 13  1  0  0  0  0
 20 21  1  0  0  0  0
 22 21  1  0  0  0  0
 23 24  1  0  0  0  0
 23 26  1  0  0  0  0
 25 23  1  0  0  0  0
M  END
>  <minimizedAffinity>
-4.97637987

$$$$

 OpenBabel03272507593D

 26 27  0  0  0  0  0  0  0  0999 V2000
   35.2470   26.0720   30.8840 C   0  0  0  0  0  0  0  0  0  0  0  0
   36.2170   26.5730   31.8050 C   0  0  0  0  0  0  0  0  0  0  0  0
   36.9320   25.6390   32.5530 C   0  0  0  0  0  0  0  0  0  0  0  0
   36.6760   24.3090   32.3760 N   0  0  0  0  0  0  0  0  0  0  0  0
   35.7360   23.8880   31.4810 C   0  0  0  0  0  0  0  0  0  0  0  0
   35.0280   24.7590   30.7420 N   0  0  0  0  0  0  0  0  0  0  0  0
   35.6480   22.4640   31.4720 N   0  0  0  0  0  0  0  0  0  0  0  0
   34.6720   26.7690   30.2850 H   0  0  0  0  0  0  0  0  0  0  0  0
   35.3790   21.8300   32.2710 H   0  0  0  0  0  0  0  0  0  0  0  0
   35.9180   22.2410   30.4830 H   0  0  0  0  0  0  0  0  0  0  0  0
   37.9320   26.1000   33.5040 C   0  0  0  0  0  0  0  0  0  0  0  0
   37.4000   26.2720   34.7880 C   0  0  0  0  0  0  0  0  0  0  0  0
   38.2450   26.7100   35.8050 C   0  0  0  0  0  0  0  0  0  0  0  0
   39.5780   26.9710   35.5530 C   0  0  0  0  0  0  0  0  0  0  0  0
   40.0450   26.7860   34.2760 C   0  0  0  0  0  0  0  0  0  0  0  0
   39.2300   26.3640   33.2990 N   0  0  0  0  0  0  0  0  0  0  0  0
   36.3850   26.1090   35.1370 H   0  0  0  0  0  0  0  0  0  0  0  0
   37.9190   26.8680   36.8190 H   0  0  0  0  0  0  0  0  0  0  0  0
   40.2360   27.3120   36.3390 H   0  0  0  0  0  0  0  0  0  0  0  0
   41.4690   27.0580   33.9730 C   0  0  0  0  0  2  0  0  0  0  0  0
   41.6720   27.5120   32.5590 C   0  0  0  0  0  2  0  0  0  0  0  0
   41.0270   28.3840   32.3130 H   0  0  0  0  0  0  0  0  0  0  0  0
   36.4160   28.0360   31.9180 C   0  0  0  0  0  0  0  0  0  0  0  0
   36.1630   28.4840   33.2080 F   0  0  0  0  0  0  0  0  0  0  0  0
   37.7220   28.3210   31.6130 F   0  0  0  0  0  0  0  0  0  0  0  0
   35.6190   28.7580   31.0540 F   0  0  0  0  0  0  0  0  0  0  0  0
  1  2  1  0  0  0  0
  2 23  1  0  0  0  0
  2  3  2  0  0  0  0
  3 11  1  0  0  0  0
  4  3  1  0  0  0  0
  5  4  2  0  0  0  0
  6  1  2  0  0  0  0
  6  5  1  0  0  0  0
  7  5  1  0  0  0  0
  7  9  1  0  0  0  0
  8  1  1  0  0  0  0
 10  7  1  0  0  0  0
 11 12  1  0  0  0  0
 12 17  1  0  0  0  0
 12 13  2  0  0  0  0
 13 18  1  0  0  0  0
 14 13  1  0  0  0  0
 14 19  1  0  0  0  0
 15 14  2  0  0  0  0
 16 11  2  0  0  0  0
 16 15  1  0  0  0  0
 20 15  1  0  0  0  0
 21 20  1  0  0  0  0
 22 21  1  0  0  0  0
 23 24  1  0  0  0  0
 25 23  1  0  0  0  0
 26 23  1  0  0  0  0
M  END
>  <minimizedAffinity>
-4.82024956

$$$$

 OpenBabel03272507593D

 26 27  0  0  0  0  0  0  0  0999 V2000
   40.6280   23.8610   35.6260 C   0  0  0  0  0  0  0  0  0  0  0  0
   40.0010   24.9660   34.9720 C   0  0  0  0  0  0  0  0  0  0  0  0
   38.6220   24.8960   34.7770 C   0  0  0  0  0  0  0  0  0  0  0  0
   37.9450   23.7930   35.2120 N   0  0  0  0  0  0  0  0  0  0  0  0
   38.5970   22.7670   35.8310 C   0  0  0  0  0  0  0  0  0  0  0  0
   39.9240   22.7990   36.0370 N   0  0  0  0  0  0  0  0  0  0  0  0
   37.6840   21.7320   36.1930 N   0  0  0  0  0  0  0  0  0  0  0  0
   41.6980   23.8810   35.7950 H   0  0  0  0  0  0  0  0  0  0  0  0
   37.0800   21.1520   35.5520 H   0  0  0  0  0  0  0  0  0  0  0  0
   37.7830   21.7180   37.2380 H   0  0  0  0  0  0  0  0  0  0  0  0
   37.9380   25.9960   34.1160 C   0  0  0  0  0  0  0  0  0  0  0  0
   37.3310   26.8660   35.0310 C   0  0  0  0  0  0  0  0  0  0  0  0
   36.6380   27.9700   34.5410 C   0  0  0  0  0  0  0  0  0  0  0  0
   36.5500   28.2030   33.1820 C   0  0  0  0  0  0  0  0  0  0  0  0
   37.1640   27.3190   32.3310 C   0  0  0  0  0  0  0  0  0  0  0  0
   37.8310   26.2560   32.8050 N   0  0  0  0  0  0  0  0  0  0  0  0
   37.3140   26.8170   36.1160 H   0  0  0  0  0  0  0  0  0  0  0  0
   36.1430   28.6880   35.1720 H   0  0  0  0  0  0  0  0  0  0  0  0
   36.0130   29.0580   32.7970 H   0  0  0  0  0  0  0  0  0  0  0  0
   37.0890   27.5400   30.8680 C   0  0  0  0  0  2  0  0  0  0  0  0
   36.5710   28.9050   30.5270 C   0  0  0  0  0  2  0  0  0  0  0  0
   37.1560   29.7030   31.0330 H   0  0  0  0  0  0  0  0  0  0  0  0
   40.8310   26.1140   34.5410 C   0  0  0  0  0  0  0  0  0  0  0  0
   40.7770   26.2900   33.1650 F   0  0  0  0  0  0  0  0  0  0  0  0
   40.3450   27.2480   35.1380 F   0  0  0  0  0  0  0  0  0  0  0  0
   42.1560   25.9880   34.9010 F   0  0  0  0  0  0  0  0  0  0  0  0
  1  8  1  0  0  0  0
  1  6  1  0  0  0  0
  2  1  2  0  0  0  0
  3  2  1  0  0  0  0
  3  4  2  0  0  0  0
  4  5  1  0  0  0  0
  5  6  2  0  0  0  0
  5  7  1  0  0  0  0
  7 10  1  0  0  0  0
  9  7  1  0  0  0  0
 11  3  1  0  0  0  0
 11 12  1  0  0  0  0
 12 17  1  0  0  0  0
 13 12  2  0  0  0  0
 13 18  1  0  0  0  0
 14 13  1  0  0  0  0
 15 16  1  0  0  0  0
 15 14  2  0  0  0  0
 16 11  2  0  0  0  0
 19 14  1  0  0  0  0
 20 15  1  0  0  0  0
 21 20  1  0  0  0  0
 21 22  1  0  0  0  0
 23 26  1  0  0  0  0
 23  2  1  0  0  0  0
 23 25  1  0  0  0  0
 24 23  1  0  0  0  0
M  END
>  <minimizedAffinity>
-4.75047874

$$$$

 OpenBabel03272507593D

 26 27  0  0  0  0  0  0  0  0999 V2000
   38.0840   24.5160   36.3380 C   0  0  0  0  0  0  0  0  0  0  0  0
   38.1500   25.5450   35.3490 C   0  0  0  0  0  0  0  0  0  0  0  0
   38.0850   25.1530   34.0130 C   0  0  0  0  0  0  0  0  0  0  0  0
   37.9630   23.8250   33.7150 N   0  0  0  0  0  0  0  0  0  0  0  0
   37.9040   22.8860   34.7030 C   0  0  0  0  0  0  0  0  0  0  0  0
   37.9640   23.2270   36.0010 N   0  0  0  0  0  0  0  0  0  0  0  0
   37.7770   21.5770   34.1500 N   0  0  0  0  0  0  0  0  0  0  0  0
   38.1310   24.7840   37.3870 H   0  0  0  0  0  0  0  0  0  0  0  0
   38.4560   21.0760   33.5170 H   0  0  0  0  0  0  0  0  0  0  0  0
   36.8520   21.2720   34.5390 H   0  0  0  0  0  0  0  0  0  0  0  0
   38.1470   26.1630   32.9680 C   0  0  0  0  0  0  0  0  0  0  0  0
   39.4310   26.2780   32.4210 C   0  0  0  0  0  0  0  0  0  0  0  0
   39.6420   27.2090   31.4070 C   0  0  0  0  0  0  0  0  0  0  0  0
   38.6070   28.0020   30.9500 C   0  0  0  0  0  0  0  0  0  0  0  0
   37.3700   27.8470   31.5220 C   0  0  0  0  0  0  0  0  0  0  0  0
   37.1690   26.9500   32.4980 N   0  0  0  0  0  0  0  0  0  0  0  0
   40.3350   25.7300   32.6720 H   0  0  0  0  0  0  0  0  0  0  0  0
   40.5960   27.3620   30.9310 H   0  0  0  0  0  0  0  0  0  0  0  0
   38.7660   28.7260   30.1630 H   0  0  0  0  0  0  0  0  0  0  0  0
   36.2390   28.6830   31.0550 C   0  0  0  0  0  2  0  0  0  0  0  0
   35.3680   29.1420   32.1850 C   0  0  0  0  0  2  0  0  0  0  0  0
   35.9590   29.6560   32.9750 H   0  0  0  0  0  0  0  0  0  0  0  0
   38.2810   26.9540   35.7820 C   0  0  0  0  0  0  0  0  0  0  0  0
   37.2070   27.7200   35.3510 F   0  0  0  0  0  0  0  0  0  0  0  0
   38.3080   26.9860   37.1520 F   0  0  0  0  0  0  0  0  0  0  0  0
   39.4380   27.5530   35.3290 F   0  0  0  0  0  0  0  0  0  0  0  0
  1  8  1  0  0  0  0
  2 23  1  0  0  0  0
  2  1  2  0  0  0  0
  3  2  1  0  0  0  0
  4  3  2  0  0  0  0
  4  5  1  0  0  0  0
  5  6  2  0  0  0  0
  6  1  1  0  0  0  0
  7 10  1  0  0  0  0
  7  5  1  0  0  0  0
  9  7  1  0  0  0  0
 11  3  1  0  0  0  0
 12 17  1  0  0  0  0
 12 11  2  0  0  0  0
 13 12  1  0  0  0  0
 14 13  2  0  0  0  0
 14 15  1  0  0  0  0
 15 16  2  0  0  0  0
 16 11  1  0  0  0  0
 18 13  1  0  0  0  0
 19 14  1  0  0  0  0
 20 15  1  0  0  0  0
 20 21  1  0  0  0  0
 21 22  1  0  0  0  0
 23 25  1  0  0  0  0
 24 23  1  0  0  0  0
 26 23  1  0  0  0  0
M  END
>  <minimizedAffinity>
-4.68935776

$$$$

 OpenBabel03272507593D

 26 27  0  0  0  0  0  0  0  0999 V2000
   38.1680   25.3860   36.2600 C   0  0  0  0  0  0  0  0  0  0  0  0
   38.1230   24.6130   35.0590 C   0  0  0  0  0  0  0  0  0  0  0  0
   38.1090   23.2250   35.1920 C   0  0  0  0  0  0  0  0  0  0  0  0
   38.1370   22.6770   36.4430 N   0  0  0  0  0  0  0  0  0  0  0  0
   38.1800   23.4670   37.5550 C   0  0  0  0  0  0  0  0  0  0  0  0
   38.1950   24.8070   37.4660 N   0  0  0  0  0  0  0  0  0  0  0  0
   38.2020   22.6710   38.7390 N   0  0  0  0  0  0  0  0  0  0  0  0
   38.1810   26.4680   36.1950 H   0  0  0  0  0  0  0  0  0  0  0  0
   38.9360   21.9730   39.0320 H   0  0  0  0  0  0  0  0  0  0  0  0
   37.3150   22.9710   39.2130 H   0  0  0  0  0  0  0  0  0  0  0  0
   38.0630   22.3940   33.9990 C   0  0  0  0  0  0  0  0  0  0  0  0
   39.3180   21.8650   33.6760 C   0  0  0  0  0  0  0  0  0  0  0  0
   39.4270   21.0460   32.5550 C   0  0  0  0  0  0  0  0  0  0  0  0
   38.3210   20.7630   31.7770 C   0  0  0  0  0  0  0  0  0  0  0  0
   37.1160   21.3080   32.1400 C   0  0  0  0  0  0  0  0  0  0  0  0
   37.0130   22.0960   33.2200 N   0  0  0  0  0  0  0  0  0  0  0  0
   40.2690   21.9950   34.1850 H   0  0  0  0  0  0  0  0  0  0  0  0
   40.3520   20.5980   32.2350 H   0  0  0  0  0  0  0  0  0  0  0  0
   38.4010   20.1280   30.9050 H   0  0  0  0  0  0  0  0  0  0  0  0
   35.9110   21.0240   31.3270 C   0  0  0  0  0  2  0  0  0  0  0  0
   34.7710   20.5180   32.1590 C   0  0  0  0  0  2  0  0  0  0  0  0
   34.5430   21.2060   33.0030 H   0  0  0  0  0  0  0  0  0  0  0  0
   38.0950   25.3100   33.7530 C   0  0  0  0  0  0  0  0  0  0  0  0
   36.8900   25.1030   33.0940 F   0  0  0  0  0  0  0  0  0  0  0  0
   38.2360   26.6550   33.9770 F   0  0  0  0  0  0  0  0  0  0  0  0
   39.1130   24.9180   32.9100 F   0  0  0  0  0  0  0  0  0  0  0  0
  1  6  1  0  0  0  0
  2  3  1  0  0  0  0
  2  1  2  0  0  0  0
  3  4  2  0  0  0  0
  4  5  1  0  0  0  0
  5  7  1  0  0  0  0
  6  5  2  0  0  0  0
  7  9  1  0  0  0  0
  7 10  1  0  0  0  0
  8  1  1  0  0  0  0
 11  3  1  0  0  0  0
 12 11  1  0  0  0  0
 12 17  1  0  0  0  0
 13 12  2  0  0  0  0
 14 15  2  0  0  0  0
 14 13  1  0  0  0  0
 15 16  1  0  0  0  0
 16 11  2  0  0  0  0
 18 13  1  0  0  0  0
 19 14  1  0  0  0  0
 20 15  1  0  0  0  0
 20 21  1  0  0  0  0
 21 22  1  0  0  0  0
 23 25  1  0  0  0  0
 23  2  1  0  0  0  0
 24 23  1  0  0  0  0
 26 23  1  0  0  0  0
M  END
>  <minimizedAffinity>
-4.67211294

$$$$
