
 OpenBabel03272510243D

 33 36  0  0  0  0  0  0  0  0999 V2000
   36.0180   30.2630   46.9150 C   0  0  0  0  0  0  0  0  0  0  0  0
   37.1040   30.3210   47.7930 C   0  0  0  0  0  0  0  0  0  0  0  0
   38.3920   30.6060   47.3380 C   0  0  0  0  0  0  0  0  0  0  0  0
   38.5080   30.8250   45.9600 C   0  0  0  0  0  0  0  0  0  0  0  0
   39.6450   31.1200   45.2710 N   0  0  0  0  0  0  0  0  0  0  0  0
   39.2840   31.2430   43.9870 C   0  0  0  0  0  0  0  0  0  0  0  0
   37.9830   31.0440   43.8380 N   0  0  0  0  0  0  0  0  0  0  0  0
   37.4640   30.7780   45.0620 C   0  0  0  0  0  0  0  0  0  0  0  0
   36.1890   30.4890   45.5550 C   0  0  0  0  0  0  0  0  0  0  0  0
   35.0100   30.0410   47.2570 H   0  0  0  0  0  0  0  0  0  0  0  0
   39.2270   30.6530   48.0010 H   0  0  0  0  0  0  0  0  0  0  0  0
   40.6150   31.2250   45.6880 H   0  0  0  0  0  0  0  0  0  0  0  0
   35.3850   30.4520   44.8620 H   0  0  0  0  0  0  0  0  0  0  0  0
   37.3360   30.0910   51.5460 C   0  0  0  0  0  0  0  0  0  0  0  0
   37.7070   30.3840   50.2380 C   0  0  0  0  0  0  0  0  0  0  0  0
   36.8490   30.0720   49.2070 C   0  0  0  0  0  0  0  0  0  0  0  0
   35.6580   29.4810   49.5280 N   0  0  0  0  0  0  0  0  0  0  0  0
   35.3080   29.2000   50.7990 C   0  0  0  0  0  0  0  0  0  0  0  0
   36.1470   29.5070   51.7970 N   0  0  0  0  0  0  0  0  0  0  0  0
   38.0950   30.3850   52.2610 H   0  0  0  0  0  0  0  0  0  0  0  0
   38.6490   30.8540   49.9630 H   0  0  0  0  0  0  0  0  0  0  0  0
   34.3660   28.7330   51.0530 H   0  0  0  0  0  0  0  0  0  0  0  0
   40.2140   31.5450   42.9990 O   0  0  0  0  0  0  0  0  0  0  0  0
   40.1060   30.9570   40.6500 C   0  0  0  0  0  0  0  0  0  0  0  0
   40.5360   30.7280   41.9510 C   0  0  0  0  0  0  0  0  0  0  0  0
   41.3190   29.5960   42.0810 C   0  0  0  0  0  0  0  0  0  0  0  0
   41.6870   29.3690   43.0920 H   0  0  0  0  0  0  0  0  0  0  0  0
   41.6650   28.7500   41.0490 C   0  0  0  0  0  0  0  0  0  0  0  0
   42.2890   27.8930   41.2940 H   0  0  0  0  0  0  0  0  0  0  0  0
   41.2050   29.0360   39.7850 C   0  0  0  0  0  3  0  0  0  0  0  0
   40.4200   30.1460   39.5800 C   0  0  0  0  0  3  0  0  0  0  0  0
   38.6070   33.0210   40.1530 N   0  0  0  0  0  0  0  0  0  0  0  0
   39.2790   32.1070   40.3700 C   0  0  0  0  0  0  0  0  0  0  0  0
  1 10  1  0  0  0  0
  1  2  1  0  0  0  0
  2 16  1  0  0  0  0
  3  2  2  0  0  0  0
  3 11  1  0  0  0  0
  4  3  1  0  0  0  0
  5 12  1  0  0  0  0
  5  4  1  0  0  0  0
  6  5  1  0  0  0  0
  7  6  2  0  0  0  0
  7  8  1  0  0  0  0
  8  9  1  0  0  0  0
  8  4  2  0  0  0  0
  9  1  2  0  0  0  0
 13  9  1  0  0  0  0
 14 19  1  0  0  0  0
 14 20  1  0  0  0  0
 15 14  2  0  0  0  0
 16 17  2  0  0  0  0
 16 15  1  0  0  0  0
 17 18  1  0  0  0  0
 18 22  1  0  0  0  0
 18 19  2  0  0  0  0
 21 15  1  0  0  0  0
 23  6  1  0  0  0  0
 24 25  1  0  0  0  0
 25 26  2  0  0  0  0
 25 23  1  0  0  0  0
 26 27  1  0  0  0  0
 28 29  1  0  0  0  0
 28 26  1  0  0  0  0
 30 28  2  0  0  0  0
 31 30  1  0  0  0  0
 31 24  2  0  0  0  0
 32 33  3  0  0  0  0
 33 24  1  0  0  0  0
M  END
>  <minimizedAffinity>
-5.52046776

>  <minimizedRMSD>
3.31630445

$$$$
