
 OpenBabel03272509303D

 39 41  0  0  1  0  0  0  0  0999 V2000
   36.6370   31.3190   49.0170 C   0  0  2  0  0  0  0  0  0  0  0  0
   37.1230   31.6500   50.3940 C   0  0  0  0  0  0  0  0  0  0  0  0
   37.5290   30.4290   51.1880 C   0  0  0  0  0  0  0  0  0  0  0  0
   36.3960   29.4100   51.2610 C   0  0  0  0  0  0  0  0  0  0  0  0
   35.5450   29.3540   50.0120 C   0  0  0  0  0  0  0  0  0  0  0  0
   36.4030   29.8590   48.8370 C   0  0  1  0  0  0  0  0  0  0  0  0
   35.6690   31.8120   48.7390 H   0  0  0  0  0  0  0  0  0  0  0  0
   36.1900   32.0250   50.9380 H   0  0  0  0  0  0  0  0  0  0  0  0
   37.8470   32.4350   50.4940 H   0  0  0  0  0  0  0  0  0  0  0  0
   37.6550   30.7880   52.2510 H   0  0  0  0  0  0  0  0  0  0  0  0
   38.4650   29.9690   50.8870 H   0  0  0  0  0  0  0  0  0  0  0  0
   35.7350   29.5890   52.1190 H   0  0  0  0  0  0  0  0  0  0  0  0
   36.9020   28.4060   51.3490 H   0  0  0  0  0  0  0  0  0  0  0  0
   34.6930   30.0360   50.0940 H   0  0  0  0  0  0  0  0  0  0  0  0
   35.2090   28.3180   49.8080 H   0  0  0  0  0  0  0  0  0  0  0  0
   37.2860   29.2910   48.9890 H   0  0  0  0  0  0  0  0  0  0  0  0
   37.6030   31.7800   47.9820 C   0  0  0  0  0  0  0  0  0  0  0  0
   38.6510   32.5800   48.4460 C   0  0  0  0  0  0  0  0  0  0  0  0
   39.5730   33.0260   47.4920 C   0  0  0  0  0  0  0  0  0  0  0  0
   39.4010   32.6570   46.1760 N   0  0  0  0  0  0  0  0  0  0  0  0
   38.3510   31.8670   45.7770 C   0  0  0  0  0  0  0  0  0  0  0  0
   37.4670   31.4420   46.6950 N   0  0  0  0  0  0  0  0  0  0  0  0
   38.9190   32.9370   49.4210 H   0  0  0  0  0  0  0  0  0  0  0  0
   40.4260   33.6430   47.6870 H   0  0  0  0  0  0  0  0  0  0  0  0
   38.2830   31.6210   44.7360 H   0  0  0  0  0  0  0  0  0  0  0  0
   34.6790   29.7940   46.9730 C   0  0  0  0  0  0  0  0  0  0  0  0
   33.7130   30.5010   47.3700 O   0  0  0  0  0  0  0  0  0  0  0  0
   35.9350   29.4790   47.5530 N   0  0  0  0  0  0  0  0  0  0  0  0
   36.5050   28.8960   46.8610 H   0  0  0  0  0  0  0  0  0  0  0  0
   33.7630   27.9760   45.5880 C   0  0  0  0  0  0  0  0  0  0  0  0
   34.2240   29.2940   45.6530 C   0  0  0  0  0  0  0  0  0  0  0  0
   34.2360   30.0620   44.4930 C   0  0  0  0  0  0  0  0  0  0  0  0
   34.5940   31.0610   44.5900 H   0  0  0  0  0  0  0  0  0  0  0  0
   33.7890   29.4900   43.3050 C   0  0  0  0  0  0  0  0  0  0  0  0
   33.8060   30.1070   42.3990 H   0  0  0  0  0  0  0  0  0  0  0  0
   33.3370   28.1850   43.2580 C   0  0  0  0  0  3  0  0  0  0  0  0
   33.3130   27.3930   44.4030 C   0  0  0  0  0  3  0  0  0  0  0  0
   33.7150   26.4740   47.7140 N   0  0  0  0  0  0  0  0  0  0  0  0
   33.7310   27.1440   46.7620 C   0  0  0  0  0  0  0  0  0  0  0  0
  1  7  1  6  0  0  0
  1  2  1  0  0  0  0
  2  9  1  0  0  0  0
  2  8  1  0  0  0  0
  2  3  1  0  0  0  0
  3  4  1  0  0  0  0
  3 10  1  0  0  0  0
  4 13  1  0  0  0  0
  4 12  1  0  0  0  0
  5 14  1  0  0  0  0
  5  4  1  0  0  0  0
  6 16  1  1  0  0  0
  6  1  1  0  0  0  0
  6  5  1  0  0  0  0
 11  3  1  0  0  0  0
 15  5  1  0  0  0  0
 17 18  1  0  0  0  0
 17  1  1  0  0  0  0
 18 23  1  0  0  0  0
 19 24  1  0  0  0  0
 19 18  2  0  0  0  0
 20 19  1  0  0  0  0
 21 20  2  0  0  0  0
 21 22  1  0  0  0  0
 22 17  2  0  0  0  0
 25 21  1  0  0  0  0
 26 27  2  0  0  0  0
 26 28  1  0  0  0  0
 28  6  1  0  0  0  0
 29 28  1  0  0  0  0
 30 31  1  0  0  0  0
 30 39  1  0  0  0  0
 31 26  1  0  0  0  0
 32 33  1  0  0  0  0
 32 31  2  0  0  0  0
 34 32  1  0  0  0  0
 35 34  1  0  0  0  0
 36 34  2  0  0  0  0
 36 37  1  0  0  0  0
 37 30  2  0  0  0  0
 39 38  3  0  0  0  0
M  END
>  <minimizedAffinity>
-5.37304497

>  <minimizedRMSD>
3.2440865

$$$$
