
     RDKit          3D

 41 43  0  0  0  0  0  0  0  0999 V2000
   36.0783   30.6897   49.0660 C   0  0  2  0  0  0  0  0  0  0  0  0
   37.0124   31.6455   49.7421 C   0  0  0  0  0  0  0  0  0  0  0  0
   38.0401   30.9550   50.6100 C   0  0  0  0  0  0  0  0  0  0  0  0
   37.3783   30.0481   51.6429 C   0  0  0  0  0  0  0  0  0  0  0  0
   36.1143   29.3817   51.1480 C   0  0  0  0  0  0  0  0  0  0  0  0
   36.1926   29.3078   49.6123 C   0  0  1  0  0  0  0  0  0  0  0  0
   36.3230   30.6473   47.5991 C   0  0  0  0  0  0  0  0  0  0  0  0
   37.5715   31.1146   47.1800 C   0  0  0  0  0  0  0  0  0  0  0  0
   37.8270   31.0835   45.8037 C   0  0  0  0  0  0  0  0  0  0  0  0
   36.8531   30.6026   44.9570 N   0  0  0  0  0  0  0  0  0  0  0  0
   35.6427   30.1547   45.4255 C   0  0  0  0  0  0  0  0  0  0  0  0
   35.4012   30.1872   46.7459 N   0  0  0  0  0  0  0  0  0  0  0  0
   33.9347   28.2034   49.2441 C   0  0  0  0  0  0  0  0  0  0  0  0
   33.1113   28.8614   49.9349 O   0  0  0  0  0  0  0  0  0  0  0  0
   35.3276   28.3544   49.0166 N   0  0  0  0  0  0  0  0  0  0  0  0
   34.9936   30.9589   49.1636 H   0  0  0  0  0  0  0  0  0  0  0  0
   36.3532   32.1970   50.4947 H   0  0  0  0  0  0  0  0  0  0  0  0
   37.4636   32.4121   49.1423 H   0  0  0  0  0  0  0  0  0  0  0  0
   38.5205   31.7747   51.2201 H   0  0  0  0  0  0  0  0  0  0  0  0
   38.8319   30.4422   50.0730 H   0  0  0  0  0  0  0  0  0  0  0  0
   37.1429   30.5838   52.5706 H   0  0  0  0  0  0  0  0  0  0  0  0
   38.1207   29.2221   51.8351 H   0  0  0  0  0  0  0  0  0  0  0  0
   35.2362   29.9913   51.3876 H   0  0  0  0  0  0  0  0  0  0  0  0
   36.0157   28.3598   51.5641 H   0  0  0  0  0  0  0  0  0  0  0  0
   37.1693   28.9111   49.4910 H   0  0  0  0  0  0  0  0  0  0  0  0
   38.4201   31.5032   47.7095 H   0  0  0  0  0  0  0  0  0  0  0  0
   38.7305   31.4056   45.3284 H   0  0  0  0  0  0  0  0  0  0  0  0
   34.9354   29.7945   44.7048 H   0  0  0  0  0  0  0  0  0  0  0  0
   35.6487   27.6235   48.3062 H   0  0  0  0  0  0  0  0  0  0  0  0
   31.1681   29.9997   47.9690 N   0  0  0  0  0  0  0  0  0  0  0  0
   31.4967   28.8831   47.9945 C   0  0  0  0  0  0  0  0  0  0  0  0
   31.9053   27.5029   48.0378 C   0  0  0  0  0  0  0  0  0  0  0  0
   33.1067   27.1282   48.6463 C   0  0  0  0  0  0  0  0  0  0  0  0
   33.4621   25.7827   48.6652 C   0  0  0  0  0  0  0  0  0  0  0  0
   34.3854   25.5442   49.1383 H   0  0  0  0  0  0  0  0  0  0  0  0
   32.6065   24.8556   48.0763 C   0  0  0  0  0  0  0  0  0  0  0  0
   32.8993   23.7995   48.0989 H   0  0  0  0  0  0  0  0  0  0  0  0
   31.4218   25.2432   47.4789 C   0  0  0  0  0  0  0  0  0  0  0  0
   31.0410   26.5831   47.4453 C   0  0  0  0  0  0  0  0  0  0  0  0
   30.7452   24.5215   47.0169 H   0  0  0  0  0  0  0  0  0  0  0  0
   30.1167   26.9127   46.9831 H   0  0  0  0  0  0  0  0  0  0  0  0
  1  6  1  0
  1  2  1  0
  2  3  1  0
  3  4  1  0
  5  4  1  0
  6  5  1  0
  7  1  1  0
  8  7  2  0
  9  8  1  0
 10 11  1  0
 10  9  2  0
 11 12  2  0
 12  7  1  0
 13 14  2  0
 15 13  1  0
 15  6  1  0
  1 16  1  6
  2 17  1  0
  2 18  1  0
  3 19  1  0
  3 20  1  0
  4 21  1  0
  4 22  1  0
  5 23  1  0
  5 24  1  0
  6 25  1  1
  8 26  1  0
  9 27  1  0
 11 28  1  0
 15 29  1  0
 30 31  3  0
 31 32  1  0
 32 33  2  0
 33 34  1  0
 34 35  1  0
 34 36  2  0
 36 37  1  0
 36 38  1  0
 38 39  2  0
 39 32  1  0
 38 40  1  0
 39 41  1  0
 13 33  1  0
M  ISO  8  16  13  17  13  18  13  19  13  20  13  21  13  22  13  23  13
M  ISO  7  24  13  25  13  26  14  27  14  28  14  35  15  37  16
M  END
>  <DihAtoms>  (1) 
13,12,32,31

>  <DihDeg>  (1) 
-71.45933108932076

$$$$
