REMARK  Name = 
REMARK  5 active torsions:
REMARK  status: ('A' for Active; 'I' for Inactive)
REMARK    1  A    between atoms: O_1  and  C_2
REMARK    2  A    between atoms: O_1  and  C_13
REMARK    3  A    between atoms: N_16  and  C_17
REMARK    4  A    between atoms: C_17  and  C_32
REMARK    5  A    between atoms: C_30  and  C_31
REMARK                            x       y       z     vdW  Elec       q    Type
REMARK                         _______ _______ _______ _____ _____    ______ ____
ROOT
ATOM      1  O   UNL     1      35.488  28.673  50.057  0.00  0.00    +0.000 OA
ATOM      2  C   UNL     1      35.256  29.047  48.886  0.00  0.00    +0.000 C 
ATOM      3  C   UNL     1      35.924  30.200  48.329  0.00  0.00    +0.000 C 
ATOM      4  C   UNL     1      35.465  30.113  46.839  0.00  0.00    +0.000 C 
ATOM      5  C   UNL     1      34.145  29.410  46.932  0.00  0.00    +0.000 C 
ATOM      6  N   UNL     1      34.335  28.409  47.969  0.00  0.00    +0.000 N 
ATOM      7  H   UNL     1      35.597  31.148  48.743  0.00  0.00    +0.000 HD
ATOM      8  H   UNL     1      36.221  29.582  46.235  0.00  0.00    +0.000 HD
ATOM      9  H   UNL     1      35.300  31.165  46.539  0.00  0.00    +0.000 HD
ATOM     10  H   UNL     1      34.000  28.840  45.986  0.00  0.00    +0.000 HD
ATOM     11  H   UNL     1      33.294  30.066  47.062  0.00  0.00    +0.000 HD
ENDROOT
BRANCH   6  12
ATOM     12  C   UNL     1      33.773  27.074  48.081  0.00  0.00    +0.000 C 
ATOM     13  H   UNL     1      34.579  26.430  48.504  0.00  0.00    +0.000 HD
ATOM     14  H   UNL     1      33.554  26.747  47.019  0.00  0.00    +0.000 HD
BRANCH  12  16
ATOM     15  C   UNL     1      32.113  28.334  49.157  0.00  0.00    +0.000 A 
ATOM     16  C   UNL     1      32.521  27.056  48.836  0.00  0.00    +0.000 A 
ATOM     17  C   UNL     1      31.771  25.980  49.229  0.00  0.00    +0.000 A 
ATOM     18  H   UNL     1      32.139  25.007  48.948  0.00  0.00    +0.000 HD
ATOM     19  C   UNL     1      30.612  26.143  49.943  0.00  0.00    +0.000 A 
ATOM     20  H   UNL     1      30.076  25.265  50.217  0.00  0.00    +0.000 HD
ATOM     21  C   UNL     1      30.179  27.407  50.280  0.00  0.00    +0.000 A 
ATOM     22  C   UNL     1      30.931  28.505  49.886  0.00  0.00    +0.000 A 
BRANCH  15  24
ATOM     23  N   UNL     1      33.362  30.526  48.532  0.00  0.00    +0.000 NA
ATOM     24  C   UNL     1      32.801  29.563  48.804  0.00  0.00    +0.000 C 
ENDBRANCH  15  24
ENDBRANCH  12  16
ENDBRANCH   6  12
BRANCH   3  25
ATOM     25  O   UNL     1      37.350  30.113  48.296  0.00  0.00    +0.000 OA
BRANCH  25  26
ATOM     26  C   UNL     1      38.067  31.305  48.222  0.00  0.00    +0.000 A 
ATOM     27  C   UNL     1      38.219  32.021  49.392  0.00  0.00    +0.000 A 
ATOM     28  C   UNL     1      38.922  33.208  49.365  0.00  0.00    +0.000 A 
ATOM     29  N   UNL     1      39.439  33.625  48.179  0.00  0.00    +0.000 NA
ATOM     30  C   UNL     1      39.284  32.915  47.037  0.00  0.00    +0.000 A 
ATOM     31  N   UNL     1      38.608  31.782  47.085  0.00  0.00    +0.000 NA
ATOM     32  C   UNL     1      40.769  32.464  45.239  0.00  0.00    +0.000 C 
ATOM     33  O   UNL     1      41.130  31.351  45.687  0.00  0.00    +0.000 OA
ATOM     34  N   UNL     1      39.839  33.384  45.805  0.00  0.00    +0.000 N 
ATOM     35  H   UNL     1      37.793  31.661  50.327  0.00  0.00    +0.000 HD
ATOM     36  H   UNL     1      39.048  33.777  50.266  0.00  0.00    +0.000 HD
ATOM     37  H   UNL     1      41.362  32.493  44.337  0.00  0.00    +0.000 HD
ATOM     38  H   UNL     1      39.722  34.223  45.236  0.00  0.00    +0.000 HD
ENDBRANCH  25  26
ENDBRANCH   3  25
TORSDOF 5
