
 OpenBabel03272503123D

 47 51  0  0  0  0  0  0  0  0999 V2000
   39.0870   32.1010   42.5230 C   0  0  0  0  0  0  0  0  0  0  0  0
   39.6790   31.4680   43.5900 C   0  0  0  0  0  0  0  0  0  0  0  0
   40.6310   30.4830   43.4380 C   0  0  0  0  0  0  0  0  0  0  0  0
   41.0180   30.1040   42.1470 C   0  0  0  0  0  0  0  0  0  0  0  0
   41.8890   29.2070   41.6950 N   0  0  0  0  0  0  0  0  0  0  0  0
   41.8660   29.2540   40.3710 C   0  0  0  0  0  0  0  0  0  0  0  0
   40.9720   30.1880   39.9790 N   0  0  0  0  0  0  0  0  0  0  0  0
   40.4140   30.7500   41.0780 C   0  0  0  0  0  0  0  0  0  0  0  0
   39.4600   31.7360   41.2220 C   0  0  0  0  0  0  0  0  0  0  0  0
   38.3460   32.8850   42.7250 H   0  0  0  0  0  0  0  0  0  0  0  0
   41.0870   29.9940   44.2830 H   0  0  0  0  0  0  0  0  0  0  0  0
   42.4880   28.5750   42.2810 H   0  0  0  0  0  0  0  0  0  0  0  0
   42.4780   28.6280   39.7220 H   0  0  0  0  0  0  0  0  0  0  0  0
   39.2670   31.8690   44.9170 C   0  0  0  0  0  0  0  0  0  0  0  0
   38.1690   32.5230   45.0360 O   0  0  0  0  0  0  0  0  0  0  0  0
   39.9580   31.6130   46.1170 N   0  0  0  0  0  0  0  0  0  0  0  0
   40.8470   31.0870   46.0540 H   0  0  0  0  0  0  0  0  0  0  0  0
   38.1160   30.1370   47.4780 F   0  0  0  0  0  0  0  0  0  0  0  0
   38.3680   31.3770   47.9610 C   0  0  0  0  0  0  0  0  0  0  0  0
   37.7180   31.8300   49.0700 C   0  0  0  0  0  0  0  0  0  0  0  0
   38.0260   33.1000   49.5000 C   0  0  0  0  0  0  0  0  0  0  0  0
   38.9430   33.8940   48.8630 C   0  0  0  0  0  0  0  0  0  0  0  0
   39.5980   33.4120   47.7290 C   0  0  0  0  0  0  0  0  0  0  0  0
   39.3000   32.1380   47.2820 C   0  0  0  0  0  0  0  0  0  0  0  0
   37.5140   33.4670   50.3800 H   0  0  0  0  0  0  0  0  0  0  0  0
   39.1260   34.8810   49.2680 H   0  0  0  0  0  0  0  0  0  0  0  0
   40.3230   34.0340   47.2210 H   0  0  0  0  0  0  0  0  0  0  0  0
   36.0830   29.3690   51.4480 C   0  0  0  0  0  0  0  0  0  0  0  0
   37.0500   30.2220   50.8540 C   0  0  0  0  0  0  0  0  0  0  0  0
   36.7490   30.9400   49.7130 C   0  0  0  0  0  0  0  0  0  0  0  0
   35.4900   30.7910   49.1900 N   0  0  0  0  0  0  0  0  0  0  0  0
   34.5800   29.9810   49.7580 C   0  0  0  0  0  0  0  0  0  0  0  0
   34.8680   29.2880   50.8590 N   0  0  0  0  0  0  0  0  0  0  0  0
   36.3720   28.8300   52.3420 H   0  0  0  0  0  0  0  0  0  0  0  0
   38.0480   30.3370   51.2730 H   0  0  0  0  0  0  0  0  0  0  0  0
   33.6100   29.9340   49.2660 H   0  0  0  0  0  0  0  0  0  0  0  0
   38.8700   32.3610   40.1550 O   0  0  0  0  0  0  0  0  0  0  0  0
   36.5250   32.4790   39.6450 C   0  0  0  0  0  0  0  0  0  0  0  0
   37.7860   31.9040   39.4430 C   0  0  0  0  0  0  0  0  0  0  0  0
   37.8320   30.8760   38.5080 C   0  0  0  0  0  0  0  0  0  0  0  0
   38.8050   30.4150   38.3380 H   0  0  0  0  0  0  0  0  0  0  0  0
   36.7040   30.4480   37.8160 C   0  0  0  0  0  0  0  0  0  0  0  0
   36.7870   29.6430   37.0930 H   0  0  0  0  0  0  0  0  0  0  0  0
   35.4820   31.0450   38.0440 C   0  0  0  0  0  3  0  0  0  0  0  0
   35.3930   32.0670   38.9660 C   0  0  0  0  0  3  0  0  0  0  0  0
   36.1380   34.3970   41.3730 N   0  0  0  0  0  0  0  0  0  0  0  0
   36.2980   33.5480   40.6050 C   0  0  0  0  0  0  0  0  0  0  0  0
  1 10  1  0  0  0  0
  1  2  1  0  0  0  0
  2 14  1  0  0  0  0
  3  2  2  0  0  0  0
  3 11  1  0  0  0  0
  4  3  1  0  0  0  0
  5  4  1  0  0  0  0
  5 12  1  0  0  0  0
  6  5  1  0  0  0  0
  7  6  2  0  0  0  0
  7  8  1  0  0  0  0
  8  9  1  0  0  0  0
  8  4  2  0  0  0  0
  9  1  2  0  0  0  0
 13  6  1  0  0  0  0
 14 15  2  0  0  0  0
 14 16  1  0  0  0  0
 16 24  1  0  0  0  0
 17 16  1  0  0  0  0
 18 19  1  0  0  0  0
 19 20  1  0  0  0  0
 20 21  2  0  0  0  0
 20 30  1  0  0  0  0
 21 25  1  0  0  0  0
 22 26  1  0  0  0  0
 22 21  1  0  0  0  0
 23 22  2  0  0  0  0
 24 23  1  0  0  0  0
 24 19  2  0  0  0  0
 27 23  1  0  0  0  0
 28 34  1  0  0  0  0
 29 35  1  0  0  0  0
 29 28  2  0  0  0  0
 30 29  1  0  0  0  0
 31 30  2  0  0  0  0
 31 32  1  0  0  0  0
 32 33  2  0  0  0  0
 33 28  1  0  0  0  0
 36 32  1  0  0  0  0
 37  9  1  0  0  0  0
 38 47  1  0  0  0  0
 39 38  1  0  0  0  0
 39 37  1  0  0  0  0
 40 39  2  0  0  0  0
 41 40  1  0  0  0  0
 42 44  2  0  0  0  0
 42 40  1  0  0  0  0
 43 42  1  0  0  0  0
 44 45  1  0  0  0  0
 45 38  2  0  0  0  0
 47 46  3  0  0  0  0
M  END
>  <minimizedAffinity>
-6.88323259

>  <minimizedRMSD>
1.93079269

$$$$
