REMARK  Name = 
REMARK  4 active torsions:
REMARK  status: ('A' for Active; 'I' for Inactive)
REMARK    1  A    between atoms: C_11  and  C_13
REMARK    2  A    between atoms: C_12  and  C_19
REMARK    3  A    between atoms: C_17  and  C_36
REMARK    4  A    between atoms: C_34  and  C_35
REMARK                            x       y       z     vdW  Elec       q    Type
REMARK                         _______ _______ _______ _____ _____    ______ ____
ROOT
ATOM      1  C   UNL     1      39.480  32.684  46.209  0.00  0.00    +0.000 A 
ATOM      2  C   UNL     1      40.428  31.831  45.655  0.00  0.00    +0.000 A 
ATOM      3  C   UNL     1      40.027  30.563  45.267  0.00  0.00    +0.000 A 
ATOM      4  N   UNL     1      38.732  30.201  45.440  0.00  0.00    +0.000 NA
ATOM      5  C   UNL     1      37.836  30.996  45.959  0.00  0.00    +0.000 A 
ATOM      6  N   UNL     1      38.272  32.178  46.305  0.00  0.00    +0.000 NA
ATOM      7  N   UNL     1      36.499  30.578  46.117  0.00  0.00    +0.000 N 
ATOM      8  C   UNL     1      35.679  30.130  44.986  0.00  0.00    +0.000 C 
ATOM      9  C   UNL     1      34.403  29.711  45.589  0.00  0.00    +0.000 C 
ATOM     10  C   UNL     1      34.726  29.521  47.073  0.00  0.00    +0.000 C 
ATOM     11  C   UNL     1      35.699  30.562  47.351  0.00  0.00    +0.000 C 
ATOM     12  H   UNL     1      39.708  33.675  46.532  0.00  0.00    +0.000 HD
ATOM     13  H   UNL     1      41.457  32.159  45.534  0.00  0.00    +0.000 HD
ATOM     14  H   UNL     1      40.784  29.908  44.834  0.00  0.00    +0.000 HD
ATOM     15  H   UNL     1      35.532  31.008  44.328  0.00  0.00    +0.000 HD
ATOM     16  H   UNL     1      36.193  29.339  44.407  0.00  0.00    +0.000 HD
ATOM     17  H   UNL     1      33.978  28.816  45.114  0.00  0.00    +0.000 HD
ATOM     18  H   UNL     1      33.628  30.512  45.429  0.00  0.00    +0.000 HD
ATOM     19  H   UNL     1      33.742  29.595  47.475  0.00  0.00    +0.000 HD
ATOM     20  H   UNL     1      35.255  28.566  46.931  0.00  0.00    +0.000 HD
ATOM     21  H   UNL     1      35.289  31.616  47.263  0.00  0.00    +0.000 HD
ENDROOT
BRANCH  11  23
ATOM     22  C   UNL     1      36.298  29.488  49.557  0.00  0.00    +0.000 A 
ATOM     23  C   UNL     1      36.406  30.506  48.596  0.00  0.00    +0.000 A 
ATOM     24  C   UNL     1      37.383  31.427  48.946  0.00  0.00    +0.000 A 
ATOM     25  C   UNL     1      38.170  31.378  50.078  0.00  0.00    +0.000 A 
ATOM     26  C   UNL     1      37.980  30.312  50.976  0.00  0.00    +0.000 A 
ATOM     27  C   UNL     1      37.028  29.336  50.730  0.00  0.00    +0.000 A 
ATOM     28  H   UNL     1      37.635  32.342  48.471  0.00  0.00    +0.000 HD
ATOM     29  H   UNL     1      38.942  32.047  50.408  0.00  0.00    +0.000 HD
ATOM     30  H   UNL     1      38.550  30.182  51.898  0.00  0.00    +0.000 HD
BRANCH  27  32
ATOM     31  C   UNL     1      35.548  28.166  52.202  0.00  0.00    +0.000 A 
ATOM     32  C   UNL     1      36.836  28.241  51.660  0.00  0.00    +0.000 A 
ATOM     33  C   UNL     1      37.791  27.322  52.024  0.00  0.00    +0.000 A 
ATOM     34  H   UNL     1      38.777  27.426  51.572  0.00  0.00    +0.000 HD
ATOM     35  C   UNL     1      37.482  26.321  52.925  0.00  0.00    +0.000 A 
ATOM     36  H   UNL     1      38.246  25.605  53.200  0.00  0.00    +0.000 HD
ATOM     37  C   UNL     1      36.200  26.285  53.433  0.00  0.00    +0.000 A 
ATOM     38  C   UNL     1      35.211  27.186  53.098  0.00  0.00    +0.000 A 
BRANCH  31  40
ATOM     39  N   UNL     1      33.687  29.883  51.575  0.00  0.00    +0.000 NA
ATOM     40  C   UNL     1      34.507  29.114  51.848  0.00  0.00    +0.000 C 
ENDBRANCH  31  40
ENDBRANCH  27  32
BRANCH  22  42
ATOM     41  N   UNL     1      34.440  27.733  49.251  0.00  0.00    +0.000 NA
ATOM     42  C   UNL     1      35.252  28.506  49.375  0.00  0.00    +0.000 C 
ENDBRANCH  22  42
ENDBRANCH  11  23
TORSDOF 4
