
 OpenBabel03272506393D

 38 40  0  0  1  0  0  0  0  0999 V2000
   35.5180   29.7170   50.6060 O   0  0  0  0  0  0  0  0  0  0  0  0
   35.2590   29.8280   49.3870 C   0  0  0  0  0  0  0  0  0  0  0  0
   35.9690   30.7770   48.5610 C   0  0  2  0  0  0  0  0  0  0  0  0
   35.4440   30.3820   47.1440 C   0  0  0  0  0  0  0  0  0  0  0  0
   34.0910   29.8060   47.4330 C   0  0  0  0  0  0  0  0  0  0  0  0
   34.2660   29.0590   48.6680 N   0  0  0  0  0  0  0  0  0  0  0  0
   35.7140   31.8140   48.7540 H   0  0  0  0  0  0  0  0  0  0  0  0
   36.1420   29.6780   46.6590 H   0  0  0  0  0  0  0  0  0  0  0  0
   35.3270   31.3460   46.6140 H   0  0  0  0  0  0  0  0  0  0  0  0
   33.8740   29.0460   46.6490 H   0  0  0  0  0  0  0  0  0  0  0  0
   33.2850   30.5290   47.4320 H   0  0  0  0  0  0  0  0  0  0  0  0
   33.6340   27.8240   49.1000 C   0  0  0  0  0  0  0  0  0  0  0  0
   32.8280   28.1190   49.8120 H   0  0  0  0  0  0  0  0  0  0  0  0
   34.4350   27.2530   49.6600 H   0  0  0  0  0  0  0  0  0  0  0  0
   31.8100   26.8630   47.9820 C   0  0  0  0  0  0  0  0  0  0  0  0
   33.1830   27.0040   47.9770 C   0  0  0  0  0  0  0  0  0  0  0  0
   33.9280   26.4060   46.9970 C   0  0  0  0  0  0  0  0  0  0  0  0
   34.9950   26.5540   47.0440 H   0  0  0  0  0  0  0  0  0  0  0  0
   33.3390   25.6600   46.0080 C   0  0  0  0  0  0  0  0  0  0  0  0
   33.9760   25.2230   45.2760 H   0  0  0  0  0  0  0  0  0  0  0  0
   31.9710   25.5000   45.9860 C   0  0  0  0  0  3  0  0  0  0  0  0
   31.2050   26.1010   46.9750 C   0  0  0  0  0  3  0  0  0  0  0  0
   30.1850   27.8900   49.7310 N   0  0  0  0  0  0  0  0  0  0  0  0
   30.8960   27.4410   48.9500 C   0  0  0  0  0  0  0  0  0  0  0  0
   37.3850   30.5910   48.5100 O   0  0  0  0  0  0  0  0  0  0  0  0
   38.1750   31.7190   48.3000 C   0  0  0  0  0  0  0  0  0  0  0  0
   38.4200   32.5270   49.3920 C   0  0  0  0  0  0  0  0  0  0  0  0
   39.1980   33.6550   49.2300 C   0  0  0  0  0  0  0  0  0  0  0  0
   39.6940   33.9250   47.9930 N   0  0  0  0  0  0  0  0  0  0  0  0
   39.4480   33.1250   46.9290 C   0  0  0  0  0  0  0  0  0  0  0  0
   38.7010   32.0510   47.1060 N   0  0  0  0  0  0  0  0  0  0  0  0
   40.8280   32.4090   45.1330 C   0  0  0  0  0  0  0  0  0  0  0  0
   41.1320   31.3200   45.6720 O   0  0  0  0  0  0  0  0  0  0  0  0
   39.9840   33.4400   45.6410 N   0  0  0  0  0  0  0  0  0  0  0  0
   38.0080   32.2850   50.3700 H   0  0  0  0  0  0  0  0  0  0  0  0
   39.3970   34.2940   50.0680 H   0  0  0  0  0  0  0  0  0  0  0  0
   41.3860   32.3140   44.2140 H   0  0  0  0  0  0  0  0  0  0  0  0
   39.9000   34.2290   44.9990 H   0  0  0  0  0  0  0  0  0  0  0  0
  2  1  2  0  0  0  0
  3  7  1  1  0  0  0
  3  2  1  0  0  0  0
  4  5  1  0  0  0  0
  4  3  1  0  0  0  0
  5  6  1  0  0  0  0
  6 12  1  0  0  0  0
  6  2  1  0  0  0  0
  8  4  1  0  0  0  0
  9  4  1  0  0  0  0
 10  5  1  0  0  0  0
 11  5  1  0  0  0  0
 12 14  1  0  0  0  0
 12 13  1  0  0  0  0
 15 24  1  0  0  0  0
 16 15  1  0  0  0  0
 16 12  1  0  0  0  0
 17 18  1  0  0  0  0
 17 16  2  0  0  0  0
 19 17  1  0  0  0  0
 20 19  1  0  0  0  0
 21 19  2  0  0  0  0
 21 22  1  0  0  0  0
 22 15  2  0  0  0  0
 24 23  3  0  0  0  0
 25  3  1  0  0  0  0
 26 25  1  0  0  0  0
 26 27  1  0  0  0  0
 27 35  1  0  0  0  0
 28 27  2  0  0  0  0
 28 36  1  0  0  0  0
 29 28  1  0  0  0  0
 30 31  1  0  0  0  0
 30 29  2  0  0  0  0
 31 26  2  0  0  0  0
 32 34  1  0  0  0  0
 32 33  2  0  0  0  0
 34 30  1  0  0  0  0
 37 32  1  0  0  0  0
 38 34  1  0  0  0  0
M  END
>  <minimizedAffinity>
-5.97588921

>  <minimizedRMSD>
2.27298546

$$$$
