
 OpenBabel03272508513D

 30 32  0  0  1  0  0  0  0  0999 V2000
   38.7230   31.2230   47.1500 C   0  0  2  0  0  0  0  0  0  0  0  0
   39.3070   32.5360   46.8900 C   0  0  0  0  0  0  0  0  0  0  0  0
   38.2140   31.9530   45.9860 C   0  0  1  0  0  0  0  0  0  0  0  0
   39.2860   30.2790   46.8670 H   0  0  0  0  0  0  0  0  0  0  0  0
   39.0820   33.4190   47.5050 H   0  0  0  0  0  0  0  0  0  0  0  0
   40.3060   32.5920   46.4120 H   0  0  0  0  0  0  0  0  0  0  0  0
   37.3840   32.6760   45.9340 H   0  0  0  0  0  0  0  0  0  0  0  0
   35.6710   30.4700   49.1120 C   0  0  0  0  0  0  0  0  0  0  0  0
   36.1770   30.4110   50.4350 C   0  0  0  0  0  0  0  0  0  0  0  0
   37.5860   30.6370   50.6180 C   0  0  0  0  0  0  0  0  0  0  0  0
   38.3370   30.8930   49.5190 N   0  0  0  0  0  0  0  0  0  0  0  0
   37.8040   30.9360   48.2900 C   0  0  0  0  0  0  0  0  0  0  0  0
   36.4800   30.7290   48.0510 N   0  0  0  0  0  0  0  0  0  0  0  0
   34.6050   30.2980   49.0480 H   0  0  0  0  0  0  0  0  0  0  0  0
   35.5350   30.2060   51.2770 H   0  0  0  0  0  0  0  0  0  0  0  0
   37.9880   30.5900   51.6160 H   0  0  0  0  0  0  0  0  0  0  0  0
   37.9040   31.7860   43.5340 C   0  0  0  0  0  0  0  0  0  0  0  0
   36.8860   32.5550   43.6680 O   0  0  0  0  0  0  0  0  0  0  0  0
   38.7000   31.5190   44.6700 N   0  0  0  0  0  0  0  0  0  0  0  0
   39.6480   31.0350   44.7650 H   0  0  0  0  0  0  0  0  0  0  0  0
   38.1360   29.7730   42.0720 C   0  0  0  0  0  0  0  0  0  0  0  0
   38.6100   31.0010   42.4820 C   0  0  0  0  0  0  0  0  0  0  0  0
   39.7680   31.6080   42.0270 C   0  0  0  0  0  0  0  0  0  0  0  0
   40.1240   32.5690   42.3600 H   0  0  0  0  0  0  0  0  0  0  0  0
   40.5160   30.9290   41.0810 C   0  0  0  0  0  0  0  0  0  0  0  0
   41.4540   31.3070   40.6460 H   0  0  0  0  0  0  0  0  0  0  0  0
   40.0410   29.7030   40.6730 C   0  0  0  0  0  3  0  0  0  0  0  0
   38.8930   29.0940   41.1200 C   0  0  0  0  0  3  0  0  0  0  0  0
   35.9280   28.9260   43.1030 N   0  0  0  0  0  0  0  0  0  0  0  0
   36.9210   29.3040   42.6490 C   0  0  0  0  0  0  0  0  0  0  0  0
  1  4  1  6  0  0  0
  1 12  1  0  0  0  0
  2  1  1  0  0  0  0
  2  5  1  0  0  0  0
  3  7  1  1  0  0  0
  3  2  1  0  0  0  0
  3  1  1  0  0  0  0
  6  2  1  0  0  0  0
  8  9  1  0  0  0  0
  9 10  2  0  0  0  0
  9 15  1  0  0  0  0
 10 16  1  0  0  0  0
 11 10  1  0  0  0  0
 12 11  2  0  0  0  0
 13 12  1  0  0  0  0
 13  8  2  0  0  0  0
 14  8  1  0  0  0  0
 17 18  2  0  0  0  0
 17 19  1  0  0  0  0
 19 20  1  0  0  0  0
 19  3  1  0  0  0  0
 21 22  1  0  0  0  0
 21 30  1  0  0  0  0
 22 17  1  0  0  0  0
 23 24  1  0  0  0  0
 23 22  2  0  0  0  0
 25 23  1  0  0  0  0
 26 25  1  0  0  0  0
 27 25  2  0  0  0  0
 27 28  1  0  0  0  0
 28 21  2  0  0  0  0
 30 29  3  0  0  0  0
M  END
>  <minimizedAffinity>
-4.52537823

>  <minimizedRMSD>
8.14449215

$$$$
