
 OpenBabel03272508193D

 32 34  0  0  0  0  0  0  0  0999 V2000
   36.7270   31.1030   48.5060 C   0  0  0  0  0  0  0  0  0  0  0  0
   36.4460   30.5600   47.2500 C   0  0  0  0  0  0  0  0  0  0  0  0
   35.2130   29.9650   47.1620 C   0  0  0  0  0  0  0  0  0  0  0  0
   34.3490   29.9150   48.2050 N   0  0  0  0  0  0  0  0  0  0  0  0
   34.6520   30.4500   49.4050 C   0  0  0  0  0  0  0  0  0  0  0  0
   35.8420   31.0430   49.5520 N   0  0  0  0  0  0  0  0  0  0  0  0
   34.7960   29.4690   46.3120 H   0  0  0  0  0  0  0  0  0  0  0  0
   33.9830   30.4240   50.2530 H   0  0  0  0  0  0  0  0  0  0  0  0
   38.0410   31.8530   48.6380 C   0  0  0  0  0  0  0  0  0  0  0  0
   38.1860   32.9540   49.5140 C   0  0  0  0  0  0  0  0  0  0  0  0
   38.5970   31.6180   50.0890 C   0  0  0  0  0  0  0  0  0  0  0  0
   38.8640   31.5380   47.9180 H   0  0  0  0  0  0  0  0  0  0  0  0
   37.2520   33.3640   49.9940 H   0  0  0  0  0  0  0  0  0  0  0  0
   38.9380   33.7410   49.3470 H   0  0  0  0  0  0  0  0  0  0  0  0
   39.6840   31.4890   50.1600 H   0  0  0  0  0  0  0  0  0  0  0  0
   37.9790   31.1050   50.8100 H   0  0  0  0  0  0  0  0  0  0  0  0
   37.3670   30.5710   46.1350 C   0  0  0  0  0  0  0  0  0  0  0  0
   37.9320   29.6170   46.1230 H   0  0  0  0  0  0  0  0  0  0  0  0
   38.0820   31.4300   46.3570 H   0  0  0  0  0  0  0  0  0  0  0  0
   36.8720   30.8350   44.7730 C   0  0  0  0  0  0  0  0  0  0  0  0
   36.0540   31.6180   44.8010 H   0  0  0  0  0  0  0  0  0  0  0  0
   36.3210   29.9420   44.3550 H   0  0  0  0  0  0  0  0  0  0  0  0
   38.1930   30.3380   42.8520 C   0  0  0  0  0  0  0  0  0  0  0  0
   37.8320   31.3300   43.7760 C   0  0  0  0  0  0  0  0  0  0  0  0
   38.4450   32.5370   43.5300 C   0  0  0  0  0  0  0  0  0  0  0  0
   38.1560   33.3050   44.2260 H   0  0  0  0  0  0  0  0  0  0  0  0
   39.3270   32.8180   42.5170 C   0  0  0  0  0  0  0  0  0  0  0  0
   39.7090   33.8070   42.4740 H   0  0  0  0  0  0  0  0  0  0  0  0
   39.6620   31.8220   41.6270 C   0  0  0  0  0  3  0  0  0  0  0  0
   39.0870   30.5830   41.8060 C   0  0  0  0  0  3  0  0  0  0  0  0
   37.2700   27.8960   42.8480 N   0  0  0  0  0  0  0  0  0  0  0  0
   37.6900   28.9740   42.8490 C   0  0  0  0  0  0  0  0  0  0  0  0
  1  9  1  0  0  0  0
  1  6  1  0  0  0  0
  2  1  2  0  0  0  0
  3  2  1  0  0  0  0
  3  4  2  0  0  0  0
  4  5  1  0  0  0  0
  5  6  2  0  0  0  0
  5  8  1  0  0  0  0
  7  3  1  0  0  0  0
  9 10  1  0  0  0  0
  9 11  1  0  0  0  0
 10 13  1  0  0  0  0
 10 11  1  0  0  0  0
 11 15  1  0  0  0  0
 11 16  1  0  0  0  0
 12  9  1  0  0  0  0
 14 10  1  0  0  0  0
 17 19  1  0  0  0  0
 17  2  1  0  0  0  0
 18 17  1  0  0  0  0
 20 21  1  0  0  0  0
 20 17  1  0  0  0  0
 22 20  1  0  0  0  0
 23 24  1  0  0  0  0
 24 20  1  0  0  0  0
 25 24  2  0  0  0  0
 25 26  1  0  0  0  0
 27 25  1  0  0  0  0
 28 27  1  0  0  0  0
 29 30  1  0  0  0  0
 29 27  2  0  0  0  0
 30 23  2  0  0  0  0
 31 32  3  0  0  0  0
 32 23  1  0  0  0  0
M  END
>  <minimizedAffinity>
-4.59994936

>  <minimizedRMSD>
5.849123

$$$$
