
     RDKit          3D

 29 30  0  0  0  0  0  0  0  0999 V2000
   35.9531   30.7991   49.6195 C   0  0  0  0  0  0  0  0  0  0  0  0
   36.2171   29.8989   50.6500 C   0  0  0  0  0  0  0  0  0  0  0  0
   37.4993   29.8962   51.1975 C   0  0  0  0  0  0  0  0  0  0  0  0
   38.4304   30.7590   50.7132 N   0  0  0  0  0  0  0  0  0  0  0  0
   38.1328   31.6171   49.7114 C   0  0  0  0  0  0  0  0  0  0  0  0
   36.8890   31.6401   49.1594 N   0  0  0  0  0  0  0  0  0  0  0  0
   35.1311   29.0783   51.0253 N   0  0  0  0  0  0  0  0  0  0  0  0
   34.7362   30.9396   48.9590 O   0  0  0  0  0  0  0  0  0  0  0  0
   35.5330   30.0971   46.5421 O   0  0  0  0  0  0  0  0  0  0  0  0
   34.3742   30.0865   47.5169 P   0  0  1  0  0  0  0  0  0  0  0  0
   34.0017   28.5008   47.9893 O   0  0  0  0  0  0  0  0  0  0  0  0
   33.0692   30.8083   46.7283 O   0  0  0  0  0  0  0  0  0  0  0  0
   37.6577   29.1817   51.9936 H   0  0  0  0  0  0  0  0  0  0  0  0
   38.9210   32.2844   49.3658 H   0  0  0  0  0  0  0  0  0  0  0  0
   34.1904   29.4412   51.3129 H   0  0  0  0  0  0  0  0  0  0  0  0
   35.0921   28.0233   51.0747 H   0  0  0  0  0  0  0  0  0  0  0  0
   33.0884   28.2916   47.6581 H   0  0  0  0  0  0  0  0  0  0  0  0
   32.9193   30.8238   43.2561 N   0  0  0  0  0  0  0  0  0  0  0  0
   32.9489   31.5953   44.1156 C   0  0  0  0  0  0  0  0  0  0  0  0
   32.9662   32.5654   45.1916 C   0  0  0  0  0  0  0  0  0  0  0  0
   33.0275   32.1827   46.5360 C   0  0  0  0  0  0  0  0  0  0  0  0
   33.0401   33.1752   47.5045 C   0  0  0  0  0  0  0  0  0  0  0  0
   33.0883   32.8101   48.5213 H   0  0  0  0  0  0  0  0  0  0  0  0
   32.9927   34.4975   47.1302 C   0  0  0  0  0  0  0  0  0  0  0  0
   33.0048   35.2397   47.9256 H   0  0  0  0  0  0  0  0  0  0  0  0
   32.9334   34.8283   45.8068 C   0  0  0  0  0  0  0  0  0  0  0  0
   32.9179   33.8913   44.7963 C   0  0  0  0  0  0  0  0  0  0  0  0
   32.8961   35.8846   45.5194 H   0  0  0  0  0  0  0  0  0  0  0  0
   32.8710   34.2048   43.7830 H   0  0  0  0  0  0  0  0  0  0  0  0
  1  2  2  0
  2  7  1  0
  2  3  1  0
  4  3  2  0
  5  4  1  0
  6  1  1  0
  6  5  2  0
  8  1  1  0
  9 10  2  0
 10 11  1  1
 10  8  1  0
 12 10  1  0
  3 13  1  0
  5 14  1  0
  7 15  1  0
  7 16  1  0
 11 17  1  0
 18 19  3  0
 19 20  1  0
 20 21  2  0
 21 22  1  0
 22 23  1  0
 22 24  2  0
 24 25  1  0
 24 26  1  0
 26 27  2  0
 27 20  1  0
 26 28  1  0
 27 29  1  0
 12 21  1  0
M  ISO  5  13  14  14  14  17   3  23  15  25  16
M  END
>  <DihAtoms>  (1) 
9,11,20,19

>  <DihDeg>  (1) 
-179.99519595601677

$$$$
