
 OpenBabel03272507163D

 27 29  0  0  1  0  0  0  0  0999 V2000
   35.7060   30.4640   49.8510 C   0  0  1  0  0  0  0  0  0  0  0  0
   34.7660   29.5350   49.2610 C   0  0  2  0  0  0  0  0  0  0  0  0
   35.9820   28.9590   49.9560 C   0  0  0  0  0  0  0  0  0  0  0  0
   35.5850   30.9430   50.8610 H   0  0  0  0  0  0  0  0  0  0  0  0
   33.7700   29.4260   49.7380 H   0  0  0  0  0  0  0  0  0  0  0  0
   36.7750   28.5120   49.3570 H   0  0  0  0  0  0  0  0  0  0  0  0
   35.7400   28.4540   50.9110 H   0  0  0  0  0  0  0  0  0  0  0  0
   36.7340   31.1750   49.0150 C   0  0  0  0  0  0  0  0  0  0  0  0
   37.4370   32.2040   49.6450 C   0  0  0  0  0  0  0  0  0  0  0  0
   38.3690   32.8710   48.8370 C   0  0  0  0  0  0  0  0  0  0  0  0
   38.5470   32.5030   47.5200 N   0  0  0  0  0  0  0  0  0  0  0  0
   37.8300   31.4910   46.9670 C   0  0  0  0  0  0  0  0  0  0  0  0
   36.9160   30.8280   47.7350 N   0  0  0  0  0  0  0  0  0  0  0  0
   37.2910   32.4860   50.6770 H   0  0  0  0  0  0  0  0  0  0  0  0
   38.9340   33.6730   49.2840 H   0  0  0  0  0  0  0  0  0  0  0  0
   38.0290   31.2650   45.9280 H   0  0  0  0  0  0  0  0  0  0  0  0
   34.7480   29.3750   47.8670 O   0  0  0  0  0  0  0  0  0  0  0  0
   33.0370   28.3110   46.6750 C   0  0  0  0  0  0  0  0  0  0  0  0
   33.6690   29.4990   47.0380 C   0  0  0  0  0  0  0  0  0  0  0  0
   33.1320   30.6580   46.5170 C   0  0  0  0  0  0  0  0  0  0  0  0
   33.6240   31.5700   46.8010 H   0  0  0  0  0  0  0  0  0  0  0  0
   32.0380   30.6420   45.6890 C   0  0  0  0  0  0  0  0  0  0  0  0
   31.6960   31.6050   45.3370 H   0  0  0  0  0  0  0  0  0  0  0  0
   31.3990   29.4800   45.3200 C   0  0  0  0  0  3  0  0  0  0  0  0
   31.9370   28.3110   45.8420 C   0  0  0  0  0  3  0  0  0  0  0  0
   33.8440   25.9890   47.5280 N   0  0  0  0  0  0  0  0  0  0  0  0
   33.4820   27.0290   47.1370 C   0  0  0  0  0  0  0  0  0  0  0  0
  1  3  1  0  0  0  0
  1  4  1  1  0  0  0
  2  5  1  1  0  0  0
  2  1  1  0  0  0  0
  2  3  1  0  0  0  0
  3  7  1  0  0  0  0
  6  3  1  0  0  0  0
  8  9  1  0  0  0  0
  8  1  1  0  0  0  0
  9 14  1  0  0  0  0
 10 15  1  0  0  0  0
 10  9  2  0  0  0  0
 11 10  1  0  0  0  0
 12 11  2  0  0  0  0
 12 13  1  0  0  0  0
 13  8  2  0  0  0  0
 16 12  1  0  0  0  0
 17  2  1  0  0  0  0
 18 19  1  0  0  0  0
 18 27  1  0  0  0  0
 19 17  1  0  0  0  0
 20 21  1  0  0  0  0
 20 19  2  0  0  0  0
 22 20  1  0  0  0  0
 23 22  1  0  0  0  0
 24 22  2  0  0  0  0
 24 25  1  0  0  0  0
 25 18  2  0  0  0  0
 27 26  3  0  0  0  0
M  END
>  <minimizedAffinity>
-4.49767208

>  <minimizedRMSD>
3.51097226

$$$$
