
 OpenBabel03272508513D

 30 32  0  0  1  0  0  0  0  0999 V2000
   38.2280   30.7860   47.1320 C   0  0  2  0  0  0  0  0  0  0  0  0
   39.1450   31.9150   47.2600 C   0  0  0  0  0  0  0  0  0  0  0  0
   38.2790   31.7250   46.0090 C   0  0  1  0  0  0  0  0  0  0  0  0
   38.6220   29.7550   46.8640 H   0  0  0  0  0  0  0  0  0  0  0  0
   38.9490   32.7680   47.9250 H   0  0  0  0  0  0  0  0  0  0  0  0
   40.2290   31.7470   47.0890 H   0  0  0  0  0  0  0  0  0  0  0  0
   37.6910   32.6430   45.8500 H   0  0  0  0  0  0  0  0  0  0  0  0
   34.6660   30.2690   48.0100 C   0  0  0  0  0  0  0  0  0  0  0  0
   34.6830   30.4180   49.4200 C   0  0  0  0  0  0  0  0  0  0  0  0
   35.9500   30.6980   50.0420 C   0  0  0  0  0  0  0  0  0  0  0  0
   37.0410   30.8030   49.2440 N   0  0  0  0  0  0  0  0  0  0  0  0
   36.9650   30.6520   47.9150 C   0  0  0  0  0  0  0  0  0  0  0  0
   35.7980   30.3850   47.2670 N   0  0  0  0  0  0  0  0  0  0  0  0
   33.6810   30.0680   47.6080 H   0  0  0  0  0  0  0  0  0  0  0  0
   33.7850   30.3270   50.0090 H   0  0  0  0  0  0  0  0  0  0  0  0
   35.9820   30.8090   51.1130 H   0  0  0  0  0  0  0  0  0  0  0  0
   39.5870   32.2850   43.9810 C   0  0  0  0  0  0  0  0  0  0  0  0
   39.5730   33.5050   44.3790 O   0  0  0  0  0  0  0  0  0  0  0  0
   39.0330   31.2970   44.8230 N   0  0  0  0  0  0  0  0  0  0  0  0
   39.0580   30.2290   44.7650 H   0  0  0  0  0  0  0  0  0  0  0  0
   39.6560   31.7910   41.5320 C   0  0  0  0  0  0  0  0  0  0  0  0
   40.0380   31.4700   42.8170 C   0  0  0  0  0  0  0  0  0  0  0  0
   40.8110   30.3790   43.1770 C   0  0  0  0  0  0  0  0  0  0  0  0
   41.0990   30.1420   44.1880 H   0  0  0  0  0  0  0  0  0  0  0  0
   41.2370   29.5370   42.1650 C   0  0  0  0  0  0  0  0  0  0  0  0
   41.8520   28.6390   42.3240 H   0  0  0  0  0  0  0  0  0  0  0  0
   40.8540   29.8600   40.8820 C   0  0  0  0  0  3  0  0  0  0  0  0
   40.0880   30.9410   40.5180 C   0  0  0  0  0  3  0  0  0  0  0  0
   38.2250   33.9110   41.1930 N   0  0  0  0  0  0  0  0  0  0  0  0
   38.8600   32.9580   41.3500 C   0  0  0  0  0  0  0  0  0  0  0  0
  1  4  1  6  0  0  0
  1  2  1  0  0  0  0
  1 12  1  0  0  0  0
  2  5  1  0  0  0  0
  3  7  1  6  0  0  0
  3  1  1  0  0  0  0
  3  2  1  0  0  0  0
  6  2  1  0  0  0  0
  8  9  1  0  0  0  0
  9 15  1  0  0  0  0
  9 10  2  0  0  0  0
 10 16  1  0  0  0  0
 11 10  1  0  0  0  0
 12 11  2  0  0  0  0
 13 12  1  0  0  0  0
 13  8  2  0  0  0  0
 14  8  1  0  0  0  0
 17 18  2  0  0  0  0
 17 19  1  0  0  0  0
 19  3  1  0  0  0  0
 20 19  1  0  0  0  0
 21 22  1  0  0  0  0
 22 23  2  0  0  0  0
 22 17  1  0  0  0  0
 23 24  1  0  0  0  0
 25 26  1  0  0  0  0
 25 23  1  0  0  0  0
 27 25  2  0  0  0  0
 28 27  1  0  0  0  0
 28 21  2  0  0  0  0
 29 30  3  0  0  0  0
 30 21  1  0  0  0  0
M  END
>  <minimizedAffinity>
-5.06496525

>  <minimizedRMSD>
8.38075542

$$$$
