
     RDKit          3D

 38 40  0  0  0  0  0  0  0  0999 V2000
   39.4868   31.7976   46.5284 C   0  0  0  0  0  0  0  0  0  0  0  0
   39.7908   30.6631   45.7855 C   0  0  0  0  0  0  0  0  0  0  0  0
   40.2159   30.8164   44.5120 C   0  0  0  0  0  0  0  0  0  0  0  0
   40.3330   32.0928   43.9952 C   0  0  0  0  0  0  0  0  0  0  0  0
   40.0233   33.2139   44.7571 C   0  0  0  0  0  0  0  0  0  0  0  0
   39.6030   33.0229   46.0219 N   0  0  0  0  0  0  0  0  0  0  0  0
   40.1710   34.5741   44.1438 C   0  0  0  0  0  0  0  0  0  0  0  0
   39.0342   31.8387   47.8577 O   0  0  0  0  0  0  0  0  0  0  0  0
   38.0958   30.3590   49.4189 C   0  0  0  0  0  0  0  0  0  0  0  0
   37.9790   31.0553   48.1995 C   0  0  0  0  0  0  0  0  0  0  0  0
   36.8079   30.8795   47.4624 C   0  0  0  0  0  0  0  0  0  0  0  0
   35.8763   30.0479   47.9879 N   0  0  0  0  0  0  0  0  0  0  0  0
   36.0271   29.4175   49.1328 C   0  0  0  0  0  0  0  0  0  0  0  0
   37.1631   29.5493   49.9087 N   0  0  0  0  0  0  0  0  0  0  0  0
   34.5390   28.4137   49.4624 S   0  0  0  0  0  0  0  0  0  0  0  0
   33.5448   29.4583   50.5949 C   0  0  0  0  0  0  0  0  0  0  0  0
   39.6397   29.7546   46.3606 H   0  0  0  0  0  0  0  0  0  0  0  0
   40.4374   29.9023   43.9734 H   0  0  0  0  0  0  0  0  0  0  0  0
   40.6812   32.1641   42.9555 H   0  0  0  0  0  0  0  0  0  0  0  0
   40.1249   34.4683   43.0416 H   0  0  0  0  0  0  0  0  0  0  0  0
   39.4078   35.2719   44.5296 H   0  0  0  0  0  0  0  0  0  0  0  0
   41.2103   34.9070   44.3942 H   0  0  0  0  0  0  0  0  0  0  0  0
   38.9733   30.4200   50.0872 H   0  0  0  0  0  0  0  0  0  0  0  0
   36.7387   31.4256   46.5248 H   0  0  0  0  0  0  0  0  0  0  0  0
   32.5960   28.9195   50.7642 H   0  0  0  0  0  0  0  0  0  0  0  0
   33.3128   30.4346   50.1591 H   0  0  0  0  0  0  0  0  0  0  0  0
   36.2744   27.4597   49.7830 N   0  0  0  0  0  0  0  0  0  0  0  0
   35.9412   28.0578   50.7025 C   0  0  0  0  0  0  0  0  0  0  0  0
   35.5081   28.8302   51.8493 C   0  0  0  0  0  0  0  0  0  0  0  0
   34.3209   29.5526   51.8597 C   0  0  0  0  0  0  0  0  0  0  0  0
   33.9967   30.2556   52.9981 C   0  0  0  0  0  0  0  0  0  0  0  0
   33.0604   30.7939   52.9368 H   0  0  0  0  0  0  0  0  0  0  0  0
   34.8426   30.2285   54.0870 C   0  0  0  0  0  0  0  0  0  0  0  0
   34.5085   30.8142   54.9476 H   0  0  0  0  0  0  0  0  0  0  0  0
   36.0185   29.5130   54.0784 C   0  0  0  0  0  0  0  0  0  0  0  0
   36.3802   28.7887   52.9407 C   0  0  0  0  0  0  0  0  0  0  0  0
   36.6411   29.5247   54.9594 H   0  0  0  0  0  0  0  0  0  0  0  0
   37.3049   28.2220   52.9198 H   0  0  0  0  0  0  0  0  0  0  0  0
  1  8  1  0
  2  1  2  0
  3  2  1  0
  4  3  2  0
  4  5  1  0
  5  6  2  0
  6  1  1  0
  7  5  1  0
  8 10  1  0
  9 14  2  0
 10  9  1  0
 11 12  1  0
 11 10  2  0
 12 13  2  0
 13 15  1  0
 13 14  1  0
 15 16  1  0
  2 17  1  0
  3 18  1  0
  4 19  1  0
  7 20  1  0
  7 21  1  0
  7 22  1  0
  9 23  1  0
 11 24  1  0
 16 25  1  0
 16 26  1  0
 27 28  3  0
 28 29  1  0
 29 30  2  0
 30 31  1  0
 31 32  1  0
 31 33  2  0
 33 34  1  0
 33 35  1  0
 35 36  2  0
 36 29  1  0
 35 37  1  0
 36 38  1  0
 16 30  1  0
M  ISO  8  17  14  18  14  19  14  20   8  21   8  22   8  23  14  24  14
M  ISO  4  25   8  26   8  32  15  34  16
M  END
>  <DihAtoms>  (1) 
14,15,29,28

>  <DihDeg>  (1) 
-76.58801240919281

$$$$
