REMARK  Name = 
REMARK  4 active torsions:
REMARK  status: ('A' for Active; 'I' for Inactive)
REMARK    1  A    between atoms: C_1  and  O_10
REMARK    2  A    between atoms: C_2  and  N_9
REMARK    3  A    between atoms: O_10  and  C_18
REMARK    4  A    between atoms: C_16  and  C_17
REMARK                            x       y       z     vdW  Elec       q    Type
REMARK                         _______ _______ _______ _____ _____    ______ ____
ROOT
ATOM      1  C   UNL     1      36.782  29.677  51.139  0.00  0.00    +0.000 A 
ATOM      2  C   UNL     1      37.289  30.063  49.891  0.00  0.00    +0.000 A 
ATOM      3  C   UNL     1      36.547  29.860  48.745  0.00  0.00    +0.000 A 
ATOM      4  N   UNL     1      35.320  29.277  48.888  0.00  0.00    +0.000 NA
ATOM      5  C   UNL     1      34.839  28.907  50.103  0.00  0.00    +0.000 A 
ATOM      6  N   UNL     1      35.570  29.112  51.191  0.00  0.00    +0.000 NA
ATOM      7  H   UNL     1      36.904  30.146  47.753  0.00  0.00    +0.000 HD
ATOM      8  H   UNL     1      33.860  28.448  50.163  0.00  0.00    +0.000 HD
ENDROOT
BRANCH   2  11
ATOM      9  C   UNL     1      38.636  32.059  49.493  0.00  0.00    +0.000 C 
ATOM     10  O   UNL     1      37.806  33.036  49.457  0.00  0.00    +0.000 OA
ATOM     11  N   UNL     1      38.545  30.668  49.685  0.00  0.00    +0.000 N 
ATOM     12  H   UNL     1      39.538  32.642  49.316  0.00  0.00    +0.000 HD
ATOM     13  H   UNL     1      39.471  30.178  49.657  0.00  0.00    +0.000 HD
ENDBRANCH   2  11
BRANCH   1  14
ATOM     14  O   UNL     1      37.660  29.960  52.152  0.00  0.00    +0.000 OA
BRANCH  14  16
ATOM     15  C   UNL     1      38.191  28.879  54.306  0.00  0.00    +0.000 A 
ATOM     16  C   UNL     1      37.432  29.692  53.488  0.00  0.00    +0.000 A 
ATOM     17  C   UNL     1      36.311  30.342  53.978  0.00  0.00    +0.000 A 
ATOM     18  H   UNL     1      35.661  31.002  53.390  0.00  0.00    +0.000 HD
ATOM     19  C   UNL     1      35.952  30.169  55.313  0.00  0.00    +0.000 A 
ATOM     20  H   UNL     1      35.078  30.669  55.715  0.00  0.00    +0.000 HD
ATOM     21  C   UNL     1      36.721  29.348  56.133  0.00  0.00    +0.000 A 
ATOM     22  C   UNL     1      37.836  28.712  55.613  0.00  0.00    +0.000 A 
BRANCH  15  24
ATOM     23  N   UNL     1      40.262  27.752  53.236  0.00  0.00    +0.000 NA
ATOM     24  C   UNL     1      39.330  28.252  53.707  0.00  0.00    +0.000 C 
ENDBRANCH  15  24
ENDBRANCH  14  16
ENDBRANCH   1  14
TORSDOF 4
