
 OpenBabel03272503053D

 33 35  0  0  0  0  0  0  0  0999 V2000
   37.9790   30.0730   47.3150 F   0  0  0  0  0  0  0  0  0  0  0  0
   38.3940   31.2940   47.7510 C   0  0  0  0  0  0  0  0  0  0  0  0
   37.9600   31.7670   48.9680 C   0  0  0  0  0  0  0  0  0  0  0  0
   38.4100   32.9940   49.3490 C   0  0  0  0  0  0  0  0  0  0  0  0
   39.2610   33.7590   48.5830 C   0  0  0  0  0  0  0  0  0  0  0  0
   39.6860   33.2660   47.3640 C   0  0  0  0  0  0  0  0  0  0  0  0
   39.2460   32.0170   46.9450 C   0  0  0  0  0  0  0  0  0  0  0  0
   38.0710   33.3850   50.3160 H   0  0  0  0  0  0  0  0  0  0  0  0
   39.5980   34.7330   48.9370 H   0  0  0  0  0  0  0  0  0  0  0  0
   40.3530   33.8200   46.7190 H   0  0  0  0  0  0  0  0  0  0  0  0
   36.5810   29.4700   51.6450 C   0  0  0  0  0  0  0  0  0  0  0  0
   37.4700   30.2800   50.9120 C   0  0  0  0  0  0  0  0  0  0  0  0
   37.0540   30.9150   49.7540 C   0  0  0  0  0  0  0  0  0  0  0  0
   35.7660   30.7240   49.3630 N   0  0  0  0  0  0  0  0  0  0  0  0
   34.9280   29.9470   50.0720 C   0  0  0  0  0  0  0  0  0  0  0  0
   35.3170   29.3300   51.1870 N   0  0  0  0  0  0  0  0  0  0  0  0
   37.0970   29.0690   52.5080 H   0  0  0  0  0  0  0  0  0  0  0  0
   38.5140   30.4760   51.1720 H   0  0  0  0  0  0  0  0  0  0  0  0
   33.9050   29.7560   49.8170 H   0  0  0  0  0  0  0  0  0  0  0  0
   38.7880   31.8040   44.5950 C   0  0  0  0  0  0  0  0  0  0  0  0
   37.7730   32.5290   44.9100 O   0  0  0  0  0  0  0  0  0  0  0  0
   39.6640   31.4730   45.6910 N   0  0  0  0  0  0  0  0  0  0  0  0
   40.4650   30.8910   45.4070 H   0  0  0  0  0  0  0  0  0  0  0  0
   37.9780   30.5070   42.7660 C   0  0  0  0  0  0  0  0  0  0  0  0
   38.9060   31.4250   43.1950 C   0  0  0  0  0  0  0  0  0  0  0  0
   39.8840   31.9610   42.3860 C   0  0  0  0  0  0  0  0  0  0  0  0
   40.5930   32.6740   42.7560 H   0  0  0  0  0  0  0  0  0  0  0  0
   39.8590   31.4860   41.0740 C   0  0  0  0  0  0  0  0  0  0  0  0
   40.6060   31.8720   40.3740 H   0  0  0  0  0  0  0  0  0  0  0  0
   38.9480   30.5730   40.6180 C   0  0  0  0  0  3  0  0  0  0  0  0
   37.9670   30.0490   41.4600 C   0  0  0  0  0  3  0  0  0  0  0  0
   36.1290   29.5200   44.3190 N   0  0  0  0  0  0  0  0  0  0  0  0
   36.9490   29.9460   43.6290 C   0  0  0  0  0  0  0  0  0  0  0  0
  1  2  1  0  0  0  0
  2  3  1  0  0  0  0
  3  4  2  0  0  0  0
  3 13  1  0  0  0  0
  4  8  1  0  0  0  0
  5  9  1  0  0  0  0
  5  4  1  0  0  0  0
  6  5  2  0  0  0  0
  7  6  1  0  0  0  0
  7  2  2  0  0  0  0
 10  6  1  0  0  0  0
 11 17  1  0  0  0  0
 12 18  1  0  0  0  0
 12 11  2  0  0  0  0
 13 12  1  0  0  0  0
 14 13  2  0  0  0  0
 14 15  1  0  0  0  0
 15 16  2  0  0  0  0
 16 11  1  0  0  0  0
 19 15  1  0  0  0  0
 20 21  2  0  0  0  0
 20 22  1  0  0  0  0
 22  7  1  0  0  0  0
 23 22  1  0  0  0  0
 24 25  1  0  0  0  0
 24 33  1  0  0  0  0
 25 20  1  0  0  0  0
 26 27  1  0  0  0  0
 26 25  2  0  0  0  0
 28 26  1  0  0  0  0
 29 28  1  0  0  0  0
 30 28  2  0  0  0  0
 30 31  1  0  0  0  0
 31 24  2  0  0  0  0
 33 32  3  0  0  0  0
M  END
>  <minimizedAffinity>
-6.1376462

>  <minimizedRMSD>
1.30097055

$$$$
