
     RDKit          3D

 35 37  0  0  0  0  0  0  0  0999 V2000
   35.6465   29.3271   49.8425 C   0  0  0  0  0  0  0  0  0  0  0  0
   35.7450   30.2827   48.8083 C   0  0  0  0  0  0  0  0  0  0  0  0
   34.9066   30.1622   47.6863 C   0  0  0  0  0  0  0  0  0  0  0  0
   34.0391   29.1216   47.6597 N   0  0  0  0  0  0  0  0  0  0  0  0
   33.9493   28.2276   48.6299 C   0  0  0  0  0  0  0  0  0  0  0  0
   34.7455   28.3299   49.7099 N   0  0  0  0  0  0  0  0  0  0  0  0
   37.6468   30.0556   51.3475 C   0  0  0  0  0  0  0  0  0  0  0  0
   38.2030   30.8360   50.5458 O   0  0  0  0  0  0  0  0  0  0  0  0
   36.4327   29.3652   51.0134 N   0  0  0  0  0  0  0  0  0  0  0  0
   36.7104   31.3321   48.9674 N   0  0  0  0  0  0  0  0  0  0  0  0
   36.5506   32.3347   49.8256 C   0  0  0  0  0  0  0  0  0  0  0  0
   37.5374   33.3178   49.9266 C   0  0  0  0  0  0  0  0  0  0  0  0
   38.6080   33.1466   49.1042 C   0  0  0  0  0  0  0  0  0  0  0  0
   39.4981   34.0486   49.2067 O   0  0  0  0  0  0  0  0  0  0  0  0
   38.8072   32.1624   48.2343 N   0  0  0  0  0  0  0  0  0  0  0  0
   37.8194   31.2390   48.1791 C   0  0  0  0  0  0  0  0  0  0  0  0
   37.9944   30.2839   47.3468 O   0  0  0  0  0  0  0  0  0  0  0  0
   35.0264   30.9162   46.9344 H   0  0  0  0  0  0  0  0  0  0  0  0
   33.2376   27.4018   48.5731 H   0  0  0  0  0  0  0  0  0  0  0  0
   38.1381   29.9379   52.2994 H   0  0  0  0  0  0  0  0  0  0  0  0
   36.1023   28.7860   51.8446 H   0  0  0  0  0  0  0  0  0  0  0  0
   35.6590   32.3876   50.4428 H   0  0  0  0  0  0  0  0  0  0  0  0
   37.4349   34.1316   50.6056 H   0  0  0  0  0  0  0  0  0  0  0  0
   38.2394   34.1976   45.3472 N   0  0  0  0  0  0  0  0  0  0  0  0
   39.0971   33.5261   45.7315 C   0  0  0  0  0  0  0  0  0  0  0  0
   40.1523   32.6799   46.1890 C   0  0  0  0  0  0  0  0  0  0  0  0
   39.9579   32.0477   47.4025 C   0  0  0  0  0  0  0  0  0  0  0  0
   40.9062   31.2047   47.9497 C   0  0  0  0  0  0  0  0  0  0  0  0
   40.8275   30.6786   48.8857 H   0  0  0  0  0  0  0  0  0  0  0  0
   42.1011   30.9783   47.2624 C   0  0  0  0  0  0  0  0  0  0  0  0
   42.8727   30.3236   47.6561 H   0  0  0  0  0  0  0  0  0  0  0  0
   42.3049   31.6155   46.0322 C   0  0  0  0  0  0  0  0  0  0  0  0
   41.3338   32.4612   45.5011 C   0  0  0  0  0  0  0  0  0  0  0  0
   43.2431   31.4396   45.4897 H   0  0  0  0  0  0  0  0  0  0  0  0
   41.4733   32.9651   44.5474 H   0  0  0  0  0  0  0  0  0  0  0  0
  1  9  1  0
  2 10  1  0
  2  1  2  0
  3  2  1  0
  4  3  2  0
  4  5  1  0
  5  6  2  0
  6  1  1  0
  8  7  2  0
  9  7  1  0
 10 11  1  0
 11 12  2  0
 13 14  2  0
 13 12  1  0
 15 13  1  0
 16 15  1  0
 16 10  1  0
 17 16  2  0
  3 18  1  0
  5 19  1  0
  7 20  1  0
  9 21  1  0
 11 22  1  0
 12 23  1  0
 24 25  3  0
 25 26  1  0
 26 27  2  0
 27 28  1  0
 28 29  1  0
 28 30  2  0
 30 31  1  0
 30 32  1  0
 32 33  2  0
 33 26  1  0
 32 34  1  0
 33 35  1  0
 15 27  1  0
M  ISO  7  18  14  19  14  20   6  22  14  23  14  29  15  31  16
M  END
>  <DihAtoms>  (1) 
12,14,26,25

>  <DihDeg>  (1) 
66.43560388538832

$$$$
