
 OpenBabel03272503043D

 33 35  0  0  0  0  0  0  0  0999 V2000
   37.8790   29.8390   47.7480 F   0  0  0  0  0  0  0  0  0  0  0  0
   38.1280   31.1140   48.1560 C   0  0  0  0  0  0  0  0  0  0  0  0
   37.4420   31.6330   49.2290 C   0  0  0  0  0  0  0  0  0  0  0  0
   37.7350   32.9130   49.5880 C   0  0  0  0  0  0  0  0  0  0  0  0
   38.6670   33.6870   48.9340 C   0  0  0  0  0  0  0  0  0  0  0  0
   39.3450   33.1470   47.8580 C   0  0  0  0  0  0  0  0  0  0  0  0
   39.0710   31.8440   47.4660 C   0  0  0  0  0  0  0  0  0  0  0  0
   37.1940   33.3400   50.4420 H   0  0  0  0  0  0  0  0  0  0  0  0
   38.8690   34.7050   49.2660 H   0  0  0  0  0  0  0  0  0  0  0  0
   40.0880   33.7060   47.3060 H   0  0  0  0  0  0  0  0  0  0  0  0
   35.8240   29.1910   51.6310 C   0  0  0  0  0  0  0  0  0  0  0  0
   36.7870   30.0100   51.0100 C   0  0  0  0  0  0  0  0  0  0  0  0
   36.4570   30.7690   49.8990 C   0  0  0  0  0  0  0  0  0  0  0  0
   35.1780   30.6890   49.4440 N   0  0  0  0  0  0  0  0  0  0  0  0
   34.2690   29.9020   50.0460 C   0  0  0  0  0  0  0  0  0  0  0  0
   34.5750   29.1670   51.1140 N   0  0  0  0  0  0  0  0  0  0  0  0
   36.2790   28.6850   52.4720 H   0  0  0  0  0  0  0  0  0  0  0  0
   37.8280   30.1200   51.3260 H   0  0  0  0  0  0  0  0  0  0  0  0
   33.2490   29.7950   49.7350 H   0  0  0  0  0  0  0  0  0  0  0  0
   38.9460   31.1490   45.1680 C   0  0  0  0  0  0  0  0  0  0  0  0
   37.7470   31.6010   45.2840 O   0  0  0  0  0  0  0  0  0  0  0  0
   39.7530   31.2500   46.3590 N   0  0  0  0  0  0  0  0  0  0  0  0
   40.7060   30.8800   46.2340 H   0  0  0  0  0  0  0  0  0  0  0  0
   39.7390   31.5390   42.9540 C   0  0  0  0  0  0  0  0  0  0  0  0
   39.3130   30.6060   43.8690 C   0  0  0  0  0  0  0  0  0  0  0  0
   39.2300   29.2570   43.6040 C   0  0  0  0  0  0  0  0  0  0  0  0
   38.8900   28.5580   44.3420 H   0  0  0  0  0  0  0  0  0  0  0  0
   39.6150   28.9080   42.3090 C   0  0  0  0  0  0  0  0  0  0  0  0
   39.5760   27.8500   42.0300 H   0  0  0  0  0  0  0  0  0  0  0  0
   40.0420   29.8130   41.3780 C   0  0  0  0  0  3  0  0  0  0  0  0
   40.1180   31.1730   41.6750 C   0  0  0  0  0  3  0  0  0  0  0  0
   39.8960   34.0880   43.4920 N   0  0  0  0  0  0  0  0  0  0  0  0
   39.8230   32.9630   43.2440 C   0  0  0  0  0  0  0  0  0  0  0  0
  1  2  1  0  0  0  0
  2  3  1  0  0  0  0
  3  4  2  0  0  0  0
  3 13  1  0  0  0  0
  4  8  1  0  0  0  0
  5  9  1  0  0  0  0
  5  4  1  0  0  0  0
  6  5  2  0  0  0  0
  7  6  1  0  0  0  0
  7  2  2  0  0  0  0
 10  6  1  0  0  0  0
 11 17  1  0  0  0  0
 12 18  1  0  0  0  0
 12 11  2  0  0  0  0
 13 12  1  0  0  0  0
 14 13  2  0  0  0  0
 14 15  1  0  0  0  0
 15 16  2  0  0  0  0
 16 11  1  0  0  0  0
 19 15  1  0  0  0  0
 20 21  2  0  0  0  0
 20 22  1  0  0  0  0
 22  7  1  0  0  0  0
 23 22  1  0  0  0  0
 24 33  1  0  0  0  0
 24 25  1  0  0  0  0
 25 20  1  0  0  0  0
 26 25  2  0  0  0  0
 26 27  1  0  0  0  0
 28 26  1  0  0  0  0
 29 28  1  0  0  0  0
 30 31  1  0  0  0  0
 30 28  2  0  0  0  0
 31 24  2  0  0  0  0
 33 32  3  0  0  0  0
M  END
>  <minimizedAffinity>
-5.88639069

>  <minimizedRMSD>
1.24011922

$$$$
