REMARK  Name = 
REMARK  5 active torsions:
REMARK  status: ('A' for Active; 'I' for Inactive)
REMARK    1  A    between atoms: C_1  and  C_7
REMARK    2  A    between atoms: C_2  and  C_10
REMARK    3  A    between atoms: C_10  and  C_11
REMARK    4  A    between atoms: C_11  and  C_26
REMARK    5  A    between atoms: C_24  and  C_25
REMARK                            x       y       z     vdW  Elec       q    Type
REMARK                         _______ _______ _______ _____ _____    ______ ____
ROOT
ATOM      1  C   UNL     1      37.143  31.223  48.599  0.00  0.00    +0.000 A 
ATOM      2  C   UNL     1      38.096  32.226  48.404  0.00  0.00    +0.000 A 
ATOM      3  C   UNL     1      38.461  32.401  47.093  0.00  0.00    +0.000 A 
ATOM      4  N   UNL     1      37.938  31.664  46.083  0.00  0.00    +0.000 NA
ATOM      5  C   UNL     1      37.019  30.703  46.307  0.00  0.00    +0.000 A 
ATOM      6  N   UNL     1      36.624  30.485  47.566  0.00  0.00    +0.000 NA
ATOM      7  H   UNL     1      39.184  33.091  46.712  0.00  0.00    +0.000 HD
ATOM      8  H   UNL     1      36.586  30.101  45.522  0.00  0.00    +0.000 HD
ENDROOT
BRANCH   1   9
ATOM      9  C   UNL     1      36.634  31.044  50.019  0.00  0.00    +0.000 C 
ATOM     10  C   UNL     1      35.892  29.904  50.406  0.00  0.00    +0.000 C 
ATOM     11  C   UNL     1      37.379  29.816  50.656  0.00  0.00    +0.000 C 
ATOM     12  H   UNL     1      36.800  31.926  50.718  0.00  0.00    +0.000 HD
ATOM     13  H   UNL     1      35.547  29.206  49.591  0.00  0.00    +0.000 HD
ATOM     14  H   UNL     1      35.187  29.923  51.252  0.00  0.00    +0.000 HD
ATOM     15  H   UNL     1      37.652  29.930  51.713  0.00  0.00    +0.000 HD
ATOM     16  H   UNL     1      38.017  29.209  50.032  0.00  0.00    +0.000 HD
ENDBRANCH   1   9
BRANCH   2  17
ATOM     17  C   UNL     1      38.693  32.999  49.470  0.00  0.00    +0.000 C 
ATOM     18  H   UNL     1      39.320  32.331  50.094  0.00  0.00    +0.000 HD
ATOM     19  H   UNL     1      37.811  33.374  50.087  0.00  0.00    +0.000 HD
BRANCH  17  20
ATOM     20  C   UNL     1      39.473  34.209  49.156  0.00  0.00    +0.000 C 
ATOM     21  H   UNL     1      40.319  33.953  48.447  0.00  0.00    +0.000 HD
ATOM     22  H   UNL     1      40.037  34.581  50.061  0.00  0.00    +0.000 HD
BRANCH  20  24
ATOM     23  C   UNL     1      37.417  35.379  48.871  0.00  0.00    +0.000 A 
ATOM     24  C   UNL     1      38.774  35.332  48.517  0.00  0.00    +0.000 A 
ATOM     25  C   UNL     1      39.139  36.351  47.668  0.00  0.00    +0.000 A 
ATOM     26  H   UNL     1      40.184  36.328  47.409  0.00  0.00    +0.000 HD
ATOM     27  C   UNL     1      38.326  37.340  47.174  0.00  0.00    +0.000 A 
ATOM     28  H   UNL     1      38.774  38.050  46.526  0.00  0.00    +0.000 HD
ATOM     29  C   UNL     1      36.999  37.358  47.539  0.00  0.00    +0.000 A 
ATOM     30  C   UNL     1      36.555  36.370  48.390  0.00  0.00    +0.000 A 
BRANCH  23  32
ATOM     31  N   UNL     1      36.239  33.708  50.494  0.00  0.00    +0.000 NA
ATOM     32  C   UNL     1      36.752  34.447  49.767  0.00  0.00    +0.000 C 
ENDBRANCH  23  32
ENDBRANCH  20  24
ENDBRANCH  17  20
ENDBRANCH   2  17
TORSDOF 5
