
 OpenBabel03272502593D

 35 37  0  0  1  0  0  0  0  0999 V2000
   35.9310   29.7600   48.7860 N   0  0  0  0  0  0  0  0  0  0  0  0
   36.7450   28.9100   49.6300 C   0  0  0  0  0  0  0  0  0  0  0  0
   37.1880   29.4530   50.9120 C   0  0  0  0  0  0  0  0  0  0  0  0
   37.3330   30.9100   51.0460 C   0  0  0  0  0  0  0  0  0  0  0  0
   36.5220   31.7070   50.0640 C   0  0  0  0  0  0  0  0  0  0  0  0
   36.5850   31.0500   48.6810 C   0  0  1  0  0  0  0  0  0  0  0  0
   36.2200   27.9350   49.7330 H   0  0  0  0  0  0  0  0  0  0  0  0
   37.6550   28.6790   49.0010 H   0  0  0  0  0  0  0  0  0  0  0  0
   36.4930   29.0690   51.7050 H   0  0  0  0  0  0  0  0  0  0  0  0
   38.1820   28.9950   51.1840 H   0  0  0  0  0  0  0  0  0  0  0  0
   36.9890   31.2370   52.0690 H   0  0  0  0  0  0  0  0  0  0  0  0
   38.4030   31.2550   51.0000 H   0  0  0  0  0  0  0  0  0  0  0  0
   35.4570   31.7040   50.3500 H   0  0  0  0  0  0  0  0  0  0  0  0
   36.9390   32.7280   49.9600 H   0  0  0  0  0  0  0  0  0  0  0  0
   36.0450   31.7390   48.0180 H   0  0  0  0  0  0  0  0  0  0  0  0
   34.7000   29.3780   48.1720 C   0  0  0  0  0  0  0  0  0  0  0  0
   34.1510   30.0040   47.0580 C   0  0  0  0  0  0  0  0  0  0  0  0
   32.9490   29.5470   46.5450 C   0  0  0  0  0  0  0  0  0  0  0  0
   32.3600   28.4940   47.1700 N   0  0  0  0  0  0  0  0  0  0  0  0
   32.9200   27.9090   48.2510 C   0  0  0  0  0  0  0  0  0  0  0  0
   34.0840   28.3560   48.7410 N   0  0  0  0  0  0  0  0  0  0  0  0
   34.6790   30.8220   46.6300 H   0  0  0  0  0  0  0  0  0  0  0  0
   32.5110   30.0290   45.6750 H   0  0  0  0  0  0  0  0  0  0  0  0
   32.3860   27.0600   48.7050 H   0  0  0  0  0  0  0  0  0  0  0  0
   37.9480   30.9040   48.4220 O   0  0  0  0  0  0  0  0  0  0  0  0
   39.2020   32.4740   47.2770 C   0  0  0  0  0  0  0  0  0  0  0  0
   38.5720   31.2400   47.2330 C   0  0  0  0  0  0  0  0  0  0  0  0
   38.6400   30.5300   46.0620 C   0  0  0  0  0  0  0  0  0  0  0  0
   38.1320   29.5770   46.0850 H   0  0  0  0  0  0  0  0  0  0  0  0
   39.3130   31.0290   44.9690 C   0  0  0  0  0  0  0  0  0  0  0  0
   39.3090   30.3940   44.0930 H   0  0  0  0  0  0  0  0  0  0  0  0
   39.9350   32.2390   45.0000 C   0  0  0  0  0  0  0  0  0  0  0  0
   39.8790   32.9700   46.1690 C   0  0  0  0  0  0  0  0  0  0  0  0
   39.2060   34.0000   49.3740 N   0  0  0  0  0  0  0  0  0  0  0  0
   39.2120   33.3290   48.4400 C   0  0  0  0  0  0  0  0  0  0  0  0
  1  2  1  0  0  0  0
  2  7  1  0  0  0  0
  2  3  1  0  0  0  0
  3  4  1  0  0  0  0
  3 10  1  0  0  0  0
  3  9  1  0  0  0  0
  4 11  1  0  0  0  0
  5 13  1  0  0  0  0
  5  4  1  0  0  0  0
  6 15  1  6  0  0  0
  6  1  1  0  0  0  0
  6  5  1  0  0  0  0
  8  2  1  0  0  0  0
 12  4  1  0  0  0  0
 14  5  1  0  0  0  0
 16 21  1  0  0  0  0
 16  1  1  0  0  0  0
 17 16  2  0  0  0  0
 18 17  1  0  0  0  0
 18 19  2  0  0  0  0
 19 20  1  0  0  0  0
 20 24  1  0  0  0  0
 20 21  2  0  0  0  0
 22 17  1  0  0  0  0
 23 18  1  0  0  0  0
 25  6  1  0  0  0  0
 26 35  1  0  0  0  0
 27 26  1  0  0  0  0
 27 25  1  0  0  0  0
 28 29  1  0  0  0  0
 28 27  2  0  0  0  0
 30 32  2  0  0  0  0
 30 28  1  0  0  0  0
 31 30  1  0  0  0  0
 32 33  1  0  0  0  0
 33 26  2  0  0  0  0
 35 34  3  0  0  0  0
M  END
>  <minimizedAffinity>
-6.15420628

>  <minimizedRMSD>
1.00266016

$$$$
