
 OpenBabel03272501583D

 32 34  0  0  0  0  0  0  0  0999 V2000
   32.8370   27.4370   48.1850 C   0  0  0  0  0  0  0  0  0  0  0  0
   32.2970   26.2570   47.7540 C   0  0  0  0  0  0  0  0  0  0  0  0
   30.9410   26.3870   47.5760 C   0  0  0  0  0  0  0  0  0  0  0  0
   30.6730   27.6650   47.9080 N   0  0  0  0  0  0  0  0  0  0  0  0
   31.8050   28.2830   48.2680 N   0  0  0  0  0  0  0  0  0  0  0  0
   32.8520   25.3270   47.5700 H   0  0  0  0  0  0  0  0  0  0  0  0
   30.1850   25.6860   47.2520 H   0  0  0  0  0  0  0  0  0  0  0  0
   28.5660   28.3750   48.9790 C   0  0  0  0  0  0  0  0  0  0  0  0
   29.4450   28.3960   47.9270 C   0  0  0  0  0  0  0  0  0  0  0  0
   29.0800   29.1890   46.8350 C   0  0  0  0  0  0  0  0  0  0  0  0
   29.7890   29.1920   46.0130 H   0  0  0  0  0  0  0  0  0  0  0  0
   27.9230   29.9340   46.7460 C   0  0  0  0  0  0  0  0  0  0  0  0
   27.7820   30.4970   45.8350 H   0  0  0  0  0  0  0  0  0  0  0  0
   27.0580   29.8880   47.8270 C   0  0  0  0  0  3  0  0  0  0  0  0
   27.3990   29.1040   48.9300 C   0  0  0  0  0  3  0  0  0  0  0  0
   29.0750   26.9760   51.0680 N   0  0  0  0  0  0  0  0  0  0  0  0
   28.8560   27.5980   50.1260 C   0  0  0  0  0  0  0  0  0  0  0  0
   34.2860   27.7200   48.4960 C   0  0  0  0  0  0  0  0  0  0  0  0
   34.6930   28.2960   47.6680 H   0  0  0  0  0  0  0  0  0  0  0  0
   34.8130   26.7520   48.6010 H   0  0  0  0  0  0  0  0  0  0  0  0
   34.2760   28.5170   49.7760 C   0  0  0  0  0  0  0  0  0  0  0  0
   34.1820   27.8390   50.6590 H   0  0  0  0  0  0  0  0  0  0  0  0
   33.4290   29.2300   49.8530 H   0  0  0  0  0  0  0  0  0  0  0  0
   37.2610   30.0750   51.2960 C   0  0  0  0  0  0  0  0  0  0  0  0
   38.0000   30.4740   50.1690 C   0  0  0  0  0  0  0  0  0  0  0  0
   37.4650   30.2040   48.9070 C   0  0  0  0  0  0  0  0  0  0  0  0
   36.2630   29.5720   48.8240 N   0  0  0  0  0  0  0  0  0  0  0  0
   35.5870   29.2060   49.9430 C   0  0  0  0  0  0  0  0  0  0  0  0
   36.0910   29.4600   51.1500 N   0  0  0  0  0  0  0  0  0  0  0  0
   37.7440   30.3220   52.2280 H   0  0  0  0  0  0  0  0  0  0  0  0
   38.9490   30.9740   50.1150 H   0  0  0  0  0  0  0  0  0  0  0  0
   37.9120   30.4480   47.9520 H   0  0  0  0  0  0  0  0  0  0  0  0
  1  5  2  0  0  0  0
  1 18  1  0  0  0  0
  2  1  1  0  0  0  0
  3  2  2  0  0  0  0
  3  4  1  0  0  0  0
  4  9  1  0  0  0  0
  4  5  1  0  0  0  0
  6  2  1  0  0  0  0
  7  3  1  0  0  0  0
  8 17  1  0  0  0  0
  9  8  2  0  0  0  0
 10  9  1  0  0  0  0
 11 10  1  0  0  0  0
 12 10  2  0  0  0  0
 12 14  1  0  0  0  0
 13 12  1  0  0  0  0
 14 15  2  0  0  0  0
 15  8  1  0  0  0  0
 17 16  3  0  0  0  0
 18 20  1  0  0  0  0
 18 21  1  0  0  0  0
 19 18  1  0  0  0  0
 21 23  1  0  0  0  0
 21 28  1  0  0  0  0
 21 22  1  0  0  0  0
 24 30  1  0  0  0  0
 25 24  2  0  0  0  0
 26 25  1  0  0  0  0
 27 26  2  0  0  0  0
 27 28  1  0  0  0  0
 28 29  2  0  0  0  0
 29 24  1  0  0  0  0
 31 25  1  0  0  0  0
 32 26  1  0  0  0  0
M  END
>  <minimizedAffinity>
-5.44366741

>  <minimizedRMSD>
2.00889087

$$$$
