
     RDKit          3D

 31 33  0  0  0  0  0  0  0  0999 V2000
   37.3613   31.3707   49.2085 C   0  0  0  0  0  0  0  0  0  0  0  0
   37.7072   32.6628   49.6054 C   0  0  0  0  0  0  0  0  0  0  0  0
   38.5850   33.3189   48.7826 C   0  0  0  0  0  0  0  0  0  0  0  0
   39.0756   32.7155   47.6436 N   0  0  0  0  0  0  0  0  0  0  0  0
   38.6990   31.4377   47.3005 C   0  0  0  0  0  0  0  0  0  0  0  0
   37.8314   30.7813   48.1106 N   0  0  0  0  0  0  0  0  0  0  0  0
   36.3731   30.6042   50.0521 C   0  0  0  0  0  0  0  0  0  0  0  0
   36.2805   29.1665   50.0496 C   0  0  0  0  0  0  0  0  0  0  0  0
   37.0596   29.8184   51.1747 C   0  0  0  0  0  0  0  0  0  0  0  0
   39.1942   30.7959   46.0964 C   0  0  0  0  0  0  0  0  0  0  0  0
   37.2942   33.0914   50.5070 H   0  0  0  0  0  0  0  0  0  0  0  0
   38.9059   34.3257   49.0184 H   0  0  0  0  0  0  0  0  0  0  0  0
   35.4931   31.2161   50.3605 H   0  0  0  0  0  0  0  0  0  0  0  0
   36.9771   28.6201   49.3437 H   0  0  0  0  0  0  0  0  0  0  0  0
   35.3369   28.6779   50.3080 H   0  0  0  0  0  0  0  0  0  0  0  0
   38.1507   29.7828   51.2013 H   0  0  0  0  0  0  0  0  0  0  0  0
   36.5750   29.9318   52.1462 H   0  0  0  0  0  0  0  0  0  0  0  0
   39.2785   29.7067   46.2523 H   0  0  0  0  0  0  0  0  0  0  0  0
   40.2255   31.1921   45.8726 H   0  0  0  0  0  0  0  0  0  0  0  0
   39.0423   34.4216   45.7184 N   0  0  0  0  0  0  0  0  0  0  0  0
   38.6153   33.5046   45.1585 C   0  0  0  0  0  0  0  0  0  0  0  0
   38.0926   32.3453   44.4678 C   0  0  0  0  0  0  0  0  0  0  0  0
   38.3389   31.0596   44.8895 C   0  0  0  0  0  0  0  0  0  0  0  0
   37.7886   29.9934   44.1711 C   0  0  0  0  0  0  0  0  0  0  0  0
   37.9585   28.9642   44.4707 H   0  0  0  0  0  0  0  0  0  0  0  0
   37.0152   30.2573   43.0608 C   0  0  0  0  0  0  0  0  0  0  0  0
   36.5489   29.4776   42.4448 H   0  0  0  0  0  0  0  0  0  0  0  0
   36.7676   31.5416   42.6371 C   0  0  0  0  0  0  0  0  0  0  0  0
   37.3057   32.6024   43.3387 C   0  0  0  0  0  0  0  0  0  0  0  0
   36.1675   31.8464   41.7693 H   0  0  0  0  0  0  0  0  0  0  0  0
   37.1297   33.6447   43.0292 H   0  0  0  0  0  0  0  0  0  0  0  0
  1  2  2  0
  1  7  1  0
  3  2  1  0
  4  3  2  0
  5  4  1  0
  5  6  2  0
  6  1  1  0
  7  9  1  0
  8  7  1  0
  8  9  1  0
 10  5  1  0
  2 11  1  0
  3 12  1  0
  7 13  1  0
  8 14  1  0
  8 15  1  0
  9 16  1  0
  9 17  1  0
 10 18  1  0
 10 19  1  0
 20 21  3  0
 21 22  1  0
 22 23  2  0
 23 24  1  0
 24 25  1  0
 24 26  2  0
 26 27  1  0
 26 28  1  0
 28 29  2  0
 29 22  1  0
 28 30  1  0
 29 31  1  0
 10 23  1  0
M  ISO  8  11  14  12  14  13  13  14  13  15  13  16  13  17  13  18   8
M  ISO  3  19   8  25  15  27  16
M  END
>  <DihAtoms>  (1) 
4,9,22,21

>  <DihDeg>  (1) 
-77.34191709357312

$$$$
