REMARK  Name = 
REMARK  4 active torsions:
REMARK  status: ('A' for Active; 'I' for Inactive)
REMARK    1  A    between atoms: C_1  and  N_9
REMARK    2  A    between atoms: C_2  and  N_10
REMARK    3  A    between atoms: N_15  and  C_27
REMARK    4  A    between atoms: C_25  and  C_26
REMARK                            x       y       z     vdW  Elec       q    Type
REMARK                         _______ _______ _______ _____ _____    ______ ____
ROOT
ATOM      1  N   UNL     1      36.710  31.332  48.967  0.00  0.00    +0.000 N 
ATOM      2  C   UNL     1      36.551  32.335  49.826  0.00  0.00    +0.000 A 
ATOM      3  C   UNL     1      37.537  33.318  49.927  0.00  0.00    +0.000 A 
ATOM      4  C   UNL     1      38.608  33.147  49.104  0.00  0.00    +0.000 A 
ATOM      5  O   UNL     1      39.498  34.049  49.207  0.00  0.00    +0.000 OA
ATOM      6  N   UNL     1      38.807  32.162  48.234  0.00  0.00    +0.000 N 
ATOM      7  C   UNL     1      37.819  31.239  48.179  0.00  0.00    +0.000 A 
ATOM      8  O   UNL     1      37.994  30.284  47.347  0.00  0.00    +0.000 OA
ATOM      9  H   UNL     1      35.659  32.388  50.443  0.00  0.00    +0.000 HD
ATOM     10  H   UNL     1      37.435  34.132  50.606  0.00  0.00    +0.000 HD
ENDROOT
BRANCH   1  12
ATOM     11  C   UNL     1      35.647  29.327  49.843  0.00  0.00    +0.000 A 
ATOM     12  C   UNL     1      35.745  30.283  48.808  0.00  0.00    +0.000 A 
ATOM     13  C   UNL     1      34.907  30.162  47.686  0.00  0.00    +0.000 A 
ATOM     14  N   UNL     1      34.039  29.122  47.660  0.00  0.00    +0.000 NA
ATOM     15  C   UNL     1      33.949  28.228  48.630  0.00  0.00    +0.000 A 
ATOM     16  N   UNL     1      34.745  28.330  49.710  0.00  0.00    +0.000 NA
ATOM     17  H   UNL     1      35.026  30.916  46.934  0.00  0.00    +0.000 HD
ATOM     18  H   UNL     1      33.238  27.402  48.573  0.00  0.00    +0.000 HD
BRANCH  11  21
ATOM     19  C   UNL     1      37.647  30.056  51.347  0.00  0.00    +0.000 C 
ATOM     20  O   UNL     1      38.203  30.836  50.546  0.00  0.00    +0.000 OA
ATOM     21  N   UNL     1      36.433  29.365  51.013  0.00  0.00    +0.000 N 
ATOM     22  H   UNL     1      38.138  29.938  52.299  0.00  0.00    +0.000 HD
ATOM     23  H   UNL     1      36.102  28.786  51.845  0.00  0.00    +0.000 HD
ENDBRANCH  11  21
ENDBRANCH   1  12
BRANCH   6  25
ATOM     24  C   UNL     1      40.448  33.020  46.551  0.00  0.00    +0.000 A 
ATOM     25  C   UNL     1      39.958  32.048  47.403  0.00  0.00    +0.000 A 
ATOM     26  C   UNL     1      40.567  30.814  47.534  0.00  0.00    +0.000 A 
ATOM     27  H   UNL     1      40.246  30.010  48.173  0.00  0.00    +0.000 HD
ATOM     28  C   UNL     1      41.713  30.532  46.787  0.00  0.00    +0.000 A 
ATOM     29  H   UNL     1      42.222  29.576  46.860  0.00  0.00    +0.000 HD
ATOM     30  C   UNL     1      42.215  31.512  45.922  0.00  0.00    +0.000 A 
ATOM     31  C   UNL     1      41.584  32.748  45.807  0.00  0.00    +0.000 A 
BRANCH  24  33
ATOM     32  N   UNL     1      39.141  35.245  46.450  0.00  0.00    +0.000 NA
ATOM     33  C   UNL     1      39.729  34.252  46.505  0.00  0.00    +0.000 C 
ENDBRANCH  24  33
ENDBRANCH   6  25
TORSDOF 4
