
 OpenBabel03272507373D

 24 25  0  0  0  0  0  0  0  0999 V2000
   36.8850   30.3680   47.3900 C   0  0  0  0  0  0  0  0  0  0  0  0
   36.0670   30.1140   46.2810 C   0  0  0  0  0  0  0  0  0  0  0  0
   34.6930   30.1490   46.4080 C   0  0  0  0  0  0  0  0  0  0  0  0
   34.1840   30.4380   47.6420 N   0  0  0  0  0  0  0  0  0  0  0  0
   34.9880   30.6830   48.7100 C   0  0  0  0  0  0  0  0  0  0  0  0
   36.3060   30.6440   48.5640 N   0  0  0  0  0  0  0  0  0  0  0  0
   34.0180   29.9570   45.5700 H   0  0  0  0  0  0  0  0  0  0  0  0
   34.5350   30.9070   49.6680 H   0  0  0  0  0  0  0  0  0  0  0  0
   36.0140   30.4910   43.8710 C   0  0  0  0  0  0  0  0  0  0  0  0
   35.1410   31.4120   43.6830 O   0  0  0  0  0  0  0  0  0  0  0  0
   36.5360   29.8120   44.9870 N   0  0  0  0  0  0  0  0  0  0  0  0
   36.2820   30.3440   42.8260 H   0  0  0  0  0  0  0  0  0  0  0  0
   37.2680   29.1030   44.7440 H   0  0  0  0  0  0  0  0  0  0  0  0
   38.2140   30.2890   47.0670 O   0  0  0  0  0  0  0  0  0  0  0  0
   39.2420   32.5320   46.9720 C   0  0  0  0  0  0  0  0  0  0  0  0
   38.9340   31.2920   46.4470 C   0  0  0  0  0  0  0  0  0  0  0  0
   39.3510   30.9400   45.1730 C   0  0  0  0  0  0  0  0  0  0  0  0
   39.1450   29.9760   44.6900 H   0  0  0  0  0  0  0  0  0  0  0  0
   40.0890   31.8510   44.4220 C   0  0  0  0  0  0  0  0  0  0  0  0
   40.4250   31.5940   43.4230 H   0  0  0  0  0  0  0  0  0  0  0  0
   40.3970   33.0980   44.9570 C   0  0  0  0  0  3  0  0  0  0  0  0
   39.9650   33.4200   46.2320 C   0  0  0  0  0  3  0  0  0  0  0  0
   38.3990   33.0260   49.3700 N   0  0  0  0  0  0  0  0  0  0  0  0
   38.7660   32.8010   48.2960 C   0  0  0  0  0  0  0  0  0  0  0  0
  1  6  1  0  0  0  0
  2  3  1  0  0  0  0
  2  1  2  0  0  0  0
  3  4  2  0  0  0  0
  4  5  1  0  0  0  0
  5  8  1  0  0  0  0
  6  5  2  0  0  0  0
  7  3  1  0  0  0  0
  9 11  1  0  0  0  0
 10  9  2  0  0  0  0
 11  2  1  0  0  0  0
 12  9  1  0  0  0  0
 13 11  1  0  0  0  0
 14  1  1  0  0  0  0
 15 24  1  0  0  0  0
 16 15  1  0  0  0  0
 16 14  1  0  0  0  0
 17 16  2  0  0  0  0
 18 17  1  0  0  0  0
 19 21  2  0  0  0  0
 19 17  1  0  0  0  0
 20 19  1  0  0  0  0
 21 22  1  0  0  0  0
 22 15  2  0  0  0  0
 24 23  3  0  0  0  0
M  END
>  <minimizedAffinity>
-4.17851925

>  <minimizedRMSD>
7.06502056

$$$$
