
 OpenBabel03272506393D

 38 40  0  0  1  0  0  0  0  0999 V2000
   34.7480   29.2370   50.0930 O   0  0  0  0  0  0  0  0  0  0  0  0
   34.4930   29.3660   48.8750 C   0  0  0  0  0  0  0  0  0  0  0  0
   35.2410   30.2890   48.0540 C   0  0  2  0  0  0  0  0  0  0  0  0
   34.6990   29.9250   46.6350 C   0  0  0  0  0  0  0  0  0  0  0  0
   33.3230   29.4060   46.9220 C   0  0  0  0  0  0  0  0  0  0  0  0
   33.4680   28.6440   48.1520 N   0  0  0  0  0  0  0  0  0  0  0  0
   35.0310   31.3350   48.2530 H   0  0  0  0  0  0  0  0  0  0  0  0
   35.3670   29.1960   46.1440 H   0  0  0  0  0  0  0  0  0  0  0  0
   34.6230   30.8970   46.1110 H   0  0  0  0  0  0  0  0  0  0  0  0
   33.0740   28.6610   46.1330 H   0  0  0  0  0  0  0  0  0  0  0  0
   32.5480   30.1620   46.9260 H   0  0  0  0  0  0  0  0  0  0  0  0
   32.7840   27.4350   48.5770 C   0  0  0  0  0  0  0  0  0  0  0  0
   32.2820   27.6830   49.5410 H   0  0  0  0  0  0  0  0  0  0  0  0
   33.6020   26.6750   48.7670 H   0  0  0  0  0  0  0  0  0  0  0  0
   30.5700   27.0380   47.9140 C   0  0  0  0  0  0  0  0  0  0  0  0
   31.8930   26.9040   47.5460 C   0  0  0  0  0  0  0  0  0  0  0  0
   32.2150   26.3300   46.3460 C   0  0  0  0  0  0  0  0  0  0  0  0
   33.2650   26.2550   46.1130 H   0  0  0  0  0  0  0  0  0  0  0  0
   31.2440   25.8770   45.4890 C   0  0  0  0  0  0  0  0  0  0  0  0
   31.5620   25.4420   44.5720 H   0  0  0  0  0  0  0  0  0  0  0  0
   29.9140   25.9950   45.8280 C   0  0  0  0  0  3  0  0  0  0  0  0
   29.5760   26.5770   47.0420 C   0  0  0  0  0  3  0  0  0  0  0  0
   29.7090   28.0830   50.1320 N   0  0  0  0  0  0  0  0  0  0  0  0
   30.0820   27.6280   49.1460 C   0  0  0  0  0  0  0  0  0  0  0  0
   36.6480   30.0440   48.0000 O   0  0  0  0  0  0  0  0  0  0  0  0
   37.4980   31.1410   48.1200 C   0  0  0  0  0  0  0  0  0  0  0  0
   37.6440   31.6890   49.3780 C   0  0  0  0  0  0  0  0  0  0  0  0
   38.4770   32.7770   49.5430 C   0  0  0  0  0  0  0  0  0  0  0  0
   39.1230   33.2670   48.4520 N   0  0  0  0  0  0  0  0  0  0  0  0
   38.9720   32.7220   47.2220 C   0  0  0  0  0  0  0  0  0  0  0  0
   38.1710   31.6810   47.0860 N   0  0  0  0  0  0  0  0  0  0  0  0
   40.5240   32.3120   45.4710 C   0  0  0  0  0  0  0  0  0  0  0  0
   40.7240   31.1190   45.7950 O   0  0  0  0  0  0  0  0  0  0  0  0
   39.6650   33.2640   46.0940 N   0  0  0  0  0  0  0  0  0  0  0  0
   37.1130   31.2740   50.2330 H   0  0  0  0  0  0  0  0  0  0  0  0
   38.6000   33.2150   50.5150 H   0  0  0  0  0  0  0  0  0  0  0  0
   41.1810   32.3770   44.6160 H   0  0  0  0  0  0  0  0  0  0  0  0
   39.6850   34.1730   45.6300 H   0  0  0  0  0  0  0  0  0  0  0  0
  2  1  2  0  0  0  0
  3  7  1  1  0  0  0
  3  2  1  0  0  0  0
  4  5  1  0  0  0  0
  4  3  1  0  0  0  0
  5 11  1  0  0  0  0
  5  6  1  0  0  0  0
  6 12  1  0  0  0  0
  6  2  1  0  0  0  0
  8  4  1  0  0  0  0
  9  4  1  0  0  0  0
 10  5  1  0  0  0  0
 12 14  1  0  0  0  0
 12 13  1  0  0  0  0
 15 24  1  0  0  0  0
 16 15  1  0  0  0  0
 16 12  1  0  0  0  0
 17 16  2  0  0  0  0
 18 17  1  0  0  0  0
 19 21  2  0  0  0  0
 19 17  1  0  0  0  0
 20 19  1  0  0  0  0
 21 22  1  0  0  0  0
 22 15  2  0  0  0  0
 24 23  3  0  0  0  0
 25  3  1  0  0  0  0
 25 26  1  0  0  0  0
 26 27  1  0  0  0  0
 27 28  2  0  0  0  0
 27 35  1  0  0  0  0
 28 36  1  0  0  0  0
 29 28  1  0  0  0  0
 30 29  2  0  0  0  0
 31 30  1  0  0  0  0
 31 26  2  0  0  0  0
 32 33  2  0  0  0  0
 32 34  1  0  0  0  0
 34 30  1  0  0  0  0
 37 32  1  0  0  0  0
 38 34  1  0  0  0  0
M  END
>  <minimizedAffinity>
-5.84333658

>  <minimizedRMSD>
2.17008901

$$$$
