
 OpenBabel03272504183D

 27 28  0  0  0  0  0  0  0  0999 V2000
   32.4430   30.9850   46.0800 O   0  0  0  0  0  0  0  0  0  0  0  0
   32.6530   29.9630   44.9820 P   0  0  1  0  0  0  0  0  0  0  0  0
   34.2350   29.3510   45.0290 O   0  0  0  0  0  0  0  0  0  0  0  0
   34.6910   29.6240   44.1890 H   0  0  0  0  0  0  0  0  0  0  0  0
   31.6150   28.6100   45.1520 O   0  0  0  0  0  0  0  0  0  0  0  0
   31.3240   28.0470   46.3920 C   0  0  0  0  0  0  0  0  0  0  0  0
   32.0860   27.0790   47.0420 C   0  0  0  0  0  0  0  0  0  0  0  0
   31.6420   26.6290   48.2840 C   0  0  0  0  0  0  0  0  0  0  0  0
   30.4980   27.1430   48.8070 N   0  0  0  0  0  0  0  0  0  0  0  0
   29.7870   28.0830   48.1430 C   0  0  0  0  0  0  0  0  0  0  0  0
   30.2000   28.5400   46.9290 N   0  0  0  0  0  0  0  0  0  0  0  0
   32.2640   25.8770   48.7510 H   0  0  0  0  0  0  0  0  0  0  0  0
   28.8800   28.4560   48.6130 H   0  0  0  0  0  0  0  0  0  0  0  0
   33.2440   26.6600   46.3500 N   0  0  0  0  0  0  0  0  0  0  0  0
   33.2420   26.2880   45.3700 H   0  0  0  0  0  0  0  0  0  0  0  0
   34.2450   26.6520   46.6900 H   0  0  0  0  0  0  0  0  0  0  0  0
   32.3490   30.7480   43.5210 O   0  0  0  0  0  0  0  0  0  0  0  0
   32.0880   33.0610   43.3180 C   0  0  0  0  0  0  0  0  0  0  0  0
   32.9530   31.9650   43.2310 C   0  0  0  0  0  0  0  0  0  0  0  0
   34.2750   32.1940   42.8800 C   0  0  0  0  0  0  0  0  0  0  0  0
   34.8870   31.3040   42.8320 H   0  0  0  0  0  0  0  0  0  0  0  0
   34.7030   33.4760   42.6260 C   0  0  0  0  0  0  0  0  0  0  0  0
   35.7490   33.6050   42.3530 H   0  0  0  0  0  0  0  0  0  0  0  0
   33.8260   34.5180   42.7220 C   0  0  0  0  0  3  0  0  0  0  0  0
   32.5010   34.3580   43.0660 C   0  0  0  0  0  3  0  0  0  0  0  0
   29.5800   32.7790   43.9630 N   0  0  0  0  0  0  0  0  0  0  0  0
   30.6920   32.9130   43.6780 C   0  0  0  0  0  0  0  0  0  0  0  0
  2  3  1  0  0  0  0
  2  5  1  0  0  0  0
  2  1  2  1  0  0  0
  4  3  1  0  0  0  0
  5  6  1  0  0  0  0
  6 11  2  0  0  0  0
  6  7  1  0  0  0  0
  7  8  2  0  0  0  0
  8 12  1  0  0  0  0
  8  9  1  0  0  0  0
 10 13  1  0  0  0  0
 10  9  2  0  0  0  0
 11 10  1  0  0  0  0
 14 16  1  0  0  0  0
 14  7  1  0  0  0  0
 15 14  1  0  0  0  0
 17  2  1  0  0  0  0
 18 27  1  0  0  0  0
 19 18  1  0  0  0  0
 19 17  1  0  0  0  0
 20 19  2  0  0  0  0
 21 20  1  0  0  0  0
 22 24  2  0  0  0  0
 22 20  1  0  0  0  0
 23 22  1  0  0  0  0
 24 25  1  0  0  0  0
 25 18  2  0  0  0  0
 27 26  3  0  0  0  0
M  END
>  <minimizedAffinity>
-2.80196404

>  <minimizedRMSD>
5.27087927

$$$$
