
     RDKit          3D

 26 27  0  0  0  0  0  0  0  0999 V2000
   35.6219   29.0107   50.1712 C   0  0  0  0  0  0  0  0  0  0  0  0
   36.2915   30.1568   49.6362 C   0  0  0  0  0  0  0  0  0  0  0  0
   36.0449   30.5291   48.3242 C   0  0  0  0  0  0  0  0  0  0  0  0
   35.1558   29.7520   47.6146 N   0  0  0  0  0  0  0  0  0  0  0  0
   34.5410   28.6738   48.1473 C   0  0  0  0  0  0  0  0  0  0  0  0
   34.7621   28.2959   49.4156 N   0  0  0  0  0  0  0  0  0  0  0  0
   33.7113   28.0033   47.2359 N   0  0  0  0  0  0  0  0  0  0  0  0
   37.2234   30.9037   50.5342 C   0  0  0  0  0  0  0  0  0  0  0  0
   38.5243   30.7777   50.1020 F   0  0  0  0  0  0  0  0  0  0  0  0
   36.8656   32.2272   50.5180 F   0  0  0  0  0  0  0  0  0  0  0  0
   37.1712   30.4628   51.8449 F   0  0  0  0  0  0  0  0  0  0  0  0
   35.8199   28.7208   51.2073 H   0  0  0  0  0  0  0  0  0  0  0  0
   33.1175   28.4069   46.5157 H   0  0  0  0  0  0  0  0  0  0  0  0
   33.6504   26.9493   47.2524 H   0  0  0  0  0  0  0  0  0  0  0  0
   35.0001   30.4167   44.9418 N   0  0  0  0  0  0  0  0  0  0  0  0
   35.6754   31.1194   45.5729 C   0  0  0  0  0  0  0  0  0  0  0  0
   36.4978   32.0026   46.3572 C   0  0  0  0  0  0  0  0  0  0  0  0
   36.6398   31.7056   47.7169 C   0  0  0  0  0  0  0  0  0  0  0  0
   37.4344   32.5840   48.4167 C   0  0  0  0  0  0  0  0  0  0  0  0
   37.6866   32.5026   49.4590 H   0  0  0  0  0  0  0  0  0  0  0  0
   38.0577   33.6849   47.8553 C   0  0  0  0  0  0  0  0  0  0  0  0
   38.6841   34.3935   48.3627 H   0  0  0  0  0  0  0  0  0  0  0  0
   37.8736   33.9250   46.4934 C   0  0  0  0  0  0  0  0  0  0  0  0
   37.0850   33.0798   45.7211 C   0  0  0  0  0  0  0  0  0  0  0  0
   38.3374   34.7788   46.0018 H   0  0  0  0  0  0  0  0  0  0  0  0
   36.9526   33.2808   44.6693 H   0  0  0  0  0  0  0  0  0  0  0  0
  2  1  2  0
  2  8  1  0
  3  2  1  0
  4  5  1  0
  4  3  2  0
  5  6  2  0
  6  1  1  0
  7  5  1  0
  8 11  1  0
  9  8  1  0
 10  8  1  0
  1 12  1  0
  7 13  1  0
  7 14  1  0
 15 16  3  0
 16 17  1  0
 17 18  2  0
 18 19  1  0
 19 20  1  0
 19 21  2  0
 21 22  1  0
 21 23  1  0
 23 24  2  0
 24 17  1  0
 23 25  1  0
 24 26  1  0
  3 18  1  0
M  ISO  3  12  14  20  15  22  16
M  END
>  <DihAtoms>  (1) 
1,2,17,16

>  <DihDeg>  (1) 
-111.6804069753115

$$$$
