
 OpenBabel03272503143D

 47 51  0  0  0  0  0  0  0  0999 V2000
   36.3550   28.0550   34.3370 C   0  0  0  0  0  0  0  0  0  0  0  0
   37.4210   27.2660   33.9780 C   0  0  0  0  0  0  0  0  0  0  0  0
   37.9980   27.3170   32.7270 C   0  0  0  0  0  0  0  0  0  0  0  0
   37.4860   28.2070   31.7760 C   0  0  0  0  0  0  0  0  0  0  0  0
   37.8240   28.4750   30.5190 N   0  0  0  0  0  0  0  0  0  0  0  0
   37.0020   29.4120   30.0710 C   0  0  0  0  0  0  0  0  0  0  0  0
   36.1340   29.7430   31.0510 N   0  0  0  0  0  0  0  0  0  0  0  0
   36.4100   28.9990   32.1500 C   0  0  0  0  0  0  0  0  0  0  0  0
   35.8260   28.9530   33.3990 C   0  0  0  0  0  0  0  0  0  0  0  0
   35.9570   27.9660   35.3560 H   0  0  0  0  0  0  0  0  0  0  0  0
   38.8340   26.6920   32.4580 H   0  0  0  0  0  0  0  0  0  0  0  0
   38.6030   28.0240   29.9770 H   0  0  0  0  0  0  0  0  0  0  0  0
   37.0380   29.8340   29.0670 H   0  0  0  0  0  0  0  0  0  0  0  0
   37.9380   26.3500   34.9700 C   0  0  0  0  0  0  0  0  0  0  0  0
   38.6710   26.8290   35.9090 O   0  0  0  0  0  0  0  0  0  0  0  0
   37.7190   24.9590   35.0160 N   0  0  0  0  0  0  0  0  0  0  0  0
   37.1310   24.5440   34.2730 H   0  0  0  0  0  0  0  0  0  0  0  0
   40.1590   23.7830   34.7310 F   0  0  0  0  0  0  0  0  0  0  0  0
   39.6030   23.7200   35.9640 C   0  0  0  0  0  0  0  0  0  0  0  0
   40.2550   23.0950   36.9840 C   0  0  0  0  0  0  0  0  0  0  0  0
   39.6260   23.0710   38.2070 C   0  0  0  0  0  0  0  0  0  0  0  0
   38.3990   23.6430   38.4190 C   0  0  0  0  0  0  0  0  0  0  0  0
   37.7470   24.2790   37.3620 C   0  0  0  0  0  0  0  0  0  0  0  0
   38.3650   24.3120   36.1250 C   0  0  0  0  0  0  0  0  0  0  0  0
   40.1390   22.5760   39.0220 H   0  0  0  0  0  0  0  0  0  0  0  0
   37.9760   23.5790   39.4120 H   0  0  0  0  0  0  0  0  0  0  0  0
   36.7780   24.7330   37.5220 H   0  0  0  0  0  0  0  0  0  0  0  0
   43.9340   22.6560   36.1720 C   0  0  0  0  0  0  0  0  0  0  0  0
   42.6820   23.2690   36.4390 C   0  0  0  0  0  0  0  0  0  0  0  0
   41.5640   22.5010   36.7030 C   0  0  0  0  0  0  0  0  0  0  0  0
   41.7210   21.1390   36.6950 N   0  0  0  0  0  0  0  0  0  0  0  0
   42.9100   20.5650   36.4400 C   0  0  0  0  0  0  0  0  0  0  0  0
   43.9890   21.3030   36.1860 N   0  0  0  0  0  0  0  0  0  0  0  0
   44.7780   23.3050   35.9710 H   0  0  0  0  0  0  0  0  0  0  0  0
   42.5630   24.3510   36.4450 H   0  0  0  0  0  0  0  0  0  0  0  0
   42.9280   19.4770   36.4580 H   0  0  0  0  0  0  0  0  0  0  0  0
   34.7600   29.7390   33.7510 O   0  0  0  0  0  0  0  0  0  0  0  0
   33.5520   30.6190   35.6330 C   0  0  0  0  0  0  0  0  0  0  0  0
   34.6980   30.5910   34.8290 C   0  0  0  0  0  0  0  0  0  0  0  0
   35.7140   31.4640   35.2040 C   0  0  0  0  0  0  0  0  0  0  0  0
   36.6140   31.4560   34.5900 H   0  0  0  0  0  0  0  0  0  0  0  0
   35.6020   32.3080   36.3030 C   0  0  0  0  0  0  0  0  0  0  0  0
   36.4200   32.9720   36.5600 H   0  0  0  0  0  0  0  0  0  0  0  0
   34.4550   32.3010   37.0690 C   0  0  0  0  0  3  0  0  0  0  0  0
   33.4230   31.4500   36.7290 C   0  0  0  0  0  3  0  0  0  0  0  0
   31.4640   29.1340   35.1320 N   0  0  0  0  0  0  0  0  0  0  0  0
   32.3890   29.7870   35.3640 C   0  0  0  0  0  0  0  0  0  0  0  0
  1 10  1  0  0  0  0
  2  1  1  0  0  0  0
  2 14  1  0  0  0  0
  3  2  2  0  0  0  0
  4  8  2  0  0  0  0
  4  3  1  0  0  0  0
  5  4  1  0  0  0  0
  6  5  1  0  0  0  0
  6  7  2  0  0  0  0
  7  8  1  0  0  0  0
  8  9  1  0  0  0  0
  9 37  1  0  0  0  0
  9  1  2  0  0  0  0
 11  3  1  0  0  0  0
 12  5  1  0  0  0  0
 13  6  1  0  0  0  0
 14 16  1  0  0  0  0
 14 15  2  0  0  0  0
 16 24  1  0  0  0  0
 17 16  1  0  0  0  0
 18 19  1  0  0  0  0
 19 24  2  0  0  0  0
 19 20  1  0  0  0  0
 20 21  2  0  0  0  0
 21 22  1  0  0  0  0
 21 25  1  0  0  0  0
 22 26  1  0  0  0  0
 23 27  1  0  0  0  0
 23 22  2  0  0  0  0
 24 23  1  0  0  0  0
 28 33  2  0  0  0  0
 28 29  1  0  0  0  0
 29 35  1  0  0  0  0
 29 30  2  0  0  0  0
 30 20  1  0  0  0  0
 31 30  1  0  0  0  0
 32 36  1  0  0  0  0
 32 31  2  0  0  0  0
 33 32  1  0  0  0  0
 34 28  1  0  0  0  0
 37 39  1  0  0  0  0
 38 45  1  0  0  0  0
 39 40  1  0  0  0  0
 39 38  2  0  0  0  0
 40 42  2  0  0  0  0
 41 40  1  0  0  0  0
 42 43  1  0  0  0  0
 42 44  1  0  0  0  0
 45 44  2  0  0  0  0
 46 47  3  0  0  0  0
 47 38  1  0  0  0  0
M  END
>  <minimizedAffinity>
-7.57316017

$$$$

 OpenBabel03272503143D

 47 51  0  0  0  0  0  0  0  0999 V2000
   37.6410   23.6820   33.3020 C   0  0  0  0  0  0  0  0  0  0  0  0
   36.8350   24.1440   32.2890 C   0  0  0  0  0  0  0  0  0  0  0  0
   36.2660   23.3100   31.3500 C   0  0  0  0  0  0  0  0  0  0  0  0
   36.5120   21.9340   31.4230 C   0  0  0  0  0  0  0  0  0  0  0  0
   36.1120   20.9070   30.6790 N   0  0  0  0  0  0  0  0  0  0  0  0
   36.6430   19.8070   31.1930 C   0  0  0  0  0  0  0  0  0  0  0  0
   37.3850   20.1370   32.2720 N   0  0  0  0  0  0  0  0  0  0  0  0
   37.3260   21.4790   32.4500 C   0  0  0  0  0  0  0  0  0  0  0  0
   37.9000   22.3070   33.3930 C   0  0  0  0  0  0  0  0  0  0  0  0
   38.0480   24.4070   34.0190 H   0  0  0  0  0  0  0  0  0  0  0  0
   35.6360   23.6850   30.5600 H   0  0  0  0  0  0  0  0  0  0  0  0
   35.4890   20.9580   29.8360 H   0  0  0  0  0  0  0  0  0  0  0  0
   36.4910   18.8050   30.7920 H   0  0  0  0  0  0  0  0  0  0  0  0
   36.5920   25.5680   32.2260 C   0  0  0  0  0  0  0  0  0  0  0  0
   35.5030   25.9700   31.6750 O   0  0  0  0  0  0  0  0  0  0  0  0
   37.4400   26.5810   32.7140 N   0  0  0  0  0  0  0  0  0  0  0  0
   38.3240   26.2890   33.1630 H   0  0  0  0  0  0  0  0  0  0  0  0
   36.1680   27.9300   34.7110 F   0  0  0  0  0  0  0  0  0  0  0  0
   36.2860   28.5790   33.5280 C   0  0  0  0  0  0  0  0  0  0  0  0
   35.7840   29.8370   33.3790 C   0  0  0  0  0  0  0  0  0  0  0  0
   35.9400   30.4300   32.1480 C   0  0  0  0  0  0  0  0  0  0  0  0
   36.5690   29.8090   31.1020 C   0  0  0  0  0  0  0  0  0  0  0  0
   37.0760   28.5210   31.2740 C   0  0  0  0  0  0  0  0  0  0  0  0
   36.9280   27.9080   32.5050 C   0  0  0  0  0  0  0  0  0  0  0  0
   35.5440   31.4310   32.0230 H   0  0  0  0  0  0  0  0  0  0  0  0
   36.6490   30.3480   30.1670 H   0  0  0  0  0  0  0  0  0  0  0  0
   37.5740   28.0230   30.4520 H   0  0  0  0  0  0  0  0  0  0  0  0
   35.1270   31.8210   36.5440 C   0  0  0  0  0  0  0  0  0  0  0  0
   35.8040   31.2390   35.4410 C   0  0  0  0  0  0  0  0  0  0  0  0
   35.1220   30.4550   34.5300 C   0  0  0  0  0  0  0  0  0  0  0  0
   33.7790   30.2710   34.7400 N   0  0  0  0  0  0  0  0  0  0  0  0
   33.1440   30.8260   35.7870 C   0  0  0  0  0  0  0  0  0  0  0  0
   33.8000   31.5820   36.6660 N   0  0  0  0  0  0  0  0  0  0  0  0
   35.7100   32.4270   37.2280 H   0  0  0  0  0  0  0  0  0  0  0  0
   36.8700   31.3880   35.2780 H   0  0  0  0  0  0  0  0  0  0  0  0
   32.0790   30.6200   35.8630 H   0  0  0  0  0  0  0  0  0  0  0  0
   38.7070   21.8420   34.3980 O   0  0  0  0  0  0  0  0  0  0  0  0
   39.9630   22.3620   36.3800 C   0  0  0  0  0  0  0  0  0  0  0  0
   38.7440   22.3080   35.6920 C   0  0  0  0  0  0  0  0  0  0  0  0
   37.6340   22.7440   36.4060 C   0  0  0  0  0  0  0  0  0  0  0  0
   36.6760   22.7090   35.8870 H   0  0  0  0  0  0  0  0  0  0  0  0
   37.7240   23.2050   37.7150 C   0  0  0  0  0  0  0  0  0  0  0  0
   36.8310   23.5360   38.2330 H   0  0  0  0  0  0  0  0  0  0  0  0
   38.9450   23.2430   38.3540 C   0  0  0  0  0  3  0  0  0  0  0  0
   40.0720   22.8180   37.6800 C   0  0  0  0  0  3  0  0  0  0  0  0
   42.2090   21.5520   35.3250 N   0  0  0  0  0  0  0  0  0  0  0  0
   41.2160   21.9210   35.7860 C   0  0  0  0  0  0  0  0  0  0  0  0
  1  9  1  0  0  0  0
  1 10  1  0  0  0  0
  2  1  2  0  0  0  0
  3  4  2  0  0  0  0
  3  2  1  0  0  0  0
  4  8  1  0  0  0  0
  5  6  1  0  0  0  0
  5  4  1  0  0  0  0
  6  7  2  0  0  0  0
  7  8  1  0  0  0  0
  8  9  2  0  0  0  0
  9 37  1  0  0  0  0
 11  3  1  0  0  0  0
 12  5  1  0  0  0  0
 13  6  1  0  0  0  0
 14  2  1  0  0  0  0
 14 16  1  0  0  0  0
 15 14  2  0  0  0  0
 16 17  1  0  0  0  0
 19 18  1  0  0  0  0
 20 19  1  0  0  0  0
 20 30  1  0  0  0  0
 21 20  2  0  0  0  0
 22 23  2  0  0  0  0
 22 21  1  0  0  0  0
 23 24  1  0  0  0  0
 24 16  1  0  0  0  0
 24 19  2  0  0  0  0
 25 21  1  0  0  0  0
 26 22  1  0  0  0  0
 27 23  1  0  0  0  0
 28 33  1  0  0  0  0
 28 34  1  0  0  0  0
 29 28  2  0  0  0  0
 30 31  2  0  0  0  0
 30 29  1  0  0  0  0
 31 32  1  0  0  0  0
 32 36  1  0  0  0  0
 32 33  2  0  0  0  0
 35 29  1  0  0  0  0
 37 39  1  0  0  0  0
 38 45  1  0  0  0  0
 39 38  2  0  0  0  0
 39 40  1  0  0  0  0
 40 42  2  0  0  0  0
 41 40  1  0  0  0  0
 42 43  1  0  0  0  0
 42 44  1  0  0  0  0
 45 44  2  0  0  0  0
 46 47  3  0  0  0  0
 47 38  1  0  0  0  0
M  END
>  <minimizedAffinity>
-7.32340717

$$$$

 OpenBabel03272503143D

 47 51  0  0  0  0  0  0  0  0999 V2000
   36.7040   28.0530   33.7920 C   0  0  0  0  0  0  0  0  0  0  0  0
   37.5900   27.0510   33.4770 C   0  0  0  0  0  0  0  0  0  0  0  0
   38.0470   26.8360   32.1940 C   0  0  0  0  0  0  0  0  0  0  0  0
   37.5960   27.6680   31.1620 C   0  0  0  0  0  0  0  0  0  0  0  0
   37.8530   27.7050   29.8580 N   0  0  0  0  0  0  0  0  0  0  0  0
   37.1530   28.7040   29.3390 C   0  0  0  0  0  0  0  0  0  0  0  0
   36.4470   29.3060   30.3200 N   0  0  0  0  0  0  0  0  0  0  0  0
   36.7030   28.6770   31.4930 C   0  0  0  0  0  0  0  0  0  0  0  0
   36.2400   28.8980   32.7740 C   0  0  0  0  0  0  0  0  0  0  0  0
   36.3960   28.1690   34.8390 H   0  0  0  0  0  0  0  0  0  0  0  0
   38.7410   26.0460   31.9600 H   0  0  0  0  0  0  0  0  0  0  0  0
   38.4930   27.0600   29.3340 H   0  0  0  0  0  0  0  0  0  0  0  0
   37.1610   28.9770   28.2840 H   0  0  0  0  0  0  0  0  0  0  0  0
   38.0450   26.1990   34.5520 C   0  0  0  0  0  0  0  0  0  0  0  0
   38.8090   26.7120   35.4470 O   0  0  0  0  0  0  0  0  0  0  0  0
   37.7310   24.8360   34.7260 N   0  0  0  0  0  0  0  0  0  0  0  0
   37.1170   24.3940   34.0210 H   0  0  0  0  0  0  0  0  0  0  0  0
   40.1970   23.6830   34.6120 F   0  0  0  0  0  0  0  0  0  0  0  0
   39.5850   23.6720   35.8190 C   0  0  0  0  0  0  0  0  0  0  0  0
   40.1960   23.1060   36.8970 C   0  0  0  0  0  0  0  0  0  0  0  0
   39.5110   23.1310   38.0890 C   0  0  0  0  0  0  0  0  0  0  0  0
   38.2680   23.6950   38.2160 C   0  0  0  0  0  0  0  0  0  0  0  0
   37.6580   24.2700   37.1010 C   0  0  0  0  0  0  0  0  0  0  0  0
   38.3330   24.2520   35.8940 C   0  0  0  0  0  0  0  0  0  0  0  0
   39.9910   22.6840   38.9510 H   0  0  0  0  0  0  0  0  0  0  0  0
   37.7990   23.6720   39.1910 H   0  0  0  0  0  0  0  0  0  0  0  0
   36.6770   24.7160   37.1930 H   0  0  0  0  0  0  0  0  0  0  0  0
   43.0600   20.6320   36.6520 C   0  0  0  0  0  0  0  0  0  0  0  0
   41.7590   21.1640   36.8450 C   0  0  0  0  0  0  0  0  0  0  0  0
   41.5240   22.5180   36.7060 C   0  0  0  0  0  0  0  0  0  0  0  0
   42.5930   23.3110   36.3790 N   0  0  0  0  0  0  0  0  0  0  0  0
   43.8240   22.8000   36.1980 C   0  0  0  0  0  0  0  0  0  0  0  0
   44.0520   21.4950   36.3300 N   0  0  0  0  0  0  0  0  0  0  0  0
   43.1880   19.5630   36.7730 H   0  0  0  0  0  0  0  0  0  0  0  0
   40.9130   20.5310   37.1050 H   0  0  0  0  0  0  0  0  0  0  0  0
   44.6040   23.5140   35.9390 H   0  0  0  0  0  0  0  0  0  0  0  0
   35.3530   29.8960   33.0820 O   0  0  0  0  0  0  0  0  0  0  0  0
   36.0480   32.1420   33.5740 C   0  0  0  0  0  0  0  0  0  0  0  0
   35.5500   30.9040   33.9960 C   0  0  0  0  0  0  0  0  0  0  0  0
   35.2890   30.7970   35.3580 C   0  0  0  0  0  0  0  0  0  0  0  0
   34.9000   29.8390   35.7050 H   0  0  0  0  0  0  0  0  0  0  0  0
   35.5070   31.8470   36.2430 C   0  0  0  0  0  0  0  0  0  0  0  0
   35.2890   31.7180   37.2970 H   0  0  0  0  0  0  0  0  0  0  0  0
   35.9990   33.0500   35.7840 C   0  0  0  0  0  3  0  0  0  0  0  0
   36.2710   33.1980   34.4390 C   0  0  0  0  0  3  0  0  0  0  0  0
   36.6890   32.6160   31.0880 N   0  0  0  0  0  0  0  0  0  0  0  0
   36.3960   32.4130   32.1870 C   0  0  0  0  0  0  0  0  0  0  0  0
  1 10  1  0  0  0  0
  2  1  1  0  0  0  0
  2 14  1  0  0  0  0
  3  2  2  0  0  0  0
  4  8  2  0  0  0  0
  4  3  1  0  0  0  0
  5  4  1  0  0  0  0
  6  5  1  0  0  0  0
  6  7  2  0  0  0  0
  7  8  1  0  0  0  0
  8  9  1  0  0  0  0
  9 37  1  0  0  0  0
  9  1  2  0  0  0  0
 11  3  1  0  0  0  0
 12  5  1  0  0  0  0
 13  6  1  0  0  0  0
 14 16  1  0  0  0  0
 14 15  2  0  0  0  0
 16 24  1  0  0  0  0
 17 16  1  0  0  0  0
 18 19  1  0  0  0  0
 19 24  2  0  0  0  0
 19 20  1  0  0  0  0
 20 21  2  0  0  0  0
 21 22  1  0  0  0  0
 21 25  1  0  0  0  0
 22 26  1  0  0  0  0
 23 27  1  0  0  0  0
 23 22  2  0  0  0  0
 24 23  1  0  0  0  0
 28 34  1  0  0  0  0
 28 29  1  0  0  0  0
 29 35  1  0  0  0  0
 30 29  2  0  0  0  0
 30 20  1  0  0  0  0
 31 30  1  0  0  0  0
 32 33  1  0  0  0  0
 32 31  2  0  0  0  0
 33 28  2  0  0  0  0
 36 32  1  0  0  0  0
 37 39  1  0  0  0  0
 38 39  2  0  0  0  0
 38 45  1  0  0  0  0
 39 40  1  0  0  0  0
 40 41  1  0  0  0  0
 40 42  2  0  0  0  0
 42 43  1  0  0  0  0
 44 42  1  0  0  0  0
 45 44  2  0  0  0  0
 46 47  3  0  0  0  0
 47 38  1  0  0  0  0
M  END
>  <minimizedAffinity>
-7.1619997

$$$$

 OpenBabel03272503143D

 47 51  0  0  0  0  0  0  0  0999 V2000
   38.4650   23.9090   33.9170 C   0  0  0  0  0  0  0  0  0  0  0  0
   39.1300   25.1000   34.0810 C   0  0  0  0  0  0  0  0  0  0  0  0
   40.4100   25.1760   34.5880 C   0  0  0  0  0  0  0  0  0  0  0  0
   41.0680   23.9960   34.9540 C   0  0  0  0  0  0  0  0  0  0  0  0
   42.2740   23.7570   35.4590 N   0  0  0  0  0  0  0  0  0  0  0  0
   42.3920   22.4470   35.6190 C   0  0  0  0  0  0  0  0  0  0  0  0
   41.2510   21.8490   35.2130 N   0  0  0  0  0  0  0  0  0  0  0  0
   40.3870   22.8000   34.7830 C   0  0  0  0  0  0  0  0  0  0  0  0
   39.1060   22.7160   34.2770 C   0  0  0  0  0  0  0  0  0  0  0  0
   37.4520   23.9290   33.4950 H   0  0  0  0  0  0  0  0  0  0  0  0
   40.9210   26.1170   34.7120 H   0  0  0  0  0  0  0  0  0  0  0  0
   43.0030   24.4770   35.6890 H   0  0  0  0  0  0  0  0  0  0  0  0
   43.2770   21.9530   36.0190 H   0  0  0  0  0  0  0  0  0  0  0  0
   38.4370   26.3110   33.7000 C   0  0  0  0  0  0  0  0  0  0  0  0
   39.0140   27.4350   33.9310 O   0  0  0  0  0  0  0  0  0  0  0  0
   37.1690   26.3900   33.0910 N   0  0  0  0  0  0  0  0  0  0  0  0
   36.6790   25.5010   32.8920 H   0  0  0  0  0  0  0  0  0  0  0  0
   35.9810   27.8870   35.0330 F   0  0  0  0  0  0  0  0  0  0  0  0
   36.1380   28.4830   33.8270 C   0  0  0  0  0  0  0  0  0  0  0  0
   35.7140   29.7620   33.6300 C   0  0  0  0  0  0  0  0  0  0  0  0
   35.9070   30.2990   32.3780 C   0  0  0  0  0  0  0  0  0  0  0  0
   36.4980   29.6010   31.3580 C   0  0  0  0  0  0  0  0  0  0  0  0
   36.9260   28.2920   31.5790 C   0  0  0  0  0  0  0  0  0  0  0  0
   36.7390   27.7370   32.8320 C   0  0  0  0  0  0  0  0  0  0  0  0
   35.5720   31.3160   32.2140 H   0  0  0  0  0  0  0  0  0  0  0  0
   36.6110   30.0990   30.4030 H   0  0  0  0  0  0  0  0  0  0  0  0
   37.3930   27.7350   30.7780 H   0  0  0  0  0  0  0  0  0  0  0  0
   35.1630   31.9570   36.6740 C   0  0  0  0  0  0  0  0  0  0  0  0
   35.8040   31.2960   35.5940 C   0  0  0  0  0  0  0  0  0  0  0  0
   35.0900   30.4630   34.7550 C   0  0  0  0  0  0  0  0  0  0  0  0
   33.7520   30.3090   35.0110 N   0  0  0  0  0  0  0  0  0  0  0  0
   33.1510   30.9380   36.0360 C   0  0  0  0  0  0  0  0  0  0  0  0
   33.8380   31.7420   36.8470 N   0  0  0  0  0  0  0  0  0  0  0  0
   35.7710   32.5980   37.3010 H   0  0  0  0  0  0  0  0  0  0  0  0
   36.8670   31.4210   35.3940 H   0  0  0  0  0  0  0  0  0  0  0  0
   32.0860   30.7500   36.1540 H   0  0  0  0  0  0  0  0  0  0  0  0
   38.4450   21.5260   34.1200 O   0  0  0  0  0  0  0  0  0  0  0  0
   36.1610   20.9570   33.6390 C   0  0  0  0  0  0  0  0  0  0  0  0
   37.4560   21.2600   33.2020 C   0  0  0  0  0  0  0  0  0  0  0  0
   37.6370   21.2630   31.8230 C   0  0  0  0  0  0  0  0  0  0  0  0
   38.6400   21.4970   31.4650 H   0  0  0  0  0  0  0  0  0  0  0  0
   36.6040   20.9860   30.9360 C   0  0  0  0  0  0  0  0  0  0  0  0
   36.7910   21.0000   29.8680 H   0  0  0  0  0  0  0  0  0  0  0  0
   35.3420   20.6930   31.4100 C   0  0  0  0  0  3  0  0  0  0  0  0
   35.1210   20.6790   32.7720 C   0  0  0  0  0  3  0  0  0  0  0  0
   35.5410   20.8460   36.1720 N   0  0  0  0  0  0  0  0  0  0  0  0
   35.8070   20.8870   35.0490 C   0  0  0  0  0  0  0  0  0  0  0  0
  1  2  2  0  0  0  0
  1  9  1  0  0  0  0
  2  3  1  0  0  0  0
  3 11  1  0  0  0  0
  3  4  2  0  0  0  0
  4  5  1  0  0  0  0
  5  6  1  0  0  0  0
  5 12  1  0  0  0  0
  6 13  1  0  0  0  0
  7  6  2  0  0  0  0
  8  4  1  0  0  0  0
  8  7  1  0  0  0  0
  9  8  2  0  0  0  0
 10  1  1  0  0  0  0
 14 15  2  0  0  0  0
 14  2  1  0  0  0  0
 16 14  1  0  0  0  0
 17 16  1  0  0  0  0
 19 18  1  0  0  0  0
 20 19  1  0  0  0  0
 20 30  1  0  0  0  0
 21 20  2  0  0  0  0
 22 23  2  0  0  0  0
 22 21  1  0  0  0  0
 23 24  1  0  0  0  0
 24 16  1  0  0  0  0
 24 19  2  0  0  0  0
 25 21  1  0  0  0  0
 26 22  1  0  0  0  0
 27 23  1  0  0  0  0
 28 33  1  0  0  0  0
 28 34  1  0  0  0  0
 29 28  2  0  0  0  0
 30 31  2  0  0  0  0
 30 29  1  0  0  0  0
 31 32  1  0  0  0  0
 32 36  1  0  0  0  0
 32 33  2  0  0  0  0
 35 29  1  0  0  0  0
 37  9  1  0  0  0  0
 38 47  1  0  0  0  0
 39 38  1  0  0  0  0
 39 37  1  0  0  0  0
 40 39  2  0  0  0  0
 41 40  1  0  0  0  0
 42 44  2  0  0  0  0
 42 40  1  0  0  0  0
 43 42  1  0  0  0  0
 44 45  1  0  0  0  0
 45 38  2  0  0  0  0
 47 46  3  0  0  0  0
M  END
>  <minimizedAffinity>
-6.76610947

$$$$

 OpenBabel03272503143D

 47 51  0  0  0  0  0  0  0  0999 V2000
   35.4110   28.3410   32.6470 C   0  0  0  0  0  0  0  0  0  0  0  0
   36.2470   28.0860   31.5860 C   0  0  0  0  0  0  0  0  0  0  0  0
   36.5080   29.0160   30.6030 C   0  0  0  0  0  0  0  0  0  0  0  0
   35.9030   30.2760   30.6790 C   0  0  0  0  0  0  0  0  0  0  0  0
   35.9620   31.3510   29.9000 N   0  0  0  0  0  0  0  0  0  0  0  0
   35.1870   32.2820   30.4380 C   0  0  0  0  0  0  0  0  0  0  0  0
   34.6310   31.7930   31.5680 N   0  0  0  0  0  0  0  0  0  0  0  0
   35.0630   30.5220   31.7550 C   0  0  0  0  0  0  0  0  0  0  0  0
   34.7960   29.5970   32.7420 C   0  0  0  0  0  0  0  0  0  0  0  0
   35.2620   27.5540   33.3970 H   0  0  0  0  0  0  0  0  0  0  0  0
   37.1650   28.8030   29.7750 H   0  0  0  0  0  0  0  0  0  0  0  0
   36.5220   31.4470   29.0170 H   0  0  0  0  0  0  0  0  0  0  0  0
   35.0360   33.2760   30.0180 H   0  0  0  0  0  0  0  0  0  0  0  0
   36.8620   26.7790   31.5200 C   0  0  0  0  0  0  0  0  0  0  0  0
   37.5090   26.3640   32.5480 O   0  0  0  0  0  0  0  0  0  0  0  0
   36.8270   25.8950   30.4230 N   0  0  0  0  0  0  0  0  0  0  0  0
   36.3120   26.2010   29.5800 H   0  0  0  0  0  0  0  0  0  0  0  0
   35.5540   23.7100   31.4370 F   0  0  0  0  0  0  0  0  0  0  0  0
   36.8730   23.5660   31.1680 C   0  0  0  0  0  0  0  0  0  0  0  0
   37.4990   22.3790   31.4040 C   0  0  0  0  0  0  0  0  0  0  0  0
   38.8400   22.3090   31.1080 C   0  0  0  0  0  0  0  0  0  0  0  0
   39.5400   23.3700   30.5970 C   0  0  0  0  0  0  0  0  0  0  0  0
   38.8820   24.5770   30.3610 C   0  0  0  0  0  0  0  0  0  0  0  0
   37.5330   24.6650   30.6540 C   0  0  0  0  0  0  0  0  0  0  0  0
   39.3440   21.3680   31.2930 H   0  0  0  0  0  0  0  0  0  0  0  0
   40.5940   23.2290   30.3920 H   0  0  0  0  0  0  0  0  0  0  0  0
   39.4290   25.4190   29.9580 H   0  0  0  0  0  0  0  0  0  0  0  0
   35.5140   19.1650   31.7430 C   0  0  0  0  0  0  0  0  0  0  0  0
   36.2830   20.2130   31.1760 C   0  0  0  0  0  0  0  0  0  0  0  0
   36.7030   21.2770   31.9510 C   0  0  0  0  0  0  0  0  0  0  0  0
   36.3460   21.2700   33.2750 N   0  0  0  0  0  0  0  0  0  0  0  0
   35.6160   20.2730   33.8050 C   0  0  0  0  0  0  0  0  0  0  0  0
   35.2100   19.2460   33.0600 N   0  0  0  0  0  0  0  0  0  0  0  0
   35.2110   18.3550   31.0890 H   0  0  0  0  0  0  0  0  0  0  0  0
   36.5650   20.2150   30.1250 H   0  0  0  0  0  0  0  0  0  0  0  0
   35.3860   20.3610   34.8650 H   0  0  0  0  0  0  0  0  0  0  0  0
   33.9580   29.8550   33.7960 O   0  0  0  0  0  0  0  0  0  0  0  0
   33.2270   30.9630   35.7980 C   0  0  0  0  0  0  0  0  0  0  0  0
   34.2370   30.6560   34.8780 C   0  0  0  0  0  0  0  0  0  0  0  0
   35.4820   31.2120   35.1490 C   0  0  0  0  0  0  0  0  0  0  0  0
   36.2810   30.9830   34.4430 H   0  0  0  0  0  0  0  0  0  0  0  0
   35.7130   32.0180   36.2580 C   0  0  0  0  0  0  0  0  0  0  0  0
   36.7010   32.4300   36.4290 H   0  0  0  0  0  0  0  0  0  0  0  0
   34.6890   32.2950   37.1390 C   0  0  0  0  0  3  0  0  0  0  0  0
   33.4370   31.7630   36.9060 C   0  0  0  0  0  3  0  0  0  0  0  0
   30.7710   30.1210   35.5310 N   0  0  0  0  0  0  0  0  0  0  0  0
   31.8620   30.4830   35.6500 C   0  0  0  0  0  0  0  0  0  0  0  0
  1  9  1  0  0  0  0
  1 10  1  0  0  0  0
  2  1  2  0  0  0  0
  3  4  2  0  0  0  0
  3  2  1  0  0  0  0
  4  8  1  0  0  0  0
  5  6  1  0  0  0  0
  5  4  1  0  0  0  0
  6  7  2  0  0  0  0
  7  8  1  0  0  0  0
  8  9  2  0  0  0  0
  9 37  1  0  0  0  0
 11  3  1  0  0  0  0
 12  5  1  0  0  0  0
 13  6  1  0  0  0  0
 14  2  1  0  0  0  0
 14 15  2  0  0  0  0
 16 24  1  0  0  0  0
 16 14  1  0  0  0  0
 17 16  1  0  0  0  0
 19 20  1  0  0  0  0
 19 18  1  0  0  0  0
 20 30  1  0  0  0  0
 21 25  1  0  0  0  0
 21 20  2  0  0  0  0
 22 21  1  0  0  0  0
 23 22  2  0  0  0  0
 23 24  1  0  0  0  0
 24 19  2  0  0  0  0
 26 22  1  0  0  0  0
 27 23  1  0  0  0  0
 28 33  1  0  0  0  0
 29 28  2  0  0  0  0
 29 30  1  0  0  0  0
 30 31  2  0  0  0  0
 31 32  1  0  0  0  0
 32 36  1  0  0  0  0
 33 32  2  0  0  0  0
 34 28  1  0  0  0  0
 35 29  1  0  0  0  0
 37 39  1  0  0  0  0
 38 45  1  0  0  0  0
 39 40  1  0  0  0  0
 39 38  2  0  0  0  0
 40 42  2  0  0  0  0
 41 40  1  0  0  0  0
 42 43  1  0  0  0  0
 42 44  1  0  0  0  0
 45 44  2  0  0  0  0
 46 47  3  0  0  0  0
 47 38  1  0  0  0  0
M  END
>  <minimizedAffinity>
-6.71650171

$$$$

 OpenBabel03272503143D

 47 51  0  0  0  0  0  0  0  0999 V2000
   37.7490   24.3320   33.1790 C   0  0  0  0  0  0  0  0  0  0  0  0
   36.8550   24.8300   32.2620 C   0  0  0  0  0  0  0  0  0  0  0  0
   36.0140   24.0230   31.5250 C   0  0  0  0  0  0  0  0  0  0  0  0
   36.0640   22.6370   31.7130 C   0  0  0  0  0  0  0  0  0  0  0  0
   35.3940   21.6290   31.1630 N   0  0  0  0  0  0  0  0  0  0  0  0
   35.8390   20.5050   31.7060 C   0  0  0  0  0  0  0  0  0  0  0  0
   36.7990   20.8010   32.6090 N   0  0  0  0  0  0  0  0  0  0  0  0
   36.9700   22.1450   32.6420 C   0  0  0  0  0  0  0  0  0  0  0  0
   37.8150   22.9460   33.3810 C   0  0  0  0  0  0  0  0  0  0  0  0
   38.3770   25.0390   33.7360 H   0  0  0  0  0  0  0  0  0  0  0  0
   35.3180   24.4270   30.8090 H   0  0  0  0  0  0  0  0  0  0  0  0
   34.6470   21.7090   30.4290 H   0  0  0  0  0  0  0  0  0  0  0  0
   35.4730   19.5110   31.4500 H   0  0  0  0  0  0  0  0  0  0  0  0
   36.8170   26.2640   32.0770 C   0  0  0  0  0  0  0  0  0  0  0  0
   37.7800   26.9610   32.5630 O   0  0  0  0  0  0  0  0  0  0  0  0
   35.8140   26.9920   31.4080 N   0  0  0  0  0  0  0  0  0  0  0  0
   35.0250   26.4580   31.0050 H   0  0  0  0  0  0  0  0  0  0  0  0
   37.1740   28.1620   29.3580 F   0  0  0  0  0  0  0  0  0  0  0  0
   36.7420   28.9880   30.3400 C   0  0  0  0  0  0  0  0  0  0  0  0
   36.9900   30.3260   30.2750 C   0  0  0  0  0  0  0  0  0  0  0  0
   36.5210   31.1000   31.3110 C   0  0  0  0  0  0  0  0  0  0  0  0
   35.8290   30.5760   32.3710 C   0  0  0  0  0  0  0  0  0  0  0  0
   35.5840   29.2030   32.4200 C   0  0  0  0  0  0  0  0  0  0  0  0
   36.0500   28.4100   31.3870 C   0  0  0  0  0  0  0  0  0  0  0  0
   36.7140   32.1650   31.2660 H   0  0  0  0  0  0  0  0  0  0  0  0
   35.4950   31.2560   33.1440 H   0  0  0  0  0  0  0  0  0  0  0  0
   35.0390   28.7820   33.2540 H   0  0  0  0  0  0  0  0  0  0  0  0
   39.7970   31.3110   27.9220 C   0  0  0  0  0  0  0  0  0  0  0  0
   39.1130   30.8090   29.0600 C   0  0  0  0  0  0  0  0  0  0  0  0
   37.7330   30.8340   29.1200 C   0  0  0  0  0  0  0  0  0  0  0  0
   37.0660   31.3580   28.0420 N   0  0  0  0  0  0  0  0  0  0  0  0
   37.7210   31.8320   26.9680 C   0  0  0  0  0  0  0  0  0  0  0  0
   39.0510   31.8090   26.9080 N   0  0  0  0  0  0  0  0  0  0  0  0
   40.8790   31.2680   27.9280 H   0  0  0  0  0  0  0  0  0  0  0  0
   39.6460   30.3940   29.9130 H   0  0  0  0  0  0  0  0  0  0  0  0
   37.1000   32.2260   26.1660 H   0  0  0  0  0  0  0  0  0  0  0  0
   38.7080   22.4430   34.2920 O   0  0  0  0  0  0  0  0  0  0  0  0
   39.9240   22.5310   36.3620 C   0  0  0  0  0  0  0  0  0  0  0  0
   38.7410   22.7230   35.6380 C   0  0  0  0  0  0  0  0  0  0  0  0
   37.6590   23.1960   36.3720 C   0  0  0  0  0  0  0  0  0  0  0  0
   36.7300   23.3520   35.8250 H   0  0  0  0  0  0  0  0  0  0  0  0
   37.7430   23.4620   37.7340 C   0  0  0  0  0  0  0  0  0  0  0  0
   36.8740   23.8300   38.2670 H   0  0  0  0  0  0  0  0  0  0  0  0
   38.9290   23.2600   38.4090 C   0  0  0  0  0  3  0  0  0  0  0  0
   40.0270   22.7900   37.7160 C   0  0  0  0  0  3  0  0  0  0  0  0
   42.0970   21.5960   35.2580 N   0  0  0  0  0  0  0  0  0  0  0  0
   41.1410   22.0190   35.7510 C   0  0  0  0  0  0  0  0  0  0  0  0
  1  9  1  0  0  0  0
  1 10  1  0  0  0  0
  2  1  2  0  0  0  0
  3  4  2  0  0  0  0
  3  2  1  0  0  0  0
  4  8  1  0  0  0  0
  5  6  1  0  0  0  0
  5  4  1  0  0  0  0
  6  7  2  0  0  0  0
  7  8  1  0  0  0  0
  8  9  2  0  0  0  0
  9 37  1  0  0  0  0
 11  3  1  0  0  0  0
 12  5  1  0  0  0  0
 13  6  1  0  0  0  0
 14  2  1  0  0  0  0
 14 15  2  0  0  0  0
 16 14  1  0  0  0  0
 17 16  1  0  0  0  0
 18 19  1  0  0  0  0
 19 24  1  0  0  0  0
 20 19  2  0  0  0  0
 20 21  1  0  0  0  0
 21 22  2  0  0  0  0
 22 23  1  0  0  0  0
 22 26  1  0  0  0  0
 23 27  1  0  0  0  0
 24 16  1  0  0  0  0
 24 23  2  0  0  0  0
 25 21  1  0  0  0  0
 28 34  1  0  0  0  0
 28 29  1  0  0  0  0
 29 30  2  0  0  0  0
 29 35  1  0  0  0  0
 30 20  1  0  0  0  0
 31 30  1  0  0  0  0
 32 31  2  0  0  0  0
 33 32  1  0  0  0  0
 33 28  2  0  0  0  0
 36 32  1  0  0  0  0
 37 39  1  0  0  0  0
 38 45  1  0  0  0  0
 39 38  2  0  0  0  0
 39 40  1  0  0  0  0
 40 42  2  0  0  0  0
 41 40  1  0  0  0  0
 42 43  1  0  0  0  0
 42 44  1  0  0  0  0
 45 44  2  0  0  0  0
 46 47  3  0  0  0  0
 47 38  1  0  0  0  0
M  END
>  <minimizedAffinity>
-6.64963531

$$$$

 OpenBabel03272503143D

 47 51  0  0  0  0  0  0  0  0999 V2000
   36.3400   28.8670   31.7580 C   0  0  0  0  0  0  0  0  0  0  0  0
   37.0480   27.8930   31.0950 C   0  0  0  0  0  0  0  0  0  0  0  0
   37.6450   28.1080   29.8710 C   0  0  0  0  0  0  0  0  0  0  0  0
   37.5320   29.3680   29.2700 C   0  0  0  0  0  0  0  0  0  0  0  0
   37.9870   29.8630   28.1230 N   0  0  0  0  0  0  0  0  0  0  0  0
   37.5880   31.1240   28.0420 C   0  0  0  0  0  0  0  0  0  0  0  0
   36.8730   31.4320   29.1450 N   0  0  0  0  0  0  0  0  0  0  0  0
   36.8160   30.3430   29.9490 C   0  0  0  0  0  0  0  0  0  0  0  0
   36.2150   30.1350   31.1740 C   0  0  0  0  0  0  0  0  0  0  0  0
   35.9050   28.6230   32.7350 H   0  0  0  0  0  0  0  0  0  0  0  0
   38.1970   27.3360   29.3600 H   0  0  0  0  0  0  0  0  0  0  0  0
   38.5600   29.3480   27.4100 H   0  0  0  0  0  0  0  0  0  0  0  0
   37.8110   31.7870   27.2070 H   0  0  0  0  0  0  0  0  0  0  0  0
   37.1550   26.5970   31.7260 C   0  0  0  0  0  0  0  0  0  0  0  0
   36.1110   26.1180   32.3010 O   0  0  0  0  0  0  0  0  0  0  0  0
   38.3060   25.7870   31.7800 N   0  0  0  0  0  0  0  0  0  0  0  0
   39.1630   26.1460   31.3250 H   0  0  0  0  0  0  0  0  0  0  0  0
   38.8310   25.5740   34.4450 F   0  0  0  0  0  0  0  0  0  0  0  0
   38.3760   24.4560   33.8310 C   0  0  0  0  0  0  0  0  0  0  0  0
   38.2010   23.3040   34.5380 C   0  0  0  0  0  0  0  0  0  0  0  0
   37.7370   22.2100   33.8450 C   0  0  0  0  0  0  0  0  0  0  0  0
   37.4530   22.2490   32.5050 C   0  0  0  0  0  0  0  0  0  0  0  0
   37.6380   23.4380   31.7990 C   0  0  0  0  0  0  0  0  0  0  0  0
   38.1050   24.5480   32.4800 C   0  0  0  0  0  0  0  0  0  0  0  0
   37.5960   21.2910   34.4000 H   0  0  0  0  0  0  0  0  0  0  0  0
   37.0920   21.3420   32.0380 H   0  0  0  0  0  0  0  0  0  0  0  0
   37.4170   23.4760   30.7410 H   0  0  0  0  0  0  0  0  0  0  0  0
   39.9440   22.7810   37.8650 C   0  0  0  0  0  0  0  0  0  0  0  0
   39.6720   22.7470   36.4730 C   0  0  0  0  0  0  0  0  0  0  0  0
   38.5190   23.3180   35.9670 C   0  0  0  0  0  0  0  0  0  0  0  0
   37.6650   23.9090   36.8620 N   0  0  0  0  0  0  0  0  0  0  0  0
   37.9300   23.9360   38.1800 C   0  0  0  0  0  0  0  0  0  0  0  0
   39.0410   23.3870   38.6700 N   0  0  0  0  0  0  0  0  0  0  0  0
   40.8630   22.3180   38.2070 H   0  0  0  0  0  0  0  0  0  0  0  0
   40.3520   22.2770   35.7660 H   0  0  0  0  0  0  0  0  0  0  0  0
   37.1900   24.4300   38.8060 H   0  0  0  0  0  0  0  0  0  0  0  0
   35.5060   31.1080   31.8290 O   0  0  0  0  0  0  0  0  0  0  0  0
   36.4580   32.7570   33.2940 C   0  0  0  0  0  0  0  0  0  0  0  0
   35.7440   31.5680   33.1030 C   0  0  0  0  0  0  0  0  0  0  0  0
   35.3230   30.9290   34.2640 C   0  0  0  0  0  0  0  0  0  0  0  0
   34.7650   30.0010   34.1340 H   0  0  0  0  0  0  0  0  0  0  0  0
   35.5910   31.4350   35.5310 C   0  0  0  0  0  0  0  0  0  0  0  0
   35.2420   30.9030   36.4090 H   0  0  0  0  0  0  0  0  0  0  0  0
   36.2970   32.6110   35.6730 C   0  0  0  0  0  3  0  0  0  0  0  0
   36.7330   33.2760   34.5450 C   0  0  0  0  0  3  0  0  0  0  0  0
   37.4250   34.1650   31.3200 N   0  0  0  0  0  0  0  0  0  0  0  0
   36.9900   33.5360   32.1860 C   0  0  0  0  0  0  0  0  0  0  0  0
  1 10  1  0  0  0  0
  2 14  1  0  0  0  0
  2  1  2  0  0  0  0
  3  2  1  0  0  0  0
  4  3  2  0  0  0  0
  4  8  1  0  0  0  0
  5  4  1  0  0  0  0
  6  5  1  0  0  0  0
  6  7  2  0  0  0  0
  7  8  1  0  0  0  0
  8  9  2  0  0  0  0
  9  1  1  0  0  0  0
  9 37  1  0  0  0  0
 11  3  1  0  0  0  0
 12  5  1  0  0  0  0
 13  6  1  0  0  0  0
 14 16  1  0  0  0  0
 14 15  2  0  0  0  0
 16 24  1  0  0  0  0
 17 16  1  0  0  0  0
 19 18  1  0  0  0  0
 19 20  1  0  0  0  0
 20 30  1  0  0  0  0
 21 25  1  0  0  0  0
 21 20  2  0  0  0  0
 22 21  1  0  0  0  0
 23 24  1  0  0  0  0
 23 22  2  0  0  0  0
 24 19  2  0  0  0  0
 26 22  1  0  0  0  0
 27 23  1  0  0  0  0
 28 34  1  0  0  0  0
 28 33  1  0  0  0  0
 29 28  2  0  0  0  0
 30 29  1  0  0  0  0
 30 31  2  0  0  0  0
 31 32  1  0  0  0  0
 32 33  2  0  0  0  0
 32 36  1  0  0  0  0
 35 29  1  0  0  0  0
 37 39  1  0  0  0  0
 38 45  1  0  0  0  0
 39 38  2  0  0  0  0
 39 40  1  0  0  0  0
 40 42  2  0  0  0  0
 41 40  1  0  0  0  0
 42 44  1  0  0  0  0
 42 43  1  0  0  0  0
 45 44  2  0  0  0  0
 46 47  3  0  0  0  0
 47 38  1  0  0  0  0
M  END
>  <minimizedAffinity>
-6.57582378

$$$$

 OpenBabel03272503143D

 47 51  0  0  0  0  0  0  0  0999 V2000
   36.2990   28.9380   31.8380 C   0  0  0  0  0  0  0  0  0  0  0  0
   36.9960   27.9820   31.1390 C   0  0  0  0  0  0  0  0  0  0  0  0
   37.5660   28.2260   29.9070 C   0  0  0  0  0  0  0  0  0  0  0  0
   37.4360   29.4980   29.3370 C   0  0  0  0  0  0  0  0  0  0  0  0
   37.8650   30.0200   28.1920 N   0  0  0  0  0  0  0  0  0  0  0  0
   37.4600   31.2810   28.1470 C   0  0  0  0  0  0  0  0  0  0  0  0
   36.7670   31.5620   29.2720 N   0  0  0  0  0  0  0  0  0  0  0  0
   36.7310   30.4550   30.0530 C   0  0  0  0  0  0  0  0  0  0  0  0
   36.1570   30.2180   31.2850 C   0  0  0  0  0  0  0  0  0  0  0  0
   35.8850   28.6700   32.8190 H   0  0  0  0  0  0  0  0  0  0  0  0
   38.1100   27.4670   29.3690 H   0  0  0  0  0  0  0  0  0  0  0  0
   38.4250   29.5230   27.4560 H   0  0  0  0  0  0  0  0  0  0  0  0
   37.6640   31.9630   27.3230 H   0  0  0  0  0  0  0  0  0  0  0  0
   37.1200   26.6720   31.7390 C   0  0  0  0  0  0  0  0  0  0  0  0
   36.0800   26.1600   32.2900 O   0  0  0  0  0  0  0  0  0  0  0  0
   38.2860   25.8830   31.7850 N   0  0  0  0  0  0  0  0  0  0  0  0
   39.1410   26.2680   31.3490 H   0  0  0  0  0  0  0  0  0  0  0  0
   38.7680   25.6170   34.4530 F   0  0  0  0  0  0  0  0  0  0  0  0
   38.3500   24.5050   33.8050 C   0  0  0  0  0  0  0  0  0  0  0  0
   38.1890   23.3330   34.4810 C   0  0  0  0  0  0  0  0  0  0  0  0
   37.7630   22.2460   33.7540 C   0  0  0  0  0  0  0  0  0  0  0  0
   37.5020   22.3100   32.4110 C   0  0  0  0  0  0  0  0  0  0  0  0
   37.6720   23.5190   31.7360 C   0  0  0  0  0  0  0  0  0  0  0  0
   38.1010   24.6230   32.4520 C   0  0  0  0  0  0  0  0  0  0  0  0
   37.6320   21.3100   34.2850 H   0  0  0  0  0  0  0  0  0  0  0  0
   37.1700   21.4070   31.9160 H   0  0  0  0  0  0  0  0  0  0  0  0
   37.4680   23.5780   30.6750 H   0  0  0  0  0  0  0  0  0  0  0  0
   37.8980   23.7460   38.2400 C   0  0  0  0  0  0  0  0  0  0  0  0
   37.5780   23.7750   36.8580 C   0  0  0  0  0  0  0  0  0  0  0  0
   38.4810   23.3190   35.9160 C   0  0  0  0  0  0  0  0  0  0  0  0
   39.6820   22.8430   36.3760 N   0  0  0  0  0  0  0  0  0  0  0  0
   39.9780   22.8190   37.6870 C   0  0  0  0  0  0  0  0  0  0  0  0
   39.1100   23.2580   38.5960 N   0  0  0  0  0  0  0  0  0  0  0  0
   37.1540   24.1160   38.9350 H   0  0  0  0  0  0  0  0  0  0  0  0
   36.6240   24.1540   36.4970 H   0  0  0  0  0  0  0  0  0  0  0  0
   40.9570   22.4220   37.9480 H   0  0  0  0  0  0  0  0  0  0  0  0
   35.4590   31.1730   31.9760 O   0  0  0  0  0  0  0  0  0  0  0  0
   35.5800   31.6700   34.3240 C   0  0  0  0  0  0  0  0  0  0  0  0
   35.9440   31.9510   33.0010 C   0  0  0  0  0  0  0  0  0  0  0  0
   36.7950   33.0380   32.8330 C   0  0  0  0  0  0  0  0  0  0  0  0
   37.0890   33.2720   31.8100 H   0  0  0  0  0  0  0  0  0  0  0  0
   37.2560   33.7950   33.9040 C   0  0  0  0  0  0  0  0  0  0  0  0
   37.9200   34.6340   33.7260 H   0  0  0  0  0  0  0  0  0  0  0  0
   36.8730   33.4810   35.1910 C   0  0  0  0  0  3  0  0  0  0  0  0
   36.0280   32.4100   35.4010 C   0  0  0  0  0  3  0  0  0  0  0  0
   33.9470   29.7260   34.9330 N   0  0  0  0  0  0  0  0  0  0  0  0
   34.6770   30.5830   34.6720 C   0  0  0  0  0  0  0  0  0  0  0  0
  1 10  1  0  0  0  0
  2 14  1  0  0  0  0
  2  1  2  0  0  0  0
  3  2  1  0  0  0  0
  4  3  2  0  0  0  0
  4  8  1  0  0  0  0
  5  4  1  0  0  0  0
  6  5  1  0  0  0  0
  6  7  2  0  0  0  0
  7  8  1  0  0  0  0
  8  9  2  0  0  0  0
  9  1  1  0  0  0  0
  9 37  1  0  0  0  0
 11  3  1  0  0  0  0
 12  5  1  0  0  0  0
 13  6  1  0  0  0  0
 14 16  1  0  0  0  0
 14 15  2  0  0  0  0
 16 24  1  0  0  0  0
 17 16  1  0  0  0  0
 19 18  1  0  0  0  0
 19 20  1  0  0  0  0
 20 30  1  0  0  0  0
 21 25  1  0  0  0  0
 21 20  2  0  0  0  0
 22 21  1  0  0  0  0
 23 22  2  0  0  0  0
 23 24  1  0  0  0  0
 24 19  2  0  0  0  0
 26 22  1  0  0  0  0
 27 23  1  0  0  0  0
 28 33  1  0  0  0  0
 28 34  1  0  0  0  0
 29 28  2  0  0  0  0
 30 31  2  0  0  0  0
 30 29  1  0  0  0  0
 31 32  1  0  0  0  0
 32 36  1  0  0  0  0
 32 33  2  0  0  0  0
 35 29  1  0  0  0  0
 37 39  1  0  0  0  0
 38 47  1  0  0  0  0
 38 45  1  0  0  0  0
 39 38  2  0  0  0  0
 40 39  1  0  0  0  0
 40 42  2  0  0  0  0
 41 40  1  0  0  0  0
 42 44  1  0  0  0  0
 43 42  1  0  0  0  0
 44 45  2  0  0  0  0
 47 46  3  0  0  0  0
M  END
>  <minimizedAffinity>
-6.56325626

$$$$

 OpenBabel03272503143D

 47 51  0  0  0  0  0  0  0  0999 V2000
   36.6240   28.2000   34.1000 C   0  0  0  0  0  0  0  0  0  0  0  0
   37.4480   27.1640   33.7310 C   0  0  0  0  0  0  0  0  0  0  0  0
   37.8290   26.9430   32.4240 C   0  0  0  0  0  0  0  0  0  0  0  0
   37.3630   27.8060   31.4250 C   0  0  0  0  0  0  0  0  0  0  0  0
   37.5540   27.8460   30.1100 N   0  0  0  0  0  0  0  0  0  0  0  0
   36.8730   28.8800   29.6360 C   0  0  0  0  0  0  0  0  0  0  0  0
   36.2450   29.5010   30.6570 N   0  0  0  0  0  0  0  0  0  0  0  0
   36.5330   28.8480   31.8100 C   0  0  0  0  0  0  0  0  0  0  0  0
   36.1460   29.0750   33.1150 C   0  0  0  0  0  0  0  0  0  0  0  0
   36.3760   28.3170   35.1630 H   0  0  0  0  0  0  0  0  0  0  0  0
   38.4750   26.1270   32.1470 H   0  0  0  0  0  0  0  0  0  0  0  0
   38.1380   27.1800   29.5470 H   0  0  0  0  0  0  0  0  0  0  0  0
   36.8390   29.1640   28.5840 H   0  0  0  0  0  0  0  0  0  0  0  0
   37.9190   26.2800   34.7740 C   0  0  0  0  0  0  0  0  0  0  0  0
   38.6530   26.7790   35.7020 O   0  0  0  0  0  0  0  0  0  0  0  0
   37.6530   24.9010   34.8820 N   0  0  0  0  0  0  0  0  0  0  0  0
   37.0630   24.4700   34.1500 H   0  0  0  0  0  0  0  0  0  0  0  0
   40.1170   23.7480   34.7240 F   0  0  0  0  0  0  0  0  0  0  0  0
   39.5110   23.7070   35.9340 C   0  0  0  0  0  0  0  0  0  0  0  0
   40.1270   23.1130   36.9940 C   0  0  0  0  0  0  0  0  0  0  0  0
   39.4490   23.1090   38.1910 C   0  0  0  0  0  0  0  0  0  0  0  0
   38.2080   23.6710   38.3390 C   0  0  0  0  0  0  0  0  0  0  0  0
   37.5930   24.2740   37.2420 C   0  0  0  0  0  0  0  0  0  0  0  0
   38.2610   24.2870   36.0310 C   0  0  0  0  0  0  0  0  0  0  0  0
   39.9330   22.6390   39.0380 H   0  0  0  0  0  0  0  0  0  0  0  0
   37.7440   23.6240   39.3160 H   0  0  0  0  0  0  0  0  0  0  0  0
   36.6130   24.7200   37.3510 H   0  0  0  0  0  0  0  0  0  0  0  0
   42.9890   20.6440   36.6860 C   0  0  0  0  0  0  0  0  0  0  0  0
   41.6900   21.1720   36.9000 C   0  0  0  0  0  0  0  0  0  0  0  0
   41.4530   22.5290   36.7810 C   0  0  0  0  0  0  0  0  0  0  0  0
   42.5180   23.3260   36.4510 N   0  0  0  0  0  0  0  0  0  0  0  0
   43.7470   22.8180   36.2500 C   0  0  0  0  0  0  0  0  0  0  0  0
   43.9780   21.5110   36.3640 N   0  0  0  0  0  0  0  0  0  0  0  0
   43.1190   19.5730   36.7920 H   0  0  0  0  0  0  0  0  0  0  0  0
   40.8470   20.5360   37.1620 H   0  0  0  0  0  0  0  0  0  0  0  0
   44.5240   23.5350   35.9910 H   0  0  0  0  0  0  0  0  0  0  0  0
   35.3210   30.1070   33.4770 O   0  0  0  0  0  0  0  0  0  0  0  0
   32.9200   30.1630   33.4230 C   0  0  0  0  0  0  0  0  0  0  0  0
   34.1570   30.4770   32.8470 C   0  0  0  0  0  0  0  0  0  0  0  0
   34.0970   31.1590   31.6360 C   0  0  0  0  0  0  0  0  0  0  0  0
   35.0510   31.4120   31.1720 H   0  0  0  0  0  0  0  0  0  0  0  0
   32.8920   31.5090   31.0370 C   0  0  0  0  0  0  0  0  0  0  0  0
   32.8930   32.0420   30.0930 H   0  0  0  0  0  0  0  0  0  0  0  0
   31.6960   31.1810   31.6410 C   0  0  0  0  0  3  0  0  0  0  0  0
   31.7120   30.5030   32.8430 C   0  0  0  0  0  3  0  0  0  0  0  0
   32.7260   28.8350   35.6620 N   0  0  0  0  0  0  0  0  0  0  0  0
   32.8040   29.4310   34.6750 C   0  0  0  0  0  0  0  0  0  0  0  0
  1 10  1  0  0  0  0
  2  1  1  0  0  0  0
  2 14  1  0  0  0  0
  3  2  2  0  0  0  0
  4  8  2  0  0  0  0
  4  3  1  0  0  0  0
  5  4  1  0  0  0  0
  6  5  1  0  0  0  0
  6  7  2  0  0  0  0
  7  8  1  0  0  0  0
  8  9  1  0  0  0  0
  9 37  1  0  0  0  0
  9  1  2  0  0  0  0
 11  3  1  0  0  0  0
 12  5  1  0  0  0  0
 13  6  1  0  0  0  0
 14 16  1  0  0  0  0
 14 15  2  0  0  0  0
 16 24  1  0  0  0  0
 17 16  1  0  0  0  0
 18 19  1  0  0  0  0
 19 24  2  0  0  0  0
 19 20  1  0  0  0  0
 20 21  2  0  0  0  0
 21 22  1  0  0  0  0
 21 25  1  0  0  0  0
 22 26  1  0  0  0  0
 23 27  1  0  0  0  0
 23 22  2  0  0  0  0
 24 23  1  0  0  0  0
 28 34  1  0  0  0  0
 28 29  1  0  0  0  0
 29 35  1  0  0  0  0
 30 29  2  0  0  0  0
 30 20  1  0  0  0  0
 31 30  1  0  0  0  0
 32 33  1  0  0  0  0
 32 31  2  0  0  0  0
 33 28  2  0  0  0  0
 36 32  1  0  0  0  0
 38 47  1  0  0  0  0
 39 38  1  0  0  0  0
 39 37  1  0  0  0  0
 40 39  2  0  0  0  0
 41 40  1  0  0  0  0
 42 40  1  0  0  0  0
 42 44  2  0  0  0  0
 43 42  1  0  0  0  0
 44 45  1  0  0  0  0
 45 38  2  0  0  0  0
 47 46  3  0  0  0  0
M  END
>  <minimizedAffinity>
-6.53139067

$$$$
