
 OpenBabel03272501583D

 32 34  0  0  0  0  0  0  0  0999 V2000
   32.9640   27.9130   47.9930 C   0  0  0  0  0  0  0  0  0  0  0  0
   31.9280   27.8110   48.8790 C   0  0  0  0  0  0  0  0  0  0  0  0
   30.7280   27.7960   48.2110 C   0  0  0  0  0  0  0  0  0  0  0  0
   31.0590   27.8910   46.9080 N   0  0  0  0  0  0  0  0  0  0  0  0
   32.3900   27.9610   46.7870 N   0  0  0  0  0  0  0  0  0  0  0  0
   32.0220   27.7480   49.9710 H   0  0  0  0  0  0  0  0  0  0  0  0
   29.7070   27.7270   48.5620 H   0  0  0  0  0  0  0  0  0  0  0  0
   30.1650   29.0150   44.9020 C   0  0  0  0  0  0  0  0  0  0  0  0
   30.2490   27.9270   45.7300 C   0  0  0  0  0  0  0  0  0  0  0  0
   29.4890   26.8140   45.3650 C   0  0  0  0  0  0  0  0  0  0  0  0
   29.5700   25.9630   46.0330 H   0  0  0  0  0  0  0  0  0  0  0  0
   28.6760   26.7370   44.2520 C   0  0  0  0  0  0  0  0  0  0  0  0
   28.1500   25.8050   44.1050 H   0  0  0  0  0  0  0  0  0  0  0  0
   28.6150   27.8560   43.4380 C   0  0  0  0  0  3  0  0  0  0  0  0
   29.3650   28.9800   43.7810 C   0  0  0  0  0  3  0  0  0  0  0  0
   31.4980   31.1460   45.4160 N   0  0  0  0  0  0  0  0  0  0  0  0
   30.9020   30.1860   45.1960 C   0  0  0  0  0  0  0  0  0  0  0  0
   34.4390   27.9610   48.3120 C   0  0  0  0  0  0  0  0  0  0  0  0
   34.8960   28.6860   47.6430 H   0  0  0  0  0  0  0  0  0  0  0  0
   34.8610   26.9510   48.1480 H   0  0  0  0  0  0  0  0  0  0  0  0
   34.5270   28.4000   49.7510 C   0  0  0  0  0  0  0  0  0  0  0  0
   34.6210   27.5140   50.4270 H   0  0  0  0  0  0  0  0  0  0  0  0
   33.6330   28.9540   50.1060 H   0  0  0  0  0  0  0  0  0  0  0  0
   37.3300   30.1940   51.3560 C   0  0  0  0  0  0  0  0  0  0  0  0
   38.0750   30.6390   50.2500 C   0  0  0  0  0  0  0  0  0  0  0  0
   37.6060   30.3190   48.9730 C   0  0  0  0  0  0  0  0  0  0  0  0
   36.4590   29.5960   48.8560 N   0  0  0  0  0  0  0  0  0  0  0  0
   35.7750   29.1890   49.9560 C   0  0  0  0  0  0  0  0  0  0  0  0
   36.2160   29.4900   51.1770 N   0  0  0  0  0  0  0  0  0  0  0  0
   37.7610   30.4840   52.3010 H   0  0  0  0  0  0  0  0  0  0  0  0
   38.9840   31.2100   50.2230 H   0  0  0  0  0  0  0  0  0  0  0  0
   38.0660   30.5890   48.0310 H   0  0  0  0  0  0  0  0  0  0  0  0
  1 18  1  0  0  0  0
  1  2  1  0  0  0  0
  2  6  1  0  0  0  0
  3  7  1  0  0  0  0
  3  2  2  0  0  0  0
  4  3  1  0  0  0  0
  5  4  1  0  0  0  0
  5  1  2  0  0  0  0
  8 17  1  0  0  0  0
  8  9  1  0  0  0  0
  9  4  1  0  0  0  0
 10  9  2  0  0  0  0
 10 11  1  0  0  0  0
 12 10  1  0  0  0  0
 13 12  1  0  0  0  0
 14 15  1  0  0  0  0
 14 12  2  0  0  0  0
 15  8  2  0  0  0  0
 17 16  3  0  0  0  0
 18 21  1  0  0  0  0
 19 18  1  0  0  0  0
 20 18  1  0  0  0  0
 21 28  1  0  0  0  0
 21 23  1  0  0  0  0
 21 22  1  0  0  0  0
 24 30  1  0  0  0  0
 25 24  2  0  0  0  0
 26 25  1  0  0  0  0
 27 26  2  0  0  0  0
 27 28  1  0  0  0  0
 28 29  2  0  0  0  0
 29 24  1  0  0  0  0
 31 25  1  0  0  0  0
 32 26  1  0  0  0  0
M  END
>  <minimizedAffinity>
-4.40274048

>  <minimizedRMSD>
1.35063827

$$$$
