
 OpenBabel03272510303D

 29 31  0  0  0  0  0  0  0  0999 V2000
   37.4530   31.4460   49.5160 C   0  0  0  0  0  0  0  0  0  0  0  0
   37.9280   32.7110   49.8620 C   0  0  0  0  0  0  0  0  0  0  0  0
   38.7240   33.3210   48.9290 C   0  0  0  0  0  0  0  0  0  0  0  0
   39.0170   32.6990   47.7320 N   0  0  0  0  0  0  0  0  0  0  0  0
   38.5190   31.4510   47.4410 C   0  0  0  0  0  0  0  0  0  0  0  0
   37.7310   30.8400   48.3630 N   0  0  0  0  0  0  0  0  0  0  0  0
   37.6700   33.1540   50.8130 H   0  0  0  0  0  0  0  0  0  0  0  0
   39.1360   34.3040   49.1190 H   0  0  0  0  0  0  0  0  0  0  0  0
   36.5440   30.7320   50.4850 C   0  0  0  0  0  0  0  0  0  0  0  0
   36.4440   29.2970   50.5640 C   0  0  0  0  0  0  0  0  0  0  0  0
   37.3290   29.9950   51.5760 C   0  0  0  0  0  0  0  0  0  0  0  0
   35.7010   31.3680   50.8440 H   0  0  0  0  0  0  0  0  0  0  0  0
   37.0660   28.7100   49.8230 H   0  0  0  0  0  0  0  0  0  0  0  0
   35.5250   28.8330   50.9330 H   0  0  0  0  0  0  0  0  0  0  0  0
   38.4180   29.9500   51.5010 H   0  0  0  0  0  0  0  0  0  0  0  0
   36.9390   30.1620   52.5820 H   0  0  0  0  0  0  0  0  0  0  0  0
   38.8040   30.7920   46.1800 C   0  0  0  0  0  0  0  0  0  0  0  0
   38.8460   29.6980   46.3220 H   0  0  0  0  0  0  0  0  0  0  0  0
   39.8160   31.1300   45.8160 H   0  0  0  0  0  0  0  0  0  0  0  0
   38.0280   32.1500   44.2270 C   0  0  0  0  0  0  0  0  0  0  0  0
   37.8070   31.1150   45.1030 C   0  0  0  0  0  0  0  0  0  0  0  0
   36.6410   30.3540   44.9760 C   0  0  0  0  0  0  0  0  0  0  0  0
   36.4280   29.5290   45.6480 H   0  0  0  0  0  0  0  0  0  0  0  0
   35.7430   30.6610   43.9740 C   0  0  0  0  0  0  0  0  0  0  0  0
   34.8070   30.1140   43.8070 H   0  0  0  0  0  0  0  0  0  0  0  0
   35.9620   31.6960   43.0960 C   0  0  0  0  0  3  0  0  0  0  0  0
   37.1110   32.4530   43.2130 C   0  0  0  0  0  3  0  0  0  0  0  0
   40.1490   33.6530   44.3610 N   0  0  0  0  0  0  0  0  0  0  0  0
   39.2040   32.9920   44.2950 C   0  0  0  0  0  0  0  0  0  0  0  0
  1  2  1  0  0  0  0
  1  9  1  0  0  0  0
  2  7  1  0  0  0  0
  3  8  1  0  0  0  0
  3  2  2  0  0  0  0
  4  3  1  0  0  0  0
  5  4  2  0  0  0  0
  5  6  1  0  0  0  0
  6  1  2  0  0  0  0
  9 10  1  0  0  0  0
  9 12  1  0  0  0  0
  9 11  1  0  0  0  0
 10 14  1  0  0  0  0
 10 11  1  0  0  0  0
 11 16  1  0  0  0  0
 13 10  1  0  0  0  0
 15 11  1  0  0  0  0
 17 18  1  0  0  0  0
 17  5  1  0  0  0  0
 19 17  1  0  0  0  0
 20 29  1  0  0  0  0
 20 21  1  0  0  0  0
 21 17  1  0  0  0  0
 22 21  2  0  0  0  0
 22 23  1  0  0  0  0
 24 22  1  0  0  0  0
 25 24  1  0  0  0  0
 26 27  1  0  0  0  0
 26 24  2  0  0  0  0
 27 20  2  0  0  0  0
 29 28  3  0  0  0  0
M  END
>  <minimizedAffinity>
-5.45581627

>  <minimizedRMSD>
0.594245911

$$$$
