
 OpenBabel03272510303D

 29 31  0  0  0  0  0  0  0  0999 V2000
   37.4690   31.1410   48.8470 C   0  0  0  0  0  0  0  0  0  0  0  0
   37.9360   32.3760   49.2990 C   0  0  0  0  0  0  0  0  0  0  0  0
   38.8530   32.9940   48.4900 C   0  0  0  0  0  0  0  0  0  0  0  0
   39.2650   32.4110   47.3100 N   0  0  0  0  0  0  0  0  0  0  0  0
   38.7700   31.1910   46.9110 C   0  0  0  0  0  0  0  0  0  0  0  0
   37.8630   30.5710   47.7090 N   0  0  0  0  0  0  0  0  0  0  0  0
   37.5810   32.7900   50.2310 H   0  0  0  0  0  0  0  0  0  0  0  0
   39.2660   33.9560   48.7680 H   0  0  0  0  0  0  0  0  0  0  0  0
   36.4340   30.4210   49.6730 C   0  0  0  0  0  0  0  0  0  0  0  0
   36.1920   29.0040   49.5760 C   0  0  0  0  0  0  0  0  0  0  0  0
   37.0710   29.4890   50.7120 C   0  0  0  0  0  0  0  0  0  0  0  0
   35.6340   31.0960   50.0580 H   0  0  0  0  0  0  0  0  0  0  0  0
   36.8030   28.4420   48.8070 H   0  0  0  0  0  0  0  0  0  0  0  0
   35.2100   28.5970   49.8370 H   0  0  0  0  0  0  0  0  0  0  0  0
   38.1520   29.3410   50.6920 H   0  0  0  0  0  0  0  0  0  0  0  0
   36.6320   29.5820   51.7070 H   0  0  0  0  0  0  0  0  0  0  0  0
   39.1820   30.5730   45.6650 C   0  0  0  0  0  0  0  0  0  0  0  0
   39.1880   29.4740   45.7680 H   0  0  0  0  0  0  0  0  0  0  0  0
   40.2340   30.9010   45.4290 H   0  0  0  0  0  0  0  0  0  0  0  0
   38.1190   30.0870   43.4510 C   0  0  0  0  0  0  0  0  0  0  0  0
   38.3170   30.9570   44.4980 C   0  0  0  0  0  0  0  0  0  0  0  0
   37.6910   32.2070   44.4680 C   0  0  0  0  0  0  0  0  0  0  0  0
   37.8210   32.9220   45.2740 H   0  0  0  0  0  0  0  0  0  0  0  0
   36.8930   32.5360   43.3930 C   0  0  0  0  0  0  0  0  0  0  0  0
   36.3690   33.4940   43.2950 H   0  0  0  0  0  0  0  0  0  0  0  0
   36.6940   31.6670   42.3460 C   0  0  0  0  0  3  0  0  0  0  0  0
   37.3070   30.4300   42.3640 C   0  0  0  0  0  3  0  0  0  0  0  0
   39.2340   27.7360   43.3710 N   0  0  0  0  0  0  0  0  0  0  0  0
   38.7360   28.7790   43.3990 C   0  0  0  0  0  0  0  0  0  0  0  0
  1  2  1  0  0  0  0
  1  9  1  0  0  0  0
  2  7  1  0  0  0  0
  3  8  1  0  0  0  0
  3  2  2  0  0  0  0
  4  3  1  0  0  0  0
  5  4  2  0  0  0  0
  5  6  1  0  0  0  0
  6  1  2  0  0  0  0
  9 12  1  0  0  0  0
  9 11  1  0  0  0  0
 10  9  1  0  0  0  0
 10 14  1  0  0  0  0
 10 11  1  0  0  0  0
 11 16  1  0  0  0  0
 13 10  1  0  0  0  0
 15 11  1  0  0  0  0
 17 18  1  0  0  0  0
 17  5  1  0  0  0  0
 19 17  1  0  0  0  0
 20 21  1  0  0  0  0
 21 17  1  0  0  0  0
 22 21  2  0  0  0  0
 22 23  1  0  0  0  0
 24 22  1  0  0  0  0
 25 24  1  0  0  0  0
 26 27  1  0  0  0  0
 26 24  2  0  0  0  0
 27 20  2  0  0  0  0
 28 29  3  0  0  0  0
 29 20  1  0  0  0  0
M  END
>  <minimizedAffinity>
-5.13839531

>  <minimizedRMSD>
0.52674365

$$$$
