
     RDKit          3D

 35 37  0  0  0  0  0  0  0  0999 V2000
   38.4541   30.4353   47.3076 F   0  0  0  0  0  0  0  0  0  0  0  0
   38.7562   31.6734   47.7869 C   0  0  0  0  0  0  0  0  0  0  0  0
   38.2325   32.0846   48.9910 C   0  0  0  0  0  0  0  0  0  0  0  0
   38.5716   33.3329   49.4165 C   0  0  0  0  0  0  0  0  0  0  0  0
   39.3963   34.1757   48.7052 C   0  0  0  0  0  0  0  0  0  0  0  0
   39.9114   33.7440   47.4979 C   0  0  0  0  0  0  0  0  0  0  0  0
   39.5858   32.4764   47.0346 C   0  0  0  0  0  0  0  0  0  0  0  0
   36.9281   29.5975   51.5320 C   0  0  0  0  0  0  0  0  0  0  0  0
   37.7865   30.4883   50.8574 C   0  0  0  0  0  0  0  0  0  0  0  0
   37.3600   31.1502   49.7168 C   0  0  0  0  0  0  0  0  0  0  0  0
   36.0932   30.9049   49.2875 N   0  0  0  0  0  0  0  0  0  0  0  0
   35.2846   30.0523   49.9424 C   0  0  0  0  0  0  0  0  0  0  0  0
   35.6836   29.4086   51.0381 N   0  0  0  0  0  0  0  0  0  0  0  0
   39.1928   32.1656   44.6844 C   0  0  0  0  0  0  0  0  0  0  0  0
   38.0713   32.7200   44.9811 O   0  0  0  0  0  0  0  0  0  0  0  0
   40.1000   31.9933   45.7924 N   0  0  0  0  0  0  0  0  0  0  0  0
   38.1610   33.6754   50.3739 H   0  0  0  0  0  0  0  0  0  0  0  0
   39.6416   35.1636   49.0931 H   0  0  0  0  0  0  0  0  0  0  0  0
   40.5632   34.3607   46.8957 H   0  0  0  0  0  0  0  0  0  0  0  0
   37.4466   29.1882   52.3892 H   0  0  0  0  0  0  0  0  0  0  0  0
   38.8109   30.7291   51.1495 H   0  0  0  0  0  0  0  0  0  0  0  0
   34.2803   29.8160   49.6540 H   0  0  0  0  0  0  0  0  0  0  0  0
   40.9883   31.5463   45.5218 H   0  0  0  0  0  0  0  0  0  0  0  0
   35.8539   31.8187   43.6432 N   0  0  0  0  0  0  0  0  0  0  0  0
   36.8996   31.7028   43.1698 C   0  0  0  0  0  0  0  0  0  0  0  0
   38.2267   31.5777   42.5849 C   0  0  0  0  0  0  0  0  0  0  0  0
   39.3865   31.7959   43.2904 C   0  0  0  0  0  0  0  0  0  0  0  0
   40.6457   31.6785   42.7465 C   0  0  0  0  0  0  0  0  0  0  0  0
   41.5291   31.8547   43.3271 H   0  0  0  0  0  0  0  0  0  0  0  0
   40.6512   31.3118   41.3986 C   0  0  0  0  0  0  0  0  0  0  0  0
   41.6197   31.2037   40.9010 H   0  0  0  0  0  0  0  0  0  0  0  0
   39.5151   31.0885   40.6727 C   0  0  0  0  0  0  0  0  0  0  0  0
   38.2521   31.2163   41.2501 C   0  0  0  0  0  0  0  0  0  0  0  0
   39.6056   30.8067   39.6396 H   0  0  0  0  0  0  0  0  0  0  0  0
   37.4195   31.0232   40.6031 H   0  0  0  0  0  0  0  0  0  0  0  0
  1  2  1  0
  2  3  2  0
  3  4  1  0
  3 10  1  0
  5  4  2  0
  6  5  1  0
  7  6  2  0
  7  2  1  0
  9  8  2  0
 10  9  1  0
 11 10  2  0
 11 12  1  0
 12 13  2  0
 13  8  1  0
 14 15  2  0
 14 16  1  0
 16  7  1  0
  4 17  1  0
  5 18  1  0
  6 19  1  0
  8 20  1  0
  9 21  1  0
 12 22  1  0
 16 23  1  0
 24 25  3  0
 25 26  1  0
 26 27  2  0
 27 28  1  0
 28 29  1  0
 28 30  2  0
 30 31  1  0
 30 32  1  0
 32 33  2  0
 33 26  1  0
 32 34  1  0
 33 35  1  0
 14 27  1  0
M  ISO  8  17  14  18  14  19  14  20  14  21  14  22  14  29  15  31  16
M  END
>  <DihAtoms>  (1) 
14,13,26,25

>  <DihDeg>  (1) 
80.05875391840743

$$$$
