
 OpenBabel03272510303D

 29 31  0  0  0  0  0  0  0  0999 V2000
   37.5190   31.4930   49.3760 C   0  0  0  0  0  0  0  0  0  0  0  0
   37.8840   32.8020   49.6910 C   0  0  0  0  0  0  0  0  0  0  0  0
   38.7150   33.4170   48.7910 C   0  0  0  0  0  0  0  0  0  0  0  0
   39.1430   32.7590   47.6570 N   0  0  0  0  0  0  0  0  0  0  0  0
   38.7490   31.4680   47.3950 C   0  0  0  0  0  0  0  0  0  0  0  0
   37.9280   30.8510   48.2830 N   0  0  0  0  0  0  0  0  0  0  0  0
   37.5210   33.2720   50.5930 H   0  0  0  0  0  0  0  0  0  0  0  0
   39.0470   34.4340   48.9600 H   0  0  0  0  0  0  0  0  0  0  0  0
   36.5800   30.7680   50.3080 C   0  0  0  0  0  0  0  0  0  0  0  0
   36.5370   29.3320   50.4270 C   0  0  0  0  0  0  0  0  0  0  0  0
   37.3230   30.1000   51.4710 C   0  0  0  0  0  0  0  0  0  0  0  0
   35.6880   31.3750   50.5910 H   0  0  0  0  0  0  0  0  0  0  0  0
   37.2320   28.7520   49.7480 H   0  0  0  0  0  0  0  0  0  0  0  0
   35.6170   28.8380   50.7510 H   0  0  0  0  0  0  0  0  0  0  0  0
   38.4150   30.1020   51.4680 H   0  0  0  0  0  0  0  0  0  0  0  0
   36.8600   30.2790   52.4430 H   0  0  0  0  0  0  0  0  0  0  0  0
   39.1780   30.7690   46.1970 C   0  0  0  0  0  0  0  0  0  0  0  0
   38.7140   29.7680   46.1530 H   0  0  0  0  0  0  0  0  0  0  0  0
   40.2950   30.6280   46.2410 H   0  0  0  0  0  0  0  0  0  0  0  0
   37.6160   31.4530   44.3660 C   0  0  0  0  0  0  0  0  0  0  0  0
   38.8680   31.5170   44.9310 C   0  0  0  0  0  0  0  0  0  0  0  0
   39.8510   32.2970   44.3170 C   0  0  0  0  0  0  0  0  0  0  0  0
   40.8510   32.3720   44.7310 H   0  0  0  0  0  0  0  0  0  0  0  0
   39.5430   32.9830   43.1620 C   0  0  0  0  0  0  0  0  0  0  0  0
   40.2570   33.6160   42.6200 H   0  0  0  0  0  0  0  0  0  0  0  0
   38.2910   32.9220   42.5940 C   0  0  0  0  0  3  0  0  0  0  0  0
   37.3120   32.1550   43.1920 C   0  0  0  0  0  3  0  0  0  0  0  0
   35.6960   30.0290   45.3970 N   0  0  0  0  0  0  0  0  0  0  0  0
   36.5440   30.6630   44.9310 C   0  0  0  0  0  0  0  0  0  0  0  0
  1  2  1  0  0  0  0
  1  9  1  0  0  0  0
  2  7  1  0  0  0  0
  3  8  1  0  0  0  0
  3  2  2  0  0  0  0
  4  3  1  0  0  0  0
  5  4  2  0  0  0  0
  5  6  1  0  0  0  0
  6  1  2  0  0  0  0
  9 10  1  0  0  0  0
  9 12  1  0  0  0  0
  9 11  1  0  0  0  0
 10 14  1  0  0  0  0
 10 11  1  0  0  0  0
 11 16  1  0  0  0  0
 13 10  1  0  0  0  0
 15 11  1  0  0  0  0
 17 19  1  0  0  0  0
 17  5  1  0  0  0  0
 18 17  1  0  0  0  0
 20 29  1  0  0  0  0
 20 21  1  0  0  0  0
 21 17  1  0  0  0  0
 22 23  1  0  0  0  0
 22 21  2  0  0  0  0
 24 22  1  0  0  0  0
 25 24  1  0  0  0  0
 26 24  2  0  0  0  0
 26 27  1  0  0  0  0
 27 20  2  0  0  0  0
 29 28  3  0  0  0  0
M  END
>  <minimizedAffinity>
-5.40452385

>  <minimizedRMSD>
1.07088029

$$$$
