
     RDKit          3D

 35 37  0  0  0  0  0  0  0  0999 V2000
   35.6465   29.3271   49.8425 C   0  0  0  0  0  0  0  0  0  0  0  0
   35.7450   30.2827   48.8083 C   0  0  0  0  0  0  0  0  0  0  0  0
   34.9066   30.1622   47.6863 C   0  0  0  0  0  0  0  0  0  0  0  0
   34.0391   29.1216   47.6597 N   0  0  0  0  0  0  0  0  0  0  0  0
   33.9493   28.2276   48.6299 C   0  0  0  0  0  0  0  0  0  0  0  0
   34.7455   28.3299   49.7099 N   0  0  0  0  0  0  0  0  0  0  0  0
   37.6468   30.0556   51.3475 C   0  0  0  0  0  0  0  0  0  0  0  0
   38.2030   30.8360   50.5458 O   0  0  0  0  0  0  0  0  0  0  0  0
   36.4327   29.3652   51.0134 N   0  0  0  0  0  0  0  0  0  0  0  0
   36.7104   31.3321   48.9674 N   0  0  0  0  0  0  0  0  0  0  0  0
   36.5506   32.3347   49.8256 C   0  0  0  0  0  0  0  0  0  0  0  0
   37.5374   33.3178   49.9266 C   0  0  0  0  0  0  0  0  0  0  0  0
   38.6080   33.1466   49.1042 C   0  0  0  0  0  0  0  0  0  0  0  0
   39.4981   34.0486   49.2067 O   0  0  0  0  0  0  0  0  0  0  0  0
   38.8072   32.1624   48.2343 N   0  0  0  0  0  0  0  0  0  0  0  0
   37.8194   31.2390   48.1791 C   0  0  0  0  0  0  0  0  0  0  0  0
   37.9944   30.2839   47.3468 O   0  0  0  0  0  0  0  0  0  0  0  0
   35.0264   30.9162   46.9344 H   0  0  0  0  0  0  0  0  0  0  0  0
   33.2376   27.4018   48.5731 H   0  0  0  0  0  0  0  0  0  0  0  0
   38.1381   29.9379   52.2994 H   0  0  0  0  0  0  0  0  0  0  0  0
   36.1023   28.7860   51.8446 H   0  0  0  0  0  0  0  0  0  0  0  0
   35.6590   32.3876   50.4428 H   0  0  0  0  0  0  0  0  0  0  0  0
   37.4349   34.1316   50.6056 H   0  0  0  0  0  0  0  0  0  0  0  0
   37.9203   33.4359   45.0107 N   0  0  0  0  0  0  0  0  0  0  0  0
   38.8726   32.9958   45.4940 C   0  0  0  0  0  0  0  0  0  0  0  0
   40.0473   32.4318   46.0779 C   0  0  0  0  0  0  0  0  0  0  0  0
   39.9579   32.0477   47.4025 C   0  0  0  0  0  0  0  0  0  0  0  0
   41.0269   31.4897   48.0773 C   0  0  0  0  0  0  0  0  0  0  0  0
   41.0343   31.1670   49.1044 H   0  0  0  0  0  0  0  0  0  0  0  0
   42.2390   31.3041   47.4084 C   0  0  0  0  0  0  0  0  0  0  0  0
   43.1038   30.8694   47.9005 H   0  0  0  0  0  0  0  0  0  0  0  0
   42.3369   31.6910   46.0660 C   0  0  0  0  0  0  0  0  0  0  0  0
   41.2450   32.2515   45.4072 C   0  0  0  0  0  0  0  0  0  0  0  0
   43.2884   31.5465   45.5376 H   0  0  0  0  0  0  0  0  0  0  0  0
   41.3010   32.5582   44.3652 H   0  0  0  0  0  0  0  0  0  0  0  0
  1  9  1  0
  2 10  1  0
  2  1  2  0
  3  2  1  0
  4  3  2  0
  4  5  1  0
  5  6  2  0
  6  1  1  0
  8  7  2  0
  9  7  1  0
 10 11  1  0
 11 12  2  0
 13 14  2  0
 13 12  1  0
 15 13  1  0
 16 15  1  0
 16 10  1  0
 17 16  2  0
  3 18  1  0
  5 19  1  0
  7 20  1  0
  9 21  1  0
 11 22  1  0
 12 23  1  0
 24 25  3  0
 25 26  1  0
 26 27  2  0
 27 28  1  0
 28 29  1  0
 28 30  2  0
 30 31  1  0
 30 32  1  0
 32 33  2  0
 33 26  1  0
 32 34  1  0
 33 35  1  0
 15 27  1  0
M  ISO  7  18  14  19  14  20   6  22  14  23  14  29  15  31  16
M  END
>  <DihAtoms>  (1) 
12,14,26,25

>  <DihDeg>  (1) 
66.43560388538832

$$$$
