
 OpenBabel03262523213D

 42 45  0  0  1  0  0  0  0  0999 V2000
   39.2790   30.2490   42.3120 C   0  0  0  0  0  0  0  0  0  0  0  0
   40.1100   29.1410   42.4280 C   0  0  0  0  0  0  0  0  0  0  0  0
   39.5650   27.9550   42.8930 C   0  0  0  0  0  0  0  0  0  0  0  0
   38.2490   27.9170   43.2160 N   0  0  0  0  0  0  0  0  0  0  0  0
   37.4620   28.9530   43.1100 C   0  0  0  0  0  0  0  0  0  0  0  0
   38.0310   30.0430   42.6660 N   0  0  0  0  0  0  0  0  0  0  0  0
   36.0980   28.8670   43.4540 N   0  0  0  0  0  0  0  0  0  0  0  0
   35.1880   27.9090   42.8170 C   0  0  0  0  0  0  0  0  0  0  0  0
   33.9040   28.0900   43.5140 C   0  0  0  0  0  0  0  0  0  0  0  0
   34.2710   28.8190   44.8090 C   0  0  0  0  0  0  0  0  0  0  0  0
   35.3560   29.6990   44.4130 C   0  0  1  0  0  0  0  0  0  0  0  0
   39.6200   31.1980   41.9630 H   0  0  0  0  0  0  0  0  0  0  0  0
   41.1600   29.2120   42.1600 H   0  0  0  0  0  0  0  0  0  0  0  0
   40.2320   27.0960   42.9760 H   0  0  0  0  0  0  0  0  0  0  0  0
   35.1020   28.2060   41.7540 H   0  0  0  0  0  0  0  0  0  0  0  0
   35.5930   26.8800   42.8630 H   0  0  0  0  0  0  0  0  0  0  0  0
   33.3700   27.1440   43.6800 H   0  0  0  0  0  0  0  0  0  0  0  0
   33.2080   28.7000   42.8730 H   0  0  0  0  0  0  0  0  0  0  0  0
   33.3180   29.2300   45.0520 H   0  0  0  0  0  0  0  0  0  0  0  0
   34.6940   27.9290   45.3000 H   0  0  0  0  0  0  0  0  0  0  0  0
   35.0520   30.5120   43.6830 H   0  0  0  0  0  0  0  0  0  0  0  0
   36.1660   29.9470   46.7930 C   0  0  0  0  0  0  0  0  0  0  0  0
   36.1080   30.3460   45.4480 C   0  0  0  0  0  0  0  0  0  0  0  0
   36.9710   31.4030   45.1990 C   0  0  0  0  0  0  0  0  0  0  0  0
   37.7970   32.0060   46.1240 C   0  0  0  0  0  0  0  0  0  0  0  0
   37.7770   31.5270   47.4470 C   0  0  0  0  0  0  0  0  0  0  0  0
   36.9500   30.4770   47.8100 C   0  0  0  0  0  0  0  0  0  0  0  0
   37.0860   31.9720   44.3100 H   0  0  0  0  0  0  0  0  0  0  0  0
   38.4880   32.8190   46.0030 H   0  0  0  0  0  0  0  0  0  0  0  0
   38.3920   31.9340   48.2520 H   0  0  0  0  0  0  0  0  0  0  0  0
   35.7660   30.2980   49.8820 C   0  0  0  0  0  0  0  0  0  0  0  0
   36.9330   29.9890   49.1750 C   0  0  0  0  0  0  0  0  0  0  0  0
   37.9410   29.2800   49.7850 C   0  0  0  0  0  0  0  0  0  0  0  0
   38.8270   29.0660   49.1890 H   0  0  0  0  0  0  0  0  0  0  0  0
   37.8040   28.8700   51.0980 C   0  0  0  0  0  0  0  0  0  0  0  0
   38.6060   28.3120   51.5620 H   0  0  0  0  0  0  0  0  0  0  0  0
   36.6360   29.1970   51.7550 C   0  0  0  0  0  3  0  0  0  0  0  0
   35.6010   29.9060   51.1840 C   0  0  0  0  0  3  0  0  0  0  0  0
   33.8170   31.6550   48.8020 N   0  0  0  0  0  0  0  0  0  0  0  0
   34.6760   31.0450   49.2810 C   0  0  0  0  0  0  0  0  0  0  0  0
   34.5370   28.1150   47.5780 N   0  0  0  0  0  0  0  0  0  0  0  0
   35.2480   28.9150   47.2230 C   0  0  0  0  0  0  0  0  0  0  0  0
  1  2  2  0  0  0  0
  1  6  1  0  0  0  0
  2  3  1  0  0  0  0
  3 14  1  0  0  0  0
  3  4  2  0  0  0  0
  5  4  1  0  0  0  0
  5  7  1  0  0  0  0
  6  5  2  0  0  0  0
  7 11  1  0  0  0  0
  8 16  1  0  0  0  0
  8  7  1  0  0  0  0
  8  9  1  0  0  0  0
  9 17  1  0  0  0  0
  9 10  1  0  0  0  0
 10 19  1  0  0  0  0
 10 20  1  0  0  0  0
 11 21  1  6  0  0  0
 11 10  1  0  0  0  0
 11 23  1  0  0  0  0
 12  1  1  0  0  0  0
 13  2  1  0  0  0  0
 15  8  1  0  0  0  0
 18  9  1  0  0  0  0
 22 42  1  0  0  0  0
 22 27  1  0  0  0  0
 23 22  2  0  0  0  0
 24 23  1  0  0  0  0
 24 25  2  0  0  0  0
 25 26  1  0  0  0  0
 26 27  2  0  0  0  0
 26 30  1  0  0  0  0
 27 32  1  0  0  0  0
 28 24  1  0  0  0  0
 29 25  1  0  0  0  0
 31 38  1  0  0  0  0
 32 33  1  0  0  0  0
 32 31  2  0  0  0  0
 33 35  2  0  0  0  0
 34 33  1  0  0  0  0
 35 36  1  0  0  0  0
 35 37  1  0  0  0  0
 38 37  2  0  0  0  0
 39 40  3  0  0  0  0
 40 31  1  0  0  0  0
 42 41  3  0  0  0  0
M  END
>  <minimizedAffinity>
-2.38494086

>  <minimizedRMSD>
3.32251024

$$$$
