
 OpenBabel03272501573D

 32 34  0  0  0  0  0  0  0  0999 V2000
   32.6830   28.0090   48.1490 C   0  0  0  0  0  0  0  0  0  0  0  0
   31.8390   27.8970   49.2190 C   0  0  0  0  0  0  0  0  0  0  0  0
   30.6420   27.3450   48.8290 C   0  0  0  0  0  0  0  0  0  0  0  0
   30.7800   27.1280   47.5070 N   0  0  0  0  0  0  0  0  0  0  0  0
   31.9950   27.5250   47.1090 N   0  0  0  0  0  0  0  0  0  0  0  0
   32.0670   28.1980   50.2500 H   0  0  0  0  0  0  0  0  0  0  0  0
   29.7440   27.1060   49.3810 H   0  0  0  0  0  0  0  0  0  0  0  0
   28.8420   27.2790   45.9860 C   0  0  0  0  0  0  0  0  0  0  0  0
   29.8790   26.5760   46.5430 C   0  0  0  0  0  0  0  0  0  0  0  0
   30.0270   25.2540   46.1180 C   0  0  0  0  0  0  0  0  0  0  0  0
   30.8520   24.7150   46.5710 H   0  0  0  0  0  0  0  0  0  0  0  0
   29.2180   24.6210   45.1960 C   0  0  0  0  0  0  0  0  0  0  0  0
   29.4600   23.5930   44.9690 H   0  0  0  0  0  0  0  0  0  0  0  0
   28.1810   25.3610   44.6530 C   0  0  0  0  0  3  0  0  0  0  0  0
   28.0120   26.6850   45.0620 C   0  0  0  0  0  3  0  0  0  0  0  0
   28.4250   29.7220   46.6470 N   0  0  0  0  0  0  0  0  0  0  0  0
   28.6190   28.6250   46.3590 C   0  0  0  0  0  0  0  0  0  0  0  0
   34.0880   28.5600   48.1460 C   0  0  0  0  0  0  0  0  0  0  0  0
   34.0180   29.6350   47.9970 H   0  0  0  0  0  0  0  0  0  0  0  0
   34.6450   28.0820   47.3180 H   0  0  0  0  0  0  0  0  0  0  0  0
   34.6570   28.2230   49.5010 C   0  0  0  0  0  0  0  0  0  0  0  0
   35.0530   27.1770   49.5100 H   0  0  0  0  0  0  0  0  0  0  0  0
   33.9130   28.2690   50.3230 H   0  0  0  0  0  0  0  0  0  0  0  0
   37.2430   30.1830   51.2660 C   0  0  0  0  0  0  0  0  0  0  0  0
   38.0060   30.7000   50.2040 C   0  0  0  0  0  0  0  0  0  0  0  0
   37.6230   30.3700   48.9020 C   0  0  0  0  0  0  0  0  0  0  0  0
   36.5390   29.5690   48.7190 N   0  0  0  0  0  0  0  0  0  0  0  0
   35.8340   29.0940   49.7770 C   0  0  0  0  0  0  0  0  0  0  0  0
   36.1930   29.4050   51.0220 N   0  0  0  0  0  0  0  0  0  0  0  0
   37.6060   30.4860   52.2350 H   0  0  0  0  0  0  0  0  0  0  0  0
   38.8720   31.3350   50.2300 H   0  0  0  0  0  0  0  0  0  0  0  0
   38.1070   30.6890   47.9880 H   0  0  0  0  0  0  0  0  0  0  0  0
  1  2  1  0  0  0  0
  2  6  1  0  0  0  0
  3  2  2  0  0  0  0
  3  7  1  0  0  0  0
  4  3  1  0  0  0  0
  5  4  1  0  0  0  0
  5  1  2  0  0  0  0
  8 17  1  0  0  0  0
  8  9  1  0  0  0  0
  9  4  1  0  0  0  0
 10  9  2  0  0  0  0
 10 11  1  0  0  0  0
 12 10  1  0  0  0  0
 13 12  1  0  0  0  0
 14 15  1  0  0  0  0
 14 12  2  0  0  0  0
 15  8  2  0  0  0  0
 17 16  3  0  0  0  0
 18  1  1  0  0  0  0
 18 21  1  0  0  0  0
 19 18  1  0  0  0  0
 20 18  1  0  0  0  0
 21 22  1  0  0  0  0
 21 28  1  0  0  0  0
 21 23  1  0  0  0  0
 24 30  1  0  0  0  0
 25 31  1  0  0  0  0
 25 24  2  0  0  0  0
 26 25  1  0  0  0  0
 27 26  2  0  0  0  0
 27 28  1  0  0  0  0
 28 29  2  0  0  0  0
 29 24  1  0  0  0  0
 32 26  1  0  0  0  0
M  END
>  <minimizedAffinity>
-4.69972467

>  <minimizedRMSD>
2.6420722

$$$$
