REMARK  Name = 
REMARK  4 active torsions:
REMARK  status: ('A' for Active; 'I' for Inactive)
REMARK    1  A    between atoms: C_2  and  C_12
REMARK    2  A    between atoms: C_6  and  O_16
REMARK    3  A    between atoms: O_16  and  C_27
REMARK    4  A    between atoms: C_25  and  C_26
REMARK                            x       y       z     vdW  Elec       q    Type
REMARK                         _______ _______ _______ _____ _____    ______ ____
ROOT
ATOM      1  C   UNL     1      36.856  30.540  46.900  0.00  0.00    +0.000 A 
ATOM      2  C   UNL     1      37.522  31.034  48.025  0.00  0.00    +0.000 A 
ATOM      3  C   UNL     1      38.520  32.002  47.911  0.00  0.00    +0.000 A 
ATOM      4  C   UNL     1      38.797  32.431  46.608  0.00  0.00    +0.000 A 
ATOM      5  N   UNL     1      39.718  33.360  46.229  0.00  0.00    +0.000 N 
ATOM      6  C   UNL     1      39.635  33.448  44.895  0.00  0.00    +0.000 A 
ATOM      7  N   UNL     1      38.712  32.626  44.421  0.00  0.00    +0.000 NA
ATOM      8  C   UNL     1      38.164  31.970  45.474  0.00  0.00    +0.000 A 
ATOM      9  C   UNL     1      37.170  31.000  45.627  0.00  0.00    +0.000 A 
ATOM     10  H   UNL     1      36.077  29.785  46.975  0.00  0.00    +0.000 HD
ATOM     11  H   UNL     1      39.034  32.386  48.765  0.00  0.00    +0.000 HD
ATOM     12  H   UNL     1      40.364  33.895  46.879  0.00  0.00    +0.000 HD
ATOM     13  H   UNL     1      36.683  30.645  44.752  0.00  0.00    +0.000 HD
ENDROOT
BRANCH   2  16
ATOM     14  C   UNL     1      37.391  30.070  51.664  0.00  0.00    +0.000 A 
ATOM     15  C   UNL     1      37.876  30.625  50.485  0.00  0.00    +0.000 A 
ATOM     16  C   UNL     1      37.139  30.504  49.328  0.00  0.00    +0.000 A 
ATOM     17  N   UNL     1      35.950  29.832  49.400  0.00  0.00    +0.000 NA
ATOM     18  C   UNL     1      35.489  29.296  50.548  0.00  0.00    +0.000 A 
ATOM     19  N   UNL     1      36.210  29.419  51.669  0.00  0.00    +0.000 NA
ATOM     20  H   UNL     1      38.062  30.234  52.499  0.00  0.00    +0.000 HD
ATOM     21  H   UNL     1      38.819  31.163  50.408  0.00  0.00    +0.000 HD
ATOM     22  H   UNL     1      34.548  28.765  50.604  0.00  0.00    +0.000 HD
ENDBRANCH   2  16
BRANCH   6  23
ATOM     23  O   UNL     1      40.448  34.316  44.175  0.00  0.00    +0.000 OA
BRANCH  23  25
ATOM     24  C   UNL     1      41.255  35.345  42.135  0.00  0.00    +0.000 A 
ATOM     25  C   UNL     1      40.424  34.465  42.816  0.00  0.00    +0.000 A 
ATOM     26  C   UNL     1      39.574  33.757  41.987  0.00  0.00    +0.000 A 
ATOM     27  H   UNL     1      38.894  33.045  42.477  0.00  0.00    +0.000 HD
ATOM     28  C   UNL     1      39.521  33.880  40.615  0.00  0.00    +0.000 A 
ATOM     29  H   UNL     1      38.802  33.260  40.085  0.00  0.00    +0.000 HD
ATOM     30  C   UNL     1      40.373  34.771  40.005  0.00  0.00    +0.000 A 
ATOM     31  C   UNL     1      41.247  35.510  40.765  0.00  0.00    +0.000 A 
BRANCH  24  33
ATOM     32  N   UNL     1      42.937  36.801  43.478  0.00  0.00    +0.000 NA
ATOM     33  C   UNL     1      42.195  36.150  42.878  0.00  0.00    +0.000 C 
ENDBRANCH  24  33
ENDBRANCH  23  25
ENDBRANCH   6  23
TORSDOF 4
