
 OpenBabel03272504173D

 27 28  0  0  0  0  0  0  0  0999 V2000
   34.1220   27.9920   46.4260 O   0  0  0  0  0  0  0  0  0  0  0  0
   33.3090   28.7450   47.4580 P   0  0  1  0  0  0  0  0  0  0  0  0
   32.3310   29.9140   46.7140 O   0  0  0  0  0  0  0  0  0  0  0  0
   32.6390   30.8080   47.0210 H   0  0  0  0  0  0  0  0  0  0  0  0
   32.2450   27.7130   48.3200 O   0  0  0  0  0  0  0  0  0  0  0  0
   31.1360   27.1210   47.7200 C   0  0  0  0  0  0  0  0  0  0  0  0
   29.8370   27.6220   47.7460 C   0  0  0  0  0  0  0  0  0  0  0  0
   28.8470   26.8930   47.0880 C   0  0  0  0  0  0  0  0  0  0  0  0
   29.1820   25.7380   46.4560 N   0  0  0  0  0  0  0  0  0  0  0  0
   30.4570   25.2870   46.4540 C   0  0  0  0  0  0  0  0  0  0  0  0
   31.4420   25.9790   47.0890 N   0  0  0  0  0  0  0  0  0  0  0  0
   27.8540   27.3190   47.1350 H   0  0  0  0  0  0  0  0  0  0  0  0
   30.6630   24.3550   45.9310 H   0  0  0  0  0  0  0  0  0  0  0  0
   29.6730   28.8350   48.4500 N   0  0  0  0  0  0  0  0  0  0  0  0
   29.9630   28.9810   49.4470 H   0  0  0  0  0  0  0  0  0  0  0  0
   29.2530   29.7420   48.1060 H   0  0  0  0  0  0  0  0  0  0  0  0
   34.4090   29.4590   48.5180 O   0  0  0  0  0  0  0  0  0  0  0  0
   36.6030   30.0700   49.0410 C   0  0  0  0  0  0  0  0  0  0  0  0
   35.6180   29.9610   48.0540 C   0  0  0  0  0  0  0  0  0  0  0  0
   35.9340   30.3480   46.7600 C   0  0  0  0  0  0  0  0  0  0  0  0
   35.1280   30.2380   46.0490 H   0  0  0  0  0  0  0  0  0  0  0  0
   37.1910   30.8260   46.4760 C   0  0  0  0  0  0  0  0  0  0  0  0
   37.3920   31.1180   45.4480 H   0  0  0  0  0  0  0  0  0  0  0  0
   38.1240   30.9170   47.4700 C   0  0  0  0  0  3  0  0  0  0  0  0
   37.8740   30.5490   48.7740 C   0  0  0  0  0  3  0  0  0  0  0  0
   36.1720   29.3710   51.5120 N   0  0  0  0  0  0  0  0  0  0  0  0
   36.3590   29.6890   50.4170 C   0  0  0  0  0  0  0  0  0  0  0  0
  2  1  2  6  0  0  0
  2  5  1  0  0  0  0
  2 17  1  0  0  0  0
  3  4  1  0  0  0  0
  3  2  1  0  0  0  0
  6  7  1  0  0  0  0
  6  5  1  0  0  0  0
  7 14  1  0  0  0  0
  8 12  1  0  0  0  0
  8  7  2  0  0  0  0
  9  8  1  0  0  0  0
 10  9  2  0  0  0  0
 10 11  1  0  0  0  0
 11  6  2  0  0  0  0
 13 10  1  0  0  0  0
 14 15  1  0  0  0  0
 16 14  1  0  0  0  0
 18 27  1  0  0  0  0
 19 17  1  0  0  0  0
 19 18  2  0  0  0  0
 20 19  1  0  0  0  0
 21 20  1  0  0  0  0
 22 20  2  0  0  0  0
 22 24  1  0  0  0  0
 23 22  1  0  0  0  0
 24 25  2  0  0  0  0
 25 18  1  0  0  0  0
 27 26  3  0  0  0  0
M  END
>  <minimizedAffinity>
-4.6765871

>  <minimizedRMSD>
6.67291832

$$$$
