
 OpenBabel03272503073D

 33 35  0  0  0  0  0  0  0  0999 V2000
   40.0700   23.7480   34.7930 F   0  0  0  0  0  0  0  0  0  0  0  0
   39.5350   23.7000   36.0440 C   0  0  0  0  0  0  0  0  0  0  0  0
   40.2270   23.0790   37.0590 C   0  0  0  0  0  0  0  0  0  0  0  0
   39.6390   23.0640   38.2870 C   0  0  0  0  0  0  0  0  0  0  0  0
   38.4120   23.6320   38.5450 C   0  0  0  0  0  0  0  0  0  0  0  0
   37.7330   24.2500   37.5130 C   0  0  0  0  0  0  0  0  0  0  0  0
   38.3030   24.2840   36.2470 C   0  0  0  0  0  0  0  0  0  0  0  0
   40.1790   22.5710   39.1050 H   0  0  0  0  0  0  0  0  0  0  0  0
   37.9880   23.5980   39.5480 H   0  0  0  0  0  0  0  0  0  0  0  0
   36.7660   24.7130   37.6550 H   0  0  0  0  0  0  0  0  0  0  0  0
   43.8890   22.6830   36.1800 C   0  0  0  0  0  0  0  0  0  0  0  0
   42.6480   23.2750   36.4850 C   0  0  0  0  0  0  0  0  0  0  0  0
   41.5350   22.4900   36.7380 C   0  0  0  0  0  0  0  0  0  0  0  0
   41.6960   21.1400   36.6800 N   0  0  0  0  0  0  0  0  0  0  0  0
   42.8860   20.5890   36.3870 C   0  0  0  0  0  0  0  0  0  0  0  0
   43.9630   21.3330   36.1410 N   0  0  0  0  0  0  0  0  0  0  0  0
   44.6220   23.4620   36.0160 H   0  0  0  0  0  0  0  0  0  0  0  0
   42.4540   24.3490   36.5480 H   0  0  0  0  0  0  0  0  0  0  0  0
   43.0760   19.5360   36.3250 H   0  0  0  0  0  0  0  0  0  0  0  0
   37.8890   26.3320   35.0590 C   0  0  0  0  0  0  0  0  0  0  0  0
   38.6710   26.8060   35.9630 O   0  0  0  0  0  0  0  0  0  0  0  0
   37.6330   24.9160   35.1550 N   0  0  0  0  0  0  0  0  0  0  0  0
   37.0020   24.5680   34.4180 H   0  0  0  0  0  0  0  0  0  0  0  0
   37.9740   27.2090   32.8440 C   0  0  0  0  0  0  0  0  0  0  0  0
   37.3780   27.2800   34.0800 C   0  0  0  0  0  0  0  0  0  0  0  0
   36.3760   28.1700   34.3960 C   0  0  0  0  0  0  0  0  0  0  0  0
   35.9350   28.1980   35.3730 H   0  0  0  0  0  0  0  0  0  0  0  0
   36.0080   29.0100   33.3430 C   0  0  0  0  0  0  0  0  0  0  0  0
   35.2150   29.7410   33.5230 H   0  0  0  0  0  0  0  0  0  0  0  0
   36.5830   28.9620   32.1040 C   0  0  0  0  0  3  0  0  0  0  0  0
   37.5960   28.0490   31.8120 C   0  0  0  0  0  3  0  0  0  0  0  0
   39.8630   25.5120   32.2450 N   0  0  0  0  0  0  0  0  0  0  0  0
   39.0340   26.2660   32.5190 C   0  0  0  0  0  0  0  0  0  0  0  0
  1  2  1  0  0  0  0
  2  7  2  0  0  0  0
  2  3  1  0  0  0  0
  3  4  2  0  0  0  0
  4  5  1  0  0  0  0
  4  8  1  0  0  0  0
  5  9  1  0  0  0  0
  6 10  1  0  0  0  0
  6  5  2  0  0  0  0
  7  6  1  0  0  0  0
 11 12  1  0  0  0  0
 12 18  1  0  0  0  0
 12 13  2  0  0  0  0
 13  3  1  0  0  0  0
 14 13  1  0  0  0  0
 15 14  2  0  0  0  0
 16 11  2  0  0  0  0
 16 15  1  0  0  0  0
 17 11  1  0  0  0  0
 19 15  1  0  0  0  0
 20 22  1  0  0  0  0
 20 21  2  0  0  0  0
 22  7  1  0  0  0  0
 23 22  1  0  0  0  0
 24 25  1  0  0  0  0
 25 26  2  0  0  0  0
 25 20  1  0  0  0  0
 26 27  1  0  0  0  0
 28 29  1  0  0  0  0
 28 26  1  0  0  0  0
 30 28  2  0  0  0  0
 31 30  1  0  0  0  0
 31 24  2  0  0  0  0
 32 33  3  0  0  0  0
 33 24  1  0  0  0  0
M  END
>  <minimizedAffinity>
-5.80444145

$$$$

 OpenBabel03272503073D

 33 35  0  0  0  0  0  0  0  0999 V2000
   35.9210   28.0380   34.5540 F   0  0  0  0  0  0  0  0  0  0  0  0
   36.0950   28.7940   33.4360 C   0  0  0  0  0  0  0  0  0  0  0  0
   35.6640   30.1010   33.4230 C   0  0  0  0  0  0  0  0  0  0  0  0
   35.8660   30.8050   32.2750 C   0  0  0  0  0  0  0  0  0  0  0  0
   36.4690   30.2730   31.1580 C   0  0  0  0  0  0  0  0  0  0  0  0
   36.8940   28.9590   31.1910 C   0  0  0  0  0  0  0  0  0  0  0  0
   36.7040   28.2120   32.3460 C   0  0  0  0  0  0  0  0  0  0  0  0
   35.5270   31.8480   32.2500 H   0  0  0  0  0  0  0  0  0  0  0  0
   36.6130   30.8820   30.2660 H   0  0  0  0  0  0  0  0  0  0  0  0
   37.3730   28.4870   30.3450 H   0  0  0  0  0  0  0  0  0  0  0  0
   35.0950   31.8880   36.7130 C   0  0  0  0  0  0  0  0  0  0  0  0
   35.7290   31.3970   35.5550 C   0  0  0  0  0  0  0  0  0  0  0  0
   35.0290   30.6280   34.6400 C   0  0  0  0  0  0  0  0  0  0  0  0
   33.7200   30.3750   34.9070 N   0  0  0  0  0  0  0  0  0  0  0  0
   33.1270   30.8500   36.0170 C   0  0  0  0  0  0  0  0  0  0  0  0
   33.7910   31.5890   36.9050 N   0  0  0  0  0  0  0  0  0  0  0  0
   35.8090   32.4590   37.2920 H   0  0  0  0  0  0  0  0  0  0  0  0
   36.7740   31.5650   35.2820 H   0  0  0  0  0  0  0  0  0  0  0  0
   32.1030   30.6840   36.2840 H   0  0  0  0  0  0  0  0  0  0  0  0
   36.3750   25.9600   31.5730 C   0  0  0  0  0  0  0  0  0  0  0  0
   35.4400   26.5210   30.8910 O   0  0  0  0  0  0  0  0  0  0  0  0
   37.1310   26.8500   32.4190 N   0  0  0  0  0  0  0  0  0  0  0  0
   37.8710   26.3710   32.9520 H   0  0  0  0  0  0  0  0  0  0  0  0
   37.7550   24.1370   30.8950 C   0  0  0  0  0  0  0  0  0  0  0  0
   36.5350   24.5240   31.3970 C   0  0  0  0  0  0  0  0  0  0  0  0
   35.5260   23.6440   31.7170 C   0  0  0  0  0  0  0  0  0  0  0  0
   34.5850   23.9820   32.1060 H   0  0  0  0  0  0  0  0  0  0  0  0
   35.8430   22.3040   31.4830 C   0  0  0  0  0  0  0  0  0  0  0  0
   35.0880   21.5490   31.7180 H   0  0  0  0  0  0  0  0  0  0  0  0
   37.0470   21.8910   30.9850 C   0  0  0  0  0  3  0  0  0  0  0  0
   38.0520   22.8050   30.6710 C   0  0  0  0  0  3  0  0  0  0  0  0
   39.6450   25.8340   30.3020 N   0  0  0  0  0  0  0  0  0  0  0  0
   38.8150   25.0750   30.5580 C   0  0  0  0  0  0  0  0  0  0  0  0
  2  1  1  0  0  0  0
  3  2  1  0  0  0  0
  3 13  1  0  0  0  0
  4  3  2  0  0  0  0
  5  6  2  0  0  0  0
  5  4  1  0  0  0  0
  6  7  1  0  0  0  0
  7 22  1  0  0  0  0
  7  2  2  0  0  0  0
  8  4  1  0  0  0  0
  9  5  1  0  0  0  0
 10  6  1  0  0  0  0
 11 16  1  0  0  0  0
 11 17  1  0  0  0  0
 12 11  2  0  0  0  0
 13 14  2  0  0  0  0
 13 12  1  0  0  0  0
 14 15  1  0  0  0  0
 15 19  1  0  0  0  0
 15 16  2  0  0  0  0
 18 12  1  0  0  0  0
 20 22  1  0  0  0  0
 21 20  2  0  0  0  0
 22 23  1  0  0  0  0
 24 25  1  0  0  0  0
 25 20  1  0  0  0  0
 25 26  2  0  0  0  0
 26 27  1  0  0  0  0
 28 26  1  0  0  0  0
 28 29  1  0  0  0  0
 30 28  2  0  0  0  0
 31 24  2  0  0  0  0
 31 30  1  0  0  0  0
 32 33  3  0  0  0  0
 33 24  1  0  0  0  0
M  END
>  <minimizedAffinity>
-5.60295439

$$$$

 OpenBabel03272503073D

 33 35  0  0  0  0  0  0  0  0999 V2000
   37.7130   27.1130   31.5900 F   0  0  0  0  0  0  0  0  0  0  0  0
   37.0140   27.9950   32.3560 C   0  0  0  0  0  0  0  0  0  0  0  0
   36.6940   29.2340   31.8490 C   0  0  0  0  0  0  0  0  0  0  0  0
   35.9950   30.0710   32.6640 C   0  0  0  0  0  0  0  0  0  0  0  0
   35.6070   29.7340   33.9410 C   0  0  0  0  0  0  0  0  0  0  0  0
   35.9380   28.4860   34.4310 C   0  0  0  0  0  0  0  0  0  0  0  0
   36.6500   27.6060   33.6270 C   0  0  0  0  0  0  0  0  0  0  0  0
   35.7340   31.0630   32.2730 H   0  0  0  0  0  0  0  0  0  0  0  0
   35.0420   30.4390   34.5500 H   0  0  0  0  0  0  0  0  0  0  0  0
   35.6600   28.1650   35.4250 H   0  0  0  0  0  0  0  0  0  0  0  0
   37.5430   31.1180   28.6750 C   0  0  0  0  0  0  0  0  0  0  0  0
   37.1220   30.8460   29.9920 C   0  0  0  0  0  0  0  0  0  0  0  0
   37.1270   29.5490   30.4800 C   0  0  0  0  0  0  0  0  0  0  0  0
   37.5530   28.5670   29.6410 N   0  0  0  0  0  0  0  0  0  0  0  0
   37.9500   28.8420   28.3860 C   0  0  0  0  0  0  0  0  0  0  0  0
   37.9480   30.0840   27.9060 N   0  0  0  0  0  0  0  0  0  0  0  0
   37.4620   32.1820   28.4920 H   0  0  0  0  0  0  0  0  0  0  0  0
   36.7720   31.5880   30.7140 H   0  0  0  0  0  0  0  0  0  0  0  0
   38.2930   28.1140   27.6780 H   0  0  0  0  0  0  0  0  0  0  0  0
   37.9600   26.3260   35.1830 C   0  0  0  0  0  0  0  0  0  0  0  0
   38.3370   27.4980   35.5550 O   0  0  0  0  0  0  0  0  0  0  0  0
   37.0100   26.3060   34.0980 N   0  0  0  0  0  0  0  0  0  0  0  0
   36.7300   25.3540   33.8230 H   0  0  0  0  0  0  0  0  0  0  0  0
   39.6500   24.6480   35.3070 C   0  0  0  0  0  0  0  0  0  0  0  0
   38.5390   25.1990   35.8990 C   0  0  0  0  0  0  0  0  0  0  0  0
   37.9950   24.7420   37.0780 C   0  0  0  0  0  0  0  0  0  0  0  0
   37.1260   25.1960   37.5120 H   0  0  0  0  0  0  0  0  0  0  0  0
   38.6710   23.6520   37.6320 C   0  0  0  0  0  0  0  0  0  0  0  0
   38.2940   23.2380   38.5720 H   0  0  0  0  0  0  0  0  0  0  0  0
   39.7770   23.0830   37.0650 C   0  0  0  0  0  3  0  0  0  0  0  0
   40.3070   23.5690   35.8700 C   0  0  0  0  0  3  0  0  0  0  0  0
   40.6480   25.5220   33.0600 N   0  0  0  0  0  0  0  0  0  0  0  0
   40.2170   25.1380   34.0590 C   0  0  0  0  0  0  0  0  0  0  0  0
  1  2  1  0  0  0  0
  2  7  1  0  0  0  0
  3  2  2  0  0  0  0
  3  4  1  0  0  0  0
  4  5  2  0  0  0  0
  5  6  1  0  0  0  0
  5  9  1  0  0  0  0
  6 10  1  0  0  0  0
  7 22  1  0  0  0  0
  7  6  2  0  0  0  0
  8  4  1  0  0  0  0
 11 12  1  0  0  0  0
 12 13  2  0  0  0  0
 12 18  1  0  0  0  0
 13  3  1  0  0  0  0
 14 13  1  0  0  0  0
 15 14  2  0  0  0  0
 16 15  1  0  0  0  0
 16 11  2  0  0  0  0
 17 11  1  0  0  0  0
 19 15  1  0  0  0  0
 20 21  2  0  0  0  0
 20 25  1  0  0  0  0
 22 20  1  0  0  0  0
 23 22  1  0  0  0  0
 24 31  2  0  0  0  0
 24 25  1  0  0  0  0
 25 26  2  0  0  0  0
 26 27  1  0  0  0  0
 26 28  1  0  0  0  0
 28 29  1  0  0  0  0
 30 28  2  0  0  0  0
 31 30  1  0  0  0  0
 32 33  3  0  0  0  0
 33 24  1  0  0  0  0
M  END
>  <minimizedAffinity>
-5.45140886

$$$$

 OpenBabel03272503073D

 33 35  0  0  0  0  0  0  0  0999 V2000
   39.0130   25.5200   32.0520 F   0  0  0  0  0  0  0  0  0  0  0  0
   38.2220   26.2940   32.8450 C   0  0  0  0  0  0  0  0  0  0  0  0
   37.7370   27.4890   32.3670 C   0  0  0  0  0  0  0  0  0  0  0  0
   36.9520   28.2170   33.2070 C   0  0  0  0  0  0  0  0  0  0  0  0
   36.6340   27.8140   34.4850 C   0  0  0  0  0  0  0  0  0  0  0  0
   37.1310   26.6100   34.9470 C   0  0  0  0  0  0  0  0  0  0  0  0
   37.9350   25.8420   34.1150 C   0  0  0  0  0  0  0  0  0  0  0  0
   36.5600   29.1730   32.8390 H   0  0  0  0  0  0  0  0  0  0  0  0
   35.9960   28.4310   35.1160 H   0  0  0  0  0  0  0  0  0  0  0  0
   36.9160   26.2410   35.9400 H   0  0  0  0  0  0  0  0  0  0  0  0
   39.7340   28.2530   29.2400 C   0  0  0  0  0  0  0  0  0  0  0  0
   39.4150   27.8750   30.5590 C   0  0  0  0  0  0  0  0  0  0  0  0
   38.1000   27.8790   30.9960 C   0  0  0  0  0  0  0  0  0  0  0  0
   37.1460   28.2570   30.1040 N   0  0  0  0  0  0  0  0  0  0  0  0
   37.4650   28.6160   28.8480 C   0  0  0  0  0  0  0  0  0  0  0  0
   38.7250   28.6170   28.4170 N   0  0  0  0  0  0  0  0  0  0  0  0
   40.8050   28.1830   29.1010 H   0  0  0  0  0  0  0  0  0  0  0  0
   40.1320   27.5600   31.3220 H   0  0  0  0  0  0  0  0  0  0  0  0
   36.7610   28.9240   28.1000 H   0  0  0  0  0  0  0  0  0  0  0  0
   39.7640   24.7000   35.1770 C   0  0  0  0  0  0  0  0  0  0  0  0
   40.2410   25.8930   35.2350 O   0  0  0  0  0  0  0  0  0  0  0  0
   38.4660   24.5910   34.5570 N   0  0  0  0  0  0  0  0  0  0  0  0
   38.1130   23.6240   34.5250 H   0  0  0  0  0  0  0  0  0  0  0  0
   40.0620   23.0220   36.8440 C   0  0  0  0  0  0  0  0  0  0  0  0
   40.5910   23.6420   35.7380 C   0  0  0  0  0  0  0  0  0  0  0  0
   41.8060   23.3090   35.1820 C   0  0  0  0  0  0  0  0  0  0  0  0
   42.1890   23.8160   34.3180 H   0  0  0  0  0  0  0  0  0  0  0  0
   42.4720   22.2760   35.8460 C   0  0  0  0  0  0  0  0  0  0  0  0
   43.4420   21.9580   35.4560 H   0  0  0  0  0  0  0  0  0  0  0  0
   41.9700   21.6420   36.9480 C   0  0  0  0  0  3  0  0  0  0  0  0
   40.7350   21.9990   37.4880 C   0  0  0  0  0  3  0  0  0  0  0  0
   37.7510   23.6470   37.8820 N   0  0  0  0  0  0  0  0  0  0  0  0
   38.7770   23.3820   37.4250 C   0  0  0  0  0  0  0  0  0  0  0  0
  1  2  1  0  0  0  0
  2  7  1  0  0  0  0
  3  2  2  0  0  0  0
  3  4  1  0  0  0  0
  4  5  2  0  0  0  0
  5  6  1  0  0  0  0
  5  9  1  0  0  0  0
  6 10  1  0  0  0  0
  7 22  1  0  0  0  0
  7  6  2  0  0  0  0
  8  4  1  0  0  0  0
 11 12  1  0  0  0  0
 12 13  2  0  0  0  0
 12 18  1  0  0  0  0
 13  3  1  0  0  0  0
 14 13  1  0  0  0  0
 15 14  2  0  0  0  0
 16 15  1  0  0  0  0
 16 11  2  0  0  0  0
 17 11  1  0  0  0  0
 19 15  1  0  0  0  0
 20 21  2  0  0  0  0
 20 25  1  0  0  0  0
 22 20  1  0  0  0  0
 23 22  1  0  0  0  0
 24 33  1  0  0  0  0
 24 31  1  0  0  0  0
 25 24  2  0  0  0  0
 26 25  1  0  0  0  0
 26 28  2  0  0  0  0
 27 26  1  0  0  0  0
 28 30  1  0  0  0  0
 29 28  1  0  0  0  0
 30 31  2  0  0  0  0
 33 32  3  0  0  0  0
M  END
>  <minimizedAffinity>
-5.42844105

$$$$

 OpenBabel03272503073D

 33 35  0  0  0  0  0  0  0  0999 V2000
   36.6540   28.1220   34.9050 F   0  0  0  0  0  0  0  0  0  0  0  0
   37.1680   27.9680   33.6540 C   0  0  0  0  0  0  0  0  0  0  0  0
   36.5350   28.5470   32.5790 C   0  0  0  0  0  0  0  0  0  0  0  0
   37.0980   28.3570   31.3550 C   0  0  0  0  0  0  0  0  0  0  0  0
   38.2470   27.6260   31.1570 C   0  0  0  0  0  0  0  0  0  0  0  0
   38.8690   27.0510   32.2490 C   0  0  0  0  0  0  0  0  0  0  0  0
   38.3210   27.2260   33.5130 C   0  0  0  0  0  0  0  0  0  0  0  0
   36.6020   28.8130   30.4890 H   0  0  0  0  0  0  0  0  0  0  0  0
   38.6620   27.5090   30.1560 H   0  0  0  0  0  0  0  0  0  0  0  0
   39.7730   26.4660   32.1550 H   0  0  0  0  0  0  0  0  0  0  0  0
   34.1700   31.3530   33.5190 C   0  0  0  0  0  0  0  0  0  0  0  0
   35.3580   30.6350   33.2790 C   0  0  0  0  0  0  0  0  0  0  0  0
   35.3120   29.3220   32.8390 C   0  0  0  0  0  0  0  0  0  0  0  0
   34.0840   28.7680   32.6510 N   0  0  0  0  0  0  0  0  0  0  0  0
   32.9580   29.4650   32.8850 C   0  0  0  0  0  0  0  0  0  0  0  0
   32.9900   30.7270   33.3100 N   0  0  0  0  0  0  0  0  0  0  0  0
   34.4220   32.3510   33.8550 H   0  0  0  0  0  0  0  0  0  0  0  0
   36.3720   31.0210   33.4080 H   0  0  0  0  0  0  0  0  0  0  0  0
   31.9640   29.0860   32.7590 H   0  0  0  0  0  0  0  0  0  0  0  0
   38.5540   25.2780   34.9010 C   0  0  0  0  0  0  0  0  0  0  0  0
   37.7260   24.7900   34.0470 O   0  0  0  0  0  0  0  0  0  0  0  0
   38.9360   26.6490   34.6670 N   0  0  0  0  0  0  0  0  0  0  0  0
   39.5980   27.0100   35.3680 H   0  0  0  0  0  0  0  0  0  0  0  0
   40.1550   23.7140   35.7240 C   0  0  0  0  0  0  0  0  0  0  0  0
   38.9830   24.3890   35.9700 C   0  0  0  0  0  0  0  0  0  0  0  0
   38.2510   24.2530   37.1290 C   0  0  0  0  0  0  0  0  0  0  0  0
   37.3400   24.7950   37.2860 H   0  0  0  0  0  0  0  0  0  0  0  0
   38.8020   23.3570   38.0480 C   0  0  0  0  0  0  0  0  0  0  0  0
   38.2740   23.2030   38.9930 H   0  0  0  0  0  0  0  0  0  0  0  0
   39.9650   22.6730   37.8300 C   0  0  0  0  0  3  0  0  0  0  0  0
   40.6860   22.8310   36.6470 C   0  0  0  0  0  3  0  0  0  0  0  0
   41.5460   23.9780   33.5330 N   0  0  0  0  0  0  0  0  0  0  0  0
   40.9210   23.8630   34.4960 C   0  0  0  0  0  0  0  0  0  0  0  0
  2  1  1  0  0  0  0
  3 13  1  0  0  0  0
  3  2  2  0  0  0  0
  4  3  1  0  0  0  0
  5  4  2  0  0  0  0
  5  6  1  0  0  0  0
  6  7  2  0  0  0  0
  7  2  1  0  0  0  0
  7 22  1  0  0  0  0
  8  4  1  0  0  0  0
  9  5  1  0  0  0  0
 10  6  1  0  0  0  0
 11 17  1  0  0  0  0
 12 18  1  0  0  0  0
 12 11  2  0  0  0  0
 13 12  1  0  0  0  0
 14 13  2  0  0  0  0
 14 15  1  0  0  0  0
 15 16  2  0  0  0  0
 16 11  1  0  0  0  0
 19 15  1  0  0  0  0
 20 25  1  0  0  0  0
 21 20  2  0  0  0  0
 22 20  1  0  0  0  0
 22 23  1  0  0  0  0
 24 25  2  0  0  0  0
 24 31  1  0  0  0  0
 25 26  1  0  0  0  0
 26 27  1  0  0  0  0
 26 28  2  0  0  0  0
 28 29  1  0  0  0  0
 30 28  1  0  0  0  0
 31 30  2  0  0  0  0
 32 33  3  0  0  0  0
 33 24  1  0  0  0  0
M  END
>  <minimizedAffinity>
-5.32292986

$$$$

 OpenBabel03272503073D

 33 35  0  0  0  0  0  0  0  0999 V2000
   38.7210   26.6460   31.8450 F   0  0  0  0  0  0  0  0  0  0  0  0
   37.5540   25.9750   31.6430 C   0  0  0  0  0  0  0  0  0  0  0  0
   36.4800   26.6280   31.0830 C   0  0  0  0  0  0  0  0  0  0  0  0
   35.3410   25.9040   30.9070 C   0  0  0  0  0  0  0  0  0  0  0  0
   35.2260   24.5780   31.2590 C   0  0  0  0  0  0  0  0  0  0  0  0
   36.3160   23.9400   31.8200 C   0  0  0  0  0  0  0  0  0  0  0  0
   37.4940   24.6490   32.0130 C   0  0  0  0  0  0  0  0  0  0  0  0
   34.4770   26.4120   30.4620 H   0  0  0  0  0  0  0  0  0  0  0  0
   34.2930   24.0410   31.0900 H   0  0  0  0  0  0  0  0  0  0  0  0
   36.2860   22.9010   32.1160 H   0  0  0  0  0  0  0  0  0  0  0  0
   36.4490   30.4140   31.2020 C   0  0  0  0  0  0  0  0  0  0  0  0
   36.2750   29.0670   31.5760 C   0  0  0  0  0  0  0  0  0  0  0  0
   36.6490   28.0440   30.7200 C   0  0  0  0  0  0  0  0  0  0  0  0
   37.1860   28.3950   29.5210 N   0  0  0  0  0  0  0  0  0  0  0  0
   37.3460   29.6850   29.1770 C   0  0  0  0  0  0  0  0  0  0  0  0
   36.9890   30.6780   29.9900 N   0  0  0  0  0  0  0  0  0  0  0  0
   36.0960   31.0520   32.0020 H   0  0  0  0  0  0  0  0  0  0  0  0
   35.8530   28.7190   32.5220 H   0  0  0  0  0  0  0  0  0  0  0  0
   37.7600   30.0260   28.2490 H   0  0  0  0  0  0  0  0  0  0  0  0
   38.7810   24.2600   34.0050 C   0  0  0  0  0  0  0  0  0  0  0  0
   37.8610   24.9910   34.5280 O   0  0  0  0  0  0  0  0  0  0  0  0
   38.6430   24.0240   32.5890 N   0  0  0  0  0  0  0  0  0  0  0  0
   39.3950   23.4370   32.2010 H   0  0  0  0  0  0  0  0  0  0  0  0
   39.4450   22.7300   35.7090 C   0  0  0  0  0  0  0  0  0  0  0  0
   39.8190   23.7800   34.9060 C   0  0  0  0  0  0  0  0  0  0  0  0
   41.0700   24.3540   34.9300 C   0  0  0  0  0  0  0  0  0  0  0  0
   41.3270   25.1750   34.2890 H   0  0  0  0  0  0  0  0  0  0  0  0
   41.9440   23.7760   35.8540 C   0  0  0  0  0  0  0  0  0  0  0  0
   42.9570   24.1810   35.9250 H   0  0  0  0  0  0  0  0  0  0  0  0
   41.5990   22.7320   36.6660 C   0  0  0  0  0  3  0  0  0  0  0  0
   40.3240   22.1690   36.6180 C   0  0  0  0  0  3  0  0  0  0  0  0
   37.0770   21.6360   35.6530 N   0  0  0  0  0  0  0  0  0  0  0  0
   38.1190   22.1310   35.6770 C   0  0  0  0  0  0  0  0  0  0  0  0
  2  1  1  0  0  0  0
  2  7  1  0  0  0  0
  3  2  2  0  0  0  0
  4  3  1  0  0  0  0
  4  5  2  0  0  0  0
  5  6  1  0  0  0  0
  6  7  2  0  0  0  0
  6 10  1  0  0  0  0
  7 22  1  0  0  0  0
  8  4  1  0  0  0  0
  9  5  1  0  0  0  0
 11 12  1  0  0  0  0
 11 17  1  0  0  0  0
 12 18  1  0  0  0  0
 13  3  1  0  0  0  0
 13 12  2  0  0  0  0
 14 13  1  0  0  0  0
 15 14  2  0  0  0  0
 15 16  1  0  0  0  0
 16 11  2  0  0  0  0
 19 15  1  0  0  0  0
 20 21  2  0  0  0  0
 20 25  1  0  0  0  0
 22 20  1  0  0  0  0
 23 22  1  0  0  0  0
 24 31  1  0  0  0  0
 25 26  1  0  0  0  0
 25 24  2  0  0  0  0
 26 28  2  0  0  0  0
 27 26  1  0  0  0  0
 28 29  1  0  0  0  0
 28 30  1  0  0  0  0
 31 30  2  0  0  0  0
 32 33  3  0  0  0  0
 33 24  1  0  0  0  0
M  END
>  <minimizedAffinity>
-5.29103184

$$$$

 OpenBabel03272503073D

 33 35  0  0  0  0  0  0  0  0999 V2000
   38.8160   25.7610   34.6290 F   0  0  0  0  0  0  0  0  0  0  0  0
   38.4430   24.6830   33.8850 C   0  0  0  0  0  0  0  0  0  0  0  0
   38.2720   23.4610   34.4930 C   0  0  0  0  0  0  0  0  0  0  0  0
   37.8990   22.4230   33.6950 C   0  0  0  0  0  0  0  0  0  0  0  0
   37.6930   22.5470   32.3390 C   0  0  0  0  0  0  0  0  0  0  0  0
   37.8710   23.7830   31.7480 C   0  0  0  0  0  0  0  0  0  0  0  0
   38.2500   24.8640   32.5330 C   0  0  0  0  0  0  0  0  0  0  0  0
   37.7600   21.4420   34.1660 H   0  0  0  0  0  0  0  0  0  0  0  0
   37.3880   21.6850   31.7460 H   0  0  0  0  0  0  0  0  0  0  0  0
   37.7230   23.9410   30.6890 H   0  0  0  0  0  0  0  0  0  0  0  0
   39.8510   22.7640   37.8640 C   0  0  0  0  0  0  0  0  0  0  0  0
   39.6600   22.8320   36.4700 C   0  0  0  0  0  0  0  0  0  0  0  0
   38.5000   23.3760   35.9430 C   0  0  0  0  0  0  0  0  0  0  0  0
   37.5700   23.8360   36.8220 N   0  0  0  0  0  0  0  0  0  0  0  0
   37.7660   23.7640   38.1500 C   0  0  0  0  0  0  0  0  0  0  0  0
   38.8760   23.2420   38.6680 N   0  0  0  0  0  0  0  0  0  0  0  0
   40.8120   22.3080   38.0670 H   0  0  0  0  0  0  0  0  0  0  0  0
   40.3670   22.4830   35.7130 H   0  0  0  0  0  0  0  0  0  0  0  0
   37.0720   24.1070   38.8920 H   0  0  0  0  0  0  0  0  0  0  0  0
   37.2120   26.8410   31.6440 C   0  0  0  0  0  0  0  0  0  0  0  0
   36.1400   26.1860   31.9230 O   0  0  0  0  0  0  0  0  0  0  0  0
   38.4430   26.1580   31.9580 N   0  0  0  0  0  0  0  0  0  0  0  0
   39.2810   26.7070   31.7210 H   0  0  0  0  0  0  0  0  0  0  0  0
   36.5360   29.1110   31.9160 C   0  0  0  0  0  0  0  0  0  0  0  0
   37.0330   28.1600   31.0570 C   0  0  0  0  0  0  0  0  0  0  0  0
   37.3440   28.4080   29.7390 C   0  0  0  0  0  0  0  0  0  0  0  0
   37.7290   27.6410   29.0960 H   0  0  0  0  0  0  0  0  0  0  0  0
   37.1080   29.7250   29.3360 C   0  0  0  0  0  0  0  0  0  0  0  0
   37.3370   29.9930   28.3010 H   0  0  0  0  0  0  0  0  0  0  0  0
   36.6150   30.6910   30.1680 C   0  0  0  0  0  3  0  0  0  0  0  0
   36.3100   30.4100   31.5000 C   0  0  0  0  0  3  0  0  0  0  0  0
   35.9550   28.6420   34.4160 N   0  0  0  0  0  0  0  0  0  0  0  0
   36.2080   28.8380   33.3070 C   0  0  0  0  0  0  0  0  0  0  0  0
  2  3  1  0  0  0  0
  2  1  1  0  0  0  0
  3 13  1  0  0  0  0
  4  8  1  0  0  0  0
  4  3  2  0  0  0  0
  5  4  1  0  0  0  0
  6  5  2  0  0  0  0
  6  7  1  0  0  0  0
  7  2  2  0  0  0  0
  9  5  1  0  0  0  0
 10  6  1  0  0  0  0
 11 17  1  0  0  0  0
 11 16  1  0  0  0  0
 12 11  2  0  0  0  0
 13 12  1  0  0  0  0
 13 14  2  0  0  0  0
 14 15  1  0  0  0  0
 15 16  2  0  0  0  0
 15 19  1  0  0  0  0
 18 12  1  0  0  0  0
 20 21  2  0  0  0  0
 20 22  1  0  0  0  0
 22  7  1  0  0  0  0
 23 22  1  0  0  0  0
 24 33  1  0  0  0  0
 25 20  1  0  0  0  0
 25 24  2  0  0  0  0
 26 25  1  0  0  0  0
 27 26  1  0  0  0  0
 28 26  2  0  0  0  0
 28 30  1  0  0  0  0
 29 28  1  0  0  0  0
 30 31  2  0  0  0  0
 31 24  1  0  0  0  0
 33 32  3  0  0  0  0
M  END
>  <minimizedAffinity>
-5.28961039

$$$$

 OpenBabel03272503073D

 33 35  0  0  0  0  0  0  0  0999 V2000
   35.2150   26.2040   31.5950 F   0  0  0  0  0  0  0  0  0  0  0  0
   36.5410   26.4500   31.4140 C   0  0  0  0  0  0  0  0  0  0  0  0
   37.0590   27.6790   31.7500 C   0  0  0  0  0  0  0  0  0  0  0  0
   38.3930   27.8640   31.5450 C   0  0  0  0  0  0  0  0  0  0  0  0
   39.2200   26.8920   31.0280 C   0  0  0  0  0  0  0  0  0  0  0  0
   38.6800   25.6640   30.6960 C   0  0  0  0  0  0  0  0  0  0  0  0
   37.3240   25.4420   30.8930 C   0  0  0  0  0  0  0  0  0  0  0  0
   38.8190   28.8400   31.8070 H   0  0  0  0  0  0  0  0  0  0  0  0
   40.2820   27.0890   30.8900 H   0  0  0  0  0  0  0  0  0  0  0  0
   39.2800   24.8640   30.2870 H   0  0  0  0  0  0  0  0  0  0  0  0
   35.0120   29.7610   34.1620 C   0  0  0  0  0  0  0  0  0  0  0  0
   35.8990   28.7880   33.6620 C   0  0  0  0  0  0  0  0  0  0  0  0
   36.1390   28.6850   32.3010 C   0  0  0  0  0  0  0  0  0  0  0  0
   35.4900   29.5570   31.4840 N   0  0  0  0  0  0  0  0  0  0  0  0
   34.6460   30.4810   31.9760 C   0  0  0  0  0  0  0  0  0  0  0  0
   34.4060   30.5880   33.2810 N   0  0  0  0  0  0  0  0  0  0  0  0
   34.9630   29.6740   35.2400 H   0  0  0  0  0  0  0  0  0  0  0  0
   36.4510   28.0610   34.2630 H   0  0  0  0  0  0  0  0  0  0  0  0
   34.1040   31.1930   31.3850 H   0  0  0  0  0  0  0  0  0  0  0  0
   36.7870   23.2190   31.6330 C   0  0  0  0  0  0  0  0  0  0  0  0
   37.3610   23.6320   32.7080 O   0  0  0  0  0  0  0  0  0  0  0  0
   36.7290   24.1850   30.5640 N   0  0  0  0  0  0  0  0  0  0  0  0
   36.2660   23.8240   29.7170 H   0  0  0  0  0  0  0  0  0  0  0  0
   37.0640   20.9450   30.9750 C   0  0  0  0  0  0  0  0  0  0  0  0
   36.2840   21.8540   31.6480 C   0  0  0  0  0  0  0  0  0  0  0  0
   35.1140   21.5270   32.2950 C   0  0  0  0  0  0  0  0  0  0  0  0
   34.5290   22.2630   32.8100 H   0  0  0  0  0  0  0  0  0  0  0  0
   34.7740   20.1750   32.2080 C   0  0  0  0  0  0  0  0  0  0  0  0
   33.8560   19.8430   32.7020 H   0  0  0  0  0  0  0  0  0  0  0  0
   35.5300   19.2490   31.5450 C   0  0  0  0  0  3  0  0  0  0  0  0
   36.7120   19.6090   30.9000 C   0  0  0  0  0  3  0  0  0  0  0  0
   39.2770   21.5650   29.7400 N   0  0  0  0  0  0  0  0  0  0  0  0
   38.3000   21.3000   30.2930 C   0  0  0  0  0  0  0  0  0  0  0  0
  2  1  1  0  0  0  0
  2  3  1  0  0  0  0
  3 13  1  0  0  0  0
  4  3  2  0  0  0  0
  4  8  1  0  0  0  0
  5  4  1  0  0  0  0
  6  7  1  0  0  0  0
  6  5  2  0  0  0  0
  7  2  2  0  0  0  0
  9  5  1  0  0  0  0
 10  6  1  0  0  0  0
 11 17  1  0  0  0  0
 12 11  1  0  0  0  0
 12 18  1  0  0  0  0
 13 12  2  0  0  0  0
 14 15  2  0  0  0  0
 14 13  1  0  0  0  0
 15 16  1  0  0  0  0
 16 11  2  0  0  0  0
 19 15  1  0  0  0  0
 20 25  1  0  0  0  0
 20 21  2  0  0  0  0
 22  7  1  0  0  0  0
 22 20  1  0  0  0  0
 23 22  1  0  0  0  0
 24 25  1  0  0  0  0
 25 26  2  0  0  0  0
 26 27  1  0  0  0  0
 28 26  1  0  0  0  0
 28 29  1  0  0  0  0
 30 28  2  0  0  0  0
 31 24  2  0  0  0  0
 31 30  1  0  0  0  0
 32 33  3  0  0  0  0
 33 24  1  0  0  0  0
M  END
>  <minimizedAffinity>
-5.2514739

$$$$

 OpenBabel03272503073D

 33 35  0  0  0  0  0  0  0  0999 V2000
   36.2650   26.9330   33.5200 F   0  0  0  0  0  0  0  0  0  0  0  0
   36.3980   27.7420   32.4330 C   0  0  0  0  0  0  0  0  0  0  0  0
   36.7310   27.1970   31.2140 C   0  0  0  0  0  0  0  0  0  0  0  0
   36.8490   28.0560   30.1660 C   0  0  0  0  0  0  0  0  0  0  0  0
   36.6530   29.4150   30.2760 C   0  0  0  0  0  0  0  0  0  0  0  0
   36.3190   29.9430   31.5080 C   0  0  0  0  0  0  0  0  0  0  0  0
   36.1900   29.0940   32.5990 C   0  0  0  0  0  0  0  0  0  0  0  0
   37.1150   27.6360   29.1880 H   0  0  0  0  0  0  0  0  0  0  0  0
   36.7530   30.0590   29.4030 H   0  0  0  0  0  0  0  0  0  0  0  0
   36.1530   31.0000   31.6550 H   0  0  0  0  0  0  0  0  0  0  0  0
   36.0780   23.4700   31.0460 C   0  0  0  0  0  0  0  0  0  0  0  0
   35.8590   24.8590   31.1150 C   0  0  0  0  0  0  0  0  0  0  0  0
   36.9280   25.7410   31.1430 C   0  0  0  0  0  0  0  0  0  0  0  0
   38.1790   25.2090   31.1010 N   0  0  0  0  0  0  0  0  0  0  0  0
   38.3720   23.8800   31.0370 C   0  0  0  0  0  0  0  0  0  0  0  0
   37.3530   23.0230   31.0100 N   0  0  0  0  0  0  0  0  0  0  0  0
   35.1220   22.9620   31.0350 H   0  0  0  0  0  0  0  0  0  0  0  0
   34.8830   25.3490   31.1490 H   0  0  0  0  0  0  0  0  0  0  0  0
   39.3300   23.4000   31.0040 H   0  0  0  0  0  0  0  0  0  0  0  0
   34.4350   29.8610   34.0520 C   0  0  0  0  0  0  0  0  0  0  0  0
   33.7120   29.6000   33.0210 O   0  0  0  0  0  0  0  0  0  0  0  0
   35.8450   29.6020   33.8890 N   0  0  0  0  0  0  0  0  0  0  0  0
   36.3960   29.8220   34.7310 H   0  0  0  0  0  0  0  0  0  0  0  0
   34.2640   31.5300   35.7450 C   0  0  0  0  0  0  0  0  0  0  0  0
   33.7380   30.3740   35.2210 C   0  0  0  0  0  0  0  0  0  0  0  0
   32.6390   29.7290   35.7420 C   0  0  0  0  0  0  0  0  0  0  0  0
   32.2560   28.8260   35.3080 H   0  0  0  0  0  0  0  0  0  0  0  0
   32.0930   30.3530   36.8670 C   0  0  0  0  0  0  0  0  0  0  0  0
   31.2150   29.8960   37.3310 H   0  0  0  0  0  0  0  0  0  0  0  0
   32.5950   31.5030   37.4090 C   0  0  0  0  0  3  0  0  0  0  0  0
   33.7100   32.1350   36.8590 C   0  0  0  0  0  3  0  0  0  0  0  0
   36.3630   32.7240   34.7570 N   0  0  0  0  0  0  0  0  0  0  0  0
   35.4280   32.2040   35.1880 C   0  0  0  0  0  0  0  0  0  0  0  0
  2  7  1  0  0  0  0
  2  1  1  0  0  0  0
  3  2  2  0  0  0  0
  4  5  2  0  0  0  0
  4  3  1  0  0  0  0
  5  6  1  0  0  0  0
  6 10  1  0  0  0  0
  6  7  2  0  0  0  0
  7 22  1  0  0  0  0
  8  4  1  0  0  0  0
  9  5  1  0  0  0  0
 11 12  1  0  0  0  0
 12 13  2  0  0  0  0
 12 18  1  0  0  0  0
 13  3  1  0  0  0  0
 14 13  1  0  0  0  0
 15 14  2  0  0  0  0
 16 15  1  0  0  0  0
 16 11  2  0  0  0  0
 17 11  1  0  0  0  0
 19 15  1  0  0  0  0
 20 25  1  0  0  0  0
 21 20  2  0  0  0  0
 22 20  1  0  0  0  0
 22 23  1  0  0  0  0
 24 31  1  0  0  0  0
 25 26  1  0  0  0  0
 25 24  2  0  0  0  0
 26 28  2  0  0  0  0
 27 26  1  0  0  0  0
 28 29  1  0  0  0  0
 28 30  1  0  0  0  0
 31 30  2  0  0  0  0
 32 33  3  0  0  0  0
 33 24  1  0  0  0  0
M  END
>  <minimizedAffinity>
-5.24505091

$$$$
