
 OpenBabel03272501573D

 32 34  0  0  0  0  0  0  0  0999 V2000
   32.4880   28.1750   47.8810 C   0  0  0  0  0  0  0  0  0  0  0  0
   31.9480   27.6760   49.0330 C   0  0  0  0  0  0  0  0  0  0  0  0
   30.5800   27.5970   48.9270 C   0  0  0  0  0  0  0  0  0  0  0  0
   30.3060   28.0580   47.6910 N   0  0  0  0  0  0  0  0  0  0  0  0
   31.4440   28.4000   47.0750 N   0  0  0  0  0  0  0  0  0  0  0  0
   32.5110   27.3740   49.9270 H   0  0  0  0  0  0  0  0  0  0  0  0
   29.8210   27.2600   49.6180 H   0  0  0  0  0  0  0  0  0  0  0  0
   28.4840   27.2390   46.2410 C   0  0  0  0  0  0  0  0  0  0  0  0
   29.0650   28.2220   47.0000 C   0  0  0  0  0  0  0  0  0  0  0  0
   28.3730   29.4330   47.0750 C   0  0  0  0  0  0  0  0  0  0  0  0
   28.8480   30.1980   47.6790 H   0  0  0  0  0  0  0  0  0  0  0  0
   27.1710   29.7010   46.4510 C   0  0  0  0  0  0  0  0  0  0  0  0
   26.7580   30.6880   46.6040 H   0  0  0  0  0  0  0  0  0  0  0  0
   26.6140   28.6840   45.6930 C   0  0  0  0  0  3  0  0  0  0  0  0
   27.2850   27.4650   45.6020 C   0  0  0  0  0  3  0  0  0  0  0  0
   29.6150   24.9490   45.9980 N   0  0  0  0  0  0  0  0  0  0  0  0
   29.1170   25.9800   46.1120 C   0  0  0  0  0  0  0  0  0  0  0  0
   33.9470   28.4170   47.5840 C   0  0  0  0  0  0  0  0  0  0  0  0
   34.0460   29.4440   47.2380 H   0  0  0  0  0  0  0  0  0  0  0  0
   34.2640   27.7030   46.8000 H   0  0  0  0  0  0  0  0  0  0  0  0
   34.6660   28.2020   48.8920 C   0  0  0  0  0  0  0  0  0  0  0  0
   35.1170   27.1790   48.9270 H   0  0  0  0  0  0  0  0  0  0  0  0
   34.0070   28.2700   49.7820 H   0  0  0  0  0  0  0  0  0  0  0  0
   37.7280   29.9040   50.0640 C   0  0  0  0  0  0  0  0  0  0  0  0
   37.9020   30.9100   49.0990 C   0  0  0  0  0  0  0  0  0  0  0  0
   36.9680   30.9910   48.0620 C   0  0  0  0  0  0  0  0  0  0  0  0
   35.9410   30.0990   48.0320 N   0  0  0  0  0  0  0  0  0  0  0  0
   35.8170   29.1440   48.9890 C   0  0  0  0  0  0  0  0  0  0  0  0
   36.7030   29.0610   49.9800 N   0  0  0  0  0  0  0  0  0  0  0  0
   38.4900   29.9130   50.8270 H   0  0  0  0  0  0  0  0  0  0  0  0
   38.6660   31.6610   49.0230 H   0  0  0  0  0  0  0  0  0  0  0  0
   36.9670   31.7060   47.2500 H   0  0  0  0  0  0  0  0  0  0  0  0
  1  2  1  0  0  0  0
  2  6  1  0  0  0  0
  3  2  2  0  0  0  0
  3  7  1  0  0  0  0
  4  3  1  0  0  0  0
  5  4  1  0  0  0  0
  5  1  2  0  0  0  0
  8  9  1  0  0  0  0
  9 10  2  0  0  0  0
  9  4  1  0  0  0  0
 10 11  1  0  0  0  0
 12 13  1  0  0  0  0
 12 10  1  0  0  0  0
 14 12  2  0  0  0  0
 15 14  1  0  0  0  0
 15  8  2  0  0  0  0
 16 17  3  0  0  0  0
 17  8  1  0  0  0  0
 18  1  1  0  0  0  0
 18 21  1  0  0  0  0
 19 18  1  0  0  0  0
 20 18  1  0  0  0  0
 21 22  1  0  0  0  0
 21 28  1  0  0  0  0
 21 23  1  0  0  0  0
 24 30  1  0  0  0  0
 25 24  2  0  0  0  0
 26 25  1  0  0  0  0
 27 26  2  0  0  0  0
 27 28  1  0  0  0  0
 28 29  2  0  0  0  0
 29 24  1  0  0  0  0
 31 25  1  0  0  0  0
 32 26  1  0  0  0  0
M  END
>  <minimizedAffinity>
-4.71555042

>  <minimizedRMSD>
2.55425835

$$$$
