REMARK  Name = 
REMARK  4 active torsions:
REMARK  status: ('A' for Active; 'I' for Inactive)
REMARK    1  A    between atoms: C_3  and  C_10
REMARK    2  A    between atoms: C_7  and  N_16
REMARK    3  A    between atoms: C_14  and  C_27
REMARK    4  A    between atoms: C_25  and  C_26
REMARK                            x       y       z     vdW  Elec       q    Type
REMARK                         _______ _______ _______ _____ _____    ______ ____
ROOT
ATOM      1  F   UNL     1      38.454  30.435  47.308  0.00  0.00    +0.000 F 
ATOM      2  C   UNL     1      38.756  31.673  47.787  0.00  0.00    +0.000 A 
ATOM      3  C   UNL     1      38.233  32.085  48.991  0.00  0.00    +0.000 A 
ATOM      4  C   UNL     1      38.572  33.333  49.416  0.00  0.00    +0.000 A 
ATOM      5  C   UNL     1      39.396  34.176  48.705  0.00  0.00    +0.000 A 
ATOM      6  C   UNL     1      39.911  33.744  47.498  0.00  0.00    +0.000 A 
ATOM      7  C   UNL     1      39.586  32.476  47.035  0.00  0.00    +0.000 A 
ATOM      8  H   UNL     1      38.161  33.675  50.374  0.00  0.00    +0.000 HD
ATOM      9  H   UNL     1      39.642  35.164  49.093  0.00  0.00    +0.000 HD
ATOM     10  H   UNL     1      40.563  34.361  46.896  0.00  0.00    +0.000 HD
ENDROOT
BRANCH   3  13
ATOM     11  C   UNL     1      36.928  29.598  51.532  0.00  0.00    +0.000 A 
ATOM     12  C   UNL     1      37.786  30.488  50.857  0.00  0.00    +0.000 A 
ATOM     13  C   UNL     1      37.360  31.150  49.717  0.00  0.00    +0.000 A 
ATOM     14  N   UNL     1      36.093  30.905  49.288  0.00  0.00    +0.000 NA
ATOM     15  C   UNL     1      35.285  30.052  49.942  0.00  0.00    +0.000 A 
ATOM     16  N   UNL     1      35.684  29.409  51.038  0.00  0.00    +0.000 NA
ATOM     17  H   UNL     1      37.447  29.188  52.389  0.00  0.00    +0.000 HD
ATOM     18  H   UNL     1      38.811  30.729  51.150  0.00  0.00    +0.000 HD
ATOM     19  H   UNL     1      34.280  29.816  49.654  0.00  0.00    +0.000 HD
ENDBRANCH   3  13
BRANCH   7  22
ATOM     20  C   UNL     1      39.193  32.166  44.684  0.00  0.00    +0.000 C 
ATOM     21  O   UNL     1      38.071  32.720  44.981  0.00  0.00    +0.000 OA
ATOM     22  N   UNL     1      40.100  31.993  45.792  0.00  0.00    +0.000 N 
ATOM     23  H   UNL     1      40.988  31.546  45.522  0.00  0.00    +0.000 HD
BRANCH  20  25
ATOM     24  C   UNL     1      38.377  32.190  42.444  0.00  0.00    +0.000 A 
ATOM     25  C   UNL     1      39.386  31.796  43.290  0.00  0.00    +0.000 A 
ATOM     26  C   UNL     1      40.503  31.103  42.879  0.00  0.00    +0.000 A 
ATOM     27  H   UNL     1      41.270  30.810  43.568  0.00  0.00    +0.000 HD
ATOM     28  C   UNL     1      40.528  30.825  41.511  0.00  0.00    +0.000 A 
ATOM     29  H   UNL     1      41.389  30.279  41.114  0.00  0.00    +0.000 HD
ATOM     30  C   UNL     1      39.540  31.204  40.645  0.00  0.00    +0.000 A 
ATOM     31  C   UNL     1      38.420  31.907  41.090  0.00  0.00    +0.000 A 
BRANCH  24  33
ATOM     32  N   UNL     1      36.279  33.512  43.253  0.00  0.00    +0.000 NA
ATOM     33  C   UNL     1      37.200  32.921  42.889  0.00  0.00    +0.000 C 
ENDBRANCH  24  33
ENDBRANCH  20  25
ENDBRANCH   7  22
TORSDOF 4
