
     RDKit          3D

 49 53  0  0  0  0  0  0  0  0999 V2000
   38.1311   30.1522   47.4879 F   0  0  0  0  0  0  0  0  0  0  0  0
   38.3771   31.3890   47.9798 C   0  0  0  0  0  0  0  0  0  0  0  0
   37.7177   31.8353   49.0860 C   0  0  0  0  0  0  0  0  0  0  0  0
   38.0205   33.1026   49.5251 C   0  0  0  0  0  0  0  0  0  0  0  0
   38.9389   33.9031   48.8992 C   0  0  0  0  0  0  0  0  0  0  0  0
   39.6039   33.4289   47.7682 C   0  0  0  0  0  0  0  0  0  0  0  0
   39.3119   32.1562   47.3122 C   0  0  0  0  0  0  0  0  0  0  0  0
   36.0728   29.3544   51.4358 C   0  0  0  0  0  0  0  0  0  0  0  0
   37.0420   30.2122   50.8538 C   0  0  0  0  0  0  0  0  0  0  0  0
   36.7459   30.9395   49.7168 C   0  0  0  0  0  0  0  0  0  0  0  0
   35.4897   30.7939   49.1874 N   0  0  0  0  0  0  0  0  0  0  0  0
   34.5770   29.9794   49.7442 C   0  0  0  0  0  0  0  0  0  0  0  0
   34.8596   29.2774   50.8398 N   0  0  0  0  0  0  0  0  0  0  0  0
   39.2961   31.8978   44.9446 C   0  0  0  0  0  0  0  0  0  0  0  0
   38.1941   32.5473   45.0597 O   0  0  0  0  0  0  0  0  0  0  0  0
   39.9804   31.6388   46.1494 N   0  0  0  0  0  0  0  0  0  0  0  0
   39.1879   32.1931   42.5538 C   0  0  0  0  0  0  0  0  0  0  0  0
   39.7177   31.5045   43.6192 C   0  0  0  0  0  0  0  0  0  0  0  0
   40.6181   30.4721   43.4656 C   0  0  0  0  0  0  0  0  0  0  0  0
   41.0164   30.1014   42.1759 C   0  0  0  0  0  0  0  0  0  0  0  0
   41.8480   29.1678   41.7245 N   0  0  0  0  0  0  0  0  0  0  0  0
   41.8596   29.2460   40.4011 C   0  0  0  0  0  0  0  0  0  0  0  0
   41.0294   30.2360   40.0100 N   0  0  0  0  0  0  0  0  0  0  0  0
   40.4746   30.8035   41.1088 C   0  0  0  0  0  0  0  0  0  0  0  0
   39.5728   31.8372   41.2542 C   0  0  0  0  0  0  0  0  0  0  0  0
   39.0445   32.5175   40.1880 O   0  0  0  0  0  0  0  0  0  0  0  0
   37.5004   33.4643   50.4037 H   0  0  0  0  0  0  0  0  0  0  0  0
   39.1172   34.8880   49.3113 H   0  0  0  0  0  0  0  0  0  0  0  0
   40.3307   34.0549   47.2681 H   0  0  0  0  0  0  0  0  0  0  0  0
   36.3579   28.8072   52.3269 H   0  0  0  0  0  0  0  0  0  0  0  0
   38.0378   30.3242   51.2781 H   0  0  0  0  0  0  0  0  0  0  0  0
   33.6104   29.9348   49.2471 H   0  0  0  0  0  0  0  0  0  0  0  0
   40.8714   31.1175   46.0887 H   0  0  0  0  0  0  0  0  0  0  0  0
   38.4864   33.0122   42.7567 H   0  0  0  0  0  0  0  0  0  0  0  0
   41.0260   29.9401   44.3103 H   0  0  0  0  0  0  0  0  0  0  0  0
   42.3965   28.4910   42.3087 H   0  0  0  0  0  0  0  0  0  0  0  0
   42.4535   28.6018   39.7523 H   0  0  0  0  0  0  0  0  0  0  0  0
   36.0775   30.9548   38.8294 N   0  0  0  0  0  0  0  0  0  0  0  0
   36.3840   31.9822   39.2617 C   0  0  0  0  0  0  0  0  0  0  0  0
   36.7934   33.2670   39.8096 C   0  0  0  0  0  0  0  0  0  0  0  0
   38.1001   33.5147   40.2483 C   0  0  0  0  0  0  0  0  0  0  0  0
   38.3373   34.8001   40.7229 C   0  0  0  0  0  0  0  0  0  0  0  0
   39.3489   35.0126   41.0685 H   0  0  0  0  0  0  0  0  0  0  0  0
   37.3467   35.7746   40.7612 C   0  0  0  0  0  0  0  0  0  0  0  0
   37.5768   36.7643   41.1396 H   0  0  0  0  0  0  0  0  0  0  0  0
   36.0722   35.4862   40.3192 C   0  0  0  0  0  0  0  0  0  0  0  0
   35.7949   34.2223   39.8399 C   0  0  0  0  0  0  0  0  0  0  0  0
   35.2869   36.2287   40.3402 H   0  0  0  0  0  0  0  0  0  0  0  0
   34.7917   34.0210   39.5001 H   0  0  0  0  0  0  0  0  0  0  0  0
  1  2  1  0
  2  3  2  0
  3  4  1  0
  3 10  1  0
  5  4  2  0
  6  5  1  0
  7  6  2  0
  7  2  1  0
  9  8  2  0
 10  9  1  0
 11 10  2  0
 11 12  1  0
 12 13  2  0
 13  8  1  0
 14 15  2  0
 14 16  1  0
 16  7  1  0
 17 18  2  0
 18 14  1  0
 19 18  1  0
 20 19  2  0
 21 20  1  0
 22 21  1  0
 23 22  2  0
 23 24  1  0
 24 25  2  0
 24 20  1  0
 25 17  1  0
 26 25  1  0
  4 27  1  0
  5 28  1  0
  6 29  1  0
  8 30  1  0
  9 31  1  0
 12 32  1  0
 16 33  1  0
 17 34  1  0
 19 35  1  0
 21 36  1  0
 22 37  1  0
 38 39  3  0
 39 40  1  0
 40 41  2  0
 41 42  1  0
 42 43  1  0
 42 44  2  0
 44 45  1  0
 44 46  1  0
 46 47  2  0
 47 40  1  0
 46 48  1  0
 47 49  1  0
 26 41  1  0
M  ISO  8  27  14  28  14  29  14  30  14  31  14  32  14  34  14  35  14
M  ISO  4  36   9  37  14  43  15  45  16
M  END
>  <DihAtoms>  (1) 
24,25,40,39

>  <DihDeg>  (1) 
-63.40821229112201

$$$$
