
 OpenBabel03272509303D

 39 41  0  0  1  0  0  0  0  0999 V2000
   35.8830   30.5750   48.9750 C   0  0  2  0  0  0  0  0  0  0  0  0
   36.6750   31.4830   49.8640 C   0  0  0  0  0  0  0  0  0  0  0  0
   37.5750   30.7370   50.8230 C   0  0  0  0  0  0  0  0  0  0  0  0
   36.7860   29.7370   51.6630 C   0  0  0  0  0  0  0  0  0  0  0  0
   35.6320   29.0970   50.9240 C   0  0  0  0  0  0  0  0  0  0  0  0
   35.9500   29.1540   49.4180 C   0  0  1  0  0  0  0  0  0  0  0  0
   34.7900   30.8200   48.9230 H   0  0  0  0  0  0  0  0  0  0  0  0
   35.8930   31.9600   50.5460 H   0  0  0  0  0  0  0  0  0  0  0  0
   37.1940   32.3040   49.4060 H   0  0  0  0  0  0  0  0  0  0  0  0
   37.9320   31.5100   51.5650 H   0  0  0  0  0  0  0  0  0  0  0  0
   38.4540   30.2830   50.3770 H   0  0  0  0  0  0  0  0  0  0  0  0
   36.3950   30.1900   52.5830 H   0  0  0  0  0  0  0  0  0  0  0  0
   37.5120   28.9090   51.9010 H   0  0  0  0  0  0  0  0  0  0  0  0
   34.7110   29.6710   51.0720 H   0  0  0  0  0  0  0  0  0  0  0  0
   35.4990   28.0430   51.2350 H   0  0  0  0  0  0  0  0  0  0  0  0
   36.9430   28.7830   49.4200 H   0  0  0  0  0  0  0  0  0  0  0  0
   36.3540   30.6590   47.5660 C   0  0  0  0  0  0  0  0  0  0  0  0
   37.6340   31.1920   47.3850 C   0  0  0  0  0  0  0  0  0  0  0  0
   38.0990   31.2810   46.0680 C   0  0  0  0  0  0  0  0  0  0  0  0
   37.2870   30.8460   45.0440 N   0  0  0  0  0  0  0  0  0  0  0  0
   36.0370   30.3310   45.2800 C   0  0  0  0  0  0  0  0  0  0  0  0
   35.5930   30.2480   46.5450 N   0  0  0  0  0  0  0  0  0  0  0  0
   38.3740   31.5560   48.0690 H   0  0  0  0  0  0  0  0  0  0  0  0
   39.0520   31.6630   45.7660 H   0  0  0  0  0  0  0  0  0  0  0  0
   35.4630   30.0120   44.4320 H   0  0  0  0  0  0  0  0  0  0  0  0
   33.8240   27.9660   48.6970 C   0  0  0  0  0  0  0  0  0  0  0  0
   32.8970   28.4590   49.3950 O   0  0  0  0  0  0  0  0  0  0  0  0
   35.2140   28.2410   48.6200 N   0  0  0  0  0  0  0  0  0  0  0  0
   35.6480   27.6450   47.8460 H   0  0  0  0  0  0  0  0  0  0  0  0
   31.7650   26.7510   48.1010 C   0  0  0  0  0  0  0  0  0  0  0  0
   33.1340   26.9360   47.8820 C   0  0  0  0  0  0  0  0  0  0  0  0
   33.7750   26.1540   46.9260 C   0  0  0  0  0  0  0  0  0  0  0  0
   34.8170   26.3310   46.7930 H   0  0  0  0  0  0  0  0  0  0  0  0
   33.0310   25.2140   46.2210 C   0  0  0  0  0  0  0  0  0  0  0  0
   33.5490   24.6050   45.4720 H   0  0  0  0  0  0  0  0  0  0  0  0
   31.6780   25.0430   46.4490 C   0  0  0  0  0  3  0  0  0  0  0  0
   31.0100   25.8120   47.4000 C   0  0  0  0  0  3  0  0  0  0  0  0
   30.4960   28.1710   49.8780 N   0  0  0  0  0  0  0  0  0  0  0  0
   31.0600   27.5370   49.0800 C   0  0  0  0  0  0  0  0  0  0  0  0
  1  7  1  1  0  0  0
  1  6  1  0  0  0  0
  1  2  1  0  0  0  0
  2  8  1  0  0  0  0
  2  3  1  0  0  0  0
  3 10  1  0  0  0  0
  3  4  1  0  0  0  0
  4 13  1  0  0  0  0
  4 12  1  0  0  0  0
  5 14  1  0  0  0  0
  5 15  1  0  0  0  0
  5  4  1  0  0  0  0
  6 16  1  6  0  0  0
  6  5  1  0  0  0  0
  9  2  1  0  0  0  0
 11  3  1  0  0  0  0
 17  1  1  0  0  0  0
 18 17  1  0  0  0  0
 18 23  1  0  0  0  0
 19 18  2  0  0  0  0
 20 21  2  0  0  0  0
 20 19  1  0  0  0  0
 21 22  1  0  0  0  0
 22 17  2  0  0  0  0
 24 19  1  0  0  0  0
 25 21  1  0  0  0  0
 26 27  2  0  0  0  0
 28 26  1  0  0  0  0
 28  6  1  0  0  0  0
 29 28  1  0  0  0  0
 30 39  1  0  0  0  0
 31 30  1  0  0  0  0
 31 26  1  0  0  0  0
 32 31  2  0  0  0  0
 33 32  1  0  0  0  0
 34 36  2  0  0  0  0
 34 32  1  0  0  0  0
 35 34  1  0  0  0  0
 36 37  1  0  0  0  0
 37 30  2  0  0  0  0
 39 38  3  0  0  0  0
M  END
>  <minimizedAffinity>
-5.9985199

>  <minimizedRMSD>
0.705289364

$$$$
