REMARK  Name = 
REMARK  5 active torsions:
REMARK  status: ('A' for Active; 'I' for Inactive)
REMARK    1  A    between atoms: C_2  and  S_8
REMARK    2  A    between atoms: C_6  and  O_7
REMARK    3  A    between atoms: S_8  and  C_9
REMARK    4  A    between atoms: C_13  and  C_28
REMARK    5  A    between atoms: C_26  and  C_27
REMARK                            x       y       z     vdW  Elec       q    Type
REMARK                         _______ _______ _______ _____ _____    ______ ____
ROOT
ATOM      1  C   UNL     1      37.285  30.730  48.811  0.00  0.00    +0.000 A 
ATOM      2  C   UNL     1      37.221  31.865  49.656  0.00  0.00    +0.000 A 
ATOM      3  C   UNL     1      38.042  32.956  49.369  0.00  0.00    +0.000 A 
ATOM      4  N   UNL     1      38.876  32.861  48.265  0.00  0.00    +0.000 NA
ATOM      5  C   UNL     1      38.897  31.766  47.500  0.00  0.00    +0.000 A 
ATOM      6  N   UNL     1      38.115  30.724  47.772  0.00  0.00    +0.000 NA
ATOM      7  H   UNL     1      36.586  31.979  50.526  0.00  0.00    +0.000 HD
ATOM      8  H   UNL     1      38.019  33.840  49.993  0.00  0.00    +0.000 HD
ENDROOT
BRANCH   5  10
ATOM      9  C   UNL     1      39.779  30.522  45.560  0.00  0.00    +0.000 A 
ATOM     10  C   UNL     1      39.778  31.673  46.338  0.00  0.00    +0.000 A 
ATOM     11  C   UNL     1      40.602  32.735  46.026  0.00  0.00    +0.000 A 
ATOM     12  H   UNL     1      40.610  33.649  46.632  0.00  0.00    +0.000 HD
ATOM     13  C   UNL     1      41.435  32.655  44.934  0.00  0.00    +0.000 A 
ATOM     14  H   UNL     1      42.103  33.483  44.659  0.00  0.00    +0.000 HD
ATOM     15  C   UNL     1      41.474  31.522  44.121  0.00  0.00    +0.000 A 
ATOM     16  C   UNL     1      40.634  30.466  44.456  0.00  0.00    +0.000 A 
BRANCH   9  18
ATOM     17  N   UNL     1      38.232  28.495  46.091  0.00  0.00    +0.000 NA
ATOM     18  C   UNL     1      38.929  29.394  45.860  0.00  0.00    +0.000 C 
ENDBRANCH   9  18
ENDBRANCH   5  10
BRANCH   1  19
ATOM     19  S   UNL     1      36.180  29.448  49.325  0.00  0.00    +0.000 S 
BRANCH  19  21
ATOM     20  N   UNL     1      33.599  28.708  49.034  0.00  0.00    +0.000 NA
ATOM     21  C   UNL     1      34.442  29.878  48.924  0.00  0.00    +0.000 C 
ATOM     22  C   UNL     1      34.377  30.392  47.511  0.00  0.00    +0.000 C 
ATOM     23  O   UNL     1      33.253  29.859  46.836  0.00  0.00    +0.000 OA
ATOM     24  C   UNL     1      33.542  28.501  46.669  0.00  0.00    +0.000 C 
ATOM     25  C   UNL     1      33.922  27.820  47.951  0.00  0.00    +0.000 C 
ATOM     26  H   UNL     1      32.620  29.003  49.094  0.00  0.00    +0.000 HD
ATOM     27  H   UNL     1      34.118  30.707  49.589  0.00  0.00    +0.000 HD
ATOM     28  H   UNL     1      35.319  30.169  46.966  0.00  0.00    +0.000 HD
ATOM     29  H   UNL     1      34.254  31.502  47.480  0.00  0.00    +0.000 HD
ATOM     30  H   UNL     1      32.736  27.953  46.148  0.00  0.00    +0.000 HD
ATOM     31  H   UNL     1      34.434  28.476  45.996  0.00  0.00    +0.000 HD
ATOM     32  H   UNL     1      34.983  27.563  48.012  0.00  0.00    +0.000 HD
BRANCH  25  33
ATOM     33  O   UNL     1      33.176  26.631  48.108  0.00  0.00    +0.000 OA
ATOM     34  H   UNL     1      32.214  26.863  48.072  0.00  0.00    +0.000 HD
ENDBRANCH  25  33
ENDBRANCH  19  21
ENDBRANCH   1  19
TORSDOF 5
