REMARK  Name = 
REMARK  2 active torsions:
REMARK  status: ('A' for Active; 'I' for Inactive)
REMARK    1  A    between atoms: C_5  and  C_15
REMARK    2  A    between atoms: C_13  and  C_14
REMARK                            x       y       z     vdW  Elec       q    Type
REMARK                         _______ _______ _______ _____ _____    ______ ____
ROOT
ATOM      1  C   UNL     1      37.300  30.222  51.451  0.00  0.00    +0.000 A 
ATOM      2  C   UNL     1      38.118  30.753  50.424  0.00  0.00    +0.000 A 
ATOM      3  C   UNL     1      37.795  30.410  49.121  0.00  0.00    +0.000 A 
ATOM      4  N   UNL     1      36.736  29.601  48.891  0.00  0.00    +0.000 NA
ATOM      5  C   UNL     1      35.973  29.108  49.881  0.00  0.00    +0.000 A 
ATOM      6  N   UNL     1      36.259  29.421  51.153  0.00  0.00    +0.000 NA
ATOM      7  N   UNL     1      38.628  30.953  48.092  0.00  0.00    +0.000 N 
ATOM      8  H   UNL     1      37.546  30.485  52.476  0.00  0.00    +0.000 HD
ATOM      9  H   UNL     1      38.943  31.393  50.723  0.00  0.00    +0.000 HD
ATOM     10  H   UNL     1      39.610  30.734  47.802  0.00  0.00    +0.000 HD
ATOM     11  H   UNL     1      38.047  31.691  47.608  0.00  0.00    +0.000 HD
ENDROOT
BRANCH   5  13
ATOM     12  C   UNL     1      33.557  28.578  49.879  0.00  0.00    +0.000 A 
ATOM     13  C   UNL     1      34.849  28.241  49.539  0.00  0.00    +0.000 A 
ATOM     14  C   UNL     1      35.148  27.067  48.857  0.00  0.00    +0.000 A 
ATOM     15  H   UNL     1      36.158  26.794  48.586  0.00  0.00    +0.000 HD
ATOM     16  C   UNL     1      34.087  26.222  48.520  0.00  0.00    +0.000 A 
ATOM     17  H   UNL     1      34.315  25.307  47.989  0.00  0.00    +0.000 HD
ATOM     18  C   UNL     1      32.806  26.593  48.877  0.00  0.00    +0.000 A 
ATOM     19  C   UNL     1      32.494  27.755  49.554  0.00  0.00    +0.000 A 
BRANCH  12  21
ATOM     20  N   UNL     1      33.101  30.808  51.138  0.00  0.00    +0.000 NA
ATOM     21  C   UNL     1      33.306  29.797  50.580  0.00  0.00    +0.000 C 
ENDBRANCH  12  21
ENDBRANCH   5  13
TORSDOF 2
