REMARK  Name = 
REMARK  4 active torsions:
REMARK  status: ('A' for Active; 'I' for Inactive)
REMARK    1  A    between atoms: N_1  and  C_6
REMARK    2  A    between atoms: C_4  and  C_14
REMARK    3  A    between atoms: C_18  and  C_35
REMARK    4  A    between atoms: C_33  and  C_34
REMARK                            x       y       z     vdW  Elec       q    Type
REMARK                         _______ _______ _______ _____ _____    ______ ____
ROOT
ATOM      1  N   UNL     1      33.553  29.879  46.492  0.00  0.00    +0.000 N 
ATOM      2  C   UNL     1      34.780  29.800  45.724  0.00  0.00    +0.000 C 
ATOM      3  C   UNL     1      35.843  30.104  46.740  0.00  0.00    +0.000 C 
ATOM      4  C   UNL     1      35.038  30.551  48.046  0.00  0.00    +0.000 C 
ATOM      5  C   UNL     1      33.880  29.668  47.917  0.00  0.00    +0.000 C 
ATOM      6  H   UNL     1      34.917  28.803  45.256  0.00  0.00    +0.000 HD
ATOM      7  H   UNL     1      34.791  30.621  44.983  0.00  0.00    +0.000 HD
ATOM      8  H   UNL     1      36.508  30.948  46.478  0.00  0.00    +0.000 HD
ATOM      9  H   UNL     1      36.368  29.200  47.048  0.00  0.00    +0.000 HD
ATOM     10  H   UNL     1      34.881  31.616  47.840  0.00  0.00    +0.000 HD
ATOM     11  H   UNL     1      34.155  28.598  47.969  0.00  0.00    +0.000 HD
ATOM     12  H   UNL     1      33.007  29.914  48.551  0.00  0.00    +0.000 HD
ENDROOT
BRANCH   4  15
ATOM     13  F   UNL     1      37.402  32.074  48.457  0.00  0.00    +0.000 F 
ATOM     14  C   UNL     1      36.989  31.144  49.334  0.00  0.00    +0.000 A 
ATOM     15  C   UNL     1      35.901  30.326  49.206  0.00  0.00    +0.000 A 
ATOM     16  C   UNL     1      35.635  29.413  50.243  0.00  0.00    +0.000 A 
ATOM     17  C   UNL     1      36.423  29.324  51.360  0.00  0.00    +0.000 A 
ATOM     18  C   UNL     1      37.532  30.170  51.467  0.00  0.00    +0.000 A 
ATOM     19  C   UNL     1      37.807  31.086  50.434  0.00  0.00    +0.000 A 
ATOM     20  H   UNL     1      34.759  28.804  50.065  0.00  0.00    +0.000 HD
ATOM     21  H   UNL     1      36.146  28.596  52.110  0.00  0.00    +0.000 HD
ATOM     22  H   UNL     1      38.146  30.091  52.349  0.00  0.00    +0.000 HD
BRANCH  19  24
ATOM     23  C   UNL     1      39.463  32.594  49.514  0.00  0.00    +0.000 A 
ATOM     24  C   UNL     1      38.985  31.920  50.644  0.00  0.00    +0.000 A 
ATOM     25  C   UNL     1      39.625  32.067  51.869  0.00  0.00    +0.000 A 
ATOM     26  H   UNL     1      39.214  31.522  52.714  0.00  0.00    +0.000 HD
ATOM     27  C   UNL     1      40.733  32.892  51.918  0.00  0.00    +0.000 A 
ATOM     28  H   UNL     1      41.210  32.987  52.882  0.00  0.00    +0.000 HD
ATOM     29  C   UNL     1      41.199  33.552  50.805  0.00  0.00    +0.000 A 
ATOM     30  C   UNL     1      40.574  33.417  49.578  0.00  0.00    +0.000 A 
BRANCH  23  32
ATOM     31  N   UNL     1      38.264  32.314  47.208  0.00  0.00    +0.000 NA
ATOM     32  C   UNL     1      38.798  32.443  48.237  0.00  0.00    +0.000 C 
ENDBRANCH  23  32
ENDBRANCH  19  24
ENDBRANCH   4  15
BRANCH   1  33
ATOM     33  C   UNL     1      32.253  30.120  46.002  0.00  0.00    +0.000 A 
ATOM     34  C   UNL     1      32.100  31.266  45.210  0.00  0.00    +0.000 A 
ATOM     35  C   UNL     1      30.828  31.567  44.699  0.00  0.00    +0.000 A 
ATOM     36  N   UNL     1      29.808  30.691  45.024  0.00  0.00    +0.000 NA
ATOM     37  C   UNL     1      29.997  29.604  45.786  0.00  0.00    +0.000 A 
ATOM     38  N   UNL     1      31.227  29.314  46.280  0.00  0.00    +0.000 NA
ATOM     39  H   UNL     1      32.848  31.970  44.931  0.00  0.00    +0.000 HD
ATOM     40  H   UNL     1      30.635  32.431  44.082  0.00  0.00    +0.000 HD
ATOM     41  H   UNL     1      29.128  28.998  45.970  0.00  0.00    +0.000 HD
ENDBRANCH   1  33
TORSDOF 4
