
     RDKit          3D

 33 35  0  0  0  0  0  0  0  0999 V2000
   35.4285   29.2140   48.7572 C   0  0  0  0  0  0  0  0  0  0  0  0
   35.0351   29.9834   47.6644 C   0  0  0  0  0  0  0  0  0  0  0  0
   33.8250   29.6553   47.0122 C   0  0  0  0  0  0  0  0  0  0  0  0
   33.1174   28.5780   47.5210 N   0  0  0  0  0  0  0  0  0  0  0  0
   33.5494   27.8669   48.5864 C   0  0  0  0  0  0  0  0  0  0  0  0
   34.7046   28.1869   49.2021 N   0  0  0  0  0  0  0  0  0  0  0  0
   36.6463   29.5921   49.3706 N   0  0  0  0  0  0  0  0  0  0  0  0
   37.5929   30.5585   48.8984 C   0  0  1  0  0  0  0  0  0  0  0  0
   38.2989   31.0190   50.1517 C   0  0  0  0  0  0  0  0  0  0  0  0
   37.5236   30.3749   51.3051 C   0  0  0  0  0  0  0  0  0  0  0  0
   37.1692   29.0650   50.6151 C   0  0  0  0  0  0  0  0  0  0  0  0
   35.5599   30.8279   47.2412 H   0  0  0  0  0  0  0  0  0  0  0  0
   33.4366   30.1952   46.1542 H   0  0  0  0  0  0  0  0  0  0  0  0
   32.9157   27.0462   48.8972 H   0  0  0  0  0  0  0  0  0  0  0  0
   36.9671   31.4447   48.5824 H   0  0  0  0  0  0  0  0  0  0  0  0
   39.3343   30.6482   50.1170 H   0  0  0  0  0  0  0  0  0  0  0  0
   38.2711   32.1138   50.2957 H   0  0  0  0  0  0  0  0  0  0  0  0
   38.2013   30.1736   52.1590 H   0  0  0  0  0  0  0  0  0  0  0  0
   36.6394   30.9529   51.5652 H   0  0  0  0  0  0  0  0  0  0  0  0
   38.0348   28.4182   50.5242 H   0  0  0  0  0  0  0  0  0  0  0  0
   36.3612   28.5229   51.1646 H   0  0  0  0  0  0  0  0  0  0  0  0
   39.4224   33.5185   48.2899 N   0  0  0  0  0  0  0  0  0  0  0  0
   39.3856   32.4428   47.8360 C   0  0  0  0  0  0  0  0  0  0  0  0
   39.3407   31.1076   47.2846 C   0  0  0  0  0  0  0  0  0  0  0  0
   38.4529   30.1568   47.8029 C   0  0  0  0  0  0  0  0  0  0  0  0
   38.5068   28.9327   47.1962 C   0  0  0  0  0  0  0  0  0  0  0  0
   37.8422   28.1715   47.5617 H   0  0  0  0  0  0  0  0  0  0  0  0
   39.3468   28.6116   46.1579 C   0  0  0  0  0  0  0  0  0  0  0  0
   39.3632   27.6287   45.6993 H   0  0  0  0  0  0  0  0  0  0  0  0
   40.2040   29.5705   45.6758 C   0  0  0  0  0  0  0  0  0  0  0  0
   40.2076   30.8477   46.2451 C   0  0  0  0  0  0  0  0  0  0  0  0
   40.9085   29.4164   44.8568 H   0  0  0  0  0  0  0  0  0  0  0  0
   40.8806   31.6144   45.8729 H   0  0  0  0  0  0  0  0  0  0  0  0
  1  6  1  0
  1  7  1  0
  2  1  2  0
  3  4  2  0
  3  2  1  0
  4  5  1  0
  5  6  2  0
  7 11  1  0
  8  7  1  0
  8  9  1  0
  9 10  1  0
 11 10  1  0
  2 12  1  0
  3 13  1  0
  5 14  1  0
  8 15  1  6
  9 16  1  0
  9 17  1  0
 10 18  1  0
 10 19  1  0
 11 20  1  0
 11 21  1  0
 22 23  3  0
 23 24  1  0
 24 25  2  0
 25 26  1  0
 26 27  1  0
 26 28  2  0
 28 29  1  0
 28 30  1  0
 30 31  2  0
 31 24  1  0
 30 32  1  0
 31 33  1  0
  8 25  1  0
M  ISO  8  12  14  13  14  14  14  15  13  16  13  17  13  18  13  19  13
M  ISO  4  20  13  21  13  27  15  29  16
M  END
>  <DihAtoms>  (1) 
6,7,24,23

>  <DihDeg>  (1) 
147.01062442903572

$$$$
