
     RDKit          3D

 36 38  0  0  0  0  0  0  0  0999 V2000
   33.5987   28.7082   49.0337 N   0  0  0  0  0  0  0  0  0  0  0  0
   34.4423   29.8785   48.9239 C   0  0  2  0  0  0  0  0  0  0  0  0
   34.3774   30.3920   47.5106 C   0  0  0  0  0  0  0  0  0  0  0  0
   33.2528   29.8586   46.8359 O   0  0  0  0  0  0  0  0  0  0  0  0
   33.5416   28.5012   46.6695 C   0  0  0  0  0  0  0  0  0  0  0  0
   33.9217   27.8196   47.9513 C   0  0  2  0  0  0  0  0  0  0  0  0
   33.1759   26.6313   48.1083 O   0  0  0  0  0  0  0  0  0  0  0  0
   36.1796   29.4476   49.3252 S   0  0  0  0  0  0  0  0  0  0  0  0
   37.2855   30.7298   48.8106 C   0  0  0  0  0  0  0  0  0  0  0  0
   37.2211   31.8646   49.6563 C   0  0  0  0  0  0  0  0  0  0  0  0
   38.0420   32.9561   49.3686 C   0  0  0  0  0  0  0  0  0  0  0  0
   38.8755   32.8612   48.2650 N   0  0  0  0  0  0  0  0  0  0  0  0
   38.8966   31.7657   47.4997 C   0  0  0  0  0  0  0  0  0  0  0  0
   38.1151   30.7245   47.7723 N   0  0  0  0  0  0  0  0  0  0  0  0
   32.6200   29.0031   49.0945 H   0  0  0  0  0  0  0  0  0  0  0  0
   34.1176   30.7075   49.5893 H   0  0  0  0  0  0  0  0  0  0  0  0
   35.3188   30.1693   46.9660 H   0  0  0  0  0  0  0  0  0  0  0  0
   34.2543   31.5019   47.4796 H   0  0  0  0  0  0  0  0  0  0  0  0
   32.7363   27.9527   46.1481 H   0  0  0  0  0  0  0  0  0  0  0  0
   34.4341   28.4756   45.9959 H   0  0  0  0  0  0  0  0  0  0  0  0
   34.9833   27.5630   48.0120 H   0  0  0  0  0  0  0  0  0  0  0  0
   32.2143   26.8627   48.0725 H   0  0  0  0  0  0  0  0  0  0  0  0
   36.5859   31.9787   50.5256 H   0  0  0  0  0  0  0  0  0  0  0  0
   38.0194   33.8397   49.9928 H   0  0  0  0  0  0  0  0  0  0  0  0
   38.9236   28.2477   46.6355 N   0  0  0  0  0  0  0  0  0  0  0  0
   39.4192   29.2218   46.2457 C   0  0  0  0  0  0  0  0  0  0  0  0
   40.0176   30.4388   45.7477 C   0  0  0  0  0  0  0  0  0  0  0  0
   39.7778   31.6732   46.3383 C   0  0  0  0  0  0  0  0  0  0  0  0
   40.3643   32.8185   45.8393 C   0  0  0  0  0  0  0  0  0  0  0  0
   40.1833   33.7986   46.2962 H   0  0  0  0  0  0  0  0  0  0  0  0
   41.1959   32.7391   44.7453 C   0  0  0  0  0  0  0  0  0  0  0  0
   41.6774   33.6319   44.3249 H   0  0  0  0  0  0  0  0  0  0  0  0
   41.4685   31.5236   44.1165 C   0  0  0  0  0  0  0  0  0  0  0  0
   40.8654   30.3849   44.6385 C   0  0  0  0  0  0  0  0  0  0  0  0
   42.1021   31.4028   43.2691 H   0  0  0  0  0  0  0  0  0  0  0  0
   41.0382   29.4021   44.1916 H   0  0  0  0  0  0  0  0  0  0  0  0
  2  1  1  0
  2  8  1  0
  3  2  1  0
  4  3  1  0
  5  4  1  0
  5  6  1  0
  6  7  1  0
  6  1  1  0
  9  8  1  0
  9 10  2  0
 11 10  1  0
 12 11  2  0
 13 14  2  0
 13 12  1  0
 14  9  1  0
  1 15  1  0
  2 16  1  1
  3 17  1  0
  3 18  1  0
  5 19  1  0
  5 20  1  0
  6 21  1  6
  7 22  1  0
 10 23  1  0
 11 24  1  0
 25 26  3  0
 26 27  1  0
 27 28  2  0
 28 29  1  0
 29 30  1  0
 29 31  2  0
 31 32  1  0
 31 33  1  0
 33 34  2  0
 34 27  1  0
 33 35  1  0
 34 36  1  0
 13 28  1  0
M  ISO  8  15   5  16  13  17  13  18  13  19  13  20  13  21  13  22   3
M  ISO  4  23  14  24  14  30  15  32  16
M  END
>  <DihAtoms>  (1) 
13,12,27,26

>  <DihDeg>  (1) 
179.99926244619408

$$$$
