
 OpenBabel03272502113D

 27 29  0  0  0  0  0  0  0  0999 V2000
   37.7020   31.7550   49.1900 C   0  0  0  0  0  0  0  0  0  0  0  0
   38.2550   32.8810   49.7640 C   0  0  0  0  0  0  0  0  0  0  0  0
   39.0940   33.7660   49.0760 C   0  0  0  0  0  0  0  0  0  0  0  0
   39.3600   33.4760   47.7810 N   0  0  0  0  0  0  0  0  0  0  0  0
   38.8230   32.3810   47.2230 C   0  0  0  0  0  0  0  0  0  0  0  0
   38.0130   31.5280   47.8900 N   0  0  0  0  0  0  0  0  0  0  0  0
   38.0480   33.1260   50.8080 H   0  0  0  0  0  0  0  0  0  0  0  0
   39.5190   34.6360   49.5250 H   0  0  0  0  0  0  0  0  0  0  0  0
   37.2030   30.2020   51.1030 C   0  0  0  0  0  0  0  0  0  0  0  0
   36.8400   30.8630   49.9300 C   0  0  0  0  0  0  0  0  0  0  0  0
   35.5490   30.6360   49.4490 C   0  0  0  0  0  0  0  0  0  0  0  0
   34.7250   29.8080   50.1200 N   0  0  0  0  0  0  0  0  0  0  0  0
   35.1230   29.1810   51.2680 C   0  0  0  0  0  0  0  0  0  0  0  0
   36.3770   29.3850   51.7580 N   0  0  0  0  0  0  0  0  0  0  0  0
   38.2210   30.4440   51.3930 H   0  0  0  0  0  0  0  0  0  0  0  0
   35.1530   31.0970   48.5400 H   0  0  0  0  0  0  0  0  0  0  0  0
   34.5060   28.5090   51.8460 H   0  0  0  0  0  0  0  0  0  0  0  0
   38.3010   31.3570   45.0320 C   0  0  0  0  0  0  0  0  0  0  0  0
   39.1290   32.0990   45.8330 C   0  0  0  0  0  0  0  0  0  0  0  0
   40.2710   32.5530   45.2060 C   0  0  0  0  0  0  0  0  0  0  0  0
   40.9880   33.1490   45.7530 H   0  0  0  0  0  0  0  0  0  0  0  0
   40.6040   32.3130   43.8910 C   0  0  0  0  0  0  0  0  0  0  0  0
   41.4970   32.6750   43.4200 H   0  0  0  0  0  0  0  0  0  0  0  0
   39.7200   31.5480   43.1230 C   0  0  0  0  0  3  0  0  0  0  0  0
   38.5630   31.0720   43.7080 C   0  0  0  0  0  3  0  0  0  0  0  0
   36.0810   30.4100   46.0570 N   0  0  0  0  0  0  0  0  0  0  0  0
   37.0760   30.8370   45.6090 C   0  0  0  0  0  0  0  0  0  0  0  0
  1  2  1  0  0  0  0
  1 10  1  0  0  0  0
  2  7  1  0  0  0  0
  3  8  1  0  0  0  0
  3  2  2  0  0  0  0
  4  3  1  0  0  0  0
  5  4  2  0  0  0  0
  5  6  1  0  0  0  0
  6  1  2  0  0  0  0
  9 15  1  0  0  0  0
  9 14  1  0  0  0  0
 10  9  2  0  0  0  0
 11 10  1  0  0  0  0
 11 12  2  0  0  0  0
 12 13  1  0  0  0  0
 13 14  2  0  0  0  0
 13 17  1  0  0  0  0
 16 11  1  0  0  0  0
 18 27  1  0  0  0  0
 18 19  1  0  0  0  0
 19  5  1  0  0  0  0
 20 21  1  0  0  0  0
 20 19  2  0  0  0  0
 22 20  1  0  0  0  0
 23 22  1  0  0  0  0
 24 25  1  0  0  0  0
 24 22  2  0  0  0  0
 25 18  2  0  0  0  0
 27 26  3  0  0  0  0
M  END
>  <minimizedAffinity>
-5.46508408

>  <minimizedRMSD>
1.19717443

$$$$
