
 OpenBabel03272501093D

 41 44  0  0  1  0  0  0  0  0999 V2000
   38.1890   32.3850   46.5280 O   0  0  0  0  0  0  0  0  0  0  0  0
   38.9400   32.4890   47.6470 C   0  0  2  0  0  0  0  0  0  0  0  0
   38.0760   32.7830   48.9150 C   0  0  2  0  0  0  0  0  0  0  0  0
   39.0440   33.4750   49.7530 C   0  0  0  0  0  0  0  0  0  0  0  0
   39.8550   34.2460   48.9320 O   0  0  0  0  0  0  0  0  0  0  0  0
   39.6570   33.8680   47.6480 C   0  0  0  0  0  0  0  0  0  0  0  0
   39.6690   31.7060   47.8220 H   0  0  0  0  0  0  0  0  0  0  0  0
   37.2920   33.4770   48.5410 H   0  0  0  0  0  0  0  0  0  0  0  0
   39.7110   32.8650   50.3600 H   0  0  0  0  0  0  0  0  0  0  0  0
   38.4940   34.1770   50.4450 H   0  0  0  0  0  0  0  0  0  0  0  0
   40.6260   33.6880   47.1290 H   0  0  0  0  0  0  0  0  0  0  0  0
   39.0280   34.6060   47.1290 H   0  0  0  0  0  0  0  0  0  0  0  0
   37.3850   29.6540   50.8850 C   0  0  0  0  0  0  0  0  0  0  0  0
   38.0640   30.8190   50.4290 C   0  0  0  0  0  0  0  0  0  0  0  0
   37.4330   31.5980   49.4230 C   0  0  0  0  0  0  0  0  0  0  0  0
   36.2100   31.1990   48.9370 N   0  0  0  0  0  0  0  0  0  0  0  0
   35.6110   30.0950   49.3970 C   0  0  0  0  0  0  0  0  0  0  0  0
   36.1730   29.3190   50.3570 N   0  0  0  0  0  0  0  0  0  0  0  0
   37.8930   29.0930   51.6450 H   0  0  0  0  0  0  0  0  0  0  0  0
   39.0240   31.0810   50.8500 H   0  0  0  0  0  0  0  0  0  0  0  0
   34.6500   29.7510   49.0380 H   0  0  0  0  0  0  0  0  0  0  0  0
   40.4800   32.1320   44.4810 Cl  0  0  0  0  0  0  0  0  0  0  0  0
   38.9650   31.2580   44.4260 C   0  0  0  0  0  0  0  0  0  0  0  0
   38.1090   31.5560   45.4670 C   0  0  0  0  0  0  0  0  0  0  0  0
   36.9050   30.8660   45.4300 C   0  0  0  0  0  0  0  0  0  0  0  0
   36.5800   29.9610   44.4490 C   0  0  0  0  0  0  0  0  0  0  0  0
   37.4960   29.7190   43.4400 C   0  0  0  0  0  0  0  0  0  0  0  0
   38.7210   30.3690   43.4060 C   0  0  0  0  0  0  0  0  0  0  0  0
   36.1110   30.9680   46.1590 H   0  0  0  0  0  0  0  0  0  0  0  0
   35.6520   29.4090   44.3960 H   0  0  0  0  0  0  0  0  0  0  0  0
   37.3070   29.0190   42.6360 H   0  0  0  0  0  0  0  0  0  0  0  0
   39.8510   31.0330   41.2900 C   0  0  0  0  0  0  0  0  0  0  0  0
   39.7550   30.1890   42.3940 C   0  0  0  0  0  0  0  0  0  0  0  0
   40.6850   29.1770   42.4810 C   0  0  0  0  0  0  0  0  0  0  0  0
   40.5980   28.5230   43.3500 H   0  0  0  0  0  0  0  0  0  0  0  0
   41.6940   28.9350   41.5710 C   0  0  0  0  0  0  0  0  0  0  0  0
   42.3840   28.1140   41.7160 H   0  0  0  0  0  0  0  0  0  0  0  0
   41.7610   29.7850   40.4940 C   0  0  0  0  0  3  0  0  0  0  0  0
   40.8520   30.8120   40.3650 C   0  0  0  0  0  3  0  0  0  0  0  0
   38.1080   32.9530   41.0750 N   0  0  0  0  0  0  0  0  0  0  0  0
   38.8840   32.1020   41.1810 C   0  0  0  0  0  0  0  0  0  0  0  0
  1  2  1  0  0  0  0
  2  6  1  0  0  0  0
  2  7  1  1  0  0  0
  2  3  1  0  0  0  0
  3  8  1  6  0  0  0
  3 15  1  0  0  0  0
  3  4  1  0  0  0  0
  4  9  1  0  0  0  0
  4 10  1  0  0  0  0
  5  4  1  0  0  0  0
  6  5  1  0  0  0  0
 11  6  1  0  0  0  0
 12  6  1  0  0  0  0
 13 19  1  0  0  0  0
 14 20  1  0  0  0  0
 14 13  1  0  0  0  0
 15 14  2  0  0  0  0
 16 17  2  0  0  0  0
 16 15  1  0  0  0  0
 17 18  1  0  0  0  0
 18 13  2  0  0  0  0
 21 17  1  0  0  0  0
 23 22  1  0  0  0  0
 23 24  1  0  0  0  0
 24  1  1  0  0  0  0
 25 24  2  0  0  0  0
 25 29  1  0  0  0  0
 26 25  1  0  0  0  0
 27 26  2  0  0  0  0
 28 27  1  0  0  0  0
 28 23  2  0  0  0  0
 30 26  1  0  0  0  0
 31 27  1  0  0  0  0
 32 33  1  0  0  0  0
 33 34  2  0  0  0  0
 33 28  1  0  0  0  0
 34 35  1  0  0  0  0
 36 37  1  0  0  0  0
 36 34  1  0  0  0  0
 38 36  2  0  0  0  0
 39 38  1  0  0  0  0
 39 32  2  0  0  0  0
 40 41  3  0  0  0  0
 41 32  1  0  0  0  0
M  END
>  <minimizedAffinity>
-6.21674395

>  <minimizedRMSD>
1.30108511

$$$$
