
 OpenBabel03272501553D

 25 26  0  0  0  0  0  0  0  0999 V2000
   35.9730   29.2180   48.7280 C   0  0  0  0  0  0  0  0  0  0  0  0
   36.3610   28.3930   49.3510 H   0  0  0  0  0  0  0  0  0  0  0  0
   36.6510   29.3630   47.8740 H   0  0  0  0  0  0  0  0  0  0  0  0
   34.2230   29.1470   46.9730 C   0  0  0  0  0  0  0  0  0  0  0  0
   34.5870   28.8470   48.2700 C   0  0  0  0  0  0  0  0  0  0  0  0
   33.7230   28.2180   49.1650 C   0  0  0  0  0  0  0  0  0  0  0  0
   34.0250   27.9930   50.1700 H   0  0  0  0  0  0  0  0  0  0  0  0
   32.4610   27.8770   48.7580 C   0  0  0  0  0  0  0  0  0  0  0  0
   31.7140   27.3780   49.3940 H   0  0  0  0  0  0  0  0  0  0  0  0
   32.0900   28.1690   47.4740 C   0  0  0  0  0  0  0  0  0  0  0  0
   32.9500   28.7970   46.5770 C   0  0  0  0  0  0  0  0  0  0  0  0
   35.8500   30.3130   45.2960 N   0  0  0  0  0  0  0  0  0  0  0  0
   35.1090   29.7950   46.0470 C   0  0  0  0  0  0  0  0  0  0  0  0
   35.8490   30.4820   49.5390 C   0  0  0  0  0  0  0  0  0  0  0  0
   34.8570   30.9230   49.2430 H   0  0  0  0  0  0  0  0  0  0  0  0
   35.8950   30.2500   50.6220 H   0  0  0  0  0  0  0  0  0  0  0  0
   38.1210   33.4020   49.4000 C   0  0  0  0  0  0  0  0  0  0  0  0
   38.9810   33.0780   48.3520 C   0  0  0  0  0  0  0  0  0  0  0  0
   38.7860   31.8560   47.6880 C   0  0  0  0  0  0  0  0  0  0  0  0
   37.7710   31.0690   48.1090 N   0  0  0  0  0  0  0  0  0  0  0  0
   36.9590   31.4250   49.1350 C   0  0  0  0  0  0  0  0  0  0  0  0
   37.1190   32.5900   49.7940 N   0  0  0  0  0  0  0  0  0  0  0  0
   38.2690   34.3590   49.9270 H   0  0  0  0  0  0  0  0  0  0  0  0
   39.7560   33.7890   48.1040 H   0  0  0  0  0  0  0  0  0  0  0  0
   39.4360   31.6020   46.8890 H   0  0  0  0  0  0  0  0  0  0  0  0
  1  2  1  0  0  0  0
  1 14  1  0  0  0  0
  3  1  1  0  0  0  0
  4  5  1  0  0  0  0
  5  1  1  0  0  0  0
  5  6  2  0  0  0  0
  6  7  1  0  0  0  0
  8  6  1  0  0  0  0
  8  9  1  0  0  0  0
 10  8  2  0  0  0  0
 11  4  2  0  0  0  0
 11 10  1  0  0  0  0
 12 13  3  0  0  0  0
 13  4  1  0  0  0  0
 14 16  1  0  0  0  0
 15 14  1  0  0  0  0
 17 22  1  0  0  0  0
 17 23  1  0  0  0  0
 18 17  2  0  0  0  0
 19 20  2  0  0  0  0
 19 18  1  0  0  0  0
 20 21  1  0  0  0  0
 21 14  1  0  0  0  0
 21 22  2  0  0  0  0
 24 18  1  0  0  0  0
 25 19  1  0  0  0  0
M  END
>  <minimizedAffinity>
-4.5678339

>  <minimizedRMSD>
3.3510561

$$$$
