
 OpenBabel03272509213D

 47 51  0  0  0  0  0  0  0  0999 V2000
   39.8530   31.9840   46.2610 O   0  0  0  0  0  0  0  0  0  0  0  0
   40.0590   30.9170   44.0080 C   0  0  0  0  0  0  0  0  0  0  0  0
   39.5290   31.7800   44.9460 C   0  0  0  0  0  0  0  0  0  0  0  0
   38.4770   32.6220   44.5690 C   0  0  0  0  0  0  0  0  0  0  0  0
   37.9740   32.5880   43.2630 C   0  0  0  0  0  0  0  0  0  0  0  0
   37.0080   33.2390   42.5970 N   0  0  0  0  0  0  0  0  0  0  0  0
   36.9330   32.8160   41.3230 C   0  0  0  0  0  0  0  0  0  0  0  0
   37.8890   31.8610   41.1790 N   0  0  0  0  0  0  0  0  0  0  0  0
   38.5350   31.7090   42.3570 C   0  0  0  0  0  0  0  0  0  0  0  0
   39.5710   30.8770   42.7210 C   0  0  0  0  0  0  0  0  0  0  0  0
   40.8550   30.3250   44.4090 H   0  0  0  0  0  0  0  0  0  0  0  0
   37.9610   33.3460   45.1860 H   0  0  0  0  0  0  0  0  0  0  0  0
   36.4050   33.9610   43.0000 H   0  0  0  0  0  0  0  0  0  0  0  0
   36.2540   33.1630   40.5760 H   0  0  0  0  0  0  0  0  0  0  0  0
   39.8350   28.6160   41.6010 C   0  0  0  0  0  0  0  0  0  0  0  0
   40.1920   29.9350   41.7950 C   0  0  0  0  0  0  0  0  0  0  0  0
   41.2330   30.5030   41.0790 C   0  0  0  0  0  0  0  0  0  0  0  0
   41.5700   31.5450   41.1820 H   0  0  0  0  0  0  0  0  0  0  0  0
   41.9470   29.7580   40.1450 C   0  0  0  0  0  0  0  0  0  0  0  0
   42.7670   30.2110   39.5830 H   0  0  0  0  0  0  0  0  0  0  0  0
   41.5730   28.4240   39.9610 C   0  0  0  0  0  3  0  0  0  0  0  0
   40.5320   27.8630   40.6790 C   0  0  0  0  0  3  0  0  0  0  0  0
   37.8610   27.7310   43.0180 N   0  0  0  0  0  0  0  0  0  0  0  0
   38.7430   28.1310   42.3960 C   0  0  0  0  0  0  0  0  0  0  0  0
   38.0050   31.2030   47.6280 C   0  0  0  0  0  0  0  0  0  0  0  0
   37.1260   31.2670   48.6910 C   0  0  0  0  0  0  0  0  0  0  0  0
   37.3170   32.3750   49.5220 C   0  0  0  0  0  0  0  0  0  0  0  0
   38.3250   33.3270   49.2770 C   0  0  0  0  0  0  0  0  0  0  0  0
   39.1620   33.1580   48.1620 C   0  0  0  0  0  0  0  0  0  0  0  0
   38.9830   32.0650   47.3310 C   0  0  0  0  0  0  0  0  0  0  0  0
   36.6640   32.4830   50.3690 H   0  0  0  0  0  0  0  0  0  0  0  0
   38.4290   34.1660   49.9530 H   0  0  0  0  0  0  0  0  0  0  0  0
   39.9250   33.9180   48.0130 H   0  0  0  0  0  0  0  0  0  0  0  0
   34.9280   30.3190   48.2030 C   0  0  0  0  0  0  0  0  0  0  0  0
   36.1040   30.3040   48.9440 C   0  0  0  0  0  0  0  0  0  0  0  0
   36.2420   29.3170   49.9360 C   0  0  0  0  0  0  0  0  0  0  0  0
   35.2280   28.4380   50.1180 N   0  0  0  0  0  0  0  0  0  0  0  0
   34.0890   28.4940   49.3620 C   0  0  0  0  0  0  0  0  0  0  0  0
   33.9470   29.4260   48.4180 N   0  0  0  0  0  0  0  0  0  0  0  0
   34.7440   31.0410   47.4260 H   0  0  0  0  0  0  0  0  0  0  0  0
   33.4090   27.7140   49.6580 H   0  0  0  0  0  0  0  0  0  0  0  0
   37.4770   29.2530   50.7590 C   0  0  0  0  0  0  0  0  0  0  0  0
   38.0100   30.2100   50.6540 H   0  0  0  0  0  0  0  0  0  0  0  0
   38.1240   28.4710   50.3060 H   0  0  0  0  0  0  0  0  0  0  0  0
   37.2390   28.9720   51.7910 H   0  0  0  0  0  0  0  0  0  0  0  0
   37.8950   30.1300   46.7360 O   0  0  0  0  0  0  0  0  0  0  0  0
   37.0370   30.0670   46.2100 H   0  0  0  0  0  0  0  0  0  0  0  0
  1 30  1  0  0  0  0
  2 11  1  0  0  0  0
  2  3  1  0  0  0  0
  3  1  1  0  0  0  0
  4  3  2  0  0  0  0
  4 12  1  0  0  0  0
  5  4  1  0  0  0  0
  6 13  1  0  0  0  0
  6  5  1  0  0  0  0
  7  6  1  0  0  0  0
  8  7  2  0  0  0  0
  8  9  1  0  0  0  0
  9 10  1  0  0  0  0
  9  5  2  0  0  0  0
 10  2  2  0  0  0  0
 14  7  1  0  0  0  0
 15 16  1  0  0  0  0
 15 24  1  0  0  0  0
 16 10  1  0  0  0  0
 17 18  1  0  0  0  0
 17 16  2  0  0  0  0
 19 17  1  0  0  0  0
 20 19  1  0  0  0  0
 21 19  2  0  0  0  0
 21 22  1  0  0  0  0
 22 15  2  0  0  0  0
 24 23  3  0  0  0  0
 25 26  1  0  0  0  0
 26 35  1  0  0  0  0
 26 27  2  0  0  0  0
 27 31  1  0  0  0  0
 28 27  1  0  0  0  0
 28 32  1  0  0  0  0
 29 28  2  0  0  0  0
 30 25  2  0  0  0  0
 30 29  1  0  0  0  0
 33 29  1  0  0  0  0
 34 39  2  0  0  0  0
 34 35  1  0  0  0  0
 35 36  2  0  0  0  0
 36 37  1  0  0  0  0
 36 42  1  0  0  0  0
 38 41  1  0  0  0  0
 38 37  2  0  0  0  0
 39 38  1  0  0  0  0
 40 34  1  0  0  0  0
 42 45  1  0  0  0  0
 43 42  1  0  0  0  0
 44 42  1  0  0  0  0
 46 25  1  0  0  0  0
 47 46  1  0  0  0  0
M  END
>  <minimizedAffinity>
-7.19935989

>  <minimizedRMSD>
1.01068401

$$$$
