
 OpenBabel03262522063D

 41 44  0  0  1  0  0  0  0  0999 V2000
   34.4440   29.1540   48.5860 C   0  0  2  0  0  0  0  0  0  0  0  0
   35.0640   28.4700   49.7560 C   0  0  0  0  0  0  0  0  0  0  0  0
   36.2560   29.2100   50.1680 N   0  0  0  0  0  0  0  0  0  0  0  0
   37.2690   29.9410   50.8770 C   0  0  0  0  0  0  0  0  0  0  0  0
   37.5200   30.2100   52.0660 O   0  0  0  0  0  0  0  0  0  0  0  0
   37.9970   30.3210   49.7000 C   0  0  1  0  0  0  0  0  0  0  0  0
   37.0880   29.3140   49.0080 C   0  0  2  0  0  0  0  0  0  0  0  0
   35.9010   30.0050   47.8340 S   0  0  0  0  0  0  0  0  0  0  0  0
   34.3530   28.5480   50.6170 H   0  0  0  0  0  0  0  0  0  0  0  0
   35.2710   27.3950   49.6020 H   0  0  0  0  0  0  0  0  0  0  0  0
   39.0300   29.9080   49.6040 H   0  0  0  0  0  0  0  0  0  0  0  0
   37.5730   28.3750   48.6810 H   0  0  0  0  0  0  0  0  0  0  0  0
   33.3010   30.0670   48.8680 C   0  0  0  0  0  0  0  0  0  0  0  0
   32.4110   29.7350   48.3180 H   0  0  0  0  0  0  0  0  0  0  0  0
   33.5170   31.1140   48.5100 H   0  0  0  0  0  0  0  0  0  0  0  0
   33.0890   30.1510   49.9570 H   0  0  0  0  0  0  0  0  0  0  0  0
   34.0710   28.0780   47.5450 C   0  0  0  0  0  0  0  0  0  0  0  0
   33.0310   27.7820   47.7890 H   0  0  0  0  0  0  0  0  0  0  0  0
   34.7530   27.2300   47.7050 H   0  0  0  0  0  0  0  0  0  0  0  0
   34.1970   28.6330   46.2730 O   0  0  0  0  0  0  0  0  0  0  0  0
   33.8120   29.5360   46.2540 H   0  0  0  0  0  0  0  0  0  0  0  0
   37.8620   31.7240   49.2500 C   0  0  0  0  0  0  0  0  0  0  0  0
   36.9750   32.3750   49.8930 O   0  0  0  0  0  0  0  0  0  0  0  0
   38.6410   32.3090   48.2020 C   0  0  0  0  0  0  0  0  0  0  0  0
   39.1840   33.5550   48.4130 C   0  0  0  0  0  0  0  0  0  0  0  0
   39.9510   34.1290   47.3760 C   0  0  0  0  0  0  0  0  0  0  0  0
   40.1070   33.4090   46.2220 N   0  0  0  0  0  0  0  0  0  0  0  0
   39.5700   32.2060   46.0480 C   0  0  0  0  0  0  0  0  0  0  0  0
   38.8330   31.6490   47.0370 N   0  0  0  0  0  0  0  0  0  0  0  0
   39.0670   34.1320   49.3230 H   0  0  0  0  0  0  0  0  0  0  0  0
   40.3970   35.1110   47.5030 H   0  0  0  0  0  0  0  0  0  0  0  0
   38.6550   31.3530   43.9390 C   0  0  0  0  0  0  0  0  0  0  0  0
   39.7450   31.4510   44.8120 C   0  0  0  0  0  0  0  0  0  0  0  0
   40.9450   30.8370   44.4890 C   0  0  0  0  0  0  0  0  0  0  0  0
   41.7810   30.9160   45.1660 H   0  0  0  0  0  0  0  0  0  0  0  0
   41.0670   30.1250   43.2960 C   0  0  0  0  0  0  0  0  0  0  0  0
   41.9950   29.6300   43.0100 H   0  0  0  0  0  0  0  0  0  0  0  0
   39.9680   30.0540   42.4650 C   0  0  0  0  0  3  0  0  0  0  0  0
   38.7410   30.6490   42.7380 C   0  0  0  0  0  3  0  0  0  0  0  0
   36.3660   32.4720   44.4480 N   0  0  0  0  0  0  0  0  0  0  0  0
   37.3820   31.9690   44.2200 C   0  0  0  0  0  0  0  0  0  0  0  0
  1 17  1  6  0  0  0
  1 13  1  0  0  0  0
  1  2  1  0  0  0  0
  2  3  1  0  0  0  0
  2  9  1  0  0  0  0
  3  4  1  0  0  0  0
  4  5  2  0  0  0  0
  6 11  1  1  0  0  0
  6  4  1  0  0  0  0
  7 12  1  6  0  0  0
  7  6  1  0  0  0  0
  7  3  1  0  0  0  0
  8  1  1  0  0  0  0
  8  7  1  0  0  0  0
 10  2  1  0  0  0  0
 13 16  1  0  0  0  0
 14 13  1  0  0  0  0
 15 13  1  0  0  0  0
 17 19  1  0  0  0  0
 17 18  1  0  0  0  0
 20 17  1  0  0  0  0
 21 20  1  0  0  0  0
 22  6  1  0  0  0  0
 22 23  2  0  0  0  0
 24 25  1  0  0  0  0
 24 22  1  0  0  0  0
 25 30  1  0  0  0  0
 26 31  1  0  0  0  0
 26 25  2  0  0  0  0
 27 26  1  0  0  0  0
 28 27  2  0  0  0  0
 28 29  1  0  0  0  0
 29 24  2  0  0  0  0
 32 41  1  0  0  0  0
 32 33  1  0  0  0  0
 33 28  1  0  0  0  0
 34 33  2  0  0  0  0
 34 35  1  0  0  0  0
 36 34  1  0  0  0  0
 37 36  1  0  0  0  0
 38 39  1  0  0  0  0
 38 36  2  0  0  0  0
 39 32  2  0  0  0  0
 41 40  3  0  0  0  0
M  END
>  <minimizedAffinity>
-4.11819267

>  <minimizedRMSD>
0.742382646

$$$$
