
 OpenBabel03272502183D

 34 36  0  0  1  0  0  0  0  0999 V2000
   37.0320   30.4200   48.9690 C   0  0  0  0  0  0  0  0  0  0  0  0
   37.0480   31.6080   49.7400 C   0  0  0  0  0  0  0  0  0  0  0  0
   37.7780   32.6990   49.2670 C   0  0  0  0  0  0  0  0  0  0  0  0
   38.4480   32.5520   48.0620 N   0  0  0  0  0  0  0  0  0  0  0  0
   38.4000   31.4080   47.3740 C   0  0  0  0  0  0  0  0  0  0  0  0
   37.7040   30.3660   47.8220 N   0  0  0  0  0  0  0  0  0  0  0  0
   36.5400   31.7640   50.6840 H   0  0  0  0  0  0  0  0  0  0  0  0
   37.8120   33.6230   49.8310 H   0  0  0  0  0  0  0  0  0  0  0  0
   38.4050   30.9230   44.9540 C   0  0  0  0  0  0  0  0  0  0  0  0
   39.1080   31.2600   46.1040 C   0  0  0  0  0  0  0  0  0  0  0  0
   40.4730   31.4580   46.0630 C   0  0  0  0  0  0  0  0  0  0  0  0
   41.0390   31.7240   46.9640 H   0  0  0  0  0  0  0  0  0  0  0  0
   41.1470   31.3200   44.8720 C   0  0  0  0  0  0  0  0  0  0  0  0
   42.2340   31.4700   44.8060 H   0  0  0  0  0  0  0  0  0  0  0  0
   40.4880   30.9830   43.6890 C   0  0  0  0  0  3  0  0  0  0  0  0
   39.1130   30.7890   43.7570 C   0  0  0  0  0  3  0  0  0  0  0  0
   35.8300   30.5330   44.9540 N   0  0  0  0  0  0  0  0  0  0  0  0
   36.9770   30.7100   44.9640 C   0  0  0  0  0  0  0  0  0  0  0  0
   36.0600   29.1460   49.7180 S   0  0  0  0  0  0  0  0  0  0  0  0
   33.6640   28.0460   49.1350 N   0  0  0  0  0  0  0  0  0  0  0  0
   34.2850   29.3410   49.3000 C   0  0  2  0  0  0  0  0  0  0  0  0
   34.1650   30.1050   48.0090 C   0  0  0  0  0  0  0  0  0  0  0  0
   33.1750   29.5310   47.1780 O   0  0  0  0  0  0  0  0  0  0  0  0
   33.7090   28.3030   46.7740 C   0  0  0  0  0  0  0  0  0  0  0  0
   34.1710   27.4580   47.9250 C   0  0  2  0  0  0  0  0  0  0  0  0
   32.6470   28.1500   49.1890 H   0  0  0  0  0  0  0  0  0  0  0  0
   33.7990   29.9550   50.0890 H   0  0  0  0  0  0  0  0  0  0  0  0
   35.1460   30.1600   47.4900 H   0  0  0  0  0  0  0  0  0  0  0  0
   33.8450   31.1610   48.1810 H   0  0  0  0  0  0  0  0  0  0  0  0
   33.0290   27.7380   46.1100 H   0  0  0  0  0  0  0  0  0  0  0  0
   34.6080   28.5650   46.1650 H   0  0  0  0  0  0  0  0  0  0  0  0
   35.2590   27.3800   48.0010 H   0  0  0  0  0  0  0  0  0  0  0  0
   33.6480   26.1510   47.8080 O   0  0  0  0  0  0  0  0  0  0  0  0
   32.6620   26.2160   47.7570 H   0  0  0  0  0  0  0  0  0  0  0  0
  1 19  1  0  0  0  0
  1  2  1  0  0  0  0
  2  7  1  0  0  0  0
  3  2  2  0  0  0  0
  3  8  1  0  0  0  0
  4  3  1  0  0  0  0
  5  6  1  0  0  0  0
  5  4  2  0  0  0  0
  6  1  2  0  0  0  0
  9 18  1  0  0  0  0
  9 10  1  0  0  0  0
 10  5  1  0  0  0  0
 11 10  2  0  0  0  0
 11 12  1  0  0  0  0
 13 11  1  0  0  0  0
 14 13  1  0  0  0  0
 15 16  1  0  0  0  0
 15 13  2  0  0  0  0
 16  9  2  0  0  0  0
 17 18  3  0  0  0  0
 20 26  1  0  0  0  0
 20 21  1  0  0  0  0
 21 19  1  0  0  0  0
 21 27  1  1  0  0  0
 22 29  1  0  0  0  0
 22 21  1  0  0  0  0
 23 22  1  0  0  0  0
 24 23  1  0  0  0  0
 24 25  1  0  0  0  0
 25 32  1  1  0  0  0
 25 20  1  0  0  0  0
 28 22  1  0  0  0  0
 30 24  1  0  0  0  0
 31 24  1  0  0  0  0
 33 25  1  0  0  0  0
 34 33  1  0  0  0  0
M  END
>  <minimizedAffinity>
-5.50680971

>  <minimizedRMSD>
1.21654773

$$$$
