REMARK  Name = 
REMARK  7 active torsions:
REMARK  status: ('A' for Active; 'I' for Inactive)
REMARK    1  A    between atoms: P_2  and  O_3
REMARK    2  A    between atoms: P_2  and  O_4
REMARK    3  A    between atoms: P_2  and  O_11
REMARK    4  A    between atoms: O_4  and  C_7
REMARK    5  A    between atoms: O_11  and  C_14
REMARK    6  A    between atoms: C_18  and  C_29
REMARK    7  A    between atoms: C_27  and  C_28
REMARK                            x       y       z     vdW  Elec       q    Type
REMARK                         _______ _______ _______ _____ _____    ______ ____
ROOT
ATOM      1 CL   UNL     1      36.613  29.456  44.032  0.00  0.00    +0.000 Cl
ATOM      2  C   UNL     1      38.262  29.834  43.477  0.00  0.00    +0.000 A 
ATOM      3  C   UNL     1      39.273  30.313  44.322  0.00  0.00    +0.000 A 
ATOM      4  C   UNL     1      40.503  30.561  43.743  0.00  0.00    +0.000 A 
ATOM      5  C   UNL     1      40.723  30.346  42.397  0.00  0.00    +0.000 A 
ATOM      6  C   UNL     1      39.744  29.880  41.571  0.00  0.00    +0.000 A 
ATOM      7  C   UNL     1      38.522  29.629  42.123  0.00  0.00    +0.000 A 
ATOM      8  H   UNL     1      41.228  30.929  44.468  0.00  0.00    +0.000 HD
ATOM      9  H   UNL     1      41.727  30.576  42.059  0.00  0.00    +0.000 HD
ATOM     10  H   UNL     1      39.985  29.736  40.535  0.00  0.00    +0.000 HD
ENDROOT
BRANCH   7  12
ATOM     11  C   UNL     1      36.203  29.703  41.332  0.00  0.00    +0.000 A 
ATOM     12  C   UNL     1      37.469  29.126  41.222  0.00  0.00    +0.000 A 
ATOM     13  C   UNL     1      37.738  28.125  40.312  0.00  0.00    +0.000 A 
ATOM     14  H   UNL     1      38.721  27.677  40.227  0.00  0.00    +0.000 HD
ATOM     15  C   UNL     1      36.745  27.664  39.477  0.00  0.00    +0.000 A 
ATOM     16  H   UNL     1      36.894  26.880  38.742  0.00  0.00    +0.000 HD
ATOM     17  C   UNL     1      35.488  28.226  39.575  0.00  0.00    +0.000 A 
ATOM     18  C   UNL     1      35.214  29.215  40.471  0.00  0.00    +0.000 A 
BRANCH  11  20
ATOM     19  N   UNL     1      35.729  31.595  43.056  0.00  0.00    +0.000 NA
ATOM     20  C   UNL     1      35.948  30.758  42.300  0.00  0.00    +0.000 C 
ENDBRANCH  11  20
ENDBRANCH   7  12
BRANCH   3  21
ATOM     21  O   UNL     1      38.859  30.457  45.608  0.00  0.00    +0.000 OA
BRANCH  21  23
ATOM     22  O   UNL     1      39.440  32.486  47.104  0.00  0.00    +0.000 OA
ATOM     23  P   UNL     1      38.308  31.831  46.404  0.00  0.00    +0.000 P 
BRANCH  23  24
ATOM     24  O   UNL     1      37.709  32.846  45.166  0.00  0.00    +0.000 OA
ATOM     25  H   UNL     1      38.443  33.362  44.746  0.00  0.00    +0.000 HD
ENDBRANCH  23  24
BRANCH  23  26
ATOM     26  O   UNL     1      37.028  31.392  47.436  0.00  0.00    +0.000 OA
BRANCH  26  29
ATOM     27  C   UNL     1      37.613  30.528  50.982  0.00  0.00    +0.000 A 
ATOM     28  C   UNL     1      37.704  31.296  49.804  0.00  0.00    +0.000 A 
ATOM     29  C   UNL     1      37.073  30.831  48.655  0.00  0.00    +0.000 A 
ATOM     30  N   UNL     1      36.393  29.644  48.732  0.00  0.00    +0.000 NA
ATOM     31  C   UNL     1      36.332  28.945  49.874  0.00  0.00    +0.000 A 
ATOM     32  N   UNL     1      36.938  29.384  50.993  0.00  0.00    +0.000 NA
ATOM     33  H   UNL     1      38.153  31.008  51.806  0.00  0.00    +0.000 HD
ATOM     34  H   UNL     1      38.209  32.231  49.647  0.00  0.00    +0.000 HD
ATOM     35  H   UNL     1      35.792  28.001  49.940  0.00  0.00    +0.000 HD
ENDBRANCH  26  29
ENDBRANCH  23  26
ENDBRANCH  21  23
ENDBRANCH   3  21
TORSDOF 7
