
     RDKit          3D

 23 24  0  0  0  0  0  0  0  0999 V2000
   37.2997   30.2217   51.4512 C   0  0  0  0  0  0  0  0  0  0  0  0
   38.1182   30.7532   50.4242 C   0  0  0  0  0  0  0  0  0  0  0  0
   37.7954   30.4104   49.1213 C   0  0  0  0  0  0  0  0  0  0  0  0
   36.7357   29.6006   48.8907 N   0  0  0  0  0  0  0  0  0  0  0  0
   35.9731   29.1080   49.8814 C   0  0  0  0  0  0  0  0  0  0  0  0
   36.2588   29.4206   51.1531 N   0  0  0  0  0  0  0  0  0  0  0  0
   38.6282   30.9525   48.0921 N   0  0  0  0  0  0  0  0  0  0  0  0
   37.5458   30.4855   52.4763 H   0  0  0  0  0  0  0  0  0  0  0  0
   38.9433   31.3930   50.7227 H   0  0  0  0  0  0  0  0  0  0  0  0
   39.6096   30.7341   47.8017 H   0  0  0  0  0  0  0  0  0  0  0  0
   38.0465   31.6912   47.6084 H   0  0  0  0  0  0  0  0  0  0  0  0
   33.1008   30.8076   51.1380 N   0  0  0  0  0  0  0  0  0  0  0  0
   33.3064   29.7965   50.5799 C   0  0  0  0  0  0  0  0  0  0  0  0
   33.5573   28.5780   49.8794 C   0  0  0  0  0  0  0  0  0  0  0  0
   34.8488   28.2412   49.5393 C   0  0  0  0  0  0  0  0  0  0  0  0
   35.1478   27.0665   48.8571 C   0  0  0  0  0  0  0  0  0  0  0  0
   36.1585   26.7938   48.5859 H   0  0  0  0  0  0  0  0  0  0  0  0
   34.0865   26.2224   48.5199 C   0  0  0  0  0  0  0  0  0  0  0  0
   34.3145   25.3071   47.9889 H   0  0  0  0  0  0  0  0  0  0  0  0
   32.8062   26.5930   48.8772 C   0  0  0  0  0  0  0  0  0  0  0  0
   32.4943   27.7553   49.5541 C   0  0  0  0  0  0  0  0  0  0  0  0
   31.9907   25.9372   48.6141 H   0  0  0  0  0  0  0  0  0  0  0  0
   31.4735   27.9852   49.8029 H   0  0  0  0  0  0  0  0  0  0  0  0
  2  1  2  0
  3  2  1  0
  4  3  2  0
  4  5  1  0
  5  6  2  0
  6  1  1  0
  7  3  1  0
  1  8  1  0
  2  9  1  0
  7 10  1  0
  7 11  1  0
 12 13  3  0
 13 14  1  0
 14 15  2  0
 15 16  1  0
 16 17  1  0
 16 18  2  0
 18 19  1  0
 18 20  1  0
 20 21  2  0
 21 14  1  0
 20 22  1  0
 21 23  1  0
  5 15  1  0
M  ISO  4   8  14   9  14  17  15  19  16
M  END
>  <DihAtoms>  (1) 
3,4,14,13

>  <DihDeg>  (1) 
-179.99877121701047

$$$$
