
 OpenBabel03272509063D

 34 36  0  0  0  0  0  0  0  0999 V2000
   38.9480   26.7590   33.3740 C   0  0  0  0  0  0  0  0  0  0  0  0
   39.1020   26.1260   34.6250 C   0  0  0  0  0  0  0  0  0  0  0  0
   38.5330   24.8340   34.8390 C   0  0  0  0  0  0  0  0  0  0  0  0
   37.8680   24.2960   33.7900 N   0  0  0  0  0  0  0  0  0  0  0  0
   37.7450   24.9320   32.6170 C   0  0  0  0  0  0  0  0  0  0  0  0
   38.2700   26.1420   32.3950 N   0  0  0  0  0  0  0  0  0  0  0  0
   39.3290   27.7160   33.1100 H   0  0  0  0  0  0  0  0  0  0  0  0
   39.6530   26.7550   35.2710 H   0  0  0  0  0  0  0  0  0  0  0  0
   39.6470   23.3640   36.5320 C   0  0  0  0  0  0  0  0  0  0  0  0
   38.7330   24.3010   36.1710 C   0  0  0  0  0  0  0  0  0  0  0  0
   37.9430   24.7210   37.2190 C   0  0  0  0  0  0  0  0  0  0  0  0
   37.1640   25.4580   37.1510 H   0  0  0  0  0  0  0  0  0  0  0  0
   38.0580   24.2530   38.5000 C   0  0  0  0  0  0  0  0  0  0  0  0
   37.4410   24.5820   39.3200 H   0  0  0  0  0  0  0  0  0  0  0  0
   38.9980   23.3030   38.8280 C   0  0  0  0  0  3  0  0  0  0  0  0
   39.8100   22.8520   37.8130 C   0  0  0  0  0  3  0  0  0  0  0  0
   41.2050   22.3520   34.7600 N   0  0  0  0  0  0  0  0  0  0  0  0
   40.5140   22.8110   35.5610 C   0  0  0  0  0  0  0  0  0  0  0  0
   37.0150   24.2310   31.5820 C   0  0  0  0  0  3  0  0  0  0  0  0
   36.3700   23.1540   31.8780 C   0  0  0  0  0  3  0  0  0  0  0  0
   35.5660   22.2840   31.0200 C   0  0  0  0  0  0  0  0  0  0  0  0
   34.4840   22.4820   31.1570 H   0  0  0  0  0  0  0  0  0  0  0  0
   35.8120   22.5080   29.9550 H   0  0  0  0  0  0  0  0  0  0  0  0
   35.7590   20.8260   31.2990 C   0  0  0  0  0  0  0  0  0  0  0  0
   36.3730   19.9330   30.4650 C   0  0  0  0  0  0  0  0  0  0  0  0
   36.4900   18.6140   30.8310 C   0  0  0  0  0  0  0  0  0  0  0  0
   35.9910   18.1490   32.0520 C   0  0  0  0  0  0  0  0  0  0  0  0
   35.3720   19.0390   32.8980 C   0  0  0  0  0  0  0  0  0  0  0  0
   35.2520   20.3710   32.5310 C   0  0  0  0  0  0  0  0  0  0  0  0
   36.7520   20.3130   29.5260 H   0  0  0  0  0  0  0  0  0  0  0  0
   36.9850   17.9560   30.1290 H   0  0  0  0  0  0  0  0  0  0  0  0
   36.1290   17.0800   32.2600 H   0  0  0  0  0  0  0  0  0  0  0  0
   34.9910   18.6600   33.8400 H   0  0  0  0  0  0  0  0  0  0  0  0
   34.7510   20.9870   33.2650 H   0  0  0  0  0  0  0  0  0  0  0  0
  1  2  1  0  0  0  0
  2  3  2  0  0  0  0
  2  8  1  0  0  0  0
  3 10  1  0  0  0  0
  4  3  1  0  0  0  0
  5  4  2  0  0  0  0
  6  5  1  0  0  0  0
  6  1  2  0  0  0  0
  7  1  1  0  0  0  0
  9 16  1  0  0  0  0
 10  9  2  0  0  0  0
 10 11  1  0  0  0  0
 11 13  2  0  0  0  0
 12 11  1  0  0  0  0
 13 15  1  0  0  0  0
 13 14  1  0  0  0  0
 16 15  2  0  0  0  0
 17 18  3  0  0  0  0
 18  9  1  0  0  0  0
 19 20  2  0  0  0  0
 19  5  1  0  0  0  0
 21 22  1  0  0  0  0
 21 24  1  0  0  0  0
 21 20  1  0  0  0  0
 23 21  1  0  0  0  0
 24 29  1  0  0  0  0
 25 26  1  0  0  0  0
 25 24  2  0  0  0  0
 26 27  2  0  0  0  0
 27 32  1  0  0  0  0
 27 28  1  0  0  0  0
 28 33  1  0  0  0  0
 29 28  2  0  0  0  0
 29 34  1  0  0  0  0
 30 25  1  0  0  0  0
 31 26  1  0  0  0  0
M  END
>  <minimizedAffinity>
-5.98094416

$$$$

 OpenBabel03272509063D

 34 36  0  0  0  0  0  0  0  0999 V2000
   36.5040   29.6410   31.5860 C   0  0  0  0  0  0  0  0  0  0  0  0
   35.8750   30.3070   32.6580 C   0  0  0  0  0  0  0  0  0  0  0  0
   35.7050   29.6350   33.9070 C   0  0  0  0  0  0  0  0  0  0  0  0
   36.1770   28.3680   33.9690 N   0  0  0  0  0  0  0  0  0  0  0  0
   36.7700   27.7720   32.9250 C   0  0  0  0  0  0  0  0  0  0  0  0
   36.9390   28.3830   31.7480 N   0  0  0  0  0  0  0  0  0  0  0  0
   36.6800   30.0480   30.6190 H   0  0  0  0  0  0  0  0  0  0  0  0
   35.5940   31.2780   32.3530 H   0  0  0  0  0  0  0  0  0  0  0  0
   33.6820   30.4290   35.1490 C   0  0  0  0  0  0  0  0  0  0  0  0
   35.0200   30.4100   34.9210 C   0  0  0  0  0  0  0  0  0  0  0  0
   35.7250   31.2480   35.7570 C   0  0  0  0  0  0  0  0  0  0  0  0
   36.7920   31.3790   35.7480 H   0  0  0  0  0  0  0  0  0  0  0  0
   35.1490   32.0240   36.7270 C   0  0  0  0  0  0  0  0  0  0  0  0
   35.7000   32.6790   37.3810 H   0  0  0  0  0  0  0  0  0  0  0  0
   33.7880   32.0150   36.9290 C   0  0  0  0  0  3  0  0  0  0  0  0
   33.0420   31.1940   36.1150 C   0  0  0  0  0  3  0  0  0  0  0  0
   32.0970   29.0090   33.7110 N   0  0  0  0  0  0  0  0  0  0  0  0
   32.8170   29.6420   34.3510 C   0  0  0  0  0  0  0  0  0  0  0  0
   37.2350   26.4180   33.1400 C   0  0  0  0  0  3  0  0  0  0  0  0
   38.2950   26.2140   33.8460 C   0  0  0  0  0  3  0  0  0  0  0  0
   38.9490   24.9560   34.2030 C   0  0  0  0  0  0  0  0  0  0  0  0
   38.5580   24.1180   33.5910 H   0  0  0  0  0  0  0  0  0  0  0  0
   40.0390   25.0460   33.9860 H   0  0  0  0  0  0  0  0  0  0  0  0
   38.7380   24.5580   35.6310 C   0  0  0  0  0  0  0  0  0  0  0  0
   37.8790   25.1660   36.5060 C   0  0  0  0  0  0  0  0  0  0  0  0
   37.7740   24.7110   37.7970 C   0  0  0  0  0  0  0  0  0  0  0  0
   38.5300   23.6270   38.2540 C   0  0  0  0  0  0  0  0  0  0  0  0
   39.3960   23.0090   37.3820 C   0  0  0  0  0  0  0  0  0  0  0  0
   39.5060   23.4660   36.0780 C   0  0  0  0  0  0  0  0  0  0  0  0
   37.3030   26.0020   36.1320 H   0  0  0  0  0  0  0  0  0  0  0  0
   37.0770   25.2330   38.4420 H   0  0  0  0  0  0  0  0  0  0  0  0
   38.3800   23.3340   39.3020 H   0  0  0  0  0  0  0  0  0  0  0  0
   39.9750   22.1710   37.7540 H   0  0  0  0  0  0  0  0  0  0  0  0
   40.2130   22.9140   35.4750 H   0  0  0  0  0  0  0  0  0  0  0  0
  1  6  2  0  0  0  0
  1  2  1  0  0  0  0
  2  3  2  0  0  0  0
  3  4  1  0  0  0  0
  3 10  1  0  0  0  0
  5 19  1  0  0  0  0
  5  4  2  0  0  0  0
  6  5  1  0  0  0  0
  7  1  1  0  0  0  0
  8  2  1  0  0  0  0
  9 16  1  0  0  0  0
 10  9  2  0  0  0  0
 10 11  1  0  0  0  0
 11 13  2  0  0  0  0
 12 11  1  0  0  0  0
 13 15  1  0  0  0  0
 13 14  1  0  0  0  0
 16 15  2  0  0  0  0
 17 18  3  0  0  0  0
 18  9  1  0  0  0  0
 19 20  2  0  0  0  0
 20 21  1  0  0  0  0
 21 24  1  0  0  0  0
 22 21  1  0  0  0  0
 23 21  1  0  0  0  0
 24 29  2  0  0  0  0
 24 25  1  0  0  0  0
 25 26  2  0  0  0  0
 26 27  1  0  0  0  0
 26 31  1  0  0  0  0
 27 32  1  0  0  0  0
 28 33  1  0  0  0  0
 28 27  2  0  0  0  0
 29 28  1  0  0  0  0
 30 25  1  0  0  0  0
 34 29  1  0  0  0  0
M  END
>  <minimizedAffinity>
-5.91116858

$$$$

 OpenBabel03272509063D

 34 36  0  0  0  0  0  0  0  0999 V2000
   39.0500   27.0550   34.2520 C   0  0  0  0  0  0  0  0  0  0  0  0
   39.7640   26.0800   34.9780 C   0  0  0  0  0  0  0  0  0  0  0  0
   39.4640   24.6960   34.7910 C   0  0  0  0  0  0  0  0  0  0  0  0
   38.4830   24.4160   33.9010 N   0  0  0  0  0  0  0  0  0  0  0  0
   37.8290   25.3740   33.2300 C   0  0  0  0  0  0  0  0  0  0  0  0
   38.0940   26.6750   33.3900 N   0  0  0  0  0  0  0  0  0  0  0  0
   39.1930   28.1060   34.3150 H   0  0  0  0  0  0  0  0  0  0  0  0
   40.4670   26.5560   35.6070 H   0  0  0  0  0  0  0  0  0  0  0  0
   39.8100   23.1390   36.7200 C   0  0  0  0  0  0  0  0  0  0  0  0
   40.2430   23.7940   35.6130 C   0  0  0  0  0  0  0  0  0  0  0  0
   41.5660   23.5430   35.3170 C   0  0  0  0  0  0  0  0  0  0  0  0
   42.1030   23.9540   34.4820 H   0  0  0  0  0  0  0  0  0  0  0  0
   42.3720   22.7170   36.0530 C   0  0  0  0  0  0  0  0  0  0  0  0
   43.4060   22.5200   35.8220 H   0  0  0  0  0  0  0  0  0  0  0  0
   41.8960   22.0700   37.1700 C   0  0  0  0  0  3  0  0  0  0  0  0
   40.5800   22.2910   37.5060 C   0  0  0  0  0  3  0  0  0  0  0  0
   37.3980   23.4440   37.5490 N   0  0  0  0  0  0  0  0  0  0  0  0
   38.4810   23.3170   37.1720 C   0  0  0  0  0  0  0  0  0  0  0  0
   36.8110   24.9260   32.3040 C   0  0  0  0  0  3  0  0  0  0  0  0
   36.6530   23.6620   32.0960 C   0  0  0  0  0  3  0  0  0  0  0  0
   35.7030   22.9740   31.2230 C   0  0  0  0  0  0  0  0  0  0  0  0
   34.6690   23.3310   31.4010 H   0  0  0  0  0  0  0  0  0  0  0  0
   35.9580   23.2090   30.1620 H   0  0  0  0  0  0  0  0  0  0  0  0
   35.6700   21.4910   31.4290 C   0  0  0  0  0  0  0  0  0  0  0  0
   34.7410   20.8130   32.1700 C   0  0  0  0  0  0  0  0  0  0  0  0
   34.8170   19.4470   32.2880 C   0  0  0  0  0  0  0  0  0  0  0  0
   35.8310   18.7140   31.6630 C   0  0  0  0  0  0  0  0  0  0  0  0
   36.7700   19.3870   30.9150 C   0  0  0  0  0  0  0  0  0  0  0  0
   36.6970   20.7660   30.7950 C   0  0  0  0  0  0  0  0  0  0  0  0
   33.9650   21.3980   32.6450 H   0  0  0  0  0  0  0  0  0  0  0  0
   34.0530   18.9680   32.8870 H   0  0  0  0  0  0  0  0  0  0  0  0
   35.8110   17.6270   31.8130 H   0  0  0  0  0  0  0  0  0  0  0  0
   37.5490   18.8030   30.4390 H   0  0  0  0  0  0  0  0  0  0  0  0
   37.4810   21.1980   30.1870 H   0  0  0  0  0  0  0  0  0  0  0  0
  1  7  1  0  0  0  0
  1  2  1  0  0  0  0
  2  8  1  0  0  0  0
  3  2  2  0  0  0  0
  3 10  1  0  0  0  0
  4  3  1  0  0  0  0
  5  6  1  0  0  0  0
  5  4  2  0  0  0  0
  6  1  2  0  0  0  0
  9 18  1  0  0  0  0
  9 16  1  0  0  0  0
 10  9  2  0  0  0  0
 11 10  1  0  0  0  0
 11 13  2  0  0  0  0
 12 11  1  0  0  0  0
 13 15  1  0  0  0  0
 14 13  1  0  0  0  0
 15 16  2  0  0  0  0
 18 17  3  0  0  0  0
 19  5  1  0  0  0  0
 20 19  2  0  0  0  0
 21 22  1  0  0  0  0
 21 24  1  0  0  0  0
 21 20  1  0  0  0  0
 23 21  1  0  0  0  0
 24 25  1  0  0  0  0
 25 26  2  0  0  0  0
 25 30  1  0  0  0  0
 26 31  1  0  0  0  0
 27 32  1  0  0  0  0
 27 26  1  0  0  0  0
 28 27  2  0  0  0  0
 29 28  1  0  0  0  0
 29 24  2  0  0  0  0
 33 28  1  0  0  0  0
 34 29  1  0  0  0  0
M  END
>  <minimizedAffinity>
-5.75129032

$$$$

 OpenBabel03272509063D

 34 36  0  0  0  0  0  0  0  0999 V2000
   35.4080   29.4060   31.7750 C   0  0  0  0  0  0  0  0  0  0  0  0
   34.6310   29.9640   32.8120 C   0  0  0  0  0  0  0  0  0  0  0  0
   34.8700   29.5740   34.1650 C   0  0  0  0  0  0  0  0  0  0  0  0
   35.8580   28.6690   34.3560 N   0  0  0  0  0  0  0  0  0  0  0  0
   36.5740   28.1630   33.3420 C   0  0  0  0  0  0  0  0  0  0  0  0
   36.3670   28.5150   32.0680 N   0  0  0  0  0  0  0  0  0  0  0  0
   35.3130   29.6260   30.7400 H   0  0  0  0  0  0  0  0  0  0  0  0
   33.9270   30.6360   32.4000 H   0  0  0  0  0  0  0  0  0  0  0  0
   34.2650   31.2920   35.8820 C   0  0  0  0  0  0  0  0  0  0  0  0
   33.9910   30.1920   35.1350 C   0  0  0  0  0  0  0  0  0  0  0  0
   32.7480   29.6560   35.3940 C   0  0  0  0  0  0  0  0  0  0  0  0
   32.3330   28.7900   34.9110 H   0  0  0  0  0  0  0  0  0  0  0  0
   31.8670   30.1710   36.3070 C   0  0  0  0  0  0  0  0  0  0  0  0
   30.8950   29.7530   36.5100 H   0  0  0  0  0  0  0  0  0  0  0  0
   32.1810   31.2890   37.0450 C   0  0  0  0  0  3  0  0  0  0  0  0
   33.4130   31.8590   36.8210 C   0  0  0  0  0  3  0  0  0  0  0  0
   36.5330   32.4760   35.6650 N   0  0  0  0  0  0  0  0  0  0  0  0
   35.5150   31.9410   35.7520 C   0  0  0  0  0  0  0  0  0  0  0  0
   37.6050   27.2120   33.6980 C   0  0  0  0  0  3  0  0  0  0  0  0
   38.3110   27.4070   34.7600 C   0  0  0  0  0  3  0  0  0  0  0  0
   39.3910   26.5960   35.3220 C   0  0  0  0  0  0  0  0  0  0  0  0
   40.2480   26.5360   34.6230 H   0  0  0  0  0  0  0  0  0  0  0  0
   39.7570   27.0880   36.2550 H   0  0  0  0  0  0  0  0  0  0  0  0
   38.9890   25.1830   35.6070 C   0  0  0  0  0  0  0  0  0  0  0  0
   39.3800   24.0860   34.8890 C   0  0  0  0  0  0  0  0  0  0  0  0
   38.9420   22.8350   35.2470 C   0  0  0  0  0  0  0  0  0  0  0  0
   38.0940   22.6430   36.3430 C   0  0  0  0  0  0  0  0  0  0  0  0
   37.6960   23.7390   37.0720 C   0  0  0  0  0  0  0  0  0  0  0  0
   38.1350   25.0040   36.7130 C   0  0  0  0  0  0  0  0  0  0  0  0
   40.0360   24.2560   34.0450 H   0  0  0  0  0  0  0  0  0  0  0  0
   39.2860   22.0070   34.6390 H   0  0  0  0  0  0  0  0  0  0  0  0
   37.7960   21.6080   36.5540 H   0  0  0  0  0  0  0  0  0  0  0  0
   37.0380   23.5720   37.9170 H   0  0  0  0  0  0  0  0  0  0  0  0
   37.7660   25.7960   37.3480 H   0  0  0  0  0  0  0  0  0  0  0  0
  1  6  2  0  0  0  0
  1  2  1  0  0  0  0
  2  3  2  0  0  0  0
  3  4  1  0  0  0  0
  3 10  1  0  0  0  0
  5 19  1  0  0  0  0
  5  4  2  0  0  0  0
  6  5  1  0  0  0  0
  7  1  1  0  0  0  0
  8  2  1  0  0  0  0
  9 16  1  0  0  0  0
 10 11  1  0  0  0  0
 10  9  2  0  0  0  0
 11 13  2  0  0  0  0
 12 11  1  0  0  0  0
 13 14  1  0  0  0  0
 13 15  1  0  0  0  0
 16 15  2  0  0  0  0
 17 18  3  0  0  0  0
 18  9  1  0  0  0  0
 19 20  2  0  0  0  0
 20 21  1  0  0  0  0
 21 24  1  0  0  0  0
 21 23  1  0  0  0  0
 22 21  1  0  0  0  0
 24 29  1  0  0  0  0
 25 26  1  0  0  0  0
 25 24  2  0  0  0  0
 26 27  2  0  0  0  0
 27 32  1  0  0  0  0
 27 28  1  0  0  0  0
 28 33  1  0  0  0  0
 29 28  2  0  0  0  0
 29 34  1  0  0  0  0
 30 25  1  0  0  0  0
 31 26  1  0  0  0  0
M  END
>  <minimizedAffinity>
-5.61304998

$$$$

 OpenBabel03272509063D

 34 36  0  0  0  0  0  0  0  0999 V2000
   35.1650   24.8130   31.1210 C   0  0  0  0  0  0  0  0  0  0  0  0
   35.3900   26.1770   30.8400 C   0  0  0  0  0  0  0  0  0  0  0  0
   36.5470   26.8270   31.3680 C   0  0  0  0  0  0  0  0  0  0  0  0
   37.3670   26.0600   32.1240 N   0  0  0  0  0  0  0  0  0  0  0  0
   37.1150   24.7660   32.3660 C   0  0  0  0  0  0  0  0  0  0  0  0
   36.0390   24.1380   31.8810 N   0  0  0  0  0  0  0  0  0  0  0  0
   34.3400   24.2360   30.7790 H   0  0  0  0  0  0  0  0  0  0  0  0
   34.6040   26.5460   30.2380 H   0  0  0  0  0  0  0  0  0  0  0  0
   36.3570   29.2760   31.8530 C   0  0  0  0  0  0  0  0  0  0  0  0
   36.6530   28.2330   31.0360 C   0  0  0  0  0  0  0  0  0  0  0  0
   37.0670   28.6260   29.7810 C   0  0  0  0  0  0  0  0  0  0  0  0
   37.3540   27.9620   28.9870 H   0  0  0  0  0  0  0  0  0  0  0  0
   37.1770   29.9320   29.3860 C   0  0  0  0  0  0  0  0  0  0  0  0
   37.5010   30.2400   28.4060 H   0  0  0  0  0  0  0  0  0  0  0  0
   36.8680   30.9630   30.2440 C   0  0  0  0  0  3  0  0  0  0  0  0
   36.4490   30.6180   31.5080 C   0  0  0  0  0  3  0  0  0  0  0  0
   35.5270   28.8410   34.2440 N   0  0  0  0  0  0  0  0  0  0  0  0
   35.8890   29.0350   33.1660 C   0  0  0  0  0  0  0  0  0  0  0  0
   38.0850   24.0670   33.1830 C   0  0  0  0  0  3  0  0  0  0  0  0
   37.7840   22.9180   33.6840 C   0  0  0  0  0  3  0  0  0  0  0  0
   38.5860   22.0290   34.5250 C   0  0  0  0  0  0  0  0  0  0  0  0
   38.1440   21.0130   34.5630 H   0  0  0  0  0  0  0  0  0  0  0  0
   39.6020   21.9330   34.0750 H   0  0  0  0  0  0  0  0  0  0  0  0
   38.6920   22.4880   35.9460 C   0  0  0  0  0  0  0  0  0  0  0  0
   37.6760   23.0350   36.6820 C   0  0  0  0  0  0  0  0  0  0  0  0
   37.8960   23.4220   37.9810 C   0  0  0  0  0  0  0  0  0  0  0  0
   39.1480   23.2710   38.5860 C   0  0  0  0  0  0  0  0  0  0  0  0
   40.1760   22.7220   37.8550 C   0  0  0  0  0  0  0  0  0  0  0  0
   39.9570   22.3310   36.5430 C   0  0  0  0  0  0  0  0  0  0  0  0
   36.7160   23.1430   36.1950 H   0  0  0  0  0  0  0  0  0  0  0  0
   37.0530   23.8480   38.5110 H   0  0  0  0  0  0  0  0  0  0  0  0
   39.2300   23.6080   39.6280 H   0  0  0  0  0  0  0  0  0  0  0  0
   41.1390   22.6130   38.3400 H   0  0  0  0  0  0  0  0  0  0  0  0
   40.8270   21.9120   36.0570 H   0  0  0  0  0  0  0  0  0  0  0  0
  1  6  1  0  0  0  0
  2  1  2  0  0  0  0
  2  3  1  0  0  0  0
  3  4  2  0  0  0  0
  4  5  1  0  0  0  0
  5 19  1  0  0  0  0
  6  5  2  0  0  0  0
  7  1  1  0  0  0  0
  8  2  1  0  0  0  0
  9 18  1  0  0  0  0
 10  3  1  0  0  0  0
 10  9  2  0  0  0  0
 11 10  1  0  0  0  0
 12 11  1  0  0  0  0
 13 11  2  0  0  0  0
 13 15  1  0  0  0  0
 14 13  1  0  0  0  0
 15 16  2  0  0  0  0
 16  9  1  0  0  0  0
 18 17  3  0  0  0  0
 19 20  2  0  0  0  0
 20 21  1  0  0  0  0
 21 22  1  0  0  0  0
 21 24  1  0  0  0  0
 23 21  1  0  0  0  0
 24 29  2  0  0  0  0
 24 25  1  0  0  0  0
 25 26  2  0  0  0  0
 26 31  1  0  0  0  0
 26 27  1  0  0  0  0
 27 32  1  0  0  0  0
 28 33  1  0  0  0  0
 28 27  2  0  0  0  0
 29 28  1  0  0  0  0
 30 25  1  0  0  0  0
 34 29  1  0  0  0  0
M  END
>  <minimizedAffinity>
-5.60689831

$$$$

 OpenBabel03272509063D

 34 36  0  0  0  0  0  0  0  0999 V2000
   39.7050   26.3020   32.9060 C   0  0  0  0  0  0  0  0  0  0  0  0
   39.4810   25.5070   34.0490 C   0  0  0  0  0  0  0  0  0  0  0  0
   38.2670   25.6540   34.7870 C   0  0  0  0  0  0  0  0  0  0  0  0
   37.3950   26.5760   34.3180 N   0  0  0  0  0  0  0  0  0  0  0  0
   37.6470   27.3110   33.2260 C   0  0  0  0  0  0  0  0  0  0  0  0
   38.7760   27.1890   32.5200 N   0  0  0  0  0  0  0  0  0  0  0  0
   40.5700   26.2720   32.2880 H   0  0  0  0  0  0  0  0  0  0  0  0
   40.3130   24.8750   34.2060 H   0  0  0  0  0  0  0  0  0  0  0  0
   38.0340   23.4540   35.9590 C   0  0  0  0  0  0  0  0  0  0  0  0
   38.1660   24.8050   35.9560 C   0  0  0  0  0  0  0  0  0  0  0  0
   38.1750   25.3520   37.2210 C   0  0  0  0  0  0  0  0  0  0  0  0
   38.2750   26.3990   37.4440 H   0  0  0  0  0  0  0  0  0  0  0  0
   38.0660   24.6190   38.3730 C   0  0  0  0  0  0  0  0  0  0  0  0
   38.0740   25.0460   39.3620 H   0  0  0  0  0  0  0  0  0  0  0  0
   37.9360   23.2500   38.3340 C   0  0  0  0  0  3  0  0  0  0  0  0
   37.9200   22.6600   37.0920 C   0  0  0  0  0  3  0  0  0  0  0  0
   37.9320   22.1890   33.7260 N   0  0  0  0  0  0  0  0  0  0  0  0
   37.9790   22.7470   34.7340 C   0  0  0  0  0  0  0  0  0  0  0  0
   36.6170   28.2510   32.8350 C   0  0  0  0  0  3  0  0  0  0  0  0
   35.8160   28.7230   33.7290 C   0  0  0  0  0  3  0  0  0  0  0  0
   34.7160   29.6760   33.5830 C   0  0  0  0  0  0  0  0  0  0  0  0
   34.9150   30.3900   32.7600 H   0  0  0  0  0  0  0  0  0  0  0  0
   33.7890   29.1130   33.3170 H   0  0  0  0  0  0  0  0  0  0  0  0
   34.4810   30.5080   34.8050 C   0  0  0  0  0  0  0  0  0  0  0  0
   33.3040   30.5890   35.4970 C   0  0  0  0  0  0  0  0  0  0  0  0
   33.2090   31.3910   36.6070 C   0  0  0  0  0  0  0  0  0  0  0  0
   34.2990   32.1420   37.0610 C   0  0  0  0  0  0  0  0  0  0  0  0
   35.4870   32.0680   36.3720 C   0  0  0  0  0  0  0  0  0  0  0  0
   35.5860   31.2590   35.2510 C   0  0  0  0  0  0  0  0  0  0  0  0
   32.4730   30.0000   35.1300 H   0  0  0  0  0  0  0  0  0  0  0  0
   32.2510   31.4130   37.1120 H   0  0  0  0  0  0  0  0  0  0  0  0
   34.1300   32.7550   37.9560 H   0  0  0  0  0  0  0  0  0  0  0  0
   36.3200   32.6570   36.7380 H   0  0  0  0  0  0  0  0  0  0  0  0
   36.5600   31.2710   34.7830 H   0  0  0  0  0  0  0  0  0  0  0  0
  1  2  1  0  0  0  0
  2  8  1  0  0  0  0
  2  3  2  0  0  0  0
  3 10  1  0  0  0  0
  4  3  1  0  0  0  0
  5  4  2  0  0  0  0
  6  1  2  0  0  0  0
  6  5  1  0  0  0  0
  7  1  1  0  0  0  0
  9 16  1  0  0  0  0
 10  9  2  0  0  0  0
 10 11  1  0  0  0  0
 11 12  1  0  0  0  0
 11 13  2  0  0  0  0
 13 14  1  0  0  0  0
 15 13  1  0  0  0  0
 16 15  2  0  0  0  0
 17 18  3  0  0  0  0
 18  9  1  0  0  0  0
 19  5  1  0  0  0  0
 19 20  2  0  0  0  0
 21 20  1  0  0  0  0
 21 24  1  0  0  0  0
 22 21  1  0  0  0  0
 23 21  1  0  0  0  0
 24 29  2  0  0  0  0
 24 25  1  0  0  0  0
 25 26  2  0  0  0  0
 26 27  1  0  0  0  0
 26 31  1  0  0  0  0
 27 32  1  0  0  0  0
 28 33  1  0  0  0  0
 28 27  2  0  0  0  0
 29 28  1  0  0  0  0
 30 25  1  0  0  0  0
 34 29  1  0  0  0  0
M  END
>  <minimizedAffinity>
-5.55270576

$$$$

 OpenBabel03272509063D

 34 36  0  0  0  0  0  0  0  0999 V2000
   35.7690   30.0080   31.9740 C   0  0  0  0  0  0  0  0  0  0  0  0
   35.2190   30.7260   33.0560 C   0  0  0  0  0  0  0  0  0  0  0  0
   35.2820   30.1800   34.3740 C   0  0  0  0  0  0  0  0  0  0  0  0
   35.8850   28.9730   34.4880 N   0  0  0  0  0  0  0  0  0  0  0  0
   36.3950   28.3240   33.4330 C   0  0  0  0  0  0  0  0  0  0  0  0
   36.3470   28.8170   32.1910 N   0  0  0  0  0  0  0  0  0  0  0  0
   35.7750   30.3220   30.9580 H   0  0  0  0  0  0  0  0  0  0  0  0
   34.8040   31.6310   32.7020 H   0  0  0  0  0  0  0  0  0  0  0  0
   33.3830   30.8830   35.8450 C   0  0  0  0  0  0  0  0  0  0  0  0
   34.6590   30.9950   35.3960 C   0  0  0  0  0  0  0  0  0  0  0  0
   35.3590   32.0170   36.0000 C   0  0  0  0  0  0  0  0  0  0  0  0
   36.3830   32.2730   35.7950 H   0  0  0  0  0  0  0  0  0  0  0  0
   34.8360   32.8410   36.9600 C   0  0  0  0  0  0  0  0  0  0  0  0
   35.3830   33.6400   37.4330 H   0  0  0  0  0  0  0  0  0  0  0  0
   33.5370   32.6950   37.3900 C   0  0  0  0  0  3  0  0  0  0  0  0
   32.7980   31.6890   36.8140 C   0  0  0  0  0  3  0  0  0  0  0  0
   31.8230   29.0890   34.8740 N   0  0  0  0  0  0  0  0  0  0  0  0
   32.5250   29.8980   35.3000 C   0  0  0  0  0  0  0  0  0  0  0  0
   37.0190   27.0470   33.7080 C   0  0  0  0  0  3  0  0  0  0  0  0
   37.4620   26.7980   34.8930 C   0  0  0  0  0  3  0  0  0  0  0  0
   38.1170   25.5960   35.4100 C   0  0  0  0  0  0  0  0  0  0  0  0
   38.0160   25.5310   36.5120 H   0  0  0  0  0  0  0  0  0  0  0  0
   37.6110   24.7010   34.9770 H   0  0  0  0  0  0  0  0  0  0  0  0
   39.5860   25.5480   35.1250 C   0  0  0  0  0  0  0  0  0  0  0  0
   40.3610   26.6170   34.7680 C   0  0  0  0  0  0  0  0  0  0  0  0
   41.7020   26.4480   34.5290 C   0  0  0  0  0  0  0  0  0  0  0  0
   42.3120   25.1940   34.6410 C   0  0  0  0  0  0  0  0  0  0  0  0
   41.5410   24.1130   35.0000 C   0  0  0  0  0  0  0  0  0  0  0  0
   40.1870   24.2800   35.2420 C   0  0  0  0  0  0  0  0  0  0  0  0
   39.8700   27.5780   34.6860 H   0  0  0  0  0  0  0  0  0  0  0  0
   42.2620   27.3320   34.2490 H   0  0  0  0  0  0  0  0  0  0  0  0
   43.3890   25.1540   34.4320 H   0  0  0  0  0  0  0  0  0  0  0  0
   42.0310   23.1490   35.0820 H   0  0  0  0  0  0  0  0  0  0  0  0
   39.6720   23.3700   35.5170 H   0  0  0  0  0  0  0  0  0  0  0  0
  1  6  2  0  0  0  0
  1  2  1  0  0  0  0
  2  3  2  0  0  0  0
  3  4  1  0  0  0  0
  3 10  1  0  0  0  0
  5 19  1  0  0  0  0
  5  4  2  0  0  0  0
  6  5  1  0  0  0  0
  7  1  1  0  0  0  0
  8  2  1  0  0  0  0
  9 16  1  0  0  0  0
 10  9  2  0  0  0  0
 10 11  1  0  0  0  0
 11 13  2  0  0  0  0
 12 11  1  0  0  0  0
 13 15  1  0  0  0  0
 13 14  1  0  0  0  0
 16 15  2  0  0  0  0
 17 18  3  0  0  0  0
 18  9  1  0  0  0  0
 19 20  2  0  0  0  0
 20 21  1  0  0  0  0
 21 22  1  0  0  0  0
 23 21  1  0  0  0  0
 24 29  1  0  0  0  0
 24 21  1  0  0  0  0
 25 24  2  0  0  0  0
 26 27  2  0  0  0  0
 26 25  1  0  0  0  0
 27 28  1  0  0  0  0
 28 33  1  0  0  0  0
 28 29  2  0  0  0  0
 29 34  1  0  0  0  0
 30 25  1  0  0  0  0
 31 26  1  0  0  0  0
 32 27  1  0  0  0  0
M  END
>  <minimizedAffinity>
-5.51151037

$$$$

 OpenBabel03272509063D

 34 36  0  0  0  0  0  0  0  0999 V2000
   39.0470   25.6280   34.5680 C   0  0  0  0  0  0  0  0  0  0  0  0
   38.3430   26.8330   34.3640 C   0  0  0  0  0  0  0  0  0  0  0  0
   37.2410   26.8640   33.4570 C   0  0  0  0  0  0  0  0  0  0  0  0
   36.9460   25.6960   32.8400 N   0  0  0  0  0  0  0  0  0  0  0  0
   37.6410   24.5720   33.0630 C   0  0  0  0  0  0  0  0  0  0  0  0
   38.6760   24.5210   33.9080 N   0  0  0  0  0  0  0  0  0  0  0  0
   39.8780   25.4960   35.2180 H   0  0  0  0  0  0  0  0  0  0  0  0
   38.7730   27.5950   34.9560 H   0  0  0  0  0  0  0  0  0  0  0  0
   36.5900   28.9180   32.1830 C   0  0  0  0  0  0  0  0  0  0  0  0
   36.6170   28.1630   33.3100 C   0  0  0  0  0  0  0  0  0  0  0  0
   35.9900   28.7630   34.3810 C   0  0  0  0  0  0  0  0  0  0  0  0
   35.8930   28.3350   35.3620 H   0  0  0  0  0  0  0  0  0  0  0  0
   35.3930   29.9940   34.3260 C   0  0  0  0  0  0  0  0  0  0  0  0
   34.9020   30.4630   35.1630 H   0  0  0  0  0  0  0  0  0  0  0  0
   35.3850   30.7300   33.1640 C   0  0  0  0  0  3  0  0  0  0  0  0
   36.0020   30.1710   32.0680 C   0  0  0  0  0  3  0  0  0  0  0  0
   37.7140   28.0610   30.0390 N   0  0  0  0  0  0  0  0  0  0  0  0
   37.2190   28.4520   31.0040 C   0  0  0  0  0  0  0  0  0  0  0  0
   37.2050   23.3960   32.3400 C   0  0  0  0  0  3  0  0  0  0  0  0
   36.0740   23.4140   31.7200 C   0  0  0  0  0  3  0  0  0  0  0  0
   35.4300   22.3660   30.9280 C   0  0  0  0  0  0  0  0  0  0  0  0
   34.3340   22.5250   30.8770 H   0  0  0  0  0  0  0  0  0  0  0  0
   35.8220   22.4170   29.8840 H   0  0  0  0  0  0  0  0  0  0  0  0
   35.6240   20.9910   31.4870 C   0  0  0  0  0  0  0  0  0  0  0  0
   35.1470   20.5480   32.6900 C   0  0  0  0  0  0  0  0  0  0  0  0
   35.3920   19.2610   33.0980 C   0  0  0  0  0  0  0  0  0  0  0  0
   36.1280   18.3710   32.3080 C   0  0  0  0  0  0  0  0  0  0  0  0
   36.6120   18.8070   31.0960 C   0  0  0  0  0  0  0  0  0  0  0  0
   36.3670   20.1070   30.6820 C   0  0  0  0  0  0  0  0  0  0  0  0
   34.5800   21.2520   33.2860 H   0  0  0  0  0  0  0  0  0  0  0  0
   34.9880   18.9700   34.0600 H   0  0  0  0  0  0  0  0  0  0  0  0
   36.2740   17.3630   32.7150 H   0  0  0  0  0  0  0  0  0  0  0  0
   37.1810   18.1040   30.4980 H   0  0  0  0  0  0  0  0  0  0  0  0
   36.7900   20.3490   29.7170 H   0  0  0  0  0  0  0  0  0  0  0  0
  1  7  1  0  0  0  0
  2  1  1  0  0  0  0
  2  8  1  0  0  0  0
  3  2  2  0  0  0  0
  4  5  2  0  0  0  0
  4  3  1  0  0  0  0
  5  6  1  0  0  0  0
  6  1  2  0  0  0  0
  9 10  1  0  0  0  0
 10  3  1  0  0  0  0
 10 11  2  0  0  0  0
 11 12  1  0  0  0  0
 13 11  1  0  0  0  0
 13 14  1  0  0  0  0
 15 13  2  0  0  0  0
 16  9  2  0  0  0  0
 16 15  1  0  0  0  0
 17 18  3  0  0  0  0
 18  9  1  0  0  0  0
 19  5  1  0  0  0  0
 20 19  2  0  0  0  0
 21 24  1  0  0  0  0
 21 20  1  0  0  0  0
 22 21  1  0  0  0  0
 23 21  1  0  0  0  0
 24 25  1  0  0  0  0
 25 26  2  0  0  0  0
 25 30  1  0  0  0  0
 26 31  1  0  0  0  0
 27 32  1  0  0  0  0
 27 26  1  0  0  0  0
 28 27  2  0  0  0  0
 29 28  1  0  0  0  0
 29 24  2  0  0  0  0
 33 28  1  0  0  0  0
 34 29  1  0  0  0  0
M  END
>  <minimizedAffinity>
-5.46739435

$$$$

 OpenBabel03272509063D

 34 36  0  0  0  0  0  0  0  0999 V2000
   37.1310   25.2080   32.6000 C   0  0  0  0  0  0  0  0  0  0  0  0
   38.1380   24.5680   33.3530 C   0  0  0  0  0  0  0  0  0  0  0  0
   38.6560   25.2000   34.5240 C   0  0  0  0  0  0  0  0  0  0  0  0
   38.1240   26.4060   34.8330 N   0  0  0  0  0  0  0  0  0  0  0  0
   37.1680   26.9790   34.0890 C   0  0  0  0  0  0  0  0  0  0  0  0
   36.6680   26.4050   32.9900 N   0  0  0  0  0  0  0  0  0  0  0  0
   36.6790   24.8270   31.7170 H   0  0  0  0  0  0  0  0  0  0  0  0
   38.3830   23.6460   32.9000 H   0  0  0  0  0  0  0  0  0  0  0  0
   39.5410   23.5900   36.2240 C   0  0  0  0  0  0  0  0  0  0  0  0
   39.7050   24.4600   35.1950 C   0  0  0  0  0  0  0  0  0  0  0  0
   41.0220   24.6190   34.8220 C   0  0  0  0  0  0  0  0  0  0  0  0
   41.3700   25.2550   34.0280 H   0  0  0  0  0  0  0  0  0  0  0  0
   42.0700   23.9690   35.4180 C   0  0  0  0  0  0  0  0  0  0  0  0
   43.1000   24.0920   35.1260 H   0  0  0  0  0  0  0  0  0  0  0  0
   41.8640   23.0930   36.4580 C   0  0  0  0  0  3  0  0  0  0  0  0
   40.5640   22.9040   36.8670 C   0  0  0  0  0  3  0  0  0  0  0  0
   37.1870   23.1380   37.1450 N   0  0  0  0  0  0  0  0  0  0  0  0
   38.2480   23.3420   36.7420 C   0  0  0  0  0  0  0  0  0  0  0  0
   36.6870   28.2660   34.5460 C   0  0  0  0  0  3  0  0  0  0  0  0
   36.0000   29.0090   33.7460 C   0  0  0  0  0  3  0  0  0  0  0  0
   35.4090   30.3270   33.9750 C   0  0  0  0  0  0  0  0  0  0  0  0
   36.1550   31.0270   34.4010 H   0  0  0  0  0  0  0  0  0  0  0  0
   35.0820   30.7460   32.9940 H   0  0  0  0  0  0  0  0  0  0  0  0
   34.2620   30.3070   34.9360 C   0  0  0  0  0  0  0  0  0  0  0  0
   33.2150   29.4270   34.9050 C   0  0  0  0  0  0  0  0  0  0  0  0
   32.2160   29.5100   35.8440 C   0  0  0  0  0  0  0  0  0  0  0  0
   32.2360   30.4830   36.8490 C   0  0  0  0  0  0  0  0  0  0  0  0
   33.2840   31.3720   36.8880 C   0  0  0  0  0  0  0  0  0  0  0  0
   34.2940   31.2920   35.9420 C   0  0  0  0  0  0  0  0  0  0  0  0
   33.2180   28.6820   34.1200 H   0  0  0  0  0  0  0  0  0  0  0  0
   31.4140   28.7850   35.7660 H   0  0  0  0  0  0  0  0  0  0  0  0
   31.3950   30.4730   37.5550 H   0  0  0  0  0  0  0  0  0  0  0  0
   33.2830   32.1200   37.6740 H   0  0  0  0  0  0  0  0  0  0  0  0
   35.0700   32.0350   36.0610 H   0  0  0  0  0  0  0  0  0  0  0  0
  1  6  2  0  0  0  0
  1  2  1  0  0  0  0
  2  3  2  0  0  0  0
  3  4  1  0  0  0  0
  3 10  1  0  0  0  0
  5 19  1  0  0  0  0
  5  4  2  0  0  0  0
  6  5  1  0  0  0  0
  7  1  1  0  0  0  0
  8  2  1  0  0  0  0
  9 18  1  0  0  0  0
  9 16  1  0  0  0  0
 10  9  2  0  0  0  0
 11 10  1  0  0  0  0
 11 13  2  0  0  0  0
 12 11  1  0  0  0  0
 13 15  1  0  0  0  0
 14 13  1  0  0  0  0
 15 16  2  0  0  0  0
 18 17  3  0  0  0  0
 20 21  1  0  0  0  0
 20 19  2  0  0  0  0
 21 22  1  0  0  0  0
 21 24  1  0  0  0  0
 23 21  1  0  0  0  0
 24 29  1  0  0  0  0
 25 24  2  0  0  0  0
 25 26  1  0  0  0  0
 26 27  2  0  0  0  0
 27 28  1  0  0  0  0
 27 32  1  0  0  0  0
 28 33  1  0  0  0  0
 29 34  1  0  0  0  0
 29 28  2  0  0  0  0
 30 25  1  0  0  0  0
 31 26  1  0  0  0  0
M  END
>  <minimizedAffinity>
-5.40669823

$$$$
