
 OpenBabel03272502393D

 41 44  0  0  1  0  0  0  0  0999 V2000
   32.1280   27.9110   48.2760 N   0  0  0  0  0  0  0  0  0  0  0  0
   32.7380   27.3950   47.0660 C   0  0  0  0  0  0  0  0  0  0  0  0
   34.1000   28.0270   47.0700 C   0  0  0  0  0  0  0  0  0  0  0  0
   34.0560   29.0750   48.2760 C   0  0  1  0  0  0  0  0  0  0  0  0
   33.2030   28.3280   49.1990 C   0  0  0  0  0  0  0  0  0  0  0  0
   32.7880   26.2860   47.0630 H   0  0  0  0  0  0  0  0  0  0  0  0
   32.1920   27.7970   46.1920 H   0  0  0  0  0  0  0  0  0  0  0  0
   34.3450   28.6070   46.1600 H   0  0  0  0  0  0  0  0  0  0  0  0
   34.8680   27.3130   47.3650 H   0  0  0  0  0  0  0  0  0  0  0  0
   33.6140   29.9460   47.7790 H   0  0  0  0  0  0  0  0  0  0  0  0
   33.6600   27.3730   49.5200 H   0  0  0  0  0  0  0  0  0  0  0  0
   32.7800   28.9030   50.0450 H   0  0  0  0  0  0  0  0  0  0  0  0
   35.9400   30.3810   46.5970 F   0  0  0  0  0  0  0  0  0  0  0  0
   36.2440   29.9940   47.8470 C   0  0  0  0  0  0  0  0  0  0  0  0
   35.4310   29.3160   48.7130 C   0  0  0  0  0  0  0  0  0  0  0  0
   35.9390   29.0010   49.9870 C   0  0  0  0  0  0  0  0  0  0  0  0
   37.2040   29.3510   50.3770 C   0  0  0  0  0  0  0  0  0  0  0  0
   38.0180   30.0420   49.4730 C   0  0  0  0  0  0  0  0  0  0  0  0
   37.5190   30.3600   48.1950 C   0  0  0  0  0  0  0  0  0  0  0  0
   35.2350   28.4660   50.6090 H   0  0  0  0  0  0  0  0  0  0  0  0
   37.5140   29.0720   51.3750 H   0  0  0  0  0  0  0  0  0  0  0  0
   39.0120   30.3110   49.7900 H   0  0  0  0  0  0  0  0  0  0  0  0
   38.6980   32.4120   47.6830 C   0  0  0  0  0  0  0  0  0  0  0  0
   38.4470   31.0800   47.3310 C   0  0  0  0  0  0  0  0  0  0  0  0
   39.0670   30.5220   46.2200 C   0  0  0  0  0  0  0  0  0  0  0  0
   38.8380   29.4840   45.9910 H   0  0  0  0  0  0  0  0  0  0  0  0
   39.9230   31.3250   45.4920 C   0  0  0  0  0  0  0  0  0  0  0  0
   40.3910   30.8650   44.6340 H   0  0  0  0  0  0  0  0  0  0  0  0
   40.1670   32.6340   45.8400 C   0  0  0  0  0  3  0  0  0  0  0  0
   39.5590   33.2050   46.9440 C   0  0  0  0  0  3  0  0  0  0  0  0
   37.5290   33.4660   49.7690 N   0  0  0  0  0  0  0  0  0  0  0  0
   38.0540   32.9970   48.8400 C   0  0  0  0  0  0  0  0  0  0  0  0
   30.7510   28.0180   48.5590 C   0  0  0  0  0  0  0  0  0  0  0  0
   29.9270   28.3530   47.4750 C   0  0  0  0  0  0  0  0  0  0  0  0
   28.5470   28.4840   47.6930 C   0  0  0  0  0  0  0  0  0  0  0  0
   28.1020   28.2680   48.9850 N   0  0  0  0  0  0  0  0  0  0  0  0
   28.9240   27.9500   49.9950 C   0  0  0  0  0  0  0  0  0  0  0  0
   30.2580   27.8230   49.7830 N   0  0  0  0  0  0  0  0  0  0  0  0
   30.2170   28.5280   46.4660 H   0  0  0  0  0  0  0  0  0  0  0  0
   27.8520   28.7380   46.9070 H   0  0  0  0  0  0  0  0  0  0  0  0
   28.4610   27.8060   50.9550 H   0  0  0  0  0  0  0  0  0  0  0  0
  1 33  1  0  0  0  0
  1  5  1  0  0  0  0
  2  3  1  0  0  0  0
  2  1  1  0  0  0  0
  3  9  1  0  0  0  0
  3  4  1  0  0  0  0
  4 10  1  6  0  0  0
  4 15  1  0  0  0  0
  4  5  1  0  0  0  0
  5 11  1  0  0  0  0
  5 12  1  0  0  0  0
  6  2  1  0  0  0  0
  7  2  1  0  0  0  0
  8  3  1  0  0  0  0
 13 14  1  0  0  0  0
 14 19  2  0  0  0  0
 14 15  1  0  0  0  0
 15 16  2  0  0  0  0
 16 17  1  0  0  0  0
 16 20  1  0  0  0  0
 17 21  1  0  0  0  0
 18 22  1  0  0  0  0
 18 17  2  0  0  0  0
 19 18  1  0  0  0  0
 23 32  1  0  0  0  0
 24 23  1  0  0  0  0
 24 19  1  0  0  0  0
 25 24  2  0  0  0  0
 26 25  1  0  0  0  0
 27 29  2  0  0  0  0
 27 25  1  0  0  0  0
 28 27  1  0  0  0  0
 29 30  1  0  0  0  0
 30 23  2  0  0  0  0
 32 31  3  0  0  0  0
 33 38  1  0  0  0  0
 34 35  1  0  0  0  0
 34 33  2  0  0  0  0
 35 36  2  0  0  0  0
 36 37  1  0  0  0  0
 37 41  1  0  0  0  0
 38 37  2  0  0  0  0
 39 34  1  0  0  0  0
 40 35  1  0  0  0  0
M  END
>  <minimizedAffinity>
-7.37594795

>  <minimizedRMSD>
3.42503881

$$$$
