
 OpenBabel03262522063D

 41 44  0  0  1  0  0  0  0  0999 V2000
   34.4480   29.1490   48.5780 C   0  0  2  0  0  0  0  0  0  0  0  0
   35.0660   28.4670   49.7500 C   0  0  0  0  0  0  0  0  0  0  0  0
   36.2560   29.2080   50.1640 N   0  0  0  0  0  0  0  0  0  0  0  0
   37.2660   29.9410   50.8750 C   0  0  0  0  0  0  0  0  0  0  0  0
   37.5140   30.2120   52.0640 O   0  0  0  0  0  0  0  0  0  0  0  0
   37.9970   30.3220   49.7000 C   0  0  1  0  0  0  0  0  0  0  0  0
   37.0910   29.3130   49.0060 C   0  0  2  0  0  0  0  0  0  0  0  0
   35.9050   30.0020   47.8290 S   0  0  0  0  0  0  0  0  0  0  0  0
   34.3530   28.5440   50.6090 H   0  0  0  0  0  0  0  0  0  0  0  0
   35.2750   27.3920   49.5970 H   0  0  0  0  0  0  0  0  0  0  0  0
   39.0300   29.9100   49.6060 H   0  0  0  0  0  0  0  0  0  0  0  0
   37.5780   28.3750   48.6810 H   0  0  0  0  0  0  0  0  0  0  0  0
   33.3030   30.0610   48.8570 C   0  0  0  0  0  0  0  0  0  0  0  0
   32.4140   29.7270   48.3050 H   0  0  0  0  0  0  0  0  0  0  0  0
   33.5180   31.1080   48.4990 H   0  0  0  0  0  0  0  0  0  0  0  0
   33.0880   30.1450   49.9460 H   0  0  0  0  0  0  0  0  0  0  0  0
   34.0790   28.0720   47.5370 C   0  0  0  0  0  0  0  0  0  0  0  0
   33.0410   27.7680   47.7840 H   0  0  0  0  0  0  0  0  0  0  0  0
   34.7670   27.2290   47.6930 H   0  0  0  0  0  0  0  0  0  0  0  0
   34.1950   28.6300   46.2660 O   0  0  0  0  0  0  0  0  0  0  0  0
   33.8030   29.5300   46.2490 H   0  0  0  0  0  0  0  0  0  0  0  0
   37.8600   31.7240   49.2480 C   0  0  0  0  0  0  0  0  0  0  0  0
   36.9720   32.3750   49.8900 O   0  0  0  0  0  0  0  0  0  0  0  0
   38.6400   32.3090   48.2010 C   0  0  0  0  0  0  0  0  0  0  0  0
   39.1830   33.5550   48.4110 C   0  0  0  0  0  0  0  0  0  0  0  0
   39.9500   34.1290   47.3740 C   0  0  0  0  0  0  0  0  0  0  0  0
   40.1060   33.4090   46.2200 N   0  0  0  0  0  0  0  0  0  0  0  0
   39.5690   32.2060   46.0460 C   0  0  0  0  0  0  0  0  0  0  0  0
   38.8320   31.6480   47.0350 N   0  0  0  0  0  0  0  0  0  0  0  0
   39.0650   34.1330   49.3210 H   0  0  0  0  0  0  0  0  0  0  0  0
   40.3960   35.1110   47.5020 H   0  0  0  0  0  0  0  0  0  0  0  0
   38.6550   31.3540   43.9360 C   0  0  0  0  0  0  0  0  0  0  0  0
   39.7450   31.4500   44.8100 C   0  0  0  0  0  0  0  0  0  0  0  0
   40.9450   30.8360   44.4890 C   0  0  0  0  0  0  0  0  0  0  0  0
   41.7800   30.9130   45.1680 H   0  0  0  0  0  0  0  0  0  0  0  0
   41.0670   30.1230   43.2960 C   0  0  0  0  0  0  0  0  0  0  0  0
   41.9950   29.6280   43.0110 H   0  0  0  0  0  0  0  0  0  0  0  0
   39.9690   30.0530   42.4640 C   0  0  0  0  0  3  0  0  0  0  0  0
   38.7420   30.6500   42.7360 C   0  0  0  0  0  3  0  0  0  0  0  0
   36.3670   32.4750   44.4440 N   0  0  0  0  0  0  0  0  0  0  0  0
   37.3830   31.9710   44.2150 C   0  0  0  0  0  0  0  0  0  0  0  0
  1 17  1  6  0  0  0
  1 13  1  0  0  0  0
  1  2  1  0  0  0  0
  2  3  1  0  0  0  0
  2  9  1  0  0  0  0
  3  4  1  0  0  0  0
  4  5  2  0  0  0  0
  6 11  1  1  0  0  0
  6  4  1  0  0  0  0
  7 12  1  6  0  0  0
  7  6  1  0  0  0  0
  7  3  1  0  0  0  0
  8  1  1  0  0  0  0
  8  7  1  0  0  0  0
 10  2  1  0  0  0  0
 13 16  1  0  0  0  0
 14 13  1  0  0  0  0
 15 13  1  0  0  0  0
 17 19  1  0  0  0  0
 17 18  1  0  0  0  0
 20 17  1  0  0  0  0
 21 20  1  0  0  0  0
 22  6  1  0  0  0  0
 22 23  2  0  0  0  0
 24 25  1  0  0  0  0
 24 22  1  0  0  0  0
 25 30  1  0  0  0  0
 26 31  1  0  0  0  0
 26 25  2  0  0  0  0
 27 26  1  0  0  0  0
 28 27  2  0  0  0  0
 28 29  1  0  0  0  0
 29 24  2  0  0  0  0
 32 41  1  0  0  0  0
 32 33  1  0  0  0  0
 33 28  1  0  0  0  0
 34 33  2  0  0  0  0
 34 35  1  0  0  0  0
 36 34  1  0  0  0  0
 37 36  1  0  0  0  0
 38 39  1  0  0  0  0
 38 36  2  0  0  0  0
 39 32  2  0  0  0  0
 41 40  3  0  0  0  0
M  END
>  <minimizedAffinity>
-4.1154089

>  <minimizedRMSD>
0.778931797

$$$$
