
     RDKit          3D

 41 44  0  0  0  0  0  0  0  0999 V2000
   38.6319   32.9701   49.6902 Cl  0  0  0  0  0  0  0  0  0  0  0  0
   38.5970   32.2841   48.0831 C   0  0  0  0  0  0  0  0  0  0  0  0
   37.8686   31.1589   47.8003 C   0  0  0  0  0  0  0  0  0  0  0  0
   37.8937   30.6832   46.5125 C   0  0  0  0  0  0  0  0  0  0  0  0
   38.6142   31.2886   45.5126 C   0  0  0  0  0  0  0  0  0  0  0  0
   39.3497   32.4375   45.8302 C   0  0  0  0  0  0  0  0  0  0  0  0
   40.2485   33.1721   44.5305 Cl  0  0  0  0  0  0  0  0  0  0  0  0
   39.3433   32.9363   47.1102 C   0  0  0  0  0  0  0  0  0  0  0  0
   37.0236   29.3293   51.0141 C   0  0  0  0  0  0  0  0  0  0  0  0
   37.7672   29.8942   49.9625 C   0  0  0  0  0  0  0  0  0  0  0  0
   37.1152   30.5550   48.9194 C   0  0  0  0  0  0  0  0  0  0  0  0
   35.7488   30.6233   48.9713 N   0  0  0  0  0  0  0  0  0  0  0  0
   35.0831   30.0650   50.0022 C   0  0  0  0  0  0  0  0  0  0  0  0
   35.6993   29.4333   51.0001 N   0  0  0  0  0  0  0  0  0  0  0  0
   36.7812   32.5180   43.4256 Cl  0  0  0  0  0  0  0  0  0  0  0  0
   37.7731   31.0974   43.1205 C   0  0  0  0  0  0  0  0  0  0  0  0
   38.5494   30.6724   44.1860 C   0  0  0  0  0  0  0  0  0  0  0  0
   39.3762   29.5513   44.0512 C   0  0  0  0  0  0  0  0  0  0  0  0
   39.4172   28.8614   42.8399 C   0  0  0  0  0  0  0  0  0  0  0  0
   38.6374   29.3059   41.8029 C   0  0  0  0  0  0  0  0  0  0  0  0
   37.8164   30.4175   41.9336 C   0  0  0  0  0  0  0  0  0  0  0  0
   37.2965   29.7793   46.3275 H   0  0  0  0  0  0  0  0  0  0  0  0
   39.9203   33.8311   47.3432 H   0  0  0  0  0  0  0  0  0  0  0  0
   37.4973   28.8191   51.8230 H   0  0  0  0  0  0  0  0  0  0  0  0
   38.8593   29.8177   49.9583 H   0  0  0  0  0  0  0  0  0  0  0  0
   34.0101   30.2425   49.8323 H   0  0  0  0  0  0  0  0  0  0  0  0
   39.9959   29.1800   44.8409 H   0  0  0  0  0  0  0  0  0  0  0  0
   40.0449   27.9902   42.6995 H   0  0  0  0  0  0  0  0  0  0  0  0
   38.6063   28.8310   40.8257 H   0  0  0  0  0  0  0  0  0  0  0  0
   39.0343   28.8518   38.9950 N   0  0  0  0  0  0  0  0  0  0  0  0
   38.1837   29.5814   39.2236 C   0  0  0  0  0  0  0  0  0  0  0  0
   37.1251   30.5220   39.5147 C   0  0  0  0  0  0  0  0  0  0  0  0
   36.9908   30.8945   40.8478 C   0  0  0  0  0  0  0  0  0  0  0  0
   35.9988   31.7964   41.2257 C   0  0  0  0  0  0  0  0  0  0  0  0
   35.8267   32.1387   42.2425 H   0  0  0  0  0  0  0  0  0  0  0  0
   35.1599   32.3080   40.2597 C   0  0  0  0  0  0  0  0  0  0  0  0
   34.3558   33.0242   40.4899 H   0  0  0  0  0  0  0  0  0  0  0  0
   35.3026   31.9314   38.9419 C   0  0  0  0  0  0  0  0  0  0  0  0
   36.2830   31.0326   38.5305 C   0  0  0  0  0  0  0  0  0  0  0  0
   34.6784   32.2984   38.1532 H   0  0  0  0  0  0  0  0  0  0  0  0
   36.4210   30.7158   37.4982 H   0  0  0  0  0  0  0  0  0  0  0  0
  2  1  1  0
  3  2  2  0
  3 11  1  0
  4  3  1  0
  5  6  1  0
  5  4  2  0
  6  8  2  0
  7  6  1  0
  8  2  1  0
 10  9  2  0
 11 12  2  0
 11 10  1  0
 12 13  1  0
 13 14  2  0
 14  9  1  0
 16 15  1  0
 16 17  2  0
 17  5  1  0
 18 17  1  0
 19 18  2  0
 20 21  2  0
 20 19  1  0
 21 16  1  0
  4 22  1  0
  8 23  1  0
  9 24  1  0
 10 25  1  0
 13 26  1  0
 18 27  1  0
 19 28  1  0
 20 29  1  0
 30 31  3  0
 31 32  1  0
 32 33  2  0
 33 34  1  0
 34 35  1  0
 34 36  2  0
 36 37  1  0
 36 38  1  0
 38 39  2  0
 39 32  1  0
 38 40  1  0
 39 41  1  0
 21 33  1  0
M  ISO  8  22  14  23  14  24  14  25  14  26  14  27  14  28  14  29  14
M  ISO  2  35  15  37  16
M  END
>  <DihAtoms>  (1) 
19,20,32,31

>  <DihDeg>  (1) 
-90.00010731470965

$$$$
