
 OpenBabel03272504503D

 43 46  0  0  1  0  0  0  0  0999 V2000
   36.4460   30.5080   47.5260 N   0  0  0  0  0  0  0  0  0  0  0  0
   37.1660   30.3540   48.7830 C   0  0  0  0  0  0  0  0  0  0  0  0
   38.4650   31.0910   48.8160 C   0  0  0  0  0  0  0  0  0  0  0  0
   38.3330   32.4160   48.0950 C   0  0  0  0  0  0  0  0  0  0  0  0
   38.1200   32.0980   46.6480 C   0  0  0  0  0  0  0  0  0  0  0  0
   36.8940   31.2650   46.4010 C   0  0  1  0  0  0  0  0  0  0  0  0
   37.3650   29.2770   48.9110 H   0  0  0  0  0  0  0  0  0  0  0  0
   36.5600   30.7570   49.6400 H   0  0  0  0  0  0  0  0  0  0  0  0
   38.7430   31.3250   49.8660 H   0  0  0  0  0  0  0  0  0  0  0  0
   39.2850   30.5350   48.3120 H   0  0  0  0  0  0  0  0  0  0  0  0
   39.2920   32.9700   48.1760 H   0  0  0  0  0  0  0  0  0  0  0  0
   37.4770   33.0100   48.5040 H   0  0  0  0  0  0  0  0  0  0  0  0
   39.0350   31.5770   46.2750 H   0  0  0  0  0  0  0  0  0  0  0  0
   38.0450   33.0550   46.0660 H   0  0  0  0  0  0  0  0  0  0  0  0
   36.0710   31.9360   46.0790 H   0  0  0  0  0  0  0  0  0  0  0  0
   35.0460   28.5500   47.9310 C   0  0  0  0  0  0  0  0  0  0  0  0
   35.2020   29.8390   47.4370 C   0  0  0  0  0  0  0  0  0  0  0  0
   34.0920   30.4250   46.8580 C   0  0  0  0  0  0  0  0  0  0  0  0
   32.9220   29.7290   46.7980 N   0  0  0  0  0  0  0  0  0  0  0  0
   32.8080   28.4820   47.2850 C   0  0  0  0  0  0  0  0  0  0  0  0
   33.8750   27.9080   47.8470 N   0  0  0  0  0  0  0  0  0  0  0  0
   35.8730   28.0230   48.4010 H   0  0  0  0  0  0  0  0  0  0  0  0
   34.1200   31.4170   46.4530 H   0  0  0  0  0  0  0  0  0  0  0  0
   31.5510   27.7750   47.2040 C   0  0  0  0  0  0  0  0  0  0  0  0
   31.5120   26.4750   46.7540 C   0  0  0  0  0  0  0  0  0  0  0  0
   30.3530   25.7440   46.6500 C   0  0  0  0  0  0  0  0  0  0  0  0
   29.2100   26.4180   47.0340 C   0  0  0  0  0  0  0  0  0  0  0  0
   29.1920   27.7560   47.5040 C   0  0  0  0  0  0  0  0  0  0  0  0
   30.4060   28.3920   47.5680 N   0  0  0  0  0  0  0  0  0  0  0  0
   32.4460   26.0090   46.4700 H   0  0  0  0  0  0  0  0  0  0  0  0
   30.2770   24.7340   46.3070 H   0  0  0  0  0  0  0  0  0  0  0  0
   28.2420   25.9340   46.9910 H   0  0  0  0  0  0  0  0  0  0  0  0
   28.2740   28.2250   47.7870 H   0  0  0  0  0  0  0  0  0  0  0  0
   38.4710   30.0560   44.7430 C   0  0  0  0  0  0  0  0  0  0  0  0
   37.2200   30.3930   45.2290 C   0  0  0  0  0  0  0  0  0  0  0  0
   36.1200   29.8740   44.5740 C   0  0  0  0  0  0  0  0  0  0  0  0
   35.0870   30.0520   44.8420 H   0  0  0  0  0  0  0  0  0  0  0  0
   36.2380   29.0500   43.4740 C   0  0  0  0  0  0  0  0  0  0  0  0
   35.4130   28.6200   42.9270 H   0  0  0  0  0  0  0  0  0  0  0  0
   37.5110   28.7200   42.9950 C   0  0  0  0  0  3  0  0  0  0  0  0
   38.5940   29.2380   43.6510 C   0  0  0  0  0  3  0  0  0  0  0  0
   40.4770   31.0790   46.0410 N   0  0  0  0  0  0  0  0  0  0  0  0
   39.5720   30.6260   45.4670 C   0  0  0  0  0  0  0  0  0  0  0  0
  1  2  1  0  0  0  0
  2  3  1  0  0  0  0
  2  7  1  0  0  0  0
  2  8  1  0  0  0  0
  3  9  1  0  0  0  0
  4 11  1  0  0  0  0
  4 12  1  0  0  0  0
  4  3  1  0  0  0  0
  5  4  1  0  0  0  0
  6 15  1  6  0  0  0
  6  5  1  0  0  0  0
  6  1  1  0  0  0  0
 10  3  1  0  0  0  0
 13  5  1  0  0  0  0
 14  5  1  0  0  0  0
 16 22  1  0  0  0  0
 17  1  1  0  0  0  0
 17 16  2  0  0  0  0
 18 17  1  0  0  0  0
 19 18  2  0  0  0  0
 19 20  1  0  0  0  0
 20 21  2  0  0  0  0
 21 16  1  0  0  0  0
 23 18  1  0  0  0  0
 24 20  1  0  0  0  0
 24 29  1  0  0  0  0
 25 24  2  0  0  0  0
 26 25  1  0  0  0  0
 26 27  2  0  0  0  0
 27 28  1  0  0  0  0
 28 29  2  0  0  0  0
 28 33  1  0  0  0  0
 30 25  1  0  0  0  0
 31 26  1  0  0  0  0
 32 27  1  0  0  0  0
 34 35  1  0  0  0  0
 34 43  1  0  0  0  0
 35  6  1  0  0  0  0
 36 37  1  0  0  0  0
 36 35  2  0  0  0  0
 38 36  1  0  0  0  0
 39 38  1  0  0  0  0
 40 38  2  0  0  0  0
 40 41  1  0  0  0  0
 41 34  2  0  0  0  0
 43 42  3  0  0  0  0
M  END
>  <minimizedAffinity>
-4.87290287

>  <minimizedRMSD>
1.63500023

$$$$
