
     RDKit          3D

 42 45  0  0  0  0  0  0  0  0999 V2000
   36.3887   30.9113   45.6896 Cl  0  0  0  0  0  0  0  0  0  0  0  0
   36.6808   30.7603   47.4024 C   0  0  0  0  0  0  0  0  0  0  0  0
   37.9408   31.0822   47.8660 C   0  0  0  0  0  0  0  0  0  0  0  0
   38.1805   30.9640   49.2306 C   0  0  0  0  0  0  0  0  0  0  0  0
   37.1768   30.5383   50.0657 C   0  0  0  0  0  0  0  0  0  0  0  0
   35.9383   30.2325   49.5344 C   0  0  0  0  0  0  0  0  0  0  0  0
   35.6267   30.3243   48.2003 C   0  0  0  0  0  0  0  0  0  0  0  0
   40.1980   33.3104   46.0809 C   0  0  0  0  0  0  0  0  0  0  0  0
   40.9170   32.4605   45.2121 C   0  0  0  0  0  0  0  0  0  0  0  0
   40.5986   31.0997   45.2625 C   0  0  0  0  0  0  0  0  0  0  0  0
   39.6302   30.6738   46.1303 N   0  0  0  0  0  0  0  0  0  0  0  0
   38.9801   31.5325   46.9333 C   0  0  0  0  0  0  0  0  0  0  0  0
   39.2667   32.8335   46.9026 N   0  0  0  0  0  0  0  0  0  0  0  0
   34.0500   29.9390   47.4961 S   0  0  0  0  0  0  0  0  0  0  0  0
   33.7478   29.1733   44.4621 Cl  0  0  0  0  0  0  0  0  0  0  0  0
   33.7795   27.9525   45.7271 C   0  0  0  0  0  0  0  0  0  0  0  0
   33.9086   28.1965   47.0839 C   0  0  0  0  0  0  0  0  0  0  0  0
   33.9200   27.1534   47.9791 C   0  0  0  0  0  0  0  0  0  0  0  0
   33.8043   25.8694   47.5398 C   0  0  0  0  0  0  0  0  0  0  0  0
   33.6713   25.5636   46.1813 C   0  0  0  0  0  0  0  0  0  0  0  0
   33.6632   26.6251   45.3120 C   0  0  0  0  0  0  0  0  0  0  0  0
   39.1461   31.2043   49.6314 H   0  0  0  0  0  0  0  0  0  0  0  0
   37.3591   30.4447   51.1294 H   0  0  0  0  0  0  0  0  0  0  0  0
   35.1587   29.8978   50.2114 H   0  0  0  0  0  0  0  0  0  0  0  0
   40.3694   34.3910   46.1208 H   0  0  0  0  0  0  0  0  0  0  0  0
   41.6576   32.9102   44.5722 H   0  0  0  0  0  0  0  0  0  0  0  0
   41.1384   30.4447   44.6069 H   0  0  0  0  0  0  0  0  0  0  0  0
   34.0258   27.4462   49.0233 H   0  0  0  0  0  0  0  0  0  0  0  0
   33.8189   25.0933   48.2784 H   0  0  0  0  0  0  0  0  0  0  0  0
   33.5825   24.5359   45.8747 H   0  0  0  0  0  0  0  0  0  0  0  0
   36.8682   25.4005   44.7124 N   0  0  0  0  0  0  0  0  0  0  0  0
   35.9053   25.5430   44.1060 C   0  0  0  0  0  0  0  0  0  0  0  0
   34.6849   25.7055   43.3505 C   0  0  0  0  0  0  0  0  0  0  0  0
   33.5215   26.2454   43.9046 C   0  0  0  0  0  0  0  0  0  0  0  0
   32.3681   26.3836   43.1395 C   0  0  0  0  0  0  0  0  0  0  0  0
   31.5170   26.8060   43.6361 H   0  0  0  0  0  0  0  0  0  0  0  0
   32.4240   25.9693   41.8272 C   0  0  0  0  0  0  0  0  0  0  0  0
   31.5012   26.0959   41.2681 H   0  0  0  0  0  0  0  0  0  0  0  0
   33.5476   25.4319   41.2387 C   0  0  0  0  0  0  0  0  0  0  0  0
   34.6726   25.3101   42.0282 C   0  0  0  0  0  0  0  0  0  0  0  0
   33.5031   25.1316   40.1976 H   0  0  0  0  0  0  0  0  0  0  0  0
   35.5543   24.8779   41.5319 H   0  0  0  0  0  0  0  0  0  0  0  0
  1  2  1  0
  2  3  2  0
  2  7  1  0
  3  4  1  0
  4  5  2  0
  6  5  1  0
  7  6  2  0
  8 13  2  0
  9 10  2  0
  9  8  1  0
 10 11  1  0
 11 12  2  0
 12  3  1  0
 13 12  1  0
 14  7  1  0
 15 16  1  0
 16 17  2  0
 17 14  1  0
 17 18  1  0
 19 18  2  0
 20 19  1  0
 21 16  1  0
 21 20  2  0
  4 22  1  0
  5 23  1  0
  6 24  1  0
  8 25  1  0
  9 26  1  0
 10 27  1  0
 18 28  1  0
 19 29  1  0
 20 30  1  0
 31 32  3  0
 32 33  1  0
 33 34  2  0
 34 35  1  0
 35 36  1  0
 35 37  2  0
 37 38  1  0
 37 39  1  0
 39 40  2  0
 40 33  1  0
 39 41  1  0
 40 42  1  0
 21 34  1  0
M  ISO  8  22  14  23  14  24  14  25  14  26  14  27  14  28  14  29  14
M  ISO  3  30  14  36  15  38  16
M  END
>  <DihAtoms>  (1) 
15,20,33,32

>  <DihDeg>  (1) 
-90.00021000514832

$$$$
