
 OpenBabel03262523193D

 31 33  0  0  1  0  0  0  0  0999 V2000
   39.4870   32.6800   46.2070 C   0  0  0  0  0  0  0  0  0  0  0  0
   40.4400   31.8150   45.6370 C   0  0  0  0  0  0  0  0  0  0  0  0
   40.0280   30.5430   45.2370 C   0  0  0  0  0  0  0  0  0  0  0  0
   38.7310   30.2050   45.4170 N   0  0  0  0  0  0  0  0  0  0  0  0
   37.8380   31.0330   45.9580 C   0  0  0  0  0  0  0  0  0  0  0  0
   38.2110   32.2710   46.3550 N   0  0  0  0  0  0  0  0  0  0  0  0
   36.4810   30.6240   46.1260 N   0  0  0  0  0  0  0  0  0  0  0  0
   35.6440   30.2100   44.9970 C   0  0  0  0  0  0  0  0  0  0  0  0
   34.4670   29.5470   45.5890 C   0  0  0  0  0  0  0  0  0  0  0  0
   34.7070   29.5030   47.0840 C   0  0  0  0  0  0  0  0  0  0  0  0
   35.7220   30.5560   47.3300 C   0  0  1  0  0  0  0  0  0  0  0  0
   39.7550   33.6650   46.5290 H   0  0  0  0  0  0  0  0  0  0  0  0
   41.4780   32.1440   45.5150 H   0  0  0  0  0  0  0  0  0  0  0  0
   40.7340   29.8520   44.7960 H   0  0  0  0  0  0  0  0  0  0  0  0
   36.2350   29.4680   44.4120 H   0  0  0  0  0  0  0  0  0  0  0  0
   35.3790   31.1060   44.3740 H   0  0  0  0  0  0  0  0  0  0  0  0
   34.3710   28.4780   45.2650 H   0  0  0  0  0  0  0  0  0  0  0  0
   33.5180   30.0690   45.3400 H   0  0  0  0  0  0  0  0  0  0  0  0
   34.9600   28.5020   47.4510 H   0  0  0  0  0  0  0  0  0  0  0  0
   33.7560   29.8000   47.5720 H   0  0  0  0  0  0  0  0  0  0  0  0
   35.1560   31.5510   47.3700 H   0  0  0  0  0  0  0  0  0  0  0  0
   36.2680   29.5010   49.5740 C   0  0  0  0  0  0  0  0  0  0  0  0
   36.4410   30.4480   48.5870 C   0  0  0  0  0  0  0  0  0  0  0  0
   37.4640   31.3470   48.9330 C   0  0  0  0  0  0  0  0  0  0  0  0
   37.6860   32.1500   48.2110 H   0  0  0  0  0  0  0  0  0  0  0  0
   38.2220   31.3290   50.0840 C   0  0  0  0  0  0  0  0  0  0  0  0
   38.9810   32.0830   50.2270 H   0  0  0  0  0  0  0  0  0  0  0  0
   37.9600   30.3330   51.0010 C   0  0  0  0  0  0  0  0  0  0  0  0
   36.9810   29.4140   50.7490 C   0  0  0  0  0  0  0  0  0  0  0  0
   34.4030   27.7560   49.2140 N   0  0  0  0  0  0  0  0  0  0  0  0
   35.2410   28.5270   49.3810 C   0  0  0  0  0  0  0  0  0  0  0  0
  1  6  1  0  0  0  0
  1 12  1  0  0  0  0
  2  1  2  0  0  0  0
  3  4  2  0  0  0  0
  3  2  1  0  0  0  0
  4  5  1  0  0  0  0
  5  7  1  0  0  0  0
  5  6  2  0  0  0  0
  7 11  1  0  0  0  0
  8  9  1  0  0  0  0
  8  7  1  0  0  0  0
  9 10  1  0  0  0  0
 10 11  1  0  0  0  0
 10 19  1  0  0  0  0
 10 20  1  0  0  0  0
 11 21  1  1  0  0  0
 11 23  1  0  0  0  0
 13  2  1  0  0  0  0
 14  3  1  0  0  0  0
 15  8  1  0  0  0  0
 16  8  1  0  0  0  0
 17  9  1  0  0  0  0
 18  9  1  0  0  0  0
 22 29  1  0  0  0  0
 23 24  1  0  0  0  0
 23 22  2  0  0  0  0
 24 26  2  0  0  0  0
 25 24  1  0  0  0  0
 26 27  1  0  0  0  0
 26 28  1  0  0  0  0
 29 28  2  0  0  0  0
 30 31  3  0  0  0  0
 31 22  1  0  0  0  0
M  END
>  <minimizedAffinity>
-6.35269117

>  <minimizedRMSD>
3.09295464

$$$$
