
 OpenBabel03272505113D

 40 43  0  0  0  0  0  0  0  0999 V2000
   34.0650   29.9570   47.5330 S   0  0  0  0  0  0  0  0  0  0  0  0
   36.3980   30.9080   45.7090 Cl  0  0  0  0  0  0  0  0  0  0  0  0
   36.6950   30.7790   47.4220 C   0  0  0  0  0  0  0  0  0  0  0  0
   37.9560   31.1080   47.8790 C   0  0  0  0  0  0  0  0  0  0  0  0
   38.1990   31.0070   49.2440 C   0  0  0  0  0  0  0  0  0  0  0  0
   37.1980   30.5910   50.0870 C   0  0  0  0  0  0  0  0  0  0  0  0
   35.9580   30.2780   49.5620 C   0  0  0  0  0  0  0  0  0  0  0  0
   35.6430   30.3520   48.2280 C   0  0  0  0  0  0  0  0  0  0  0  0
   39.1650   31.2530   49.6390 H   0  0  0  0  0  0  0  0  0  0  0  0
   37.3820   30.5110   51.1510 H   0  0  0  0  0  0  0  0  0  0  0  0
   35.1810   29.9510   50.2450 H   0  0  0  0  0  0  0  0  0  0  0  0
   40.2150   33.3140   46.0700 C   0  0  0  0  0  0  0  0  0  0  0  0
   40.9240   32.4560   45.2010 C   0  0  0  0  0  0  0  0  0  0  0  0
   40.5990   31.0970   45.2610 C   0  0  0  0  0  0  0  0  0  0  0  0
   39.6320   30.6810   46.1350 N   0  0  0  0  0  0  0  0  0  0  0  0
   38.9920   31.5470   46.9380 C   0  0  0  0  0  0  0  0  0  0  0  0
   39.2860   32.8470   46.8990 N   0  0  0  0  0  0  0  0  0  0  0  0
   40.3930   34.3940   46.1030 H   0  0  0  0  0  0  0  0  0  0  0  0
   41.6640   32.8980   44.5540 H   0  0  0  0  0  0  0  0  0  0  0  0
   41.1300   30.4360   44.6050 H   0  0  0  0  0  0  0  0  0  0  0  0
   33.7320   29.1760   44.5060 Cl  0  0  0  0  0  0  0  0  0  0  0  0
   33.7850   27.9620   45.7750 C   0  0  0  0  0  0  0  0  0  0  0  0
   33.9300   28.2120   47.1300 C   0  0  0  0  0  0  0  0  0  0  0  0
   33.9580   27.1720   48.0290 C   0  0  0  0  0  0  0  0  0  0  0  0
   33.8440   25.8860   47.5970 C   0  0  0  0  0  0  0  0  0  0  0  0
   33.6970   25.5740   46.2400 C   0  0  0  0  0  0  0  0  0  0  0  0
   33.6720   26.6310   45.3670 C   0  0  0  0  0  0  0  0  0  0  0  0
   34.0740   27.4700   49.0700 H   0  0  0  0  0  0  0  0  0  0  0  0
   33.8730   25.1130   48.3380 H   0  0  0  0  0  0  0  0  0  0  0  0
   33.6120   24.5440   45.9400 H   0  0  0  0  0  0  0  0  0  0  0  0
   32.1850   26.1610   43.5510 C   0  0  0  0  0  0  0  0  0  0  0  0
   33.5170   26.2450   43.9640 C   0  0  0  0  0  0  0  0  0  0  0  0
   34.5540   25.9740   43.0770 C   0  0  0  0  0  0  0  0  0  0  0  0
   35.5480   26.0600   43.4680 H   0  0  0  0  0  0  0  0  0  0  0  0
   34.2130   25.6250   41.7880 C   0  0  0  0  0  0  0  0  0  0  0  0
   35.0530   25.4230   41.1320 H   0  0  0  0  0  0  0  0  0  0  0  0
   32.9150   25.5290   41.3380 C   0  0  0  0  0  3  0  0  0  0  0  0
   31.9120   25.8050   42.2450 C   0  0  0  0  0  3  0  0  0  0  0  0
   30.1970   26.6630   45.1350 N   0  0  0  0  0  0  0  0  0  0  0  0
   31.0760   26.4320   44.4350 C   0  0  0  0  0  0  0  0  0  0  0  0
  1  8  1  0  0  0  0
  2  3  1  0  0  0  0
  3  4  2  0  0  0  0
  3  8  1  0  0  0  0
  4  5  1  0  0  0  0
  5  9  1  0  0  0  0
  5  6  2  0  0  0  0
  6 10  1  0  0  0  0
  7  6  1  0  0  0  0
  7 11  1  0  0  0  0
  8  7  2  0  0  0  0
 12 18  1  0  0  0  0
 12 17  1  0  0  0  0
 13 14  1  0  0  0  0
 13 12  2  0  0  0  0
 14 15  2  0  0  0  0
 15 16  1  0  0  0  0
 16  4  1  0  0  0  0
 17 16  2  0  0  0  0
 19 13  1  0  0  0  0
 20 14  1  0  0  0  0
 21 22  1  0  0  0  0
 22 23  1  0  0  0  0
 23  1  1  0  0  0  0
 23 24  2  0  0  0  0
 24 28  1  0  0  0  0
 25 24  1  0  0  0  0
 25 29  1  0  0  0  0
 26 25  2  0  0  0  0
 27 22  2  0  0  0  0
 27 26  1  0  0  0  0
 30 26  1  0  0  0  0
 31 32  1  0  0  0  0
 31 40  1  0  0  0  0
 32 27  1  0  0  0  0
 33 34  1  0  0  0  0
 33 32  2  0  0  0  0
 35 33  1  0  0  0  0
 36 35  1  0  0  0  0
 37 35  2  0  0  0  0
 37 38  1  0  0  0  0
 38 31  2  0  0  0  0
 40 39  3  0  0  0  0
M  END
>  <minimizedAffinity>
-5.48787355

>  <minimizedRMSD>
0.0560329147

$$$$
