
 OpenBabel03272505123D

 40 43  0  0  0  0  0  0  0  0999 V2000
   33.9760   29.9410   47.2780 S   0  0  0  0  0  0  0  0  0  0  0  0
   36.3400   30.9410   45.5210 Cl  0  0  0  0  0  0  0  0  0  0  0  0
   36.6290   30.6930   47.2220 C   0  0  0  0  0  0  0  0  0  0  0  0
   37.8980   30.9560   47.7000 C   0  0  0  0  0  0  0  0  0  0  0  0
   38.1350   30.7610   49.0560 C   0  0  0  0  0  0  0  0  0  0  0  0
   37.1200   30.3200   49.8700 C   0  0  0  0  0  0  0  0  0  0  0  0
   35.8730   30.0770   49.3250 C   0  0  0  0  0  0  0  0  0  0  0  0
   35.5640   30.2460   47.9980 C   0  0  0  0  0  0  0  0  0  0  0  0
   39.1060   30.9540   49.4660 H   0  0  0  0  0  0  0  0  0  0  0  0
   37.3000   30.1670   50.9260 H   0  0  0  0  0  0  0  0  0  0  0  0
   35.0850   29.7290   49.9850 H   0  0  0  0  0  0  0  0  0  0  0  0
   40.1690   33.2220   45.9810 C   0  0  0  0  0  0  0  0  0  0  0  0
   40.9060   32.3900   45.1120 C   0  0  0  0  0  0  0  0  0  0  0  0
   40.5950   31.0260   45.1380 C   0  0  0  0  0  0  0  0  0  0  0  0
   39.6150   30.5830   45.9840 N   0  0  0  0  0  0  0  0  0  0  0  0
   38.9480   31.4250   46.7890 C   0  0  0  0  0  0  0  0  0  0  0  0
   39.2280   32.7290   46.7820 N   0  0  0  0  0  0  0  0  0  0  0  0
   40.3330   34.3030   46.0390 H   0  0  0  0  0  0  0  0  0  0  0  0
   41.6540   32.8520   44.4900 H   0  0  0  0  0  0  0  0  0  0  0  0
   41.1480   30.3840   44.4810 H   0  0  0  0  0  0  0  0  0  0  0  0
   32.5960   29.0910   44.5850 Cl  0  0  0  0  0  0  0  0  0  0  0  0
   33.0800   27.9080   45.7920 C   0  0  0  0  0  0  0  0  0  0  0  0
   33.6930   28.1900   47.0010 C   0  0  0  0  0  0  0  0  0  0  0  0
   34.0250   27.1720   47.8650 C   0  0  0  0  0  0  0  0  0  0  0  0
   33.7560   25.8780   47.5390 C   0  0  0  0  0  0  0  0  0  0  0  0
   33.1400   25.5350   46.3300 C   0  0  0  0  0  0  0  0  0  0  0  0
   32.8200   26.5700   45.4890 C   0  0  0  0  0  0  0  0  0  0  0  0
   34.5020   27.4940   48.7900 H   0  0  0  0  0  0  0  0  0  0  0  0
   34.0350   25.1240   48.2460 H   0  0  0  0  0  0  0  0  0  0  0  0
   32.9450   24.5000   46.1100 H   0  0  0  0  0  0  0  0  0  0  0  0
   33.0810   25.8900   43.2070 C   0  0  0  0  0  0  0  0  0  0  0  0
   32.1790   26.1510   44.2410 C   0  0  0  0  0  0  0  0  0  0  0  0
   30.8080   26.0090   44.0410 C   0  0  0  0  0  0  0  0  0  0  0  0
   30.1810   26.2270   44.8830 H   0  0  0  0  0  0  0  0  0  0  0  0
   30.3880   25.6020   42.7940 C   0  0  0  0  0  0  0  0  0  0  0  0
   29.3120   25.5050   42.6840 H   0  0  0  0  0  0  0  0  0  0  0  0
   31.2420   25.3340   41.7470 C   0  0  0  0  0  3  0  0  0  0  0  0
   32.5930   25.4870   41.9810 C   0  0  0  0  0  3  0  0  0  0  0  0
   35.6450   26.1180   43.5030 N   0  0  0  0  0  0  0  0  0  0  0  0
   34.5100   26.0250   43.3680 C   0  0  0  0  0  0  0  0  0  0  0  0
  1  8  1  0  0  0  0
  2  3  1  0  0  0  0
  3  4  2  0  0  0  0
  3  8  1  0  0  0  0
  4  5  1  0  0  0  0
  5  9  1  0  0  0  0
  5  6  2  0  0  0  0
  6 10  1  0  0  0  0
  7  6  1  0  0  0  0
  7 11  1  0  0  0  0
  8  7  2  0  0  0  0
 12 18  1  0  0  0  0
 12 17  1  0  0  0  0
 13 14  1  0  0  0  0
 13 12  2  0  0  0  0
 14 15  2  0  0  0  0
 15 16  1  0  0  0  0
 16  4  1  0  0  0  0
 17 16  2  0  0  0  0
 19 13  1  0  0  0  0
 20 14  1  0  0  0  0
 21 22  1  0  0  0  0
 22 23  1  0  0  0  0
 23  1  1  0  0  0  0
 23 24  2  0  0  0  0
 24 28  1  0  0  0  0
 25 24  1  0  0  0  0
 25 29  1  0  0  0  0
 26 25  2  0  0  0  0
 27 22  2  0  0  0  0
 27 26  1  0  0  0  0
 30 26  1  0  0  0  0
 31 40  1  0  0  0  0
 31 32  1  0  0  0  0
 32 27  1  0  0  0  0
 33 32  2  0  0  0  0
 33 34  1  0  0  0  0
 35 33  1  0  0  0  0
 36 35  1  0  0  0  0
 37 38  1  0  0  0  0
 37 35  2  0  0  0  0
 38 31  2  0  0  0  0
 40 39  3  0  0  0  0
M  END
>  <minimizedAffinity>
-5.2233305

>  <minimizedRMSD>
1.06471157

$$$$
