
 OpenBabel03262521143D

 32 34  0  0  0  0  0  0  0  0999 V2000
   37.5360   25.4300   32.7360 C   0  0  0  0  0  0  0  0  0  0  0  0
   36.4810   25.7510   31.8940 C   0  0  0  0  0  0  0  0  0  0  0  0
   35.9340   24.6240   31.4680 N   0  0  0  0  0  0  0  0  0  0  0  0
   36.5880   23.5720   31.9980 C   0  0  0  0  0  0  0  0  0  0  0  0
   37.5700   24.0680   32.7730 N   0  0  0  0  0  0  0  0  0  0  0  0
   36.2160   26.7880   31.6750 H   0  0  0  0  0  0  0  0  0  0  0  0
   35.1210   24.6130   30.8220 H   0  0  0  0  0  0  0  0  0  0  0  0
   37.0660   21.3110   31.0130 C   0  0  0  0  0  0  0  0  0  0  0  0
   36.2890   22.1640   31.7700 C   0  0  0  0  0  0  0  0  0  0  0  0
   35.1600   21.6080   32.3330 C   0  0  0  0  0  0  0  0  0  0  0  0
   34.4950   22.2120   32.9430 H   0  0  0  0  0  0  0  0  0  0  0  0
   34.8110   20.2740   32.1600 C   0  0  0  0  0  0  0  0  0  0  0  0
   33.9260   19.8390   32.6020 H   0  0  0  0  0  0  0  0  0  0  0  0
   35.6140   19.4540   31.3970 C   0  0  0  0  0  3  0  0  0  0  0  0
   36.7540   19.9810   30.8170 C   0  0  0  0  0  3  0  0  0  0  0  0
   39.2120   22.2470   29.8990 N   0  0  0  0  0  0  0  0  0  0  0  0
   38.2540   21.8380   30.4030 C   0  0  0  0  0  0  0  0  0  0  0  0
   38.4150   26.2740   33.4280 O   0  0  0  0  0  0  0  0  0  0  0  0
   36.9350   27.8500   34.8170 O   0  0  0  0  0  0  0  0  0  0  0  0
   37.9580   26.7360   34.9910 P   0  0  2  0  0  0  0  0  0  0  0  0
   39.3080   27.2960   35.8620 O   0  0  0  0  0  0  0  0  0  0  0  0
   39.7070   26.5220   36.3070 H   0  0  0  0  0  0  0  0  0  0  0  0
   37.3130   25.4130   35.8360 O   0  0  0  0  0  0  0  0  0  0  0  0
   38.1030   24.5640   36.6020 C   0  0  0  0  0  0  0  0  0  0  0  0
   37.8840   24.2130   37.9460 C   0  0  0  0  0  0  0  0  0  0  0  0
   38.7820   23.3520   38.5390 C   0  0  0  0  0  0  0  0  0  0  0  0
   39.8290   22.8740   37.8320 N   0  0  0  0  0  0  0  0  0  0  0  0
   40.0170   23.2310   36.5290 C   0  0  0  0  0  0  0  0  0  0  0  0
   39.1540   24.0780   35.9110 N   0  0  0  0  0  0  0  0  0  0  0  0
   37.0170   24.6620   38.3890 H   0  0  0  0  0  0  0  0  0  0  0  0
   38.5870   23.1010   39.5740 H   0  0  0  0  0  0  0  0  0  0  0  0
   40.8720   22.8220   36.0040 H   0  0  0  0  0  0  0  0  0  0  0  0
  1  5  1  0  0  0  0
  1 18  1  0  0  0  0
  2  1  2  0  0  0  0
  3  2  1  0  0  0  0
  3  4  1  0  0  0  0
  4  5  2  0  0  0  0
  6  2  1  0  0  0  0
  7  3  1  0  0  0  0
  8  9  1  0  0  0  0
  9  4  1  0  0  0  0
  9 10  2  0  0  0  0
 10 11  1  0  0  0  0
 12 10  1  0  0  0  0
 12 13  1  0  0  0  0
 14 12  2  0  0  0  0
 15  8  2  0  0  0  0
 15 14  1  0  0  0  0
 16 17  3  0  0  0  0
 17  8  1  0  0  0  0
 18 20  1  0  0  0  0
 20 19  2  6  0  0  0
 20 23  1  0  0  0  0
 20 21  1  0  0  0  0
 21 22  1  0  0  0  0
 23 24  1  0  0  0  0
 24 25  1  0  0  0  0
 25 30  1  0  0  0  0
 25 26  2  0  0  0  0
 26 31  1  0  0  0  0
 27 26  1  0  0  0  0
 28 27  2  0  0  0  0
 29 28  1  0  0  0  0
 29 24  2  0  0  0  0
 32 28  1  0  0  0  0
M  END
>  <minimizedAffinity>
-5.7181797

$$$$

 OpenBabel03262521143D

 32 34  0  0  0  0  0  0  0  0999 V2000
   38.8810   23.9300   35.4050 C   0  0  0  0  0  0  0  0  0  0  0  0
   39.8120   22.9080   35.2810 C   0  0  0  0  0  0  0  0  0  0  0  0
   39.2900   21.9650   34.5130 N   0  0  0  0  0  0  0  0  0  0  0  0
   38.0510   22.3260   34.1270 C   0  0  0  0  0  0  0  0  0  0  0  0
   37.8020   23.5300   34.6760 N   0  0  0  0  0  0  0  0  0  0  0  0
   40.7880   22.9580   35.7680 H   0  0  0  0  0  0  0  0  0  0  0  0
   39.8070   21.0960   34.2770 H   0  0  0  0  0  0  0  0  0  0  0  0
   36.0580   20.8480   33.7340 C   0  0  0  0  0  0  0  0  0  0  0  0
   37.1510   21.5570   33.2780 C   0  0  0  0  0  0  0  0  0  0  0  0
   37.3740   21.5070   31.9170 C   0  0  0  0  0  0  0  0  0  0  0  0
   38.2130   22.0380   31.4790 H   0  0  0  0  0  0  0  0  0  0  0  0
   36.5590   20.7940   31.0460 C   0  0  0  0  0  0  0  0  0  0  0  0
   36.7340   20.7570   29.9810 H   0  0  0  0  0  0  0  0  0  0  0  0
   35.4760   20.1000   31.5420 C   0  0  0  0  0  3  0  0  0  0  0  0
   35.2250   20.1280   32.9020 C   0  0  0  0  0  3  0  0  0  0  0  0
   35.5410   20.8640   36.2750 N   0  0  0  0  0  0  0  0  0  0  0  0
   35.7800   20.8650   35.1420 C   0  0  0  0  0  0  0  0  0  0  0  0
   38.9690   25.1360   36.1140 O   0  0  0  0  0  0  0  0  0  0  0  0
   39.8350   26.6560   34.2320 O   0  0  0  0  0  0  0  0  0  0  0  0
   38.6950   26.5570   35.2380 P   0  0  2  0  0  0  0  0  0  0  0  0
   38.6980   27.9050   36.2770 O   0  0  0  0  0  0  0  0  0  0  0  0
   37.7810   28.0310   36.5900 H   0  0  0  0  0  0  0  0  0  0  0  0
   37.1820   26.5010   34.4720 O   0  0  0  0  0  0  0  0  0  0  0  0
   36.6950   27.5570   33.7110 C   0  0  0  0  0  0  0  0  0  0  0  0
   36.6720   27.6280   32.3060 C   0  0  0  0  0  0  0  0  0  0  0  0
   36.1460   28.7640   31.7300 C   0  0  0  0  0  0  0  0  0  0  0  0
   35.6740   29.7620   32.5080 N   0  0  0  0  0  0  0  0  0  0  0  0
   35.7080   29.6670   33.8680 C   0  0  0  0  0  0  0  0  0  0  0  0
   36.2190   28.5630   34.4730 N   0  0  0  0  0  0  0  0  0  0  0  0
   37.0770   26.7690   31.8100 H   0  0  0  0  0  0  0  0  0  0  0  0
   36.1430   28.7890   30.6470 H   0  0  0  0  0  0  0  0  0  0  0  0
   35.3170   30.4930   34.4490 H   0  0  0  0  0  0  0  0  0  0  0  0
  1 18  1  0  0  0  0
  2  1  2  0  0  0  0
  2  6  1  0  0  0  0
  3  2  1  0  0  0  0
  4  3  1  0  0  0  0
  4  5  2  0  0  0  0
  5  1  1  0  0  0  0
  7  3  1  0  0  0  0
  8 17  1  0  0  0  0
  9  8  1  0  0  0  0
  9  4  1  0  0  0  0
 10  9  2  0  0  0  0
 11 10  1  0  0  0  0
 12 14  2  0  0  0  0
 12 10  1  0  0  0  0
 13 12  1  0  0  0  0
 14 15  1  0  0  0  0
 15  8  2  0  0  0  0
 17 16  3  0  0  0  0
 20 19  2  6  0  0  0
 20 18  1  0  0  0  0
 20 21  1  0  0  0  0
 21 22  1  0  0  0  0
 23 20  1  0  0  0  0
 24 23  1  0  0  0  0
 24 29  1  0  0  0  0
 25 24  2  0  0  0  0
 26 25  1  0  0  0  0
 26 27  2  0  0  0  0
 27 28  1  0  0  0  0
 28 32  1  0  0  0  0
 28 29  2  0  0  0  0
 30 25  1  0  0  0  0
 31 26  1  0  0  0  0
M  END
>  <minimizedAffinity>
-5.37407827

$$$$

 OpenBabel03262521143D

 32 34  0  0  0  0  0  0  0  0999 V2000
   37.0070   27.1660   34.1100 C   0  0  0  0  0  0  0  0  0  0  0  0
   37.5350   28.0290   35.0590 C   0  0  0  0  0  0  0  0  0  0  0  0
   38.1440   27.3050   35.9840 N   0  0  0  0  0  0  0  0  0  0  0  0
   38.0370   25.9960   35.6800 C   0  0  0  0  0  0  0  0  0  0  0  0
   37.3390   25.9140   34.5320 N   0  0  0  0  0  0  0  0  0  0  0  0
   37.4210   29.1120   34.9770 H   0  0  0  0  0  0  0  0  0  0  0  0
   38.6190   27.7360   36.8010 H   0  0  0  0  0  0  0  0  0  0  0  0
   39.5980   24.0590   36.0280 C   0  0  0  0  0  0  0  0  0  0  0  0
   38.5750   24.8830   36.4510 C   0  0  0  0  0  0  0  0  0  0  0  0
   38.0500   24.5990   37.6950 C   0  0  0  0  0  0  0  0  0  0  0  0
   37.2420   25.2000   38.1000 H   0  0  0  0  0  0  0  0  0  0  0  0
   38.5120   23.5530   38.4860 C   0  0  0  0  0  0  0  0  0  0  0  0
   38.1010   23.3330   39.4600 H   0  0  0  0  0  0  0  0  0  0  0  0
   39.5370   22.7550   38.0270 C   0  0  0  0  0  3  0  0  0  0  0  0
   40.0850   23.0120   36.7840 C   0  0  0  0  0  3  0  0  0  0  0  0
   40.6400   24.5290   33.7010 N   0  0  0  0  0  0  0  0  0  0  0  0
   40.1810   24.3100   34.7400 C   0  0  0  0  0  0  0  0  0  0  0  0
   36.2780   27.4540   32.9480 O   0  0  0  0  0  0  0  0  0  0  0  0
   37.8560   28.4930   31.2070 O   0  0  0  0  0  0  0  0  0  0  0  0
   37.0700   27.2160   31.4720 P   0  0  2  0  0  0  0  0  0  0  0  0
   35.9400   26.9420   30.2300 O   0  0  0  0  0  0  0  0  0  0  0  0
   35.7780   25.9790   30.1930 H   0  0  0  0  0  0  0  0  0  0  0  0
   38.0840   25.8570   31.5540 O   0  0  0  0  0  0  0  0  0  0  0  0
   37.6100   24.5650   31.3620 C   0  0  0  0  0  0  0  0  0  0  0  0
   38.3810   23.4380   31.0240 C   0  0  0  0  0  0  0  0  0  0  0  0
   37.7280   22.2340   30.8760 C   0  0  0  0  0  0  0  0  0  0  0  0
   36.3910   22.1620   31.0560 N   0  0  0  0  0  0  0  0  0  0  0  0
   35.6670   23.2710   31.3840 C   0  0  0  0  0  0  0  0  0  0  0  0
   36.2760   24.4750   31.5380 N   0  0  0  0  0  0  0  0  0  0  0  0
   39.4290   23.6330   30.9110 H   0  0  0  0  0  0  0  0  0  0  0  0
   38.3480   21.3850   30.6150 H   0  0  0  0  0  0  0  0  0  0  0  0
   34.5970   23.1630   31.5180 H   0  0  0  0  0  0  0  0  0  0  0  0
  1  5  1  0  0  0  0
  1  2  2  0  0  0  0
  2  3  1  0  0  0  0
  3  7  1  0  0  0  0
  4  3  1  0  0  0  0
  4  9  1  0  0  0  0
  5  4  2  0  0  0  0
  6  2  1  0  0  0  0
  8  9  2  0  0  0  0
  8 15  1  0  0  0  0
  9 10  1  0  0  0  0
 10 11  1  0  0  0  0
 10 12  2  0  0  0  0
 12 13  1  0  0  0  0
 14 12  1  0  0  0  0
 15 14  2  0  0  0  0
 16 17  3  0  0  0  0
 17  8  1  0  0  0  0
 18  1  1  0  0  0  0
 20 19  2  6  0  0  0
 20 23  1  0  0  0  0
 20 18  1  0  0  0  0
 21 20  1  0  0  0  0
 22 21  1  0  0  0  0
 24 29  1  0  0  0  0
 24 23  1  0  0  0  0
 25 24  2  0  0  0  0
 26 25  1  0  0  0  0
 26 27  2  0  0  0  0
 27 28  1  0  0  0  0
 28 32  1  0  0  0  0
 28 29  2  0  0  0  0
 30 25  1  0  0  0  0
 31 26  1  0  0  0  0
M  END
>  <minimizedAffinity>
-5.34614801

$$$$

 OpenBabel03262521143D

 32 34  0  0  0  0  0  0  0  0999 V2000
   37.4870   26.6300   32.1350 C   0  0  0  0  0  0  0  0  0  0  0  0
   36.4410   26.2260   31.3180 C   0  0  0  0  0  0  0  0  0  0  0  0
   36.1750   27.2060   30.4700 N   0  0  0  0  0  0  0  0  0  0  0  0
   37.0060   28.2420   30.6980 C   0  0  0  0  0  0  0  0  0  0  0  0
   37.8080   27.8870   31.7190 N   0  0  0  0  0  0  0  0  0  0  0  0
   35.9750   25.2430   31.4250 H   0  0  0  0  0  0  0  0  0  0  0  0
   35.4250   27.1310   29.7550 H   0  0  0  0  0  0  0  0  0  0  0  0
   37.7360   29.7320   28.8110 C   0  0  0  0  0  0  0  0  0  0  0  0
   37.0290   29.5070   29.9750 C   0  0  0  0  0  0  0  0  0  0  0  0
   36.3090   30.5800   30.4570 C   0  0  0  0  0  0  0  0  0  0  0  0
   35.7260   30.4860   31.3690 H   0  0  0  0  0  0  0  0  0  0  0  0
   36.2830   31.8170   29.8220 C   0  0  0  0  0  0  0  0  0  0  0  0
   35.7180   32.6560   30.2000 H   0  0  0  0  0  0  0  0  0  0  0  0
   37.0020   31.9990   28.6600 C   0  0  0  0  0  3  0  0  0  0  0  0
   37.7360   30.9430   28.1510 C   0  0  0  0  0  3  0  0  0  0  0  0
   39.1050   27.7620   27.8260 N   0  0  0  0  0  0  0  0  0  0  0  0
   38.5030   28.6480   28.2650 C   0  0  0  0  0  0  0  0  0  0  0  0
   38.1190   25.9440   33.1800 O   0  0  0  0  0  0  0  0  0  0  0  0
   36.9370   27.7330   34.5960 O   0  0  0  0  0  0  0  0  0  0  0  0
   37.8990   26.5610   34.7410 P   0  0  2  0  0  0  0  0  0  0  0  0
   39.3830   27.0830   35.3880 O   0  0  0  0  0  0  0  0  0  0  0  0
   39.7840   26.3190   35.8470 H   0  0  0  0  0  0  0  0  0  0  0  0
   37.2810   25.3620   35.7720 O   0  0  0  0  0  0  0  0  0  0  0  0
   38.1050   24.5300   36.5200 C   0  0  0  0  0  0  0  0  0  0  0  0
   37.9430   24.2040   37.8790 C   0  0  0  0  0  0  0  0  0  0  0  0
   38.8680   23.3570   38.4500 C   0  0  0  0  0  0  0  0  0  0  0  0
   39.8860   22.8680   37.7100 N   0  0  0  0  0  0  0  0  0  0  0  0
   40.0190   23.2000   36.3930 C   0  0  0  0  0  0  0  0  0  0  0  0
   39.1280   24.0330   35.7960 N   0  0  0  0  0  0  0  0  0  0  0  0
   37.0940   24.6590   38.3480 H   0  0  0  0  0  0  0  0  0  0  0  0
   38.7170   23.1250   39.4970 H   0  0  0  0  0  0  0  0  0  0  0  0
   40.8530   22.7830   35.8410 H   0  0  0  0  0  0  0  0  0  0  0  0
  1 18  1  0  0  0  0
  2  6  1  0  0  0  0
  2  1  2  0  0  0  0
  3  4  1  0  0  0  0
  3  2  1  0  0  0  0
  4  5  2  0  0  0  0
  5  1  1  0  0  0  0
  7  3  1  0  0  0  0
  8  9  1  0  0  0  0
  9 10  2  0  0  0  0
  9  4  1  0  0  0  0
 10 11  1  0  0  0  0
 12 13  1  0  0  0  0
 12 10  1  0  0  0  0
 14 12  2  0  0  0  0
 15 14  1  0  0  0  0
 15  8  2  0  0  0  0
 16 17  3  0  0  0  0
 17  8  1  0  0  0  0
 18 20  1  0  0  0  0
 20 19  2  6  0  0  0
 20 21  1  0  0  0  0
 20 23  1  0  0  0  0
 21 22  1  0  0  0  0
 23 24  1  0  0  0  0
 24 25  1  0  0  0  0
 25 30  1  0  0  0  0
 25 26  2  0  0  0  0
 26 31  1  0  0  0  0
 27 26  1  0  0  0  0
 28 27  2  0  0  0  0
 29 28  1  0  0  0  0
 29 24  2  0  0  0  0
 32 28  1  0  0  0  0
M  END
>  <minimizedAffinity>
-5.22305012

$$$$

 OpenBabel03262521143D

 32 34  0  0  0  0  0  0  0  0999 V2000
   37.8720   24.1290   32.5470 C   0  0  0  0  0  0  0  0  0  0  0  0
   36.5770   24.4410   32.1590 C   0  0  0  0  0  0  0  0  0  0  0  0
   35.9320   23.3090   31.9260 N   0  0  0  0  0  0  0  0  0  0  0  0
   36.7530   22.2640   32.1450 C   0  0  0  0  0  0  0  0  0  0  0  0
   37.9410   22.7690   32.5250 N   0  0  0  0  0  0  0  0  0  0  0  0
   36.2320   25.4750   32.0870 H   0  0  0  0  0  0  0  0  0  0  0  0
   34.9390   23.2910   31.6210 H   0  0  0  0  0  0  0  0  0  0  0  0
   35.9390   20.0510   33.0130 C   0  0  0  0  0  0  0  0  0  0  0  0
   36.4160   20.8540   31.9960 C   0  0  0  0  0  0  0  0  0  0  0  0
   36.5730   20.2410   30.7700 C   0  0  0  0  0  0  0  0  0  0  0  0
   36.9450   20.8030   29.9190 H   0  0  0  0  0  0  0  0  0  0  0  0
   36.2740   18.9010   30.5540 C   0  0  0  0  0  0  0  0  0  0  0  0
   36.3960   18.4230   29.5930 H   0  0  0  0  0  0  0  0  0  0  0  0
   35.7980   18.1340   31.5950 C   0  0  0  0  0  3  0  0  0  0  0  0
   35.6290   18.7180   32.8380 C   0  0  0  0  0  3  0  0  0  0  0  0
   35.6280   21.1190   35.3540 N   0  0  0  0  0  0  0  0  0  0  0  0
   35.7560   20.6380   34.3100 C   0  0  0  0  0  0  0  0  0  0  0  0
   38.9280   24.9810   32.8970 O   0  0  0  0  0  0  0  0  0  0  0  0
   37.9880   27.2110   33.7610 O   0  0  0  0  0  0  0  0  0  0  0  0
   38.6990   25.9600   34.2590 P   0  0  2  0  0  0  0  0  0  0  0  0
   40.1970   26.3630   34.9580 O   0  0  0  0  0  0  0  0  0  0  0  0
   40.4100   25.6670   35.6100 H   0  0  0  0  0  0  0  0  0  0  0  0
   37.7870   25.1410   35.4330 O   0  0  0  0  0  0  0  0  0  0  0  0
   38.3770   24.3700   36.4270 C   0  0  0  0  0  0  0  0  0  0  0  0
   37.9050   24.2040   37.7410 C   0  0  0  0  0  0  0  0  0  0  0  0
   38.6310   23.3940   38.5870 C   0  0  0  0  0  0  0  0  0  0  0  0
   39.7550   22.7890   38.1450 N   0  0  0  0  0  0  0  0  0  0  0  0
   40.1910   22.9670   36.8650 C   0  0  0  0  0  0  0  0  0  0  0  0
   39.5020   23.7580   36.0030 N   0  0  0  0  0  0  0  0  0  0  0  0
   37.0020   24.7390   37.9610 H   0  0  0  0  0  0  0  0  0  0  0  0
   38.2420   23.2860   39.5920 H   0  0  0  0  0  0  0  0  0  0  0  0
   41.0980   22.4610   36.5580 H   0  0  0  0  0  0  0  0  0  0  0  0
  1 18  1  0  0  0  0
  2  1  2  0  0  0  0
  3  4  1  0  0  0  0
  3  2  1  0  0  0  0
  4  5  2  0  0  0  0
  5  1  1  0  0  0  0
  6  2  1  0  0  0  0
  7  3  1  0  0  0  0
  8 17  1  0  0  0  0
  9  4  1  0  0  0  0
  9  8  2  0  0  0  0
 10  9  1  0  0  0  0
 11 10  1  0  0  0  0
 12 10  2  0  0  0  0
 12 14  1  0  0  0  0
 13 12  1  0  0  0  0
 14 15  2  0  0  0  0
 15  8  1  0  0  0  0
 17 16  3  0  0  0  0
 18 20  1  0  0  0  0
 20 19  2  6  0  0  0
 20 21  1  0  0  0  0
 20 23  1  0  0  0  0
 21 22  1  0  0  0  0
 23 24  1  0  0  0  0
 24 25  1  0  0  0  0
 25 30  1  0  0  0  0
 25 26  2  0  0  0  0
 26 31  1  0  0  0  0
 27 26  1  0  0  0  0
 28 27  2  0  0  0  0
 29 24  2  0  0  0  0
 29 28  1  0  0  0  0
 32 28  1  0  0  0  0
M  END
>  <minimizedAffinity>
-5.16858339

$$$$

 OpenBabel03262521143D

 32 34  0  0  0  0  0  0  0  0999 V2000
   37.8640   25.6040   35.8680 C   0  0  0  0  0  0  0  0  0  0  0  0
   38.4390   26.7440   36.4120 C   0  0  0  0  0  0  0  0  0  0  0  0
   38.0480   27.7860   35.6970 N   0  0  0  0  0  0  0  0  0  0  0  0
   37.2380   27.3770   34.7020 C   0  0  0  0  0  0  0  0  0  0  0  0
   37.1270   26.0400   34.8080 N   0  0  0  0  0  0  0  0  0  0  0  0
   39.0910   26.6960   37.2870 H   0  0  0  0  0  0  0  0  0  0  0  0
   38.3520   28.7540   35.9180 H   0  0  0  0  0  0  0  0  0  0  0  0
   36.9810   28.2850   32.3730 C   0  0  0  0  0  0  0  0  0  0  0  0
   36.6030   28.2230   33.7000 C   0  0  0  0  0  0  0  0  0  0  0  0
   35.5490   29.0360   34.0620 C   0  0  0  0  0  0  0  0  0  0  0  0
   35.1920   29.0460   35.0870 H   0  0  0  0  0  0  0  0  0  0  0  0
   34.8960   29.8690   33.1620 C   0  0  0  0  0  0  0  0  0  0  0  0
   34.0700   30.5040   33.4470 H   0  0  0  0  0  0  0  0  0  0  0  0
   35.3030   29.9000   31.8460 C   0  0  0  0  0  3  0  0  0  0  0  0
   36.3580   29.0980   31.4490 C   0  0  0  0  0  3  0  0  0  0  0  0
   38.9400   26.7790   31.5860 N   0  0  0  0  0  0  0  0  0  0  0  0
   38.0730   27.4590   31.9410 C   0  0  0  0  0  0  0  0  0  0  0  0
   37.9790   24.2670   36.2720 O   0  0  0  0  0  0  0  0  0  0  0  0
   40.1940   22.9890   36.5210 O   0  0  0  0  0  0  0  0  0  0  0  0
   39.1390   23.3270   35.4760 P   0  0  2  0  0  0  0  0  0  0  0  0
   39.8320   24.2010   34.1910 O   0  0  0  0  0  0  0  0  0  0  0  0
   39.2860   24.0320   33.3980 H   0  0  0  0  0  0  0  0  0  0  0  0
   38.4280   21.9310   34.8240 O   0  0  0  0  0  0  0  0  0  0  0  0
   37.4150   21.9880   33.8740 C   0  0  0  0  0  0  0  0  0  0  0  0
   36.3450   21.0850   33.7440 C   0  0  0  0  0  0  0  0  0  0  0  0
   35.4350   21.3090   32.7340 C   0  0  0  0  0  0  0  0  0  0  0  0
   35.5860   22.3680   31.9090 N   0  0  0  0  0  0  0  0  0  0  0  0
   36.6340   23.2280   32.0570 C   0  0  0  0  0  0  0  0  0  0  0  0
   37.5510   23.0400   33.0410 N   0  0  0  0  0  0  0  0  0  0  0  0
   36.3430   20.2900   34.4630 H   0  0  0  0  0  0  0  0  0  0  0  0
   34.6230   20.5960   32.6590 H   0  0  0  0  0  0  0  0  0  0  0  0
   36.7120   24.0630   31.3710 H   0  0  0  0  0  0  0  0  0  0  0  0
  1 18  1  0  0  0  0
  1  2  2  0  0  0  0
  2  6  1  0  0  0  0
  3  7  1  0  0  0  0
  3  2  1  0  0  0  0
  4  5  2  0  0  0  0
  4  3  1  0  0  0  0
  5  1  1  0  0  0  0
  8  9  1  0  0  0  0
  9 10  2  0  0  0  0
  9  4  1  0  0  0  0
 10 11  1  0  0  0  0
 12 13  1  0  0  0  0
 12 10  1  0  0  0  0
 14 12  2  0  0  0  0
 15 14  1  0  0  0  0
 15  8  2  0  0  0  0
 16 17  3  0  0  0  0
 17  8  1  0  0  0  0
 20 18  1  0  0  0  0
 20 19  2  1  0  0  0
 21 20  1  0  0  0  0
 22 21  1  0  0  0  0
 23 20  1  0  0  0  0
 24 23  1  0  0  0  0
 25 24  1  0  0  0  0
 25 30  1  0  0  0  0
 26 25  2  0  0  0  0
 27 28  2  0  0  0  0
 27 26  1  0  0  0  0
 28 29  1  0  0  0  0
 29 24  2  0  0  0  0
 31 26  1  0  0  0  0
 32 28  1  0  0  0  0
M  END
>  <minimizedAffinity>
-5.16631937

$$$$

 OpenBabel03262521143D

 32 34  0  0  0  0  0  0  0  0999 V2000
   36.5640   27.9450   32.6980 C   0  0  0  0  0  0  0  0  0  0  0  0
   36.3680   29.0020   31.8200 C   0  0  0  0  0  0  0  0  0  0  0  0
   35.8110   29.9970   32.4900 N   0  0  0  0  0  0  0  0  0  0  0  0
   35.6300   29.6370   33.7750 C   0  0  0  0  0  0  0  0  0  0  0  0
   36.0910   28.3790   33.9000 N   0  0  0  0  0  0  0  0  0  0  0  0
   36.6590   28.9370   30.7690 H   0  0  0  0  0  0  0  0  0  0  0  0
   35.5700   30.9010   32.0380 H   0  0  0  0  0  0  0  0  0  0  0  0
   33.6970   30.5010   35.1270 C   0  0  0  0  0  0  0  0  0  0  0  0
   35.0440   30.4550   34.8290 C   0  0  0  0  0  0  0  0  0  0  0  0
   35.8590   31.2540   35.6040 C   0  0  0  0  0  0  0  0  0  0  0  0
   36.9310   31.2750   35.4320 H   0  0  0  0  0  0  0  0  0  0  0  0
   35.3710   32.0610   36.6260 C   0  0  0  0  0  0  0  0  0  0  0  0
   36.0110   32.6850   37.2320 H   0  0  0  0  0  0  0  0  0  0  0  0
   34.0190   32.0770   36.8920 C   0  0  0  0  0  3  0  0  0  0  0  0
   33.1740   31.2880   36.1340 C   0  0  0  0  0  3  0  0  0  0  0  0
   32.0810   29.0490   33.7130 N   0  0  0  0  0  0  0  0  0  0  0  0
   32.8030   29.6890   34.3520 C   0  0  0  0  0  0  0  0  0  0  0  0
   37.1180   26.6800   32.4620 O   0  0  0  0  0  0  0  0  0  0  0  0
   39.4360   27.6150   31.8660 O   0  0  0  0  0  0  0  0  0  0  0  0
   38.7860   26.5200   32.7020 P   0  0  2  0  0  0  0  0  0  0  0  0
   39.3150   24.9860   32.1920 O   0  0  0  0  0  0  0  0  0  0  0  0
   39.2410   24.3850   32.9580 H   0  0  0  0  0  0  0  0  0  0  0  0
   39.1660   26.6750   34.3490 O   0  0  0  0  0  0  0  0  0  0  0  0
   39.0060   25.6280   35.2490 C   0  0  0  0  0  0  0  0  0  0  0  0
   37.9530   25.4780   36.1700 C   0  0  0  0  0  0  0  0  0  0  0  0
   37.9670   24.3660   36.9840 C   0  0  0  0  0  0  0  0  0  0  0  0
   38.9680   23.4650   36.8820 N   0  0  0  0  0  0  0  0  0  0  0  0
   39.9760   23.6350   35.9800 C   0  0  0  0  0  0  0  0  0  0  0  0
   39.9970   24.7180   35.1610 N   0  0  0  0  0  0  0  0  0  0  0  0
   37.2250   26.2640   36.1470 H   0  0  0  0  0  0  0  0  0  0  0  0
   37.1440   24.2780   37.6830 H   0  0  0  0  0  0  0  0  0  0  0  0
   40.7570   22.8850   35.9360 H   0  0  0  0  0  0  0  0  0  0  0  0
  1  5  1  0  0  0  0
  2  3  1  0  0  0  0
  2  1  2  0  0  0  0
  3  4  1  0  0  0  0
  4  5  2  0  0  0  0
  4  9  1  0  0  0  0
  6  2  1  0  0  0  0
  7  3  1  0  0  0  0
  8 15  1  0  0  0  0
  9  8  2  0  0  0  0
  9 10  1  0  0  0  0
 10 12  2  0  0  0  0
 11 10  1  0  0  0  0
 12 14  1  0  0  0  0
 12 13  1  0  0  0  0
 15 14  2  0  0  0  0
 16 17  3  0  0  0  0
 17  8  1  0  0  0  0
 18  1  1  0  0  0  0
 18 20  1  0  0  0  0
 20 19  2  6  0  0  0
 20 23  1  0  0  0  0
 21 20  1  0  0  0  0
 21 22  1  0  0  0  0
 23 24  1  0  0  0  0
 24 25  1  0  0  0  0
 25 26  2  0  0  0  0
 26 31  1  0  0  0  0
 27 26  1  0  0  0  0
 28 27  2  0  0  0  0
 29 24  2  0  0  0  0
 29 28  1  0  0  0  0
 30 25  1  0  0  0  0
 32 28  1  0  0  0  0
M  END
>  <minimizedAffinity>
-5.162076

$$$$

 OpenBabel03262521143D

 32 34  0  0  0  0  0  0  0  0999 V2000
   37.8150   25.6200   35.9060 C   0  0  0  0  0  0  0  0  0  0  0  0
   38.4670   26.7970   36.2460 C   0  0  0  0  0  0  0  0  0  0  0  0
   38.4720   27.5880   35.1850 N   0  0  0  0  0  0  0  0  0  0  0  0
   37.8490   26.9770   34.1590 C   0  0  0  0  0  0  0  0  0  0  0  0
   37.4480   25.7710   34.6030 N   0  0  0  0  0  0  0  0  0  0  0  0
   38.8760   26.9600   37.2460 H   0  0  0  0  0  0  0  0  0  0  0  0
   38.9070   28.5310   35.2000 H   0  0  0  0  0  0  0  0  0  0  0  0
   36.6500   28.4100   32.4780 C   0  0  0  0  0  0  0  0  0  0  0  0
   37.6490   27.5200   32.8210 C   0  0  0  0  0  0  0  0  0  0  0  0
   38.4930   27.1410   31.7990 C   0  0  0  0  0  0  0  0  0  0  0  0
   39.3040   26.4440   31.9860 H   0  0  0  0  0  0  0  0  0  0  0  0
   38.3630   27.6170   30.4990 C   0  0  0  0  0  0  0  0  0  0  0  0
   39.0270   27.3210   29.7000 H   0  0  0  0  0  0  0  0  0  0  0  0
   37.3540   28.5060   30.1990 C   0  0  0  0  0  3  0  0  0  0  0  0
   36.4890   28.9050   31.2010 C   0  0  0  0  0  3  0  0  0  0  0  0
   34.9950   29.1780   34.3190 N   0  0  0  0  0  0  0  0  0  0  0  0
   35.7420   28.8370   33.5050 C   0  0  0  0  0  0  0  0  0  0  0  0
   37.5590   24.4850   36.6860 O   0  0  0  0  0  0  0  0  0  0  0  0
   37.3910   22.0430   35.9030 O   0  0  0  0  0  0  0  0  0  0  0  0
   38.4280   23.0840   36.3030 P   0  0  2  0  0  0  0  0  0  0  0  0
   39.3200   22.5510   37.6500 O   0  0  0  0  0  0  0  0  0  0  0  0
   40.1920   22.9900   37.6130 H   0  0  0  0  0  0  0  0  0  0  0  0
   39.5280   23.3920   35.0470 O   0  0  0  0  0  0  0  0  0  0  0  0
   40.8250   23.8300   35.2870 C   0  0  0  0  0  0  0  0  0  0  0  0
   41.3810   25.0510   34.8660 C   0  0  0  0  0  0  0  0  0  0  0  0
   42.6920   25.3080   35.2030 C   0  0  0  0  0  0  0  0  0  0  0  0
   43.4000   24.4030   35.9130 N   0  0  0  0  0  0  0  0  0  0  0  0
   42.8350   23.2260   36.3090 C   0  0  0  0  0  0  0  0  0  0  0  0
   41.5460   22.9370   35.9960 N   0  0  0  0  0  0  0  0  0  0  0  0
   40.7120   25.6780   34.3110 H   0  0  0  0  0  0  0  0  0  0  0  0
   43.0930   26.2560   34.8650 H   0  0  0  0  0  0  0  0  0  0  0  0
   43.4430   22.5320   36.8770 H   0  0  0  0  0  0  0  0  0  0  0  0
  1  2  2  0  0  0  0
  1 18  1  0  0  0  0
  2  6  1  0  0  0  0
  3  7  1  0  0  0  0
  3  2  1  0  0  0  0
  4  5  2  0  0  0  0
  4  3  1  0  0  0  0
  5  1  1  0  0  0  0
  8  9  1  0  0  0  0
  8 17  1  0  0  0  0
  9  4  1  0  0  0  0
 10 11  1  0  0  0  0
 10  9  2  0  0  0  0
 12 10  1  0  0  0  0
 13 12  1  0  0  0  0
 14 12  2  0  0  0  0
 14 15  1  0  0  0  0
 15  8  2  0  0  0  0
 17 16  3  0  0  0  0
 20 19  2  6  0  0  0
 20 18  1  0  0  0  0
 20 21  1  0  0  0  0
 22 21  1  0  0  0  0
 23 24  1  0  0  0  0
 23 20  1  0  0  0  0
 24 29  1  0  0  0  0
 25 26  1  0  0  0  0
 25 24  2  0  0  0  0
 26 27  2  0  0  0  0
 27 28  1  0  0  0  0
 28 32  1  0  0  0  0
 29 28  2  0  0  0  0
 30 25  1  0  0  0  0
 31 26  1  0  0  0  0
M  END
>  <minimizedAffinity>
-5.13041306

$$$$

 OpenBabel03262521143D

 32 34  0  0  0  0  0  0  0  0999 V2000
   37.8090   25.5730   35.6800 C   0  0  0  0  0  0  0  0  0  0  0  0
   38.3490   26.7690   36.1320 C   0  0  0  0  0  0  0  0  0  0  0  0
   38.3030   27.6440   35.1400 N   0  0  0  0  0  0  0  0  0  0  0  0
   37.7550   27.0690   34.0510 C   0  0  0  0  0  0  0  0  0  0  0  0
   37.4540   25.8010   34.3850 N   0  0  0  0  0  0  0  0  0  0  0  0
   38.7230   26.8820   37.1520 H   0  0  0  0  0  0  0  0  0  0  0  0
   38.6540   28.6160   35.2430 H   0  0  0  0  0  0  0  0  0  0  0  0
   36.5150   28.5960   32.4890 C   0  0  0  0  0  0  0  0  0  0  0  0
   37.5330   27.7030   32.7580 C   0  0  0  0  0  0  0  0  0  0  0  0
   38.3740   27.4150   31.7040 C   0  0  0  0  0  0  0  0  0  0  0  0
   39.1990   26.7210   31.8340 H   0  0  0  0  0  0  0  0  0  0  0  0
   38.2240   27.9810   30.4440 C   0  0  0  0  0  0  0  0  0  0  0  0
   38.8840   27.7550   29.6190 H   0  0  0  0  0  0  0  0  0  0  0  0
   37.1950   28.8700   30.2160 C   0  0  0  0  0  3  0  0  0  0  0  0
   36.3330   29.1800   31.2510 C   0  0  0  0  0  3  0  0  0  0  0  0
   34.8710   29.2180   34.3950 N   0  0  0  0  0  0  0  0  0  0  0  0
   35.6100   28.9320   33.5500 C   0  0  0  0  0  0  0  0  0  0  0  0
   37.6400   24.3580   36.3580 O   0  0  0  0  0  0  0  0  0  0  0  0
   39.5290   22.9110   37.3290 O   0  0  0  0  0  0  0  0  0  0  0  0
   38.7660   23.1380   36.0300 P   0  0  2  0  0  0  0  0  0  0  0  0
   39.8270   23.6270   34.7930 O   0  0  0  0  0  0  0  0  0  0  0  0
   39.4260   23.3580   33.9440 H   0  0  0  0  0  0  0  0  0  0  0  0
   37.9800   21.7290   35.5060 O   0  0  0  0  0  0  0  0  0  0  0  0
   37.1790   21.7040   34.3700 C   0  0  0  0  0  0  0  0  0  0  0  0
   36.0270   20.9200   34.1820 C   0  0  0  0  0  0  0  0  0  0  0  0
   35.3630   21.0340   32.9800 C   0  0  0  0  0  0  0  0  0  0  0  0
   35.8210   21.8770   32.0300 N   0  0  0  0  0  0  0  0  0  0  0  0
   36.9420   22.6260   32.2390 C   0  0  0  0  0  0  0  0  0  0  0  0
   37.6240   22.5410   33.4100 N   0  0  0  0  0  0  0  0  0  0  0  0
   35.7730   20.2950   35.0140 H   0  0  0  0  0  0  0  0  0  0  0  0
   34.4800   20.4170   32.8650 H   0  0  0  0  0  0  0  0  0  0  0  0
   37.2700   23.2880   31.4460 H   0  0  0  0  0  0  0  0  0  0  0  0
  1  2  2  0  0  0  0
  1 18  1  0  0  0  0
  2  6  1  0  0  0  0
  3  7  1  0  0  0  0
  3  2  1  0  0  0  0
  4  5  2  0  0  0  0
  4  3  1  0  0  0  0
  5  1  1  0  0  0  0
  8  9  1  0  0  0  0
  8 17  1  0  0  0  0
  9  4  1  0  0  0  0
 10 11  1  0  0  0  0
 10  9  2  0  0  0  0
 12 10  1  0  0  0  0
 13 12  1  0  0  0  0
 14 12  2  0  0  0  0
 14 15  1  0  0  0  0
 15  8  2  0  0  0  0
 17 16  3  0  0  0  0
 20 18  1  0  0  0  0
 20 19  2  1  0  0  0
 21 20  1  0  0  0  0
 22 21  1  0  0  0  0
 23 20  1  0  0  0  0
 24 23  1  0  0  0  0
 25 24  1  0  0  0  0
 25 30  1  0  0  0  0
 26 25  2  0  0  0  0
 27 28  2  0  0  0  0
 27 26  1  0  0  0  0
 28 29  1  0  0  0  0
 29 24  2  0  0  0  0
 31 26  1  0  0  0  0
 32 28  1  0  0  0  0
M  END
>  <minimizedAffinity>
-5.12108803

$$$$
