
     RDKit          3D

 45 48  0  0  0  0  0  0  0  0999 V2000
   35.0030   28.3814   49.4596 C   0  0  0  0  0  0  0  0  0  0  0  0
   34.2921   28.7533   48.4371 C   0  0  0  0  0  0  0  0  0  0  0  0
   37.3904   30.1675   51.5716 C   0  0  0  0  0  0  0  0  0  0  0  0
   38.0916   30.9407   50.6260 C   0  0  0  0  0  0  0  0  0  0  0  0
   37.7132   30.8206   49.2647 C   0  0  0  0  0  0  0  0  0  0  0  0
   36.6901   29.9621   48.9461 N   0  0  0  0  0  0  0  0  0  0  0  0
   36.0647   29.2516   49.9207 C   0  0  0  0  0  0  0  0  0  0  0  0
   36.4046   29.3506   51.1993 N   0  0  0  0  0  0  0  0  0  0  0  0
   38.3738   31.5758   48.2060 C   0  0  0  0  0  0  0  0  0  0  0  0
   38.6047   31.0254   46.9549 C   0  0  0  0  0  0  0  0  0  0  0  0
   39.2462   32.0002   46.1883 C   0  0  0  0  0  0  0  0  0  0  0  0
   39.3795   33.0975   46.9972 N   0  0  0  0  0  0  0  0  0  0  0  0
   38.8569   32.8290   48.1904 N   0  0  0  0  0  0  0  0  0  0  0  0
   33.1783   28.0365   47.8068 C   0  0  0  0  0  0  0  0  0  0  0  0
   33.6057   26.9345   46.9147 C   0  0  0  0  0  0  0  0  0  0  0  0
   33.7749   25.6247   47.3290 C   0  0  0  0  0  0  0  0  0  0  0  0
   34.1749   24.6605   46.4350 C   0  0  0  0  0  0  0  0  0  0  0  0
   34.4215   24.9552   45.1027 C   0  0  0  0  0  0  0  0  0  0  0  0
   34.2554   26.2436   44.6937 C   0  0  0  0  0  0  0  0  0  0  0  0
   33.8532   27.2315   45.5763 C   0  0  0  0  0  0  0  0  0  0  0  0
   34.6960   27.4089   49.8652 H   0  0  0  0  0  0  0  0  0  0  0  0
   34.5357   29.7215   47.9683 H   0  0  0  0  0  0  0  0  0  0  0  0
   37.7197   30.2982   52.5910 H   0  0  0  0  0  0  0  0  0  0  0  0
   38.9002   31.6263   50.8327 H   0  0  0  0  0  0  0  0  0  0  0  0
   38.3800   30.0468   46.5340 H   0  0  0  0  0  0  0  0  0  0  0  0
   39.5877   31.9486   45.1628 H   0  0  0  0  0  0  0  0  0  0  0  0
   39.8084   34.0325   46.7912 H   0  0  0  0  0  0  0  0  0  0  0  0
   32.4409   28.7077   47.3465 H   0  0  0  0  0  0  0  0  0  0  0  0
   32.6158   27.5263   48.6428 H   0  0  0  0  0  0  0  0  0  0  0  0
   33.5675   25.4581   48.3784 H   0  0  0  0  0  0  0  0  0  0  0  0
   34.2766   23.6798   46.8540 H   0  0  0  0  0  0  0  0  0  0  0  0
   34.7327   24.1044   44.4958 H   0  0  0  0  0  0  0  0  0  0  0  0
   34.4584   26.4260   43.6499 H   0  0  0  0  0  0  0  0  0  0  0  0
   30.3320   27.8648   45.2581 N   0  0  0  0  0  0  0  0  0  0  0  0
   31.3154   28.4704   45.0390 C   0  0  0  0  0  0  0  0  0  0  0  0
   32.5150   29.2035   44.7711 C   0  0  0  0  0  0  0  0  0  0  0  0
   33.7036   28.5860   45.0375 C   0  0  0  0  0  0  0  0  0  0  0  0
   34.9126   29.2398   44.8012 C   0  0  0  0  0  0  0  0  0  0  0  0
   35.8866   28.7850   44.9992 H   0  0  0  0  0  0  0  0  0  0  0  0
   34.9402   30.5256   44.2928 C   0  0  0  0  0  0  0  0  0  0  0  0
   35.8797   31.0292   44.1110 H   0  0  0  0  0  0  0  0  0  0  0  0
   33.7080   31.1197   44.0349 C   0  0  0  0  0  0  0  0  0  0  0  0
   32.4990   30.4916   44.2610 C   0  0  0  0  0  0  0  0  0  0  0  0
   33.7466   32.1393   43.6321 H   0  0  0  0  0  0  0  0  0  0  0  0
   31.5646   30.9539   44.0607 H   0  0  0  0  0  0  0  0  0  0  0  0
  1  7  1  0
  2  1  2  0
  4  3  2  0
  5  4  1  0
  6  5  2  0
  6  7  1  0
  7  8  2  0
  8  3  1  0
  9  5  1  0
 10  9  1  0
 11 10  2  0
 11 12  1  0
 12 13  1  0
 13  9  2  0
 14  2  1  0
 15 16  2  0
 15 14  1  0
 17 16  1  0
 18 17  2  0
 19 18  1  0
 19 20  2  0
 20 15  1  0
  1 21  1  0
  2 22  1  0
  3 23  1  0
  4 24  1  0
 10 25  1  0
 11 26  1  0
 12 27  1  0
 14 28  1  0
 14 29  1  0
 16 30  1  0
 17 31  1  0
 18 32  1  0
 19 33  1  0
 34 35  3  0
 35 36  1  0
 36 37  2  0
 37 38  1  0
 38 39  1  0
 38 40  2  0
 40 41  1  0
 40 42  1  0
 42 43  2  0
 43 36  1  0
 42 44  1  0
 43 45  1  0
 20 37  1  0
M  ISO  8  23  14  24  14  25  14  26  14  27   9  28   8  29   8  30  14
M  ISO  5  31  14  32  14  33  14  39  15  41  16
M  END
>  <DihAtoms>  (1) 
18,19,36,35

>  <DihDeg>  (1) 
90.00048546665121

$$$$
