
 OpenBabel03272503233D

 31 33  0  0  1  0  0  0  0  0999 V2000
   35.4650   29.1670   49.0840 N   0  0  0  0  0  0  0  0  0  0  0  0
   35.7960   30.4460   48.5300 C   0  0  1  0  0  0  0  0  0  0  0  0
   36.4940   31.1640   49.6620 C   0  0  0  0  0  0  0  0  0  0  0  0
   36.3250   30.2480   50.8780 C   0  0  0  0  0  0  0  0  0  0  0  0
   36.4120   28.9130   50.1510 C   0  0  0  0  0  0  0  0  0  0  0  0
   34.8050   30.9800   48.4230 H   0  0  0  0  0  0  0  0  0  0  0  0
   37.5560   31.2720   49.3940 H   0  0  0  0  0  0  0  0  0  0  0  0
   36.0420   32.1410   49.9090 H   0  0  0  0  0  0  0  0  0  0  0  0
   37.1890   30.3550   51.5630 H   0  0  0  0  0  0  0  0  0  0  0  0
   35.3570   30.3910   51.3550 H   0  0  0  0  0  0  0  0  0  0  0  0
   37.4280   28.7000   49.8350 H   0  0  0  0  0  0  0  0  0  0  0  0
   36.0420   28.0770   50.7930 H   0  0  0  0  0  0  0  0  0  0  0  0
   34.4160   28.3050   48.6840 C   0  0  0  0  0  0  0  0  0  0  0  0
   33.1750   28.5470   49.2670 C   0  0  0  0  0  0  0  0  0  0  0  0
   32.0900   27.7160   48.9080 C   0  0  0  0  0  0  0  0  0  0  0  0
   32.3540   26.7120   47.9900 N   0  0  0  0  0  0  0  0  0  0  0  0
   33.5810   26.5250   47.4560 C   0  0  0  0  0  0  0  0  0  0  0  0
   34.6100   27.3230   47.8040 N   0  0  0  0  0  0  0  0  0  0  0  0
   32.9330   29.3180   49.9850 H   0  0  0  0  0  0  0  0  0  0  0  0
   31.0870   27.8260   49.3090 H   0  0  0  0  0  0  0  0  0  0  0  0
   33.6720   25.7110   46.7480 H   0  0  0  0  0  0  0  0  0  0  0  0
   35.7170   30.4370   46.0900 C   0  0  0  0  0  0  0  0  0  0  0  0
   36.4900   30.4540   47.2580 C   0  0  0  0  0  0  0  0  0  0  0  0
   37.8410   30.4750   47.0490 C   0  0  0  0  0  0  0  0  0  0  0  0
   38.4730   30.4870   47.9170 H   0  0  0  0  0  0  0  0  0  0  0  0
   38.4410   30.4790   45.8130 C   0  0  0  0  0  0  0  0  0  0  0  0
   39.5180   30.4970   45.6840 H   0  0  0  0  0  0  0  0  0  0  0  0
   37.6490   30.4630   44.6900 C   0  0  0  0  0  3  0  0  0  0  0  0
   36.2570   30.4410   44.8220 C   0  0  0  0  0  3  0  0  0  0  0  0
   33.1070   30.4030   46.2390 N   0  0  0  0  0  0  0  0  0  0  0  0
   34.2730   30.4150   46.1700 C   0  0  0  0  0  0  0  0  0  0  0  0
  1  5  1  0  0  0  0
  2  6  1  6  0  0  0
  2  1  1  0  0  0  0
  2  3  1  0  0  0  0
  3  8  1  0  0  0  0
  3  4  1  0  0  0  0
  4 10  1  0  0  0  0
  4  9  1  0  0  0  0
  5 12  1  0  0  0  0
  5  4  1  0  0  0  0
  7  3  1  0  0  0  0
 11  5  1  0  0  0  0
 13  1  1  0  0  0  0
 13 14  1  0  0  0  0
 14 19  1  0  0  0  0
 15 14  2  0  0  0  0
 15 20  1  0  0  0  0
 16 15  1  0  0  0  0
 17 18  1  0  0  0  0
 17 16  2  0  0  0  0
 18 13  2  0  0  0  0
 21 17  1  0  0  0  0
 22 31  1  0  0  0  0
 22 23  1  0  0  0  0
 23  2  1  0  0  0  0
 24 23  2  0  0  0  0
 24 25  1  0  0  0  0
 26 24  1  0  0  0  0
 27 26  1  0  0  0  0
 28 29  1  0  0  0  0
 28 26  2  0  0  0  0
 29 22  2  0  0  0  0
 31 30  3  0  0  0  0
M  END
>  <minimizedAffinity>
-4.22147894

>  <minimizedRMSD>
2.11924171

$$$$
