
 OpenBabel03272506553D

 21 22  0  0  0  0  0  0  0  0999 V2000
   35.5330   30.8010   49.8010 C   0  0  0  0  0  0  0  0  0  0  0  0
   36.5830   31.3030   48.9970 C   0  0  0  0  0  0  0  0  0  0  0  0
   36.6380   30.7860   47.6950 C   0  0  0  0  0  0  0  0  0  0  0  0
   35.7160   29.8650   47.2870 N   0  0  0  0  0  0  0  0  0  0  0  0
   34.7400   29.4290   48.1050 C   0  0  0  0  0  0  0  0  0  0  0  0
   34.6320   29.8880   49.3710 N   0  0  0  0  0  0  0  0  0  0  0  0
   35.5160   31.2240   50.8140 H   0  0  0  0  0  0  0  0  0  0  0  0
   37.4320   31.1520   47.0570 H   0  0  0  0  0  0  0  0  0  0  0  0
   32.7770   28.7310   46.7270 C   0  0  0  0  0  0  0  0  0  0  0  0
   33.8020   28.4440   47.5790 C   0  0  0  0  0  0  0  0  0  0  0  0
   33.9510   27.1280   47.9620 C   0  0  0  0  0  0  0  0  0  0  0  0
   34.7490   26.8100   48.6440 H   0  0  0  0  0  0  0  0  0  0  0  0
   33.1190   26.1150   47.5250 C   0  0  0  0  0  0  0  0  0  0  0  0
   33.2650   25.0740   47.8490 H   0  0  0  0  0  0  0  0  0  0  0  0
   32.0800   26.4030   46.6620 C   0  0  0  0  0  3  0  0  0  0  0  0
   31.9320   27.7340   46.2770 C   0  0  0  0  0  3  0  0  0  0  0  0
   32.4750   31.1980   46.0010 N   0  0  0  0  0  0  0  0  0  0  0  0
   32.6100   30.0990   46.3210 C   0  0  0  0  0  0  0  0  0  0  0  0
   37.4970   32.2620   49.5060 N   0  0  0  0  0  0  0  0  0  0  0  0
   38.4720   32.0630   49.7530 H   0  0  0  0  0  0  0  0  0  0  0  0
   37.1450   33.2420   49.6370 H   0  0  0  0  0  0  0  0  0  0  0  0
  1  7  1  0  0  0  0
  2 19  1  0  0  0  0
  2  1  2  0  0  0  0
  3  2  1  0  0  0  0
  4  3  2  0  0  0  0
  4  5  1  0  0  0  0
  5  6  2  0  0  0  0
  6  1  1  0  0  0  0
  8  3  1  0  0  0  0
  9 10  1  0  0  0  0
 10 11  2  0  0  0  0
 10  5  1  0  0  0  0
 11 12  1  0  0  0  0
 13 14  1  0  0  0  0
 13 11  1  0  0  0  0
 15 13  2  0  0  0  0
 16 15  1  0  0  0  0
 16  9  2  0  0  0  0
 17 18  3  0  0  0  0
 18  9  1  0  0  0  0
 19 21  1  0  0  0  0
 19 20  1  0  0  0  0
M  END
>  <minimizedAffinity>
-3.60720587

>  <minimizedRMSD>
2.69462943

$$$$
