
 OpenBabel03262521133D

 32 34  0  0  0  0  0  0  0  0999 V2000
   32.3180   29.7430   45.8700 C   0  0  0  0  0  0  0  0  0  0  0  0
   31.9720   29.7850   44.5270 C   0  0  0  0  0  0  0  0  0  0  0  0
   31.2150   28.7330   44.2610 N   0  0  0  0  0  0  0  0  0  0  0  0
   31.0500   27.9980   45.3780 C   0  0  0  0  0  0  0  0  0  0  0  0
   31.7270   28.6180   46.3620 N   0  0  0  0  0  0  0  0  0  0  0  0
   32.3100   30.5910   43.8720 H   0  0  0  0  0  0  0  0  0  0  0  0
   30.8330   28.5520   43.3130 H   0  0  0  0  0  0  0  0  0  0  0  0
   30.8230   25.4960   45.4180 C   0  0  0  0  0  0  0  0  0  0  0  0
   30.2840   26.7640   45.4960 C   0  0  0  0  0  0  0  0  0  0  0  0
   28.9210   26.8260   45.6990 C   0  0  0  0  0  0  0  0  0  0  0  0
   28.4190   27.7850   45.7720 H   0  0  0  0  0  0  0  0  0  0  0  0
   28.1260   25.6910   45.8210 C   0  0  0  0  0  0  0  0  0  0  0  0
   27.0590   25.7420   45.9810 H   0  0  0  0  0  0  0  0  0  0  0  0
   28.7040   24.4440   45.7380 C   0  0  0  0  0  3  0  0  0  0  0  0
   30.0680   24.3460   45.5340 C   0  0  0  0  0  3  0  0  0  0  0  0
   33.3790   25.2570   45.0480 N   0  0  0  0  0  0  0  0  0  0  0  0
   32.2390   25.3730   45.2060 C   0  0  0  0  0  0  0  0  0  0  0  0
   33.1030   30.6300   46.6180 O   0  0  0  0  0  0  0  0  0  0  0  0
   35.6480   30.2850   46.5460 O   0  0  0  0  0  0  0  0  0  0  0  0
   34.4410   29.9750   47.4210 P   0  0  2  0  0  0  0  0  0  0  0  0
   34.2560   28.2940   47.6080 O   0  0  0  0  0  0  0  0  0  0  0  0
   33.7920   28.1460   48.4550 H   0  0  0  0  0  0  0  0  0  0  0  0
   34.5950   30.6520   48.9700 O   0  0  0  0  0  0  0  0  0  0  0  0
   35.7420   30.4930   49.7390 C   0  0  0  0  0  0  0  0  0  0  0  0
   35.9590   29.5030   50.7130 C   0  0  0  0  0  0  0  0  0  0  0  0
   37.1680   29.5080   51.3750 C   0  0  0  0  0  0  0  0  0  0  0  0
   38.0970   30.4420   51.0800 N   0  0  0  0  0  0  0  0  0  0  0  0
   37.8600   31.3920   50.1300 C   0  0  0  0  0  0  0  0  0  0  0  0
   36.6810   31.4190   49.4570 N   0  0  0  0  0  0  0  0  0  0  0  0
   35.1410   28.8240   50.8480 H   0  0  0  0  0  0  0  0  0  0  0  0
   37.3050   28.7330   52.1190 H   0  0  0  0  0  0  0  0  0  0  0  0
   38.6370   32.1200   49.9290 H   0  0  0  0  0  0  0  0  0  0  0  0
  1  5  1  0  0  0  0
  1 18  1  0  0  0  0
  2  1  2  0  0  0  0
  3  2  1  0  0  0  0
  3  4  1  0  0  0  0
  4  9  1  0  0  0  0
  4  5  2  0  0  0  0
  6  2  1  0  0  0  0
  7  3  1  0  0  0  0
  8  9  2  0  0  0  0
  8 15  1  0  0  0  0
  9 10  1  0  0  0  0
 10 11  1  0  0  0  0
 10 12  2  0  0  0  0
 12 13  1  0  0  0  0
 14 12  1  0  0  0  0
 15 14  2  0  0  0  0
 16 17  3  0  0  0  0
 17  8  1  0  0  0  0
 18 20  1  0  0  0  0
 20 19  2  6  0  0  0
 20 21  1  0  0  0  0
 20 23  1  0  0  0  0
 21 22  1  0  0  0  0
 23 24  1  0  0  0  0
 24 25  1  0  0  0  0
 25 30  1  0  0  0  0
 25 26  2  0  0  0  0
 26 31  1  0  0  0  0
 27 26  1  0  0  0  0
 28 27  2  0  0  0  0
 29 24  2  0  0  0  0
 29 28  1  0  0  0  0
 32 28  1  0  0  0  0
M  END
>  <minimizedAffinity>
-4.10098314

>  <minimizedRMSD>
1.05623186

$$$$
