
 OpenBabel03272509083D

 41 44  0  0  0  0  0  0  0  0999 V2000
   32.8560   27.8550   48.5570 C   0  0  0  0  0  0  0  0  0  0  0  0
   31.9630   28.4690   48.3750 H   0  0  0  0  0  0  0  0  0  0  0  0
   32.5520   27.1450   49.3810 H   0  0  0  0  0  0  0  0  0  0  0  0
   33.2070   26.9770   47.4170 C   0  0  0  0  0  0  0  0  0  0  0  0
   33.8100   25.7390   47.5500 C   0  0  0  0  0  0  0  0  0  0  0  0
   34.1020   24.9850   46.4380 C   0  0  0  0  0  0  0  0  0  0  0  0
   33.8090   25.4280   45.1570 C   0  0  0  0  0  0  0  0  0  0  0  0
   33.2140   26.6460   45.0250 C   0  0  0  0  0  0  0  0  0  0  0  0
   32.9100   27.4230   46.1300 C   0  0  0  0  0  0  0  0  0  0  0  0
   34.0150   25.4500   48.5730 H   0  0  0  0  0  0  0  0  0  0  0  0
   34.5690   24.0440   46.6480 H   0  0  0  0  0  0  0  0  0  0  0  0
   34.0900   24.7390   44.3600 H   0  0  0  0  0  0  0  0  0  0  0  0
   33.0040   26.9490   44.0100 H   0  0  0  0  0  0  0  0  0  0  0  0
   32.9310   29.8910   45.6470 C   0  0  0  0  0  0  0  0  0  0  0  0
   32.2730   28.7170   45.8810 C   0  0  0  0  0  0  0  0  0  0  0  0
   30.8780   28.6750   45.8960 C   0  0  0  0  0  0  0  0  0  0  0  0
   30.3100   27.7600   46.0780 H   0  0  0  0  0  0  0  0  0  0  0  0
   30.1290   29.8170   45.6770 C   0  0  0  0  0  0  0  0  0  0  0  0
   29.0480   29.7800   45.6900 H   0  0  0  0  0  0  0  0  0  0  0  0
   30.8380   30.9920   45.4430 C   0  0  0  0  0  3  0  0  0  0  0  0
   32.2170   31.0570   45.4230 C   0  0  0  0  0  3  0  0  0  0  0  0
   35.5370   29.8240   45.6480 N   0  0  0  0  0  0  0  0  0  0  0  0
   34.3620   29.8560   45.6460 C   0  0  0  0  0  0  0  0  0  0  0  0
   35.2270   28.2500   49.1930 C   0  0  0  0  0  3  0  0  0  0  0  0
   33.9880   28.6290   49.0770 C   0  0  0  0  0  3  0  0  0  0  0  0
   37.3270   30.1640   51.4900 C   0  0  0  0  0  0  0  0  0  0  0  0
   38.0390   30.9980   50.6060 C   0  0  0  0  0  0  0  0  0  0  0  0
   37.7670   30.8730   49.2200 C   0  0  0  0  0  0  0  0  0  0  0  0
   36.8320   29.9510   48.8190 N   0  0  0  0  0  0  0  0  0  0  0  0
   36.1900   29.1850   49.7390 C   0  0  0  0  0  0  0  0  0  0  0  0
   36.4300   29.2870   51.0390 N   0  0  0  0  0  0  0  0  0  0  0  0
   37.5730   30.3010   52.5320 H   0  0  0  0  0  0  0  0  0  0  0  0
   38.7810   31.7340   50.8770 H   0  0  0  0  0  0  0  0  0  0  0  0
   38.4480   31.6880   48.2190 C   0  0  0  0  0  0  0  0  0  0  0  0
   38.7520   31.1910   46.9610 C   0  0  0  0  0  0  0  0  0  0  0  0
   39.3930   32.2140   46.2590 C   0  0  0  0  0  0  0  0  0  0  0  0
   39.4540   33.2840   47.1110 N   0  0  0  0  0  0  0  0  0  0  0  0
   38.8890   32.9550   48.2690 N   0  0  0  0  0  0  0  0  0  0  0  0
   38.5800   30.2220   46.4960 H   0  0  0  0  0  0  0  0  0  0  0  0
   39.7810   32.2120   45.2490 H   0  0  0  0  0  0  0  0  0  0  0  0
   39.8590   34.2390   46.9580 H   0  0  0  0  0  0  0  0  0  0  0  0
  1 25  1  0  0  0  0
  1  3  1  0  0  0  0
  2  1  1  0  0  0  0
  4  5  1  0  0  0  0
  4  1  1  0  0  0  0
  5 10  1  0  0  0  0
  6 11  1  0  0  0  0
  6  5  2  0  0  0  0
  7  6  1  0  0  0  0
  8  7  2  0  0  0  0
  8  9  1  0  0  0  0
  9  4  2  0  0  0  0
 12  7  1  0  0  0  0
 13  8  1  0  0  0  0
 14 15  1  0  0  0  0
 15 16  2  0  0  0  0
 15  9  1  0  0  0  0
 16 17  1  0  0  0  0
 18 19  1  0  0  0  0
 18 16  1  0  0  0  0
 20 18  2  0  0  0  0
 21 20  1  0  0  0  0
 21 14  2  0  0  0  0
 23 14  1  0  0  0  0
 23 22  3  0  0  0  0
 24 30  1  0  0  0  0
 25 24  2  0  0  0  0
 26 32  1  0  0  0  0
 27 33  1  0  0  0  0
 27 26  2  0  0  0  0
 28 27  1  0  0  0  0
 29 28  2  0  0  0  0
 29 30  1  0  0  0  0
 30 31  2  0  0  0  0
 31 26  1  0  0  0  0
 34 38  2  0  0  0  0
 34 28  1  0  0  0  0
 35 34  1  0  0  0  0
 36 35  2  0  0  0  0
 36 37  1  0  0  0  0
 37 38  1  0  0  0  0
 39 35  1  0  0  0  0
 40 36  1  0  0  0  0
 41 37  1  0  0  0  0
M  END
>  <minimizedAffinity>
-6.30943298

>  <minimizedRMSD>
1.38594282

$$$$
