REMARK  Name = 
REMARK  5 active torsions:
REMARK  status: ('A' for Active; 'I' for Inactive)
REMARK    1  A    between atoms: C_1  and  C_2
REMARK    2  A    between atoms: C_1  and  C_9
REMARK    3  A    between atoms: C_8  and  C_14
REMARK    4  A    between atoms: C_12  and  C_30
REMARK    5  A    between atoms: C_28  and  C_29
REMARK                            x       y       z     vdW  Elec       q    Type
REMARK                         _______ _______ _______ _____ _____    ______ ____
ROOT
ATOM      1  C   UNL     1      37.338  30.267  51.435  0.00  0.00    +0.000 A 
ATOM      2  C   UNL     1      38.099  30.704  50.331  0.00  0.00    +0.000 A 
ATOM      3  C   UNL     1      37.700  30.343  49.008  0.00  0.00    +0.000 A 
ATOM      4  N   UNL     1      36.584  29.583  48.911  0.00  0.00    +0.000 NA
ATOM      5  C   UNL     1      35.889  29.189  49.987  0.00  0.00    +0.000 A 
ATOM      6  N   UNL     1      36.245  29.516  51.234  0.00  0.00    +0.000 NA
ATOM      7  H   UNL     1      37.546  30.478  52.456  0.00  0.00    +0.000 HD
ATOM      8  H   UNL     1      38.920  31.274  50.674  0.00  0.00    +0.000 HD
ENDROOT
BRANCH   3  10
ATOM      9  C   UNL     1      38.884  32.124  47.708  0.00  0.00    +0.000 A 
ATOM     10  C   UNL     1      38.576  30.826  47.961  0.00  0.00    +0.000 A 
ATOM     11  C   UNL     1      39.175  29.946  47.086  0.00  0.00    +0.000 A 
ATOM     12  H   UNL     1      39.068  28.877  47.114  0.00  0.00    +0.000 HD
ATOM     13  C   UNL     1      39.999  30.326  46.062  0.00  0.00    +0.000 A 
ATOM     14  H   UNL     1      40.469  29.637  45.378  0.00  0.00    +0.000 HD
ATOM     15  C   UNL     1      40.289  31.652  45.837  0.00  0.00    +0.000 A 
ATOM     16  C   UNL     1      39.713  32.569  46.686  0.00  0.00    +0.000 A 
BRANCH   9  18
ATOM     17  N   UNL     1      37.858  33.998  49.132  0.00  0.00    +0.000 NA
ATOM     18  C   UNL     1      38.322  33.152  48.502  0.00  0.00    +0.000 C 
ENDBRANCH   9  18
ENDBRANCH   3  10
BRANCH   5  19
ATOM     19  C   UNL     1      34.711  28.388  49.730  0.00  0.00    +0.000 C 
ATOM     20  C   UNL     1      34.415  28.064  48.517  0.00  0.00    +0.000 C 
BRANCH  20  21
ATOM     21  C   UNL     1      33.296  27.269  48.012  0.00  0.00    +0.000 C 
ATOM     22  H   UNL     1      32.770  26.753  48.840  0.00  0.00    +0.000 HD
ATOM     23  H   UNL     1      32.561  27.955  47.528  0.00  0.00    +0.000 HD
BRANCH  21  24
ATOM     24  C   UNL     1      33.711  26.197  47.053  0.00  0.00    +0.000 A 
ATOM     25  C   UNL     1      33.933  24.886  47.375  0.00  0.00    +0.000 A 
ATOM     26  C   UNL     1      34.314  23.992  46.405  0.00  0.00    +0.000 A 
ATOM     27  C   UNL     1      34.485  24.387  45.074  0.00  0.00    +0.000 A 
ATOM     28  C   UNL     1      34.264  25.703  44.740  0.00  0.00    +0.000 A 
ATOM     29  C   UNL     1      33.880  26.608  45.717  0.00  0.00    +0.000 A 
ATOM     30  H   UNL     1      33.795  24.601  48.410  0.00  0.00    +0.000 HD
ATOM     31  H   UNL     1      34.475  22.969  46.722  0.00  0.00    +0.000 HD
ATOM     32  H   UNL     1      34.791  23.604  44.368  0.00  0.00    +0.000 HD
ATOM     33  H   UNL     1      34.402  25.991  43.704  0.00  0.00    +0.000 HD
ATOM     34  H   UNL     1      33.732  27.615  45.352  0.00  0.00    +0.000 HD
ENDBRANCH  21  24
ENDBRANCH  20  21
ENDBRANCH   5  19
TORSDOF 5
