
 OpenBabel03262523473D

 39 42  0  0  0  0  0  0  0  0999 V2000
   36.4400   32.3460   43.5700 Cl  0  0  0  0  0  0  0  0  0  0  0  0
   37.5060   31.0000   43.1860 C   0  0  0  0  0  0  0  0  0  0  0  0
   38.3890   30.6350   44.1890 C   0  0  0  0  0  0  0  0  0  0  0  0
   39.2830   29.5770   43.9890 C   0  0  0  0  0  0  0  0  0  0  0  0
   39.2830   28.8890   42.7760 C   0  0  0  0  0  0  0  0  0  0  0  0
   38.3970   29.2730   41.8020 C   0  0  0  0  0  0  0  0  0  0  0  0
   37.5090   30.3230   41.9980 C   0  0  0  0  0  0  0  0  0  0  0  0
   39.9860   29.2530   44.7290 H   0  0  0  0  0  0  0  0  0  0  0  0
   39.9600   28.0650   42.5870 H   0  0  0  0  0  0  0  0  0  0  0  0
   38.3270   28.7950   40.8290 H   0  0  0  0  0  0  0  0  0  0  0  0
   38.6960   32.9600   49.6740 Cl  0  0  0  0  0  0  0  0  0  0  0  0
   38.5960   32.2660   48.0730 C   0  0  0  0  0  0  0  0  0  0  0  0
   37.8490   31.1460   47.8230 C   0  0  0  0  0  0  0  0  0  0  0  0
   37.8220   30.6630   46.5390 C   0  0  0  0  0  0  0  0  0  0  0  0
   38.5090   31.2580   45.5090 C   0  0  0  0  0  0  0  0  0  0  0  0
   39.2650   32.4030   45.7920 C   0  0  0  0  0  0  0  0  0  0  0  0
   40.1190   33.1230   44.4570 Cl  0  0  0  0  0  0  0  0  0  0  0  0
   39.3100   32.9070   47.0690 C   0  0  0  0  0  0  0  0  0  0  0  0
   37.2110   29.7630   46.3810 H   0  0  0  0  0  0  0  0  0  0  0  0
   39.9020   33.7990   47.2760 H   0  0  0  0  0  0  0  0  0  0  0  0
   37.1150   29.4000   51.1110 C   0  0  0  0  0  0  0  0  0  0  0  0
   37.8230   29.9550   50.0290 C   0  0  0  0  0  0  0  0  0  0  0  0
   37.1330   30.5530   48.9730 C   0  0  0  0  0  0  0  0  0  0  0  0
   35.7660   30.5710   49.0410 N   0  0  0  0  0  0  0  0  0  0  0  0
   35.1350   30.0250   50.1000 C   0  0  0  0  0  0  0  0  0  0  0  0
   35.7870   29.4530   51.1110 N   0  0  0  0  0  0  0  0  0  0  0  0
   37.6170   28.9370   51.9300 H   0  0  0  0  0  0  0  0  0  0  0  0
   38.9170   29.9200   50.0130 H   0  0  0  0  0  0  0  0  0  0  0  0
   34.0540   30.1550   49.9390 H   0  0  0  0  0  0  0  0  0  0  0  0
   36.7750   31.7750   40.0760 C   0  0  0  0  0  0  0  0  0  0  0  0
   36.5730   30.7360   40.9780 C   0  0  0  0  0  0  0  0  0  0  0  0
   35.3920   29.9990   40.9430 C   0  0  0  0  0  0  0  0  0  0  0  0
   35.1550   29.1750   41.6090 H   0  0  0  0  0  0  0  0  0  0  0  0
   34.4350   30.3180   40.0040 C   0  0  0  0  0  0  0  0  0  0  0  0
   33.4800   29.7760   39.9210 H   0  0  0  0  0  0  0  0  0  0  0  0
   34.6470   31.3500   39.1150 C   0  0  0  0  0  3  0  0  0  0  0  0
   35.8150   32.1060   39.1240 C   0  0  0  0  0  3  0  0  0  0  0  0
   39.0190   33.0460   40.3010 N   0  0  0  0  0  0  0  0  0  0  0  0
   38.0330   32.4800   40.1940 C   0  0  0  0  0  0  0  0  0  0  0  0
  2  1  1  0  0  0  0
  2  3  1  0  0  0  0
  3 15  1  0  0  0  0
  4  3  2  0  0  0  0
  4  8  1  0  0  0  0
  5  4  1  0  0  0  0
  6  7  1  0  0  0  0
  6  5  2  0  0  0  0
  7  2  2  0  0  0  0
  9  5  1  0  0  0  0
 10  6  1  0  0  0  0
 12 11  1  0  0  0  0
 13 12  1  0  0  0  0
 13 23  1  0  0  0  0
 14 13  2  0  0  0  0
 15 16  2  0  0  0  0
 15 14  1  0  0  0  0
 16 18  1  0  0  0  0
 17 16  1  0  0  0  0
 18 20  1  0  0  0  0
 18 12  2  0  0  0  0
 19 14  1  0  0  0  0
 21 27  1  0  0  0  0
 22 21  2  0  0  0  0
 23 24  2  0  0  0  0
 23 22  1  0  0  0  0
 24 25  1  0  0  0  0
 25 26  2  0  0  0  0
 26 21  1  0  0  0  0
 28 22  1  0  0  0  0
 29 25  1  0  0  0  0
 30 39  1  0  0  0  0
 30 31  1  0  0  0  0
 31  7  1  0  0  0  0
 32 31  2  0  0  0  0
 32 33  1  0  0  0  0
 34 32  1  0  0  0  0
 35 34  1  0  0  0  0
 36 37  1  0  0  0  0
 36 34  2  0  0  0  0
 37 30  2  0  0  0  0
 39 38  3  0  0  0  0
M  END
>  <minimizedAffinity>
-6.07727098

>  <minimizedRMSD>
1.20717621

$$$$
