
 OpenBabel03272505123D

 40 43  0  0  0  0  0  0  0  0999 V2000
   33.9770   30.0660   47.5120 S   0  0  0  0  0  0  0  0  0  0  0  0
   36.3120   30.9990   45.6800 Cl  0  0  0  0  0  0  0  0  0  0  0  0
   36.6380   30.7790   47.3790 C   0  0  0  0  0  0  0  0  0  0  0  0
   37.9210   31.0330   47.8210 C   0  0  0  0  0  0  0  0  0  0  0  0
   38.1880   30.8600   49.1750 C   0  0  0  0  0  0  0  0  0  0  0  0
   37.1870   30.4490   50.0210 C   0  0  0  0  0  0  0  0  0  0  0  0
   35.9240   30.2140   49.5110 C   0  0  0  0  0  0  0  0  0  0  0  0
   35.5850   30.3620   48.1880 C   0  0  0  0  0  0  0  0  0  0  0  0
   39.1710   31.0460   49.5580 H   0  0  0  0  0  0  0  0  0  0  0  0
   37.3900   30.3130   51.0750 H   0  0  0  0  0  0  0  0  0  0  0  0
   35.1470   29.8890   50.1960 H   0  0  0  0  0  0  0  0  0  0  0  0
   40.1940   33.2310   46.0190 C   0  0  0  0  0  0  0  0  0  0  0  0
   40.8870   32.3740   45.1360 C   0  0  0  0  0  0  0  0  0  0  0  0
   40.5450   31.0190   45.1840 C   0  0  0  0  0  0  0  0  0  0  0  0
   39.5800   30.6050   46.0610 N   0  0  0  0  0  0  0  0  0  0  0  0
   38.9560   31.4700   46.8770 C   0  0  0  0  0  0  0  0  0  0  0  0
   39.2650   32.7670   46.8500 N   0  0  0  0  0  0  0  0  0  0  0  0
   40.3840   34.3090   46.0630 H   0  0  0  0  0  0  0  0  0  0  0  0
   41.6270   32.8140   44.4890 H   0  0  0  0  0  0  0  0  0  0  0  0
   41.0640   30.3580   44.5180 H   0  0  0  0  0  0  0  0  0  0  0  0
   32.4910   29.3150   44.8460 Cl  0  0  0  0  0  0  0  0  0  0  0  0
   33.0440   28.0870   45.9760 C   0  0  0  0  0  0  0  0  0  0  0  0
   33.7050   28.3250   47.1690 C   0  0  0  0  0  0  0  0  0  0  0  0
   34.0890   27.2750   47.9710 C   0  0  0  0  0  0  0  0  0  0  0  0
   33.8240   25.9920   47.5990 C   0  0  0  0  0  0  0  0  0  0  0  0
   33.1600   25.6940   46.4040 C   0  0  0  0  0  0  0  0  0  0  0  0
   32.7890   26.7600   45.6250 C   0  0  0  0  0  0  0  0  0  0  0  0
   34.6020   27.5630   48.8880 H   0  0  0  0  0  0  0  0  0  0  0  0
   34.1440   25.2120   48.2590 H   0  0  0  0  0  0  0  0  0  0  0  0
   32.9700   24.6670   46.1460 H   0  0  0  0  0  0  0  0  0  0  0  0
   32.9520   26.2430   43.2930 C   0  0  0  0  0  0  0  0  0  0  0  0
   32.0990   26.3870   44.3890 C   0  0  0  0  0  0  0  0  0  0  0  0
   30.7300   26.1830   44.2540 C   0  0  0  0  0  0  0  0  0  0  0  0
   30.1410   26.3120   45.1420 H   0  0  0  0  0  0  0  0  0  0  0  0
   30.2590   25.8350   43.0080 C   0  0  0  0  0  0  0  0  0  0  0  0
   29.1850   25.6860   42.9500 H   0  0  0  0  0  0  0  0  0  0  0  0
   31.0620   25.6810   41.9000 C   0  0  0  0  0  3  0  0  0  0  0  0
   32.4160   25.8920   42.0700 C   0  0  0  0  0  3  0  0  0  0  0  0
   35.5140   26.6050   43.4400 N   0  0  0  0  0  0  0  0  0  0  0  0
   34.3800   26.4450   43.3840 C   0  0  0  0  0  0  0  0  0  0  0  0
  1  8  1  0  0  0  0
  2  3  1  0  0  0  0
  3  4  2  0  0  0  0
  3  8  1  0  0  0  0
  4  5  1  0  0  0  0
  5  9  1  0  0  0  0
  5  6  2  0  0  0  0
  6 10  1  0  0  0  0
  7  6  1  0  0  0  0
  7 11  1  0  0  0  0
  8  7  2  0  0  0  0
 12 18  1  0  0  0  0
 12 17  1  0  0  0  0
 13 14  1  0  0  0  0
 13 12  2  0  0  0  0
 14 15  2  0  0  0  0
 15 16  1  0  0  0  0
 16  4  1  0  0  0  0
 17 16  2  0  0  0  0
 19 13  1  0  0  0  0
 20 14  1  0  0  0  0
 21 22  1  0  0  0  0
 22 23  1  0  0  0  0
 23  1  1  0  0  0  0
 23 24  2  0  0  0  0
 24 28  1  0  0  0  0
 25 24  1  0  0  0  0
 25 29  1  0  0  0  0
 26 25  2  0  0  0  0
 27 22  2  0  0  0  0
 27 26  1  0  0  0  0
 30 26  1  0  0  0  0
 31 40  1  0  0  0  0
 31 32  1  0  0  0  0
 32 27  1  0  0  0  0
 33 32  2  0  0  0  0
 33 34  1  0  0  0  0
 35 33  1  0  0  0  0
 36 35  1  0  0  0  0
 37 38  1  0  0  0  0
 37 35  2  0  0  0  0
 38 31  2  0  0  0  0
 40 39  3  0  0  0  0
M  END
>  <minimizedAffinity>
-5.22706223

>  <minimizedRMSD>
1.12033641

$$$$
