REMARK  Name = 
REMARK  3 active torsions:
REMARK  status: ('A' for Active; 'I' for Inactive)
REMARK    1  A    between atoms: C_1  and  N_7
REMARK    2  A    between atoms: C_8  and  C_25
REMARK    3  A    between atoms: C_23  and  C_24
REMARK                            x       y       z     vdW  Elec       q    Type
REMARK                         _______ _______ _______ _____ _____    ______ ____
ROOT
ATOM      1  N   UNL     1      36.646  29.592  49.371  0.00  0.00    +0.000 N 
ATOM      2  C   UNL     1      37.593  30.558  48.898  0.00  0.00    +0.000 C 
ATOM      3  C   UNL     1      38.299  31.019  50.152  0.00  0.00    +0.000 C 
ATOM      4  C   UNL     1      37.524  30.375  51.305  0.00  0.00    +0.000 C 
ATOM      5  C   UNL     1      37.169  29.065  50.615  0.00  0.00    +0.000 C 
ATOM      6  H   UNL     1      36.967  31.445  48.582  0.00  0.00    +0.000 HD
ATOM      7  H   UNL     1      39.334  30.648  50.117  0.00  0.00    +0.000 HD
ATOM      8  H   UNL     1      38.271  32.114  50.296  0.00  0.00    +0.000 HD
ATOM      9  H   UNL     1      38.201  30.174  52.159  0.00  0.00    +0.000 HD
ATOM     10  H   UNL     1      36.639  30.953  51.565  0.00  0.00    +0.000 HD
ATOM     11  H   UNL     1      38.035  28.418  50.524  0.00  0.00    +0.000 HD
ATOM     12  H   UNL     1      36.361  28.523  51.165  0.00  0.00    +0.000 HD
ENDROOT
BRANCH   1  13
ATOM     13  C   UNL     1      35.428  29.214  48.757  0.00  0.00    +0.000 A 
ATOM     14  C   UNL     1      35.035  29.983  47.664  0.00  0.00    +0.000 A 
ATOM     15  C   UNL     1      33.825  29.655  47.012  0.00  0.00    +0.000 A 
ATOM     16  N   UNL     1      33.117  28.578  47.521  0.00  0.00    +0.000 NA
ATOM     17  C   UNL     1      33.549  27.867  48.586  0.00  0.00    +0.000 A 
ATOM     18  N   UNL     1      34.705  28.187  49.202  0.00  0.00    +0.000 NA
ATOM     19  H   UNL     1      35.560  30.828  47.241  0.00  0.00    +0.000 HD
ATOM     20  H   UNL     1      33.437  30.195  46.154  0.00  0.00    +0.000 HD
ATOM     21  H   UNL     1      32.916  27.046  48.897  0.00  0.00    +0.000 HD
ENDBRANCH   1  13
BRANCH   2  23
ATOM     22  C   UNL     1      38.136  28.976  47.121  0.00  0.00    +0.000 A 
ATOM     23  C   UNL     1      38.453  30.157  47.803  0.00  0.00    +0.000 A 
ATOM     24  C   UNL     1      39.565  30.805  47.340  0.00  0.00    +0.000 A 
ATOM     25  H   UNL     1      39.846  31.716  47.835  0.00  0.00    +0.000 HD
ATOM     26  C   UNL     1      40.342  30.372  46.294  0.00  0.00    +0.000 A 
ATOM     27  H   UNL     1      41.219  30.912  45.952  0.00  0.00    +0.000 HD
ATOM     28  C   UNL     1      40.000  29.209  45.648  0.00  0.00    +0.000 A 
ATOM     29  C   UNL     1      38.875  28.489  46.064  0.00  0.00    +0.000 A 
BRANCH  22  31
ATOM     30  N   UNL     1      36.049  27.569  47.823  0.00  0.00    +0.000 NA
ATOM     31  C   UNL     1      36.984  28.194  47.509  0.00  0.00    +0.000 C 
ENDBRANCH  22  31
ENDBRANCH   2  23
TORSDOF 3
