
     RDKit          3D

 37 39  0  0  0  0  0  0  0  0999 V2000
   37.0340   31.0409   49.6117 C   0  0  0  0  0  0  0  0  0  0  0  0
   36.4712   29.8671   49.1196 C   0  0  0  0  0  0  0  0  0  0  0  0
   36.3430   28.7511   49.9213 C   0  0  0  0  0  0  0  0  0  0  0  0
   36.7977   28.8604   51.2173 N   0  0  0  0  0  0  0  0  0  0  0  0
   37.3432   30.0085   51.6791 C   0  0  0  0  0  0  0  0  0  0  0  0
   37.4535   31.0622   50.8924 N   0  0  0  0  0  0  0  0  0  0  0  0
   34.6230   29.3993   47.5861 C   0  0  0  0  0  0  0  0  0  0  0  0
   33.6091   29.1392   48.3473 O   0  0  0  0  0  0  0  0  0  0  0  0
   36.0102   29.6475   47.8183 N   0  0  0  0  0  0  0  0  0  0  0  0
   37.0680   32.0209   48.6693 O   0  0  0  0  0  0  0  0  0  0  0  0
   38.9185   32.5446   47.1488 C   0  0  0  0  0  0  0  0  0  0  0  0
   38.1972   32.7190   48.3006 C   0  0  0  0  0  0  0  0  0  0  0  0
   38.5772   33.6699   49.2342 C   0  0  0  0  0  0  0  0  0  0  0  0
   39.6998   34.4528   48.9990 C   0  0  0  0  0  0  0  0  0  0  0  0
   40.4292   34.2720   47.8277 C   0  0  0  0  0  0  0  0  0  0  0  0
   40.0266   33.3133   46.9106 C   0  0  0  0  0  0  0  0  0  0  0  0
   38.0893   30.7439   45.5007 N   0  0  0  0  0  0  0  0  0  0  0  0
   38.4522   31.5383   46.2409 C   0  0  0  0  0  0  0  0  0  0  0  0
   35.9303   27.8149   49.6453 H   0  0  0  0  0  0  0  0  0  0  0  0
   37.7218   30.1788   52.6673 H   0  0  0  0  0  0  0  0  0  0  0  0
   33.7216   29.2749   47.0001 H   0  0  0  0  0  0  0  0  0  0  0  0
   36.2464   29.5616   46.8248 H   0  0  0  0  0  0  0  0  0  0  0  0
   38.0562   33.8597   50.1603 H   0  0  0  0  0  0  0  0  0  0  0  0
   40.0156   35.2055   49.7194 H   0  0  0  0  0  0  0  0  0  0  0  0
   41.3136   34.8584   47.5975 H   0  0  0  0  0  0  0  0  0  0  0  0
   43.3081   34.1202   47.7718 N   0  0  0  0  0  0  0  0  0  0  0  0
   42.7743   33.7573   46.8122 C   0  0  0  0  0  0  0  0  0  0  0  0
   42.1035   33.2829   45.6160 C   0  0  0  0  0  0  0  0  0  0  0  0
   40.7385   33.0584   45.6517 C   0  0  0  0  0  0  0  0  0  0  0  0
   40.0041   32.6047   44.5612 C   0  0  0  0  0  0  0  0  0  0  0  0
   38.9296   32.4597   44.6949 H   0  0  0  0  0  0  0  0  0  0  0  0
   40.6927   32.3722   43.3903 C   0  0  0  0  0  0  0  0  0  0  0  0
   40.1425   32.0241   42.5459 H   0  0  0  0  0  0  0  0  0  0  0  0
   42.0562   32.5926   43.3418 C   0  0  0  0  0  0  0  0  0  0  0  0
   42.7831   33.0458   44.4352 C   0  0  0  0  0  0  0  0  0  0  0  0
   42.5915   32.4059   42.4119 H   0  0  0  0  0  0  0  0  0  0  0  0
   43.8403   33.2254   44.4267 H   0  0  0  0  0  0  0  0  0  0  0  0
  1  6  1  0
  2  1  2  0
  2  3  1  0
  3  4  2  0
  4  5  1  0
  6  5  2  0
  7  9  1  0
  7  8  2  0
  9  2  1  0
 10  1  1  0
 11 12  2  0
 12 10  1  0
 12 13  1  0
 14 13  2  0
 15 14  1  0
 16 11  1  0
 16 15  2  0
 17 18  3  0
 18 11  1  0
  3 19  1  0
  5 20  1  0
  7 21  1  0
  9 22  1  0
 13 23  1  0
 14 24  1  0
 15 25  1  0
 26 27  3  0
 27 28  1  0
 28 29  2  0
 29 30  1  0
 30 31  1  0
 30 32  2  0
 32 33  1  0
 32 34  1  0
 34 35  2  0
 35 28  1  0
 34 36  1  0
 35 37  1  0
 16 29  1  0
M  ISO  8  19  14  20  14  21   6  23  14  24  14  25  14  31  15  33  16
M  END
>  <DihAtoms>  (1) 
10,15,28,27

>  <DihDeg>  (1) 
89.99739481278738

$$$$
