
 OpenBabel03272501493D

 21 22  0  0  0  0  0  0  0  0999 V2000
   37.1960   29.8310   50.5640 C   0  0  0  0  0  0  0  0  0  0  0  0
   38.1130   30.2400   49.5650 C   0  0  0  0  0  0  0  0  0  0  0  0
   37.6000   30.7140   48.3500 C   0  0  0  0  0  0  0  0  0  0  0  0
   36.2370   30.7440   48.2300 N   0  0  0  0  0  0  0  0  0  0  0  0
   35.4000   30.3520   49.1940 C   0  0  0  0  0  0  0  0  0  0  0  0
   35.8640   29.8910   50.3720 N   0  0  0  0  0  0  0  0  0  0  0  0
   34.0190   30.4620   48.8710 N   0  0  0  0  0  0  0  0  0  0  0  0
   37.6420   29.4720   51.4890 H   0  0  0  0  0  0  0  0  0  0  0  0
   39.1610   30.1940   49.7140 H   0  0  0  0  0  0  0  0  0  0  0  0
   33.6340   31.2280   49.4580 H   0  0  0  0  0  0  0  0  0  0  0  0
   33.3920   29.9520   48.2080 H   0  0  0  0  0  0  0  0  0  0  0  0
   39.0910   32.3690   47.3590 C   0  0  0  0  0  0  0  0  0  0  0  0
   38.4410   31.1610   47.2500 C   0  0  0  0  0  0  0  0  0  0  0  0
   38.6270   30.4370   46.0950 C   0  0  0  0  0  0  0  0  0  0  0  0
   38.1370   29.4840   45.9650 H   0  0  0  0  0  0  0  0  0  0  0  0
   39.4270   30.8640   45.0510 C   0  0  0  0  0  0  0  0  0  0  0  0
   39.5530   30.2710   44.1540 H   0  0  0  0  0  0  0  0  0  0  0  0
   40.0580   32.0750   45.1990 C   0  0  0  0  0  0  0  0  0  0  0  0
   39.9110   32.8440   46.3320 C   0  0  0  0  0  0  0  0  0  0  0  0
   38.8420   33.8700   49.5030 N   0  0  0  0  0  0  0  0  0  0  0  0
   38.9470   33.1920   48.5480 C   0  0  0  0  0  0  0  0  0  0  0  0
  1  8  1  0  0  0  0
  2  9  1  0  0  0  0
  2  1  2  0  0  0  0
  3  2  1  0  0  0  0
  4  3  2  0  0  0  0
  4  5  1  0  0  0  0
  5  6  2  0  0  0  0
  6  1  1  0  0  0  0
  7  5  1  0  0  0  0
  7 10  1  0  0  0  0
 11  7  1  0  0  0  0
 12 21  1  0  0  0  0
 13 12  1  0  0  0  0
 13  3  1  0  0  0  0
 14 13  2  0  0  0  0
 15 14  1  0  0  0  0
 16 18  2  0  0  0  0
 16 14  1  0  0  0  0
 17 16  1  0  0  0  0
 18 19  1  0  0  0  0
 19 12  2  0  0  0  0
 21 20  3  0  0  0  0
M  END
>  <minimizedAffinity>
-5.49539614

>  <minimizedRMSD>
1.06935656

$$$$
