
 OpenBabel03272503233D

 31 33  0  0  1  0  0  0  0  0999 V2000
   36.6890   29.8500   49.2170 N   0  0  0  0  0  0  0  0  0  0  0  0
   37.4170   31.0710   49.0360 C   0  0  1  0  0  0  0  0  0  0  0  0
   38.1960   31.2230   50.3210 C   0  0  0  0  0  0  0  0  0  0  0  0
   37.6730   30.1150   51.2380 C   0  0  0  0  0  0  0  0  0  0  0  0
   37.4330   29.0550   50.1720 C   0  0  0  0  0  0  0  0  0  0  0  0
   36.6330   31.8840   49.0800 H   0  0  0  0  0  0  0  0  0  0  0  0
   39.2630   31.0760   50.0940 H   0  0  0  0  0  0  0  0  0  0  0  0
   38.0250   32.1900   50.8280 H   0  0  0  0  0  0  0  0  0  0  0  0
   38.4720   29.7750   51.9270 H   0  0  0  0  0  0  0  0  0  0  0  0
   36.7510   30.4090   51.7370 H   0  0  0  0  0  0  0  0  0  0  0  0
   38.3670   28.6380   49.8100 H   0  0  0  0  0  0  0  0  0  0  0  0
   36.7870   28.2280   50.5600 H   0  0  0  0  0  0  0  0  0  0  0  0
   35.4730   29.4770   48.5950 C   0  0  0  0  0  0  0  0  0  0  0  0
   34.9210   30.4180   47.7290 C   0  0  0  0  0  0  0  0  0  0  0  0
   33.7060   30.1020   47.0800 C   0  0  0  0  0  0  0  0  0  0  0  0
   33.1540   28.8630   47.3630 N   0  0  0  0  0  0  0  0  0  0  0  0
   33.7370   27.9890   48.2130 C   0  0  0  0  0  0  0  0  0  0  0  0
   34.8970   28.2980   48.8280 N   0  0  0  0  0  0  0  0  0  0  0  0
   35.3220   31.3920   47.4850 H   0  0  0  0  0  0  0  0  0  0  0  0
   33.2000   30.7700   46.3900 H   0  0  0  0  0  0  0  0  0  0  0  0
   33.2180   27.0500   48.3590 H   0  0  0  0  0  0  0  0  0  0  0  0
   38.9460   32.3680   47.6430 C   0  0  0  0  0  0  0  0  0  0  0  0
   38.1860   31.2050   47.8140 C   0  0  0  0  0  0  0  0  0  0  0  0
   38.2630   30.3130   46.7810 C   0  0  0  0  0  0  0  0  0  0  0  0
   37.6950   29.4050   46.8700 H   0  0  0  0  0  0  0  0  0  0  0  0
   39.0120   30.4960   45.6450 C   0  0  0  0  0  0  0  0  0  0  0  0
   39.0500   29.7660   44.8430 H   0  0  0  0  0  0  0  0  0  0  0  0
   39.7450   31.6500   45.5110 C   0  0  0  0  0  3  0  0  0  0  0  0
   39.7170   32.6120   46.5270 C   0  0  0  0  0  3  0  0  0  0  0  0
   38.9610   34.2160   49.4910 N   0  0  0  0  0  0  0  0  0  0  0  0
   38.9530   33.3940   48.6610 C   0  0  0  0  0  0  0  0  0  0  0  0
  1  5  1  0  0  0  0
  2  6  1  6  0  0  0
  2  1  1  0  0  0  0
  2  3  1  0  0  0  0
  3  8  1  0  0  0  0
  3  4  1  0  0  0  0
  4 10  1  0  0  0  0
  4  9  1  0  0  0  0
  5 12  1  0  0  0  0
  5  4  1  0  0  0  0
  7  3  1  0  0  0  0
 11  5  1  0  0  0  0
 13 18  1  0  0  0  0
 13  1  1  0  0  0  0
 14 13  2  0  0  0  0
 15 16  2  0  0  0  0
 15 14  1  0  0  0  0
 16 17  1  0  0  0  0
 17 21  1  0  0  0  0
 17 18  2  0  0  0  0
 19 14  1  0  0  0  0
 20 15  1  0  0  0  0
 22 23  1  0  0  0  0
 22 31  1  0  0  0  0
 23  2  1  0  0  0  0
 24 25  1  0  0  0  0
 24 23  2  0  0  0  0
 26 24  1  0  0  0  0
 27 26  1  0  0  0  0
 28 26  2  0  0  0  0
 28 29  1  0  0  0  0
 29 22  2  0  0  0  0
 31 30  3  0  0  0  0
M  END
>  <minimizedAffinity>
-5.95228624

>  <minimizedRMSD>
1.23594618

$$$$
