
 OpenBabel03272501093D

 41 44  0  0  1  0  0  0  0  0999 V2000
   38.5150   25.0790   31.3910 O   0  0  0  0  0  0  0  0  0  0  0  0
   37.3260   25.0870   30.7470 C   0  0  2  0  0  0  0  0  0  0  0  0
   36.2090   25.8030   31.5730 C   0  0  2  0  0  0  0  0  0  0  0  0
   35.0210   25.1370   31.0620 C   0  0  0  0  0  0  0  0  0  0  0  0
   35.3410   23.8100   30.8100 O   0  0  0  0  0  0  0  0  0  0  0  0
   36.6860   23.6740   30.8490 C   0  0  0  0  0  0  0  0  0  0  0  0
   37.3330   25.4030   29.7100 H   0  0  0  0  0  0  0  0  0  0  0  0
   36.4260   25.5010   32.6200 H   0  0  0  0  0  0  0  0  0  0  0  0
   34.5800   25.5270   30.1450 H   0  0  0  0  0  0  0  0  0  0  0  0
   34.2220   25.1490   31.8590 H   0  0  0  0  0  0  0  0  0  0  0  0
   37.0600   23.1250   29.9550 H   0  0  0  0  0  0  0  0  0  0  0  0
   36.9920   23.2030   31.7950 H   0  0  0  0  0  0  0  0  0  0  0  0
   36.1810   29.4530   32.4800 C   0  0  0  0  0  0  0  0  0  0  0  0
   36.0860   28.0420   32.6330 C   0  0  0  0  0  0  0  0  0  0  0  0
   36.3010   27.2380   31.4820 C   0  0  0  0  0  0  0  0  0  0  0  0
   36.5870   27.8490   30.2830 N   0  0  0  0  0  0  0  0  0  0  0  0
   36.6650   29.1810   30.1890 C   0  0  0  0  0  0  0  0  0  0  0  0
   36.4690   29.9900   31.2600 N   0  0  0  0  0  0  0  0  0  0  0  0
   36.0130   30.0250   33.3720 H   0  0  0  0  0  0  0  0  0  0  0  0
   35.8580   27.6200   33.6010 H   0  0  0  0  0  0  0  0  0  0  0  0
   36.8880   29.6950   29.2650 H   0  0  0  0  0  0  0  0  0  0  0  0
   37.9450   23.3600   33.8860 Cl  0  0  0  0  0  0  0  0  0  0  0  0
   38.8730   24.8430   33.8620 C   0  0  0  0  0  0  0  0  0  0  0  0
   38.9780   25.4180   32.6110 C   0  0  0  0  0  0  0  0  0  0  0  0
   39.7130   26.5950   32.5850 C   0  0  0  0  0  0  0  0  0  0  0  0
   40.2920   27.1520   33.6990 C   0  0  0  0  0  0  0  0  0  0  0  0
   40.1400   26.5110   34.9170 C   0  0  0  0  0  0  0  0  0  0  0  0
   39.4190   25.3310   35.0250 C   0  0  0  0  0  0  0  0  0  0  0  0
   39.9030   27.1870   31.6980 H   0  0  0  0  0  0  0  0  0  0  0  0
   40.8700   28.0660   33.7080 H   0  0  0  0  0  0  0  0  0  0  0  0
   40.5690   26.8930   35.8340 H   0  0  0  0  0  0  0  0  0  0  0  0
   40.0340   23.5290   36.6300 C   0  0  0  0  0  0  0  0  0  0  0  0
   39.1970   24.5770   36.2540 C   0  0  0  0  0  0  0  0  0  0  0  0
   38.1490   24.8650   37.1010 C   0  0  0  0  0  0  0  0  0  0  0  0
   37.5010   25.6870   36.7950 H   0  0  0  0  0  0  0  0  0  0  0  0
   37.8670   24.2060   38.2790 C   0  0  0  0  0  0  0  0  0  0  0  0
   37.0200   24.4980   38.8870 H   0  0  0  0  0  0  0  0  0  0  0  0
   38.7120   23.1770   38.6200 C   0  0  0  0  0  3  0  0  0  0  0  0
   39.7730   22.8520   37.8040 C   0  0  0  0  0  3  0  0  0  0  0  0
   42.0370   22.9600   35.0680 N   0  0  0  0  0  0  0  0  0  0  0  0
   41.1400   23.2110   35.7540 C   0  0  0  0  0  0  0  0  0  0  0  0
  1 24  1  0  0  0  0
  2  7  1  6  0  0  0
  2  6  1  0  0  0  0
  2  1  1  0  0  0  0
  2  3  1  0  0  0  0
  3  8  1  1  0  0  0
  4  3  1  0  0  0  0
  4 10  1  0  0  0  0
  5  6  1  0  0  0  0
  5  4  1  0  0  0  0
  6 12  1  0  0  0  0
  9  4  1  0  0  0  0
 11  6  1  0  0  0  0
 13 14  1  0  0  0  0
 13 19  1  0  0  0  0
 14 20  1  0  0  0  0
 15  3  1  0  0  0  0
 15 14  2  0  0  0  0
 16 15  1  0  0  0  0
 17 16  2  0  0  0  0
 17 18  1  0  0  0  0
 18 13  2  0  0  0  0
 21 17  1  0  0  0  0
 23 22  1  0  0  0  0
 23 28  1  0  0  0  0
 24 23  2  0  0  0  0
 25 24  1  0  0  0  0
 25 26  2  0  0  0  0
 26 30  1  0  0  0  0
 26 27  1  0  0  0  0
 27 28  2  0  0  0  0
 27 31  1  0  0  0  0
 28 33  1  0  0  0  0
 29 25  1  0  0  0  0
 32 39  1  0  0  0  0
 33 32  2  0  0  0  0
 33 34  1  0  0  0  0
 34 36  2  0  0  0  0
 35 34  1  0  0  0  0
 36 38  1  0  0  0  0
 36 37  1  0  0  0  0
 39 38  2  0  0  0  0
 40 41  3  0  0  0  0
 41 32  1  0  0  0  0
M  END
>  <minimizedAffinity>
-6.07149887

$$$$

 OpenBabel03272501093D

 41 44  0  0  1  0  0  0  0  0999 V2000
   37.7450   26.4650   32.5910 O   0  0  0  0  0  0  0  0  0  0  0  0
   38.9980   26.0580   32.8950 C   0  0  2  0  0  0  0  0  0  0  0  0
   39.2390   25.9800   34.4370 C   0  0  2  0  0  0  0  0  0  0  0  0
   40.6770   26.1890   34.5010 C   0  0  0  0  0  0  0  0  0  0  0  0
   41.0290   27.0940   33.5090 O   0  0  0  0  0  0  0  0  0  0  0  0
   39.9830   27.2370   32.6630 C   0  0  0  0  0  0  0  0  0  0  0  0
   39.3650   25.1770   32.3800 H   0  0  0  0  0  0  0  0  0  0  0  0
   38.6820   26.8570   34.8320 H   0  0  0  0  0  0  0  0  0  0  0  0
   41.3180   25.3200   34.3660 H   0  0  0  0  0  0  0  0  0  0  0  0
   40.9350   26.6560   35.4950 H   0  0  0  0  0  0  0  0  0  0  0  0
   40.3080   27.1340   31.6030 H   0  0  0  0  0  0  0  0  0  0  0  0
   39.4650   28.1880   32.8580 H   0  0  0  0  0  0  0  0  0  0  0  0
   37.6560   23.5860   36.8690 C   0  0  0  0  0  0  0  0  0  0  0  0
   38.1890   24.7990   36.3490 C   0  0  0  0  0  0  0  0  0  0  0  0
   38.6790   24.7850   35.0150 C   0  0  0  0  0  0  0  0  0  0  0  0
   38.6190   23.6160   34.2930 N   0  0  0  0  0  0  0  0  0  0  0  0
   38.1090   22.5010   34.8250 C   0  0  0  0  0  0  0  0  0  0  0  0
   37.6290   22.4640   36.0930 N   0  0  0  0  0  0  0  0  0  0  0  0
   37.2960   23.6370   37.8780 H   0  0  0  0  0  0  0  0  0  0  0  0
   38.2090   25.6860   36.9650 H   0  0  0  0  0  0  0  0  0  0  0  0
   38.0460   21.5650   34.2880 H   0  0  0  0  0  0  0  0  0  0  0  0
   36.5210   27.7960   35.0880 Cl  0  0  0  0  0  0  0  0  0  0  0  0
   36.4450   28.4280   33.4570 C   0  0  0  0  0  0  0  0  0  0  0  0
   37.0770   27.6340   32.5200 C   0  0  0  0  0  0  0  0  0  0  0  0
   37.0210   28.1290   31.2250 C   0  0  0  0  0  0  0  0  0  0  0  0
   36.3960   29.3050   30.8890 C   0  0  0  0  0  0  0  0  0  0  0  0
   35.7870   30.0420   31.8890 C   0  0  0  0  0  0  0  0  0  0  0  0
   35.7990   29.6140   33.2090 C   0  0  0  0  0  0  0  0  0  0  0  0
   37.4570   27.6470   30.3590 H   0  0  0  0  0  0  0  0  0  0  0  0
   36.3380   29.7140   29.8900 H   0  0  0  0  0  0  0  0  0  0  0  0
   35.2770   30.9770   31.6970 H   0  0  0  0  0  0  0  0  0  0  0  0
   33.8210   30.2500   34.5810 C   0  0  0  0  0  0  0  0  0  0  0  0
   35.1910   30.3110   34.3370 C   0  0  0  0  0  0  0  0  0  0  0  0
   35.9420   31.0610   35.2150 C   0  0  0  0  0  0  0  0  0  0  0  0
   37.0130   31.1010   35.0130 H   0  0  0  0  0  0  0  0  0  0  0  0
   35.4500   31.7490   36.3040 C   0  0  0  0  0  0  0  0  0  0  0  0
   36.1130   32.3170   36.9450 H   0  0  0  0  0  0  0  0  0  0  0  0
   34.0950   31.6690   36.5160 C   0  0  0  0  0  3  0  0  0  0  0  0
   33.3030   30.9310   35.6650 C   0  0  0  0  0  3  0  0  0  0  0  0
   32.3570   28.8550   32.9420 N   0  0  0  0  0  0  0  0  0  0  0  0
   33.0150   29.4670   33.6710 C   0  0  0  0  0  0  0  0  0  0  0  0
  1  2  1  0  0  0  0
  2  7  1  6  0  0  0
  2  3  1  0  0  0  0
  3  4  1  0  0  0  0
  3  8  1  1  0  0  0
  3 15  1  0  0  0  0
  4 10  1  0  0  0  0
  5  4  1  0  0  0  0
  6 12  1  0  0  0  0
  6  2  1  0  0  0  0
  6  5  1  0  0  0  0
  9  4  1  0  0  0  0
 11  6  1  0  0  0  0
 13 19  1  0  0  0  0
 14 13  1  0  0  0  0
 14 20  1  0  0  0  0
 15 14  2  0  0  0  0
 16 17  2  0  0  0  0
 16 15  1  0  0  0  0
 17 18  1  0  0  0  0
 18 13  2  0  0  0  0
 21 17  1  0  0  0  0
 23 22  1  0  0  0  0
 24  1  1  0  0  0  0
 24 23  2  0  0  0  0
 25 24  1  0  0  0  0
 26 25  2  0  0  0  0
 26 27  1  0  0  0  0
 27 28  2  0  0  0  0
 28 23  1  0  0  0  0
 28 33  1  0  0  0  0
 29 25  1  0  0  0  0
 30 26  1  0  0  0  0
 31 27  1  0  0  0  0
 32 39  1  0  0  0  0
 33 32  2  0  0  0  0
 33 34  1  0  0  0  0
 34 36  2  0  0  0  0
 35 34  1  0  0  0  0
 36 38  1  0  0  0  0
 36 37  1  0  0  0  0
 39 38  2  0  0  0  0
 40 41  3  0  0  0  0
 41 32  1  0  0  0  0
M  END
>  <minimizedAffinity>
-5.95139694

$$$$

 OpenBabel03272501093D

 41 44  0  0  1  0  0  0  0  0999 V2000
   38.1600   25.0880   32.3080 O   0  0  0  0  0  0  0  0  0  0  0  0
   36.8110   25.0370   32.2630 C   0  0  2  0  0  0  0  0  0  0  0  0
   36.2900   24.2010   31.0490 C   0  0  2  0  0  0  0  0  0  0  0  0
   34.9870   24.8120   30.8340 C   0  0  0  0  0  0  0  0  0  0  0  0
   35.0950   26.1700   31.1010 O   0  0  0  0  0  0  0  0  0  0  0  0
   36.2690   26.3940   31.7350 C   0  0  0  0  0  0  0  0  0  0  0  0
   36.2990   24.7810   33.1840 H   0  0  0  0  0  0  0  0  0  0  0  0
   36.9990   24.4570   30.2340 H   0  0  0  0  0  0  0  0  0  0  0  0
   34.1540   24.4460   31.4320 H   0  0  0  0  0  0  0  0  0  0  0  0
   34.7050   24.7010   29.7470 H   0  0  0  0  0  0  0  0  0  0  0  0
   36.1200   27.0170   32.6460 H   0  0  0  0  0  0  0  0  0  0  0  0
   37.0000   26.8300   31.0370 H   0  0  0  0  0  0  0  0  0  0  0  0
   35.4920   20.7360   32.2770 C   0  0  0  0  0  0  0  0  0  0  0  0
   35.3600   22.1360   32.0620 C   0  0  0  0  0  0  0  0  0  0  0  0
   36.3650   22.7830   31.2930 C   0  0  0  0  0  0  0  0  0  0  0  0
   37.4090   22.0380   30.7960 N   0  0  0  0  0  0  0  0  0  0  0  0
   37.4890   20.7230   31.0250 C   0  0  0  0  0  0  0  0  0  0  0  0
   36.5550   20.0610   31.7530 N   0  0  0  0  0  0  0  0  0  0  0  0
   34.7140   20.2840   32.8620 H   0  0  0  0  0  0  0  0  0  0  0  0
   34.5160   22.6670   32.4780 H   0  0  0  0  0  0  0  0  0  0  0  0
   38.2950   20.1070   30.6510 H   0  0  0  0  0  0  0  0  0  0  0  0
   39.1460   22.5670   33.7830 Cl  0  0  0  0  0  0  0  0  0  0  0  0
   39.7230   24.1970   34.0550 C   0  0  0  0  0  0  0  0  0  0  0  0
   39.1150   25.1470   33.2590 C   0  0  0  0  0  0  0  0  0  0  0  0
   39.5680   26.4410   33.4700 C   0  0  0  0  0  0  0  0  0  0  0  0
   40.5380   26.7650   34.3870 C   0  0  0  0  0  0  0  0  0  0  0  0
   41.0990   25.7520   35.1450 C   0  0  0  0  0  0  0  0  0  0  0  0
   40.6990   24.4320   34.9940 C   0  0  0  0  0  0  0  0  0  0  0  0
   39.2090   27.3160   32.9410 H   0  0  0  0  0  0  0  0  0  0  0  0
   40.9100   27.7630   34.5710 H   0  0  0  0  0  0  0  0  0  0  0  0
   41.8670   25.9340   35.8850 H   0  0  0  0  0  0  0  0  0  0  0  0
   40.5500   22.7690   36.8410 C   0  0  0  0  0  0  0  0  0  0  0  0
   41.2210   23.2910   35.7380 C   0  0  0  0  0  0  0  0  0  0  0  0
   42.4030   22.6770   35.3860 C   0  0  0  0  0  0  0  0  0  0  0  0
   42.9190   23.0960   34.5220 H   0  0  0  0  0  0  0  0  0  0  0  0
   42.9680   21.5970   36.0320 C   0  0  0  0  0  0  0  0  0  0  0  0
   43.9030   21.1750   35.6880 H   0  0  0  0  0  0  0  0  0  0  0  0
   42.2800   21.1060   37.1160 C   0  0  0  0  0  3  0  0  0  0  0  0
   41.0940   21.6880   37.5060 C   0  0  0  0  0  3  0  0  0  0  0  0
   38.3200   23.9220   37.5280 N   0  0  0  0  0  0  0  0  0  0  0  0
   39.3070   23.4000   37.2270 C   0  0  0  0  0  0  0  0  0  0  0  0
  1 24  1  0  0  0  0
  2  1  1  0  0  0  0
  2  7  1  1  0  0  0
  3  8  1  6  0  0  0
  3 15  1  0  0  0  0
  3  2  1  0  0  0  0
  4  3  1  0  0  0  0
  4  5  1  0  0  0  0
  4  9  1  0  0  0  0
  5  6  1  0  0  0  0
  6  2  1  0  0  0  0
  6 11  1  0  0  0  0
 10  4  1  0  0  0  0
 12  6  1  0  0  0  0
 13 19  1  0  0  0  0
 14 13  1  0  0  0  0
 14 20  1  0  0  0  0
 15 14  2  0  0  0  0
 16 17  2  0  0  0  0
 16 15  1  0  0  0  0
 17 18  1  0  0  0  0
 18 13  2  0  0  0  0
 21 17  1  0  0  0  0
 22 23  1  0  0  0  0
 23 28  1  0  0  0  0
 24 25  1  0  0  0  0
 24 23  2  0  0  0  0
 25 26  2  0  0  0  0
 26 30  1  0  0  0  0
 26 27  1  0  0  0  0
 27 31  1  0  0  0  0
 28 27  2  0  0  0  0
 28 33  1  0  0  0  0
 29 25  1  0  0  0  0
 32 41  1  0  0  0  0
 32 39  1  0  0  0  0
 33 32  2  0  0  0  0
 34 33  1  0  0  0  0
 34 36  2  0  0  0  0
 35 34  1  0  0  0  0
 36 38  1  0  0  0  0
 37 36  1  0  0  0  0
 38 39  2  0  0  0  0
 41 40  3  0  0  0  0
M  END
>  <minimizedAffinity>
-5.84174299

$$$$

 OpenBabel03272501093D

 41 44  0  0  1  0  0  0  0  0999 V2000
   37.3280   26.4700   32.2130 O   0  0  0  0  0  0  0  0  0  0  0  0
   36.8900   25.1910   32.2350 C   0  0  2  0  0  0  0  0  0  0  0  0
   38.0030   24.1910   32.6850 C   0  0  2  0  0  0  0  0  0  0  0  0
   37.5620   22.9730   32.0230 C   0  0  0  0  0  0  0  0  0  0  0  0
   37.0070   23.3210   30.7990 O   0  0  0  0  0  0  0  0  0  0  0  0
   36.8100   24.6590   30.7770 C   0  0  0  0  0  0  0  0  0  0  0  0
   35.9470   25.0050   32.7370 H   0  0  0  0  0  0  0  0  0  0  0  0
   38.9240   24.5980   32.2160 H   0  0  0  0  0  0  0  0  0  0  0  0
   36.8190   22.3630   32.5350 H   0  0  0  0  0  0  0  0  0  0  0  0
   38.4600   22.3220   31.8180 H   0  0  0  0  0  0  0  0  0  0  0  0
   35.7790   24.9060   30.4370 H   0  0  0  0  0  0  0  0  0  0  0  0
   37.5860   25.1470   30.1690 H   0  0  0  0  0  0  0  0  0  0  0  0
   38.1360   23.0520   36.2670 C   0  0  0  0  0  0  0  0  0  0  0  0
   37.9510   22.9960   34.8580 C   0  0  0  0  0  0  0  0  0  0  0  0
   38.1820   24.1840   34.1150 C   0  0  0  0  0  0  0  0  0  0  0  0
   38.5700   25.3240   34.7800 N   0  0  0  0  0  0  0  0  0  0  0  0
   38.7310   25.3280   36.1070 C   0  0  0  0  0  0  0  0  0  0  0  0
   38.5220   24.2190   36.8600 N   0  0  0  0  0  0  0  0  0  0  0  0
   37.9520   22.1350   36.7930 H   0  0  0  0  0  0  0  0  0  0  0  0
   37.6450   22.0700   34.3920 H   0  0  0  0  0  0  0  0  0  0  0  0
   39.0340   26.2040   36.6630 H   0  0  0  0  0  0  0  0  0  0  0  0
   36.2480   27.7040   34.8240 Cl  0  0  0  0  0  0  0  0  0  0  0  0
   36.2330   28.4730   33.2520 C   0  0  0  0  0  0  0  0  0  0  0  0
   36.7790   27.7010   32.2460 C   0  0  0  0  0  0  0  0  0  0  0  0
   36.7700   28.3050   30.9960 C   0  0  0  0  0  0  0  0  0  0  0  0
   36.2650   29.5620   30.7650 C   0  0  0  0  0  0  0  0  0  0  0  0
   35.7350   30.2700   31.8300 C   0  0  0  0  0  0  0  0  0  0  0  0
   35.7070   29.7350   33.1100 C   0  0  0  0  0  0  0  0  0  0  0  0
   37.1540   27.8560   30.0890 H   0  0  0  0  0  0  0  0  0  0  0  0
   36.2460   30.0560   29.8040 H   0  0  0  0  0  0  0  0  0  0  0  0
   35.3210   31.2640   31.7210 H   0  0  0  0  0  0  0  0  0  0  0  0
   33.8270   30.3030   34.6390 C   0  0  0  0  0  0  0  0  0  0  0  0
   35.1740   30.3920   34.2980 C   0  0  0  0  0  0  0  0  0  0  0  0
   35.9770   31.1300   35.1380 C   0  0  0  0  0  0  0  0  0  0  0  0
   37.0300   31.1920   34.8600 H   0  0  0  0  0  0  0  0  0  0  0  0
   35.5580   31.7820   36.2790 C   0  0  0  0  0  0  0  0  0  0  0  0
   36.2590   32.3430   36.8850 H   0  0  0  0  0  0  0  0  0  0  0  0
   34.2230   31.6750   36.5870 C   0  0  0  0  0  3  0  0  0  0  0  0
   33.3810   30.9470   35.7760 C   0  0  0  0  0  3  0  0  0  0  0  0
   32.2650   28.9290   33.0750 N   0  0  0  0  0  0  0  0  0  0  0  0
   32.9670   29.5320   33.7690 C   0  0  0  0  0  0  0  0  0  0  0  0
  1  2  1  0  0  0  0
  1 24  1  0  0  0  0
  2  3  1  0  0  0  0
  2  7  1  1  0  0  0
  3  8  1  6  0  0  0
  3 15  1  0  0  0  0
  4  9  1  0  0  0  0
  4  3  1  0  0  0  0
  5  4  1  0  0  0  0
  6  5  1  0  0  0  0
  6  2  1  0  0  0  0
 10  4  1  0  0  0  0
 11  6  1  0  0  0  0
 12  6  1  0  0  0  0
 13 19  1  0  0  0  0
 13 18  1  0  0  0  0
 14 13  2  0  0  0  0
 15 16  2  0  0  0  0
 15 14  1  0  0  0  0
 16 17  1  0  0  0  0
 17 21  1  0  0  0  0
 17 18  2  0  0  0  0
 20 14  1  0  0  0  0
 23 22  1  0  0  0  0
 24 23  2  0  0  0  0
 25 24  1  0  0  0  0
 26 25  2  0  0  0  0
 26 27  1  0  0  0  0
 27 28  2  0  0  0  0
 28 23  1  0  0  0  0
 28 33  1  0  0  0  0
 29 25  1  0  0  0  0
 30 26  1  0  0  0  0
 31 27  1  0  0  0  0
 32 39  1  0  0  0  0
 33 32  2  0  0  0  0
 33 34  1  0  0  0  0
 34 36  2  0  0  0  0
 35 34  1  0  0  0  0
 36 38  1  0  0  0  0
 36 37  1  0  0  0  0
 39 38  2  0  0  0  0
 40 41  3  0  0  0  0
 41 32  1  0  0  0  0
M  END
>  <minimizedAffinity>
-5.84151554

$$$$

 OpenBabel03272501093D

 41 44  0  0  1  0  0  0  0  0999 V2000
   39.2420   25.4000   31.3800 O   0  0  0  0  0  0  0  0  0  0  0  0
   37.9700   25.2320   30.9560 C   0  0  2  0  0  0  0  0  0  0  0  0
   36.9530   25.1680   32.1410 C   0  0  2  0  0  0  0  0  0  0  0  0
   35.8910   24.3690   31.5500 C   0  0  0  0  0  0  0  0  0  0  0  0
   36.4730   23.4210   30.7190 O   0  0  0  0  0  0  0  0  0  0  0  0
   37.7700   23.7520   30.5260 C   0  0  0  0  0  0  0  0  0  0  0  0
   37.6290   25.8850   30.1600 H   0  0  0  0  0  0  0  0  0  0  0  0
   37.5020   24.6010   32.9240 H   0  0  0  0  0  0  0  0  0  0  0  0
   35.1450   24.8880   30.9500 H   0  0  0  0  0  0  0  0  0  0  0  0
   35.3490   23.8160   32.3700 H   0  0  0  0  0  0  0  0  0  0  0  0
   38.0340   23.7290   29.4450 H   0  0  0  0  0  0  0  0  0  0  0  0
   38.4200   23.1060   31.1350 H   0  0  0  0  0  0  0  0  0  0  0  0
   36.6110   28.1090   34.4620 C   0  0  0  0  0  0  0  0  0  0  0  0
   36.9530   26.8050   34.0050 C   0  0  0  0  0  0  0  0  0  0  0  0
   36.6390   26.4760   32.6590 C   0  0  0  0  0  0  0  0  0  0  0  0
   36.0260   27.4170   31.8650 N   0  0  0  0  0  0  0  0  0  0  0  0
   35.7240   28.6300   32.3410 C   0  0  0  0  0  0  0  0  0  0  0  0
   36.0030   28.9910   33.6180 N   0  0  0  0  0  0  0  0  0  0  0  0
   36.8640   28.3200   35.4830 H   0  0  0  0  0  0  0  0  0  0  0  0
   37.4340   26.1090   34.6760 H   0  0  0  0  0  0  0  0  0  0  0  0
   35.2420   29.3940   31.7470 H   0  0  0  0  0  0  0  0  0  0  0  0
   39.6900   22.9130   33.1460 Cl  0  0  0  0  0  0  0  0  0  0  0  0
   40.2150   24.5390   33.5250 C   0  0  0  0  0  0  0  0  0  0  0  0
   39.8870   25.4720   32.5620 C   0  0  0  0  0  0  0  0  0  0  0  0
   40.3010   26.7640   32.8560 C   0  0  0  0  0  0  0  0  0  0  0  0
   40.9790   27.1000   34.0020 C   0  0  0  0  0  0  0  0  0  0  0  0
   41.2700   26.1040   34.9180 C   0  0  0  0  0  0  0  0  0  0  0  0
   40.8900   24.7870   34.6960 C   0  0  0  0  0  0  0  0  0  0  0  0
   40.1340   27.6260   32.2220 H   0  0  0  0  0  0  0  0  0  0  0  0
   41.3140   28.0960   34.2560 H   0  0  0  0  0  0  0  0  0  0  0  0
   41.8010   26.2960   35.8410 H   0  0  0  0  0  0  0  0  0  0  0  0
   40.1950   23.2380   36.5180 C   0  0  0  0  0  0  0  0  0  0  0  0
   41.1440   23.6640   35.5910 C   0  0  0  0  0  0  0  0  0  0  0  0
   42.3340   22.9710   35.5620 C   0  0  0  0  0  0  0  0  0  0  0  0
   43.0680   23.3140   34.8330 H   0  0  0  0  0  0  0  0  0  0  0  0
   42.6570   21.9000   36.3690 C   0  0  0  0  0  0  0  0  0  0  0  0
   43.6190   21.4100   36.2800 H   0  0  0  0  0  0  0  0  0  0  0  0
   41.6990   21.5060   37.2720 C   0  0  0  0  0  3  0  0  0  0  0  0
   40.4940   22.1690   37.3380 C   0  0  0  0  0  3  0  0  0  0  0  0
   37.9270   24.5120   36.6120 N   0  0  0  0  0  0  0  0  0  0  0  0
   38.9390   23.9540   36.5630 C   0  0  0  0  0  0  0  0  0  0  0  0
  1 24  1  0  0  0  0
  2  7  1  6  0  0  0
  2  1  1  0  0  0  0
  2  3  1  0  0  0  0
  3 15  1  0  0  0  0
  3  8  1  1  0  0  0
  4  3  1  0  0  0  0
  4 10  1  0  0  0  0
  5  4  1  0  0  0  0
  6  5  1  0  0  0  0
  6  2  1  0  0  0  0
  6 12  1  0  0  0  0
  9  4  1  0  0  0  0
 11  6  1  0  0  0  0
 13 19  1  0  0  0  0
 14 13  1  0  0  0  0
 14 20  1  0  0  0  0
 15 14  2  0  0  0  0
 16 17  2  0  0  0  0
 16 15  1  0  0  0  0
 17 18  1  0  0  0  0
 18 13  2  0  0  0  0
 21 17  1  0  0  0  0
 22 23  1  0  0  0  0
 23 28  1  0  0  0  0
 24 25  1  0  0  0  0
 24 23  2  0  0  0  0
 25 26  2  0  0  0  0
 26 30  1  0  0  0  0
 26 27  1  0  0  0  0
 27 31  1  0  0  0  0
 28 27  2  0  0  0  0
 28 33  1  0  0  0  0
 29 25  1  0  0  0  0
 32 41  1  0  0  0  0
 32 39  1  0  0  0  0
 33 32  2  0  0  0  0
 34 33  1  0  0  0  0
 34 36  2  0  0  0  0
 35 34  1  0  0  0  0
 36 38  1  0  0  0  0
 37 36  1  0  0  0  0
 38 39  2  0  0  0  0
 41 40  3  0  0  0  0
M  END
>  <minimizedAffinity>
-5.72601414

$$$$

 OpenBabel03272501093D

 41 44  0  0  1  0  0  0  0  0999 V2000
   38.2670   25.1770   33.4040 O   0  0  0  0  0  0  0  0  0  0  0  0
   39.6000   25.3960   33.4470 C   0  0  2  0  0  0  0  0  0  0  0  0
   40.1130   25.6440   34.9020 C   0  0  2  0  0  0  0  0  0  0  0  0
   41.2900   26.4580   34.6430 C   0  0  0  0  0  0  0  0  0  0  0  0
   41.0200   27.2790   33.5570 O   0  0  0  0  0  0  0  0  0  0  0  0
   39.8920   26.8390   32.9520 C   0  0  0  0  0  0  0  0  0  0  0  0
   40.2280   24.6970   32.9060 H   0  0  0  0  0  0  0  0  0  0  0  0
   39.2990   26.2400   35.3670 H   0  0  0  0  0  0  0  0  0  0  0  0
   42.2200   25.9400   34.4130 H   0  0  0  0  0  0  0  0  0  0  0  0
   41.4780   27.1230   35.5350 H   0  0  0  0  0  0  0  0  0  0  0  0
   40.0400   26.7410   31.8520 H   0  0  0  0  0  0  0  0  0  0  0  0
   39.0440   27.4910   33.2100 H   0  0  0  0  0  0  0  0  0  0  0  0
   41.5450   22.4550   36.2920 C   0  0  0  0  0  0  0  0  0  0  0  0
   41.4610   23.6620   35.5430 C   0  0  0  0  0  0  0  0  0  0  0  0
   40.2610   24.4160   35.6430 C   0  0  0  0  0  0  0  0  0  0  0  0
   39.2450   23.9540   36.4470 N   0  0  0  0  0  0  0  0  0  0  0  0
   39.3720   22.8120   37.1320 C   0  0  0  0  0  0  0  0  0  0  0  0
   40.4970   22.0580   37.0690 N   0  0  0  0  0  0  0  0  0  0  0  0
   42.4660   21.9140   36.1900 H   0  0  0  0  0  0  0  0  0  0  0  0
   42.2930   23.9740   34.9290 H   0  0  0  0  0  0  0  0  0  0  0  0
   38.5950   22.4190   37.7720 H   0  0  0  0  0  0  0  0  0  0  0  0
   38.3120   22.1060   33.6620 Cl  0  0  0  0  0  0  0  0  0  0  0  0
   37.2290   23.0250   32.6410 C   0  0  0  0  0  0  0  0  0  0  0  0
   37.4170   24.3910   32.7110 C   0  0  0  0  0  0  0  0  0  0  0  0
   36.5610   25.1260   31.9040 C   0  0  0  0  0  0  0  0  0  0  0  0
   35.6030   24.5580   31.1000 C   0  0  0  0  0  0  0  0  0  0  0  0
   35.4780   23.1800   31.0880 C   0  0  0  0  0  0  0  0  0  0  0  0
   36.2980   22.3750   31.8670 C   0  0  0  0  0  0  0  0  0  0  0  0
   36.5590   26.2070   31.8260 H   0  0  0  0  0  0  0  0  0  0  0  0
   34.9230   25.1060   30.4630 H   0  0  0  0  0  0  0  0  0  0  0  0
   34.7460   22.6660   30.4800 H   0  0  0  0  0  0  0  0  0  0  0  0
   37.1020   20.1270   31.1620 C   0  0  0  0  0  0  0  0  0  0  0  0
   36.2520   20.9190   31.9300 C   0  0  0  0  0  0  0  0  0  0  0  0
   35.3660   20.2570   32.7520 C   0  0  0  0  0  0  0  0  0  0  0  0
   34.7060   20.8890   33.3480 H   0  0  0  0  0  0  0  0  0  0  0  0
   35.2560   18.8880   32.8740 C   0  0  0  0  0  0  0  0  0  0  0  0
   34.5290   18.4490   33.5460 H   0  0  0  0  0  0  0  0  0  0  0  0
   36.1090   18.1360   32.1020 C   0  0  0  0  0  3  0  0  0  0  0  0
   37.0120   18.7530   31.2650 C   0  0  0  0  0  3  0  0  0  0  0  0
   38.7870   21.3290   29.5840 N   0  0  0  0  0  0  0  0  0  0  0  0
   38.0400   20.8030   30.2920 C   0  0  0  0  0  0  0  0  0  0  0  0
  1  2  1  0  0  0  0
  2  7  1  6  0  0  0
  2  3  1  0  0  0  0
  3  8  1  1  0  0  0
  3 15  1  0  0  0  0
  4  3  1  0  0  0  0
  4 10  1  0  0  0  0
  5  4  1  0  0  0  0
  6 12  1  0  0  0  0
  6  2  1  0  0  0  0
  6  5  1  0  0  0  0
  9  4  1  0  0  0  0
 11  6  1  0  0  0  0
 13 18  1  0  0  0  0
 14 15  1  0  0  0  0
 14 13  2  0  0  0  0
 15 16  2  0  0  0  0
 16 17  1  0  0  0  0
 17 21  1  0  0  0  0
 18 17  2  0  0  0  0
 19 13  1  0  0  0  0
 20 14  1  0  0  0  0
 23 24  1  0  0  0  0
 23 22  1  0  0  0  0
 24  1  1  0  0  0  0
 25 24  2  0  0  0  0
 26 25  1  0  0  0  0
 27 26  2  0  0  0  0
 27 28  1  0  0  0  0
 28 33  1  0  0  0  0
 28 23  2  0  0  0  0
 29 25  1  0  0  0  0
 30 26  1  0  0  0  0
 31 27  1  0  0  0  0
 32 39  2  0  0  0  0
 32 33  1  0  0  0  0
 33 34  2  0  0  0  0
 34 36  1  0  0  0  0
 34 35  1  0  0  0  0
 36 37  1  0  0  0  0
 38 36  2  0  0  0  0
 39 38  1  0  0  0  0
 40 41  3  0  0  0  0
 41 32  1  0  0  0  0
M  END
>  <minimizedAffinity>
-5.66282988

$$$$

 OpenBabel03272501093D

 41 44  0  0  1  0  0  0  0  0999 V2000
   38.4830   26.2030   32.5270 O   0  0  0  0  0  0  0  0  0  0  0  0
   38.6650   27.0420   33.5700 C   0  0  2  0  0  0  0  0  0  0  0  0
   39.3650   26.3420   34.7790 C   0  0  2  0  0  0  0  0  0  0  0  0
   38.8660   27.1420   35.8870 C   0  0  0  0  0  0  0  0  0  0  0  0
   37.5570   27.5070   35.6030 O   0  0  0  0  0  0  0  0  0  0  0  0
   37.3080   27.2470   34.2990 C   0  0  0  0  0  0  0  0  0  0  0  0
   39.1020   28.0100   33.3500 H   0  0  0  0  0  0  0  0  0  0  0  0
   38.9230   25.3230   34.7810 H   0  0  0  0  0  0  0  0  0  0  0  0
   39.3970   28.0620   36.1240 H   0  0  0  0  0  0  0  0  0  0  0  0
   38.8470   26.5060   36.8190 H   0  0  0  0  0  0  0  0  0  0  0  0
   36.8420   28.1240   33.7960 H   0  0  0  0  0  0  0  0  0  0  0  0
   36.7030   26.3320   34.2040 H   0  0  0  0  0  0  0  0  0  0  0  0
   42.9020   27.0470   33.7090 C   0  0  0  0  0  0  0  0  0  0  0  0
   41.4990   27.2230   33.8720 C   0  0  0  0  0  0  0  0  0  0  0  0
   40.7890   26.2230   34.5890 C   0  0  0  0  0  0  0  0  0  0  0  0
   41.4760   25.1410   35.0880 N   0  0  0  0  0  0  0  0  0  0  0  0
   42.7960   25.0200   34.9080 C   0  0  0  0  0  0  0  0  0  0  0  0
   43.5180   25.9470   34.2310 N   0  0  0  0  0  0  0  0  0  0  0  0
   43.4030   27.8220   33.1630 H   0  0  0  0  0  0  0  0  0  0  0  0
   41.0150   28.0950   33.4580 H   0  0  0  0  0  0  0  0  0  0  0  0
   43.3690   24.1840   35.2850 H   0  0  0  0  0  0  0  0  0  0  0  0
   38.6180   23.2070   33.2390 Cl  0  0  0  0  0  0  0  0  0  0  0  0
   37.3640   23.9710   32.2870 C   0  0  0  0  0  0  0  0  0  0  0  0
   37.5410   25.3300   32.1150 C   0  0  0  0  0  0  0  0  0  0  0  0
   36.5500   25.9420   31.3610 C   0  0  0  0  0  0  0  0  0  0  0  0
   35.4800   25.2680   30.8260 C   0  0  0  0  0  0  0  0  0  0  0  0
   35.3760   23.9060   31.0460 C   0  0  0  0  0  0  0  0  0  0  0  0
   36.3260   23.2210   31.7890 C   0  0  0  0  0  0  0  0  0  0  0  0
   36.5190   26.9980   31.1200 H   0  0  0  0  0  0  0  0  0  0  0  0
   34.6940   25.7190   30.2360 H   0  0  0  0  0  0  0  0  0  0  0  0
   34.5600   23.3120   30.6550 H   0  0  0  0  0  0  0  0  0  0  0  0
   37.1530   20.9020   31.4140 C   0  0  0  0  0  0  0  0  0  0  0  0
   36.3140   21.7910   32.0810 C   0  0  0  0  0  0  0  0  0  0  0  0
   35.4720   21.2540   33.0290 C   0  0  0  0  0  0  0  0  0  0  0  0
   34.8200   21.9600   33.5440 H   0  0  0  0  0  0  0  0  0  0  0  0
   35.3950   19.9190   33.3670 C   0  0  0  0  0  0  0  0  0  0  0  0
   34.7030   19.5800   34.1270 H   0  0  0  0  0  0  0  0  0  0  0  0
   36.2360   19.0680   32.6900 C   0  0  0  0  0  3  0  0  0  0  0  0
   37.0960   19.5600   31.7330 C   0  0  0  0  0  3  0  0  0  0  0  0
   38.7420   21.8940   29.6070 N   0  0  0  0  0  0  0  0  0  0  0  0
   38.0440   21.4480   30.4140 C   0  0  0  0  0  0  0  0  0  0  0  0
  1  2  1  0  0  0  0
  2  7  1  6  0  0  0
  2  6  1  0  0  0  0
  2  3  1  0  0  0  0
  3  8  1  1  0  0  0
  3  4  1  0  0  0  0
  4  9  1  0  0  0  0
  4 10  1  0  0  0  0
  5  4  1  0  0  0  0
  6  5  1  0  0  0  0
 11  6  1  0  0  0  0
 12  6  1  0  0  0  0
 13 14  2  0  0  0  0
 13 18  1  0  0  0  0
 14 15  1  0  0  0  0
 15  3  1  0  0  0  0
 15 16  2  0  0  0  0
 17 16  1  0  0  0  0
 17 21  1  0  0  0  0
 18 17  2  0  0  0  0
 19 13  1  0  0  0  0
 20 14  1  0  0  0  0
 23 22  1  0  0  0  0
 24 23  1  0  0  0  0
 24  1  1  0  0  0  0
 25 24  2  0  0  0  0
 26 27  2  0  0  0  0
 26 25  1  0  0  0  0
 27 28  1  0  0  0  0
 28 33  1  0  0  0  0
 28 23  2  0  0  0  0
 29 25  1  0  0  0  0
 30 26  1  0  0  0  0
 31 27  1  0  0  0  0
 32 39  2  0  0  0  0
 32 33  1  0  0  0  0
 33 34  2  0  0  0  0
 34 36  1  0  0  0  0
 34 35  1  0  0  0  0
 36 37  1  0  0  0  0
 38 36  2  0  0  0  0
 39 38  1  0  0  0  0
 40 41  3  0  0  0  0
 41 32  1  0  0  0  0
M  END
>  <minimizedAffinity>
-5.60430002

$$$$

 OpenBabel03272501093D

 41 44  0  0  1  0  0  0  0  0999 V2000
   36.3460   27.0210   32.3490 O   0  0  0  0  0  0  0  0  0  0  0  0
   36.8180   28.2780   32.1920 C   0  0  2  0  0  0  0  0  0  0  0  0
   35.6970   29.2870   31.7860 C   0  0  2  0  0  0  0  0  0  0  0  0
   36.4730   30.2870   31.0690 C   0  0  0  0  0  0  0  0  0  0  0  0
   37.4880   29.6370   30.3810 O   0  0  0  0  0  0  0  0  0  0  0  0
   37.5770   28.3670   30.8390 C   0  0  0  0  0  0  0  0  0  0  0  0
   37.4500   28.6660   32.9830 H   0  0  0  0  0  0  0  0  0  0  0  0
   35.0540   28.6990   31.0970 H   0  0  0  0  0  0  0  0  0  0  0  0
   36.9510   31.0690   31.6560 H   0  0  0  0  0  0  0  0  0  0  0  0
   35.8100   30.7870   30.3060 H   0  0  0  0  0  0  0  0  0  0  0  0
   38.6310   28.1020   31.0830 H   0  0  0  0  0  0  0  0  0  0  0  0
   37.1210   27.6710   30.1190 H   0  0  0  0  0  0  0  0  0  0  0  0
   34.6560   30.8090   35.0650 C   0  0  0  0  0  0  0  0  0  0  0  0
   35.4900   30.4390   33.9730 C   0  0  0  0  0  0  0  0  0  0  0  0
   34.9000   29.6970   32.9150 C   0  0  0  0  0  0  0  0  0  0  0  0
   33.5660   29.3720   32.9890 N   0  0  0  0  0  0  0  0  0  0  0  0
   32.8220   29.7420   34.0370 C   0  0  0  0  0  0  0  0  0  0  0  0
   33.3400   30.4510   35.0710 N   0  0  0  0  0  0  0  0  0  0  0  0
   35.1380   31.3680   35.8440 H   0  0  0  0  0  0  0  0  0  0  0  0
   36.5320   30.7240   33.9710 H   0  0  0  0  0  0  0  0  0  0  0  0
   31.7720   29.5040   34.1290 H   0  0  0  0  0  0  0  0  0  0  0  0
   35.3090   24.4430   31.0160 Cl  0  0  0  0  0  0  0  0  0  0  0  0
   36.5750   24.5270   32.2220 C   0  0  0  0  0  0  0  0  0  0  0  0
   36.8490   25.8080   32.6560 C   0  0  0  0  0  0  0  0  0  0  0  0
   37.8520   25.8830   33.6120 C   0  0  0  0  0  0  0  0  0  0  0  0
   38.5240   24.7850   34.0930 C   0  0  0  0  0  0  0  0  0  0  0  0
   38.1880   23.5350   33.6040 C   0  0  0  0  0  0  0  0  0  0  0  0
   37.1950   23.3770   32.6480 C   0  0  0  0  0  0  0  0  0  0  0  0
   38.2040   26.7990   34.0700 H   0  0  0  0  0  0  0  0  0  0  0  0
   39.3090   24.8140   34.8360 H   0  0  0  0  0  0  0  0  0  0  0  0
   38.6750   22.6280   33.9380 H   0  0  0  0  0  0  0  0  0  0  0  0
   37.4180   21.5480   30.9730 C   0  0  0  0  0  0  0  0  0  0  0  0
   36.7640   22.1110   32.0660 C   0  0  0  0  0  0  0  0  0  0  0  0
   35.6900   21.4120   32.5700 C   0  0  0  0  0  0  0  0  0  0  0  0
   35.1860   21.8630   33.4260 H   0  0  0  0  0  0  0  0  0  0  0  0
   35.2160   20.2110   32.0840 C   0  0  0  0  0  0  0  0  0  0  0  0
   34.3620   19.7280   32.5420 H   0  0  0  0  0  0  0  0  0  0  0  0
   35.8830   19.6840   31.0050 C   0  0  0  0  0  3  0  0  0  0  0  0
   36.9640   20.3470   30.4670 C   0  0  0  0  0  3  0  0  0  0  0  0
   39.4650   22.8280   30.0010 N   0  0  0  0  0  0  0  0  0  0  0  0
   38.5490   22.2670   30.4290 C   0  0  0  0  0  0  0  0  0  0  0  0
  1 24  1  0  0  0  0
  2  1  1  0  0  0  0
  2  7  1  1  0  0  0
  3  8  1  6  0  0  0
  3  2  1  0  0  0  0
  3 15  1  0  0  0  0
  4  9  1  0  0  0  0
  4  3  1  0  0  0  0
  5  6  1  0  0  0  0
  5  4  1  0  0  0  0
  6 11  1  0  0  0  0
  6  2  1  0  0  0  0
 10  4  1  0  0  0  0
 12  6  1  0  0  0  0
 13 18  1  0  0  0  0
 13 19  1  0  0  0  0
 14 13  2  0  0  0  0
 15 16  2  0  0  0  0
 15 14  1  0  0  0  0
 16 17  1  0  0  0  0
 17 21  1  0  0  0  0
 17 18  2  0  0  0  0
 20 14  1  0  0  0  0
 22 23  1  0  0  0  0
 23 28  2  0  0  0  0
 23 24  1  0  0  0  0
 24 25  2  0  0  0  0
 25 29  1  0  0  0  0
 25 26  1  0  0  0  0
 26 30  1  0  0  0  0
 27 31  1  0  0  0  0
 27 26  2  0  0  0  0
 28 27  1  0  0  0  0
 32 33  1  0  0  0  0
 33 34  2  0  0  0  0
 33 28  1  0  0  0  0
 34 35  1  0  0  0  0
 36 37  1  0  0  0  0
 36 34  1  0  0  0  0
 38 36  2  0  0  0  0
 39 32  2  0  0  0  0
 39 38  1  0  0  0  0
 40 41  3  0  0  0  0
 41 32  1  0  0  0  0
M  END
>  <minimizedAffinity>
-5.42402649

$$$$

 OpenBabel03272501093D

 41 44  0  0  1  0  0  0  0  0999 V2000
   36.7680   26.7330   33.0410 O   0  0  0  0  0  0  0  0  0  0  0  0
   37.1260   27.9700   32.6300 C   0  0  2  0  0  0  0  0  0  0  0  0
   35.9430   28.7350   31.9530 C   0  0  2  0  0  0  0  0  0  0  0  0
   36.6680   29.6360   31.0700 C   0  0  0  0  0  0  0  0  0  0  0  0
   37.7890   28.9680   30.5950 O   0  0  0  0  0  0  0  0  0  0  0  0
   37.9690   27.8470   31.3300 C   0  0  0  0  0  0  0  0  0  0  0  0
   37.6570   28.5890   33.3440 H   0  0  0  0  0  0  0  0  0  0  0  0
   35.4130   27.9430   31.3820 H   0  0  0  0  0  0  0  0  0  0  0  0
   37.0240   30.5750   31.4890 H   0  0  0  0  0  0  0  0  0  0  0  0
   36.0170   29.8800   30.1820 H   0  0  0  0  0  0  0  0  0  0  0  0
   39.0230   27.7610   31.6790 H   0  0  0  0  0  0  0  0  0  0  0  0
   37.6360   26.9640   30.7630 H   0  0  0  0  0  0  0  0  0  0  0  0
   34.5780   30.5280   34.9650 C   0  0  0  0  0  0  0  0  0  0  0  0
   35.5270   30.0110   34.0390 C   0  0  0  0  0  0  0  0  0  0  0  0
   35.0300   29.2900   32.9200 C   0  0  0  0  0  0  0  0  0  0  0  0
   33.6720   29.1240   32.7810 N   0  0  0  0  0  0  0  0  0  0  0  0
   32.8190   29.6290   33.6780 C   0  0  0  0  0  0  0  0  0  0  0  0
   33.2440   30.3240   34.7630 N   0  0  0  0  0  0  0  0  0  0  0  0
   34.9920   31.0660   35.7960 H   0  0  0  0  0  0  0  0  0  0  0  0
   36.5820   30.1750   34.2030 H   0  0  0  0  0  0  0  0  0  0  0  0
   31.7460   29.5180   33.6010 H   0  0  0  0  0  0  0  0  0  0  0  0
   39.0170   26.2740   35.0990 Cl  0  0  0  0  0  0  0  0  0  0  0  0
   38.3670   25.0640   34.0140 C   0  0  0  0  0  0  0  0  0  0  0  0
   37.3620   25.5320   33.1910 C   0  0  0  0  0  0  0  0  0  0  0  0
   36.8420   24.5780   32.3280 C   0  0  0  0  0  0  0  0  0  0  0  0
   37.2790   23.2760   32.2850 C   0  0  0  0  0  0  0  0  0  0  0  0
   38.2920   22.8880   33.1450 C   0  0  0  0  0  0  0  0  0  0  0  0
   38.8640   23.7830   34.0370 C   0  0  0  0  0  0  0  0  0  0  0  0
   36.0510   24.7580   31.6110 H   0  0  0  0  0  0  0  0  0  0  0  0
   36.8920   22.5130   31.6250 H   0  0  0  0  0  0  0  0  0  0  0  0
   38.6840   21.8800   33.1660 H   0  0  0  0  0  0  0  0  0  0  0  0
   39.6600   23.0460   36.2780 C   0  0  0  0  0  0  0  0  0  0  0  0
   39.9320   23.4800   34.9830 C   0  0  0  0  0  0  0  0  0  0  0  0
   41.2600   23.6080   34.6410 C   0  0  0  0  0  0  0  0  0  0  0  0
   41.4590   23.9490   33.6240 H   0  0  0  0  0  0  0  0  0  0  0  0
   42.3300   23.3440   35.4700 C   0  0  0  0  0  0  0  0  0  0  0  0
   43.3460   23.4720   35.1190 H   0  0  0  0  0  0  0  0  0  0  0  0
   42.0260   22.9180   36.7410 C   0  0  0  0  0  3  0  0  0  0  0  0
   40.7130   22.7750   37.1290 C   0  0  0  0  0  3  0  0  0  0  0  0
   37.1610   22.8100   36.9700 N   0  0  0  0  0  0  0  0  0  0  0  0
   38.2710   22.9060   36.6570 C   0  0  0  0  0  0  0  0  0  0  0  0
  1 24  1  0  0  0  0
  2  1  1  0  0  0  0
  2  7  1  1  0  0  0
  3  8  1  6  0  0  0
  3  2  1  0  0  0  0
  3 15  1  0  0  0  0
  4  9  1  0  0  0  0
  4  3  1  0  0  0  0
  5  4  1  0  0  0  0
  5  6  1  0  0  0  0
  6 11  1  0  0  0  0
  6  2  1  0  0  0  0
 10  4  1  0  0  0  0
 12  6  1  0  0  0  0
 13 19  1  0  0  0  0
 14 20  1  0  0  0  0
 14 13  2  0  0  0  0
 15 14  1  0  0  0  0
 16 15  2  0  0  0  0
 16 17  1  0  0  0  0
 17 18  2  0  0  0  0
 18 13  1  0  0  0  0
 21 17  1  0  0  0  0
 23 28  1  0  0  0  0
 23 22  1  0  0  0  0
 24 23  2  0  0  0  0
 25 24  1  0  0  0  0
 26 25  2  0  0  0  0
 26 27  1  0  0  0  0
 27 31  1  0  0  0  0
 27 28  2  0  0  0  0
 28 33  1  0  0  0  0
 29 25  1  0  0  0  0
 30 26  1  0  0  0  0
 32 41  1  0  0  0  0
 32 39  1  0  0  0  0
 33 32  2  0  0  0  0
 34 33  1  0  0  0  0
 34 36  2  0  0  0  0
 35 34  1  0  0  0  0
 36 38  1  0  0  0  0
 37 36  1  0  0  0  0
 38 39  2  0  0  0  0
 41 40  3  0  0  0  0
M  END
>  <minimizedAffinity>
-5.41772223

$$$$
