
 OpenBabel03272504503D

 43 46  0  0  1  0  0  0  0  0999 V2000
   36.9110   30.9010   48.6430 N   0  0  0  0  0  0  0  0  0  0  0  0
   37.5650   30.6080   49.9110 C   0  0  0  0  0  0  0  0  0  0  0  0
   38.7480   31.4810   50.1830 C   0  0  0  0  0  0  0  0  0  0  0  0
   38.4810   32.8890   49.6950 C   0  0  0  0  0  0  0  0  0  0  0  0
   38.4040   32.8180   48.2010 C   0  0  0  0  0  0  0  0  0  0  0  0
   37.3210   31.9000   47.7090 C   0  0  1  0  0  0  0  0  0  0  0  0
   37.9010   29.5590   49.8670 H   0  0  0  0  0  0  0  0  0  0  0  0
   36.8580   30.7700   50.7710 H   0  0  0  0  0  0  0  0  0  0  0  0
   38.9250   31.5510   51.2780 H   0  0  0  0  0  0  0  0  0  0  0  0
   39.6650   31.1320   49.6620 H   0  0  0  0  0  0  0  0  0  0  0  0
   39.3490   33.5330   49.9520 H   0  0  0  0  0  0  0  0  0  0  0  0
   37.5280   33.2890   50.1260 H   0  0  0  0  0  0  0  0  0  0  0  0
   39.4030   32.4910   47.8240 H   0  0  0  0  0  0  0  0  0  0  0  0
   38.2350   33.8490   47.7900 H   0  0  0  0  0  0  0  0  0  0  0  0
   36.4360   32.5130   47.4400 H   0  0  0  0  0  0  0  0  0  0  0  0
   35.6450   28.8220   48.8330 C   0  0  0  0  0  0  0  0  0  0  0  0
   35.7780   30.1110   48.3330 C   0  0  0  0  0  0  0  0  0  0  0  0
   34.7580   30.5760   47.5230 C   0  0  0  0  0  0  0  0  0  0  0  0
   33.6940   29.7670   47.2560 N   0  0  0  0  0  0  0  0  0  0  0  0
   33.5990   28.5240   47.7580 C   0  0  0  0  0  0  0  0  0  0  0  0
   34.5790   28.0670   48.5420 N   0  0  0  0  0  0  0  0  0  0  0  0
   36.4050   28.3880   49.4780 H   0  0  0  0  0  0  0  0  0  0  0  0
   34.7760   31.5590   47.0950 H   0  0  0  0  0  0  0  0  0  0  0  0
   32.4550   27.6960   47.4530 C   0  0  0  0  0  0  0  0  0  0  0  0
   32.5310   26.3290   47.5890 C   0  0  0  0  0  0  0  0  0  0  0  0
   31.4830   25.4820   47.3160 C   0  0  0  0  0  0  0  0  0  0  0  0
   30.3300   26.1110   46.8880 C   0  0  0  0  0  0  0  0  0  0  0  0
   30.1970   27.5140   46.7310 C   0  0  0  0  0  0  0  0  0  0  0  0
   31.3050   28.2650   47.0310 N   0  0  0  0  0  0  0  0  0  0  0  0
   33.4660   25.9040   47.9290 H   0  0  0  0  0  0  0  0  0  0  0  0
   31.4980   24.4170   47.4080 H   0  0  0  0  0  0  0  0  0  0  0  0
   29.4440   25.5360   46.6460 H   0  0  0  0  0  0  0  0  0  0  0  0
   29.2770   27.9430   46.3950 H   0  0  0  0  0  0  0  0  0  0  0  0
   38.9510   31.6830   45.7120 C   0  0  0  0  0  0  0  0  0  0  0  0
   37.8350   31.3050   46.4360 C   0  0  0  0  0  0  0  0  0  0  0  0
   37.0850   30.2510   45.9490 C   0  0  0  0  0  0  0  0  0  0  0  0
   36.1910   29.8510   46.4090 H   0  0  0  0  0  0  0  0  0  0  0  0
   37.4160   29.5870   44.7870 C   0  0  0  0  0  0  0  0  0  0  0  0
   36.8650   28.7610   44.3650 H   0  0  0  0  0  0  0  0  0  0  0  0
   38.5490   29.9820   44.0660 C   0  0  0  0  0  3  0  0  0  0  0  0
   39.2850   31.0260   44.5570 C   0  0  0  0  0  3  0  0  0  0  0  0
   40.2970   33.6720   46.7060 N   0  0  0  0  0  0  0  0  0  0  0  0
   39.6870   32.7820   46.2700 C   0  0  0  0  0  0  0  0  0  0  0  0
  1  2  1  0  0  0  0
  2  3  1  0  0  0  0
  2  8  1  0  0  0  0
  3  9  1  0  0  0  0
  4 11  1  0  0  0  0
  4 12  1  0  0  0  0
  4  3  1  0  0  0  0
  5  4  1  0  0  0  0
  6 15  1  6  0  0  0
  6  5  1  0  0  0  0
  6  1  1  0  0  0  0
  7  2  1  0  0  0  0
 10  3  1  0  0  0  0
 13  5  1  0  0  0  0
 14  5  1  0  0  0  0
 16 22  1  0  0  0  0
 17  1  1  0  0  0  0
 17 16  2  0  0  0  0
 18 17  1  0  0  0  0
 19 18  2  0  0  0  0
 19 20  1  0  0  0  0
 20 21  2  0  0  0  0
 21 16  1  0  0  0  0
 23 18  1  0  0  0  0
 24 25  1  0  0  0  0
 24 20  1  0  0  0  0
 25 30  1  0  0  0  0
 26 31  1  0  0  0  0
 26 25  2  0  0  0  0
 27 26  1  0  0  0  0
 28 27  2  0  0  0  0
 28 29  1  0  0  0  0
 29 24  2  0  0  0  0
 32 27  1  0  0  0  0
 33 28  1  0  0  0  0
 34 43  1  0  0  0  0
 34 35  1  0  0  0  0
 35  6  1  0  0  0  0
 36 37  1  0  0  0  0
 36 35  2  0  0  0  0
 38 36  1  0  0  0  0
 39 38  1  0  0  0  0
 40 41  1  0  0  0  0
 40 38  2  0  0  0  0
 41 34  2  0  0  0  0
 43 42  3  0  0  0  0
M  END
>  <minimizedAffinity>
-4.98575449

>  <minimizedRMSD>
1.2063731

$$$$
