
     RDKit          3D

 37 40  0  0  0  0  0  0  0  0999 V2000
   34.8586   29.4225   48.5322 C   0  0  0  0  0  0  0  0  0  0  0  0
   34.0300   28.7725   49.3893 N   0  0  0  0  0  0  0  0  0  0  0  0
   32.9530   28.1187   48.9554 C   0  0  0  0  0  0  0  0  0  0  0  0
   32.5835   28.0343   47.6715 N   0  0  0  0  0  0  0  0  0  0  0  0
   33.3623   28.6575   46.7620 C   0  0  0  0  0  0  0  0  0  0  0  0
   32.9872   28.5735   45.4498 C   0  0  0  0  0  0  0  0  0  0  0  0
   33.7478   29.1925   44.4813 C   0  0  0  0  0  0  0  0  0  0  0  0
   34.8748   29.8789   44.9111 C   0  0  0  0  0  0  0  0  0  0  0  0
   35.2038   29.9302   46.2423 C   0  0  0  0  0  0  0  0  0  0  0  0
   34.4651   29.3246   47.2241 C   0  0  0  0  0  0  0  0  0  0  0  0
   37.5684   30.2157   50.7666 C   0  0  0  0  0  0  0  0  0  0  0  0
   38.2543   31.2955   50.2162 C   0  0  0  0  0  0  0  0  0  0  0  0
   37.7766   31.7758   49.0220 C   0  0  0  0  0  0  0  0  0  0  0  0
   36.7055   31.1798   48.4904 N   0  0  0  0  0  0  0  0  0  0  0  0
   36.0324   30.1579   48.9842 C   0  0  0  0  0  0  0  0  0  0  0  0
   36.5234   29.7204   50.1362 N   0  0  0  0  0  0  0  0  0  0  0  0
   37.9813   29.6226   52.0244 N   0  0  0  0  0  0  0  0  0  0  0  0
   32.2821   27.5909   49.6626 H   0  0  0  0  0  0  0  0  0  0  0  0
   32.0905   28.0202   45.1647 H   0  0  0  0  0  0  0  0  0  0  0  0
   33.4316   29.1109   43.4639 H   0  0  0  0  0  0  0  0  0  0  0  0
   35.4400   30.3493   44.1063 H   0  0  0  0  0  0  0  0  0  0  0  0
   36.1048   30.4940   46.4163 H   0  0  0  0  0  0  0  0  0  0  0  0
   39.0752   31.7380   50.6960 H   0  0  0  0  0  0  0  0  0  0  0  0
   38.9847   29.7361   52.2653 H   0  0  0  0  0  0  0  0  0  0  0  0
   37.2820   29.1400   52.5872 H   0  0  0  0  0  0  0  0  0  0  0  0
   40.4501   33.6173   50.8785 N   0  0  0  0  0  0  0  0  0  0  0  0
   39.8838   33.7051   49.8587 C   0  0  0  0  0  0  0  0  0  0  0  0
   39.2139   33.8139   48.6003 C   0  0  0  0  0  0  0  0  0  0  0  0
   38.2670   32.8946   48.2636 C   0  0  0  0  0  0  0  0  0  0  0  0
   37.7804   33.1263   46.9794 C   0  0  0  0  0  0  0  0  0  0  0  0
   37.0180   32.4770   46.5609 H   0  0  0  0  0  0  0  0  0  0  0  0
   38.1837   34.1405   46.1461 C   0  0  0  0  0  0  0  0  0  0  0  0
   37.7607   34.2608   45.1599 H   0  0  0  0  0  0  0  0  0  0  0  0
   39.1379   35.0272   46.5536 C   0  0  0  0  0  0  0  0  0  0  0  0
   39.6609   34.8520   47.8142 C   0  0  0  0  0  0  0  0  0  0  0  0
   39.4503   35.8149   45.9070 H   0  0  0  0  0  0  0  0  0  0  0  0
   40.4100   35.5573   48.1195 H   0  0  0  0  0  0  0  0  0  0  0  0
  1 15  1  0
  1  2  2  0
  3  2  1  0
  4  3  2  0
  5 10  2  0
  5  4  1  0
  6  5  1  0
  7  8  1  0
  7  6  2  0
  8  9  2  0
  9 10  1  0
 10  1  1  0
 11 17  1  0
 12 11  2  0
 13 12  1  0
 14 15  1  0
 14 13  2  0
 15 16  2  0
 16 11  1  0
  3 18  1  0
  6 19  1  0
  7 20  1  0
  8 21  1  0
  9 22  1  0
 12 23  1  0
 17 24  1  0
 17 25  1  0
 26 27  3  0
 27 28  1  0
 28 29  2  0
 29 30  1  0
 30 31  1  0
 30 32  2  0
 32 33  1  0
 32 34  1  0
 34 35  2  0
 35 28  1  0
 34 36  1  0
 35 37  1  0
 13 29  1  0
M  ISO  8  18  14  19  14  20  14  21  14  22  14  23  14  31  15  33  16
M  END
>  <DihAtoms>  (1) 
11,12,28,27

>  <DihDeg>  (1) 
22.659649276048714

$$$$
