
 OpenBabel03272509233D

 47 51  0  0  0  0  0  0  0  0999 V2000
   37.7910   27.7850   32.6240 O   0  0  0  0  0  0  0  0  0  0  0  0
   38.2690   25.8690   34.1600 C   0  0  0  0  0  0  0  0  0  0  0  0
   37.7910   26.4710   33.0140 C   0  0  0  0  0  0  0  0  0  0  0  0
   37.1900   25.6740   32.0330 C   0  0  0  0  0  0  0  0  0  0  0  0
   37.0770   24.2900   32.2160 C   0  0  0  0  0  0  0  0  0  0  0  0
   36.5750   23.2730   31.4980 N   0  0  0  0  0  0  0  0  0  0  0  0
   36.7250   22.1060   32.1490 C   0  0  0  0  0  0  0  0  0  0  0  0
   37.3470   22.3980   33.3210 N   0  0  0  0  0  0  0  0  0  0  0  0
   37.5690   23.7300   33.3790 C   0  0  0  0  0  0  0  0  0  0  0  0
   38.1620   24.5090   34.3480 C   0  0  0  0  0  0  0  0  0  0  0  0
   38.7060   26.5750   34.8350 H   0  0  0  0  0  0  0  0  0  0  0  0
   36.7710   25.9970   31.0890 H   0  0  0  0  0  0  0  0  0  0  0  0
   36.1340   23.3670   30.5800 H   0  0  0  0  0  0  0  0  0  0  0  0
   36.4150   21.1430   31.8080 H   0  0  0  0  0  0  0  0  0  0  0  0
   39.9090   23.3220   35.7530 C   0  0  0  0  0  0  0  0  0  0  0  0
   38.6950   23.9570   35.5890 C   0  0  0  0  0  0  0  0  0  0  0  0
   37.8340   24.1320   36.6610 C   0  0  0  0  0  0  0  0  0  0  0  0
   36.8530   24.6270   36.6030 H   0  0  0  0  0  0  0  0  0  0  0  0
   38.1690   23.6710   37.9300 C   0  0  0  0  0  0  0  0  0  0  0  0
   37.4870   23.8100   38.7700 H   0  0  0  0  0  0  0  0  0  0  0  0
   39.4030   23.0290   38.0780 C   0  0  0  0  0  3  0  0  0  0  0  0
   40.2580   22.8590   37.0040 C   0  0  0  0  0  3  0  0  0  0  0  0
   41.3820   23.1130   33.6370 N   0  0  0  0  0  0  0  0  0  0  0  0
   40.7220   23.1960   34.5780 C   0  0  0  0  0  0  0  0  0  0  0  0
   35.9960   29.0510   33.6590 C   0  0  0  0  0  0  0  0  0  0  0  0
   34.9160   29.9110   33.6590 C   0  0  0  0  0  0  0  0  0  0  0  0
   34.5670   30.3860   32.3900 C   0  0  0  0  0  0  0  0  0  0  0  0
   35.2700   30.0080   31.2310 C   0  0  0  0  0  0  0  0  0  0  0  0
   36.3550   29.1250   31.3540 C   0  0  0  0  0  0  0  0  0  0  0  0
   36.7110   28.6460   32.6040 C   0  0  0  0  0  0  0  0  0  0  0  0
   33.7320   31.0610   32.3220 H   0  0  0  0  0  0  0  0  0  0  0  0
   34.9570   30.4060   30.2750 H   0  0  0  0  0  0  0  0  0  0  0  0
   36.8680   28.8600   30.4320 H   0  0  0  0  0  0  0  0  0  0  0  0
   32.9990   29.6780   35.1550 C   0  0  0  0  0  0  0  0  0  0  0  0
   34.2010   30.2980   34.8310 C   0  0  0  0  0  0  0  0  0  0  0  0
   34.6730   31.3050   35.6910 C   0  0  0  0  0  0  0  0  0  0  0  0
   33.9380   31.6190   36.7840 N   0  0  0  0  0  0  0  0  0  0  0  0
   32.7600   30.9790   37.0610 C   0  0  0  0  0  0  0  0  0  0  0  0
   32.3030   30.0210   36.2520 N   0  0  0  0  0  0  0  0  0  0  0  0
   32.5700   28.8990   34.5510 H   0  0  0  0  0  0  0  0  0  0  0  0
   32.3310   31.3680   37.9680 H   0  0  0  0  0  0  0  0  0  0  0  0
   35.9510   32.0020   35.3940 C   0  0  0  0  0  0  0  0  0  0  0  0
   36.2100   31.8120   34.3410 H   0  0  0  0  0  0  0  0  0  0  0  0
   36.7330   31.5150   36.0130 H   0  0  0  0  0  0  0  0  0  0  0  0
   35.8840   33.0620   35.6640 H   0  0  0  0  0  0  0  0  0  0  0  0
   36.4240   28.5200   34.8810 O   0  0  0  0  0  0  0  0  0  0  0  0
   35.7730   27.9230   35.3660 H   0  0  0  0  0  0  0  0  0  0  0  0
  1  3  1  0  0  0  0
  2 10  1  0  0  0  0
  2 11  1  0  0  0  0
  3  2  2  0  0  0  0
  4  5  2  0  0  0  0
  4  3  1  0  0  0  0
  5  9  1  0  0  0  0
  6  7  1  0  0  0  0
  6  5  1  0  0  0  0
  7  8  2  0  0  0  0
  8  9  1  0  0  0  0
  9 10  2  0  0  0  0
 10 16  1  0  0  0  0
 12  4  1  0  0  0  0
 13  6  1  0  0  0  0
 14  7  1  0  0  0  0
 15 22  1  0  0  0  0
 16 15  2  0  0  0  0
 16 17  1  0  0  0  0
 17 19  2  0  0  0  0
 18 17  1  0  0  0  0
 19 21  1  0  0  0  0
 19 20  1  0  0  0  0
 22 21  2  0  0  0  0
 23 24  3  0  0  0  0
 24 15  1  0  0  0  0
 25 46  1  0  0  0  0
 26 25  1  0  0  0  0
 26 35  1  0  0  0  0
 27 26  2  0  0  0  0
 28 29  2  0  0  0  0
 28 27  1  0  0  0  0
 29 30  1  0  0  0  0
 30  1  1  0  0  0  0
 30 25  2  0  0  0  0
 31 27  1  0  0  0  0
 32 28  1  0  0  0  0
 33 29  1  0  0  0  0
 34 39  1  0  0  0  0
 35 34  2  0  0  0  0
 35 36  1  0  0  0  0
 36 37  2  0  0  0  0
 37 38  1  0  0  0  0
 38 41  1  0  0  0  0
 39 38  2  0  0  0  0
 40 34  1  0  0  0  0
 42 45  1  0  0  0  0
 42 36  1  0  0  0  0
 42 44  1  0  0  0  0
 43 42  1  0  0  0  0
 46 47  1  0  0  0  0
M  END
>  <minimizedAffinity>
-6.72845888

$$$$

 OpenBabel03272509233D

 47 51  0  0  0  0  0  0  0  0999 V2000
   37.5480   27.9330   32.6630 O   0  0  0  0  0  0  0  0  0  0  0  0
   35.7820   29.1800   33.9210 C   0  0  0  0  0  0  0  0  0  0  0  0
   36.5190   28.8250   32.8090 C   0  0  0  0  0  0  0  0  0  0  0  0
   36.2280   29.4350   31.5850 C   0  0  0  0  0  0  0  0  0  0  0  0
   35.2080   30.3890   31.4920 C   0  0  0  0  0  0  0  0  0  0  0  0
   34.6900   31.1370   30.5050 N   0  0  0  0  0  0  0  0  0  0  0  0
   33.6910   31.9130   30.9640 C   0  0  0  0  0  0  0  0  0  0  0  0
   33.5750   31.6440   32.2900 N   0  0  0  0  0  0  0  0  0  0  0  0
   34.4950   30.7140   32.6300 C   0  0  0  0  0  0  0  0  0  0  0  0
   34.7760   30.1170   33.8400 C   0  0  0  0  0  0  0  0  0  0  0  0
   36.0930   28.6500   34.7970 H   0  0  0  0  0  0  0  0  0  0  0  0
   36.7140   29.2640   30.6320 H   0  0  0  0  0  0  0  0  0  0  0  0
   35.0080   31.1240   29.5330 H   0  0  0  0  0  0  0  0  0  0  0  0
   33.1100   32.6030   30.3950 H   0  0  0  0  0  0  0  0  0  0  0  0
   34.3730   31.4010   35.9890 C   0  0  0  0  0  0  0  0  0  0  0  0
   34.0480   30.4300   35.0640 C   0  0  0  0  0  0  0  0  0  0  0  0
   32.9310   29.6290   35.2390 C   0  0  0  0  0  0  0  0  0  0  0  0
   32.6130   28.8370   34.5440 H   0  0  0  0  0  0  0  0  0  0  0  0
   32.1090   29.7800   36.3510 C   0  0  0  0  0  0  0  0  0  0  0  0
   31.2310   29.1440   36.4840 H   0  0  0  0  0  0  0  0  0  0  0  0
   32.4530   30.7670   37.2790 C   0  0  0  0  0  3  0  0  0  0  0  0
   33.5690   31.5650   37.0980 C   0  0  0  0  0  3  0  0  0  0  0  0
   36.5030   32.7810   35.4900 N   0  0  0  0  0  0  0  0  0  0  0  0
   35.5490   32.1750   35.7100 C   0  0  0  0  0  0  0  0  0  0  0  0
   38.0260   25.9760   34.0180 C   0  0  0  0  0  0  0  0  0  0  0  0
   38.0090   24.6260   34.3090 C   0  0  0  0  0  0  0  0  0  0  0  0
   37.3840   23.8410   33.3350 C   0  0  0  0  0  0  0  0  0  0  0  0
   36.8280   24.4010   32.1690 C   0  0  0  0  0  0  0  0  0  0  0  0
   36.9050   25.7900   31.9800 C   0  0  0  0  0  0  0  0  0  0  0  0
   37.5220   26.5790   32.9370 C   0  0  0  0  0  0  0  0  0  0  0  0
   37.3380   22.7800   33.5020 H   0  0  0  0  0  0  0  0  0  0  0  0
   36.3560   23.7470   31.4470 H   0  0  0  0  0  0  0  0  0  0  0  0
   36.4630   26.1780   31.0650 H   0  0  0  0  0  0  0  0  0  0  0  0
   37.8030   23.9360   36.6440 C   0  0  0  0  0  0  0  0  0  0  0  0
   38.5700   24.0550   35.4900 C   0  0  0  0  0  0  0  0  0  0  0  0
   39.8980   23.5970   35.5350 C   0  0  0  0  0  0  0  0  0  0  0  0
   40.3610   23.0670   36.6930 N   0  0  0  0  0  0  0  0  0  0  0  0
   39.5660   22.9720   37.8030 C   0  0  0  0  0  0  0  0  0  0  0  0
   38.3040   23.4030   37.7710 N   0  0  0  0  0  0  0  0  0  0  0  0
   36.7790   24.2620   36.6920 H   0  0  0  0  0  0  0  0  0  0  0  0
   40.1140   22.5260   38.6150 H   0  0  0  0  0  0  0  0  0  0  0  0
   40.7650   23.6990   34.3330 C   0  0  0  0  0  0  0  0  0  0  0  0
   40.3000   24.4100   33.6340 H   0  0  0  0  0  0  0  0  0  0  0  0
   40.7480   22.7030   33.8410 H   0  0  0  0  0  0  0  0  0  0  0  0
   41.7940   23.9430   34.6190 H   0  0  0  0  0  0  0  0  0  0  0  0
   38.6300   26.8470   34.9330 O   0  0  0  0  0  0  0  0  0  0  0  0
   39.6190   26.7250   35.0850 H   0  0  0  0  0  0  0  0  0  0  0  0
  1  3  1  0  0  0  0
  1 30  1  0  0  0  0
  2 11  1  0  0  0  0
  3  2  2  0  0  0  0
  4  3  1  0  0  0  0
  5  4  2  0  0  0  0
  5  9  1  0  0  0  0
  6  7  1  0  0  0  0
  6  5  1  0  0  0  0
  7  8  2  0  0  0  0
  8  9  1  0  0  0  0
  9 10  2  0  0  0  0
 10  2  1  0  0  0  0
 10 16  1  0  0  0  0
 12  4  1  0  0  0  0
 13  6  1  0  0  0  0
 14  7  1  0  0  0  0
 15 22  1  0  0  0  0
 16 17  1  0  0  0  0
 16 15  2  0  0  0  0
 17 19  2  0  0  0  0
 18 17  1  0  0  0  0
 19 20  1  0  0  0  0
 19 21  1  0  0  0  0
 22 21  2  0  0  0  0
 23 24  3  0  0  0  0
 24 15  1  0  0  0  0
 25 26  1  0  0  0  0
 25 46  1  0  0  0  0
 26 35  1  0  0  0  0
 27 31  1  0  0  0  0
 27 26  2  0  0  0  0
 28 27  1  0  0  0  0
 29 28  2  0  0  0  0
 29 30  1  0  0  0  0
 30 25  2  0  0  0  0
 32 28  1  0  0  0  0
 33 29  1  0  0  0  0
 34 40  1  0  0  0  0
 34 39  1  0  0  0  0
 35 36  1  0  0  0  0
 35 34  2  0  0  0  0
 36 37  2  0  0  0  0
 37 38  1  0  0  0  0
 38 41  1  0  0  0  0
 39 38  2  0  0  0  0
 42 45  1  0  0  0  0
 42 36  1  0  0  0  0
 43 42  1  0  0  0  0
 44 42  1  0  0  0  0
 46 47  1  0  0  0  0
M  END
>  <minimizedAffinity>
-6.71481848

$$$$

 OpenBabel03272509233D

 47 51  0  0  0  0  0  0  0  0999 V2000
   37.3450   27.0210   32.7890 O   0  0  0  0  0  0  0  0  0  0  0  0
   36.0060   28.8280   33.8850 C   0  0  0  0  0  0  0  0  0  0  0  0
   36.6590   28.2060   32.8400 C   0  0  0  0  0  0  0  0  0  0  0  0
   36.6710   28.8270   31.5860 C   0  0  0  0  0  0  0  0  0  0  0  0
   36.0300   30.0580   31.3990 C   0  0  0  0  0  0  0  0  0  0  0  0
   35.8560   30.8930   30.3630 N   0  0  0  0  0  0  0  0  0  0  0  0
   35.1400   31.9710   30.7300 C   0  0  0  0  0  0  0  0  0  0  0  0
   34.8510   31.8090   32.0470 N   0  0  0  0  0  0  0  0  0  0  0  0
   35.3870   30.6440   32.4730 C   0  0  0  0  0  0  0  0  0  0  0  0
   35.3720   30.0370   33.7100 C   0  0  0  0  0  0  0  0  0  0  0  0
   36.0630   28.2610   34.7910 H   0  0  0  0  0  0  0  0  0  0  0  0
   37.1370   28.4680   30.6780 H   0  0  0  0  0  0  0  0  0  0  0  0
   36.2180   30.7370   29.4190 H   0  0  0  0  0  0  0  0  0  0  0  0
   34.8580   32.7900   30.1060 H   0  0  0  0  0  0  0  0  0  0  0  0
   33.3800   30.4680   35.2200 C   0  0  0  0  0  0  0  0  0  0  0  0
   34.7050   30.6220   34.8690 C   0  0  0  0  0  0  0  0  0  0  0  0
   35.5600   31.3930   35.6400 C   0  0  0  0  0  0  0  0  0  0  0  0
   36.6250   31.5590   35.4210 H   0  0  0  0  0  0  0  0  0  0  0  0
   35.1060   32.0320   36.7890 C   0  0  0  0  0  0  0  0  0  0  0  0
   35.7830   32.6390   37.3930 H   0  0  0  0  0  0  0  0  0  0  0  0
   33.7600   31.8660   37.1310 C   0  0  0  0  0  3  0  0  0  0  0  0
   32.9120   31.0940   36.3560 C   0  0  0  0  0  3  0  0  0  0  0  0
   31.9560   28.9750   33.6600 N   0  0  0  0  0  0  0  0  0  0  0  0
   32.5850   29.6480   34.3510 C   0  0  0  0  0  0  0  0  0  0  0  0
   37.6270   24.7080   32.1080 C   0  0  0  0  0  0  0  0  0  0  0  0
   37.2210   23.5170   31.5370 C   0  0  0  0  0  0  0  0  0  0  0  0
   35.9190   23.5460   31.0260 C   0  0  0  0  0  0  0  0  0  0  0  0
   35.1130   24.6970   31.1000 C   0  0  0  0  0  0  0  0  0  0  0  0
   35.6340   25.8520   31.7040 C   0  0  0  0  0  0  0  0  0  0  0  0
   36.9220   25.8390   32.2140 C   0  0  0  0  0  0  0  0  0  0  0  0
   35.5440   22.6480   30.5680 H   0  0  0  0  0  0  0  0  0  0  0  0
   34.1130   24.6630   30.6880 H   0  0  0  0  0  0  0  0  0  0  0  0
   34.9750   26.7180   31.7380 H   0  0  0  0  0  0  0  0  0  0  0  0
   38.8260   22.1160   30.3420 C   0  0  0  0  0  0  0  0  0  0  0  0
   38.0340   22.3480   31.4620 C   0  0  0  0  0  0  0  0  0  0  0  0
   38.0680   21.3980   32.4970 C   0  0  0  0  0  0  0  0  0  0  0  0
   38.8640   20.3110   32.3530 N   0  0  0  0  0  0  0  0  0  0  0  0
   39.6260   20.1280   31.2310 C   0  0  0  0  0  0  0  0  0  0  0  0
   39.6020   21.0230   30.2420 N   0  0  0  0  0  0  0  0  0  0  0  0
   38.8580   22.7930   29.5080 H   0  0  0  0  0  0  0  0  0  0  0  0
   40.1850   19.2120   31.3080 H   0  0  0  0  0  0  0  0  0  0  0  0
   37.2420   21.5930   33.7170 C   0  0  0  0  0  0  0  0  0  0  0  0
   36.4750   22.3500   33.4950 H   0  0  0  0  0  0  0  0  0  0  0  0
   37.9110   22.0260   34.4910 H   0  0  0  0  0  0  0  0  0  0  0  0
   36.8500   20.6340   34.0740 H   0  0  0  0  0  0  0  0  0  0  0  0
   38.9160   24.7820   32.6480 O   0  0  0  0  0  0  0  0  0  0  0  0
   39.6820   24.6690   32.0030 H   0  0  0  0  0  0  0  0  0  0  0  0
  1  3  1  0  0  0  0
  2 11  1  0  0  0  0
  3  2  2  0  0  0  0
  4  3  1  0  0  0  0
  5  4  2  0  0  0  0
  5  9  1  0  0  0  0
  6  7  1  0  0  0  0
  6  5  1  0  0  0  0
  7  8  2  0  0  0  0
  8  9  1  0  0  0  0
  9 10  2  0  0  0  0
 10  2  1  0  0  0  0
 10 16  1  0  0  0  0
 12  4  1  0  0  0  0
 13  6  1  0  0  0  0
 14  7  1  0  0  0  0
 15 22  1  0  0  0  0
 16 15  2  0  0  0  0
 16 17  1  0  0  0  0
 17 19  2  0  0  0  0
 18 17  1  0  0  0  0
 19 21  1  0  0  0  0
 19 20  1  0  0  0  0
 22 21  2  0  0  0  0
 23 24  3  0  0  0  0
 24 15  1  0  0  0  0
 25 30  1  0  0  0  0
 25 46  1  0  0  0  0
 26 25  2  0  0  0  0
 27 28  2  0  0  0  0
 27 26  1  0  0  0  0
 28 29  1  0  0  0  0
 29 33  1  0  0  0  0
 29 30  2  0  0  0  0
 30  1  1  0  0  0  0
 31 27  1  0  0  0  0
 32 28  1  0  0  0  0
 34 35  1  0  0  0  0
 35 26  1  0  0  0  0
 35 36  2  0  0  0  0
 36 42  1  0  0  0  0
 37 36  1  0  0  0  0
 38 41  1  0  0  0  0
 38 37  2  0  0  0  0
 39 34  2  0  0  0  0
 39 38  1  0  0  0  0
 40 34  1  0  0  0  0
 42 45  1  0  0  0  0
 42 44  1  0  0  0  0
 43 42  1  0  0  0  0
 47 46  1  0  0  0  0
M  END
>  <minimizedAffinity>
-6.59311247

$$$$

 OpenBabel03272509233D

 47 51  0  0  0  0  0  0  0  0999 V2000
   37.2070   28.2820   32.0200 O   0  0  0  0  0  0  0  0  0  0  0  0
   35.6050   29.5040   33.5030 C   0  0  0  0  0  0  0  0  0  0  0  0
   36.2270   29.1940   32.3100 C   0  0  0  0  0  0  0  0  0  0  0  0
   35.8500   29.8850   31.1540 C   0  0  0  0  0  0  0  0  0  0  0  0
   34.8600   30.8730   31.2090 C   0  0  0  0  0  0  0  0  0  0  0  0
   34.2830   31.6940   30.3170 N   0  0  0  0  0  0  0  0  0  0  0  0
   33.3580   32.4710   30.9090 C   0  0  0  0  0  0  0  0  0  0  0  0
   33.3500   32.1270   32.2230 N   0  0  0  0  0  0  0  0  0  0  0  0
   34.2630   31.1500   32.4240 C   0  0  0  0  0  0  0  0  0  0  0  0
   34.6300   30.4730   33.5670 C   0  0  0  0  0  0  0  0  0  0  0  0
   35.9740   28.9130   34.3160 H   0  0  0  0  0  0  0  0  0  0  0  0
   36.2430   29.7570   30.1530 H   0  0  0  0  0  0  0  0  0  0  0  0
   34.5120   31.7300   29.3210 H   0  0  0  0  0  0  0  0  0  0  0  0
   32.7520   33.2120   30.4350 H   0  0  0  0  0  0  0  0  0  0  0  0
   32.8200   30.2460   35.3290 C   0  0  0  0  0  0  0  0  0  0  0  0
   34.0250   30.7350   34.8680 C   0  0  0  0  0  0  0  0  0  0  0  0
   34.8040   31.5650   35.6590 C   0  0  0  0  0  0  0  0  0  0  0  0
   35.7720   31.9910   35.3570 H   0  0  0  0  0  0  0  0  0  0  0  0
   34.3920   31.9280   36.9370 C   0  0  0  0  0  0  0  0  0  0  0  0
   35.0090   32.5830   37.5550 H   0  0  0  0  0  0  0  0  0  0  0  0
   33.1680   31.4240   37.3880 C   0  0  0  0  0  3  0  0  0  0  0  0
   32.3950   30.5950   36.5940 C   0  0  0  0  0  3  0  0  0  0  0  0
   31.4980   28.7140   33.7180 N   0  0  0  0  0  0  0  0  0  0  0  0
   32.0950   29.3950   34.4300 C   0  0  0  0  0  0  0  0  0  0  0  0
   37.1620   25.8550   32.0520 C   0  0  0  0  0  0  0  0  0  0  0  0
   37.3440   24.6110   32.6250 C   0  0  0  0  0  0  0  0  0  0  0  0
   37.8280   24.6540   33.9360 C   0  0  0  0  0  0  0  0  0  0  0  0
   38.0990   25.8690   34.5930 C   0  0  0  0  0  0  0  0  0  0  0  0
   37.8750   27.0750   33.9090 C   0  0  0  0  0  0  0  0  0  0  0  0
   37.3960   27.0470   32.6100 C   0  0  0  0  0  0  0  0  0  0  0  0
   37.9910   23.7180   34.4390 H   0  0  0  0  0  0  0  0  0  0  0  0
   38.4720   25.8440   35.6090 H   0  0  0  0  0  0  0  0  0  0  0  0
   38.0980   27.9880   34.4560 H   0  0  0  0  0  0  0  0  0  0  0  0
   35.7950   22.8290   32.0010 C   0  0  0  0  0  0  0  0  0  0  0  0
   37.0720   23.3780   31.9630 C   0  0  0  0  0  0  0  0  0  0  0  0
   38.0660   22.6770   31.2570 C   0  0  0  0  0  0  0  0  0  0  0  0
   37.7320   21.5110   30.6550 N   0  0  0  0  0  0  0  0  0  0  0  0
   36.4600   21.0110   30.7210 C   0  0  0  0  0  0  0  0  0  0  0  0
   35.5080   21.6680   31.3870 N   0  0  0  0  0  0  0  0  0  0  0  0
   34.9790   23.3010   32.5180 H   0  0  0  0  0  0  0  0  0  0  0  0
   36.3980   20.0830   30.1810 H   0  0  0  0  0  0  0  0  0  0  0  0
   39.4490   23.2160   31.1830 C   0  0  0  0  0  0  0  0  0  0  0  0
   39.5630   23.9800   31.9670 H   0  0  0  0  0  0  0  0  0  0  0  0
   39.5380   23.7380   30.2070 H   0  0  0  0  0  0  0  0  0  0  0  0
   40.1820   22.4030   31.2260 H   0  0  0  0  0  0  0  0  0  0  0  0
   36.6800   25.9190   30.7390 O   0  0  0  0  0  0  0  0  0  0  0  0
   35.7520   25.5570   30.5820 H   0  0  0  0  0  0  0  0  0  0  0  0
  1  3  1  0  0  0  0
  1 30  1  0  0  0  0
  2 10  1  0  0  0  0
  2 11  1  0  0  0  0
  3  2  2  0  0  0  0
  4  5  2  0  0  0  0
  4  3  1  0  0  0  0
  5  9  1  0  0  0  0
  6  7  1  0  0  0  0
  6  5  1  0  0  0  0
  7  8  2  0  0  0  0
  8  9  1  0  0  0  0
  9 10  2  0  0  0  0
 10 16  1  0  0  0  0
 12  4  1  0  0  0  0
 13  6  1  0  0  0  0
 14  7  1  0  0  0  0
 15 22  1  0  0  0  0
 16 15  2  0  0  0  0
 16 17  1  0  0  0  0
 17 19  2  0  0  0  0
 18 17  1  0  0  0  0
 19 21  1  0  0  0  0
 19 20  1  0  0  0  0
 22 21  2  0  0  0  0
 23 24  3  0  0  0  0
 24 15  1  0  0  0  0
 25 30  2  0  0  0  0
 25 26  1  0  0  0  0
 26 27  2  0  0  0  0
 27 31  1  0  0  0  0
 27 28  1  0  0  0  0
 28 32  1  0  0  0  0
 29 33  1  0  0  0  0
 29 28  2  0  0  0  0
 30 29  1  0  0  0  0
 34 40  1  0  0  0  0
 35 34  1  0  0  0  0
 35 26  1  0  0  0  0
 36 35  2  0  0  0  0
 37 38  2  0  0  0  0
 37 36  1  0  0  0  0
 38 39  1  0  0  0  0
 39 34  2  0  0  0  0
 41 38  1  0  0  0  0
 42 45  1  0  0  0  0
 42 36  1  0  0  0  0
 42 43  1  0  0  0  0
 44 42  1  0  0  0  0
 46 25  1  0  0  0  0
 47 46  1  0  0  0  0
M  END
>  <minimizedAffinity>
-6.44717216

$$$$

 OpenBabel03272509233D

 47 51  0  0  0  0  0  0  0  0999 V2000
   37.3890   27.8090   31.2460 O   0  0  0  0  0  0  0  0  0  0  0  0
   36.1440   29.3310   32.7940 C   0  0  0  0  0  0  0  0  0  0  0  0
   36.6950   28.9400   31.5900 C   0  0  0  0  0  0  0  0  0  0  0  0
   36.5670   29.7860   30.4830 C   0  0  0  0  0  0  0  0  0  0  0  0
   35.8920   31.0080   30.5980 C   0  0  0  0  0  0  0  0  0  0  0  0
   35.6000   32.0170   29.7630 N   0  0  0  0  0  0  0  0  0  0  0  0
   34.9100   32.9810   30.3980 C   0  0  0  0  0  0  0  0  0  0  0  0
   34.7620   32.5640   31.6820 N   0  0  0  0  0  0  0  0  0  0  0  0
   35.3560   31.3590   31.8230 C   0  0  0  0  0  0  0  0  0  0  0  0
   35.4780   30.5300   32.9160 C   0  0  0  0  0  0  0  0  0  0  0  0
   36.3040   28.6060   33.5650 H   0  0  0  0  0  0  0  0  0  0  0  0
   36.9420   29.6200   29.4810 H   0  0  0  0  0  0  0  0  0  0  0  0
   35.8650   32.0540   28.7750 H   0  0  0  0  0  0  0  0  0  0  0  0
   34.5540   33.8930   29.9720 H   0  0  0  0  0  0  0  0  0  0  0  0
   33.6690   30.5430   34.6940 C   0  0  0  0  0  0  0  0  0  0  0  0
   34.9270   30.8620   34.2260 C   0  0  0  0  0  0  0  0  0  0  0  0
   35.8210   31.5680   35.0150 C   0  0  0  0  0  0  0  0  0  0  0  0
   36.8370   31.8570   34.7060 H   0  0  0  0  0  0  0  0  0  0  0  0
   35.4750   31.9740   36.2990 C   0  0  0  0  0  0  0  0  0  0  0  0
   36.1830   32.5310   36.9160 H   0  0  0  0  0  0  0  0  0  0  0  0
   34.1960   31.6430   36.7580 C   0  0  0  0  0  3  0  0  0  0  0  0
   33.3080   30.9380   35.9650 C   0  0  0  0  0  3  0  0  0  0  0  0
   32.1460   29.2070   33.0870 N   0  0  0  0  0  0  0  0  0  0  0  0
   32.8250   29.8100   33.7950 C   0  0  0  0  0  0  0  0  0  0  0  0
   38.0000   26.1170   32.8750 C   0  0  0  0  0  0  0  0  0  0  0  0
   38.8830   25.4090   33.6670 C   0  0  0  0  0  0  0  0  0  0  0  0
   40.2150   25.8160   33.5380 C   0  0  0  0  0  0  0  0  0  0  0  0
   40.5980   26.8560   32.6700 C   0  0  0  0  0  0  0  0  0  0  0  0
   39.6100   27.5050   31.9120 C   0  0  0  0  0  0  0  0  0  0  0  0
   38.2870   27.1130   32.0310 C   0  0  0  0  0  0  0  0  0  0  0  0
   40.9530   25.3030   34.1290 H   0  0  0  0  0  0  0  0  0  0  0  0
   41.6430   27.1290   32.6090 H   0  0  0  0  0  0  0  0  0  0  0  0
   39.9520   28.3020   31.2560 H   0  0  0  0  0  0  0  0  0  0  0  0
   38.4790   23.0390   34.0960 C   0  0  0  0  0  0  0  0  0  0  0  0
   38.5000   24.3540   34.5470 C   0  0  0  0  0  0  0  0  0  0  0  0
   38.1340   24.5960   35.8830 C   0  0  0  0  0  0  0  0  0  0  0  0
   37.7810   23.5430   36.6580 N   0  0  0  0  0  0  0  0  0  0  0  0
   37.7750   22.2650   36.1670 C   0  0  0  0  0  0  0  0  0  0  0  0
   38.1210   22.0240   34.9020 N   0  0  0  0  0  0  0  0  0  0  0  0
   38.7440   22.7700   33.0900 H   0  0  0  0  0  0  0  0  0  0  0  0
   37.4680   21.5750   36.9340 H   0  0  0  0  0  0  0  0  0  0  0  0
   38.1380   25.9820   36.4190 C   0  0  0  0  0  0  0  0  0  0  0  0
   38.1580   26.6790   35.5690 H   0  0  0  0  0  0  0  0  0  0  0  0
   39.0960   26.1110   36.9670 H   0  0  0  0  0  0  0  0  0  0  0  0
   37.3030   26.1290   37.1130 H   0  0  0  0  0  0  0  0  0  0  0  0
   36.6420   25.7850   32.9330 O   0  0  0  0  0  0  0  0  0  0  0  0
   36.1800   25.9290   33.8180 H   0  0  0  0  0  0  0  0  0  0  0  0
  1  3  1  0  0  0  0
  1 30  1  0  0  0  0
  2 10  1  0  0  0  0
  2 11  1  0  0  0  0
  3  2  2  0  0  0  0
  4  5  2  0  0  0  0
  4  3  1  0  0  0  0
  5  9  1  0  0  0  0
  6  7  1  0  0  0  0
  6  5  1  0  0  0  0
  7  8  2  0  0  0  0
  8  9  1  0  0  0  0
  9 10  2  0  0  0  0
 10 16  1  0  0  0  0
 12  4  1  0  0  0  0
 13  6  1  0  0  0  0
 14  7  1  0  0  0  0
 15 22  1  0  0  0  0
 16 15  2  0  0  0  0
 16 17  1  0  0  0  0
 17 19  2  0  0  0  0
 18 17  1  0  0  0  0
 19 21  1  0  0  0  0
 19 20  1  0  0  0  0
 22 21  2  0  0  0  0
 23 24  3  0  0  0  0
 24 15  1  0  0  0  0
 25 46  1  0  0  0  0
 25 26  1  0  0  0  0
 26 35  1  0  0  0  0
 27 26  2  0  0  0  0
 27 31  1  0  0  0  0
 28 27  1  0  0  0  0
 29 30  1  0  0  0  0
 29 28  2  0  0  0  0
 30 25  2  0  0  0  0
 32 28  1  0  0  0  0
 33 29  1  0  0  0  0
 34 35  2  0  0  0  0
 34 39  1  0  0  0  0
 35 36  1  0  0  0  0
 36 42  1  0  0  0  0
 36 37  2  0  0  0  0
 38 37  1  0  0  0  0
 38 41  1  0  0  0  0
 39 38  2  0  0  0  0
 40 34  1  0  0  0  0
 42 44  1  0  0  0  0
 42 45  1  0  0  0  0
 43 42  1  0  0  0  0
 46 47  1  0  0  0  0
M  END
>  <minimizedAffinity>
-6.43977404

$$$$

 OpenBabel03272509233D

 47 51  0  0  0  0  0  0  0  0999 V2000
   36.9970   27.2950   32.9530 O   0  0  0  0  0  0  0  0  0  0  0  0
   35.6050   29.0210   34.1120 C   0  0  0  0  0  0  0  0  0  0  0  0
   36.2290   28.4270   33.0340 C   0  0  0  0  0  0  0  0  0  0  0  0
   36.1060   29.0200   31.7730 C   0  0  0  0  0  0  0  0  0  0  0  0
   35.3620   30.1960   31.6110 C   0  0  0  0  0  0  0  0  0  0  0  0
   35.0540   30.9930   30.5770 N   0  0  0  0  0  0  0  0  0  0  0  0
   34.2860   32.0230   30.9760 C   0  0  0  0  0  0  0  0  0  0  0  0
   34.1030   31.8680   32.3130 N   0  0  0  0  0  0  0  0  0  0  0  0
   34.7540   30.7550   32.7180 C   0  0  0  0  0  0  0  0  0  0  0  0
   34.8710   30.1760   33.9630 C   0  0  0  0  0  0  0  0  0  0  0  0
   35.7680   28.4790   35.0210 H   0  0  0  0  0  0  0  0  0  0  0  0
   36.5340   28.6770   30.8390 H   0  0  0  0  0  0  0  0  0  0  0  0
   35.3600   30.8440   29.6120 H   0  0  0  0  0  0  0  0  0  0  0  0
   33.9010   32.8050   30.3600 H   0  0  0  0  0  0  0  0  0  0  0  0
   32.9690   30.4760   35.6140 C   0  0  0  0  0  0  0  0  0  0  0  0
   34.2450   30.7340   35.1570 C   0  0  0  0  0  0  0  0  0  0  0  0
   35.0830   31.5990   35.8410 C   0  0  0  0  0  0  0  0  0  0  0  0
   36.1100   31.8520   35.5350 H   0  0  0  0  0  0  0  0  0  0  0  0
   34.6620   32.2310   37.0070 C   0  0  0  0  0  0  0  0  0  0  0  0
   35.3260   32.9120   37.5420 H   0  0  0  0  0  0  0  0  0  0  0  0
   33.3660   31.9580   37.4570 C   0  0  0  0  0  3  0  0  0  0  0  0
   32.5340   31.0920   36.7690 C   0  0  0  0  0  3  0  0  0  0  0  0
   31.5530   28.8470   34.1890 N   0  0  0  0  0  0  0  0  0  0  0  0
   32.1870   29.5640   34.8300 C   0  0  0  0  0  0  0  0  0  0  0  0
   39.3950   27.1260   32.6150 C   0  0  0  0  0  0  0  0  0  0  0  0
   40.7050   26.9740   33.0260 C   0  0  0  0  0  0  0  0  0  0  0  0
   40.8530   26.8200   34.4080 C   0  0  0  0  0  0  0  0  0  0  0  0
   39.7510   26.8250   35.2830 C   0  0  0  0  0  0  0  0  0  0  0  0
   38.4620   26.9880   34.7500 C   0  0  0  0  0  0  0  0  0  0  0  0
   38.3000   27.1410   33.3830 C   0  0  0  0  0  0  0  0  0  0  0  0
   41.8500   26.6970   34.7920 H   0  0  0  0  0  0  0  0  0  0  0  0
   39.9240   26.7020   36.3440 H   0  0  0  0  0  0  0  0  0  0  0  0
   37.6410   26.9840   35.4630 H   0  0  0  0  0  0  0  0  0  0  0  0
   42.5060   28.1510   31.8700 C   0  0  0  0  0  0  0  0  0  0  0  0
   41.8250   26.9700   32.1430 C   0  0  0  0  0  0  0  0  0  0  0  0
   42.2780   25.7930   31.5220 C   0  0  0  0  0  0  0  0  0  0  0  0
   43.3480   25.8680   30.6950 N   0  0  0  0  0  0  0  0  0  0  0  0
   43.9860   27.0560   30.4580 C   0  0  0  0  0  0  0  0  0  0  0  0
   43.5650   28.1790   31.0420 N   0  0  0  0  0  0  0  0  0  0  0  0
   42.2240   29.0930   32.3050 H   0  0  0  0  0  0  0  0  0  0  0  0
   44.8060   26.9070   29.7780 H   0  0  0  0  0  0  0  0  0  0  0  0
   41.5880   24.5020   31.7760 C   0  0  0  0  0  0  0  0  0  0  0  0
   40.6030   24.7190   32.2150 H   0  0  0  0  0  0  0  0  0  0  0  0
   42.1780   23.9700   32.5520 H   0  0  0  0  0  0  0  0  0  0  0  0
   41.5590   23.8940   30.8640 H   0  0  0  0  0  0  0  0  0  0  0  0
   39.1400   27.2880   31.2480 O   0  0  0  0  0  0  0  0  0  0  0  0
   39.3830   26.5130   30.6500 H   0  0  0  0  0  0  0  0  0  0  0  0
  1  3  1  0  0  0  0
  1 30  1  0  0  0  0
  2 11  1  0  0  0  0
  3  2  2  0  0  0  0
  4  3  1  0  0  0  0
  5  4  2  0  0  0  0
  5  9  1  0  0  0  0
  6  7  1  0  0  0  0
  6  5  1  0  0  0  0
  7  8  2  0  0  0  0
  8  9  1  0  0  0  0
  9 10  2  0  0  0  0
 10  2  1  0  0  0  0
 10 16  1  0  0  0  0
 12  4  1  0  0  0  0
 13  6  1  0  0  0  0
 14  7  1  0  0  0  0
 15 22  1  0  0  0  0
 16 15  2  0  0  0  0
 16 17  1  0  0  0  0
 17 19  2  0  0  0  0
 18 17  1  0  0  0  0
 19 21  1  0  0  0  0
 19 20  1  0  0  0  0
 22 21  2  0  0  0  0
 23 24  3  0  0  0  0
 24 15  1  0  0  0  0
 25 26  2  0  0  0  0
 25 30  1  0  0  0  0
 26 27  1  0  0  0  0
 27 31  1  0  0  0  0
 27 28  2  0  0  0  0
 28 32  1  0  0  0  0
 29 28  1  0  0  0  0
 29 33  1  0  0  0  0
 30 29  2  0  0  0  0
 34 35  1  0  0  0  0
 34 40  1  0  0  0  0
 35 26  1  0  0  0  0
 36 42  1  0  0  0  0
 36 35  2  0  0  0  0
 37 36  1  0  0  0  0
 38 37  2  0  0  0  0
 38 39  1  0  0  0  0
 39 34  2  0  0  0  0
 41 38  1  0  0  0  0
 42 43  1  0  0  0  0
 42 44  1  0  0  0  0
 45 42  1  0  0  0  0
 46 25  1  0  0  0  0
 47 46  1  0  0  0  0
M  END
>  <minimizedAffinity>
-6.43962479

$$$$

 OpenBabel03272509233D

 47 51  0  0  0  0  0  0  0  0999 V2000
   37.7080   27.8570   32.6310 O   0  0  0  0  0  0  0  0  0  0  0  0
   37.2530   25.3990   32.5210 C   0  0  0  0  0  0  0  0  0  0  0  0
   37.7830   26.6000   32.0920 C   0  0  0  0  0  0  0  0  0  0  0  0
   38.5370   26.6210   30.9140 C   0  0  0  0  0  0  0  0  0  0  0  0
   38.7490   25.4440   30.1850 C   0  0  0  0  0  0  0  0  0  0  0  0
   39.4000   25.1280   29.0560 N   0  0  0  0  0  0  0  0  0  0  0  0
   39.2900   23.8140   28.7890 C   0  0  0  0  0  0  0  0  0  0  0  0
   38.5390   23.2820   29.7890 N   0  0  0  0  0  0  0  0  0  0  0  0
   38.2000   24.2650   30.6520 C   0  0  0  0  0  0  0  0  0  0  0  0
   37.4560   24.2370   31.8120 C   0  0  0  0  0  0  0  0  0  0  0  0
   36.6980   25.5050   33.4300 H   0  0  0  0  0  0  0  0  0  0  0  0
   39.0130   27.4770   30.4530 H   0  0  0  0  0  0  0  0  0  0  0  0
   39.9140   25.7920   28.4710 H   0  0  0  0  0  0  0  0  0  0  0  0
   39.7090   23.2970   27.9550 H   0  0  0  0  0  0  0  0  0  0  0  0
   37.3680   22.2180   33.3440 C   0  0  0  0  0  0  0  0  0  0  0  0
   36.8600   23.0140   32.3380 C   0  0  0  0  0  0  0  0  0  0  0  0
   35.6660   22.6920   31.7130 C   0  0  0  0  0  0  0  0  0  0  0  0
   35.2030   23.2800   30.9060 H   0  0  0  0  0  0  0  0  0  0  0  0
   34.9490   21.5590   32.0800 C   0  0  0  0  0  0  0  0  0  0  0  0
   34.0100   21.3100   31.5830 H   0  0  0  0  0  0  0  0  0  0  0  0
   35.4780   20.7620   33.1000 C   0  0  0  0  0  3  0  0  0  0  0  0
   36.6710   21.0900   33.7220 C   0  0  0  0  0  3  0  0  0  0  0  0
   39.5970   22.9920   34.4040 N   0  0  0  0  0  0  0  0  0  0  0  0
   38.6100   22.6440   33.9240 C   0  0  0  0  0  0  0  0  0  0  0  0
   35.8680   29.0520   33.6710 C   0  0  0  0  0  0  0  0  0  0  0  0
   34.7760   29.8960   33.6780 C   0  0  0  0  0  0  0  0  0  0  0  0
   34.4540   30.4230   32.4230 C   0  0  0  0  0  0  0  0  0  0  0  0
   35.1950   30.1060   31.2690 C   0  0  0  0  0  0  0  0  0  0  0  0
   36.2890   29.2330   31.3820 C   0  0  0  0  0  0  0  0  0  0  0  0
   36.6180   28.7040   32.6190 C   0  0  0  0  0  0  0  0  0  0  0  0
   33.6120   31.0890   32.3620 H   0  0  0  0  0  0  0  0  0  0  0  0
   34.9020   30.5420   30.3220 H   0  0  0  0  0  0  0  0  0  0  0  0
   36.8300   29.0170   30.4640 H   0  0  0  0  0  0  0  0  0  0  0  0
   32.8490   29.5370   35.1360 C   0  0  0  0  0  0  0  0  0  0  0  0
   34.0240   30.2210   34.8460 C   0  0  0  0  0  0  0  0  0  0  0  0
   34.4320   31.2300   35.7360 C   0  0  0  0  0  0  0  0  0  0  0  0
   33.6650   31.4820   36.8240 N   0  0  0  0  0  0  0  0  0  0  0  0
   32.5150   30.7800   37.0660 C   0  0  0  0  0  0  0  0  0  0  0  0
   32.1190   29.8210   36.2280 N   0  0  0  0  0  0  0  0  0  0  0  0
   32.4680   28.7520   34.5070 H   0  0  0  0  0  0  0  0  0  0  0  0
   32.0530   31.1270   37.9740 H   0  0  0  0  0  0  0  0  0  0  0  0
   35.6790   31.9950   35.4770 C   0  0  0  0  0  0  0  0  0  0  0  0
   35.9640   31.8410   34.4260 H   0  0  0  0  0  0  0  0  0  0  0  0
   36.4740   31.5320   36.1000 H   0  0  0  0  0  0  0  0  0  0  0  0
   35.5560   33.0440   35.7700 H   0  0  0  0  0  0  0  0  0  0  0  0
   36.2710   28.4730   34.8800 O   0  0  0  0  0  0  0  0  0  0  0  0
   35.6150   27.8460   35.3200 H   0  0  0  0  0  0  0  0  0  0  0  0
  2 11  1  0  0  0  0
  3  2  1  0  0  0  0
  3  1  1  0  0  0  0
  4  3  2  0  0  0  0
  5  9  2  0  0  0  0
  5  4  1  0  0  0  0
  6  5  1  0  0  0  0
  7  6  1  0  0  0  0
  7  8  2  0  0  0  0
  8  9  1  0  0  0  0
  9 10  1  0  0  0  0
 10 16  1  0  0  0  0
 10  2  2  0  0  0  0
 12  4  1  0  0  0  0
 13  6  1  0  0  0  0
 14  7  1  0  0  0  0
 15 22  1  0  0  0  0
 15 24  1  0  0  0  0
 16 15  2  0  0  0  0
 17 19  2  0  0  0  0
 17 16  1  0  0  0  0
 18 17  1  0  0  0  0
 19 21  1  0  0  0  0
 20 19  1  0  0  0  0
 21 22  2  0  0  0  0
 24 23  3  0  0  0  0
 25 26  1  0  0  0  0
 25 46  1  0  0  0  0
 26 35  1  0  0  0  0
 27 26  2  0  0  0  0
 28 29  2  0  0  0  0
 28 27  1  0  0  0  0
 29 30  1  0  0  0  0
 30  1  1  0  0  0  0
 30 25  2  0  0  0  0
 31 27  1  0  0  0  0
 32 28  1  0  0  0  0
 33 29  1  0  0  0  0
 34 39  1  0  0  0  0
 35 34  2  0  0  0  0
 35 36  1  0  0  0  0
 36 37  2  0  0  0  0
 37 38  1  0  0  0  0
 38 41  1  0  0  0  0
 39 38  2  0  0  0  0
 40 34  1  0  0  0  0
 42 36  1  0  0  0  0
 42 45  1  0  0  0  0
 42 44  1  0  0  0  0
 43 42  1  0  0  0  0
 46 47  1  0  0  0  0
M  END
>  <minimizedAffinity>
-6.396873

$$$$

 OpenBabel03272509233D

 47 51  0  0  0  0  0  0  0  0999 V2000
   37.3430   26.7610   32.2760 O   0  0  0  0  0  0  0  0  0  0  0  0
   38.0120   25.1480   34.0680 C   0  0  0  0  0  0  0  0  0  0  0  0
   37.4890   25.5240   32.8470 C   0  0  0  0  0  0  0  0  0  0  0  0
   37.0020   24.5330   31.9880 C   0  0  0  0  0  0  0  0  0  0  0  0
   37.0460   23.1850   32.3630 C   0  0  0  0  0  0  0  0  0  0  0  0
   36.6770   22.0260   31.7960 N   0  0  0  0  0  0  0  0  0  0  0  0
   36.9500   20.9860   32.6050 C   0  0  0  0  0  0  0  0  0  0  0  0
   37.5120   21.5100   33.7250 N   0  0  0  0  0  0  0  0  0  0  0  0
   37.5780   22.8540   33.5950 C   0  0  0  0  0  0  0  0  0  0  0  0
   38.0590   23.8250   34.4460 C   0  0  0  0  0  0  0  0  0  0  0  0
   38.3520   25.9880   34.6370 H   0  0  0  0  0  0  0  0  0  0  0  0
   36.5650   24.6690   31.0070 H   0  0  0  0  0  0  0  0  0  0  0  0
   36.2460   21.9380   30.8720 H   0  0  0  0  0  0  0  0  0  0  0  0
   36.7590   19.9560   32.4020 H   0  0  0  0  0  0  0  0  0  0  0  0
   39.8990   23.0400   36.0060 C   0  0  0  0  0  0  0  0  0  0  0  0
   38.6300   23.5180   35.7530 C   0  0  0  0  0  0  0  0  0  0  0  0
   37.7420   23.7590   36.7890 C   0  0  0  0  0  0  0  0  0  0  0  0
   36.7170   24.1380   36.6620 H   0  0  0  0  0  0  0  0  0  0  0  0
   38.1060   23.5260   38.1120 C   0  0  0  0  0  0  0  0  0  0  0  0
   37.4030   23.7170   38.9240 H   0  0  0  0  0  0  0  0  0  0  0  0
   39.3960   23.0420   38.3500 C   0  0  0  0  0  3  0  0  0  0  0  0
   40.2780   22.8030   37.3100 C   0  0  0  0  0  3  0  0  0  0  0  0
   41.4030   22.6730   33.9340 N   0  0  0  0  0  0  0  0  0  0  0  0
   40.7360   22.8270   34.8600 C   0  0  0  0  0  0  0  0  0  0  0  0
   35.9970   28.7760   32.1360 C   0  0  0  0  0  0  0  0  0  0  0  0
   35.3380   29.8740   32.6530 C   0  0  0  0  0  0  0  0  0  0  0  0
   35.4330   29.9920   34.0440 C   0  0  0  0  0  0  0  0  0  0  0  0
   36.1430   29.0620   34.8260 C   0  0  0  0  0  0  0  0  0  0  0  0
   36.7760   27.9830   34.1880 C   0  0  0  0  0  0  0  0  0  0  0  0
   36.6900   27.8540   32.8120 C   0  0  0  0  0  0  0  0  0  0  0  0
   34.9400   30.8270   34.5080 H   0  0  0  0  0  0  0  0  0  0  0  0
   36.1840   29.2020   35.8980 H   0  0  0  0  0  0  0  0  0  0  0  0
   37.3130   27.2900   34.8320 H   0  0  0  0  0  0  0  0  0  0  0  0
   33.2490   30.6650   31.6650 C   0  0  0  0  0  0  0  0  0  0  0  0
   34.6160   30.8180   31.8650 C   0  0  0  0  0  0  0  0  0  0  0  0
   35.2460   31.9240   31.2670 C   0  0  0  0  0  0  0  0  0  0  0  0
   34.4950   32.7770   30.5310 N   0  0  0  0  0  0  0  0  0  0  0  0
   33.1500   32.5830   30.3640 C   0  0  0  0  0  0  0  0  0  0  0  0
   32.5420   31.5380   30.9270 N   0  0  0  0  0  0  0  0  0  0  0  0
   32.6920   29.8470   32.0870 H   0  0  0  0  0  0  0  0  0  0  0  0
   32.7360   33.3650   29.7510 H   0  0  0  0  0  0  0  0  0  0  0  0
   36.7060   32.1380   31.4460 C   0  0  0  0  0  0  0  0  0  0  0  0
   37.1490   31.1980   31.8060 H   0  0  0  0  0  0  0  0  0  0  0  0
   36.8220   32.8850   32.2610 H   0  0  0  0  0  0  0  0  0  0  0  0
   37.1530   32.5340   30.5270 H   0  0  0  0  0  0  0  0  0  0  0  0
   35.9610   28.5690   30.7520 O   0  0  0  0  0  0  0  0  0  0  0  0
   36.3980   29.2750   30.1800 H   0  0  0  0  0  0  0  0  0  0  0  0
  1 30  1  0  0  0  0
  1  3  1  0  0  0  0
  2 10  1  0  0  0  0
  2 11  1  0  0  0  0
  3  2  2  0  0  0  0
  4  5  2  0  0  0  0
  4  3  1  0  0  0  0
  5  9  1  0  0  0  0
  6  5  1  0  0  0  0
  6  7  1  0  0  0  0
  7  8  2  0  0  0  0
  9  8  1  0  0  0  0
  9 10  2  0  0  0  0
 10 16  1  0  0  0  0
 12  4  1  0  0  0  0
 13  6  1  0  0  0  0
 14  7  1  0  0  0  0
 15 22  1  0  0  0  0
 16 15  2  0  0  0  0
 16 17  1  0  0  0  0
 17 19  2  0  0  0  0
 18 17  1  0  0  0  0
 19 21  1  0  0  0  0
 19 20  1  0  0  0  0
 22 21  2  0  0  0  0
 23 24  3  0  0  0  0
 24 15  1  0  0  0  0
 25 26  2  0  0  0  0
 25 30  1  0  0  0  0
 26 27  1  0  0  0  0
 27 31  1  0  0  0  0
 27 28  2  0  0  0  0
 28 32  1  0  0  0  0
 29 28  1  0  0  0  0
 29 33  1  0  0  0  0
 30 29  2  0  0  0  0
 34 35  1  0  0  0  0
 34 40  1  0  0  0  0
 35 26  1  0  0  0  0
 36 42  1  0  0  0  0
 36 35  2  0  0  0  0
 37 36  1  0  0  0  0
 38 37  2  0  0  0  0
 38 39  1  0  0  0  0
 39 34  2  0  0  0  0
 41 38  1  0  0  0  0
 42 43  1  0  0  0  0
 42 44  1  0  0  0  0
 45 42  1  0  0  0  0
 46 25  1  0  0  0  0
 47 46  1  0  0  0  0
M  END
>  <minimizedAffinity>
-6.35943508

$$$$

 OpenBabel03272509233D

 47 51  0  0  0  0  0  0  0  0999 V2000
   37.2290   28.3550   32.1070 O   0  0  0  0  0  0  0  0  0  0  0  0
   35.6300   29.5610   33.6060 C   0  0  0  0  0  0  0  0  0  0  0  0
   36.2300   29.2440   32.4040 C   0  0  0  0  0  0  0  0  0  0  0  0
   35.8030   29.8990   31.2440 C   0  0  0  0  0  0  0  0  0  0  0  0
   34.7850   30.8590   31.3050 C   0  0  0  0  0  0  0  0  0  0  0  0
   34.1610   31.6430   30.4130 N   0  0  0  0  0  0  0  0  0  0  0  0
   33.2290   32.4060   31.0120 C   0  0  0  0  0  0  0  0  0  0  0  0
   33.2660   32.0890   32.3320 N   0  0  0  0  0  0  0  0  0  0  0  0
   34.2120   31.1440   32.5300 C   0  0  0  0  0  0  0  0  0  0  0  0
   34.6280   30.5030   33.6760 C   0  0  0  0  0  0  0  0  0  0  0  0
   36.0370   28.9990   34.4210 H   0  0  0  0  0  0  0  0  0  0  0  0
   36.1730   29.7610   30.2360 H   0  0  0  0  0  0  0  0  0  0  0  0
   34.3630   31.6640   29.4100 H   0  0  0  0  0  0  0  0  0  0  0  0
   32.5900   33.1180   30.5390 H   0  0  0  0  0  0  0  0  0  0  0  0
   34.5250   31.6660   35.9280 C   0  0  0  0  0  0  0  0  0  0  0  0
   34.0500   30.7750   34.9880 C   0  0  0  0  0  0  0  0  0  0  0  0
   32.9130   30.0220   35.2330 C   0  0  0  0  0  0  0  0  0  0  0  0
   32.4790   29.2950   34.5310 H   0  0  0  0  0  0  0  0  0  0  0  0
   32.2200   30.1440   36.4330 C   0  0  0  0  0  0  0  0  0  0  0  0
   31.3250   29.5480   36.6220 H   0  0  0  0  0  0  0  0  0  0  0  0
   32.7150   31.0510   37.3750 C   0  0  0  0  0  3  0  0  0  0  0  0
   33.8510   31.8000   37.1240 C   0  0  0  0  0  3  0  0  0  0  0  0
   36.6520   32.9800   35.2650 N   0  0  0  0  0  0  0  0  0  0  0  0
   35.7080   32.3940   35.5700 C   0  0  0  0  0  0  0  0  0  0  0  0
   37.6420   25.9630   32.0620 C   0  0  0  0  0  0  0  0  0  0  0  0
   37.8640   24.7250   32.6330 C   0  0  0  0  0  0  0  0  0  0  0  0
   37.8820   24.7370   34.0310 C   0  0  0  0  0  0  0  0  0  0  0  0
   37.6880   25.9190   34.7700 C   0  0  0  0  0  0  0  0  0  0  0  0
   37.4700   27.1220   34.0800 C   0  0  0  0  0  0  0  0  0  0  0  0
   37.4500   27.1250   32.6950 C   0  0  0  0  0  0  0  0  0  0  0  0
   38.0510   23.8030   34.5360 H   0  0  0  0  0  0  0  0  0  0  0  0
   37.7120   25.8710   35.8510 H   0  0  0  0  0  0  0  0  0  0  0  0
   37.3250   28.0100   34.6920 H   0  0  0  0  0  0  0  0  0  0  0  0
   39.3480   23.0850   31.5960 C   0  0  0  0  0  0  0  0  0  0  0  0
   38.0620   23.5250   31.8880 C   0  0  0  0  0  0  0  0  0  0  0  0
   36.9830   22.7510   31.4240 C   0  0  0  0  0  0  0  0  0  0  0  0
   37.2500   21.6240   30.7220 N   0  0  0  0  0  0  0  0  0  0  0  0
   38.5350   21.2320   30.4600 C   0  0  0  0  0  0  0  0  0  0  0  0
   39.5660   21.9580   30.8960 N   0  0  0  0  0  0  0  0  0  0  0  0
   40.2260   23.6180   31.9140 H   0  0  0  0  0  0  0  0  0  0  0  0
   38.5360   20.3170   29.8940 H   0  0  0  0  0  0  0  0  0  0  0  0
   35.5870   23.1730   31.7060 C   0  0  0  0  0  0  0  0  0  0  0  0
   35.6010   24.2300   32.0080 H   0  0  0  0  0  0  0  0  0  0  0  0
   35.2460   22.5870   32.5860 H   0  0  0  0  0  0  0  0  0  0  0  0
   34.9370   22.9500   30.8510 H   0  0  0  0  0  0  0  0  0  0  0  0
   37.6060   26.0560   30.6660 O   0  0  0  0  0  0  0  0  0  0  0  0
   36.8660   25.5540   30.2000 H   0  0  0  0  0  0  0  0  0  0  0  0
  1  3  1  0  0  0  0
  1 30  1  0  0  0  0
  2 10  1  0  0  0  0
  2 11  1  0  0  0  0
  3  2  2  0  0  0  0
  4  5  2  0  0  0  0
  4  3  1  0  0  0  0
  5  9  1  0  0  0  0
  6  7  1  0  0  0  0
  6  5  1  0  0  0  0
  7  8  2  0  0  0  0
  8  9  1  0  0  0  0
  9 10  2  0  0  0  0
 10 16  1  0  0  0  0
 12  4  1  0  0  0  0
 13  6  1  0  0  0  0
 14  7  1  0  0  0  0
 15 22  1  0  0  0  0
 16 17  1  0  0  0  0
 16 15  2  0  0  0  0
 17 19  2  0  0  0  0
 18 17  1  0  0  0  0
 19 20  1  0  0  0  0
 19 21  1  0  0  0  0
 22 21  2  0  0  0  0
 23 24  3  0  0  0  0
 24 15  1  0  0  0  0
 25 26  2  0  0  0  0
 25 30  1  0  0  0  0
 26 27  1  0  0  0  0
 27 31  1  0  0  0  0
 27 28  2  0  0  0  0
 28 32  1  0  0  0  0
 29 33  1  0  0  0  0
 29 28  1  0  0  0  0
 30 29  2  0  0  0  0
 34 35  1  0  0  0  0
 34 40  1  0  0  0  0
 35 26  1  0  0  0  0
 36 42  1  0  0  0  0
 36 35  2  0  0  0  0
 37 36  1  0  0  0  0
 38 37  2  0  0  0  0
 38 39  1  0  0  0  0
 39 34  2  0  0  0  0
 41 38  1  0  0  0  0
 42 43  1  0  0  0  0
 42 44  1  0  0  0  0
 45 42  1  0  0  0  0
 46 25  1  0  0  0  0
 47 46  1  0  0  0  0
M  END
>  <minimizedAffinity>
-6.34092379

$$$$
