
 OpenBabel03272502083D

 40 43  0  0  0  0  0  0  0  0999 V2000
   36.7720   28.7630   35.7880 F   0  0  0  0  0  0  0  0  0  0  0  0
   36.4610   28.8120   34.4520 C   0  0  0  0  0  0  0  0  0  0  0  0
   36.9420   27.8800   33.5510 C   0  0  0  0  0  0  0  0  0  0  0  0
   36.5730   27.9860   32.2260 C   0  0  0  0  0  0  0  0  0  0  0  0
   35.7270   29.0170   31.7980 C   0  0  0  0  0  0  0  0  0  0  0  0
   35.2850   29.9150   32.7570 C   0  0  0  0  0  0  0  0  0  0  0  0
   35.6200   29.8510   34.0580 C   0  0  0  0  0  0  0  0  0  0  0  0
   36.9650   27.2400   31.5420 H   0  0  0  0  0  0  0  0  0  0  0  0
   35.4640   29.0600   30.7530 H   0  0  0  0  0  0  0  0  0  0  0  0
   34.6390   30.6750   32.3380 H   0  0  0  0  0  0  0  0  0  0  0  0
   32.7720   29.4090   35.2780 Br  0  0  0  0  0  0  0  0  0  0  0  0
   33.9430   30.8500   35.6840 C   0  0  0  0  0  0  0  0  0  0  0  0
   35.1290   30.8340   34.9990 C   0  0  0  0  0  0  0  0  0  0  0  0
   36.0320   31.8870   35.2230 C   0  0  0  0  0  0  0  0  0  0  0  0
   35.7350   32.8860   36.0930 C   0  0  0  0  0  0  0  0  0  0  0  0
   34.5150   32.8390   36.7560 C   0  0  0  0  0  0  0  0  0  0  0  0
   33.5950   31.8020   36.5520 C   0  0  0  0  0  0  0  0  0  0  0  0
   36.9870   31.9640   34.7340 H   0  0  0  0  0  0  0  0  0  0  0  0
   36.4190   33.7110   36.2820 H   0  0  0  0  0  0  0  0  0  0  0  0
   34.2430   33.6220   37.4600 H   0  0  0  0  0  0  0  0  0  0  0  0
   32.3880   31.6980   37.1690 O   0  0  0  0  0  0  0  0  0  0  0  0
   31.5420   32.1760   36.8820 H   0  0  0  0  0  0  0  0  0  0  0  0
   37.4050   25.5590   33.9780 C   0  0  0  0  0  0  0  0  0  0  0  0
   37.7960   26.8770   34.1140 C   0  0  0  0  0  0  0  0  0  0  0  0
   38.9910   27.1310   34.7790 C   0  0  0  0  0  0  0  0  0  0  0  0
   39.7270   26.0990   35.2670 N   0  0  0  0  0  0  0  0  0  0  0  0
   39.3150   24.8430   35.1140 C   0  0  0  0  0  0  0  0  0  0  0  0
   38.1820   24.5670   34.4860 N   0  0  0  0  0  0  0  0  0  0  0  0
   36.4860   25.2930   33.4720 H   0  0  0  0  0  0  0  0  0  0  0  0
   39.3020   28.1580   34.8900 H   0  0  0  0  0  0  0  0  0  0  0  0
   39.8430   23.1650   36.8640 C   0  0  0  0  0  0  0  0  0  0  0  0
   40.1260   23.7520   35.6490 C   0  0  0  0  0  0  0  0  0  0  0  0
   41.2200   23.2580   34.9550 C   0  0  0  0  0  0  0  0  0  0  0  0
   41.4220   23.7350   34.0060 H   0  0  0  0  0  0  0  0  0  0  0  0
   41.9510   22.2250   35.5100 C   0  0  0  0  0  0  0  0  0  0  0  0
   42.8010   21.8570   34.9470 H   0  0  0  0  0  0  0  0  0  0  0  0
   41.6340   21.6640   36.7300 C   0  0  0  0  0  3  0  0  0  0  0  0
   40.5440   22.1350   37.4510 C   0  0  0  0  0  3  0  0  0  0  0  0
   37.7860   24.0690   38.2080 N   0  0  0  0  0  0  0  0  0  0  0  0
   38.6990   23.6660   37.6100 C   0  0  0  0  0  0  0  0  0  0  0  0
  2  1  1  0  0  0  0
  3 24  1  0  0  0  0
  3  2  2  0  0  0  0
  4  3  1  0  0  0  0
  5  4  2  0  0  0  0
  5  6  1  0  0  0  0
  6  7  2  0  0  0  0
  7  2  1  0  0  0  0
  7 13  1  0  0  0  0
  8  4  1  0  0  0  0
  9  5  1  0  0  0  0
 10  6  1  0  0  0  0
 11 12  1  0  0  0  0
 12 17  1  0  0  0  0
 13 14  1  0  0  0  0
 13 12  2  0  0  0  0
 14 15  2  0  0  0  0
 15 19  1  0  0  0  0
 15 16  1  0  0  0  0
 16 20  1  0  0  0  0
 17 16  2  0  0  0  0
 17 21  1  0  0  0  0
 18 14  1  0  0  0  0
 22 21  1  0  0  0  0
 23 24  2  0  0  0  0
 23 28  1  0  0  0  0
 24 25  1  0  0  0  0
 25 30  1  0  0  0  0
 25 26  2  0  0  0  0
 27 26  1  0  0  0  0
 27 32  1  0  0  0  0
 28 27  2  0  0  0  0
 29 23  1  0  0  0  0
 31 38  1  0  0  0  0
 31 40  1  0  0  0  0
 32 31  2  0  0  0  0
 33 35  2  0  0  0  0
 33 32  1  0  0  0  0
 34 33  1  0  0  0  0
 35 37  1  0  0  0  0
 36 35  1  0  0  0  0
 37 38  2  0  0  0  0
 40 39  3  0  0  0  0
M  END
>  <minimizedAffinity>
-6.84622049

$$$$

 OpenBabel03272502083D

 40 43  0  0  0  0  0  0  0  0999 V2000
   35.8770   27.7330   34.9200 F   0  0  0  0  0  0  0  0  0  0  0  0
   36.2200   28.2300   33.6880 C   0  0  0  0  0  0  0  0  0  0  0  0
   37.2860   27.7270   32.9630 C   0  0  0  0  0  0  0  0  0  0  0  0
   37.5600   28.2670   31.7240 C   0  0  0  0  0  0  0  0  0  0  0  0
   36.7770   29.3060   31.2060 C   0  0  0  0  0  0  0  0  0  0  0  0
   35.7260   29.7590   31.9880 C   0  0  0  0  0  0  0  0  0  0  0  0
   35.4230   29.2640   33.2010 C   0  0  0  0  0  0  0  0  0  0  0  0
   38.4020   27.8520   31.1790 H   0  0  0  0  0  0  0  0  0  0  0  0
   37.0270   29.6970   30.2320 H   0  0  0  0  0  0  0  0  0  0  0  0
   35.1770   30.5600   31.5100 H   0  0  0  0  0  0  0  0  0  0  0  0
   36.0860   31.2120   35.5570 Br  0  0  0  0  0  0  0  0  0  0  0  0
   34.3450   30.6810   35.0130 C   0  0  0  0  0  0  0  0  0  0  0  0
   34.3170   29.7980   33.9660 C   0  0  0  0  0  0  0  0  0  0  0  0
   33.0650   29.3350   33.5300 C   0  0  0  0  0  0  0  0  0  0  0  0
   31.9200   29.7520   34.1290 C   0  0  0  0  0  0  0  0  0  0  0  0
   32.0200   30.6510   35.1830 C   0  0  0  0  0  0  0  0  0  0  0  0
   33.2550   31.1290   35.6400 C   0  0  0  0  0  0  0  0  0  0  0  0
   32.9390   28.6400   32.7170 H   0  0  0  0  0  0  0  0  0  0  0  0
   30.9390   29.4060   33.8070 H   0  0  0  0  0  0  0  0  0  0  0  0
   31.1250   31.0080   35.6870 H   0  0  0  0  0  0  0  0  0  0  0  0
   33.4210   32.0080   36.6640 O   0  0  0  0  0  0  0  0  0  0  0  0
   33.4280   31.7650   37.6480 H   0  0  0  0  0  0  0  0  0  0  0  0
   39.0580   27.0200   34.4280 C   0  0  0  0  0  0  0  0  0  0  0  0
   38.0070   26.6670   33.6030 C   0  0  0  0  0  0  0  0  0  0  0  0
   37.7240   25.3130   33.4620 C   0  0  0  0  0  0  0  0  0  0  0  0
   38.4710   24.3910   34.1240 N   0  0  0  0  0  0  0  0  0  0  0  0
   39.4740   24.7730   34.9100 C   0  0  0  0  0  0  0  0  0  0  0  0
   39.7710   26.0550   35.0650 N   0  0  0  0  0  0  0  0  0  0  0  0
   39.3320   28.0550   34.5810 H   0  0  0  0  0  0  0  0  0  0  0  0
   36.9050   25.0300   32.8180 H   0  0  0  0  0  0  0  0  0  0  0  0
   39.8490   23.2230   36.8120 C   0  0  0  0  0  0  0  0  0  0  0  0
   40.2610   23.7610   35.6100 C   0  0  0  0  0  0  0  0  0  0  0  0
   41.4610   23.2950   35.0950 C   0  0  0  0  0  0  0  0  0  0  0  0
   41.7620   23.7320   34.1530 H   0  0  0  0  0  0  0  0  0  0  0  0
   42.1630   22.3370   35.8000 C   0  0  0  0  0  0  0  0  0  0  0  0
   43.0970   21.9900   35.3760 H   0  0  0  0  0  0  0  0  0  0  0  0
   41.7150   21.8240   37.0010 C   0  0  0  0  0  3  0  0  0  0  0  0
   40.5160   22.2690   37.5450 C   0  0  0  0  0  3  0  0  0  0  0  0
   37.5860   24.0750   37.8160 N   0  0  0  0  0  0  0  0  0  0  0  0
   38.5920   23.6970   37.3710 C   0  0  0  0  0  0  0  0  0  0  0  0
  2  1  1  0  0  0  0
  3 24  1  0  0  0  0
  3  2  2  0  0  0  0
  4  3  1  0  0  0  0
  5  4  2  0  0  0  0
  5  6  1  0  0  0  0
  6  7  2  0  0  0  0
  7  2  1  0  0  0  0
  7 13  1  0  0  0  0
  8  4  1  0  0  0  0
  9  5  1  0  0  0  0
 10  6  1  0  0  0  0
 12 11  1  0  0  0  0
 12 17  1  0  0  0  0
 13 12  2  0  0  0  0
 14 13  1  0  0  0  0
 14 15  2  0  0  0  0
 15 16  1  0  0  0  0
 16 17  2  0  0  0  0
 16 20  1  0  0  0  0
 17 21  1  0  0  0  0
 18 14  1  0  0  0  0
 19 15  1  0  0  0  0
 21 22  1  0  0  0  0
 23 29  1  0  0  0  0
 23 28  1  0  0  0  0
 24 23  2  0  0  0  0
 25 24  1  0  0  0  0
 25 26  2  0  0  0  0
 26 27  1  0  0  0  0
 27 28  2  0  0  0  0
 27 32  1  0  0  0  0
 30 25  1  0  0  0  0
 31 40  1  0  0  0  0
 31 38  1  0  0  0  0
 32 31  2  0  0  0  0
 33 32  1  0  0  0  0
 33 35  2  0  0  0  0
 34 33  1  0  0  0  0
 35 37  1  0  0  0  0
 36 35  1  0  0  0  0
 37 38  2  0  0  0  0
 40 39  3  0  0  0  0
M  END
>  <minimizedAffinity>
-6.63330507

$$$$

 OpenBabel03272502083D

 40 43  0  0  0  0  0  0  0  0999 V2000
   35.0600   28.3090   34.2220 F   0  0  0  0  0  0  0  0  0  0  0  0
   35.5660   29.1430   33.2570 C   0  0  0  0  0  0  0  0  0  0  0  0
   36.1950   28.6610   32.1240 C   0  0  0  0  0  0  0  0  0  0  0  0
   36.6640   29.5610   31.1910 C   0  0  0  0  0  0  0  0  0  0  0  0
   36.5070   30.9390   31.3820 C   0  0  0  0  0  0  0  0  0  0  0  0
   35.8670   31.3500   32.5410 C   0  0  0  0  0  0  0  0  0  0  0  0
   35.3950   30.5090   33.4780 C   0  0  0  0  0  0  0  0  0  0  0  0
   37.1530   29.1520   30.3120 H   0  0  0  0  0  0  0  0  0  0  0  0
   36.8880   31.6060   30.6240 H   0  0  0  0  0  0  0  0  0  0  0  0
   35.7910   32.4270   32.6050 H   0  0  0  0  0  0  0  0  0  0  0  0
   32.2740   30.3520   33.6240 Br  0  0  0  0  0  0  0  0  0  0  0  0
   33.4160   31.0300   34.9830 C   0  0  0  0  0  0  0  0  0  0  0  0
   34.7500   31.0130   34.6700 C   0  0  0  0  0  0  0  0  0  0  0  0
   35.6530   31.5320   35.6140 C   0  0  0  0  0  0  0  0  0  0  0  0
   35.2140   32.0300   36.7980 C   0  0  0  0  0  0  0  0  0  0  0  0
   33.8480   32.0140   37.0520 C   0  0  0  0  0  0  0  0  0  0  0  0
   32.9240   31.5050   36.1290 C   0  0  0  0  0  0  0  0  0  0  0  0
   36.7180   31.5640   35.4610 H   0  0  0  0  0  0  0  0  0  0  0  0
   35.8960   32.4360   37.5430 H   0  0  0  0  0  0  0  0  0  0  0  0
   33.4590   32.4050   37.9890 H   0  0  0  0  0  0  0  0  0  0  0  0
   31.5790   31.4600   36.3170 O   0  0  0  0  0  0  0  0  0  0  0  0
   30.9400   32.2310   36.1610 H   0  0  0  0  0  0  0  0  0  0  0  0
   35.5030   26.5920   31.1110 C   0  0  0  0  0  0  0  0  0  0  0  0
   36.2910   27.2330   32.0470 C   0  0  0  0  0  0  0  0  0  0  0  0
   37.1230   26.4470   32.8370 C   0  0  0  0  0  0  0  0  0  0  0  0
   37.1390   25.0990   32.6720 N   0  0  0  0  0  0  0  0  0  0  0  0
   36.3650   24.5200   31.7580 C   0  0  0  0  0  0  0  0  0  0  0  0
   35.5600   25.2400   30.9900 N   0  0  0  0  0  0  0  0  0  0  0  0
   34.8330   27.1440   30.4640 H   0  0  0  0  0  0  0  0  0  0  0  0
   37.7410   26.9410   33.5720 H   0  0  0  0  0  0  0  0  0  0  0  0
   37.4000   22.4400   30.8860 C   0  0  0  0  0  0  0  0  0  0  0  0
   36.4020   23.0690   31.6020 C   0  0  0  0  0  0  0  0  0  0  0  0
   35.4330   22.2560   32.1680 C   0  0  0  0  0  0  0  0  0  0  0  0
   34.6610   22.7720   32.7230 H   0  0  0  0  0  0  0  0  0  0  0  0
   35.5180   20.8890   31.9870 C   0  0  0  0  0  0  0  0  0  0  0  0
   34.7480   20.2760   32.4410 H   0  0  0  0  0  0  0  0  0  0  0  0
   36.5350   20.2990   31.2630 C   0  0  0  0  0  3  0  0  0  0  0  0
   37.5230   21.0850   30.6830 C   0  0  0  0  0  3  0  0  0  0  0  0
   39.2510   23.9410   29.8000 N   0  0  0  0  0  0  0  0  0  0  0  0
   38.4300   23.2730   30.2830 C   0  0  0  0  0  0  0  0  0  0  0  0
  2  7  1  0  0  0  0
  2  1  1  0  0  0  0
  3  2  2  0  0  0  0
  4  5  2  0  0  0  0
  4  3  1  0  0  0  0
  5  6  1  0  0  0  0
  6 10  1  0  0  0  0
  6  7  2  0  0  0  0
  7 13  1  0  0  0  0
  8  4  1  0  0  0  0
  9  5  1  0  0  0  0
 11 12  1  0  0  0  0
 12 17  1  0  0  0  0
 13 12  2  0  0  0  0
 13 14  1  0  0  0  0
 14 15  2  0  0  0  0
 15 16  1  0  0  0  0
 15 19  1  0  0  0  0
 16 20  1  0  0  0  0
 17 21  1  0  0  0  0
 17 16  2  0  0  0  0
 18 14  1  0  0  0  0
 22 21  1  0  0  0  0
 23 24  1  0  0  0  0
 24  3  1  0  0  0  0
 24 25  2  0  0  0  0
 25 30  1  0  0  0  0
 26 25  1  0  0  0  0
 27 26  2  0  0  0  0
 28 23  2  0  0  0  0
 28 27  1  0  0  0  0
 29 23  1  0  0  0  0
 31 32  1  0  0  0  0
 32 27  1  0  0  0  0
 32 33  2  0  0  0  0
 33 34  1  0  0  0  0
 35 33  1  0  0  0  0
 35 36  1  0  0  0  0
 37 35  2  0  0  0  0
 38 31  2  0  0  0  0
 38 37  1  0  0  0  0
 39 40  3  0  0  0  0
 40 31  1  0  0  0  0
M  END
>  <minimizedAffinity>
-6.62293148

$$$$

 OpenBabel03272502083D

 40 43  0  0  0  0  0  0  0  0999 V2000
   35.0720   28.3030   34.4140 F   0  0  0  0  0  0  0  0  0  0  0  0
   35.3320   29.2270   33.4330 C   0  0  0  0  0  0  0  0  0  0  0  0
   35.9510   28.8840   32.2450 C   0  0  0  0  0  0  0  0  0  0  0  0
   36.1650   29.8650   31.3000 C   0  0  0  0  0  0  0  0  0  0  0  0
   35.7640   31.1860   31.5350 C   0  0  0  0  0  0  0  0  0  0  0  0
   35.1500   31.4560   32.7480 C   0  0  0  0  0  0  0  0  0  0  0  0
   34.9220   30.5330   33.6980 C   0  0  0  0  0  0  0  0  0  0  0  0
   36.6530   29.5650   30.3780 H   0  0  0  0  0  0  0  0  0  0  0  0
   35.9510   31.9200   30.7670 H   0  0  0  0  0  0  0  0  0  0  0  0
   34.8740   32.4990   32.8430 H   0  0  0  0  0  0  0  0  0  0  0  0
   36.3900   32.5920   35.5400 Br  0  0  0  0  0  0  0  0  0  0  0  0
   34.7090   31.7830   35.8990 C   0  0  0  0  0  0  0  0  0  0  0  0
   34.2870   30.8940   34.9470 C   0  0  0  0  0  0  0  0  0  0  0  0
   33.0670   30.2300   35.1620 C   0  0  0  0  0  0  0  0  0  0  0  0
   32.3320   30.4670   36.2780 C   0  0  0  0  0  0  0  0  0  0  0  0
   32.8180   31.3830   37.2020 C   0  0  0  0  0  0  0  0  0  0  0  0
   34.0310   32.0590   37.0150 C   0  0  0  0  0  0  0  0  0  0  0  0
   32.6520   29.5140   34.4730 H   0  0  0  0  0  0  0  0  0  0  0  0
   31.3850   29.9650   36.4640 H   0  0  0  0  0  0  0  0  0  0  0  0
   32.2560   31.5990   38.1080 H   0  0  0  0  0  0  0  0  0  0  0  0
   34.5600   32.9660   37.8790 O   0  0  0  0  0  0  0  0  0  0  0  0
   35.0950   32.7400   38.7090 H   0  0  0  0  0  0  0  0  0  0  0  0
   35.5530   26.7160   31.2820 C   0  0  0  0  0  0  0  0  0  0  0  0
   36.3120   27.5020   32.1280 C   0  0  0  0  0  0  0  0  0  0  0  0
   37.3720   26.8960   32.7940 C   0  0  0  0  0  0  0  0  0  0  0  0
   37.6280   25.5760   32.6010 N   0  0  0  0  0  0  0  0  0  0  0  0
   36.8730   24.8550   31.7770 C   0  0  0  0  0  0  0  0  0  0  0  0
   35.8560   25.4010   31.1270 N   0  0  0  0  0  0  0  0  0  0  0  0
   34.7140   27.1250   30.7340 H   0  0  0  0  0  0  0  0  0  0  0  0
   37.9680   27.5040   33.4580 H   0  0  0  0  0  0  0  0  0  0  0  0
   38.0990   23.0080   30.6610 C   0  0  0  0  0  0  0  0  0  0  0  0
   37.1720   23.4370   31.5870 C   0  0  0  0  0  0  0  0  0  0  0  0
   36.5340   22.4590   32.3330 C   0  0  0  0  0  0  0  0  0  0  0  0
   35.8110   22.8210   33.0520 H   0  0  0  0  0  0  0  0  0  0  0  0
   36.8560   21.1340   32.1120 C   0  0  0  0  0  0  0  0  0  0  0  0
   36.3430   20.3890   32.7080 H   0  0  0  0  0  0  0  0  0  0  0  0
   37.7910   20.7450   31.1740 C   0  0  0  0  0  3  0  0  0  0  0  0
   38.4490   21.7010   30.4090 C   0  0  0  0  0  3  0  0  0  0  0  0
   39.3300   24.8240   29.2330 N   0  0  0  0  0  0  0  0  0  0  0  0
   38.7820   24.0170   29.8660 C   0  0  0  0  0  0  0  0  0  0  0  0
  2  7  1  0  0  0  0
  2  1  1  0  0  0  0
  3  2  2  0  0  0  0
  4  5  2  0  0  0  0
  4  3  1  0  0  0  0
  5  6  1  0  0  0  0
  6 10  1  0  0  0  0
  6  7  2  0  0  0  0
  7 13  1  0  0  0  0
  8  4  1  0  0  0  0
  9  5  1  0  0  0  0
 11 12  1  0  0  0  0
 12 17  1  0  0  0  0
 13 14  1  0  0  0  0
 13 12  2  0  0  0  0
 14 15  2  0  0  0  0
 15 19  1  0  0  0  0
 15 16  1  0  0  0  0
 16 20  1  0  0  0  0
 17 16  2  0  0  0  0
 17 21  1  0  0  0  0
 18 14  1  0  0  0  0
 21 22  1  0  0  0  0
 23 24  1  0  0  0  0
 24  3  1  0  0  0  0
 24 25  2  0  0  0  0
 25 30  1  0  0  0  0
 26 25  1  0  0  0  0
 27 26  2  0  0  0  0
 28 23  2  0  0  0  0
 28 27  1  0  0  0  0
 29 23  1  0  0  0  0
 31 32  1  0  0  0  0
 32 27  1  0  0  0  0
 32 33  2  0  0  0  0
 33 34  1  0  0  0  0
 35 33  1  0  0  0  0
 35 36  1  0  0  0  0
 37 35  2  0  0  0  0
 38 31  2  0  0  0  0
 38 37  1  0  0  0  0
 39 40  3  0  0  0  0
 40 31  1  0  0  0  0
M  END
>  <minimizedAffinity>
-6.33549118

$$$$

 OpenBabel03272502083D

 40 43  0  0  0  0  0  0  0  0999 V2000
   36.7440   28.7620   35.7980 F   0  0  0  0  0  0  0  0  0  0  0  0
   36.4750   28.8300   34.4540 C   0  0  0  0  0  0  0  0  0  0  0  0
   36.9830   27.9090   33.5560 C   0  0  0  0  0  0  0  0  0  0  0  0
   36.6550   28.0320   32.2220 C   0  0  0  0  0  0  0  0  0  0  0  0
   35.8250   29.0700   31.7810 C   0  0  0  0  0  0  0  0  0  0  0  0
   35.3540   29.9560   32.7370 C   0  0  0  0  0  0  0  0  0  0  0  0
   35.6480   29.8740   34.0470 C   0  0  0  0  0  0  0  0  0  0  0  0
   37.0680   27.2950   31.5410 H   0  0  0  0  0  0  0  0  0  0  0  0
   35.5950   29.1270   30.7280 H   0  0  0  0  0  0  0  0  0  0  0  0
   34.7220   30.7220   32.3080 H   0  0  0  0  0  0  0  0  0  0  0  0
   32.7800   29.3990   35.2040 Br  0  0  0  0  0  0  0  0  0  0  0  0
   33.9290   30.8460   35.6450 C   0  0  0  0  0  0  0  0  0  0  0  0
   35.1290   30.8460   34.9850 C   0  0  0  0  0  0  0  0  0  0  0  0
   36.0170   31.9050   35.2360 C   0  0  0  0  0  0  0  0  0  0  0  0
   35.6930   32.8950   36.1060 C   0  0  0  0  0  0  0  0  0  0  0  0
   34.4600   32.8330   36.7430 C   0  0  0  0  0  0  0  0  0  0  0  0
   33.5540   31.7890   36.5130 C   0  0  0  0  0  0  0  0  0  0  0  0
   36.9820   31.9950   34.7660 H   0  0  0  0  0  0  0  0  0  0  0  0
   36.3660   33.7250   36.3150 H   0  0  0  0  0  0  0  0  0  0  0  0
   34.1670   33.6070   37.4480 H   0  0  0  0  0  0  0  0  0  0  0  0
   32.3360   31.6690   37.1040 O   0  0  0  0  0  0  0  0  0  0  0  0
   31.4910   32.1420   36.8030 H   0  0  0  0  0  0  0  0  0  0  0  0
   37.3880   25.5870   34.0360 C   0  0  0  0  0  0  0  0  0  0  0  0
   37.8180   26.8970   34.1320 C   0  0  0  0  0  0  0  0  0  0  0  0
   39.0290   27.1340   34.7730 C   0  0  0  0  0  0  0  0  0  0  0  0
   39.7440   26.0950   35.2780 N   0  0  0  0  0  0  0  0  0  0  0  0
   39.2950   24.8470   35.1630 C   0  0  0  0  0  0  0  0  0  0  0  0
   38.1460   24.5870   34.5590 N   0  0  0  0  0  0  0  0  0  0  0  0
   36.4560   25.3330   33.5500 H   0  0  0  0  0  0  0  0  0  0  0  0
   39.3690   28.1550   34.8530 H   0  0  0  0  0  0  0  0  0  0  0  0
   41.1260   23.1780   35.0110 C   0  0  0  0  0  0  0  0  0  0  0  0
   40.0850   23.7490   35.7140 C   0  0  0  0  0  0  0  0  0  0  0  0
   39.8210   23.2300   36.9720 C   0  0  0  0  0  0  0  0  0  0  0  0
   39.0010   23.6940   37.5030 H   0  0  0  0  0  0  0  0  0  0  0  0
   40.6000   22.1910   37.4420 C   0  0  0  0  0  0  0  0  0  0  0  0
   40.3740   21.8040   38.4290 H   0  0  0  0  0  0  0  0  0  0  0  0
   41.6350   21.6470   36.7070 C   0  0  0  0  0  3  0  0  0  0  0  0
   41.9250   22.1440   35.4420 C   0  0  0  0  0  3  0  0  0  0  0  0
   41.6580   24.1320   32.6320 N   0  0  0  0  0  0  0  0  0  0  0  0
   41.4220   23.7070   33.6880 C   0  0  0  0  0  0  0  0  0  0  0  0
  2  1  1  0  0  0  0
  3 24  1  0  0  0  0
  3  2  2  0  0  0  0
  4  3  1  0  0  0  0
  5  4  2  0  0  0  0
  5  6  1  0  0  0  0
  6  7  2  0  0  0  0
  7  2  1  0  0  0  0
  7 13  1  0  0  0  0
  8  4  1  0  0  0  0
  9  5  1  0  0  0  0
 10  6  1  0  0  0  0
 11 12  1  0  0  0  0
 12 17  1  0  0  0  0
 13 14  1  0  0  0  0
 13 12  2  0  0  0  0
 14 15  2  0  0  0  0
 15 19  1  0  0  0  0
 15 16  1  0  0  0  0
 16 20  1  0  0  0  0
 17 16  2  0  0  0  0
 17 21  1  0  0  0  0
 18 14  1  0  0  0  0
 22 21  1  0  0  0  0
 23 24  2  0  0  0  0
 23 28  1  0  0  0  0
 24 25  1  0  0  0  0
 25 30  1  0  0  0  0
 25 26  2  0  0  0  0
 27 26  1  0  0  0  0
 27 32  1  0  0  0  0
 28 27  2  0  0  0  0
 29 23  1  0  0  0  0
 31 38  2  0  0  0  0
 31 32  1  0  0  0  0
 32 33  2  0  0  0  0
 33 35  1  0  0  0  0
 33 34  1  0  0  0  0
 35 36  1  0  0  0  0
 37 35  2  0  0  0  0
 38 37  1  0  0  0  0
 39 40  3  0  0  0  0
 40 31  1  0  0  0  0
M  END
>  <minimizedAffinity>
-6.32376862

$$$$

 OpenBabel03272502083D

 40 43  0  0  0  0  0  0  0  0999 V2000
   35.7950   27.8060   34.9200 F   0  0  0  0  0  0  0  0  0  0  0  0
   36.1520   28.2710   33.6790 C   0  0  0  0  0  0  0  0  0  0  0  0
   37.2250   27.7510   32.9800 C   0  0  0  0  0  0  0  0  0  0  0  0
   37.5130   28.2590   31.7300 C   0  0  0  0  0  0  0  0  0  0  0  0
   36.7350   29.2830   31.1770 C   0  0  0  0  0  0  0  0  0  0  0  0
   35.6750   29.7560   31.9350 C   0  0  0  0  0  0  0  0  0  0  0  0
   35.3590   29.2910   33.1570 C   0  0  0  0  0  0  0  0  0  0  0  0
   38.3610   27.8310   31.2050 H   0  0  0  0  0  0  0  0  0  0  0  0
   36.9960   29.6490   30.1960 H   0  0  0  0  0  0  0  0  0  0  0  0
   35.1310   30.5440   31.4300 H   0  0  0  0  0  0  0  0  0  0  0  0
   35.9980   31.2600   35.5030 Br  0  0  0  0  0  0  0  0  0  0  0  0
   34.2620   30.7390   34.9330 C   0  0  0  0  0  0  0  0  0  0  0  0
   34.2450   29.8450   33.8950 C   0  0  0  0  0  0  0  0  0  0  0  0
   32.9960   29.3880   33.4420 C   0  0  0  0  0  0  0  0  0  0  0  0
   31.8450   29.8230   34.0150 C   0  0  0  0  0  0  0  0  0  0  0  0
   31.9340   30.7320   35.0610 C   0  0  0  0  0  0  0  0  0  0  0  0
   33.1650   31.2040   35.5350 C   0  0  0  0  0  0  0  0  0  0  0  0
   32.8780   28.6850   32.6340 H   0  0  0  0  0  0  0  0  0  0  0  0
   30.8670   29.4820   33.6790 H   0  0  0  0  0  0  0  0  0  0  0  0
   31.0330   31.1030   35.5440 H   0  0  0  0  0  0  0  0  0  0  0  0
   33.3200   32.0930   36.5520 O   0  0  0  0  0  0  0  0  0  0  0  0
   33.3070   31.8610   37.5380 H   0  0  0  0  0  0  0  0  0  0  0  0
   38.8540   27.0850   34.6190 C   0  0  0  0  0  0  0  0  0  0  0  0
   37.9400   26.7080   33.6550 C   0  0  0  0  0  0  0  0  0  0  0  0
   37.7760   25.3480   33.4160 C   0  0  0  0  0  0  0  0  0  0  0  0
   38.5040   24.4440   34.1230 N   0  0  0  0  0  0  0  0  0  0  0  0
   39.3740   24.8480   35.0450 C   0  0  0  0  0  0  0  0  0  0  0  0
   39.5540   26.1360   35.2950 N   0  0  0  0  0  0  0  0  0  0  0  0
   39.0300   28.1270   34.8540 H   0  0  0  0  0  0  0  0  0  0  0  0
   37.0650   25.0460   32.6630 H   0  0  0  0  0  0  0  0  0  0  0  0
   41.4400   23.5340   35.4470 C   0  0  0  0  0  0  0  0  0  0  0  0
   40.1420   23.8550   35.7900 C   0  0  0  0  0  0  0  0  0  0  0  0
   39.6000   23.1890   36.8780 C   0  0  0  0  0  0  0  0  0  0  0  0
   38.5820   23.4580   37.1260 H   0  0  0  0  0  0  0  0  0  0  0  0
   40.3740   22.2590   37.5450 C   0  0  0  0  0  0  0  0  0  0  0  0
   39.9260   21.7530   38.3920 H   0  0  0  0  0  0  0  0  0  0  0  0
   41.6700   21.9670   37.1700 C   0  0  0  0  0  3  0  0  0  0  0  0
   42.2440   22.6160   36.0840 C   0  0  0  0  0  3  0  0  0  0  0  0
   42.5040   24.7670   33.3980 N   0  0  0  0  0  0  0  0  0  0  0  0
   42.0310   24.2200   34.3090 C   0  0  0  0  0  0  0  0  0  0  0  0
  2  1  1  0  0  0  0
  3 24  1  0  0  0  0
  3  2  2  0  0  0  0
  4  3  1  0  0  0  0
  5  4  2  0  0  0  0
  5  6  1  0  0  0  0
  6  7  2  0  0  0  0
  7  2  1  0  0  0  0
  7 13  1  0  0  0  0
  8  4  1  0  0  0  0
  9  5  1  0  0  0  0
 10  6  1  0  0  0  0
 12 11  1  0  0  0  0
 12 17  1  0  0  0  0
 13 12  2  0  0  0  0
 14 13  1  0  0  0  0
 14 15  2  0  0  0  0
 15 16  1  0  0  0  0
 16 17  2  0  0  0  0
 16 20  1  0  0  0  0
 17 21  1  0  0  0  0
 18 14  1  0  0  0  0
 19 15  1  0  0  0  0
 21 22  1  0  0  0  0
 23 29  1  0  0  0  0
 23 28  1  0  0  0  0
 24 23  2  0  0  0  0
 25 24  1  0  0  0  0
 25 26  2  0  0  0  0
 26 27  1  0  0  0  0
 27 28  2  0  0  0  0
 27 32  1  0  0  0  0
 30 25  1  0  0  0  0
 31 32  2  0  0  0  0
 31 38  1  0  0  0  0
 32 33  1  0  0  0  0
 33 34  1  0  0  0  0
 33 35  2  0  0  0  0
 35 36  1  0  0  0  0
 37 35  1  0  0  0  0
 38 37  2  0  0  0  0
 39 40  3  0  0  0  0
 40 31  1  0  0  0  0
M  END
>  <minimizedAffinity>
-6.30524635

$$$$

 OpenBabel03272502083D

 40 43  0  0  0  0  0  0  0  0999 V2000
   36.6710   30.2240   35.6030 F   0  0  0  0  0  0  0  0  0  0  0  0
   35.7570   30.1010   34.5870 C   0  0  0  0  0  0  0  0  0  0  0  0
   35.6810   28.9670   33.7990 C   0  0  0  0  0  0  0  0  0  0  0  0
   34.7250   28.9110   32.8070 C   0  0  0  0  0  0  0  0  0  0  0  0
   33.8450   29.9800   32.5980 C   0  0  0  0  0  0  0  0  0  0  0  0
   33.9800   31.0840   33.4250 C   0  0  0  0  0  0  0  0  0  0  0  0
   34.8970   31.1830   34.4030 C   0  0  0  0  0  0  0  0  0  0  0  0
   34.6890   28.0080   32.2050 H   0  0  0  0  0  0  0  0  0  0  0  0
   33.1120   29.8920   31.8110 H   0  0  0  0  0  0  0  0  0  0  0  0
   33.2620   31.8590   33.1920 H   0  0  0  0  0  0  0  0  0  0  0  0
   33.1200   31.3290   36.9740 Br  0  0  0  0  0  0  0  0  0  0  0  0
   34.3410   32.6630   36.3920 C   0  0  0  0  0  0  0  0  0  0  0  0
   34.9870   32.3750   35.2180 C   0  0  0  0  0  0  0  0  0  0  0  0
   35.8810   33.3310   34.7080 C   0  0  0  0  0  0  0  0  0  0  0  0
   36.0970   34.5010   35.3610 C   0  0  0  0  0  0  0  0  0  0  0  0
   35.4110   34.7290   36.5470 C   0  0  0  0  0  0  0  0  0  0  0  0
   34.5130   33.7940   37.0800 C   0  0  0  0  0  0  0  0  0  0  0  0
   36.4340   33.1980   33.7940 H   0  0  0  0  0  0  0  0  0  0  0  0
   36.7850   35.2560   34.9830 H   0  0  0  0  0  0  0  0  0  0  0  0
   35.5590   35.6550   37.0980 H   0  0  0  0  0  0  0  0  0  0  0  0
   33.8130   33.9550   38.2340 O   0  0  0  0  0  0  0  0  0  0  0  0
   32.9470   34.4740   38.3250 H   0  0  0  0  0  0  0  0  0  0  0  0
   37.2960   28.0440   35.3240 C   0  0  0  0  0  0  0  0  0  0  0  0
   36.6350   27.9460   34.1140 C   0  0  0  0  0  0  0  0  0  0  0  0
   36.9390   26.8620   33.2980 C   0  0  0  0  0  0  0  0  0  0  0  0
   37.8580   25.9460   33.7020 N   0  0  0  0  0  0  0  0  0  0  0  0
   38.4720   26.0770   34.8760 C   0  0  0  0  0  0  0  0  0  0  0  0
   38.2060   27.0980   35.6760 N   0  0  0  0  0  0  0  0  0  0  0  0
   37.1070   28.8630   36.0050 H   0  0  0  0  0  0  0  0  0  0  0  0
   36.4280   26.7790   32.3510 H   0  0  0  0  0  0  0  0  0  0  0  0
   40.7940   25.2070   34.9750 C   0  0  0  0  0  0  0  0  0  0  0  0
   39.4560   25.0780   35.2850 C   0  0  0  0  0  0  0  0  0  0  0  0
   39.0860   23.9530   36.0060 C   0  0  0  0  0  0  0  0  0  0  0  0
   38.0320   23.8750   36.2360 H   0  0  0  0  0  0  0  0  0  0  0  0
   40.0590   23.0410   36.3660 C   0  0  0  0  0  0  0  0  0  0  0  0
   39.7440   22.1710   36.9290 H   0  0  0  0  0  0  0  0  0  0  0  0
   41.3900   23.2070   36.0360 C   0  0  0  0  0  3  0  0  0  0  0  0
   41.7940   24.3240   35.3150 C   0  0  0  0  0  3  0  0  0  0  0  0
   41.5320   27.3180   33.6150 N   0  0  0  0  0  0  0  0  0  0  0  0
   41.2060   26.3800   34.2200 C   0  0  0  0  0  0  0  0  0  0  0  0
  2  1  1  0  0  0  0
  3 24  1  0  0  0  0
  3  2  2  0  0  0  0
  4  3  1  0  0  0  0
  5  4  2  0  0  0  0
  5  6  1  0  0  0  0
  6  7  2  0  0  0  0
  7  2  1  0  0  0  0
  7 13  1  0  0  0  0
  8  4  1  0  0  0  0
  9  5  1  0  0  0  0
 10  6  1  0  0  0  0
 12 11  1  0  0  0  0
 12 17  1  0  0  0  0
 13 12  2  0  0  0  0
 14 13  1  0  0  0  0
 14 15  2  0  0  0  0
 15 16  1  0  0  0  0
 16 17  2  0  0  0  0
 16 20  1  0  0  0  0
 17 21  1  0  0  0  0
 18 14  1  0  0  0  0
 19 15  1  0  0  0  0
 21 22  1  0  0  0  0
 23 28  1  0  0  0  0
 23 29  1  0  0  0  0
 24 23  2  0  0  0  0
 25 26  2  0  0  0  0
 25 24  1  0  0  0  0
 26 27  1  0  0  0  0
 27 32  1  0  0  0  0
 27 28  2  0  0  0  0
 30 25  1  0  0  0  0
 31 32  2  0  0  0  0
 31 38  1  0  0  0  0
 32 33  1  0  0  0  0
 33 34  1  0  0  0  0
 33 35  2  0  0  0  0
 35 36  1  0  0  0  0
 37 35  1  0  0  0  0
 38 37  2  0  0  0  0
 39 40  3  0  0  0  0
 40 31  1  0  0  0  0
M  END
>  <minimizedAffinity>
-6.28832769

$$$$

 OpenBabel03272502083D

 40 43  0  0  0  0  0  0  0  0999 V2000
   36.5500   25.0700   32.8200 F   0  0  0  0  0  0  0  0  0  0  0  0
   37.4130   25.4780   31.8350 C   0  0  0  0  0  0  0  0  0  0  0  0
   37.7510   26.8070   31.6570 C   0  0  0  0  0  0  0  0  0  0  0  0
   38.6380   27.1390   30.6540 C   0  0  0  0  0  0  0  0  0  0  0  0
   39.1900   26.1500   29.8300 C   0  0  0  0  0  0  0  0  0  0  0  0
   38.8060   24.8400   30.0670 C   0  0  0  0  0  0  0  0  0  0  0  0
   37.9440   24.4710   31.0310 C   0  0  0  0  0  0  0  0  0  0  0  0
   38.8830   28.1900   30.5390 H   0  0  0  0  0  0  0  0  0  0  0  0
   39.8810   26.4560   29.0600 H   0  0  0  0  0  0  0  0  0  0  0  0
   39.2800   24.1460   29.3850 H   0  0  0  0  0  0  0  0  0  0  0  0
   40.1940   22.4700   31.8830 Br  0  0  0  0  0  0  0  0  0  0  0  0
   38.3660   22.0320   31.6010 C   0  0  0  0  0  0  0  0  0  0  0  0
   37.5800   23.0820   31.2090 C   0  0  0  0  0  0  0  0  0  0  0  0
   36.2230   22.8260   30.9490 C   0  0  0  0  0  0  0  0  0  0  0  0
   35.7110   21.5760   31.0850 C   0  0  0  0  0  0  0  0  0  0  0  0
   36.5640   20.5570   31.4900 C   0  0  0  0  0  0  0  0  0  0  0  0
   37.9210   20.7830   31.7550 C   0  0  0  0  0  0  0  0  0  0  0  0
   35.5250   23.5840   30.6350 H   0  0  0  0  0  0  0  0  0  0  0  0
   34.6630   21.3560   30.8900 H   0  0  0  0  0  0  0  0  0  0  0  0
   36.1900   19.5430   31.6100 H   0  0  0  0  0  0  0  0  0  0  0  0
   38.8070   19.8310   32.1540 O   0  0  0  0  0  0  0  0  0  0  0  0
   39.2860   19.1840   31.5390 H   0  0  0  0  0  0  0  0  0  0  0  0
   36.5150   28.8380   32.0230 C   0  0  0  0  0  0  0  0  0  0  0  0
   37.1190   27.7190   32.5640 C   0  0  0  0  0  0  0  0  0  0  0  0
   37.0620   27.5580   33.9440 C   0  0  0  0  0  0  0  0  0  0  0  0
   36.4280   28.4850   34.7090 N   0  0  0  0  0  0  0  0  0  0  0  0
   35.8580   29.5480   34.1490 C   0  0  0  0  0  0  0  0  0  0  0  0
   35.8950   29.7320   32.8370 N   0  0  0  0  0  0  0  0  0  0  0  0
   36.5230   29.0240   30.9570 H   0  0  0  0  0  0  0  0  0  0  0  0
   37.5330   26.6870   34.3730 H   0  0  0  0  0  0  0  0  0  0  0  0
   33.8100   30.6600   35.0010 C   0  0  0  0  0  0  0  0  0  0  0  0
   35.1830   30.5290   34.9950 C   0  0  0  0  0  0  0  0  0  0  0  0
   35.8960   31.3730   35.8320 C   0  0  0  0  0  0  0  0  0  0  0  0
   36.9700   31.2510   35.8090 H   0  0  0  0  0  0  0  0  0  0  0  0
   35.2040   32.2810   36.6100 C   0  0  0  0  0  0  0  0  0  0  0  0
   35.7850   32.9290   37.2560 H   0  0  0  0  0  0  0  0  0  0  0  0
   33.8270   32.3810   36.5870 C   0  0  0  0  0  3  0  0  0  0  0  0
   33.0830   31.5500   35.7600 C   0  0  0  0  0  3  0  0  0  0  0  0
   32.4260   29.0850   33.4330 N   0  0  0  0  0  0  0  0  0  0  0  0
   33.0400   29.7840   34.1310 C   0  0  0  0  0  0  0  0  0  0  0  0
  2  1  1  0  0  0  0
  3  2  1  0  0  0  0
  3 24  1  0  0  0  0
  4  3  2  0  0  0  0
  5  6  2  0  0  0  0
  5  4  1  0  0  0  0
  6  7  1  0  0  0  0
  7 13  1  0  0  0  0
  7  2  2  0  0  0  0
  8  4  1  0  0  0  0
  9  5  1  0  0  0  0
 10  6  1  0  0  0  0
 12 17  1  0  0  0  0
 12 11  1  0  0  0  0
 13 12  2  0  0  0  0
 14 15  2  0  0  0  0
 14 13  1  0  0  0  0
 15 16  1  0  0  0  0
 16 20  1  0  0  0  0
 16 17  2  0  0  0  0
 17 21  1  0  0  0  0
 18 14  1  0  0  0  0
 19 15  1  0  0  0  0
 22 21  1  0  0  0  0
 23 24  2  0  0  0  0
 23 28  1  0  0  0  0
 24 25  1  0  0  0  0
 25 30  1  0  0  0  0
 25 26  2  0  0  0  0
 27 26  1  0  0  0  0
 27 32  1  0  0  0  0
 28 27  2  0  0  0  0
 29 23  1  0  0  0  0
 31 38  1  0  0  0  0
 32 31  2  0  0  0  0
 32 33  1  0  0  0  0
 33 35  2  0  0  0  0
 34 33  1  0  0  0  0
 35 36  1  0  0  0  0
 37 35  1  0  0  0  0
 38 37  2  0  0  0  0
 39 40  3  0  0  0  0
 40 31  1  0  0  0  0
M  END
>  <minimizedAffinity>
-6.18416166

$$$$

 OpenBabel03272502083D

 40 43  0  0  0  0  0  0  0  0999 V2000
   38.2980   28.4280   31.7400 F   0  0  0  0  0  0  0  0  0  0  0  0
   37.0090   28.8360   31.9730 C   0  0  0  0  0  0  0  0  0  0  0  0
   36.2770   28.3790   33.0530 C   0  0  0  0  0  0  0  0  0  0  0  0
   34.9920   28.8470   33.2310 C   0  0  0  0  0  0  0  0  0  0  0  0
   34.4340   29.7680   32.3350 C   0  0  0  0  0  0  0  0  0  0  0  0
   35.2260   30.1810   31.2750 C   0  0  0  0  0  0  0  0  0  0  0  0
   36.4830   29.7510   31.0620 C   0  0  0  0  0  0  0  0  0  0  0  0
   34.4420   28.4710   34.0880 H   0  0  0  0  0  0  0  0  0  0  0  0
   33.4260   30.1080   32.5140 H   0  0  0  0  0  0  0  0  0  0  0  0
   34.7160   30.8900   30.6360 H   0  0  0  0  0  0  0  0  0  0  0  0
   37.2730   32.7770   30.9760 Br  0  0  0  0  0  0  0  0  0  0  0  0
   37.7290   31.4730   29.6720 C   0  0  0  0  0  0  0  0  0  0  0  0
   37.2440   30.2170   29.9240 C   0  0  0  0  0  0  0  0  0  0  0  0
   37.5130   29.2080   28.9850 C   0  0  0  0  0  0  0  0  0  0  0  0
   38.2320   29.4720   27.8640 C   0  0  0  0  0  0  0  0  0  0  0  0
   38.6960   30.7670   27.6720 C   0  0  0  0  0  0  0  0  0  0  0  0
   38.4430   31.7940   28.5910 C   0  0  0  0  0  0  0  0  0  0  0  0
   37.1750   28.1910   29.0920 H   0  0  0  0  0  0  0  0  0  0  0  0
   38.4530   28.7050   27.1240 H   0  0  0  0  0  0  0  0  0  0  0  0
   39.2770   31.0170   26.7860 H   0  0  0  0  0  0  0  0  0  0  0  0
   38.8690   33.0790   28.4620 O   0  0  0  0  0  0  0  0  0  0  0  0
   38.4110   33.7940   27.9080 H   0  0  0  0  0  0  0  0  0  0  0  0
   37.0330   26.1320   33.4580 C   0  0  0  0  0  0  0  0  0  0  0  0
   36.9600   27.4410   33.8950 C   0  0  0  0  0  0  0  0  0  0  0  0
   37.5580   27.7510   35.1110 C   0  0  0  0  0  0  0  0  0  0  0  0
   38.1870   26.7810   35.8230 N   0  0  0  0  0  0  0  0  0  0  0  0
   38.2370   25.5320   35.3670 C   0  0  0  0  0  0  0  0  0  0  0  0
   37.6760   25.2030   34.2130 N   0  0  0  0  0  0  0  0  0  0  0  0
   36.5880   25.8240   32.5210 H   0  0  0  0  0  0  0  0  0  0  0  0
   37.5030   28.7720   35.4580 H   0  0  0  0  0  0  0  0  0  0  0  0
   40.1370   23.9870   35.7670 C   0  0  0  0  0  0  0  0  0  0  0  0
   38.9200   24.5080   36.1540 C   0  0  0  0  0  0  0  0  0  0  0  0
   38.3730   24.0140   37.3280 C   0  0  0  0  0  0  0  0  0  0  0  0
   37.4180   24.4380   37.6090 H   0  0  0  0  0  0  0  0  0  0  0  0
   39.0630   23.0460   38.0310 C   0  0  0  0  0  0  0  0  0  0  0  0
   38.6140   22.6770   38.9450 H   0  0  0  0  0  0  0  0  0  0  0  0
   40.2810   22.5500   37.6090 C   0  0  0  0  0  3  0  0  0  0  0  0
   40.8580   23.0240   36.4380 C   0  0  0  0  0  3  0  0  0  0  0  0
   41.2090   24.8950   33.5580 N   0  0  0  0  0  0  0  0  0  0  0  0
   40.7320   24.4910   34.5390 C   0  0  0  0  0  0  0  0  0  0  0  0
  1  2  1  0  0  0  0
  2  3  1  0  0  0  0
  3  4  2  0  0  0  0
  3 24  1  0  0  0  0
  4  8  1  0  0  0  0
  5  9  1  0  0  0  0
  5  4  1  0  0  0  0
  6  5  2  0  0  0  0
  7  6  1  0  0  0  0
  7  2  2  0  0  0  0
 10  6  1  0  0  0  0
 12 13  1  0  0  0  0
 12 11  1  0  0  0  0
 13  7  1  0  0  0  0
 14 18  1  0  0  0  0
 14 13  2  0  0  0  0
 15 14  1  0  0  0  0
 16 15  2  0  0  0  0
 16 17  1  0  0  0  0
 17 12  2  0  0  0  0
 19 15  1  0  0  0  0
 20 16  1  0  0  0  0
 21 17  1  0  0  0  0
 22 21  1  0  0  0  0
 23 24  2  0  0  0  0
 23 28  1  0  0  0  0
 24 25  1  0  0  0  0
 25 30  1  0  0  0  0
 25 26  2  0  0  0  0
 27 26  1  0  0  0  0
 27 32  1  0  0  0  0
 28 27  2  0  0  0  0
 29 23  1  0  0  0  0
 31 32  2  0  0  0  0
 31 38  1  0  0  0  0
 32 33  1  0  0  0  0
 33 34  1  0  0  0  0
 33 35  2  0  0  0  0
 35 36  1  0  0  0  0
 37 35  1  0  0  0  0
 38 37  2  0  0  0  0
 39 40  3  0  0  0  0
 40 31  1  0  0  0  0
M  END
>  <minimizedAffinity>
-6.16903925

$$$$
