
 OpenBabel03272508123D

 35 37  0  0  0  0  0  0  0  0999 V2000
   36.8030   29.3320   44.1810 Cl  0  0  0  0  0  0  0  0  0  0  0  0
   38.4520   29.7560   43.6610 C   0  0  0  0  0  0  0  0  0  0  0  0
   39.4030   30.3460   44.5060 C   0  0  0  0  0  0  0  0  0  0  0  0
   40.6410   30.6160   43.9560 C   0  0  0  0  0  0  0  0  0  0  0  0
   40.9260   30.3190   42.6380 C   0  0  0  0  0  0  0  0  0  0  0  0
   40.0050   29.7450   41.8120 C   0  0  0  0  0  0  0  0  0  0  0  0
   38.7760   29.4700   42.3360 C   0  0  0  0  0  0  0  0  0  0  0  0
   41.3170   31.0720   44.6780 H   0  0  0  0  0  0  0  0  0  0  0  0
   41.9300   30.5770   42.3210 H   0  0  0  0  0  0  0  0  0  0  0  0
   40.2950   29.5420   40.7990 H   0  0  0  0  0  0  0  0  0  0  0  0
   37.6880   27.4580   41.4560 C   0  0  0  0  0  0  0  0  0  0  0  0
   37.7870   28.8500   41.4350 C   0  0  0  0  0  0  0  0  0  0  0  0
   36.9980   29.6260   40.6120 C   0  0  0  0  0  0  0  0  0  0  0  0
   37.0760   30.7070   40.5960 H   0  0  0  0  0  0  0  0  0  0  0  0
   36.0780   29.0340   39.7760 C   0  0  0  0  0  0  0  0  0  0  0  0
   35.4290   29.5890   39.1060 H   0  0  0  0  0  0  0  0  0  0  0  0
   35.9700   27.6570   39.7860 C   0  0  0  0  0  3  0  0  0  0  0  0
   36.7440   26.8830   40.5960 C   0  0  0  0  0  3  0  0  0  0  0  0
   39.1870   26.0220   43.0260 N   0  0  0  0  0  0  0  0  0  0  0  0
   38.5320   26.6650   42.3350 C   0  0  0  0  0  0  0  0  0  0  0  0
   38.9310   30.5580   45.7620 O   0  0  0  0  0  0  0  0  0  0  0  0
   39.4590   32.7020   47.1090 O   0  0  0  0  0  0  0  0  0  0  0  0
   38.3450   31.9720   46.4570 P   0  0  1  0  0  0  0  0  0  0  0  0
   37.7250   32.8810   45.1490 O   0  0  0  0  0  0  0  0  0  0  0  0
   38.4480   33.3830   44.6930 H   0  0  0  0  0  0  0  0  0  0  0  0
   37.0730   31.5770   47.5170 O   0  0  0  0  0  0  0  0  0  0  0  0
   37.6540   30.4920   51.0020 C   0  0  0  0  0  0  0  0  0  0  0  0
   37.7450   31.3340   49.8750 C   0  0  0  0  0  0  0  0  0  0  0  0
   37.1180   30.9400   48.6980 C   0  0  0  0  0  0  0  0  0  0  0  0
   36.4420   29.7490   48.6980 N   0  0  0  0  0  0  0  0  0  0  0  0
   36.3810   28.9790   49.7930 C   0  0  0  0  0  0  0  0  0  0  0  0
   36.9830   29.3480   50.9390 N   0  0  0  0  0  0  0  0  0  0  0  0
   38.1910   30.9210   51.8560 H   0  0  0  0  0  0  0  0  0  0  0  0
   38.2470   32.2780   49.7790 H   0  0  0  0  0  0  0  0  0  0  0  0
   35.8440   28.0310   49.7980 H   0  0  0  0  0  0  0  0  0  0  0  0
  2  1  1  0  0  0  0
  2  3  1  0  0  0  0
  3 21  1  0  0  0  0
  4  3  2  0  0  0  0
  4  8  1  0  0  0  0
  5  4  1  0  0  0  0
  6  7  1  0  0  0  0
  6  5  2  0  0  0  0
  7  2  2  0  0  0  0
  9  5  1  0  0  0  0
 10  6  1  0  0  0  0
 11 20  1  0  0  0  0
 12 11  1  0  0  0  0
 12  7  1  0  0  0  0
 13 12  2  0  0  0  0
 14 13  1  0  0  0  0
 15 17  2  0  0  0  0
 15 13  1  0  0  0  0
 16 15  1  0  0  0  0
 17 18  1  0  0  0  0
 18 11  2  0  0  0  0
 20 19  3  0  0  0  0
 21 23  1  0  0  0  0
 23 22  2  1  0  0  0
 23 26  1  0  0  0  0
 24 23  1  0  0  0  0
 25 24  1  0  0  0  0
 26 29  1  0  0  0  0
 27 33  1  0  0  0  0
 28 27  2  0  0  0  0
 29 30  2  0  0  0  0
 29 28  1  0  0  0  0
 30 31  1  0  0  0  0
 31 35  1  0  0  0  0
 31 32  2  0  0  0  0
 32 27  1  0  0  0  0
 34 28  1  0  0  0  0
M  END
>  <minimizedAffinity>
-4.85557747

>  <minimizedRMSD>
0.771194994

$$$$
