
 OpenBabel03262523103D

 21 22  0  0  0  0  0  0  0  0999 V2000
   39.1470   23.0910   37.8170 C   0  0  0  0  0  0  0  0  0  0  0  0
   40.3990   22.5870   37.3800 C   0  0  0  0  0  0  0  0  0  0  0  0
   40.9360   23.1320   36.2160 C   0  0  0  0  0  0  0  0  0  0  0  0
   40.2300   24.0970   35.5920 N   0  0  0  0  0  0  0  0  0  0  0  0
   39.0510   24.5670   36.0120 C   0  0  0  0  0  0  0  0  0  0  0  0
   38.5280   24.0520   37.1230 N   0  0  0  0  0  0  0  0  0  0  0  0
   40.8600   21.8260   37.9540 H   0  0  0  0  0  0  0  0  0  0  0  0
   41.8940   22.7630   35.8600 H   0  0  0  0  0  0  0  0  0  0  0  0
   37.7840   25.3310   34.0520 C   0  0  0  0  0  0  0  0  0  0  0  0
   38.3520   25.6130   35.2770 C   0  0  0  0  0  0  0  0  0  0  0  0
   38.2500   26.8900   35.7920 C   0  0  0  0  0  0  0  0  0  0  0  0
   38.6930   27.1420   36.7630 H   0  0  0  0  0  0  0  0  0  0  0  0
   37.5910   27.9280   35.1270 C   0  0  0  0  0  0  0  0  0  0  0  0
   37.5000   28.9210   35.5040 H   0  0  0  0  0  0  0  0  0  0  0  0
   37.0440   27.5620   33.8930 C   0  0  0  0  0  3  0  0  0  0  0  0
   37.1170   26.3010   33.3350 C   0  0  0  0  0  3  0  0  0  0  0  0
   37.9230   22.9430   33.0240 N   0  0  0  0  0  0  0  0  0  0  0  0
   37.8720   24.0060   33.4840 C   0  0  0  0  0  0  0  0  0  0  0  0
   38.5070   22.6000   39.0000 N   0  0  0  0  0  0  0  0  0  0  0  0
   38.9960   22.9140   39.8720 H   0  0  0  0  0  0  0  0  0  0  0  0
   37.6470   21.9920   39.1140 H   0  0  0  0  0  0  0  0  0  0  0  0
  1 19  1  0  0  0  0
  2  1  1  0  0  0  0
  2  7  1  0  0  0  0
  3  2  2  0  0  0  0
  4  5  2  0  0  0  0
  4  3  1  0  0  0  0
  5  6  1  0  0  0  0
  6  1  2  0  0  0  0
  8  3  1  0  0  0  0
  9 10  1  0  0  0  0
 10 11  2  0  0  0  0
 10  5  1  0  0  0  0
 11 12  1  0  0  0  0
 13 14  1  0  0  0  0
 13 11  1  0  0  0  0
 15 13  2  0  0  0  0
 16 15  1  0  0  0  0
 16  9  2  0  0  0  0
 17 18  3  0  0  0  0
 18  9  1  0  0  0  0
 19 21  1  0  0  0  0
 19 20  1  0  0  0  0
M  END
>  <minimizedAffinity>
-4.7442441

$$$$

 OpenBabel03262523103D

 21 22  0  0  0  0  0  0  0  0999 V2000
   39.7200   22.8350   37.5280 C   0  0  0  0  0  0  0  0  0  0  0  0
   38.6620   23.1970   38.4010 C   0  0  0  0  0  0  0  0  0  0  0  0
   37.8620   24.2720   38.0220 C   0  0  0  0  0  0  0  0  0  0  0  0
   38.1500   24.8880   36.8570 N   0  0  0  0  0  0  0  0  0  0  0  0
   39.1490   24.5390   36.0410 C   0  0  0  0  0  0  0  0  0  0  0  0
   39.9210   23.5120   36.3930 N   0  0  0  0  0  0  0  0  0  0  0  0
   38.5330   22.6370   39.2910 H   0  0  0  0  0  0  0  0  0  0  0  0
   37.0440   24.5700   38.6730 H   0  0  0  0  0  0  0  0  0  0  0  0
   38.9000   24.7640   33.6080 C   0  0  0  0  0  0  0  0  0  0  0  0
   39.3920   25.2600   34.7970 C   0  0  0  0  0  0  0  0  0  0  0  0
   40.1130   26.4370   34.7940 C   0  0  0  0  0  0  0  0  0  0  0  0
   40.5170   26.8520   35.7250 H   0  0  0  0  0  0  0  0  0  0  0  0
   40.3740   27.1650   33.6300 C   0  0  0  0  0  0  0  0  0  0  0  0
   40.9280   28.0760   33.6010 H   0  0  0  0  0  0  0  0  0  0  0  0
   39.8420   26.5980   32.4670 C   0  0  0  0  0  3  0  0  0  0  0  0
   39.1150   25.4250   32.4170 C   0  0  0  0  0  3  0  0  0  0  0  0
   37.5190   22.5570   33.5590 N   0  0  0  0  0  0  0  0  0  0  0  0
   38.1420   23.5360   33.5750 C   0  0  0  0  0  0  0  0  0  0  0  0
   40.6020   21.7450   37.8220 N   0  0  0  0  0  0  0  0  0  0  0  0
   40.1290   20.8150   37.7170 H   0  0  0  0  0  0  0  0  0  0  0  0
   41.6190   21.7450   38.1170 H   0  0  0  0  0  0  0  0  0  0  0  0
  1 19  1  0  0  0  0
  1  2  1  0  0  0  0
  2  7  1  0  0  0  0
  3  2  2  0  0  0  0
  3  8  1  0  0  0  0
  4  3  1  0  0  0  0
  5  6  1  0  0  0  0
  5  4  2  0  0  0  0
  6  1  2  0  0  0  0
  9 10  1  0  0  0  0
 10  5  1  0  0  0  0
 11 10  2  0  0  0  0
 11 12  1  0  0  0  0
 13 11  1  0  0  0  0
 14 13  1  0  0  0  0
 15 13  2  0  0  0  0
 16 15  1  0  0  0  0
 16  9  2  0  0  0  0
 17 18  3  0  0  0  0
 18  9  1  0  0  0  0
 19 21  1  0  0  0  0
 20 19  1  0  0  0  0
M  END
>  <minimizedAffinity>
-4.63208294

$$$$

 OpenBabel03262523103D

 21 22  0  0  0  0  0  0  0  0999 V2000
   38.4090   23.5780   37.6920 C   0  0  0  0  0  0  0  0  0  0  0  0
   39.7160   23.0930   37.9540 C   0  0  0  0  0  0  0  0  0  0  0  0
   40.2410   22.1610   37.0620 C   0  0  0  0  0  0  0  0  0  0  0  0
   39.4730   21.7890   36.0180 N   0  0  0  0  0  0  0  0  0  0  0  0
   38.2420   22.2530   35.7790 C   0  0  0  0  0  0  0  0  0  0  0  0
   37.7290   23.1440   36.6260 N   0  0  0  0  0  0  0  0  0  0  0  0
   40.2240   23.4580   38.8080 H   0  0  0  0  0  0  0  0  0  0  0  0
   41.2410   21.7730   37.2400 H   0  0  0  0  0  0  0  0  0  0  0  0
   36.2500   21.1940   34.8080 C   0  0  0  0  0  0  0  0  0  0  0  0
   37.4760   21.7980   34.6250 C   0  0  0  0  0  0  0  0  0  0  0  0
   37.9660   21.9640   33.3450 C   0  0  0  0  0  0  0  0  0  0  0  0
   38.9380   22.4400   33.1710 H   0  0  0  0  0  0  0  0  0  0  0  0
   37.2720   21.5450   32.2060 C   0  0  0  0  0  0  0  0  0  0  0  0
   37.6280   21.6610   31.2070 H   0  0  0  0  0  0  0  0  0  0  0  0
   36.0380   20.9430   32.4750 C   0  0  0  0  0  3  0  0  0  0  0  0
   35.5050   20.7540   33.7340 C   0  0  0  0  0  3  0  0  0  0  0  0
   35.2830   20.8370   37.1990 N   0  0  0  0  0  0  0  0  0  0  0  0
   35.7090   21.0050   36.1330 C   0  0  0  0  0  0  0  0  0  0  0  0
   37.7740   24.5370   38.5460 N   0  0  0  0  0  0  0  0  0  0  0  0
   38.2020   25.4900   38.4540 H   0  0  0  0  0  0  0  0  0  0  0  0
   36.9710   24.4260   39.2260 H   0  0  0  0  0  0  0  0  0  0  0  0
  1  2  1  0  0  0  0
  1 19  1  0  0  0  0
  2  7  1  0  0  0  0
  3  8  1  0  0  0  0
  3  2  2  0  0  0  0
  4  3  1  0  0  0  0
  5  4  2  0  0  0  0
  5  6  1  0  0  0  0
  6  1  2  0  0  0  0
  9 18  1  0  0  0  0
 10  9  1  0  0  0  0
 10  5  1  0  0  0  0
 11 10  2  0  0  0  0
 12 11  1  0  0  0  0
 13 15  2  0  0  0  0
 13 11  1  0  0  0  0
 14 13  1  0  0  0  0
 15 16  1  0  0  0  0
 16  9  2  0  0  0  0
 18 17  3  0  0  0  0
 19 21  1  0  0  0  0
 20 19  1  0  0  0  0
M  END
>  <minimizedAffinity>
-4.53192186

$$$$

 OpenBabel03262523103D

 21 22  0  0  0  0  0  0  0  0999 V2000
   39.3160   22.6770   36.1770 C   0  0  0  0  0  0  0  0  0  0  0  0
   39.3170   24.0870   36.0180 C   0  0  0  0  0  0  0  0  0  0  0  0
   38.5430   24.6130   34.9860 C   0  0  0  0  0  0  0  0  0  0  0  0
   37.8510   23.7480   34.2170 N   0  0  0  0  0  0  0  0  0  0  0  0
   37.8550   22.4210   34.3770 C   0  0  0  0  0  0  0  0  0  0  0  0
   38.5920   21.9060   35.3590 N   0  0  0  0  0  0  0  0  0  0  0  0
   39.9020   24.6660   36.6840 H   0  0  0  0  0  0  0  0  0  0  0  0
   38.5270   25.6910   34.8420 H   0  0  0  0  0  0  0  0  0  0  0  0
   36.0240   20.8260   34.0120 C   0  0  0  0  0  0  0  0  0  0  0  0
   37.0770   21.5540   33.4990 C   0  0  0  0  0  0  0  0  0  0  0  0
   37.3820   21.4530   32.1570 C   0  0  0  0  0  0  0  0  0  0  0  0
   38.2140   22.0200   31.7240 H   0  0  0  0  0  0  0  0  0  0  0  0
   36.6670   20.6370   31.2750 C   0  0  0  0  0  0  0  0  0  0  0  0
   36.8830   20.5410   30.2350 H   0  0  0  0  0  0  0  0  0  0  0  0
   35.6160   19.9320   31.8700 C   0  0  0  0  0  3  0  0  0  0  0  0
   35.2710   19.9980   33.2050 C   0  0  0  0  0  3  0  0  0  0  0  0
   35.4020   20.9560   36.5370 N   0  0  0  0  0  0  0  0  0  0  0  0
   35.6780   20.9080   35.4110 C   0  0  0  0  0  0  0  0  0  0  0  0
   40.0770   22.0340   37.2060 N   0  0  0  0  0  0  0  0  0  0  0  0
   39.6680   22.1940   38.1570 H   0  0  0  0  0  0  0  0  0  0  0  0
   40.9550   21.4450   37.1440 H   0  0  0  0  0  0  0  0  0  0  0  0
  1 19  1  0  0  0  0
  2  1  1  0  0  0  0
  2  7  1  0  0  0  0
  3  2  2  0  0  0  0
  4  5  2  0  0  0  0
  4  3  1  0  0  0  0
  5  6  1  0  0  0  0
  6  1  2  0  0  0  0
  8  3  1  0  0  0  0
  9 18  1  0  0  0  0
 10  9  1  0  0  0  0
 10  5  1  0  0  0  0
 11 10  2  0  0  0  0
 12 11  1  0  0  0  0
 13 15  2  0  0  0  0
 13 11  1  0  0  0  0
 14 13  1  0  0  0  0
 15 16  1  0  0  0  0
 16  9  2  0  0  0  0
 18 17  3  0  0  0  0
 19 20  1  0  0  0  0
 21 19  1  0  0  0  0
M  END
>  <minimizedAffinity>
-4.40961504

$$$$

 OpenBabel03262523103D

 21 22  0  0  0  0  0  0  0  0999 V2000
   39.2350   23.0040   37.5900 C   0  0  0  0  0  0  0  0  0  0  0  0
   40.6290   22.7860   37.4450 C   0  0  0  0  0  0  0  0  0  0  0  0
   41.1930   23.0620   36.2010 C   0  0  0  0  0  0  0  0  0  0  0  0
   40.3740   23.5140   35.2280 N   0  0  0  0  0  0  0  0  0  0  0  0
   39.0610   23.7160   35.3750 C   0  0  0  0  0  0  0  0  0  0  0  0
   38.5120   23.4560   36.5600 N   0  0  0  0  0  0  0  0  0  0  0  0
   41.1700   22.4280   38.2820 H   0  0  0  0  0  0  0  0  0  0  0  0
   42.2590   22.9040   36.0630 H   0  0  0  0  0  0  0  0  0  0  0  0
   37.9430   25.5500   34.1850 C   0  0  0  0  0  0  0  0  0  0  0  0
   38.2470   24.2080   34.2700 C   0  0  0  0  0  0  0  0  0  0  0  0
   37.7730   23.3430   33.3050 C   0  0  0  0  0  0  0  0  0  0  0  0
   37.9980   22.2710   33.3500 H   0  0  0  0  0  0  0  0  0  0  0  0
   36.9890   23.7630   32.2260 C   0  0  0  0  0  0  0  0  0  0  0  0
   36.6100   23.1150   31.4690 H   0  0  0  0  0  0  0  0  0  0  0  0
   36.7250   25.1370   32.2110 C   0  0  0  0  0  3  0  0  0  0  0  0
   37.1750   26.0430   33.1500 C   0  0  0  0  0  3  0  0  0  0  0  0
   38.8240   27.2350   35.9640 N   0  0  0  0  0  0  0  0  0  0  0  0
   38.4230   26.4830   35.1770 C   0  0  0  0  0  0  0  0  0  0  0  0
   38.5560   22.7520   38.8260 N   0  0  0  0  0  0  0  0  0  0  0  0
   38.7960   23.4630   39.5580 H   0  0  0  0  0  0  0  0  0  0  0  0
   37.8780   21.9850   39.0920 H   0  0  0  0  0  0  0  0  0  0  0  0
  1 19  1  0  0  0  0
  2  1  1  0  0  0  0
  2  7  1  0  0  0  0
  3  2  2  0  0  0  0
  4  5  2  0  0  0  0
  4  3  1  0  0  0  0
  5  6  1  0  0  0  0
  6  1  2  0  0  0  0
  8  3  1  0  0  0  0
  9 10  1  0  0  0  0
  9 18  1  0  0  0  0
 10  5  1  0  0  0  0
 11 12  1  0  0  0  0
 11 10  2  0  0  0  0
 13 11  1  0  0  0  0
 14 13  1  0  0  0  0
 15 13  2  0  0  0  0
 15 16  1  0  0  0  0
 16  9  2  0  0  0  0
 18 17  3  0  0  0  0
 19 21  1  0  0  0  0
 19 20  1  0  0  0  0
M  END
>  <minimizedAffinity>
-4.39704657

$$$$

 OpenBabel03262523103D

 21 22  0  0  0  0  0  0  0  0999 V2000
   36.0280   29.6950   31.6340 C   0  0  0  0  0  0  0  0  0  0  0  0
   36.6260   28.4240   31.8360 C   0  0  0  0  0  0  0  0  0  0  0  0
   36.6150   27.9120   33.1310 C   0  0  0  0  0  0  0  0  0  0  0  0
   36.0380   28.6580   34.0960 N   0  0  0  0  0  0  0  0  0  0  0  0
   35.4760   29.8540   33.8950 C   0  0  0  0  0  0  0  0  0  0  0  0
   35.4810   30.3540   32.6610 N   0  0  0  0  0  0  0  0  0  0  0  0
   37.0500   27.9310   31.0000 H   0  0  0  0  0  0  0  0  0  0  0  0
   37.0670   26.9400   33.3130 H   0  0  0  0  0  0  0  0  0  0  0  0
   33.5200   30.4870   35.2380 C   0  0  0  0  0  0  0  0  0  0  0  0
   34.8730   30.5970   34.9950 C   0  0  0  0  0  0  0  0  0  0  0  0
   35.6420   31.4140   35.8000 C   0  0  0  0  0  0  0  0  0  0  0  0
   36.7190   31.5200   35.6280 H   0  0  0  0  0  0  0  0  0  0  0  0
   35.1120   32.1460   36.8660 C   0  0  0  0  0  0  0  0  0  0  0  0
   35.6840   32.7830   37.5010 H   0  0  0  0  0  0  0  0  0  0  0  0
   33.7350   31.9810   37.0470 C   0  0  0  0  0  3  0  0  0  0  0  0
   32.9230   31.1780   36.2720 C   0  0  0  0  0  3  0  0  0  0  0  0
   32.0010   28.9720   33.7620 N   0  0  0  0  0  0  0  0  0  0  0  0
   32.6860   29.6420   34.4160 C   0  0  0  0  0  0  0  0  0  0  0  0
   35.9850   30.3120   30.3420 N   0  0  0  0  0  0  0  0  0  0  0  0
   35.3100   29.8340   29.6990 H   0  0  0  0  0  0  0  0  0  0  0  0
   36.5160   31.1460   29.9620 H   0  0  0  0  0  0  0  0  0  0  0  0
  1  2  2  0  0  0  0
  1  6  1  0  0  0  0
  2  3  1  0  0  0  0
  3  8  1  0  0  0  0
  3  4  2  0  0  0  0
  5  4  1  0  0  0  0
  5 10  1  0  0  0  0
  6  5  2  0  0  0  0
  7  2  1  0  0  0  0
  9 16  1  0  0  0  0
 10  9  2  0  0  0  0
 10 11  1  0  0  0  0
 11 13  2  0  0  0  0
 12 11  1  0  0  0  0
 13 15  1  0  0  0  0
 13 14  1  0  0  0  0
 16 15  2  0  0  0  0
 17 18  3  0  0  0  0
 18  9  1  0  0  0  0
 19  1  1  0  0  0  0
 20 19  1  0  0  0  0
 21 19  1  0  0  0  0
M  END
>  <minimizedAffinity>
-4.37912846

$$$$

 OpenBabel03262523103D

 21 22  0  0  0  0  0  0  0  0999 V2000
   36.6460   27.8680   33.4090 C   0  0  0  0  0  0  0  0  0  0  0  0
   36.8220   28.3600   32.0900 C   0  0  0  0  0  0  0  0  0  0  0  0
   36.3310   29.6340   31.8140 C   0  0  0  0  0  0  0  0  0  0  0  0
   35.7270   30.3050   32.8170 N   0  0  0  0  0  0  0  0  0  0  0  0
   35.5680   29.8320   34.0580 C   0  0  0  0  0  0  0  0  0  0  0  0
   36.0330   28.6150   34.3330 N   0  0  0  0  0  0  0  0  0  0  0  0
   37.3120   27.7410   31.3850 H   0  0  0  0  0  0  0  0  0  0  0  0
   36.4520   30.0350   30.8110 H   0  0  0  0  0  0  0  0  0  0  0  0
   33.5340   30.5480   35.2320 C   0  0  0  0  0  0  0  0  0  0  0  0
   34.9030   30.6240   35.0860 C   0  0  0  0  0  0  0  0  0  0  0  0
   35.6290   31.4520   35.9170 C   0  0  0  0  0  0  0  0  0  0  0  0
   36.7180   31.5320   35.8220 H   0  0  0  0  0  0  0  0  0  0  0  0
   35.0390   32.2310   36.9170 C   0  0  0  0  0  0  0  0  0  0  0  0
   35.5770   32.8790   37.5720 H   0  0  0  0  0  0  0  0  0  0  0  0
   33.6490   32.0990   37.0020 C   0  0  0  0  0  3  0  0  0  0  0  0
   32.8780   31.2850   36.1960 C   0  0  0  0  0  3  0  0  0  0  0  0
   32.0970   29.0170   33.6920 N   0  0  0  0  0  0  0  0  0  0  0  0
   32.7440   29.6910   34.3790 C   0  0  0  0  0  0  0  0  0  0  0  0
   37.1130   26.5710   33.7990 N   0  0  0  0  0  0  0  0  0  0  0  0
   38.1580   26.5320   33.8680 H   0  0  0  0  0  0  0  0  0  0  0  0
   36.5760   25.6850   34.0170 H   0  0  0  0  0  0  0  0  0  0  0  0
  1 19  1  0  0  0  0
  1  6  1  0  0  0  0
  2  1  2  0  0  0  0
  3  2  1  0  0  0  0
  3  4  2  0  0  0  0
  4  5  1  0  0  0  0
  5  6  2  0  0  0  0
  5 10  1  0  0  0  0
  7  2  1  0  0  0  0
  8  3  1  0  0  0  0
  9 16  1  0  0  0  0
 10  9  2  0  0  0  0
 10 11  1  0  0  0  0
 11 13  2  0  0  0  0
 12 11  1  0  0  0  0
 13 15  1  0  0  0  0
 13 14  1  0  0  0  0
 16 15  2  0  0  0  0
 17 18  3  0  0  0  0
 18  9  1  0  0  0  0
 19 20  1  0  0  0  0
 19 21  1  0  0  0  0
M  END
>  <minimizedAffinity>
-4.30222607

$$$$

 OpenBabel03262523103D

 21 22  0  0  0  0  0  0  0  0999 V2000
   38.3880   23.4770   37.7000 C   0  0  0  0  0  0  0  0  0  0  0  0
   39.7200   23.0030   37.8270 C   0  0  0  0  0  0  0  0  0  0  0  0
   40.1950   22.1600   36.8250 C   0  0  0  0  0  0  0  0  0  0  0  0
   39.3590   21.8560   35.8120 N   0  0  0  0  0  0  0  0  0  0  0  0
   38.1060   22.3090   35.7010 C   0  0  0  0  0  0  0  0  0  0  0  0
   37.6400   23.1150   36.6520 N   0  0  0  0  0  0  0  0  0  0  0  0
   40.2820   23.3110   38.6700 H   0  0  0  0  0  0  0  0  0  0  0  0
   41.2120   21.7830   36.8990 H   0  0  0  0  0  0  0  0  0  0  0  0
   37.4100   22.5780   33.3610 C   0  0  0  0  0  0  0  0  0  0  0  0
   37.2660   21.9310   34.5700 C   0  0  0  0  0  0  0  0  0  0  0  0
   36.3240   20.9290   34.6950 C   0  0  0  0  0  0  0  0  0  0  0  0
   36.1890   20.4000   35.6450 H   0  0  0  0  0  0  0  0  0  0  0  0
   35.4950   20.5300   33.6430 C   0  0  0  0  0  0  0  0  0  0  0  0
   34.7610   19.7610   33.7140 H   0  0  0  0  0  0  0  0  0  0  0  0
   35.7020   21.2340   32.4520 C   0  0  0  0  0  3  0  0  0  0  0  0
   36.6300   22.2410   32.2750 C   0  0  0  0  0  3  0  0  0  0  0  0
   39.1570   24.4870   33.0690 N   0  0  0  0  0  0  0  0  0  0  0  0
   38.3860   23.6290   33.1950 C   0  0  0  0  0  0  0  0  0  0  0  0
   37.8010   24.3490   38.6730 N   0  0  0  0  0  0  0  0  0  0  0  0
   38.2040   25.3150   38.6300 H   0  0  0  0  0  0  0  0  0  0  0  0
   37.0510   24.1630   39.3970 H   0  0  0  0  0  0  0  0  0  0  0  0
  1  2  1  0  0  0  0
  1 19  1  0  0  0  0
  2  7  1  0  0  0  0
  3  8  1  0  0  0  0
  3  2  2  0  0  0  0
  4  3  1  0  0  0  0
  5  4  2  0  0  0  0
  5  6  1  0  0  0  0
  6  1  2  0  0  0  0
  9 10  1  0  0  0  0
 10 11  2  0  0  0  0
 10  5  1  0  0  0  0
 11 12  1  0  0  0  0
 13 14  1  0  0  0  0
 13 11  1  0  0  0  0
 15 13  2  0  0  0  0
 16 15  1  0  0  0  0
 16  9  2  0  0  0  0
 17 18  3  0  0  0  0
 18  9  1  0  0  0  0
 19 21  1  0  0  0  0
 20 19  1  0  0  0  0
M  END
>  <minimizedAffinity>
-4.28116274

$$$$

 OpenBabel03262523103D

 21 22  0  0  0  0  0  0  0  0999 V2000
   39.0320   26.9100   35.0500 C   0  0  0  0  0  0  0  0  0  0  0  0
   40.3170   27.0970   34.4790 C   0  0  0  0  0  0  0  0  0  0  0  0
   40.6010   26.4010   33.3060 C   0  0  0  0  0  0  0  0  0  0  0  0
   39.6380   25.6030   32.8010 N   0  0  0  0  0  0  0  0  0  0  0  0
   38.4290   25.4340   33.3470 C   0  0  0  0  0  0  0  0  0  0  0  0
   38.1470   26.0940   34.4680 N   0  0  0  0  0  0  0  0  0  0  0  0
   40.9920   27.7500   34.9670 H   0  0  0  0  0  0  0  0  0  0  0  0
   41.5790   26.5260   32.8480 H   0  0  0  0  0  0  0  0  0  0  0  0
   36.4480   25.0790   31.9400 C   0  0  0  0  0  0  0  0  0  0  0  0
   37.4430   24.5510   32.7360 C   0  0  0  0  0  0  0  0  0  0  0  0
   37.4930   23.1870   32.9440 C   0  0  0  0  0  0  0  0  0  0  0  0
   38.2730   22.7420   33.5730 H   0  0  0  0  0  0  0  0  0  0  0  0
   36.5730   22.2990   32.3810 C   0  0  0  0  0  0  0  0  0  0  0  0
   36.5890   21.2430   32.5270 H   0  0  0  0  0  0  0  0  0  0  0  0
   35.5960   22.9110   31.5890 C   0  0  0  0  0  3  0  0  0  0  0  0
   35.5030   24.2670   31.3490 C   0  0  0  0  0  3  0  0  0  0  0  0
   36.2820   27.6410   31.5100 N   0  0  0  0  0  0  0  0  0  0  0  0
   36.3670   26.5000   31.7010 C   0  0  0  0  0  0  0  0  0  0  0  0
   38.6370   27.5780   36.2550 N   0  0  0  0  0  0  0  0  0  0  0  0
   38.4780   28.6020   36.1030 H   0  0  0  0  0  0  0  0  0  0  0  0
   38.4900   27.1990   37.2330 H   0  0  0  0  0  0  0  0  0  0  0  0
  1 19  1  0  0  0  0
  2  7  1  0  0  0  0
  2  1  1  0  0  0  0
  3  2  2  0  0  0  0
  4  3  1  0  0  0  0
  4  5  2  0  0  0  0
  5  6  1  0  0  0  0
  6  1  2  0  0  0  0
  8  3  1  0  0  0  0
  9 10  1  0  0  0  0
 10 11  2  0  0  0  0
 10  5  1  0  0  0  0
 11 12  1  0  0  0  0
 13 14  1  0  0  0  0
 13 11  1  0  0  0  0
 15 13  2  0  0  0  0
 16 15  1  0  0  0  0
 16  9  2  0  0  0  0
 17 18  3  0  0  0  0
 18  9  1  0  0  0  0
 19 21  1  0  0  0  0
 20 19  1  0  0  0  0
M  END
>  <minimizedAffinity>
-4.25373411

$$$$
