
 OpenBabel03272508573D

 41 44  0  0  1  0  0  0  0  0999 V2000
   39.1550   31.4260   43.3690 C   0  0  0  0  0  0  0  0  0  0  0  0
   40.1470   30.4920   43.5460 C   0  0  0  0  0  0  0  0  0  0  0  0
   40.8750   30.1220   42.4230 C   0  0  0  0  0  0  0  0  0  0  0  0
   40.5680   30.6970   41.2220 C   0  0  0  0  0  0  0  0  0  0  0  0
   39.5720   31.6310   41.0490 C   0  0  0  0  0  0  0  0  0  0  0  0
   38.8790   31.9730   42.1630 N   0  0  0  0  0  0  0  0  0  0  0  0
   40.3950   30.0290   44.5020 H   0  0  0  0  0  0  0  0  0  0  0  0
   41.6560   29.3870   42.5600 H   0  0  0  0  0  0  0  0  0  0  0  0
   41.1880   30.3500   40.4150 H   0  0  0  0  0  0  0  0  0  0  0  0
   38.3680   31.8560   44.5550 C   0  0  0  0  0  0  0  0  0  0  0  0
   37.3070   32.4750   44.4400 O   0  0  0  0  0  0  0  0  0  0  0  0
   38.9060   31.5130   45.8620 N   0  0  0  0  0  0  0  0  0  0  0  0
   39.8730   31.1790   46.0270 H   0  0  0  0  0  0  0  0  0  0  0  0
   38.2820   30.9400   48.2020 C   0  0  2  0  0  0  0  0  0  0  0  0
   38.6850   32.3700   48.2020 C   0  0  0  0  0  0  0  0  0  0  0  0
   38.0180   31.6570   46.9970 C   0  0  1  0  0  0  0  0  0  0  0  0
   39.1480   30.2380   48.2740 H   0  0  0  0  0  0  0  0  0  0  0  0
   38.0630   33.1230   48.7330 H   0  0  0  0  0  0  0  0  0  0  0  0
   39.7390   32.6350   48.1170 H   0  0  0  0  0  0  0  0  0  0  0  0
   36.9760   32.0220   46.7910 H   0  0  0  0  0  0  0  0  0  0  0  0
   34.8290   30.1440   49.2940 C   0  0  0  0  0  0  0  0  0  0  0  0
   35.0570   29.5750   50.5800 C   0  0  0  0  0  0  0  0  0  0  0  0
   36.4010   29.4870   51.0590 C   0  0  0  0  0  0  0  0  0  0  0  0
   37.4300   29.9460   50.2720 N   0  0  0  0  0  0  0  0  0  0  0  0
   37.1340   30.4750   49.0560 C   0  0  0  0  0  0  0  0  0  0  0  0
   35.8510   30.5910   48.5330 N   0  0  0  0  0  0  0  0  0  0  0  0
   33.7980   30.1840   48.9880 H   0  0  0  0  0  0  0  0  0  0  0  0
   34.2800   29.2150   51.2040 H   0  0  0  0  0  0  0  0  0  0  0  0
   36.5830   29.0580   52.0340 H   0  0  0  0  0  0  0  0  0  0  0  0
   39.2210   32.2180   39.7510 C   0  0  0  0  0  0  0  0  0  0  0  0
   38.8860   33.4510   39.7210 O   0  0  0  0  0  0  0  0  0  0  0  0
   37.9930   30.9930   38.0650 C   0  0  0  0  0  0  0  0  0  0  0  0
   39.1530   31.7060   38.3970 C   0  0  0  0  0  0  0  0  0  0  0  0
   40.0400   31.7930   37.3560 C   0  0  0  0  0  0  0  0  0  0  0  0
   40.9480   32.3370   37.5530 H   0  0  0  0  0  0  0  0  0  0  0  0
   39.8740   31.2640   36.1000 C   0  0  0  0  0  0  0  0  0  0  0  0
   40.6560   31.4060   35.3670 H   0  0  0  0  0  0  0  0  0  0  0  0
   38.7130   30.5860   35.8690 C   0  0  0  0  0  3  0  0  0  0  0  0
   37.7280   30.4160   36.8170 C   0  0  0  0  0  3  0  0  0  0  0  0
   36.1140   30.6790   39.8740 N   0  0  0  0  0  0  0  0  0  0  0  0
   36.9500   30.8110   39.0630 C   0  0  0  0  0  0  0  0  0  0  0  0
  1  2  1  0  0  0  0
  1 10  1  0  0  0  0
  2  7  1  0  0  0  0
  3  8  1  0  0  0  0
  3  2  2  0  0  0  0
  4  3  1  0  0  0  0
  5  4  2  0  0  0  0
  5  6  1  0  0  0  0
  6  1  2  0  0  0  0
  9  4  1  0  0  0  0
 10 12  1  0  0  0  0
 11 10  2  0  0  0  0
 12 13  1  0  0  0  0
 12 16  1  0  0  0  0
 14 17  1  6  0  0  0
 14 25  1  0  0  0  0
 15 14  1  0  0  0  0
 15 18  1  0  0  0  0
 16 20  1  6  0  0  0
 16 15  1  0  0  0  0
 16 14  1  0  0  0  0
 19 15  1  0  0  0  0
 21 22  1  0  0  0  0
 22 23  2  0  0  0  0
 22 28  1  0  0  0  0
 23 29  1  0  0  0  0
 24 23  1  0  0  0  0
 25 24  2  0  0  0  0
 26 25  1  0  0  0  0
 26 21  2  0  0  0  0
 27 21  1  0  0  0  0
 30  5  1  0  0  0  0
 31 30  2  0  0  0  0
 32 33  1  0  0  0  0
 32 41  1  0  0  0  0
 33 30  1  0  0  0  0
 34 35  1  0  0  0  0
 34 33  2  0  0  0  0
 36 34  1  0  0  0  0
 37 36  1  0  0  0  0
 38 36  2  0  0  0  0
 38 39  1  0  0  0  0
 39 32  2  0  0  0  0
 41 40  3  0  0  0  0
M  END
>  <minimizedAffinity>
-4.72026873

>  <minimizedRMSD>
1.26540494

$$$$
