
 OpenBabel03272508563D

 41 44  0  0  1  0  0  0  0  0999 V2000
   39.1960   31.2910   43.4340 C   0  0  0  0  0  0  0  0  0  0  0  0
   40.2670   30.4570   43.6500 C   0  0  0  0  0  0  0  0  0  0  0  0
   40.9990   30.0660   42.5370 C   0  0  0  0  0  0  0  0  0  0  0  0
   40.6190   30.5230   41.3070 C   0  0  0  0  0  0  0  0  0  0  0  0
   39.5440   31.3570   41.0950 C   0  0  0  0  0  0  0  0  0  0  0  0
   38.8500   31.7220   42.2000 N   0  0  0  0  0  0  0  0  0  0  0  0
   40.5740   30.0870   44.6300 H   0  0  0  0  0  0  0  0  0  0  0  0
   41.8420   29.4100   42.7050 H   0  0  0  0  0  0  0  0  0  0  0  0
   41.2470   30.1700   40.5100 H   0  0  0  0  0  0  0  0  0  0  0  0
   38.4030   31.7410   44.6080 C   0  0  0  0  0  0  0  0  0  0  0  0
   37.3960   32.4430   44.4800 O   0  0  0  0  0  0  0  0  0  0  0  0
   38.8660   31.3160   45.9190 N   0  0  0  0  0  0  0  0  0  0  0  0
   39.7980   30.9020   46.1040 H   0  0  0  0  0  0  0  0  0  0  0  0
   38.1010   30.6990   48.2060 C   0  0  2  0  0  0  0  0  0  0  0  0
   38.6330   32.0840   48.2890 C   0  0  0  0  0  0  0  0  0  0  0  0
   37.9510   31.4900   47.0290 C   0  0  1  0  0  0  0  0  0  0  0  0
   38.8960   29.9170   48.2740 H   0  0  0  0  0  0  0  0  0  0  0  0
   38.0620   32.8670   48.8340 H   0  0  0  0  0  0  0  0  0  0  0  0
   39.7100   32.2520   48.2530 H   0  0  0  0  0  0  0  0  0  0  0  0
   36.9560   31.9600   46.8040 H   0  0  0  0  0  0  0  0  0  0  0  0
   34.5550   30.0880   49.0990 C   0  0  0  0  0  0  0  0  0  0  0  0
   34.6780   29.5340   50.4060 C   0  0  0  0  0  0  0  0  0  0  0  0
   35.9850   29.3910   50.9670 C   0  0  0  0  0  0  0  0  0  0  0  0
   37.0800   29.7860   50.2370 N   0  0  0  0  0  0  0  0  0  0  0  0
   36.8830   30.3050   48.9960 C   0  0  0  0  0  0  0  0  0  0  0  0
   35.6400   30.4720   48.3940 N   0  0  0  0  0  0  0  0  0  0  0  0
   33.5480   30.1710   48.7310 H   0  0  0  0  0  0  0  0  0  0  0  0
   33.8490   29.2220   50.9880 H   0  0  0  0  0  0  0  0  0  0  0  0
   36.0880   28.9720   51.9580 H   0  0  0  0  0  0  0  0  0  0  0  0
   39.1170   31.8160   39.7680 C   0  0  0  0  0  0  0  0  0  0  0  0
   39.1170   33.0730   39.5400 O   0  0  0  0  0  0  0  0  0  0  0  0
   39.6440   30.8440   37.6160 C   0  0  0  0  0  0  0  0  0  0  0  0
   38.6590   31.1450   38.5680 C   0  0  0  0  0  0  0  0  0  0  0  0
   37.4060   30.7440   38.1840 C   0  0  0  0  0  0  0  0  0  0  0  0
   36.6110   30.9440   38.8810 H   0  0  0  0  0  0  0  0  0  0  0  0
   37.0800   30.1110   37.0110 C   0  0  0  0  0  0  0  0  0  0  0  0
   36.0480   29.8460   36.8300 H   0  0  0  0  0  0  0  0  0  0  0  0
   38.1050   29.8580   36.1450 C   0  0  0  0  0  3  0  0  0  0  0  0
   39.4140   30.2030   36.3930 C   0  0  0  0  0  3  0  0  0  0  0  0
   42.1420   31.4950   38.0990 N   0  0  0  0  0  0  0  0  0  0  0  0
   41.0290   31.2060   37.8750 C   0  0  0  0  0  0  0  0  0  0  0  0
  1  2  1  0  0  0  0
  1 10  1  0  0  0  0
  2  7  1  0  0  0  0
  3  8  1  0  0  0  0
  3  2  2  0  0  0  0
  4  3  1  0  0  0  0
  5  4  2  0  0  0  0
  5  6  1  0  0  0  0
  6  1  2  0  0  0  0
  9  4  1  0  0  0  0
 10 12  1  0  0  0  0
 11 10  2  0  0  0  0
 12 13  1  0  0  0  0
 12 16  1  0  0  0  0
 14 17  1  6  0  0  0
 14 15  1  0  0  0  0
 14 25  1  0  0  0  0
 15 18  1  0  0  0  0
 16 20  1  6  0  0  0
 16 14  1  0  0  0  0
 16 15  1  0  0  0  0
 19 15  1  0  0  0  0
 21 22  1  0  0  0  0
 22 23  2  0  0  0  0
 22 28  1  0  0  0  0
 23 29  1  0  0  0  0
 24 23  1  0  0  0  0
 25 24  2  0  0  0  0
 26 25  1  0  0  0  0
 26 21  2  0  0  0  0
 27 21  1  0  0  0  0
 30  5  1  0  0  0  0
 31 30  2  0  0  0  0
 32 41  1  0  0  0  0
 32 33  1  0  0  0  0
 33 30  1  0  0  0  0
 34 33  2  0  0  0  0
 34 35  1  0  0  0  0
 36 34  1  0  0  0  0
 37 36  1  0  0  0  0
 38 39  1  0  0  0  0
 38 36  2  0  0  0  0
 39 32  2  0  0  0  0
 41 40  3  0  0  0  0
M  END
>  <minimizedAffinity>
-4.76473427

>  <minimizedRMSD>
1.47727787

$$$$
