
 OpenBabel03272508593D

 41 44  0  0  1  0  0  0  0  0999 V2000
   37.3920   26.3270   32.5050 C   0  0  0  0  0  0  0  0  0  0  0  0
   38.3340   26.3100   31.5050 C   0  0  0  0  0  0  0  0  0  0  0  0
   39.2350   25.2540   31.5020 C   0  0  0  0  0  0  0  0  0  0  0  0
   39.1380   24.3050   32.4810 C   0  0  0  0  0  0  0  0  0  0  0  0
   38.1930   24.3270   33.4820 C   0  0  0  0  0  0  0  0  0  0  0  0
   37.3270   25.3690   33.4580 N   0  0  0  0  0  0  0  0  0  0  0  0
   38.4170   27.0660   30.7230 H   0  0  0  0  0  0  0  0  0  0  0  0
   39.9770   25.2390   30.7160 H   0  0  0  0  0  0  0  0  0  0  0  0
   39.8740   23.5270   32.3920 H   0  0  0  0  0  0  0  0  0  0  0  0
   36.4020   27.4360   32.5260 C   0  0  0  0  0  0  0  0  0  0  0  0
   35.5240   27.5380   31.6640 O   0  0  0  0  0  0  0  0  0  0  0  0
   36.5130   28.3990   33.6090 N   0  0  0  0  0  0  0  0  0  0  0  0
   37.3340   28.4820   34.2360 H   0  0  0  0  0  0  0  0  0  0  0  0
   35.5090   30.3860   34.7230 C   0  0  2  0  0  0  0  0  0  0  0  0
   35.6630   30.7300   33.2860 C   0  0  0  0  0  0  0  0  0  0  0  0
   35.3930   29.2950   33.8100 C   0  0  1  0  0  0  0  0  0  0  0  0
   36.4430   30.5410   35.3160 H   0  0  0  0  0  0  0  0  0  0  0  0
   34.8270   31.2180   32.7390 H   0  0  0  0  0  0  0  0  0  0  0  0
   36.6530   30.9470   32.8850 H   0  0  0  0  0  0  0  0  0  0  0  0
   34.3730   28.9110   33.5380 H   0  0  0  0  0  0  0  0  0  0  0  0
   31.9800   30.7570   35.7970 C   0  0  0  0  0  0  0  0  0  0  0  0
   32.1090   31.6310   36.9150 C   0  0  0  0  0  0  0  0  0  0  0  0
   33.4140   32.0910   37.2750 C   0  0  0  0  0  0  0  0  0  0  0  0
   34.5000   31.6800   36.5410 N   0  0  0  0  0  0  0  0  0  0  0  0
   34.2980   30.8450   35.4890 C   0  0  0  0  0  0  0  0  0  0  0  0
   33.0570   30.3630   35.0860 N   0  0  0  0  0  0  0  0  0  0  0  0
   30.9740   30.4450   35.5750 H   0  0  0  0  0  0  0  0  0  0  0  0
   31.2860   31.9610   37.4950 H   0  0  0  0  0  0  0  0  0  0  0  0
   33.5210   32.7550   38.1210 H   0  0  0  0  0  0  0  0  0  0  0  0
   38.1160   23.3250   34.5520 C   0  0  0  0  0  0  0  0  0  0  0  0
   37.7500   22.1420   34.2390 O   0  0  0  0  0  0  0  0  0  0  0  0
   39.6120   22.8560   36.3950 C   0  0  0  0  0  0  0  0  0  0  0  0
   38.3670   23.3520   35.9790 C   0  0  0  0  0  0  0  0  0  0  0  0
   37.5910   23.7850   37.0210 C   0  0  0  0  0  0  0  0  0  0  0  0
   36.6260   24.1830   36.7590 H   0  0  0  0  0  0  0  0  0  0  0  0
   37.9310   23.7640   38.3510 C   0  0  0  0  0  0  0  0  0  0  0  0
   37.2220   24.1370   39.0760 H   0  0  0  0  0  0  0  0  0  0  0  0
   39.1610   23.2640   38.6610 C   0  0  0  0  0  3  0  0  0  0  0  0
   40.0510   22.7920   37.7230 C   0  0  0  0  0  3  0  0  0  0  0  0
   41.3270   21.9640   34.6160 N   0  0  0  0  0  0  0  0  0  0  0  0
   40.5550   22.3580   35.4050 C   0  0  0  0  0  0  0  0  0  0  0  0
  1 10  1  0  0  0  0
  1  6  1  0  0  0  0
  2  1  2  0  0  0  0
  3  2  1  0  0  0  0
  3  4  2  0  0  0  0
  4  5  1  0  0  0  0
  5 30  1  0  0  0  0
  6  5  2  0  0  0  0
  7  2  1  0  0  0  0
  8  3  1  0  0  0  0
  9  4  1  0  0  0  0
 10 12  1  0  0  0  0
 11 10  2  0  0  0  0
 12 16  1  0  0  0  0
 12 13  1  0  0  0  0
 14 17  1  1  0  0  0
 14 25  1  0  0  0  0
 15 16  1  0  0  0  0
 15 14  1  0  0  0  0
 16 20  1  6  0  0  0
 16 14  1  0  0  0  0
 18 15  1  0  0  0  0
 19 15  1  0  0  0  0
 21 22  1  0  0  0  0
 22 23  2  0  0  0  0
 22 28  1  0  0  0  0
 23 29  1  0  0  0  0
 24 23  1  0  0  0  0
 25 24  2  0  0  0  0
 26 25  1  0  0  0  0
 26 21  2  0  0  0  0
 27 21  1  0  0  0  0
 30 33  1  0  0  0  0
 31 30  2  0  0  0  0
 32 39  1  0  0  0  0
 33 32  2  0  0  0  0
 33 34  1  0  0  0  0
 34 36  2  0  0  0  0
 35 34  1  0  0  0  0
 36 38  1  0  0  0  0
 36 37  1  0  0  0  0
 39 38  2  0  0  0  0
 40 41  3  0  0  0  0
 41 32  1  0  0  0  0
M  END
>  <minimizedAffinity>
-5.93651533

$$$$

 OpenBabel03272508593D

 41 44  0  0  1  0  0  0  0  0999 V2000
   37.9870   25.3040   35.8240 C   0  0  0  0  0  0  0  0  0  0  0  0
   38.1610   24.9950   37.1520 C   0  0  0  0  0  0  0  0  0  0  0  0
   38.2940   23.6520   37.4760 C   0  0  0  0  0  0  0  0  0  0  0  0
   38.2450   22.7250   36.4720 C   0  0  0  0  0  0  0  0  0  0  0  0
   38.0700   23.0400   35.1430 C   0  0  0  0  0  0  0  0  0  0  0  0
   37.9440   24.3590   34.8580 N   0  0  0  0  0  0  0  0  0  0  0  0
   38.1990   25.7300   37.9570 H   0  0  0  0  0  0  0  0  0  0  0  0
   38.4300   23.4060   38.5200 H   0  0  0  0  0  0  0  0  0  0  0  0
   38.3620   21.7150   36.8210 H   0  0  0  0  0  0  0  0  0  0  0  0
   37.8590   26.7360   35.4430 C   0  0  0  0  0  0  0  0  0  0  0  0
   38.7330   27.5620   35.7190 O   0  0  0  0  0  0  0  0  0  0  0  0
   36.6540   27.1210   34.7260 N   0  0  0  0  0  0  0  0  0  0  0  0
   35.8080   26.5280   34.6420 H   0  0  0  0  0  0  0  0  0  0  0  0
   35.7810   28.6820   32.9950 C   0  0  2  0  0  0  0  0  0  0  0  0
   35.3270   29.2010   34.3100 C   0  0  0  0  0  0  0  0  0  0  0  0
   36.6520   28.4250   34.0950 C   0  0  1  0  0  0  0  0  0  0  0  0
   35.1210   27.8790   32.5860 H   0  0  0  0  0  0  0  0  0  0  0  0
   35.4240   30.2830   34.5440 H   0  0  0  0  0  0  0  0  0  0  0  0
   34.5210   28.6940   34.8420 H   0  0  0  0  0  0  0  0  0  0  0  0
   37.5650   29.0640   34.2350 H   0  0  0  0  0  0  0  0  0  0  0  0
   37.0210   29.9460   29.7370 C   0  0  0  0  0  0  0  0  0  0  0  0
   36.9420   31.3560   29.9260 C   0  0  0  0  0  0  0  0  0  0  0  0
   36.4730   31.8520   31.1830 C   0  0  0  0  0  0  0  0  0  0  0  0
   36.1120   30.9630   32.1660 N   0  0  0  0  0  0  0  0  0  0  0  0
   36.2140   29.6320   31.9110 C   0  0  0  0  0  0  0  0  0  0  0  0
   36.6630   29.0860   30.7140 N   0  0  0  0  0  0  0  0  0  0  0  0
   37.3810   29.6340   28.7720 H   0  0  0  0  0  0  0  0  0  0  0  0
   37.2150   32.0600   29.1820 H   0  0  0  0  0  0  0  0  0  0  0  0
   36.4110   32.9200   31.3350 H   0  0  0  0  0  0  0  0  0  0  0  0
   37.9810   22.0400   34.0740 C   0  0  0  0  0  0  0  0  0  0  0  0
   39.0700   21.5490   33.6190 O   0  0  0  0  0  0  0  0  0  0  0  0
   36.5680   22.0020   32.1090 C   0  0  0  0  0  0  0  0  0  0  0  0
   36.8820   21.4300   33.3510 C   0  0  0  0  0  0  0  0  0  0  0  0
   36.0760   20.3680   33.6680 C   0  0  0  0  0  0  0  0  0  0  0  0
   36.2780   19.8850   34.6090 H   0  0  0  0  0  0  0  0  0  0  0  0
   35.0530   19.8670   32.9020 C   0  0  0  0  0  0  0  0  0  0  0  0
   34.4910   19.0210   33.2710 H   0  0  0  0  0  0  0  0  0  0  0  0
   34.8200   20.4880   31.7100 C   0  0  0  0  0  3  0  0  0  0  0  0
   35.5470   21.5650   31.2560 C   0  0  0  0  0  3  0  0  0  0  0  0
   37.9410   24.0590   31.2270 N   0  0  0  0  0  0  0  0  0  0  0  0
   37.3350   23.1400   31.6270 C   0  0  0  0  0  0  0  0  0  0  0  0
  1  2  1  0  0  0  0
  2  3  2  0  0  0  0
  2  7  1  0  0  0  0
  3  8  1  0  0  0  0
  4  9  1  0  0  0  0
  4  3  1  0  0  0  0
  5  4  2  0  0  0  0
  6  5  1  0  0  0  0
  6  1  2  0  0  0  0
 10 11  2  0  0  0  0
 10  1  1  0  0  0  0
 12 10  1  0  0  0  0
 13 12  1  0  0  0  0
 14 17  1  6  0  0  0
 14 16  1  0  0  0  0
 14 15  1  0  0  0  0
 15 18  1  0  0  0  0
 15 19  1  0  0  0  0
 16 20  1  1  0  0  0
 16 15  1  0  0  0  0
 16 12  1  0  0  0  0
 21 22  2  0  0  0  0
 21 26  1  0  0  0  0
 22 23  1  0  0  0  0
 23 29  1  0  0  0  0
 23 24  2  0  0  0  0
 25 24  1  0  0  0  0
 25 14  1  0  0  0  0
 26 25  2  0  0  0  0
 27 21  1  0  0  0  0
 28 22  1  0  0  0  0
 30  5  1  0  0  0  0
 31 30  2  0  0  0  0
 32 33  1  0  0  0  0
 33 34  2  0  0  0  0
 33 30  1  0  0  0  0
 34 35  1  0  0  0  0
 36 37  1  0  0  0  0
 36 34  1  0  0  0  0
 38 36  2  0  0  0  0
 39 38  1  0  0  0  0
 39 32  2  0  0  0  0
 40 41  3  0  0  0  0
 41 32  1  0  0  0  0
M  END
>  <minimizedAffinity>
-5.88234806

$$$$

 OpenBabel03272508593D

 41 44  0  0  1  0  0  0  0  0999 V2000
   37.0200   27.4440   33.7160 C   0  0  0  0  0  0  0  0  0  0  0  0
   36.8350   26.8630   32.4850 C   0  0  0  0  0  0  0  0  0  0  0  0
   35.9620   27.4960   31.6110 C   0  0  0  0  0  0  0  0  0  0  0  0
   35.3430   28.6450   32.0170 C   0  0  0  0  0  0  0  0  0  0  0  0
   35.5300   29.2230   33.2520 C   0  0  0  0  0  0  0  0  0  0  0  0
   36.3880   28.5830   34.0830 N   0  0  0  0  0  0  0  0  0  0  0  0
   37.3250   25.9450   32.1560 H   0  0  0  0  0  0  0  0  0  0  0  0
   35.8160   27.0410   30.6410 H   0  0  0  0  0  0  0  0  0  0  0  0
   34.6920   29.0630   31.2710 H   0  0  0  0  0  0  0  0  0  0  0  0
   37.9610   26.7990   34.6690 C   0  0  0  0  0  0  0  0  0  0  0  0
   37.5610   26.0830   35.5910 O   0  0  0  0  0  0  0  0  0  0  0  0
   39.3780   27.0480   34.4660 N   0  0  0  0  0  0  0  0  0  0  0  0
   39.7600   27.7860   33.8460 H   0  0  0  0  0  0  0  0  0  0  0  0
   40.7100   24.9510   34.6290 C   0  0  2  0  0  0  0  0  0  0  0  0
   41.6800   26.0660   34.4800 C   0  0  0  0  0  0  0  0  0  0  0  0
   40.3060   26.2000   35.1870 C   0  0  1  0  0  0  0  0  0  0  0  0
   40.2930   24.5960   33.6550 H   0  0  0  0  0  0  0  0  0  0  0  0
   42.5760   26.1140   35.1350 H   0  0  0  0  0  0  0  0  0  0  0  0
   41.8030   26.5500   33.5100 H   0  0  0  0  0  0  0  0  0  0  0  0
   40.3940   26.3630   36.2950 H   0  0  0  0  0  0  0  0  0  0  0  0
   42.5830   22.2670   36.3710 C   0  0  0  0  0  0  0  0  0  0  0  0
   41.5850   21.7370   37.2400 C   0  0  0  0  0  0  0  0  0  0  0  0
   40.2740   22.3050   37.2020 C   0  0  0  0  0  0  0  0  0  0  0  0
   40.0130   23.3410   36.3390 N   0  0  0  0  0  0  0  0  0  0  0  0
   41.0160   23.7950   35.5420 C   0  0  0  0  0  0  0  0  0  0  0  0
   42.3100   23.2860   35.5280 N   0  0  0  0  0  0  0  0  0  0  0  0
   43.5490   21.7990   36.4450 H   0  0  0  0  0  0  0  0  0  0  0  0
   41.7640   20.9390   37.9140 H   0  0  0  0  0  0  0  0  0  0  0  0
   39.5120   21.9080   37.8570 H   0  0  0  0  0  0  0  0  0  0  0  0
   34.8350   30.4360   33.6980 C   0  0  0  0  0  0  0  0  0  0  0  0
   34.5740   31.3320   32.8250 O   0  0  0  0  0  0  0  0  0  0  0  0
   33.0640   30.4550   35.3460 C   0  0  0  0  0  0  0  0  0  0  0  0
   34.3410   30.9040   34.9770 C   0  0  0  0  0  0  0  0  0  0  0  0
   34.9080   31.7230   35.9170 C   0  0  0  0  0  0  0  0  0  0  0  0
   35.8940   32.0930   35.6890 H   0  0  0  0  0  0  0  0  0  0  0  0
   34.3460   32.1060   37.1080 C   0  0  0  0  0  0  0  0  0  0  0  0
   34.9030   32.7620   37.7620 H   0  0  0  0  0  0  0  0  0  0  0  0
   33.1010   31.6210   37.3820 C   0  0  0  0  0  3  0  0  0  0  0  0
   32.4050   30.7870   36.5360 C   0  0  0  0  0  3  0  0  0  0  0  0
   31.7180   28.8700   33.7410 N   0  0  0  0  0  0  0  0  0  0  0  0
   32.3260   29.5720   34.4550 C   0  0  0  0  0  0  0  0  0  0  0  0
  1  6  1  0  0  0  0
  1 10  1  0  0  0  0
  2  1  2  0  0  0  0
  3  4  2  0  0  0  0
  3  2  1  0  0  0  0
  4  5  1  0  0  0  0
  5 30  1  0  0  0  0
  5  6  2  0  0  0  0
  7  2  1  0  0  0  0
  8  3  1  0  0  0  0
  9  4  1  0  0  0  0
 10 11  2  0  0  0  0
 12 10  1  0  0  0  0
 12 16  1  0  0  0  0
 13 12  1  0  0  0  0
 14 17  1  6  0  0  0
 14 16  1  0  0  0  0
 14 25  1  0  0  0  0
 15 14  1  0  0  0  0
 15 18  1  0  0  0  0
 15 16  1  0  0  0  0
 16 20  1  1  0  0  0
 19 15  1  0  0  0  0
 21 27  1  0  0  0  0
 21 22  1  0  0  0  0
 22 28  1  0  0  0  0
 23 22  2  0  0  0  0
 23 29  1  0  0  0  0
 24 23  1  0  0  0  0
 25 24  2  0  0  0  0
 26 25  1  0  0  0  0
 26 21  2  0  0  0  0
 30 33  1  0  0  0  0
 31 30  2  0  0  0  0
 32 39  1  0  0  0  0
 33 32  2  0  0  0  0
 33 34  1  0  0  0  0
 34 36  2  0  0  0  0
 35 34  1  0  0  0  0
 36 38  1  0  0  0  0
 36 37  1  0  0  0  0
 39 38  2  0  0  0  0
 40 41  3  0  0  0  0
 41 32  1  0  0  0  0
M  END
>  <minimizedAffinity>
-5.84234142

$$$$

 OpenBabel03272508593D

 41 44  0  0  1  0  0  0  0  0999 V2000
   36.9830   27.7290   33.5830 C   0  0  0  0  0  0  0  0  0  0  0  0
   36.9890   27.3020   32.2760 C   0  0  0  0  0  0  0  0  0  0  0  0
   36.1290   27.9440   31.3970 C   0  0  0  0  0  0  0  0  0  0  0  0
   35.3320   28.9480   31.8720 C   0  0  0  0  0  0  0  0  0  0  0  0
   35.3270   29.3710   33.1820 C   0  0  0  0  0  0  0  0  0  0  0  0
   36.1790   28.7270   34.0160 N   0  0  0  0  0  0  0  0  0  0  0  0
   37.6220   26.5010   31.8920 H   0  0  0  0  0  0  0  0  0  0  0  0
   36.1320   27.6100   30.3680 H   0  0  0  0  0  0  0  0  0  0  0  0
   34.7050   29.3860   31.1160 H   0  0  0  0  0  0  0  0  0  0  0  0
   37.9060   27.0730   34.5460 C   0  0  0  0  0  0  0  0  0  0  0  0
   37.4860   26.4440   35.5210 O   0  0  0  0  0  0  0  0  0  0  0  0
   39.3300   27.2030   34.2870 N   0  0  0  0  0  0  0  0  0  0  0  0
   39.7430   27.8730   33.6120 H   0  0  0  0  0  0  0  0  0  0  0  0
   40.4950   25.0190   34.5500 C   0  0  2  0  0  0  0  0  0  0  0  0
   41.5440   26.0370   34.2840 C   0  0  0  0  0  0  0  0  0  0  0  0
   40.2170   26.3330   35.0310 C   0  0  1  0  0  0  0  0  0  0  0  0
   40.0090   24.6340   33.6210 H   0  0  0  0  0  0  0  0  0  0  0  0
   42.4690   26.0550   34.8990 H   0  0  0  0  0  0  0  0  0  0  0  0
   41.6620   26.4410   33.2780 H   0  0  0  0  0  0  0  0  0  0  0  0
   40.3670   26.5640   36.1200 H   0  0  0  0  0  0  0  0  0  0  0  0
   39.9390   22.5430   37.2530 C   0  0  0  0  0  0  0  0  0  0  0  0
   41.1840   21.8500   37.2710 C   0  0  0  0  0  0  0  0  0  0  0  0
   42.2050   22.2570   36.3550 C   0  0  0  0  0  0  0  0  0  0  0  0
   41.9600   23.2950   35.4890 N   0  0  0  0  0  0  0  0  0  0  0  0
   40.7470   23.9070   35.5310 C   0  0  0  0  0  0  0  0  0  0  0  0
   39.7140   23.5610   36.3960 N   0  0  0  0  0  0  0  0  0  0  0  0
   39.2110   22.1920   37.9640 H   0  0  0  0  0  0  0  0  0  0  0  0
   41.3960   21.0470   37.9290 H   0  0  0  0  0  0  0  0  0  0  0  0
   43.1520   21.7380   36.3620 H   0  0  0  0  0  0  0  0  0  0  0  0
   34.4440   30.4240   33.6950 C   0  0  0  0  0  0  0  0  0  0  0  0
   34.2540   31.4560   32.9660 O   0  0  0  0  0  0  0  0  0  0  0  0
   34.2590   31.4230   35.8920 C   0  0  0  0  0  0  0  0  0  0  0  0
   33.6820   30.5960   34.9160 C   0  0  0  0  0  0  0  0  0  0  0  0
   32.4700   30.0880   35.2990 C   0  0  0  0  0  0  0  0  0  0  0  0
   31.9770   29.4510   34.5850 H   0  0  0  0  0  0  0  0  0  0  0  0
   31.8320   30.3180   36.4930 C   0  0  0  0  0  0  0  0  0  0  0  0
   30.8730   29.8510   36.6700 H   0  0  0  0  0  0  0  0  0  0  0  0
   32.4690   31.1340   37.3810 C   0  0  0  0  0  3  0  0  0  0  0  0
   33.6910   31.7190   37.1370 C   0  0  0  0  0  3  0  0  0  0  0  0
   36.5830   32.5590   35.4340 N   0  0  0  0  0  0  0  0  0  0  0  0
   35.5510   32.0440   35.6370 C   0  0  0  0  0  0  0  0  0  0  0  0
  1  6  1  0  0  0  0
  1 10  1  0  0  0  0
  2  1  2  0  0  0  0
  3  4  2  0  0  0  0
  3  2  1  0  0  0  0
  4  5  1  0  0  0  0
  5 30  1  0  0  0  0
  5  6  2  0  0  0  0
  7  2  1  0  0  0  0
  8  3  1  0  0  0  0
  9  4  1  0  0  0  0
 10 11  2  0  0  0  0
 12 10  1  0  0  0  0
 12 16  1  0  0  0  0
 13 12  1  0  0  0  0
 14 17  1  6  0  0  0
 14 16  1  0  0  0  0
 14 25  1  0  0  0  0
 15 14  1  0  0  0  0
 15 18  1  0  0  0  0
 15 16  1  0  0  0  0
 16 20  1  1  0  0  0
 19 15  1  0  0  0  0
 21 22  1  0  0  0  0
 21 27  1  0  0  0  0
 22 28  1  0  0  0  0
 23 29  1  0  0  0  0
 23 22  2  0  0  0  0
 24 25  2  0  0  0  0
 24 23  1  0  0  0  0
 25 26  1  0  0  0  0
 26 21  2  0  0  0  0
 30 33  1  0  0  0  0
 31 30  2  0  0  0  0
 32 39  1  0  0  0  0
 33 34  1  0  0  0  0
 33 32  2  0  0  0  0
 34 36  2  0  0  0  0
 35 34  1  0  0  0  0
 36 37  1  0  0  0  0
 36 38  1  0  0  0  0
 39 38  2  0  0  0  0
 40 41  3  0  0  0  0
 41 32  1  0  0  0  0
M  END
>  <minimizedAffinity>
-5.76059341

$$$$

 OpenBabel03272508593D

 41 44  0  0  1  0  0  0  0  0999 V2000
   35.8190   28.5080   31.9230 C   0  0  0  0  0  0  0  0  0  0  0  0
   36.3680   29.4210   31.0550 C   0  0  0  0  0  0  0  0  0  0  0  0
   35.6880   30.6190   30.8840 C   0  0  0  0  0  0  0  0  0  0  0  0
   34.5270   30.8210   31.5760 C   0  0  0  0  0  0  0  0  0  0  0  0
   33.9800   29.9020   32.4440 C   0  0  0  0  0  0  0  0  0  0  0  0
   34.6670   28.7430   32.5910 N   0  0  0  0  0  0  0  0  0  0  0  0
   37.2930   29.2650   30.4980 H   0  0  0  0  0  0  0  0  0  0  0  0
   36.1180   31.3390   30.2010 H   0  0  0  0  0  0  0  0  0  0  0  0
   34.0770   31.7770   31.3810 H   0  0  0  0  0  0  0  0  0  0  0  0
   36.5330   27.2220   32.1410 C   0  0  0  0  0  0  0  0  0  0  0  0
   37.4300   27.1130   32.9810 O   0  0  0  0  0  0  0  0  0  0  0  0
   36.1250   26.0950   31.3190 N   0  0  0  0  0  0  0  0  0  0  0  0
   35.5300   26.1720   30.4740 H   0  0  0  0  0  0  0  0  0  0  0  0
   36.0790   23.6170   31.0800 C   0  0  2  0  0  0  0  0  0  0  0  0
   37.4160   24.0690   30.6170 C   0  0  0  0  0  0  0  0  0  0  0  0
   36.5930   24.7840   31.7210 C   0  0  1  0  0  0  0  0  0  0  0  0
   35.2900   23.6960   30.2930 H   0  0  0  0  0  0  0  0  0  0  0  0
   38.3310   23.5350   30.9550 H   0  0  0  0  0  0  0  0  0  0  0  0
   37.5140   24.5680   29.6530 H   0  0  0  0  0  0  0  0  0  0  0  0
   37.0530   24.6940   32.7420 H   0  0  0  0  0  0  0  0  0  0  0  0
   36.5550   21.0630   33.7250 C   0  0  0  0  0  0  0  0  0  0  0  0
   35.6370   20.0520   33.3180 C   0  0  0  0  0  0  0  0  0  0  0  0
   34.8750   20.2610   32.1270 C   0  0  0  0  0  0  0  0  0  0  0  0
   35.0440   21.4230   31.4130 N   0  0  0  0  0  0  0  0  0  0  0  0
   35.9380   22.3410   31.8640 C   0  0  0  0  0  0  0  0  0  0  0  0
   36.7100   22.1990   33.0120 N   0  0  0  0  0  0  0  0  0  0  0  0
   37.1000   20.8490   34.6280 H   0  0  0  0  0  0  0  0  0  0  0  0
   35.4900   19.1490   33.8530 H   0  0  0  0  0  0  0  0  0  0  0  0
   34.1770   19.4990   31.8110 H   0  0  0  0  0  0  0  0  0  0  0  0
   32.7140   30.1080   33.1570 C   0  0  0  0  0  0  0  0  0  0  0  0
   32.0160   31.1340   32.8540 O   0  0  0  0  0  0  0  0  0  0  0  0
   32.3420   29.7290   35.5190 C   0  0  0  0  0  0  0  0  0  0  0  0
   32.0130   29.3840   34.1990 C   0  0  0  0  0  0  0  0  0  0  0  0
   31.0630   28.4000   34.1270 C   0  0  0  0  0  0  0  0  0  0  0  0
   30.7670   28.1000   33.1360 H   0  0  0  0  0  0  0  0  0  0  0  0
   30.4580   27.7750   35.1880 C   0  0  0  0  0  0  0  0  0  0  0  0
   29.7200   27.0100   34.9920 H   0  0  0  0  0  0  0  0  0  0  0  0
   30.8410   28.1760   36.4350 C   0  0  0  0  0  3  0  0  0  0  0  0
   31.7830   29.1530   36.6660 C   0  0  0  0  0  3  0  0  0  0  0  0
   34.1370   31.5910   35.9800 N   0  0  0  0  0  0  0  0  0  0  0  0
   33.3370   30.7620   35.7650 C   0  0  0  0  0  0  0  0  0  0  0  0
  1 10  1  0  0  0  0
  1  6  1  0  0  0  0
  2  1  2  0  0  0  0
  3  2  1  0  0  0  0
  3  4  2  0  0  0  0
  4  5  1  0  0  0  0
  5  6  2  0  0  0  0
  5 30  1  0  0  0  0
  7  2  1  0  0  0  0
  8  3  1  0  0  0  0
  9  4  1  0  0  0  0
 10 11  2  0  0  0  0
 12 16  1  0  0  0  0
 12 10  1  0  0  0  0
 13 12  1  0  0  0  0
 14 17  1  6  0  0  0
 14 16  1  0  0  0  0
 14 25  1  0  0  0  0
 15 18  1  0  0  0  0
 15 14  1  0  0  0  0
 15 16  1  0  0  0  0
 16 20  1  1  0  0  0
 19 15  1  0  0  0  0
 21 27  1  0  0  0  0
 22 21  1  0  0  0  0
 22 28  1  0  0  0  0
 23 22  2  0  0  0  0
 24 25  2  0  0  0  0
 24 23  1  0  0  0  0
 25 26  1  0  0  0  0
 26 21  2  0  0  0  0
 29 23  1  0  0  0  0
 30 33  1  0  0  0  0
 31 30  2  0  0  0  0
 32 41  1  0  0  0  0
 32 39  1  0  0  0  0
 33 32  2  0  0  0  0
 34 33  1  0  0  0  0
 34 36  2  0  0  0  0
 35 34  1  0  0  0  0
 36 38  1  0  0  0  0
 37 36  1  0  0  0  0
 38 39  2  0  0  0  0
 41 40  3  0  0  0  0
M  END
>  <minimizedAffinity>
-5.68994761

$$$$

 OpenBabel03272508593D

 41 44  0  0  1  0  0  0  0  0999 V2000
   37.0820   27.3380   34.1140 C   0  0  0  0  0  0  0  0  0  0  0  0
   37.8450   27.5980   35.2270 C   0  0  0  0  0  0  0  0  0  0  0  0
   38.7670   26.6310   35.6030 C   0  0  0  0  0  0  0  0  0  0  0  0
   38.8630   25.4890   34.8580 C   0  0  0  0  0  0  0  0  0  0  0  0
   38.0950   25.2320   33.7440 C   0  0  0  0  0  0  0  0  0  0  0  0
   37.2050   26.1950   33.4010 N   0  0  0  0  0  0  0  0  0  0  0  0
   37.7710   28.5060   35.8270 H   0  0  0  0  0  0  0  0  0  0  0  0
   39.3680   26.8340   36.4790 H   0  0  0  0  0  0  0  0  0  0  0  0
   39.6060   24.8040   35.2240 H   0  0  0  0  0  0  0  0  0  0  0  0
   36.0980   28.3620   33.6760 C   0  0  0  0  0  0  0  0  0  0  0  0
   35.5480   28.3030   32.5720 O   0  0  0  0  0  0  0  0  0  0  0  0
   35.8080   29.4390   34.6080 N   0  0  0  0  0  0  0  0  0  0  0  0
   36.3740   29.6520   35.4500 H   0  0  0  0  0  0  0  0  0  0  0  0
   33.4140   30.0030   34.9880 C   0  0  2  0  0  0  0  0  0  0  0  0
   34.2130   31.1300   35.5330 C   0  0  0  0  0  0  0  0  0  0  0  0
   34.6500   30.2610   34.3250 C   0  0  1  0  0  0  0  0  0  0  0  0
   33.3130   29.1490   35.7020 H   0  0  0  0  0  0  0  0  0  0  0  0
   33.9230   32.1790   35.3040 H   0  0  0  0  0  0  0  0  0  0  0  0
   34.7540   31.0060   36.4710 H   0  0  0  0  0  0  0  0  0  0  0  0
   34.6460   30.8240   33.3520 H   0  0  0  0  0  0  0  0  0  0  0  0
   29.7800   30.1470   34.2660 C   0  0  0  0  0  0  0  0  0  0  0  0
   29.7630   30.8000   33.0000 C   0  0  0  0  0  0  0  0  0  0  0  0
   31.0100   31.1700   32.4060 C   0  0  0  0  0  0  0  0  0  0  0  0
   32.1820   30.8910   33.0670 N   0  0  0  0  0  0  0  0  0  0  0  0
   32.1170   30.2670   34.2720 C   0  0  0  0  0  0  0  0  0  0  0  0
   30.9400   29.8800   34.9030 N   0  0  0  0  0  0  0  0  0  0  0  0
   28.8120   29.8930   34.6630 H   0  0  0  0  0  0  0  0  0  0  0  0
   28.8720   31.0250   32.4720 H   0  0  0  0  0  0  0  0  0  0  0  0
   31.0060   31.6650   31.4450 H   0  0  0  0  0  0  0  0  0  0  0  0
   38.1760   23.9890   32.9680 C   0  0  0  0  0  0  0  0  0  0  0  0
   39.3060   23.6680   32.4660 O   0  0  0  0  0  0  0  0  0  0  0  0
   36.9960   21.9590   33.5540 C   0  0  0  0  0  0  0  0  0  0  0  0
   37.2190   22.9640   32.6010 C   0  0  0  0  0  0  0  0  0  0  0  0
   36.4720   22.7960   31.4660 C   0  0  0  0  0  0  0  0  0  0  0  0
   36.5980   23.5440   30.7020 H   0  0  0  0  0  0  0  0  0  0  0  0
   35.5850   21.7780   31.2190 C   0  0  0  0  0  0  0  0  0  0  0  0
   35.0580   21.7620   30.2760 H   0  0  0  0  0  0  0  0  0  0  0  0
   35.4340   20.8450   32.2030 C   0  0  0  0  0  3  0  0  0  0  0  0
   36.1160   20.8810   33.3990 C   0  0  0  0  0  3  0  0  0  0  0  0
   38.2800   22.0160   35.8450 N   0  0  0  0  0  0  0  0  0  0  0  0
   37.7140   21.9950   34.8190 C   0  0  0  0  0  0  0  0  0  0  0  0
  1  2  1  0  0  0  0
  2  3  2  0  0  0  0
  2  7  1  0  0  0  0
  3  8  1  0  0  0  0
  4  9  1  0  0  0  0
  4  3  1  0  0  0  0
  5  4  2  0  0  0  0
  6  5  1  0  0  0  0
  6  1  2  0  0  0  0
 10  1  1  0  0  0  0
 10 12  1  0  0  0  0
 11 10  2  0  0  0  0
 12 13  1  0  0  0  0
 14 15  1  0  0  0  0
 14 17  1  1  0  0  0
 15 19  1  0  0  0  0
 16 20  1  6  0  0  0
 16 12  1  0  0  0  0
 16 14  1  0  0  0  0
 16 15  1  0  0  0  0
 18 15  1  0  0  0  0
 21 27  1  0  0  0  0
 21 26  1  0  0  0  0
 22 21  2  0  0  0  0
 23 22  1  0  0  0  0
 23 24  2  0  0  0  0
 24 25  1  0  0  0  0
 25 26  2  0  0  0  0
 25 14  1  0  0  0  0
 28 22  1  0  0  0  0
 29 23  1  0  0  0  0
 30  5  1  0  0  0  0
 31 30  2  0  0  0  0
 32 41  1  0  0  0  0
 33 30  1  0  0  0  0
 33 32  2  0  0  0  0
 34 33  1  0  0  0  0
 35 34  1  0  0  0  0
 36 34  2  0  0  0  0
 36 38  1  0  0  0  0
 37 36  1  0  0  0  0
 38 39  2  0  0  0  0
 39 32  1  0  0  0  0
 41 40  3  0  0  0  0
M  END
>  <minimizedAffinity>
-5.68489313

$$$$

 OpenBabel03272508593D

 41 44  0  0  1  0  0  0  0  0999 V2000
   37.8370   26.5030   32.9970 C   0  0  0  0  0  0  0  0  0  0  0  0
   38.9750   27.1520   32.5800 C   0  0  0  0  0  0  0  0  0  0  0  0
   39.9780   26.3740   32.0190 C   0  0  0  0  0  0  0  0  0  0  0  0
   39.7830   25.0250   31.9150 C   0  0  0  0  0  0  0  0  0  0  0  0
   38.6420   24.3790   32.3360 C   0  0  0  0  0  0  0  0  0  0  0  0
   37.6800   25.1650   32.8780 N   0  0  0  0  0  0  0  0  0  0  0  0
   39.1360   28.2280   32.6610 H   0  0  0  0  0  0  0  0  0  0  0  0
   40.8730   26.8830   31.6900 H   0  0  0  0  0  0  0  0  0  0  0  0
   40.6120   24.5100   31.4650 H   0  0  0  0  0  0  0  0  0  0  0  0
   36.7380   27.3120   33.5860 C   0  0  0  0  0  0  0  0  0  0  0  0
   36.4930   27.2890   34.7960 O   0  0  0  0  0  0  0  0  0  0  0  0
   35.9610   28.1330   32.6730 N   0  0  0  0  0  0  0  0  0  0  0  0
   35.9850   28.0440   31.6400 H   0  0  0  0  0  0  0  0  0  0  0  0
   35.6680   30.2580   33.9370 C   0  0  2  0  0  0  0  0  0  0  0  0
   35.1970   30.5130   32.5510 C   0  0  0  0  0  0  0  0  0  0  0  0
   35.0990   29.1370   33.2620 C   0  0  1  0  0  0  0  0  0  0  0  0
   36.7750   30.3570   34.0510 H   0  0  0  0  0  0  0  0  0  0  0  0
   34.2370   31.0470   32.3800 H   0  0  0  0  0  0  0  0  0  0  0  0
   35.9220   30.6180   31.7440 H   0  0  0  0  0  0  0  0  0  0  0  0
   34.0420   28.8350   33.4920 H   0  0  0  0  0  0  0  0  0  0  0  0
   34.9920   32.2980   36.9580 C   0  0  0  0  0  0  0  0  0  0  0  0
   33.6180   32.0090   37.2000 C   0  0  0  0  0  0  0  0  0  0  0  0
   32.9460   31.1020   36.3220 C   0  0  0  0  0  0  0  0  0  0  0  0
   33.6370   30.5390   35.2760 N   0  0  0  0  0  0  0  0  0  0  0  0
   34.9460   30.8640   35.1090 C   0  0  0  0  0  0  0  0  0  0  0  0
   35.6570   31.7360   35.9260 N   0  0  0  0  0  0  0  0  0  0  0  0
   35.4430   32.9870   37.6510 H   0  0  0  0  0  0  0  0  0  0  0  0
   33.0660   32.4320   37.9990 H   0  0  0  0  0  0  0  0  0  0  0  0
   31.9040   30.8770   36.4990 H   0  0  0  0  0  0  0  0  0  0  0  0
   38.4520   22.9260   32.2560 C   0  0  0  0  0  0  0  0  0  0  0  0
   39.4900   22.1920   32.1280 O   0  0  0  0  0  0  0  0  0  0  0  0
   36.9100   21.5820   33.5490 C   0  0  0  0  0  0  0  0  0  0  0  0
   37.2930   22.0570   32.2850 C   0  0  0  0  0  0  0  0  0  0  0  0
   36.4820   21.6040   31.2790 C   0  0  0  0  0  0  0  0  0  0  0  0
   36.7260   21.9430   30.2860 H   0  0  0  0  0  0  0  0  0  0  0  0
   35.3980   20.7740   31.4180 C   0  0  0  0  0  0  0  0  0  0  0  0
   34.8410   20.4900   30.5370 H   0  0  0  0  0  0  0  0  0  0  0  0
   35.1010   20.3630   32.6850 C   0  0  0  0  0  3  0  0  0  0  0  0
   35.8230   20.7340   33.7960 C   0  0  0  0  0  3  0  0  0  0  0  0
   38.2790   22.2750   35.6800 N   0  0  0  0  0  0  0  0  0  0  0  0
   37.6710   21.9740   34.7260 C   0  0  0  0  0  0  0  0  0  0  0  0
  1 10  1  0  0  0  0
  2  7  1  0  0  0  0
  2  1  2  0  0  0  0
  3  2  1  0  0  0  0
  4  3  2  0  0  0  0
  4  5  1  0  0  0  0
  5  6  2  0  0  0  0
  6  1  1  0  0  0  0
  8  3  1  0  0  0  0
  9  4  1  0  0  0  0
 10 11  2  0  0  0  0
 12 16  1  0  0  0  0
 12 10  1  0  0  0  0
 13 12  1  0  0  0  0
 14 17  1  1  0  0  0
 14 25  1  0  0  0  0
 15 16  1  0  0  0  0
 15 14  1  0  0  0  0
 16 20  1  1  0  0  0
 16 14  1  0  0  0  0
 18 15  1  0  0  0  0
 19 15  1  0  0  0  0
 21 22  1  0  0  0  0
 21 27  1  0  0  0  0
 22 28  1  0  0  0  0
 23 29  1  0  0  0  0
 23 22  2  0  0  0  0
 24 23  1  0  0  0  0
 25 24  2  0  0  0  0
 25 26  1  0  0  0  0
 26 21  2  0  0  0  0
 30 33  1  0  0  0  0
 30  5  1  0  0  0  0
 31 30  2  0  0  0  0
 32 39  1  0  0  0  0
 32 41  1  0  0  0  0
 33 32  2  0  0  0  0
 34 36  2  0  0  0  0
 34 33  1  0  0  0  0
 35 34  1  0  0  0  0
 36 38  1  0  0  0  0
 37 36  1  0  0  0  0
 38 39  2  0  0  0  0
 41 40  3  0  0  0  0
M  END
>  <minimizedAffinity>
-5.68440866

$$$$

 OpenBabel03272508593D

 41 44  0  0  1  0  0  0  0  0999 V2000
   37.4810   26.4300   34.4190 C   0  0  0  0  0  0  0  0  0  0  0  0
   37.9480   26.5730   35.7040 C   0  0  0  0  0  0  0  0  0  0  0  0
   38.4790   25.4450   36.3130 C   0  0  0  0  0  0  0  0  0  0  0  0
   38.5060   24.2710   35.6140 C   0  0  0  0  0  0  0  0  0  0  0  0
   38.0360   24.1320   34.3270 C   0  0  0  0  0  0  0  0  0  0  0  0
   37.5250   25.2510   33.7580 N   0  0  0  0  0  0  0  0  0  0  0  0
   37.9280   27.5070   36.2670 H   0  0  0  0  0  0  0  0  0  0  0  0
   38.8470   25.5550   37.3240 H   0  0  0  0  0  0  0  0  0  0  0  0
   38.9380   23.4570   36.1670 H   0  0  0  0  0  0  0  0  0  0  0  0
   36.9220   27.6250   33.7330 C   0  0  0  0  0  0  0  0  0  0  0  0
   37.0050   27.7670   32.5090 O   0  0  0  0  0  0  0  0  0  0  0  0
   36.2710   28.6200   34.5670 N   0  0  0  0  0  0  0  0  0  0  0  0
   36.3450   28.6560   35.6010 H   0  0  0  0  0  0  0  0  0  0  0  0
   34.2940   30.1320   34.5190 C   0  0  2  0  0  0  0  0  0  0  0  0
   35.4970   30.9990   34.6100 C   0  0  0  0  0  0  0  0  0  0  0  0
   35.4720   29.6230   33.8940 C   0  0  1  0  0  0  0  0  0  0  0  0
   33.9560   29.7410   35.5090 H   0  0  0  0  0  0  0  0  0  0  0  0
   35.5890   31.8920   33.9540 H   0  0  0  0  0  0  0  0  0  0  0  0
   36.0400   31.0730   35.5520 H   0  0  0  0  0  0  0  0  0  0  0  0
   35.5820   29.7040   32.7790 H   0  0  0  0  0  0  0  0  0  0  0  0
   32.3340   31.4790   31.6740 C   0  0  0  0  0  0  0  0  0  0  0  0
   30.9980   31.2370   32.1040 C   0  0  0  0  0  0  0  0  0  0  0  0
   30.7910   30.6220   33.3790 C   0  0  0  0  0  0  0  0  0  0  0  0
   31.8780   30.2820   34.1480 N   0  0  0  0  0  0  0  0  0  0  0  0
   33.1220   30.5440   33.6700 C   0  0  0  0  0  0  0  0  0  0  0  0
   33.3910   31.1390   32.4420 N   0  0  0  0  0  0  0  0  0  0  0  0
   32.4260   31.9430   30.7080 H   0  0  0  0  0  0  0  0  0  0  0  0
   30.1450   31.4900   31.5280 H   0  0  0  0  0  0  0  0  0  0  0  0
   29.7810   30.4350   33.7130 H   0  0  0  0  0  0  0  0  0  0  0  0
   38.0330   22.8610   33.5940 C   0  0  0  0  0  0  0  0  0  0  0  0
   39.1600   22.3560   33.2660 O   0  0  0  0  0  0  0  0  0  0  0  0
   36.5770   22.1780   31.7850 C   0  0  0  0  0  0  0  0  0  0  0  0
   36.9910   21.9770   33.1110 C   0  0  0  0  0  0  0  0  0  0  0  0
   36.3220   20.9540   33.7280 C   0  0  0  0  0  0  0  0  0  0  0  0
   36.6050   20.7500   34.7460 H   0  0  0  0  0  0  0  0  0  0  0  0
   35.3410   20.1710   33.1720 C   0  0  0  0  0  0  0  0  0  0  0  0
   34.8910   19.3930   33.7720 H   0  0  0  0  0  0  0  0  0  0  0  0
   35.0030   20.4400   31.8770 C   0  0  0  0  0  3  0  0  0  0  0  0
   35.5880   21.4360   31.1280 C   0  0  0  0  0  3  0  0  0  0  0  0
   37.6840   24.0690   30.3370 N   0  0  0  0  0  0  0  0  0  0  0  0
   37.1940   23.2290   30.9910 C   0  0  0  0  0  0  0  0  0  0  0  0
  1  2  1  0  0  0  0
  2  7  1  0  0  0  0
  2  3  2  0  0  0  0
  3  8  1  0  0  0  0
  4  9  1  0  0  0  0
  4  3  1  0  0  0  0
  5  4  2  0  0  0  0
  6  5  1  0  0  0  0
  6  1  2  0  0  0  0
 10  1  1  0  0  0  0
 10 12  1  0  0  0  0
 11 10  2  0  0  0  0
 12 13  1  0  0  0  0
 14 15  1  0  0  0  0
 14 17  1  1  0  0  0
 15 19  1  0  0  0  0
 16 20  1  6  0  0  0
 16 14  1  0  0  0  0
 16 12  1  0  0  0  0
 16 15  1  0  0  0  0
 18 15  1  0  0  0  0
 21 22  2  0  0  0  0
 21 26  1  0  0  0  0
 22 23  1  0  0  0  0
 23 29  1  0  0  0  0
 23 24  2  0  0  0  0
 25 24  1  0  0  0  0
 25 14  1  0  0  0  0
 26 25  2  0  0  0  0
 27 21  1  0  0  0  0
 28 22  1  0  0  0  0
 30  5  1  0  0  0  0
 31 30  2  0  0  0  0
 32 33  1  0  0  0  0
 33 30  1  0  0  0  0
 33 34  2  0  0  0  0
 34 35  1  0  0  0  0
 36 34  1  0  0  0  0
 36 37  1  0  0  0  0
 38 36  2  0  0  0  0
 39 32  2  0  0  0  0
 39 38  1  0  0  0  0
 40 41  3  0  0  0  0
 41 32  1  0  0  0  0
M  END
>  <minimizedAffinity>
-5.67799425

$$$$

 OpenBabel03272508593D

 41 44  0  0  1  0  0  0  0  0999 V2000
   37.8300   27.7610   31.8180 C   0  0  0  0  0  0  0  0  0  0  0  0
   37.9500   27.7680   30.4490 C   0  0  0  0  0  0  0  0  0  0  0  0
   37.1860   28.6940   29.7520 C   0  0  0  0  0  0  0  0  0  0  0  0
   36.3680   29.5330   30.4550 C   0  0  0  0  0  0  0  0  0  0  0  0
   36.2490   29.5210   31.8260 C   0  0  0  0  0  0  0  0  0  0  0  0
   37.0080   28.6070   32.4790 N   0  0  0  0  0  0  0  0  0  0  0  0
   38.6010   27.1000   29.8830 H   0  0  0  0  0  0  0  0  0  0  0  0
   37.2800   28.7020   28.6750 H   0  0  0  0  0  0  0  0  0  0  0  0
   35.8210   30.2150   29.8290 H   0  0  0  0  0  0  0  0  0  0  0  0
   38.6480   26.7920   32.5950 C   0  0  0  0  0  0  0  0  0  0  0  0
   39.6350   27.1500   33.2430 O   0  0  0  0  0  0  0  0  0  0  0  0
   38.2320   25.4000   32.5580 N   0  0  0  0  0  0  0  0  0  0  0  0
   37.5460   25.0120   31.8850 H   0  0  0  0  0  0  0  0  0  0  0  0
   38.0050   23.8640   34.5040 C   0  0  2  0  0  0  0  0  0  0  0  0
   38.4030   23.0290   33.3410 C   0  0  0  0  0  0  0  0  0  0  0  0
   38.8270   24.5090   33.5330 C   0  0  1  0  0  0  0  0  0  0  0  0
   36.9070   24.0620   34.5480 H   0  0  0  0  0  0  0  0  0  0  0  0
   39.2070   22.2700   33.4510 H   0  0  0  0  0  0  0  0  0  0  0  0
   37.6750   22.8060   32.5610 H   0  0  0  0  0  0  0  0  0  0  0  0
   39.9260   24.6300   33.7350 H   0  0  0  0  0  0  0  0  0  0  0  0
   38.3000   23.6840   38.1950 C   0  0  0  0  0  0  0  0  0  0  0  0
   39.5380   22.9950   38.3520 C   0  0  0  0  0  0  0  0  0  0  0  0
   40.2610   22.6130   37.1800 C   0  0  0  0  0  0  0  0  0  0  0  0
   39.7470   22.9160   35.9420 N   0  0  0  0  0  0  0  0  0  0  0  0
   38.5600   23.5740   35.8720 C   0  0  0  0  0  0  0  0  0  0  0  0
   37.8090   23.9740   36.9720 N   0  0  0  0  0  0  0  0  0  0  0  0
   37.8030   23.9450   39.1130 H   0  0  0  0  0  0  0  0  0  0  0  0
   39.9530   22.7510   39.2970 H   0  0  0  0  0  0  0  0  0  0  0  0
   41.2010   22.0920   37.2900 H   0  0  0  0  0  0  0  0  0  0  0  0
   35.3410   30.3990   32.5740 C   0  0  0  0  0  0  0  0  0  0  0  0
   34.1680   30.5880   32.1040 O   0  0  0  0  0  0  0  0  0  0  0  0
   36.1120   32.3990   33.6970 C   0  0  0  0  0  0  0  0  0  0  0  0
   35.4580   31.1620   33.8000 C   0  0  0  0  0  0  0  0  0  0  0  0
   35.0340   30.8890   35.0740 C   0  0  0  0  0  0  0  0  0  0  0  0
   34.5180   29.9530   35.2100 H   0  0  0  0  0  0  0  0  0  0  0  0
   35.1980   31.6910   36.1750 C   0  0  0  0  0  0  0  0  0  0  0  0
   34.8140   31.3540   37.1280 H   0  0  0  0  0  0  0  0  0  0  0  0
   35.8460   32.8750   35.9790 C   0  0  0  0  0  3  0  0  0  0  0  0
   36.3280   33.2870   34.7580 C   0  0  0  0  0  3  0  0  0  0  0  0
   37.0480   33.1840   31.3720 N   0  0  0  0  0  0  0  0  0  0  0  0
   36.6220   32.8370   32.4070 C   0  0  0  0  0  0  0  0  0  0  0  0
  1  6  1  0  0  0  0
  1 10  1  0  0  0  0
  2  1  2  0  0  0  0
  3  2  1  0  0  0  0
  3  4  2  0  0  0  0
  4  5  1  0  0  0  0
  5  6  2  0  0  0  0
  5 30  1  0  0  0  0
  7  2  1  0  0  0  0
  8  3  1  0  0  0  0
  9  4  1  0  0  0  0
 10 11  2  0  0  0  0
 12 10  1  0  0  0  0
 12 16  1  0  0  0  0
 13 12  1  0  0  0  0
 14 17  1  6  0  0  0
 14 25  1  0  0  0  0
 15 18  1  0  0  0  0
 15 16  1  0  0  0  0
 15 14  1  0  0  0  0
 16 20  1  1  0  0  0
 16 14  1  0  0  0  0
 19 15  1  0  0  0  0
 21 22  1  0  0  0  0
 21 27  1  0  0  0  0
 22 28  1  0  0  0  0
 23 29  1  0  0  0  0
 23 22  2  0  0  0  0
 24 23  1  0  0  0  0
 25 24  2  0  0  0  0
 25 26  1  0  0  0  0
 26 21  2  0  0  0  0
 30 33  1  0  0  0  0
 31 30  2  0  0  0  0
 32 33  2  0  0  0  0
 32 39  1  0  0  0  0
 33 34  1  0  0  0  0
 34 35  1  0  0  0  0
 34 36  2  0  0  0  0
 36 37  1  0  0  0  0
 38 36  1  0  0  0  0
 39 38  2  0  0  0  0
 40 41  3  0  0  0  0
 41 32  1  0  0  0  0
M  END
>  <minimizedAffinity>
-5.6534996

$$$$
