
 OpenBabel03262521523D

 24 25  0  0  0  0  0  0  0  0999 V2000
   35.0310   30.0560   49.8060 C   0  0  0  0  0  0  0  0  0  0  0  0
   34.4560   29.2430   50.2940 H   0  0  0  0  0  0  0  0  0  0  0  0
   34.8160   31.0160   50.3140 H   0  0  0  0  0  0  0  0  0  0  0  0
   36.7840   29.6410   49.9250 S   0  0  0  0  0  0  0  0  0  0  0  0
   37.7110   30.8560   48.9920 C   0  0  0  0  0  0  0  0  0  0  0  0
   37.9040   32.0680   49.6400 C   0  0  0  0  0  0  0  0  0  0  0  0
   38.6200   33.0500   48.9600 C   0  0  0  0  0  0  0  0  0  0  0  0
   39.0980   32.7850   47.6960 N   0  0  0  0  0  0  0  0  0  0  0  0
   38.8740   31.5920   47.1320 C   0  0  0  0  0  0  0  0  0  0  0  0
   38.1910   30.6330   47.7610 N   0  0  0  0  0  0  0  0  0  0  0  0
   37.5560   32.3310   50.6230 H   0  0  0  0  0  0  0  0  0  0  0  0
   38.7940   34.0090   49.4250 H   0  0  0  0  0  0  0  0  0  0  0  0
   39.2920   31.4860   46.1400 H   0  0  0  0  0  0  0  0  0  0  0  0
   34.4800   30.1310   48.0600 S   0  0  0  0  0  0  0  0  0  0  0  0
   34.0890   28.4090   46.0530 C   0  0  0  0  0  0  0  0  0  0  0  0
   34.1390   28.4860   47.4500 C   0  0  0  0  0  0  0  0  0  0  0  0
   33.9320   27.3270   48.1800 C   0  0  0  0  0  0  0  0  0  0  0  0
   33.9890   27.4770   49.2280 H   0  0  0  0  0  0  0  0  0  0  0  0
   33.6860   26.1550   47.4950 C   0  0  0  0  0  0  0  0  0  0  0  0
   33.5310   25.2830   48.0770 H   0  0  0  0  0  0  0  0  0  0  0  0
   33.6300   26.0510   46.1250 C   0  0  0  0  0  0  0  0  0  0  0  0
   33.8370   27.2040   45.3980 C   0  0  0  0  0  0  0  0  0  0  0  0
   34.4670   30.4560   44.5040 N   0  0  0  0  0  0  0  0  0  0  0  0
   34.2890   29.5440   45.1880 C   0  0  0  0  0  0  0  0  0  0  0  0
  1  4  1  0  0  0  0
  1  2  1  0  0  0  0
  1  3  1  0  0  0  0
  5  6  1  0  0  0  0
  5  4  1  0  0  0  0
  6 11  1  0  0  0  0
  7 12  1  0  0  0  0
  7  6  2  0  0  0  0
  8  7  1  0  0  0  0
  9  8  2  0  0  0  0
  9 10  1  0  0  0  0
 10  5  2  0  0  0  0
 13  9  1  0  0  0  0
 14  1  1  0  0  0  0
 15 16  1  0  0  0  0
 16 14  1  0  0  0  0
 16 17  2  0  0  0  0
 17 18  1  0  0  0  0
 19 20  1  0  0  0  0
 19 17  1  0  0  0  0
 21 19  2  0  0  0  0
 22 15  2  0  0  0  0
 22 21  1  0  0  0  0
 23 24  3  0  0  0  0
 24 15  1  0  0  0  0
M  END
>  <minimizedAffinity>
-4.25598335

>  <minimizedRMSD>
3.03902149

$$$$
