
 OpenBabel03272500543D

 33 35  0  0  0  0  0  0  0  0999 V2000
   34.2090   29.5870   43.5060 C   0  0  0  0  0  0  0  0  0  0  0  0
   33.7720   28.7550   42.4620 C   0  0  0  0  0  0  0  0  0  0  0  0
   34.2020   28.9030   41.1560 C   0  0  0  0  0  0  0  0  0  0  0  0
   35.1200   29.9400   40.8590 C   0  0  0  0  0  0  0  0  0  0  0  0
   35.5250   30.7320   41.8960 C   0  0  0  0  0  0  0  0  0  0  0  0
   35.1070   30.5860   43.1820 C   0  0  0  0  0  0  0  0  0  0  0  0
   33.0710   27.9530   42.6710 H   0  0  0  0  0  0  0  0  0  0  0  0
   33.8060   28.2030   40.4040 H   0  0  0  0  0  0  0  0  0  0  0  0
   35.3720   29.9550   39.8300 H   0  0  0  0  0  0  0  0  0  0  0  0
   36.1640   31.4680   41.4510 H   0  0  0  0  0  0  0  0  0  0  0  0
   34.2490   28.3390   45.5790 C   0  0  0  0  0  0  0  0  0  0  0  0
   33.6190   29.3250   44.7990 C   0  0  0  0  0  0  0  0  0  0  0  0
   32.4850   29.9420   45.3510 C   0  0  0  0  0  0  0  0  0  0  0  0
   32.0500   29.5870   46.5650 N   0  0  0  0  0  0  0  0  0  0  0  0
   32.6660   28.6410   47.2990 C   0  0  0  0  0  0  0  0  0  0  0  0
   33.7570   28.0280   46.7980 N   0  0  0  0  0  0  0  0  0  0  0  0
   35.1250   27.8260   45.2170 H   0  0  0  0  0  0  0  0  0  0  0  0
   32.0250   30.6860   44.7220 H   0  0  0  0  0  0  0  0  0  0  0  0
   32.3300   28.3370   48.2860 H   0  0  0  0  0  0  0  0  0  0  0  0
   36.8800   31.0710   44.6190 C   0  0  0  0  0  0  0  0  0  0  0  0
   37.3590   29.9320   44.2230 O   0  0  0  0  0  0  0  0  0  0  0  0
   35.5520   31.3870   44.2390 N   0  0  0  0  0  0  0  0  0  0  0  0
   35.1920   32.1520   44.8150 H   0  0  0  0  0  0  0  0  0  0  0  0
   38.9380   32.5380   45.0030 C   0  0  0  0  0  0  0  0  0  0  0  0
   37.9160   31.7440   45.3930 C   0  0  0  0  0  0  0  0  0  0  0  0
   37.6990   31.4720   46.7460 C   0  0  0  0  0  0  0  0  0  0  0  0
   36.9130   30.8450   47.2000 H   0  0  0  0  0  0  0  0  0  0  0  0
   38.5130   32.0000   47.7560 C   0  0  0  0  0  0  0  0  0  0  0  0
   38.3920   31.8240   48.8010 H   0  0  0  0  0  0  0  0  0  0  0  0
   39.5590   32.8170   47.3190 C   0  0  0  0  0  3  0  0  0  0  0  0
   39.7620   33.0770   45.9700 C   0  0  0  0  0  3  0  0  0  0  0  0
   39.1560   32.9170   42.4650 N   0  0  0  0  0  0  0  0  0  0  0  0
   39.0580   32.7440   43.6060 C   0  0  0  0  0  0  0  0  0  0  0  0
  1 12  1  0  0  0  0
  2  7  1  0  0  0  0
  2  1  2  0  0  0  0
  3  2  1  0  0  0  0
  4  3  2  0  0  0  0
  4  5  1  0  0  0  0
  5  6  2  0  0  0  0
  6  1  1  0  0  0  0
  6 22  1  0  0  0  0
  8  3  1  0  0  0  0
  9  4  1  0  0  0  0
 10  5  1  0  0  0  0
 11 16  1  0  0  0  0
 12 13  1  0  0  0  0
 12 11  2  0  0  0  0
 13 14  2  0  0  0  0
 14 15  1  0  0  0  0
 15 19  1  0  0  0  0
 16 15  2  0  0  0  0
 17 11  1  0  0  0  0
 18 13  1  0  0  0  0
 20 25  1  0  0  0  0
 21 20  2  0  0  0  0
 22 20  1  0  0  0  0
 22 23  1  0  0  0  0
 24 25  2  0  0  0  0
 24 31  1  0  0  0  0
 25 26  1  0  0  0  0
 26 27  1  0  0  0  0
 26 28  2  0  0  0  0
 28 29  1  0  0  0  0
 30 28  1  0  0  0  0
 31 30  2  0  0  0  0
 32 33  3  0  0  0  0
 33 24  1  0  0  0  0
M  END
>  <minimizedAffinity>
-3.83389378

>  <minimizedRMSD>
6.11716652

$$$$
