
     RDKit          3D

 41 43  0  0  0  0  0  0  0  0999 V2000
   38.1334   30.5650   47.3254 C   0  0  1  0  0  0  0  0  0  0  0  0
   37.5073   30.7406   46.0242 C   0  0  0  0  0  0  0  0  0  0  0  0
   38.5500   30.5655   44.9632 C   0  0  0  0  0  0  0  0  0  0  0  0
   39.8102   31.2622   45.3293 C   0  0  0  0  0  0  0  0  0  0  0  0
   39.7097   32.2743   46.3908 C   0  0  0  0  0  0  0  0  0  0  0  0
   38.9378   31.8243   47.6307 C   0  0  1  0  0  0  0  0  0  0  0  0
   36.9337   29.6320   50.7155 C   0  0  0  0  0  0  0  0  0  0  0  0
   37.8168   29.8406   49.6198 C   0  0  0  0  0  0  0  0  0  0  0  0
   37.2374   30.3656   48.4733 C   0  0  0  0  0  0  0  0  0  0  0  0
   35.8809   30.6547   48.4392 N   0  0  0  0  0  0  0  0  0  0  0  0
   35.0902   30.4399   49.4984 C   0  0  0  0  0  0  0  0  0  0  0  0
   35.6085   29.9275   50.6445 N   0  0  0  0  0  0  0  0  0  0  0  0
   38.2592   33.8115   49.2514 C   0  0  0  0  0  0  0  0  0  0  0  0
   39.3568   33.6203   49.8537 O   0  0  0  0  0  0  0  0  0  0  0  0
   38.1512   32.9141   48.1444 N   0  0  0  0  0  0  0  0  0  0  0  0
   38.9028   29.7422   47.2933 H   0  0  0  0  0  0  0  0  0  0  0  0
   36.6404   30.0608   45.8552 H   0  0  0  0  0  0  0  0  0  0  0  0
   37.0865   31.7643   45.8913 H   0  0  0  0  0  0  0  0  0  0  0  0
   38.1357   30.8502   43.9729 H   0  0  0  0  0  0  0  0  0  0  0  0
   38.7369   29.4542   44.8973 H   0  0  0  0  0  0  0  0  0  0  0  0
   40.6099   30.5263   45.6052 H   0  0  0  0  0  0  0  0  0  0  0  0
   40.1797   31.7713   44.4150 H   0  0  0  0  0  0  0  0  0  0  0  0
   39.2455   33.2443   46.0447 H   0  0  0  0  0  0  0  0  0  0  0  0
   40.7249   32.5485   46.7411 H   0  0  0  0  0  0  0  0  0  0  0  0
   39.6635   31.5411   48.4360 H   0  0  0  0  0  0  0  0  0  0  0  0
   37.2976   29.2291   51.6420 H   0  0  0  0  0  0  0  0  0  0  0  0
   38.8648   29.5976   49.7021 H   0  0  0  0  0  0  0  0  0  0  0  0
   34.0574   30.7112   49.3276 H   0  0  0  0  0  0  0  0  0  0  0  0
   37.3113   33.0071   47.4891 H   0  0  0  0  0  0  0  0  0  0  0  0
   39.3266   36.5720   47.3799 N   0  0  0  0  0  0  0  0  0  0  0  0
   38.4136   36.3115   48.0292 C   0  0  0  0  0  0  0  0  0  0  0  0
   37.2859   35.9684   48.8506 C   0  0  0  0  0  0  0  0  0  0  0  0
   37.1565   34.7365   49.4843 C   0  0  0  0  0  0  0  0  0  0  0  0
   36.0431   34.4903   50.2533 C   0  0  0  0  0  0  0  0  0  0  0  0
   35.9856   33.5276   50.7228 H   0  0  0  0  0  0  0  0  0  0  0  0
   35.0730   35.4748   50.3810 C   0  0  0  0  0  0  0  0  0  0  0  0
   34.1988   35.2790   50.9858 H   0  0  0  0  0  0  0  0  0  0  0  0
   35.1768   36.7094   49.7611 C   0  0  0  0  0  0  0  0  0  0  0  0
   36.3063   36.9126   49.0019 C   0  0  0  0  0  0  0  0  0  0  0  0
   34.4322   37.4868   49.8492 H   0  0  0  0  0  0  0  0  0  0  0  0
   36.3979   37.8895   48.5060 H   0  0  0  0  0  0  0  0  0  0  0  0
  1  6  1  0
  1  9  1  0
  2  1  1  0
  3  4  1  0
  3  2  1  0
  4  5  1  0
  5  6  1  0
  6 15  1  0
  8  7  2  0
  9  8  1  0
 10  9  2  0
 10 11  1  0
 11 12  2  0
 12  7  1  0
 13 14  2  0
 15 13  1  0
  1 16  1  6
  2 17  1  0
  2 18  1  0
  3 19  1  0
  3 20  1  0
  4 21  1  0
  4 22  1  0
  5 23  1  0
  5 24  1  0
  6 25  1  1
  7 26  1  0
  8 27  1  0
 11 28  1  0
 15 29  1  0
 30 31  3  0
 31 32  1  0
 32 33  2  0
 33 34  1  0
 34 35  1  0
 34 36  2  0
 36 37  1  0
 36 38  1  0
 38 39  2  0
 39 32  1  0
 38 40  1  0
 39 41  1  0
 13 33  1  0
M  ISO  8  16  13  17  13  18  13  19  13  20  13  21  13  22  13  23  13
M  ISO  7  24  13  25  13  26  14  27  14  28  14  35  15  37  16
M  END
>  <DihAtoms>  (1) 
13,12,32,31

>  <DihDeg>  (1) 
58.88760797667504

$$$$
