REMARK  Name = 
REMARK  3 active torsions:
REMARK  status: ('A' for Active; 'I' for Inactive)
REMARK    1  A    between atoms: C_1  and  C_14
REMARK    2  A    between atoms: C_2  and  C_9
REMARK    3  A    between atoms: C_11  and  C_27
REMARK                            x       y       z     vdW  Elec       q    Type
REMARK                         _______ _______ _______ _____ _____    ______ ____
ROOT
ATOM      1  C   UNL     1      36.850  29.317  50.238  0.00  0.00    +0.000 A 
ATOM      2  C   UNL     1      37.762  29.834  49.298  0.00  0.00    +0.000 A 
ATOM      3  C   UNL     1      37.328  30.622  48.240  0.00  0.00    +0.000 A 
ATOM      4  N   UNL     1      35.988  30.820  48.227  0.00  0.00    +0.000 NA
ATOM      5  C   UNL     1      35.111  30.339  49.108  0.00  0.00    +0.000 A 
ATOM      6  N   UNL     1      35.548  29.577  50.126  0.00  0.00    +0.000 NA
ATOM      7  H   UNL     1      37.277  28.712  51.030  0.00  0.00    +0.000 HD
ATOM      8  H   UNL     1      38.804  29.611  49.410  0.00  0.00    +0.000 HD
ENDROOT
BRANCH   3  10
ATOM      9  C   UNL     1      38.874  32.347  47.539  0.00  0.00    +0.000 A 
ATOM     10  C   UNL     1      38.329  31.110  47.325  0.00  0.00    +0.000 A 
ATOM     11  C   UNL     1      38.778  30.407  46.237  0.00  0.00    +0.000 A 
ATOM     12  C   UNL     1      39.717  30.893  45.398  0.00  0.00    +0.000 A 
ATOM     13  C   UNL     1      40.290  32.142  45.583  0.00  0.00    +0.000 A 
ATOM     14  C   UNL     1      39.844  32.845  46.668  0.00  0.00    +0.000 A 
ATOM     15  H   UNL     1      38.340  29.424  46.075  0.00  0.00    +0.000 HD
ATOM     16  H   UNL     1      40.007  30.264  44.566  0.00  0.00    +0.000 HD
ATOM     17  H   UNL     1      41.039  32.490  44.884  0.00  0.00    +0.000 HD
ATOM     18  H   UNL     1      40.334  33.814  46.752  0.00  0.00    +0.000 HD
BRANCH   9  20
ATOM     19  N   UNL     1      39.358  34.298  48.845  0.00  0.00    +0.000 NA
ATOM     20  C   UNL     1      38.579  33.270  48.598  0.00  0.00    +0.000 C 
ATOM     21  N   UNL     1      37.655  33.551  49.623  0.00  0.00    +0.000 N 
ATOM     22  H   UNL     1      39.127  34.968  49.613  0.00  0.00    +0.000 HD
ATOM     23  H   UNL     1      37.733  33.075  50.555  0.00  0.00    +0.000 HD
ATOM     24  H   UNL     1      36.854  34.189  49.628  0.00  0.00    +0.000 HD
ENDBRANCH   9  20
ENDBRANCH   3  10
BRANCH   5  27
ATOM     25  O   UNL     1      33.814  32.382  50.420  0.00  0.00    +0.000 OA
ATOM     26  C   UNL     1      33.116  31.346  50.160  0.00  0.00    +0.000 C 
ATOM     27  C   UNL     1      33.663  30.659  48.940  0.00  0.00    +0.000 C 
ATOM     28  C   UNL     1      32.825  29.403  48.889  0.00  0.00    +0.000 C 
ATOM     29  H   UNL     1      31.989  29.541  48.178  0.00  0.00    +0.000 HD
ATOM     30  C   UNL     1      32.232  29.278  50.276  0.00  0.00    +0.000 C 
ATOM     31  H   UNL     1      32.974  28.795  50.943  0.00  0.00    +0.000 HD
ATOM     32  N   UNL     1      31.985  30.647  50.671  0.00  0.00    +0.000 N 
ATOM     33  H   UNL     1      31.310  31.291  51.172  0.00  0.00    +0.000 HD
ENDBRANCH   5  27
TORSDOF 3
