
 OpenBabel03272508113D

 34 36  0  0  1  0  0  0  0  0999 V2000
   36.6990   29.4490   44.0420 Cl  0  0  0  0  0  0  0  0  0  0  0  0
   38.3490   29.8250   43.5370 C   0  0  0  0  0  0  0  0  0  0  0  0
   39.3360   30.3160   44.4030 C   0  0  0  0  0  0  0  0  0  0  0  0
   40.5920   30.5690   43.8770 C   0  0  0  0  0  0  0  0  0  0  0  0
   40.8480   30.3410   42.5350 C   0  0  0  0  0  0  0  0  0  0  0  0
   39.9050   29.8670   41.6830 C   0  0  0  0  0  0  0  0  0  0  0  0
   38.6730   29.6170   42.1970 C   0  0  0  0  0  0  0  0  0  0  0  0
   41.2880   30.9390   44.5920 H   0  0  0  0  0  0  0  0  0  0  0  0
   41.8600   30.5690   42.2090 H   0  0  0  0  0  0  0  0  0  0  0  0
   40.1750   29.7120   40.6440 H   0  0  0  0  0  0  0  0  0  0  0  0
   37.6530   26.8130   41.9190 O   0  0  0  0  0  0  0  0  0  0  0  0
   37.8090   27.6480   40.9900 C   0  0  0  0  0  0  0  0  0  0  0  0
   37.6120   29.0900   41.2650 C   0  0  2  0  0  3  0  0  0  0  0  0
   37.7970   29.8010   39.9380 C   0  0  0  0  0  3  0  0  0  0  0  0
   36.8000   29.9520   39.4410 H   0  0  0  0  0  0  0  0  0  0  0  0
   38.6390   28.8090   39.1700 C   0  0  0  0  0  3  0  0  0  0  0  0
   38.5620   28.9610   38.0780 H   0  0  0  0  0  0  0  0  0  0  0  0
   38.1670   27.5110   39.6000 N   0  0  0  0  0  0  0  0  0  0  0  0
   38.0410   26.5600   39.1410 H   0  0  0  0  0  0  0  0  0  0  0  0
   38.8790   30.4710   45.6880 O   0  0  0  0  0  0  0  0  0  0  0  0
   39.4380   32.5540   47.1160 O   0  0  0  0  0  0  0  0  0  0  0  0
   38.3110   31.8560   46.4410 P   0  0  1  0  0  0  0  0  0  0  0  0
   37.7150   32.8530   45.1800 O   0  0  0  0  0  0  0  0  0  0  0  0
   36.9150   32.3840   44.8350 H   0  0  0  0  0  0  0  0  0  0  0  0
   37.0360   31.4530   47.4830 O   0  0  0  0  0  0  0  0  0  0  0  0
   37.6130   30.5180   50.9970 C   0  0  0  0  0  0  0  0  0  0  0  0
   37.7090   31.3080   49.8500 C   0  0  0  0  0  0  0  0  0  0  0  0
   37.0770   30.8670   48.6810 C   0  0  0  0  0  0  0  0  0  0  0  0
   36.3970   29.6780   48.7320 N   0  0  0  0  0  0  0  0  0  0  0  0
   36.3320   28.9480   49.8600 C   0  0  0  0  0  0  0  0  0  0  0  0
   36.9420   29.3750   50.9890 N   0  0  0  0  0  0  0  0  0  0  0  0
   38.1340   30.9560   51.8230 H   0  0  0  0  0  0  0  0  0  0  0  0
   38.2070   32.2460   49.6890 H   0  0  0  0  0  0  0  0  0  0  0  0
   35.7940   28.0030   49.9110 H   0  0  0  0  0  0  0  0  0  0  0  0
  2  1  1  0  0  0  0
  2  3  1  0  0  0  0
  3 20  1  0  0  0  0
  4  3  2  0  0  0  0
  4  8  1  0  0  0  0
  5  4  1  0  0  0  0
  6  7  1  0  0  0  0
  6  5  2  0  0  0  0
  7  2  2  0  0  0  0
  9  5  1  0  0  0  0
 10  6  1  0  0  0  0
 12 13  1  0  0  0  0
 12 11  2  0  0  0  0
 13  7  1  1  0  0  0
 14 13  1  0  0  0  0
 15 14  1  0  0  0  0
 16 18  1  0  0  0  0
 16 14  1  0  0  0  0
 17 16  1  0  0  0  0
 18 12  1  0  0  0  0
 19 18  1  0  0  0  0
 20 22  1  0  0  0  0
 22 21  2  1  0  0  0
 22 25  1  0  0  0  0
 23 22  1  0  0  0  0
 24 23  1  0  0  0  0
 25 28  1  0  0  0  0
 26 32  1  0  0  0  0
 27 26  2  0  0  0  0
 28 29  2  0  0  0  0
 28 27  1  0  0  0  0
 29 30  1  0  0  0  0
 30 34  1  0  0  0  0
 30 31  2  0  0  0  0
 31 26  1  0  0  0  0
 33 27  1  0  0  0  0
M  END
>  <minimizedAffinity>
-4.952703

>  <minimizedRMSD>
0.193182096

$$$$
