
 OpenBabel03272510203D

 36 39  0  0  1  0  0  0  0  0999 V2000
   37.2210   29.2260   50.9020 Br  0  0  0  0  0  0  0  0  0  0  0  0
   35.8850   29.3030   49.5400 C   0  0  0  0  0  0  0  0  0  0  0  0
   35.9370   30.2700   48.5500 C   0  0  0  0  0  0  0  0  0  0  0  0
   34.9430   30.2760   47.5930 C   0  0  0  0  0  0  0  0  0  0  0  0
   33.9030   29.3540   47.5850 C   0  0  0  0  0  0  0  0  0  0  0  0
   33.8790   28.4140   48.5740 C   0  0  0  0  0  0  0  0  0  0  0  0
   34.8680   28.3980   49.5380 C   0  0  0  0  0  0  0  0  0  0  0  0
   34.9890   31.0230   46.8340 H   0  0  0  0  0  0  0  0  0  0  0  0
   33.1040   27.6570   48.6440 H   0  0  0  0  0  0  0  0  0  0  0  0
   34.8480   27.6520   50.3180 H   0  0  0  0  0  0  0  0  0  0  0  0
   37.9580   33.1530   49.5040 C   0  0  0  0  0  0  0  0  0  0  0  0
   39.0100   33.1490   48.5380 C   0  0  0  0  0  0  0  0  0  0  0  0
   39.0000   32.1530   47.5790 C   0  0  0  0  0  0  0  0  0  0  0  0
   37.9950   31.2190   47.5900 N   0  0  0  0  0  0  0  0  0  0  0  0
   37.0150   31.2560   48.5240 C   0  0  0  0  0  0  0  0  0  0  0  0
   36.9970   32.2250   49.4810 N   0  0  0  0  0  0  0  0  0  0  0  0
   38.0000   33.9480   50.2390 H   0  0  0  0  0  0  0  0  0  0  0  0
   39.7780   33.9170   48.5820 H   0  0  0  0  0  0  0  0  0  0  0  0
   39.7840   32.1200   46.8300 H   0  0  0  0  0  0  0  0  0  0  0  0
   32.8540   29.3470   46.5890 C   0  0  0  0  0  0  0  0  0  0  0  0
   32.2480   28.2250   46.0830 C   0  0  0  0  0  0  0  0  0  0  0  0
   31.2440   28.2630   45.1270 C   0  0  0  0  0  0  0  0  0  0  0  0
   30.8360   29.4450   44.6640 N   0  0  0  0  0  0  0  0  0  0  0  0
   31.4150   30.5580   45.1420 C   0  0  0  0  0  0  0  0  0  0  0  0
   32.3820   30.5050   46.0660 N   0  0  0  0  0  0  0  0  0  0  0  0
   32.5770   27.2560   46.4600 H   0  0  0  0  0  0  0  0  0  0  0  0
   30.8100   27.3430   44.7730 H   0  0  0  0  0  0  0  0  0  0  0  0
   28.4640   31.4590   45.1610 O   0  0  0  0  0  0  0  0  0  0  0  0
   29.4650   31.9760   44.5720 C   0  0  0  0  0  0  0  0  0  0  0  0
   30.9430   31.8640   44.6100 C   0  0  2  0  0  3  0  0  0  0  0  0
   31.3410   31.9990   43.1530 C   0  0  0  0  0  3  0  0  0  0  0  0
   32.3400   32.4120   43.0130 H   0  0  0  0  0  0  0  0  0  0  0  0
   30.2620   32.8880   42.5420 C   0  0  0  0  0  3  0  0  0  0  0  0
   30.7260   33.8650   42.3340 H   0  0  0  0  0  0  0  0  0  0  0  0
   29.2190   32.9690   43.5560 N   0  0  0  0  0  0  0  0  0  0  0  0
   28.4700   33.7020   43.4180 H   0  0  0  0  0  0  0  0  0  0  0  0
  2  1  1  0  0  0  0
  3  2  2  0  0  0  0
  4  3  1  0  0  0  0
  5  4  2  0  0  0  0
  5  6  1  0  0  0  0
  6  9  1  0  0  0  0
  6  7  2  0  0  0  0
  7  2  1  0  0  0  0
  7 10  1  0  0  0  0
  8  4  1  0  0  0  0
 11 17  1  0  0  0  0
 12 18  1  0  0  0  0
 12 11  2  0  0  0  0
 13 14  2  0  0  0  0
 13 12  1  0  0  0  0
 14 15  1  0  0  0  0
 15  3  1  0  0  0  0
 15 16  2  0  0  0  0
 16 11  1  0  0  0  0
 19 13  1  0  0  0  0
 20  5  1  0  0  0  0
 21 26  1  0  0  0  0
 21 20  1  0  0  0  0
 22 21  2  0  0  0  0
 23 22  1  0  0  0  0
 23 24  2  0  0  0  0
 24 25  1  0  0  0  0
 25 20  2  0  0  0  0
 27 22  1  0  0  0  0
 29 30  1  0  0  0  0
 29 28  2  0  0  0  0
 30 24  1  6  0  0  0
 31 30  1  0  0  0  0
 32 31  1  0  0  0  0
 33 31  1  0  0  0  0
 33 35  1  0  0  0  0
 34 33  1  0  0  0  0
 35 29  1  0  0  0  0
 36 35  1  0  0  0  0
M  END
>  <minimizedAffinity>
-6.43922424

>  <minimizedRMSD>
0.389405608

$$$$
