REMARK  Name = 
REMARK  2 active torsions:
REMARK  status: ('A' for Active; 'I' for Inactive)
REMARK    1  A    between atoms: C_2  and  N_7
REMARK    2  A    between atoms: C_12  and  C_26
REMARK                            x       y       z     vdW  Elec       q    Type
REMARK                         _______ _______ _______ _____ _____    ______ ____
ROOT
ATOM      1  N   UNL     1      37.528  31.425  48.375  0.00  0.00    +0.000 N 
ATOM      2  C   UNL     1      37.317  31.138  46.962  0.00  0.00    +0.000 C 
ATOM      3  C   UNL     1      38.304  31.814  46.084  0.00  0.00    +0.000 C 
ATOM      4  N   UNL     1      39.493  32.113  46.803  0.00  0.00    +0.000 NA
ATOM      5  C   UNL     1      39.120  33.176  47.759  0.00  0.00    +0.000 C 
ATOM      6  C   UNL     1      38.469  32.416  48.877  0.00  0.00    +0.000 C 
ATOM      7  H   UNL     1      37.385  30.032  46.774  0.00  0.00    +0.000 HD
ATOM      8  H   UNL     1      36.302  31.422  46.628  0.00  0.00    +0.000 HD
ATOM      9  H   UNL     1      38.611  31.138  45.233  0.00  0.00    +0.000 HD
ATOM     10  H   UNL     1      37.889  32.734  45.644  0.00  0.00    +0.000 HD
ATOM     11  H   UNL     1      40.174  32.593  46.164  0.00  0.00    +0.000 HD
ATOM     12  H   UNL     1      40.037  33.640  48.149  0.00  0.00    +0.000 HD
ATOM     13  H   UNL     1      38.440  33.915  47.286  0.00  0.00    +0.000 HD
ATOM     14  H   UNL     1      39.268  31.839  49.390  0.00  0.00    +0.000 HD
ENDROOT
BRANCH   1  16
ATOM     15  C   UNL     1      37.369  30.256  50.534  0.00  0.00    +0.000 A 
ATOM     16  C   UNL     1      36.774  30.702  49.340  0.00  0.00    +0.000 A 
ATOM     17  C   UNL     1      35.412  30.430  49.121  0.00  0.00    +0.000 A 
ATOM     18  N   UNL     1      34.751  29.735  50.113  0.00  0.00    +0.000 NA
ATOM     19  C   UNL     1      35.379  29.332  51.244  0.00  0.00    +0.000 A 
ATOM     20  N   UNL     1      36.677  29.579  51.475  0.00  0.00    +0.000 NA
ATOM     21  H   UNL     1      38.410  30.447  50.732  0.00  0.00    +0.000 HD
ATOM     22  H   UNL     1      34.923  30.749  48.228  0.00  0.00    +0.000 HD
ATOM     23  H   UNL     1      34.646  28.812  51.858  0.00  0.00    +0.000 HD
ENDBRANCH   1  16
BRANCH   6  26
ATOM     24  O   UNL     1      37.984  31.646  51.953  0.00  0.00    +0.000 OA
ATOM     25  C   UNL     1      37.674  32.649  51.222  0.00  0.00    +0.000 C 
ATOM     26  C   UNL     1      37.844  33.310  49.910  0.00  0.00    +0.000 C 
ATOM     27  C   UNL     1      36.401  33.632  49.598  0.00  0.00    +0.000 C 
ATOM     28  H   UNL     1      35.871  32.662  49.531  0.00  0.00    +0.000 HD
ATOM     29  C   UNL     1      36.005  34.318  50.913  0.00  0.00    +0.000 C 
ATOM     30  H   UNL     1      36.349  35.360  50.928  0.00  0.00    +0.000 HD
ATOM     31  N   UNL     1      36.783  33.559  51.904  0.00  0.00    +0.000 N 
ATOM     32  H   UNL     1      36.516  33.851  52.888  0.00  0.00    +0.000 HD
ENDBRANCH   6  26
TORSDOF 2
