REMARK  Name = 
REMARK  4 active torsions:
REMARK  status: ('A' for Active; 'I' for Inactive)
REMARK    1  A    between atoms: C_2  and  C_12
REMARK    2  A    between atoms: C_6  and  O_16
REMARK    3  A    between atoms: O_16  and  C_18
REMARK    4  A    between atoms: C_22  and  C_39
REMARK                            x       y       z     vdW  Elec       q    Type
REMARK                         _______ _______ _______ _____ _____    ______ ____
ROOT
ATOM      1  O   UNL     1      39.465  33.557  43.238  0.00  0.00    +0.000 OA
ENDROOT
BRANCH   1   7
ATOM      2  C   UNL     1      36.248  30.182  46.863  0.00  0.00    +0.000 A 
ATOM      3  C   UNL     1      37.082  30.768  47.813  0.00  0.00    +0.000 A 
ATOM      4  C   UNL     1      38.061  31.686  47.439  0.00  0.00    +0.000 A 
ATOM      5  C   UNL     1      38.154  31.977  46.087  0.00  0.00    +0.000 A 
ATOM      6  N   UNL     1      39.027  32.834  45.483  0.00  0.00    +0.000 N 
ATOM      7  C   UNL     1      38.745  32.786  44.166  0.00  0.00    +0.000 A 
ATOM      8  N   UNL     1      37.754  31.952  43.936  0.00  0.00    +0.000 NA
ATOM      9  C   UNL     1      37.344  31.416  45.111  0.00  0.00    +0.000 A 
ATOM     10  C   UNL     1      36.368  30.496  45.516  0.00  0.00    +0.000 A 
ATOM     11  H   UNL     1      35.476  29.466  47.110  0.00  0.00    +0.000 HD
ATOM     12  H   UNL     1      38.692  32.128  48.171  0.00  0.00    +0.000 HD
ATOM     13  H   UNL     1      39.772  33.415  45.947  0.00  0.00    +0.000 HD
ATOM     14  H   UNL     1      35.748  30.071  44.749  0.00  0.00    +0.000 HD
BRANCH   3  17
ATOM     15  C   UNL     1      37.499  30.166  51.488  0.00  0.00    +0.000 A 
ATOM     16  C   UNL     1      37.791  30.604  50.210  0.00  0.00    +0.000 A 
ATOM     17  C   UNL     1      36.880  30.362  49.188  0.00  0.00    +0.000 A 
ATOM     18  N   UNL     1      35.738  29.699  49.510  0.00  0.00    +0.000 NA
ATOM     19  C   UNL     1      35.457  29.273  50.758  0.00  0.00    +0.000 A 
ATOM     20  N   UNL     1      36.335  29.509  51.731  0.00  0.00    +0.000 NA
ATOM     21  H   UNL     1      38.258  30.392  52.231  0.00  0.00    +0.000 HD
ATOM     22  H   UNL     1      38.710  31.137  49.956  0.00  0.00    +0.000 HD
ATOM     23  H   UNL     1      34.529  28.749  50.955  0.00  0.00    +0.000 HD
ENDBRANCH   3  17
ENDBRANCH   1   7
BRANCH   1  25
ATOM     24  N   UNL     1      39.559  31.855  41.722  0.00  0.00    +0.000 NA
ATOM     25  C   UNL     1      39.206  33.260  41.864  0.00  0.00    +0.000 C 
ATOM     26  C   UNL     1      37.801  33.451  41.523  0.00  0.00    +0.000 C 
ATOM     27  O   UNL     1      37.622  33.140  40.163  0.00  0.00    +0.000 OA
ATOM     28  C   UNL     1      38.061  31.907  39.784  0.00  0.00    +0.000 C 
ATOM     29  C   UNL     1      39.428  31.556  40.316  0.00  0.00    +0.000 C 
ATOM     30  H   UNL     1      40.536  31.748  42.015  0.00  0.00    +0.000 HD
ATOM     31  H   UNL     1      39.822  33.944  41.264  0.00  0.00    +0.000 HD
ATOM     32  H   UNL     1      37.600  34.566  41.547  0.00  0.00    +0.000 HD
ATOM     33  H   UNL     1      36.983  32.997  42.009  0.00  0.00    +0.000 HD
ATOM     34  H   UNL     1      38.050  31.849  38.702  0.00  0.00    +0.000 HD
ATOM     35  H   UNL     1      37.356  31.139  40.166  0.00  0.00    +0.000 HD
ATOM     36  H   UNL     1      39.526  30.451  40.235  0.00  0.00    +0.000 HD
BRANCH  29  39
ATOM     37  O   UNL     1      40.187  31.809  37.122  0.00  0.00    +0.000 OA
ATOM     38  C   UNL     1      40.014  32.451  38.186  0.00  0.00    +0.000 C 
ATOM     39  C   UNL     1      40.572  32.145  39.553  0.00  0.00    +0.000 C 
ATOM     40  C   UNL     1      40.900  33.545  39.992  0.00  0.00    +0.000 C 
ATOM     41  H   UNL     1      41.738  33.882  39.327  0.00  0.00    +0.000 HD
ATOM     42  C   UNL     1      39.691  34.316  39.552  0.00  0.00    +0.000 C 
ATOM     43  H   UNL     1      38.900  34.345  40.332  0.00  0.00    +0.000 HD
ATOM     44  N   UNL     1      39.237  33.635  38.345  0.00  0.00    +0.000 N 
ATOM     45  H   UNL     1      38.474  33.981  37.728  0.00  0.00    +0.000 HD
ENDBRANCH  29  39
ENDBRANCH   1  25
TORSDOF 4
