
 OpenBabel03272506203D

 44 47  0  0  1  0  0  0  0  0999 V2000
   35.6280   30.3690   48.3890 C   0  0  2  0  0  0  0  0  0  0  0  0
   36.6450   31.4200   47.9490 C   0  0  0  0  0  0  0  0  0  0  0  0
   38.0520   30.9620   48.0850 C   0  0  0  0  0  0  0  0  0  0  0  0
   38.3780   30.4750   49.4570 C   0  0  0  0  0  0  0  0  0  0  0  0
   37.3480   29.5660   50.0280 C   0  0  0  0  0  0  0  0  0  0  0  0
   36.2410   29.1970   49.0450 C   0  0  1  0  0  0  0  0  0  0  0  0
   34.8420   30.8380   49.0160 H   0  0  0  0  0  0  0  0  0  0  0  0
   36.5100   32.2880   48.6240 H   0  0  0  0  0  0  0  0  0  0  0  0
   36.4690   31.7880   46.9230 H   0  0  0  0  0  0  0  0  0  0  0  0
   38.7190   31.7640   47.7800 H   0  0  0  0  0  0  0  0  0  0  0  0
   38.2720   30.1030   47.3880 H   0  0  0  0  0  0  0  0  0  0  0  0
   39.3930   30.0140   49.4130 H   0  0  0  0  0  0  0  0  0  0  0  0
   38.4760   31.3810   50.0990 H   0  0  0  0  0  0  0  0  0  0  0  0
   36.9420   29.9830   50.9810 H   0  0  0  0  0  0  0  0  0  0  0  0
   37.8630   28.6150   50.2990 H   0  0  0  0  0  0  0  0  0  0  0  0
   36.6910   28.4760   48.3350 H   0  0  0  0  0  0  0  0  0  0  0  0
   34.8970   29.8830   47.1710 C   0  0  0  0  0  0  0  0  0  0  0  0
   33.6940   30.5350   46.8920 C   0  0  0  0  0  0  0  0  0  0  0  0
   32.9810   30.1020   45.7690 C   0  0  0  0  0  0  0  0  0  0  0  0
   33.4900   29.0650   44.9980 N   0  0  0  0  0  0  0  0  0  0  0  0
   34.6770   28.4610   45.3200 C   0  0  0  0  0  0  0  0  0  0  0  0
   35.3560   28.8690   46.3840 N   0  0  0  0  0  0  0  0  0  0  0  0
   31.7580   30.6950   45.3910 N   0  0  0  0  0  0  0  0  0  0  0  0
   31.6720   32.0250   45.0810 C   0  0  0  0  0  0  0  0  0  0  0  0
   30.4710   32.5870   44.7140 C   0  0  0  0  0  0  0  0  0  0  0  0
   29.3710   31.7750   44.6660 C   0  0  0  0  0  0  0  0  0  0  0  0
   28.2580   32.2840   44.3270 O   0  0  0  0  0  0  0  0  0  0  0  0
   29.4470   30.4560   44.9710 N   0  0  0  0  0  0  0  0  0  0  0  0
   30.6490   29.9660   45.3240 C   0  0  0  0  0  0  0  0  0  0  0  0
   30.6210   28.7220   45.5910 O   0  0  0  0  0  0  0  0  0  0  0  0
   33.2380   31.3340   47.4350 H   0  0  0  0  0  0  0  0  0  0  0  0
   35.0140   27.6620   44.6780 H   0  0  0  0  0  0  0  0  0  0  0  0
   32.5840   32.6290   45.1350 H   0  0  0  0  0  0  0  0  0  0  0  0
   30.4790   33.6450   44.4830 H   0  0  0  0  0  0  0  0  0  0  0  0
   28.5740   29.8860   44.9170 H   0  0  0  0  0  0  0  0  0  0  0  0
   33.9240   26.9830   48.2000 O   0  0  0  0  0  0  0  0  0  0  0  0
   34.0980   27.9250   49.0110 C   0  0  0  0  0  0  0  0  0  0  0  0
   35.2040   28.4480   49.8600 C   0  0  2  0  0  3  0  0  0  0  0  0
   34.5310   29.3190   50.8970 C   0  0  0  0  0  3  0  0  0  0  0  0
   35.1530   30.2340   51.1260 H   0  0  0  0  0  0  0  0  0  0  0  0
   33.1620   29.6680   50.3930 C   0  0  0  0  0  3  0  0  0  0  0  0
   32.3590   29.3710   51.1150 H   0  0  0  0  0  0  0  0  0  0  0  0
   32.9820   28.7810   49.2480 N   0  0  0  0  0  0  0  0  0  0  0  0
   32.0550   28.8840   48.7420 H   0  0  0  0  0  0  0  0  0  0  0  0
  1  7  1  1  0  0  0
  1  6  1  0  0  0  0
  2  3  1  0  0  0  0
  2  1  1  0  0  0  0
  2  8  1  0  0  0  0
  3  4  1  0  0  0  0
  4  5  1  0  0  0  0
  4 13  1  0  0  0  0
  5 15  1  0  0  0  0
  5 14  1  0  0  0  0
  6 16  1  6  0  0  0
  6 38  1  0  0  0  0
  6  5  1  0  0  0  0
  9  2  1  0  0  0  0
 10  3  1  0  0  0  0
 11  3  1  0  0  0  0
 12  4  1  0  0  0  0
 17  1  1  0  0  0  0
 18 17  1  0  0  0  0
 18 31  1  0  0  0  0
 19 18  2  0  0  0  0
 20 21  2  0  0  0  0
 20 19  1  0  0  0  0
 21 22  1  0  0  0  0
 22 17  2  0  0  0  0
 23 19  1  0  0  0  0
 24 33  1  0  0  0  0
 24 23  1  0  0  0  0
 25 24  2  0  0  0  0
 26 25  1  0  0  0  0
 26 28  1  0  0  0  0
 27 26  2  0  0  0  0
 28 29  1  0  0  0  0
 29 23  1  0  0  0  0
 29 30  2  0  0  0  0
 32 21  1  0  0  0  0
 34 25  1  0  0  0  0
 35 28  1  0  0  0  0
 36 37  2  0  0  0  0
 37 43  1  0  0  0  0
 38 37  1  6  0  0  0
 38 39  1  0  0  0  0
 39 40  1  0  0  0  0
 41 39  1  0  0  0  0
 41 42  1  0  0  0  0
 43 41  1  0  0  0  0
 44 43  1  0  0  0  0
M  END
>  <minimizedAffinity>
-4.72092962

>  <minimizedRMSD>
2.12627721

$$$$
