REMARK  Name = 
REMARK  3 active torsions:
REMARK  status: ('A' for Active; 'I' for Inactive)
REMARK    1  A    between atoms: C_1  and  C_14
REMARK    2  A    between atoms: C_2  and  C_8
REMARK    3  A    between atoms: C_11  and  C_27
REMARK                            x       y       z     vdW  Elec       q    Type
REMARK                         _______ _______ _______ _____ _____    ______ ____
ROOT
ATOM      1  C   UNL     1      38.076  30.226  50.017  0.00  0.00    +0.000 A 
ATOM      2  C   UNL     1      37.494  31.368  49.435  0.00  0.00    +0.000 A 
ATOM      3  C   UNL     1      36.097  31.403  49.381  0.00  0.00    +0.000 A 
ATOM      4  N   UNL     1      35.383  30.366  49.878  0.00  0.00    +0.000 NA
ATOM      5  C   UNL     1      35.986  29.287  50.429  0.00  0.00    +0.000 A 
ATOM      6  N   UNL     1      37.327  29.224  50.495  0.00  0.00    +0.000 NA
ATOM      7  H   UNL     1      39.161  30.176  50.070  0.00  0.00    +0.000 HD
ATOM      8  H   UNL     1      35.655  32.262  48.943  0.00  0.00    +0.000 HD
ENDROOT
BRANCH   2  10
ATOM      9  C   UNL     1      38.736  32.325  47.606  0.00  0.00    +0.000 A 
ATOM     10  C   UNL     1      38.379  32.407  48.941  0.00  0.00    +0.000 A 
ATOM     11  C   UNL     1      38.833  33.412  49.758  0.00  0.00    +0.000 A 
ATOM     12  C   UNL     1      39.671  34.383  49.262  0.00  0.00    +0.000 A 
ATOM     13  C   UNL     1      40.036  34.315  47.934  0.00  0.00    +0.000 A 
ATOM     14  C   UNL     1      39.587  33.306  47.095  0.00  0.00    +0.000 A 
ATOM     15  H   UNL     1      38.536  33.443  50.783  0.00  0.00    +0.000 HD
ATOM     16  H   UNL     1      40.068  35.201  49.839  0.00  0.00    +0.000 HD
ATOM     17  H   UNL     1      40.698  35.059  47.492  0.00  0.00    +0.000 HD
ATOM     18  H   UNL     1      39.912  33.305  46.046  0.00  0.00    +0.000 HD
BRANCH   9  20
ATOM     19  N   UNL     1      39.129  30.340  46.311  0.00  0.00    +0.000 NA
ATOM     20  C   UNL     1      38.327  31.314  46.633  0.00  0.00    +0.000 C 
ATOM     21  N   UNL     1      37.080  31.247  45.940  0.00  0.00    +0.000 N 
ATOM     22  H   UNL     1      40.067  30.234  46.702  0.00  0.00    +0.000 HD
ATOM     23  H   UNL     1      36.118  30.808  46.044  0.00  0.00    +0.000 HD
ATOM     24  H   UNL     1      36.768  31.680  45.022  0.00  0.00    +0.000 HD
ENDBRANCH   9  20
ENDBRANCH   2  10
BRANCH   5  27
ATOM     25  O   UNL     1      34.189  29.340  52.563  0.00  0.00    +0.000 OA
ATOM     26  C   UNL     1      34.013  28.473  51.654  0.00  0.00    +0.000 C 
ATOM     27  C   UNL     1      35.274  28.121  50.990  0.00  0.00    +0.000 C 
ATOM     28  C   UNL     1      34.797  27.165  49.892  0.00  0.00    +0.000 C 
ATOM     29  H   UNL     1      34.415  27.696  49.001  0.00  0.00    +0.000 HD
ATOM     30  C   UNL     1      33.600  26.538  50.579  0.00  0.00    +0.000 C 
ATOM     31  H   UNL     1      32.978  25.957  49.889  0.00  0.00    +0.000 HD
ATOM     32  N   UNL     1      32.923  27.738  51.092  0.00  0.00    +0.000 N 
ATOM     33  H   UNL     1      31.977  28.214  51.184  0.00  0.00    +0.000 HD
ENDBRANCH   5  27
TORSDOF 3
