
     RDKit          3D

 36 38  0  0  0  0  0  0  0  0999 V2000
   38.8736   32.3472   47.5390 C   0  0  0  0  0  0  0  0  0  0  0  0
   38.3292   31.1101   47.3251 C   0  0  0  0  0  0  0  0  0  0  0  0
   38.7781   30.4065   46.2373 C   0  0  0  0  0  0  0  0  0  0  0  0
   39.7166   30.8933   45.3984 C   0  0  0  0  0  0  0  0  0  0  0  0
   40.2904   32.1416   45.5828 C   0  0  0  0  0  0  0  0  0  0  0  0
   39.8440   32.8454   46.6676 C   0  0  0  0  0  0  0  0  0  0  0  0
   36.8498   29.3171   50.2379 C   0  0  0  0  0  0  0  0  0  0  0  0
   37.7619   29.8344   49.2980 C   0  0  0  0  0  0  0  0  0  0  0  0
   37.3281   30.6223   48.2404 C   0  0  0  0  0  0  0  0  0  0  0  0
   35.9880   30.8205   48.2269 N   0  0  0  0  0  0  0  0  0  0  0  0
   35.1114   30.3387   49.1080 C   0  0  0  0  0  0  0  0  0  0  0  0
   35.5482   29.5773   50.1263 N   0  0  0  0  0  0  0  0  0  0  0  0
   39.3575   34.2976   48.8449 N   0  0  0  0  0  0  0  0  0  0  0  0
   38.5787   33.2701   48.5978 C   0  0  0  0  0  0  0  0  0  0  0  0
   37.6553   33.5514   49.6234 N   0  0  0  0  0  0  0  0  0  0  0  0
   39.1274   34.9684   49.6132 H   0  0  0  0  0  0  0  0  0  0  0  0
   38.3395   29.4239   46.0755 H   0  0  0  0  0  0  0  0  0  0  0  0
   40.0074   30.2636   44.5663 H   0  0  0  0  0  0  0  0  0  0  0  0
   41.0393   32.4900   44.8838 H   0  0  0  0  0  0  0  0  0  0  0  0
   40.3336   33.8138   46.7525 H   0  0  0  0  0  0  0  0  0  0  0  0
   37.2772   28.7123   51.0304 H   0  0  0  0  0  0  0  0  0  0  0  0
   38.8040   29.6107   49.4097 H   0  0  0  0  0  0  0  0  0  0  0  0
   37.7325   33.0754   50.5550 H   0  0  0  0  0  0  0  0  0  0  0  0
   36.8542   34.1894   49.6278 H   0  0  0  0  0  0  0  0  0  0  0  0
   33.5303   31.4428   51.0732 O   0  0  0  0  0  0  0  0  0  0  0  0
   32.9495   30.6463   50.2631 C   0  0  0  0  0  0  0  0  0  0  0  0
   33.6626   30.6587   48.9395 C   0  0  2  0  0  0  0  0  0  0  0  0
   32.9420   29.5640   48.1885 C   0  0  1  0  0  0  0  0  0  0  0  0
   32.1665   30.0078   47.5359 H   0  0  0  0  0  0  0  0  0  0  0  0
   32.2358   28.7606   49.2601 C   0  0  2  0  0  0  0  0  0  0  0  0
   32.9509   28.0351   49.6964 H   0  0  0  0  0  0  0  0  0  0  0  0
   31.8391   29.7554   50.2317 N   0  0  0  0  0  0  0  0  0  0  0  0
   33.5571   31.6571   48.4460 H   0  0  0  0  0  0  0  0  0  0  0  0
   33.6662   28.9339   47.6297 H   0  0  0  0  0  0  0  0  0  0  0  0
   31.3906   28.1906   48.8504 H   0  0  0  0  0  0  0  0  0  0  0  0
   31.0688   30.0528   50.8951 H   0  0  0  0  0  0  0  0  0  0  0  0
  1 14  1  0
  2  1  2  0
  2  9  1  0
  3  2  1  0
  4  5  1  0
  4  3  2  0
  5  6  2  0
  6  1  1  0
  8  7  2  0
  9  8  1  0
 10  9  2  0
 10 11  1  0
 11 12  2  0
 12  7  1  0
 13 16  1  0
 14 13  2  0
 14 15  1  0
  3 17  1  0
  4 18  1  0
  5 19  1  0
  6 20  1  0
  7 21  1  0
  8 22  1  0
 15 23  1  0
 15 24  1  0
 25 26  2  0
 26 27  1  0
 27 28  1  0
 28 29  1  6
 28 30  1  0
 30 31  1  1
 30 32  1  0
 32 26  1  0
 27 33  1  6
 28 34  1  0
 30 35  1  0
 32 36  1  0
 11 27  1  0
M  ISO  8  17  14  18  14  19  14  20  14  21  14  22  14  29   8  31   8
M  END
>  <DihAtoms>  (1) 
9,10,26,25

>  <DihDeg>  (1) 
57.69162087576942

$$$$
