REMARK  Name = 
REMARK  6 active torsions:
REMARK  status: ('A' for Active; 'I' for Inactive)
REMARK    1  A    between atoms: P_2  and  O_3
REMARK    2  A    between atoms: P_2  and  O_4
REMARK    3  A    between atoms: P_2  and  O_11
REMARK    4  A    between atoms: O_4  and  C_7
REMARK    5  A    between atoms: O_11  and  C_14
REMARK    6  A    between atoms: C_18  and  C_28
REMARK                            x       y       z     vdW  Elec       q    Type
REMARK                         _______ _______ _______ _____ _____    ______ ____
ROOT
ATOM      1 CL   UNL     1      36.623  29.443  44.043  0.00  0.00    +0.000 Cl
ATOM      2  C   UNL     1      38.253  29.826  43.481  0.00  0.00    +0.000 A 
ATOM      3  C   UNL     1      39.272  30.305  44.315  0.00  0.00    +0.000 A 
ATOM      4  C   UNL     1      40.507  30.566  43.745  0.00  0.00    +0.000 A 
ATOM      5  C   UNL     1      40.712  30.357  42.391  0.00  0.00    +0.000 A 
ATOM      6  C   UNL     1      39.737  29.895  41.569  0.00  0.00    +0.000 A 
ATOM      7  C   UNL     1      38.525  29.637  42.126  0.00  0.00    +0.000 A 
ATOM      8  H   UNL     1      41.230  30.926  44.438  0.00  0.00    +0.000 HD
ATOM      9  H   UNL     1      41.711  30.589  42.030  0.00  0.00    +0.000 HD
ATOM     10  H   UNL     1      39.967  29.754  40.519  0.00  0.00    +0.000 HD
ENDROOT
BRANCH   7  13
ATOM     11  O   UNL     1      38.055  26.839  41.164  0.00  0.00    +0.000 OA
ATOM     12  C   UNL     1      37.854  27.898  40.513  0.00  0.00    +0.000 C 
ATOM     13  C   UNL     1      37.429  29.123  41.228  0.00  0.00    +0.000 C 
ATOM     14  C   UNL     1      37.202  30.177  40.161  0.00  0.00    +0.000 C 
ATOM     15  H   UNL     1      36.117  30.198  39.868  0.00  0.00    +0.000 HD
ATOM     16  C   UNL     1      38.057  29.659  39.028  0.00  0.00    +0.000 C 
ATOM     17  H   UNL     1      37.739  30.065  38.051  0.00  0.00    +0.000 HD
ATOM     18  N   UNL     1      37.950  28.218  39.111  0.00  0.00    +0.000 N 
ATOM     19  H   UNL     1      37.930  27.419  38.411  0.00  0.00    +0.000 HD
ENDBRANCH   7  13
BRANCH   3  20
ATOM     20  O   UNL     1      38.865  30.442  45.619  0.00  0.00    +0.000 OA
BRANCH  20  22
ATOM     21  O   UNL     1      39.443  32.483  47.099  0.00  0.00    +0.000 OA
ATOM     22  P   UNL     1      38.309  31.813  46.407  0.00  0.00    +0.000 P 
BRANCH  22  23
ATOM     23  O   UNL     1      37.722  32.847  45.172  0.00  0.00    +0.000 OA
ATOM     24  H   UNL     1      36.917  32.394  44.816  0.00  0.00    +0.000 HD
ENDBRANCH  22  23
BRANCH  22  25
ATOM     25  O   UNL     1      37.032  31.394  47.440  0.00  0.00    +0.000 OA
BRANCH  25  28
ATOM     26  C   UNL     1      37.605  30.537  50.974  0.00  0.00    +0.000 A 
ATOM     27  C   UNL     1      37.700  31.303  49.810  0.00  0.00    +0.000 A 
ATOM     28  C   UNL     1      37.072  30.835  48.650  0.00  0.00    +0.000 A 
ATOM     29  N   UNL     1      36.396  29.645  48.725  0.00  0.00    +0.000 NA
ATOM     30  C   UNL     1      36.330  28.939  49.869  0.00  0.00    +0.000 A 
ATOM     31  N   UNL     1      36.937  29.393  50.989  0.00  0.00    +0.000 NA
ATOM     32  H   UNL     1      38.123  30.995  51.791  0.00  0.00    +0.000 HD
ATOM     33  H   UNL     1      38.196  32.239  49.630  0.00  0.00    +0.000 HD
ATOM     34  H   UNL     1      35.795  27.994  49.939  0.00  0.00    +0.000 HD
ENDBRANCH  25  28
ENDBRANCH  22  25
ENDBRANCH  20  22
ENDBRANCH   3  20
TORSDOF 6
