
 OpenBabel03272510193D

 36 39  0  0  1  0  0  0  0  0999 V2000
   37.3330   29.3200   51.0190 Br  0  0  0  0  0  0  0  0  0  0  0  0
   35.9740   29.3390   49.6780 C   0  0  0  0  0  0  0  0  0  0  0  0
   35.9960   30.2780   48.6600 C   0  0  0  0  0  0  0  0  0  0  0  0
   34.9870   30.2430   47.7200 C   0  0  0  0  0  0  0  0  0  0  0  0
   33.9600   29.3080   47.7560 C   0  0  0  0  0  0  0  0  0  0  0  0
   33.9650   28.3960   48.7720 C   0  0  0  0  0  0  0  0  0  0  0  0
   34.9700   28.4210   49.7190 C   0  0  0  0  0  0  0  0  0  0  0  0
   35.0100   30.9680   46.9390 H   0  0  0  0  0  0  0  0  0  0  0  0
   33.2020   27.6310   48.8760 H   0  0  0  0  0  0  0  0  0  0  0  0
   34.9720   27.6980   50.5210 H   0  0  0  0  0  0  0  0  0  0  0  0
   37.9980   33.2080   49.5020 C   0  0  0  0  0  0  0  0  0  0  0  0
   39.0290   33.1960   48.5150 C   0  0  0  0  0  0  0  0  0  0  0  0
   39.0110   32.1780   47.5790 C   0  0  0  0  0  0  0  0  0  0  0  0
   38.0190   31.2310   47.6330 N   0  0  0  0  0  0  0  0  0  0  0  0
   37.0600   31.2780   48.5870 C   0  0  0  0  0  0  0  0  0  0  0  0
   37.0490   32.2680   49.5230 N   0  0  0  0  0  0  0  0  0  0  0  0
   38.0450   34.0210   50.2180 H   0  0  0  0  0  0  0  0  0  0  0  0
   39.7880   33.9740   48.5240 H   0  0  0  0  0  0  0  0  0  0  0  0
   39.7800   32.1380   46.8140 H   0  0  0  0  0  0  0  0  0  0  0  0
   32.8940   29.2580   46.7780 C   0  0  0  0  0  0  0  0  0  0  0  0
   31.8200   28.4060   46.8180 C   0  0  0  0  0  0  0  0  0  0  0  0
   30.8200   28.3900   45.8590 C   0  0  0  0  0  0  0  0  0  0  0  0
   30.8910   29.2430   44.8360 N   0  0  0  0  0  0  0  0  0  0  0  0
   31.9330   30.0870   44.7730 C   0  0  0  0  0  0  0  0  0  0  0  0
   32.8910   30.0900   45.7080 N   0  0  0  0  0  0  0  0  0  0  0  0
   31.7570   27.7070   47.6540 H   0  0  0  0  0  0  0  0  0  0  0  0
   30.0020   27.6950   45.9500 H   0  0  0  0  0  0  0  0  0  0  0  0
   31.5780   33.1400   45.0320 O   0  0  0  0  0  0  0  0  0  0  0  0
   31.6100   32.4150   43.9880 C   0  0  0  0  0  0  0  0  0  0  0  0
   31.9910   31.0280   43.6230 C   0  0  2  0  0  3  0  0  0  0  0  0
   30.9520   30.6420   42.5900 C   0  0  0  0  0  3  0  0  0  0  0  0
   31.3070   29.8980   41.8760 H   0  0  0  0  0  0  0  0  0  0  0  0
   30.5770   31.9560   41.9120 C   0  0  0  0  0  3  0  0  0  0  0  0
   31.0020   31.9310   40.8960 H   0  0  0  0  0  0  0  0  0  0  0  0
   31.1760   32.9930   42.7410 N   0  0  0  0  0  0  0  0  0  0  0  0
   31.2100   33.9710   42.3400 H   0  0  0  0  0  0  0  0  0  0  0  0
  2  7  1  0  0  0  0
  2  1  1  0  0  0  0
  3  2  2  0  0  0  0
  4  5  2  0  0  0  0
  4  3  1  0  0  0  0
  5  6  1  0  0  0  0
  6  9  1  0  0  0  0
  6  7  2  0  0  0  0
  7 10  1  0  0  0  0
  8  4  1  0  0  0  0
 11 16  1  0  0  0  0
 11 17  1  0  0  0  0
 12 18  1  0  0  0  0
 12 11  2  0  0  0  0
 13 14  2  0  0  0  0
 13 12  1  0  0  0  0
 14 15  1  0  0  0  0
 15  3  1  0  0  0  0
 15 16  2  0  0  0  0
 19 13  1  0  0  0  0
 20 21  1  0  0  0  0
 20  5  1  0  0  0  0
 21 26  1  0  0  0  0
 22 27  1  0  0  0  0
 22 21  2  0  0  0  0
 23 22  1  0  0  0  0
 24 23  2  0  0  0  0
 24 25  1  0  0  0  0
 25 20  2  0  0  0  0
 29 28  2  0  0  0  0
 30 29  1  0  0  0  0
 30 24  1  1  0  0  0
 31 30  1  0  0  0  0
 32 31  1  0  0  0  0
 33 31  1  0  0  0  0
 33 35  1  0  0  0  0
 34 33  1  0  0  0  0
 35 29  1  0  0  0  0
 36 35  1  0  0  0  0
M  END
>  <minimizedAffinity>
-6.24732733

>  <minimizedRMSD>
1.14607573

$$$$
