
     RDKit          3D

 43 46  0  0  0  0  0  0  0  0999 V2000
   35.1102   29.6331   47.5594 C   0  0  0  0  0  0  0  0  0  0  0  0
   35.2831   30.0478   46.2482 C   0  0  0  0  0  0  0  0  0  0  0  0
   34.2593   29.8984   45.3282 C   0  0  0  0  0  0  0  0  0  0  0  0
   33.0985   29.3344   45.7705 N   0  0  0  0  0  0  0  0  0  0  0  0
   32.9580   28.9388   47.0569 C   0  0  0  0  0  0  0  0  0  0  0  0
   33.9500   29.0832   47.9496 N   0  0  0  0  0  0  0  0  0  0  0  0
   36.1254   29.7587   48.5568 N   0  0  0  0  0  0  0  0  0  0  0  0
   36.1792   28.8983   49.7315 C   0  0  0  0  0  0  0  0  0  0  0  0
   36.4718   29.6032   51.0138 C   0  0  0  0  0  0  0  0  0  0  0  0
   37.2201   30.7921   50.9512 N   0  0  0  0  0  0  0  0  0  0  0  0
   36.9710   31.5902   49.7607 C   0  0  0  0  0  0  0  0  0  0  0  0
   37.2007   30.6884   48.5823 C   0  0  0  0  0  0  0  0  0  0  0  0
   31.6857   28.3420   47.4616 C   0  0  0  0  0  0  0  0  0  0  0  0
   31.6445   27.4334   48.5019 C   0  0  0  0  0  0  0  0  0  0  0  0
   30.4783   26.8311   48.9367 C   0  0  0  0  0  0  0  0  0  0  0  0
   29.3577   27.1876   48.2741 N   0  0  0  0  0  0  0  0  0  0  0  0
   29.4036   28.0750   47.2593 C   0  0  0  0  0  0  0  0  0  0  0  0
   30.5429   28.6593   46.8393 N   0  0  0  0  0  0  0  0  0  0  0  0
   36.2362   30.4786   46.0062 H   0  0  0  0  0  0  0  0  0  0  0  0
   34.4018   30.2236   44.3097 H   0  0  0  0  0  0  0  0  0  0  0  0
   36.9573   28.1152   49.5128 H   0  0  0  0  0  0  0  0  0  0  0  0
   35.2126   28.3394   49.7909 H   0  0  0  0  0  0  0  0  0  0  0  0
   35.4946   29.7699   51.5380 H   0  0  0  0  0  0  0  0  0  0  0  0
   37.0203   28.8743   51.6780 H   0  0  0  0  0  0  0  0  0  0  0  0
   38.2306   30.7373   51.2004 H   0  0  0  0  0  0  0  0  0  0  0  0
   35.9624   32.0074   49.7614 H   0  0  0  0  0  0  0  0  0  0  0  0
   37.7763   32.3641   49.7552 H   0  0  0  0  0  0  0  0  0  0  0  0
   38.1655   30.1525   48.6862 H   0  0  0  0  0  0  0  0  0  0  0  0
   37.2202   31.2648   47.6508 H   0  0  0  0  0  0  0  0  0  0  0  0
   32.5679   27.1746   49.0076 H   0  0  0  0  0  0  0  0  0  0  0  0
   30.5107   26.1280   49.7562 H   0  0  0  0  0  0  0  0  0  0  0  0
   29.0836   30.5179   45.4707 O   0  0  0  0  0  0  0  0  0  0  0  0
   28.1760   29.8443   46.0510 C   0  0  0  0  0  0  0  0  0  0  0  0
   28.1575   28.4545   46.5421 C   0  0  2  0  0  0  0  0  0  0  0  0
   26.9513   28.4662   47.4747 C   0  0  2  0  0  0  0  0  0  0  0  0
   27.2591   28.9453   48.4056 H   0  0  0  0  0  0  0  0  0  0  0  0
   26.0033   29.3704   46.6970 C   0  0  1  0  0  0  0  0  0  0  0  0
   25.6525   28.8168   45.8131 H   0  0  0  0  0  0  0  0  0  0  0  0
   26.9178   30.4503   46.3190 N   0  0  0  0  0  0  0  0  0  0  0  0
   27.9683   27.7782   45.6712 H   0  0  0  0  0  0  0  0  0  0  0  0
   26.5495   27.4432   47.5753 H   0  0  0  0  0  0  0  0  0  0  0  0
   25.2204   29.7113   47.3741 H   0  0  0  0  0  0  0  0  0  0  0  0
   26.6175   31.4646   46.2782 H   0  0  0  0  0  0  0  0  0  0  0  0
  1  6  1  0
  1  7  1  0
  2  1  2  0
  3  4  2  0
  3  2  1  0
  4  5  1  0
  5 13  1  0
  5  6  2  0
  7 12  1  0
  7  8  1  0
  8  9  1  0
 10  9  1  0
 11 10  1  0
 12 11  1  0
 13 14  2  0
 14 15  1  0
 16 15  2  0
 17 16  1  0
 18 17  2  0
 18 13  1  0
  2 19  1  0
  3 20  1  0
  8 21  1  0
  8 22  1  0
  9 23  1  0
  9 24  1  0
 10 25  1  0
 11 26  1  0
 11 27  1  0
 12 28  1  0
 12 29  1  0
 14 30  1  0
 15 31  1  0
 32 33  2  0
 33 34  1  0
 34 35  1  0
 35 36  1  1
 35 37  1  0
 37 38  1  6
 37 39  1  0
 39 33  1  0
 34 40  1  6
 35 41  1  0
 37 42  1  0
 39 43  1  0
 17 34  1  0
M  ISO  8  19  14  20  14  21  13  22  13  23  13  24  13  25   5  26  13
M  ISO  7  27  13  28  13  29  13  30  14  31  14  36   8  38   8
M  END
>  <DihAtoms>  (1) 
15,16,33,32

>  <DihDeg>  (1) 
-121.99496737814736

$$$$
