
 OpenBabel03272508113D

 34 36  0  0  1  0  0  0  0  0999 V2000
   36.7160   29.4200   44.0260 Cl  0  0  0  0  0  0  0  0  0  0  0  0
   38.3760   29.8150   43.5670 C   0  0  0  0  0  0  0  0  0  0  0  0
   39.3340   30.3110   44.4610 C   0  0  0  0  0  0  0  0  0  0  0  0
   40.6010   30.5800   43.9700 C   0  0  0  0  0  0  0  0  0  0  0  0
   40.8950   30.3620   42.6340 C   0  0  0  0  0  0  0  0  0  0  0  0
   39.9800   29.8830   41.7550 C   0  0  0  0  0  0  0  0  0  0  0  0
   38.7370   29.6180   42.2340 C   0  0  0  0  0  0  0  0  0  0  0  0
   41.2740   30.9530   44.7050 H   0  0  0  0  0  0  0  0  0  0  0  0
   41.9130   30.6010   42.3360 H   0  0  0  0  0  0  0  0  0  0  0  0
   40.2790   29.7360   40.7230 H   0  0  0  0  0  0  0  0  0  0  0  0
   38.7920   27.0710   40.6580 O   0  0  0  0  0  0  0  0  0  0  0  0
   38.3220   28.1750   40.2790 C   0  0  0  0  0  0  0  0  0  0  0  0
   37.7060   29.0850   41.2720 C   0  0  2  0  0  3  0  0  0  0  0  0
   37.1790   30.2710   40.4880 C   0  0  0  0  0  3  0  0  0  0  0  0
   36.0950   30.1150   40.2380 H   0  0  0  0  0  0  0  0  0  0  0  0
   38.0320   30.2220   39.2420 C   0  0  0  0  0  3  0  0  0  0  0  0
   37.5600   30.7530   38.3960 H   0  0  0  0  0  0  0  0  0  0  0  0
   38.2370   28.8130   38.9890 N   0  0  0  0  0  0  0  0  0  0  0  0
   38.3310   28.2040   38.1220 H   0  0  0  0  0  0  0  0  0  0  0  0
   38.8420   30.4550   45.7350 O   0  0  0  0  0  0  0  0  0  0  0  0
   39.3980   32.5260   47.1810 O   0  0  0  0  0  0  0  0  0  0  0  0
   38.2730   31.8390   46.4910 P   0  0  1  0  0  0  0  0  0  0  0  0
   37.6940   32.8470   45.2310 O   0  0  0  0  0  0  0  0  0  0  0  0
   36.8950   32.3840   44.8750 H   0  0  0  0  0  0  0  0  0  0  0  0
   36.9880   31.4350   47.5190 O   0  0  0  0  0  0  0  0  0  0  0  0
   37.5050   30.5320   51.0500 C   0  0  0  0  0  0  0  0  0  0  0  0
   37.6050   31.3200   49.9020 C   0  0  0  0  0  0  0  0  0  0  0  0
   37.0160   30.8560   48.7200 C   0  0  0  0  0  0  0  0  0  0  0  0
   36.3710   29.6470   48.7600 N   0  0  0  0  0  0  0  0  0  0  0  0
   36.2980   28.9200   49.8900 C   0  0  0  0  0  0  0  0  0  0  0  0
   36.8680   29.3700   51.0310 N   0  0  0  0  0  0  0  0  0  0  0  0
   37.9920   30.9890   51.8870 H   0  0  0  0  0  0  0  0  0  0  0  0
   38.0790   32.2720   49.7490 H   0  0  0  0  0  0  0  0  0  0  0  0
   35.7880   27.9600   49.9320 H   0  0  0  0  0  0  0  0  0  0  0  0
  2  1  1  0  0  0  0
  2  3  1  0  0  0  0
  3 20  1  0  0  0  0
  4  3  2  0  0  0  0
  4  8  1  0  0  0  0
  5  4  1  0  0  0  0
  6  7  1  0  0  0  0
  6  5  2  0  0  0  0
  7  2  2  0  0  0  0
  9  5  1  0  0  0  0
 10  6  1  0  0  0  0
 12 11  2  0  0  0  0
 12 13  1  0  0  0  0
 13  7  1  1  0  0  0
 14 13  1  0  0  0  0
 15 14  1  0  0  0  0
 16 14  1  0  0  0  0
 17 16  1  0  0  0  0
 18 16  1  0  0  0  0
 18 12  1  0  0  0  0
 19 18  1  0  0  0  0
 20 22  1  0  0  0  0
 22 21  2  1  0  0  0
 22 25  1  0  0  0  0
 23 22  1  0  0  0  0
 24 23  1  0  0  0  0
 25 28  1  0  0  0  0
 26 32  1  0  0  0  0
 27 26  2  0  0  0  0
 28 29  2  0  0  0  0
 28 27  1  0  0  0  0
 29 30  1  0  0  0  0
 30 34  1  0  0  0  0
 30 31  2  0  0  0  0
 31 26  1  0  0  0  0
 33 27  1  0  0  0  0
M  END
>  <minimizedAffinity>
-4.92477798

>  <minimizedRMSD>
0.221917748

$$$$
