
 OpenBabel03272510263D

 45 49  0  0  1  0  0  0  0  0999 V2000
   39.2470   33.3930   43.0320 O   0  0  0  0  0  0  0  0  0  0  0  0
   36.0550   30.2300   46.8640 C   0  0  0  0  0  0  0  0  0  0  0  0
   36.9840   30.7590   47.7570 C   0  0  0  0  0  0  0  0  0  0  0  0
   37.9950   31.6120   47.3190 C   0  0  0  0  0  0  0  0  0  0  0  0
   38.0200   31.8980   45.9630 C   0  0  0  0  0  0  0  0  0  0  0  0
   38.9070   32.6970   45.3020 N   0  0  0  0  0  0  0  0  0  0  0  0
   38.5390   32.6690   44.0060 C   0  0  0  0  0  0  0  0  0  0  0  0
   37.4830   31.9020   43.8420 N   0  0  0  0  0  0  0  0  0  0  0  0
   37.1150   31.3920   45.0420 C   0  0  0  0  0  0  0  0  0  0  0  0
   36.1090   30.5370   45.5110 C   0  0  0  0  0  0  0  0  0  0  0  0
   35.2550   29.5650   47.1620 H   0  0  0  0  0  0  0  0  0  0  0  0
   38.6990   32.0110   48.0080 H   0  0  0  0  0  0  0  0  0  0  0  0
   39.7160   33.2280   45.7160 H   0  0  0  0  0  0  0  0  0  0  0  0
   35.4150   30.1540   44.7870 H   0  0  0  0  0  0  0  0  0  0  0  0
   37.5590   30.2030   51.4180 C   0  0  0  0  0  0  0  0  0  0  0  0
   37.7930   30.6310   50.1250 C   0  0  0  0  0  0  0  0  0  0  0  0
   36.8440   30.3650   49.1440 C   0  0  0  0  0  0  0  0  0  0  0  0
   35.7260   29.6900   49.5190 N   0  0  0  0  0  0  0  0  0  0  0  0
   35.5020   29.2740   50.7820 C   0  0  0  0  0  0  0  0  0  0  0  0
   36.4160   29.5330   51.7160 N   0  0  0  0  0  0  0  0  0  0  0  0
   38.3450   30.4470   52.1270 H   0  0  0  0  0  0  0  0  0  0  0  0
   38.6930   31.1730   49.8280 H   0  0  0  0  0  0  0  0  0  0  0  0
   34.5900   28.7400   51.0220 H   0  0  0  0  0  0  0  0  0  0  0  0
   39.0100   31.3690   42.0070 N   0  0  0  0  0  0  0  0  0  0  0  0
   39.3460   32.7620   41.7530 C   0  0  1  0  0  0  0  0  0  0  0  0
   38.4040   33.3280   40.7950 C   0  0  0  0  0  0  0  0  0  0  0  0
   38.5560   32.6610   39.5660 O   0  0  0  0  0  0  0  0  0  0  0  0
   38.4500   31.3040   39.6220 C   0  0  0  0  0  0  0  0  0  0  0  0
   39.2220   30.6780   40.7570 C   0  0  1  0  0  0  0  0  0  0  0  0
   39.6590   31.0160   42.7180 H   0  0  0  0  0  0  0  0  0  0  0  0
   40.3710   32.9220   41.3920 H   0  0  0  0  0  0  0  0  0  0  0  0
   38.7640   34.3750   40.5500 H   0  0  0  0  0  0  0  0  0  0  0  0
   37.3610   33.4030   40.9280 H   0  0  0  0  0  0  0  0  0  0  0  0
   38.7690   30.8880   38.6740 H   0  0  0  0  0  0  0  0  0  0  0  0
   37.3840   31.0300   39.7640 H   0  0  0  0  0  0  0  0  0  0  0  0
   38.8020   29.6590   40.9030 H   0  0  0  0  0  0  0  0  0  0  0  0
   41.7450   29.4890   42.5080 O   0  0  0  0  0  0  0  0  0  0  0  0
   41.1150   29.3930   41.4270 C   0  0  0  0  0  0  0  0  0  0  0  0
   40.6870   30.5060   40.5040 C   0  0  1  0  0  3  0  0  0  0  0  0
   40.9710   29.8400   39.1860 C   0  0  0  0  0  3  0  0  0  0  0  0
   42.0860   29.7370   39.1330 H   0  0  0  0  0  0  0  0  0  0  0  0
   40.4390   28.4550   39.4000 C   0  0  0  0  0  3  0  0  0  0  0  0
   39.3670   28.3640   39.1200 H   0  0  0  0  0  0  0  0  0  0  0  0
   40.6540   28.1900   40.8170 N   0  0  0  0  0  0  0  0  0  0  0  0
   40.4890   27.2700   41.2750 H   0  0  0  0  0  0  0  0  0  0  0  0
  1  7  1  0  0  0  0
  2 11  1  0  0  0  0
  2  3  1  0  0  0  0
  3 17  1  0  0  0  0
  4  3  2  0  0  0  0
  4 12  1  0  0  0  0
  5  4  1  0  0  0  0
  6 13  1  0  0  0  0
  6  5  1  0  0  0  0
  7  6  1  0  0  0  0
  8  7  2  0  0  0  0
  8  9  1  0  0  0  0
  9 10  1  0  0  0  0
  9  5  2  0  0  0  0
 10  2  2  0  0  0  0
 14 10  1  0  0  0  0
 15 20  1  0  0  0  0
 15 21  1  0  0  0  0
 16 15  2  0  0  0  0
 17 18  2  0  0  0  0
 17 16  1  0  0  0  0
 18 19  1  0  0  0  0
 19 23  1  0  0  0  0
 19 20  2  0  0  0  0
 22 16  1  0  0  0  0
 24 30  1  0  0  0  0
 25 31  1  6  0  0  0
 25 24  1  0  0  0  0
 25  1  1  0  0  0  0
 26 33  1  0  0  0  0
 26 25  1  0  0  0  0
 27 28  1  0  0  0  0
 27 26  1  0  0  0  0
 28 35  1  0  0  0  0
 28 29  1  0  0  0  0
 29 36  1  1  0  0  0
 29 24  1  0  0  0  0
 32 26  1  0  0  0  0
 34 28  1  0  0  0  0
 38 37  2  0  0  0  0
 39 40  1  6  0  0  0
 39 29  1  0  0  0  0
 39 38  1  0  0  0  0
 40 42  1  0  0  0  0
 41 40  1  0  0  0  0
 42 44  1  0  0  0  0
 43 42  1  0  0  0  0
 44 45  1  0  0  0  0
 44 38  1  0  0  0  0
M  END
>  <minimizedAffinity>
-6.00459146

>  <minimizedRMSD>
2.16860485

$$$$
