
 OpenBabel03262523583D

 28 30  0  0  1  0  0  0  0  0999 V2000
   35.6500   30.6950   48.3270 C   0  0  0  0  0  0  0  0  0  0  0  0
   36.6510   30.7750   47.3310 C   0  0  0  0  0  0  0  0  0  0  0  0
   36.3060   30.3320   46.0430 C   0  0  0  0  0  0  0  0  0  0  0  0
   35.0450   29.8550   45.8120 N   0  0  0  0  0  0  0  0  0  0  0  0
   34.1250   29.8060   46.8200 C   0  0  0  0  0  0  0  0  0  0  0  0
   34.4260   30.2210   48.0600 N   0  0  0  0  0  0  0  0  0  0  0  0
   35.8410   31.0150   49.3380 H   0  0  0  0  0  0  0  0  0  0  0  0
   37.0510   30.3830   45.2690 H   0  0  0  0  0  0  0  0  0  0  0  0
   33.7440   26.8080   47.6690 Br  0  0  0  0  0  0  0  0  0  0  0  0
   32.4480   27.9880   46.9000 C   0  0  0  0  0  0  0  0  0  0  0  0
   32.7750   29.2950   46.5770 C   0  0  0  0  0  0  0  0  0  0  0  0
   31.7840   30.0680   46.0310 C   0  0  0  0  0  0  0  0  0  0  0  0
   30.5010   29.6360   45.7850 C   0  0  0  0  0  0  0  0  0  0  0  0
   30.2090   28.3360   46.1150 C   0  0  0  0  0  0  0  0  0  0  0  0
   31.1820   27.5200   46.6690 C   0  0  0  0  0  0  0  0  0  0  0  0
   32.0200   31.1000   45.7700 H   0  0  0  0  0  0  0  0  0  0  0  0
   29.7270   30.2530   45.3540 H   0  0  0  0  0  0  0  0  0  0  0  0
   29.2250   27.9360   45.9480 H   0  0  0  0  0  0  0  0  0  0  0  0
   30.9010   26.4920   46.9170 H   0  0  0  0  0  0  0  0  0  0  0  0
   38.2390   32.5690   45.5140 O   0  0  0  0  0  0  0  0  0  0  0  0
   38.4830   32.3320   46.7460 C   0  0  0  0  0  0  0  0  0  0  0  0
   37.9900   31.3070   47.6760 C   0  0  1  0  0  0  0  0  0  0  0  0
   38.0320   31.9840   49.0030 C   0  0  0  0  0  0  0  0  0  0  0  0
   36.9870   32.2290   49.3210 H   0  0  0  0  0  0  0  0  0  0  0  0
   38.8850   33.2260   48.8740 C   0  0  0  0  0  0  0  0  0  0  0  0
   39.6910   33.2420   49.6300 H   0  0  0  0  0  0  0  0  0  0  0  0
   39.4020   33.1490   47.5020 N   0  0  0  0  0  0  0  0  0  0  0  0
   40.2940   33.6210   47.1660 H   0  0  0  0  0  0  0  0  0  0  0  0
  1  7  1  0  0  0  0
  2  1  2  0  0  0  0
  3  2  1  0  0  0  0
  4  3  2  0  0  0  0
  4  5  1  0  0  0  0
  5  6  2  0  0  0  0
  6  1  1  0  0  0  0
  8  3  1  0  0  0  0
 10  9  1  0  0  0  0
 11  5  1  0  0  0  0
 11 10  2  0  0  0  0
 12 11  1  0  0  0  0
 13 12  2  0  0  0  0
 13 14  1  0  0  0  0
 14 15  2  0  0  0  0
 15 10  1  0  0  0  0
 15 19  1  0  0  0  0
 16 12  1  0  0  0  0
 17 13  1  0  0  0  0
 18 14  1  0  0  0  0
 20 21  2  0  0  0  0
 21 27  1  0  0  0  0
 21 22  1  0  0  0  0
 22  2  1  6  0  0  0
 22 23  1  0  0  0  0
 23 24  1  0  0  0  0
 25 23  1  0  0  0  0
 25 26  1  0  0  0  0
 27 25  1  0  0  0  0
 28 27  1  0  0  0  0
M  END
>  <minimizedAffinity>
-5.25037241

>  <minimizedRMSD>
3.98310804

$$$$
