REMARK  Name = 
REMARK  3 active torsions:
REMARK  status: ('A' for Active; 'I' for Inactive)
REMARK    1  A    between atoms: C_1  and  C_8
REMARK    2  A    between atoms: C_4  and  C_13
REMARK    3  A    between atoms: C_18  and  C_38
REMARK                            x       y       z     vdW  Elec       q    Type
REMARK                         _______ _______ _______ _____ _____    ______ ____
ROOT
ATOM      1  C   UNL     1      34.642  30.348  48.264  0.00  0.00    +0.000 C 
ATOM      2  C   UNL     1      33.660  30.231  47.215  0.00  0.00    +0.000 C 
ATOM      3  C   UNL     1      33.449  28.847  46.644  0.00  0.00    +0.000 C 
ATOM      4  C   UNL     1      33.424  27.743  47.574  0.00  0.00    +0.000 C 
ATOM      5  C   UNL     1      34.445  27.839  48.716  0.00  0.00    +0.000 C 
ATOM      6  C   UNL     1      34.488  29.228  49.279  0.00  0.00    +0.000 C 
ATOM      7  H   UNL     1      34.389  31.255  48.901  0.00  0.00    +0.000 HD
ATOM      8  H   UNL     1      33.771  30.892  46.352  0.00  0.00    +0.000 HD
ATOM      9  H   UNL     1      32.654  30.510  47.640  0.00  0.00    +0.000 HD
ATOM     10  H   UNL     1      34.419  28.730  46.048  0.00  0.00    +0.000 HD
ATOM     11  H   UNL     1      32.565  28.877  45.991  0.00  0.00    +0.000 HD
ATOM     12  H   UNL     1      32.491  27.602  48.156  0.00  0.00    +0.000 HD
ATOM     13  H   UNL     1      34.370  27.202  49.535  0.00  0.00    +0.000 HD
ATOM     14  H   UNL     1      35.447  27.672  48.221  0.00  0.00    +0.000 HD
ATOM     15  H   UNL     1      33.574  29.412  49.888  0.00  0.00    +0.000 HD
ATOM     16  H   UNL     1      35.353  29.287  49.968  0.00  0.00    +0.000 HD
ENDROOT
BRANCH   4  17
ATOM     17  C   UNL     1      33.784  26.509  46.838  0.00  0.00    +0.000 A 
ATOM     18  C   UNL     1      34.072  26.609  45.461  0.00  0.00    +0.000 A 
ATOM     19  C   UNL     1      34.414  25.496  44.717  0.00  0.00    +0.000 A 
ATOM     20  C   UNL     1      34.468  24.309  45.340  0.00  0.00    +0.000 A 
ATOM     21  C   UNL     1      34.188  24.174  46.681  0.00  0.00    +0.000 A 
ATOM     22  C   UNL     1      33.839  25.288  47.430  0.00  0.00    +0.000 A 
ATOM     23  H   UNL     1      34.055  27.473  44.809  0.00  0.00    +0.000 HD
ATOM     24  H   UNL     1      34.645  25.494  43.667  0.00  0.00    +0.000 HD
ATOM     25  H   UNL     1      34.743  23.390  44.787  0.00  0.00    +0.000 HD
ATOM     26  H   UNL     1      34.262  23.158  47.106  0.00  0.00    +0.000 HD
BRANCH  22  29
ATOM     27  O   UNL     1      33.729  22.661  48.267  0.00  0.00    +0.000 OA
ATOM     28  C   UNL     1      33.099  23.560  48.919  0.00  0.00    +0.000 C 
ATOM     29  C   UNL     1      33.419  24.971  48.797  0.00  0.00    +0.000 C 
ATOM     30  C   UNL     1      32.020  25.616  49.071  0.00  0.00    +0.000 C 
ATOM     31  H   UNL     1      32.106  26.531  49.663  0.00  0.00    +0.000 HD
ATOM     32  C   UNL     1      31.248  24.574  49.792  0.00  0.00    +0.000 C 
ATOM     33  H   UNL     1      30.958  24.867  50.822  0.00  0.00    +0.000 HD
ATOM     34  N   UNL     1      32.046  23.374  49.818  0.00  0.00    +0.000 N 
ATOM     35  H   UNL     1      31.858  22.540  50.400  0.00  0.00    +0.000 HD
ENDBRANCH  22  29
ENDBRANCH   4  17
BRANCH   1  37
ATOM     36  C   UNL     1      36.472  30.562  46.577  0.00  0.00    +0.000 A 
ATOM     37  C   UNL     1      36.043  30.593  47.897  0.00  0.00    +0.000 A 
ATOM     38  C   UNL     1      36.997  30.866  48.881  0.00  0.00    +0.000 A 
ATOM     39  N   UNL     1      38.292  31.087  48.497  0.00  0.00    +0.000 NA
ATOM     40  C   UNL     1      38.669  31.047  47.198  0.00  0.00    +0.000 A 
ATOM     41  N   UNL     1      37.745  30.782  46.231  0.00  0.00    +0.000 NA
ATOM     42  H   UNL     1      35.897  30.392  45.708  0.00  0.00    +0.000 HD
ATOM     43  H   UNL     1      36.737  30.906  49.925  0.00  0.00    +0.000 HD
ATOM     44  H   UNL     1      39.716  31.241  47.057  0.00  0.00    +0.000 HD
ENDBRANCH   1  37
TORSDOF 3
