
 OpenBabel03272510263D

 45 49  0  0  1  0  0  0  0  0999 V2000
   37.3660   32.8210   42.8950 O   0  0  0  0  0  0  0  0  0  0  0  0
   32.7190   29.4670   44.3210 C   0  0  0  0  0  0  0  0  0  0  0  0
   33.5490   29.1340   45.3900 C   0  0  0  0  0  0  0  0  0  0  0  0
   34.8190   29.6930   45.5120 C   0  0  0  0  0  0  0  0  0  0  0  0
   35.2020   30.5850   44.5230 C   0  0  0  0  0  0  0  0  0  0  0  0
   36.3870   31.2530   44.4250 N   0  0  0  0  0  0  0  0  0  0  0  0
   36.3030   31.9980   43.3050 C   0  0  0  0  0  0  0  0  0  0  0  0
   35.1390   31.8210   42.7190 N   0  0  0  0  0  0  0  0  0  0  0  0
   34.4060   30.9430   43.4450 C   0  0  0  0  0  0  0  0  0  0  0  0
   33.1330   30.3650   43.3470 C   0  0  0  0  0  0  0  0  0  0  0  0
   31.7270   29.0570   44.1890 H   0  0  0  0  0  0  0  0  0  0  0  0
   35.4450   29.4330   46.3310 H   0  0  0  0  0  0  0  0  0  0  0  0
   37.2050   31.2000   45.0860 H   0  0  0  0  0  0  0  0  0  0  0  0
   32.5290   30.6530   42.5080 H   0  0  0  0  0  0  0  0  0  0  0  0
   33.0680   26.1500   47.6050 C   0  0  0  0  0  0  0  0  0  0  0  0
   33.6640   26.9940   46.6870 C   0  0  0  0  0  0  0  0  0  0  0  0
   33.0230   28.1790   46.3430 C   0  0  0  0  0  0  0  0  0  0  0  0
   31.8300   28.4420   46.9380 N   0  0  0  0  0  0  0  0  0  0  0  0
   31.2520   27.6160   47.8330 C   0  0  0  0  0  0  0  0  0  0  0  0
   31.8730   26.4840   48.1580 N   0  0  0  0  0  0  0  0  0  0  0  0
   33.6290   25.2460   47.8230 H   0  0  0  0  0  0  0  0  0  0  0  0
   34.6230   26.7780   46.2110 H   0  0  0  0  0  0  0  0  0  0  0  0
   30.2990   27.8800   48.2760 H   0  0  0  0  0  0  0  0  0  0  0  0
   37.9170   30.8040   41.9850 N   0  0  0  0  0  0  0  0  0  0  0  0
   38.4060   32.1620   42.1700 C   0  0  1  0  0  0  0  0  0  0  0  0
   38.6380   32.7820   40.8700 C   0  0  0  0  0  0  0  0  0  0  0  0
   39.6690   32.0830   40.2160 O   0  0  0  0  0  0  0  0  0  0  0  0
   39.4780   30.7390   40.0970 C   0  0  0  0  0  0  0  0  0  0  0  0
   38.9990   30.0770   41.3650 C   0  0  1  0  0  0  0  0  0  0  0  0
   37.7190   30.4150   42.9130 H   0  0  0  0  0  0  0  0  0  0  0  0
   39.3200   32.2360   42.7760 H   0  0  0  0  0  0  0  0  0  0  0  0
   39.1130   33.7930   41.0630 H   0  0  0  0  0  0  0  0  0  0  0  0
   37.9100   32.9400   40.1250 H   0  0  0  0  0  0  0  0  0  0  0  0
   40.4000   30.2840   39.7570 H   0  0  0  0  0  0  0  0  0  0  0  0
   38.7070   30.5510   39.3200 H   0  0  0  0  0  0  0  0  0  0  0  0
   38.5680   29.0960   41.0670 H   0  0  0  0  0  0  0  0  0  0  0  0
   39.0630   29.7270   44.6380 O   0  0  0  0  0  0  0  0  0  0  0  0
   39.3490   29.1810   43.5460 C   0  0  0  0  0  0  0  0  0  0  0  0
   40.0700   29.7870   42.3680 C   0  0  1  0  0  3  0  0  0  0  0  0
   40.9210   28.6090   41.9810 C   0  0  0  0  0  3  0  0  0  0  0  0
   41.6520   28.4750   42.8220 H   0  0  0  0  0  0  0  0  0  0  0  0
   39.9590   27.4640   42.0870 C   0  0  0  0  0  3  0  0  0  0  0  0
   39.4150   27.2780   41.1350 H   0  0  0  0  0  0  0  0  0  0  0  0
   39.0510   27.8400   43.1650 N   0  0  0  0  0  0  0  0  0  0  0  0
   38.3230   27.2140   43.5640 H   0  0  0  0  0  0  0  0  0  0  0  0
  1  7  1  0  0  0  0
  2  3  1  0  0  0  0
  3  4  2  0  0  0  0
  3 17  1  0  0  0  0
  4 12  1  0  0  0  0
  5  4  1  0  0  0  0
  6  5  1  0  0  0  0
  6 13  1  0  0  0  0
  7  6  1  0  0  0  0
  8  7  2  0  0  0  0
  8  9  1  0  0  0  0
  9  5  2  0  0  0  0
 10  9  1  0  0  0  0
 10  2  2  0  0  0  0
 11  2  1  0  0  0  0
 14 10  1  0  0  0  0
 15 21  1  0  0  0  0
 15 20  1  0  0  0  0
 16 15  2  0  0  0  0
 17 16  1  0  0  0  0
 17 18  2  0  0  0  0
 18 19  1  0  0  0  0
 19 20  2  0  0  0  0
 19 23  1  0  0  0  0
 22 16  1  0  0  0  0
 24 25  1  0  0  0  0
 24 30  1  0  0  0  0
 25 31  1  1  0  0  0
 25  1  1  0  0  0  0
 26 32  1  0  0  0  0
 26 25  1  0  0  0  0
 27 26  1  0  0  0  0
 28 27  1  0  0  0  0
 28 29  1  0  0  0  0
 29 36  1  6  0  0  0
 29 24  1  0  0  0  0
 29 39  1  0  0  0  0
 33 26  1  0  0  0  0
 34 28  1  0  0  0  0
 35 28  1  0  0  0  0
 38 37  2  0  0  0  0
 39 40  1  6  0  0  0
 39 38  1  0  0  0  0
 40 42  1  0  0  0  0
 40 41  1  0  0  0  0
 42 44  1  0  0  0  0
 43 42  1  0  0  0  0
 44 38  1  0  0  0  0
 44 45  1  0  0  0  0
M  END
>  <minimizedAffinity>
-4.30613995

>  <minimizedRMSD>
4.70228291

$$$$
