
 OpenBabel03272501473D

 47 51  0  0  1  0  0  0  0  0999 V2000
   36.0510   28.6700   34.1970 C   0  0  0  0  0  0  0  0  0  0  0  0
   35.1260   28.4590   34.7440 H   0  0  0  0  0  0  0  0  0  0  0  0
   36.4860   29.6410   34.5180 H   0  0  0  0  0  0  0  0  0  0  0  0
   35.7440   28.6760   32.7290 C   0  0  1  0  0  0  0  0  0  0  0  0
   34.3430   29.2800   32.5950 C   0  0  0  0  0  0  0  0  0  0  0  0
   34.4640   30.4810   31.6990 C   0  0  0  0  0  0  0  0  0  0  0  0
   35.8780   30.9100   31.8850 C   0  0  0  0  0  0  0  0  0  0  0  0
   36.6060   29.5810   31.9190 C   0  0  2  0  0  0  0  0  0  0  0  0
   35.7560   27.6650   32.2920 H   0  0  0  0  0  0  0  0  0  0  0  0
   33.8640   29.4830   33.5550 H   0  0  0  0  0  0  0  0  0  0  0  0
   33.6990   28.5520   32.0460 H   0  0  0  0  0  0  0  0  0  0  0  0
   33.8040   31.3100   32.0610 H   0  0  0  0  0  0  0  0  0  0  0  0
   34.2950   30.2650   30.6260 H   0  0  0  0  0  0  0  0  0  0  0  0
   36.0540   31.3760   32.8800 H   0  0  0  0  0  0  0  0  0  0  0  0
   36.2600   31.5470   31.0540 H   0  0  0  0  0  0  0  0  0  0  0  0
   37.6090   29.7560   32.3740 H   0  0  0  0  0  0  0  0  0  0  0  0
   38.4360   27.1430   31.1490 O   0  0  0  0  0  0  0  0  0  0  0  0
   37.7940   28.0040   30.4580 C   0  0  0  0  0  0  0  0  0  0  0  0
   36.7620   29.0440   30.5250 C   0  0  2  0  0  3  0  0  0  0  0  0
   37.2270   30.0610   29.5340 C   0  0  0  0  0  3  0  0  0  0  0  0
   37.9870   30.7270   29.9400 H   0  0  0  0  0  0  0  0  0  0  0  0
   37.7230   29.1740   28.4040 C   0  0  0  0  0  3  0  0  0  0  0  0
   36.8350   28.8700   27.7770 H   0  0  0  0  0  0  0  0  0  0  0  0
   38.2110   27.9790   29.0770 N   0  0  0  0  0  0  0  0  0  0  0  0
   38.7570   27.3440   28.4560 H   0  0  0  0  0  0  0  0  0  0  0  0
   38.8070   26.7910   35.8130 C   0  0  0  0  0  0  0  0  0  0  0  0
   38.7580   25.5560   35.1540 C   0  0  0  0  0  0  0  0  0  0  0  0
   37.7840   25.3930   34.1710 C   0  0  0  0  0  0  0  0  0  0  0  0
   36.9450   26.4140   33.9020 N   0  0  0  0  0  0  0  0  0  0  0  0
   37.0240   27.6050   34.5680 C   0  0  0  0  0  0  0  0  0  0  0  0
   37.9510   27.7690   35.5080 N   0  0  0  0  0  0  0  0  0  0  0  0
   39.5310   26.9920   36.5850 H   0  0  0  0  0  0  0  0  0  0  0  0
   37.7750   24.4430   33.6900 H   0  0  0  0  0  0  0  0  0  0  0  0
   40.9980   24.6440   35.0210 C   0  0  0  0  0  0  0  0  0  0  0  0
   39.7400   24.5810   35.5780 C   0  0  0  0  0  0  0  0  0  0  0  0
   39.5160   23.5770   36.5100 C   0  0  0  0  0  0  0  0  0  0  0  0
   40.5540   22.6980   36.8310 C   0  0  0  0  0  0  0  0  0  0  0  0
   40.6190   21.6600   37.6750 N   0  0  0  0  0  0  0  0  0  0  0  0
   41.8270   21.1250   37.6400 C   0  0  0  0  0  0  0  0  0  0  0  0
   42.5750   21.8210   36.7580 N   0  0  0  0  0  0  0  0  0  0  0  0
   41.7900   22.7960   36.2550 C   0  0  0  0  0  0  0  0  0  0  0  0
   42.0200   23.7850   35.3330 C   0  0  0  0  0  0  0  0  0  0  0  0
   41.2410   25.4020   34.2890 H   0  0  0  0  0  0  0  0  0  0  0  0
   38.5420   23.5180   36.9490 H   0  0  0  0  0  0  0  0  0  0  0  0
   39.8310   21.3360   38.2620 H   0  0  0  0  0  0  0  0  0  0  0  0
   42.1390   20.2650   38.2360 H   0  0  0  0  0  0  0  0  0  0  0  0
   43.0030   23.8490   34.8850 H   0  0  0  0  0  0  0  0  0  0  0  0
  1  3  1  0  0  0  0
  1 30  1  0  0  0  0
  1  2  1  0  0  0  0
  4  9  1  6  0  0  0
  4  1  1  0  0  0  0
  5  4  1  0  0  0  0
  5 10  1  0  0  0  0
  6  7  1  0  0  0  0
  6 12  1  0  0  0  0
  6  5  1  0  0  0  0
  7  8  1  0  0  0  0
  7 14  1  0  0  0  0
  8 16  1  1  0  0  0
  8  4  1  0  0  0  0
 11  5  1  0  0  0  0
 13  6  1  0  0  0  0
 15  7  1  0  0  0  0
 18 19  1  0  0  0  0
 18 17  2  0  0  0  0
 19 20  1  6  0  0  0
 19  8  1  0  0  0  0
 20 21  1  0  0  0  0
 22 24  1  0  0  0  0
 22 20  1  0  0  0  0
 23 22  1  0  0  0  0
 24 18  1  0  0  0  0
 25 24  1  0  0  0  0
 26 32  1  0  0  0  0
 27 35  1  0  0  0  0
 27 26  2  0  0  0  0
 28 27  1  0  0  0  0
 29 28  2  0  0  0  0
 29 30  1  0  0  0  0
 30 31  2  0  0  0  0
 31 26  1  0  0  0  0
 33 28  1  0  0  0  0
 34 42  2  0  0  0  0
 34 35  1  0  0  0  0
 35 36  2  0  0  0  0
 36 37  1  0  0  0  0
 36 44  1  0  0  0  0
 37 38  1  0  0  0  0
 38 45  1  0  0  0  0
 39 38  1  0  0  0  0
 39 46  1  0  0  0  0
 40 39  2  0  0  0  0
 41 40  1  0  0  0  0
 41 37  2  0  0  0  0
 42 41  1  0  0  0  0
 43 34  1  0  0  0  0
 47 42  1  0  0  0  0
M  END
>  <minimizedAffinity>
-6.51595068

$$$$

 OpenBabel03272501473D

 47 51  0  0  1  0  0  0  0  0999 V2000
   37.8190   24.4490   33.2000 C   0  0  0  0  0  0  0  0  0  0  0  0
   36.7950   24.2490   33.5340 H   0  0  0  0  0  0  0  0  0  0  0  0
   38.2070   23.6050   32.5900 H   0  0  0  0  0  0  0  0  0  0  0  0
   38.6770   24.6810   34.4070 C   0  0  1  0  0  0  0  0  0  0  0  0
   39.3580   26.0350   34.1860 C   0  0  0  0  0  0  0  0  0  0  0  0
   38.9830   26.9130   35.3470 C   0  0  0  0  0  0  0  0  0  0  0  0
   37.6790   26.3520   35.7980 C   0  0  0  0  0  0  0  0  0  0  0  0
   37.9230   24.8610   35.6790 C   0  0  2  0  0  0  0  0  0  0  0  0
   39.4410   23.8980   34.5370 H   0  0  0  0  0  0  0  0  0  0  0  0
   39.1470   26.4730   33.2070 H   0  0  0  0  0  0  0  0  0  0  0  0
   40.4620   25.8880   34.2560 H   0  0  0  0  0  0  0  0  0  0  0  0
   38.8040   27.9640   35.0050 H   0  0  0  0  0  0  0  0  0  0  0  0
   39.6990   26.8760   36.1920 H   0  0  0  0  0  0  0  0  0  0  0  0
   36.8500   26.5800   35.0920 H   0  0  0  0  0  0  0  0  0  0  0  0
   37.4190   26.6260   36.8470 H   0  0  0  0  0  0  0  0  0  0  0  0
   36.9290   24.3550   35.6750 H   0  0  0  0  0  0  0  0  0  0  0  0
   39.1670   21.9820   35.9030 O   0  0  0  0  0  0  0  0  0  0  0  0
   39.0530   22.9490   36.7280 C   0  0  0  0  0  0  0  0  0  0  0  0
   38.7390   24.3780   36.8430 C   0  0  2  0  0  3  0  0  0  0  0  0
   38.0360   24.4770   38.1570 C   0  0  0  0  0  3  0  0  0  0  0  0
   36.9830   24.2050   38.0920 H   0  0  0  0  0  0  0  0  0  0  0  0
   38.8650   23.5320   39.0130 C   0  0  0  0  0  3  0  0  0  0  0  0
   39.7730   24.0920   39.3810 H   0  0  0  0  0  0  0  0  0  0  0  0
   39.3270   22.5170   38.0770 N   0  0  0  0  0  0  0  0  0  0  0  0
   39.7590   21.6890   38.5410 H   0  0  0  0  0  0  0  0  0  0  0  0
   36.8080   27.6500   31.6260 C   0  0  0  0  0  0  0  0  0  0  0  0
   37.7530   27.7940   30.6020 C   0  0  0  0  0  0  0  0  0  0  0  0
   38.7140   26.7950   30.4720 C   0  0  0  0  0  0  0  0  0  0  0  0
   38.6940   25.7480   31.3240 N   0  0  0  0  0  0  0  0  0  0  0  0
   37.7550   25.6430   32.3110 C   0  0  0  0  0  0  0  0  0  0  0  0
   36.8340   26.5940   32.4430 N   0  0  0  0  0  0  0  0  0  0  0  0
   36.0350   28.3810   31.7890 H   0  0  0  0  0  0  0  0  0  0  0  0
   39.4160   26.9350   29.6830 H   0  0  0  0  0  0  0  0  0  0  0  0
   36.9840   30.0760   30.3400 C   0  0  0  0  0  0  0  0  0  0  0  0
   37.6160   28.9830   29.7880 C   0  0  0  0  0  0  0  0  0  0  0  0
   38.0730   29.1150   28.4840 C   0  0  0  0  0  0  0  0  0  0  0  0
   37.8750   30.3220   27.8090 C   0  0  0  0  0  0  0  0  0  0  0  0
   38.2030   30.7210   26.5730 N   0  0  0  0  0  0  0  0  0  0  0  0
   37.8040   31.9650   26.3790 C   0  0  0  0  0  0  0  0  0  0  0  0
   37.2010   32.3990   27.5060 N   0  0  0  0  0  0  0  0  0  0  0  0
   37.2430   31.3840   28.3940 C   0  0  0  0  0  0  0  0  0  0  0  0
   36.7880   31.2620   29.6820 C   0  0  0  0  0  0  0  0  0  0  0  0
   36.6050   30.0430   31.3510 H   0  0  0  0  0  0  0  0  0  0  0  0
   38.5650   28.2720   28.0450 H   0  0  0  0  0  0  0  0  0  0  0  0
   38.6980   30.1300   25.8820 H   0  0  0  0  0  0  0  0  0  0  0  0
   37.9510   32.5240   25.4530 H   0  0  0  0  0  0  0  0  0  0  0  0
   36.2890   32.1110   30.1310 H   0  0  0  0  0  0  0  0  0  0  0  0
  1  2  1  0  0  0  0
  1  4  1  0  0  0  0
  3  1  1  0  0  0  0
  4  9  1  1  0  0  0
  4  8  1  0  0  0  0
  5 11  1  0  0  0  0
  5  4  1  0  0  0  0
  5  6  1  0  0  0  0
  6  7  1  0  0  0  0
  6 13  1  0  0  0  0
  7 15  1  0  0  0  0
  8 16  1  6  0  0  0
  8  7  1  0  0  0  0
  8 19  1  0  0  0  0
 10  5  1  0  0  0  0
 12  6  1  0  0  0  0
 14  7  1  0  0  0  0
 17 18  2  0  0  0  0
 18 24  1  0  0  0  0
 19 18  1  6  0  0  0
 19 20  1  0  0  0  0
 20 22  1  0  0  0  0
 21 20  1  0  0  0  0
 22 23  1  0  0  0  0
 24 25  1  0  0  0  0
 24 22  1  0  0  0  0
 26 32  1  0  0  0  0
 26 31  1  0  0  0  0
 27 26  2  0  0  0  0
 28 27  1  0  0  0  0
 28 29  2  0  0  0  0
 29 30  1  0  0  0  0
 30 31  2  0  0  0  0
 30  1  1  0  0  0  0
 33 28  1  0  0  0  0
 34 43  1  0  0  0  0
 35 34  1  0  0  0  0
 35 27  1  0  0  0  0
 36 35  2  0  0  0  0
 37 41  2  0  0  0  0
 37 36  1  0  0  0  0
 38 37  1  0  0  0  0
 39 38  1  0  0  0  0
 39 40  2  0  0  0  0
 40 41  1  0  0  0  0
 41 42  1  0  0  0  0
 42 47  1  0  0  0  0
 42 34  2  0  0  0  0
 44 36  1  0  0  0  0
 45 38  1  0  0  0  0
 46 39  1  0  0  0  0
M  END
>  <minimizedAffinity>
-6.33398008

$$$$

 OpenBabel03272501473D

 47 51  0  0  1  0  0  0  0  0999 V2000
   40.5830   24.7300   35.0800 C   0  0  0  0  0  0  0  0  0  0  0  0
   41.2980   24.6570   34.2520 H   0  0  0  0  0  0  0  0  0  0  0  0
   41.0690   25.1590   35.9830 H   0  0  0  0  0  0  0  0  0  0  0  0
   40.0390   23.3620   35.3590 C   0  0  1  0  0  0  0  0  0  0  0  0
   40.9290   22.7710   36.4570 C   0  0  0  0  0  0  0  0  0  0  0  0
   40.0330   22.4250   37.6140 C   0  0  0  0  0  0  0  0  0  0  0  0
   38.8870   23.3630   37.4560 C   0  0  0  0  0  0  0  0  0  0  0  0
   38.6740   23.3470   35.9560 C   0  0  2  0  0  0  0  0  0  0  0  0
   40.0620   22.7100   34.4720 H   0  0  0  0  0  0  0  0  0  0  0  0
   41.7750   23.4090   36.7210 H   0  0  0  0  0  0  0  0  0  0  0  0
   41.3420   21.8010   36.0890 H   0  0  0  0  0  0  0  0  0  0  0  0
   40.5370   22.6590   38.5860 H   0  0  0  0  0  0  0  0  0  0  0  0
   39.6490   21.3860   37.5940 H   0  0  0  0  0  0  0  0  0  0  0  0
   39.1580   24.4120   37.7120 H   0  0  0  0  0  0  0  0  0  0  0  0
   37.9660   23.0300   37.9890 H   0  0  0  0  0  0  0  0  0  0  0  0
   38.0690   24.2450   35.6910 H   0  0  0  0  0  0  0  0  0  0  0  0
   37.6880   22.7300   33.0350 O   0  0  0  0  0  0  0  0  0  0  0  0
   37.4830   22.1650   34.1620 C   0  0  0  0  0  0  0  0  0  0  0  0
   37.9420   22.0990   35.5540 C   0  0  2  0  0  3  0  0  0  0  0  0
   36.6850   21.8610   36.3250 C   0  0  0  0  0  3  0  0  0  0  0  0
   36.1230   22.7760   36.5070 H   0  0  0  0  0  0  0  0  0  0  0  0
   35.9670   20.8640   35.4280 C   0  0  0  0  0  3  0  0  0  0  0  0
   36.3750   19.8350   35.6450 H   0  0  0  0  0  0  0  0  0  0  0  0
   36.3900   21.2270   34.0830 N   0  0  0  0  0  0  0  0  0  0  0  0
   35.8410   20.7550   33.3330 H   0  0  0  0  0  0  0  0  0  0  0  0
   38.0230   27.4110   35.0580 C   0  0  0  0  0  0  0  0  0  0  0  0
   37.5770   27.3910   33.7300 C   0  0  0  0  0  0  0  0  0  0  0  0
   38.1610   26.4620   32.8720 C   0  0  0  0  0  0  0  0  0  0  0  0
   39.1150   25.6360   33.3490 N   0  0  0  0  0  0  0  0  0  0  0  0
   39.5240   25.6860   34.6520 C   0  0  0  0  0  0  0  0  0  0  0  0
   38.9720   26.5700   35.4780 N   0  0  0  0  0  0  0  0  0  0  0  0
   37.6200   28.1010   35.7800 H   0  0  0  0  0  0  0  0  0  0  0  0
   37.7980   26.4740   31.8710 H   0  0  0  0  0  0  0  0  0  0  0  0
   35.6850   28.7460   34.4040 C   0  0  0  0  0  0  0  0  0  0  0  0
   36.5460   28.3530   33.4030 C   0  0  0  0  0  0  0  0  0  0  0  0
   36.3520   28.9180   32.1510 C   0  0  0  0  0  0  0  0  0  0  0  0
   35.3150   29.8380   31.9690 C   0  0  0  0  0  0  0  0  0  0  0  0
   34.9060   30.5250   30.8950 N   0  0  0  0  0  0  0  0  0  0  0  0
   33.8710   31.2830   31.2110 C   0  0  0  0  0  0  0  0  0  0  0  0
   33.5900   31.0960   32.5170 N   0  0  0  0  0  0  0  0  0  0  0  0
   34.4820   30.2010   32.9900 C   0  0  0  0  0  0  0  0  0  0  0  0
   34.6680   29.6470   34.2320 C   0  0  0  0  0  0  0  0  0  0  0  0
   35.7810   28.3450   35.4040 H   0  0  0  0  0  0  0  0  0  0  0  0
   37.0140   28.6200   31.3650 H   0  0  0  0  0  0  0  0  0  0  0  0
   35.3450   30.4610   29.9600 H   0  0  0  0  0  0  0  0  0  0  0  0
   33.3500   31.9410   30.5120 H   0  0  0  0  0  0  0  0  0  0  0  0
   34.0000   29.9450   35.0290 H   0  0  0  0  0  0  0  0  0  0  0  0
  1  4  1  0  0  0  0
  1  3  1  0  0  0  0
  2  1  1  0  0  0  0
  4  9  1  6  0  0  0
  4  8  1  0  0  0  0
  4  5  1  0  0  0  0
  5 10  1  0  0  0  0
  5  6  1  0  0  0  0
  6 12  1  0  0  0  0
  7  6  1  0  0  0  0
  7 14  1  0  0  0  0
  7 15  1  0  0  0  0
  8 16  1  6  0  0  0
  8  7  1  0  0  0  0
 11  5  1  0  0  0  0
 13  6  1  0  0  0  0
 17 18  2  0  0  0  0
 19 18  1  6  0  0  0
 19  8  1  0  0  0  0
 19 20  1  0  0  0  0
 20 21  1  0  0  0  0
 22 23  1  0  0  0  0
 22 20  1  0  0  0  0
 24 18  1  0  0  0  0
 24 22  1  0  0  0  0
 25 24  1  0  0  0  0
 26 31  1  0  0  0  0
 26 32  1  0  0  0  0
 27 26  2  0  0  0  0
 28 29  2  0  0  0  0
 28 27  1  0  0  0  0
 29 30  1  0  0  0  0
 30  1  1  0  0  0  0
 30 31  2  0  0  0  0
 33 28  1  0  0  0  0
 34 43  1  0  0  0  0
 35 27  1  0  0  0  0
 35 34  2  0  0  0  0
 36 35  1  0  0  0  0
 37 36  2  0  0  0  0
 37 41  1  0  0  0  0
 38 39  1  0  0  0  0
 38 37  1  0  0  0  0
 39 40  2  0  0  0  0
 40 41  1  0  0  0  0
 41 42  2  0  0  0  0
 42 34  1  0  0  0  0
 42 47  1  0  0  0  0
 44 36  1  0  0  0  0
 45 38  1  0  0  0  0
 46 39  1  0  0  0  0
M  END
>  <minimizedAffinity>
-5.99640131

$$$$

 OpenBabel03272501473D

 47 51  0  0  1  0  0  0  0  0999 V2000
   35.5530   28.8110   32.1120 C   0  0  0  0  0  0  0  0  0  0  0  0
   35.6880   28.5170   31.0650 H   0  0  0  0  0  0  0  0  0  0  0  0
   34.4800   28.7670   32.3980 H   0  0  0  0  0  0  0  0  0  0  0  0
   36.1020   30.1940   32.2910 C   0  0  1  0  0  0  0  0  0  0  0  0
   36.5040   30.6730   30.8930 C   0  0  0  0  0  0  0  0  0  0  0  0
   35.7410   31.9390   30.6230 C   0  0  0  0  0  0  0  0  0  0  0  0
   34.5280   31.8010   31.4770 C   0  0  0  0  0  0  0  0  0  0  0  0
   35.1050   31.2040   32.7450 C   0  0  2  0  0  0  0  0  0  0  0  0
   36.9800   30.2160   32.9580 H   0  0  0  0  0  0  0  0  0  0  0  0
   36.3890   29.9070   30.1220 H   0  0  0  0  0  0  0  0  0  0  0  0
   37.5820   30.9640   30.9180 H   0  0  0  0  0  0  0  0  0  0  0  0
   35.4060   31.9770   29.5550 H   0  0  0  0  0  0  0  0  0  0  0  0
   36.2790   32.8630   30.9150 H   0  0  0  0  0  0  0  0  0  0  0  0
   33.8150   31.0420   31.0830 H   0  0  0  0  0  0  0  0  0  0  0  0
   34.0250   32.7720   31.6920 H   0  0  0  0  0  0  0  0  0  0  0  0
   34.2620   30.7590   33.3230 H   0  0  0  0  0  0  0  0  0  0  0  0
   36.0730   30.8330   35.7130 O   0  0  0  0  0  0  0  0  0  0  0  0
   35.9740   31.8510   34.9500 C   0  0  0  0  0  0  0  0  0  0  0  0
   35.7770   32.2730   33.5580 C   0  0  2  0  0  3  0  0  0  0  0  0
   34.9770   33.5290   33.6840 C   0  0  0  0  0  3  0  0  0  0  0  0
   33.9140   33.3370   33.8230 H   0  0  0  0  0  0  0  0  0  0  0  0
   35.6470   34.1930   34.8760 C   0  0  0  0  0  3  0  0  0  0  0  0
   36.5660   34.7350   34.5090 H   0  0  0  0  0  0  0  0  0  0  0  0
   36.0970   33.0780   35.6980 N   0  0  0  0  0  0  0  0  0  0  0  0
   36.4150   33.3640   36.6490 H   0  0  0  0  0  0  0  0  0  0  0  0
   37.2360   27.0790   34.9240 C   0  0  0  0  0  0  0  0  0  0  0  0
   37.6040   25.8560   34.3480 C   0  0  0  0  0  0  0  0  0  0  0  0
   37.2700   25.6510   33.0120 C   0  0  0  0  0  0  0  0  0  0  0  0
   36.6160   26.6220   32.3410 N   0  0  0  0  0  0  0  0  0  0  0  0
   36.2730   27.8030   32.9390 C   0  0  0  0  0  0  0  0  0  0  0  0
   36.5880   28.0070   34.2150 N   0  0  0  0  0  0  0  0  0  0  0  0
   37.4590   27.3100   35.9520 H   0  0  0  0  0  0  0  0  0  0  0  0
   37.5650   24.7120   32.6060 H   0  0  0  0  0  0  0  0  0  0  0  0
   37.8200   24.7760   36.5060 C   0  0  0  0  0  0  0  0  0  0  0  0
   38.3000   24.9370   35.2240 C   0  0  0  0  0  0  0  0  0  0  0  0
   39.4210   24.1980   34.8760 C   0  0  0  0  0  0  0  0  0  0  0  0
   39.9980   23.3440   35.8220 C   0  0  0  0  0  0  0  0  0  0  0  0
   41.0590   22.5310   35.7630 N   0  0  0  0  0  0  0  0  0  0  0  0
   41.2210   21.9150   36.9210 C   0  0  0  0  0  0  0  0  0  0  0  0
   40.2490   22.3280   37.7610 N   0  0  0  0  0  0  0  0  0  0  0  0
   39.4900   23.2130   37.0840 C   0  0  0  0  0  0  0  0  0  0  0  0
   38.3810   23.9410   37.4360 C   0  0  0  0  0  0  0  0  0  0  0  0
   36.9490   25.3210   36.8430 H   0  0  0  0  0  0  0  0  0  0  0  0
   39.8030   24.3150   33.8840 H   0  0  0  0  0  0  0  0  0  0  0  0
   41.6570   22.4110   34.9260 H   0  0  0  0  0  0  0  0  0  0  0  0
   42.0160   21.1970   37.1330 H   0  0  0  0  0  0  0  0  0  0  0  0
   37.9910   23.8260   38.4380 H   0  0  0  0  0  0  0  0  0  0  0  0
  1  4  1  0  0  0  0
  1  3  1  0  0  0  0
  1 30  1  0  0  0  0
  2  1  1  0  0  0  0
  4  8  1  0  0  0  0
  4  9  1  1  0  0  0
  5 11  1  0  0  0  0
  5  4  1  0  0  0  0
  6  5  1  0  0  0  0
  6 13  1  0  0  0  0
  6  7  1  0  0  0  0
  7 15  1  0  0  0  0
  7  8  1  0  0  0  0
  8 16  1  1  0  0  0
  8 19  1  0  0  0  0
 10  5  1  0  0  0  0
 12  6  1  0  0  0  0
 14  7  1  0  0  0  0
 18 24  1  0  0  0  0
 18 17  2  0  0  0  0
 19 20  1  1  0  0  0
 19 18  1  0  0  0  0
 20 21  1  0  0  0  0
 20 22  1  0  0  0  0
 22 24  1  0  0  0  0
 23 22  1  0  0  0  0
 24 25  1  0  0  0  0
 26 32  1  0  0  0  0
 27 26  1  0  0  0  0
 27 35  1  0  0  0  0
 28 27  2  0  0  0  0
 29 30  2  0  0  0  0
 29 28  1  0  0  0  0
 30 31  1  0  0  0  0
 31 26  2  0  0  0  0
 33 28  1  0  0  0  0
 34 43  1  0  0  0  0
 34 42  1  0  0  0  0
 35 34  2  0  0  0  0
 36 35  1  0  0  0  0
 36 37  2  0  0  0  0
 37 41  1  0  0  0  0
 38 37  1  0  0  0  0
 38 39  1  0  0  0  0
 39 46  1  0  0  0  0
 39 40  2  0  0  0  0
 41 42  2  0  0  0  0
 41 40  1  0  0  0  0
 42 47  1  0  0  0  0
 44 36  1  0  0  0  0
 45 38  1  0  0  0  0
M  END
>  <minimizedAffinity>
-5.91279888

$$$$

 OpenBabel03272501473D

 47 51  0  0  1  0  0  0  0  0999 V2000
   35.3330   29.2540   33.0660 C   0  0  0  0  0  0  0  0  0  0  0  0
   35.8580   29.7880   32.2670 H   0  0  0  0  0  0  0  0  0  0  0  0
   34.4410   28.7240   32.6660 H   0  0  0  0  0  0  0  0  0  0  0  0
   34.9420   30.2420   34.1230 C   0  0  1  0  0  0  0  0  0  0  0  0
   35.7720   31.5010   33.8490 C   0  0  0  0  0  0  0  0  0  0  0  0
   34.8050   32.6330   33.6470 C   0  0  0  0  0  0  0  0  0  0  0  0
   33.5720   31.9520   33.1620 C   0  0  0  0  0  0  0  0  0  0  0  0
   33.5320   30.7170   34.0390 C   0  0  2  0  0  0  0  0  0  0  0  0
   35.1480   29.8750   35.1410 H   0  0  0  0  0  0  0  0  0  0  0  0
   36.4940   31.3770   33.0390 H   0  0  0  0  0  0  0  0  0  0  0  0
   36.3460   31.7490   34.7740 H   0  0  0  0  0  0  0  0  0  0  0  0
   35.1620   33.3150   32.8350 H   0  0  0  0  0  0  0  0  0  0  0  0
   34.5630   33.1930   34.5730 H   0  0  0  0  0  0  0  0  0  0  0  0
   33.6740   31.5800   32.1190 H   0  0  0  0  0  0  0  0  0  0  0  0
   32.6480   32.5610   33.2980 H   0  0  0  0  0  0  0  0  0  0  0  0
   32.8500   29.9800   33.5530 H   0  0  0  0  0  0  0  0  0  0  0  0
   32.2710   28.6550   36.0500 O   0  0  0  0  0  0  0  0  0  0  0  0
   32.3530   29.9290   36.0450 C   0  0  0  0  0  0  0  0  0  0  0  0
   33.0180   31.0700   35.4040 C   0  0  2  0  0  3  0  0  0  0  0  0
   31.9630   32.1290   35.3980 C   0  0  0  0  0  3  0  0  0  0  0  0
   31.2610   32.0170   34.5720 H   0  0  0  0  0  0  0  0  0  0  0  0
   31.3390   31.9390   36.7710 C   0  0  0  0  0  3  0  0  0  0  0  0
   31.9750   32.4820   37.5270 H   0  0  0  0  0  0  0  0  0  0  0  0
   31.4750   30.5120   37.0290 N   0  0  0  0  0  0  0  0  0  0  0  0
   30.9280   30.1850   37.8540 H   0  0  0  0  0  0  0  0  0  0  0  0
   37.6200   27.2990   35.2310 C   0  0  0  0  0  0  0  0  0  0  0  0
   37.9900   26.2360   34.3970 C   0  0  0  0  0  0  0  0  0  0  0  0
   37.4490   26.2100   33.1140 C   0  0  0  0  0  0  0  0  0  0  0  0
   36.6060   27.1940   32.7360 N   0  0  0  0  0  0  0  0  0  0  0  0
   36.2700   28.2160   33.5790 C   0  0  0  0  0  0  0  0  0  0  0  0
   36.7820   28.2480   34.8070 N   0  0  0  0  0  0  0  0  0  0  0  0
   37.9970   27.3870   36.2360 H   0  0  0  0  0  0  0  0  0  0  0  0
   37.7500   25.3890   32.5070 H   0  0  0  0  0  0  0  0  0  0  0  0
   40.1990   25.2470   34.5090 C   0  0  0  0  0  0  0  0  0  0  0  0
   38.9030   25.2750   34.9770 C   0  0  0  0  0  0  0  0  0  0  0  0
   38.5790   24.3680   35.9770 C   0  0  0  0  0  0  0  0  0  0  0  0
   39.5590   23.4910   36.4490 C   0  0  0  0  0  0  0  0  0  0  0  0
   39.5280   22.5340   37.3860 N   0  0  0  0  0  0  0  0  0  0  0  0
   40.7140   21.9620   37.4860 C   0  0  0  0  0  0  0  0  0  0  0  0
   41.5460   22.5500   36.6010 N   0  0  0  0  0  0  0  0  0  0  0  0
   40.8340   23.4980   35.9570 C   0  0  0  0  0  0  0  0  0  0  0  0
   41.1630   24.3900   34.9690 C   0  0  0  0  0  0  0  0  0  0  0  0
   40.5190   25.9270   33.7310 H   0  0  0  0  0  0  0  0  0  0  0  0
   37.5750   24.3800   36.3480 H   0  0  0  0  0  0  0  0  0  0  0  0
   38.6900   22.2900   37.9420 H   0  0  0  0  0  0  0  0  0  0  0  0
   40.9530   21.1520   38.1790 H   0  0  0  0  0  0  0  0  0  0  0  0
   42.1770   24.3830   34.5900 H   0  0  0  0  0  0  0  0  0  0  0  0
  1 30  1  0  0  0  0
  1  4  1  0  0  0  0
  2  1  1  0  0  0  0
  3  1  1  0  0  0  0
  4  9  1  1  0  0  0
  5  4  1  0  0  0  0
  5 11  1  0  0  0  0
  6  5  1  0  0  0  0
  6 13  1  0  0  0  0
  7 15  1  0  0  0  0
  7  6  1  0  0  0  0
  7  8  1  0  0  0  0
  8 16  1  6  0  0  0
  8  4  1  0  0  0  0
  8 19  1  0  0  0  0
 10  5  1  0  0  0  0
 12  6  1  0  0  0  0
 14  7  1  0  0  0  0
 18 17  2  0  0  0  0
 18 24  1  0  0  0  0
 19 20  1  6  0  0  0
 19 18  1  0  0  0  0
 20 22  1  0  0  0  0
 21 20  1  0  0  0  0
 22 24  1  0  0  0  0
 22 23  1  0  0  0  0
 24 25  1  0  0  0  0
 26 32  1  0  0  0  0
 27 35  1  0  0  0  0
 27 26  2  0  0  0  0
 28 27  1  0  0  0  0
 29 28  2  0  0  0  0
 29 30  1  0  0  0  0
 30 31  2  0  0  0  0
 31 26  1  0  0  0  0
 33 28  1  0  0  0  0
 34 42  2  0  0  0  0
 34 35  1  0  0  0  0
 35 36  2  0  0  0  0
 36 44  1  0  0  0  0
 36 37  1  0  0  0  0
 37 38  1  0  0  0  0
 38 39  1  0  0  0  0
 38 45  1  0  0  0  0
 39 46  1  0  0  0  0
 40 39  2  0  0  0  0
 41 37  2  0  0  0  0
 41 40  1  0  0  0  0
 42 41  1  0  0  0  0
 43 34  1  0  0  0  0
 47 42  1  0  0  0  0
M  END
>  <minimizedAffinity>
-5.87559128

$$$$

 OpenBabel03272501473D

 47 51  0  0  1  0  0  0  0  0999 V2000
   36.1850   29.1700   32.7450 C   0  0  0  0  0  0  0  0  0  0  0  0
   37.1940   29.5160   32.9980 H   0  0  0  0  0  0  0  0  0  0  0  0
   35.8080   29.6860   31.8360 H   0  0  0  0  0  0  0  0  0  0  0  0
   35.2890   29.4230   33.9190 C   0  0  1  0  0  0  0  0  0  0  0  0
   36.2150   29.7500   35.0940 C   0  0  0  0  0  0  0  0  0  0  0  0
   35.8280   31.1120   35.5980 C   0  0  0  0  0  0  0  0  0  0  0  0
   35.2300   31.7660   34.4010 C   0  0  0  0  0  0  0  0  0  0  0  0
   34.4280   30.6330   33.7940 C   0  0  2  0  0  0  0  0  0  0  0  0
   34.6650   28.5500   34.1690 H   0  0  0  0  0  0  0  0  0  0  0  0
   37.2750   29.6460   34.8530 H   0  0  0  0  0  0  0  0  0  0  0  0
   35.9900   29.0390   35.9260 H   0  0  0  0  0  0  0  0  0  0  0  0
   36.7370   31.6960   35.8910 H   0  0  0  0  0  0  0  0  0  0  0  0
   35.0740   31.0960   36.4110 H   0  0  0  0  0  0  0  0  0  0  0  0
   35.9940   32.0380   33.6390 H   0  0  0  0  0  0  0  0  0  0  0  0
   34.5680   32.6270   34.6520 H   0  0  0  0  0  0  0  0  0  0  0  0
   34.2060   30.9050   32.7350 H   0  0  0  0  0  0  0  0  0  0  0  0
   32.1240   28.6730   32.9330 O   0  0  0  0  0  0  0  0  0  0  0  0
   32.2090   29.5800   33.8280 C   0  0  0  0  0  0  0  0  0  0  0  0
   33.1470   30.4440   34.5540 C   0  0  2  0  0  3  0  0  0  0  0  0
   32.3730   31.7050   34.7580 C   0  0  0  0  0  3  0  0  0  0  0  0
   32.3860   32.3530   33.8820 H   0  0  0  0  0  0  0  0  0  0  0  0
   30.9960   31.1600   35.1040 C   0  0  0  0  0  3  0  0  0  0  0  0
   30.9850   30.8960   36.2010 H   0  0  0  0  0  0  0  0  0  0  0  0
   30.9080   29.9150   34.3540 N   0  0  0  0  0  0  0  0  0  0  0  0
   29.9490   29.5070   34.3360 H   0  0  0  0  0  0  0  0  0  0  0  0
   37.2370   25.6160   32.6930 C   0  0  0  0  0  0  0  0  0  0  0  0
   36.3950   25.0670   31.7170 C   0  0  0  0  0  0  0  0  0  0  0  0
   35.4870   25.9230   31.0990 C   0  0  0  0  0  0  0  0  0  0  0  0
   35.4580   27.2230   31.4610 N   0  0  0  0  0  0  0  0  0  0  0  0
   36.2960   27.7210   32.4180 C   0  0  0  0  0  0  0  0  0  0  0  0
   37.1660   26.9100   33.0140 N   0  0  0  0  0  0  0  0  0  0  0  0
   37.9640   25.0170   33.2140 H   0  0  0  0  0  0  0  0  0  0  0  0
   34.8630   25.4730   30.3620 H   0  0  0  0  0  0  0  0  0  0  0  0
   37.7610   23.2380   30.9050 C   0  0  0  0  0  0  0  0  0  0  0  0
   36.5710   23.6530   31.4640 C   0  0  0  0  0  0  0  0  0  0  0  0
   35.6310   22.6700   31.7390 C   0  0  0  0  0  0  0  0  0  0  0  0
   35.9290   21.3370   31.4430 C   0  0  0  0  0  0  0  0  0  0  0  0
   35.2270   20.2070   31.5990 N   0  0  0  0  0  0  0  0  0  0  0  0
   35.9320   19.1750   31.1690 C   0  0  0  0  0  0  0  0  0  0  0  0
   37.1210   19.6290   30.7220 N   0  0  0  0  0  0  0  0  0  0  0  0
   37.1230   20.9670   30.8900 C   0  0  0  0  0  0  0  0  0  0  0  0
   38.0580   21.9330   30.6140 C   0  0  0  0  0  0  0  0  0  0  0  0
   38.5370   23.9510   30.6660 H   0  0  0  0  0  0  0  0  0  0  0  0
   34.7040   22.9800   32.1720 H   0  0  0  0  0  0  0  0  0  0  0  0
   34.2740   20.1630   31.9990 H   0  0  0  0  0  0  0  0  0  0  0  0
   35.5840   18.1400   31.1860 H   0  0  0  0  0  0  0  0  0  0  0  0
   38.9980   21.6250   30.1760 H   0  0  0  0  0  0  0  0  0  0  0  0
  1  2  1  0  0  0  0
  1  4  1  0  0  0  0
  3  1  1  0  0  0  0
  4  9  1  1  0  0  0
  4  5  1  0  0  0  0
  5  6  1  0  0  0  0
  5 11  1  0  0  0  0
  6 12  1  0  0  0  0
  6 13  1  0  0  0  0
  7 15  1  0  0  0  0
  7  6  1  0  0  0  0
  8 16  1  6  0  0  0
  8  4  1  0  0  0  0
  8  7  1  0  0  0  0
  8 19  1  0  0  0  0
 10  5  1  0  0  0  0
 14  7  1  0  0  0  0
 17 18  2  0  0  0  0
 18 24  1  0  0  0  0
 19 18  1  6  0  0  0
 19 20  1  0  0  0  0
 20 22  1  0  0  0  0
 21 20  1  0  0  0  0
 22 23  1  0  0  0  0
 24 22  1  0  0  0  0
 25 24  1  0  0  0  0
 26 31  1  0  0  0  0
 26 32  1  0  0  0  0
 27 26  2  0  0  0  0
 28 29  2  0  0  0  0
 28 27  1  0  0  0  0
 29 30  1  0  0  0  0
 30  1  1  0  0  0  0
 30 31  2  0  0  0  0
 33 28  1  0  0  0  0
 34 35  1  0  0  0  0
 35 27  1  0  0  0  0
 35 36  2  0  0  0  0
 36 44  1  0  0  0  0
 37 38  1  0  0  0  0
 37 36  1  0  0  0  0
 38 45  1  0  0  0  0
 39 46  1  0  0  0  0
 39 38  1  0  0  0  0
 40 41  1  0  0  0  0
 40 39  2  0  0  0  0
 41 37  2  0  0  0  0
 42 41  1  0  0  0  0
 42 34  2  0  0  0  0
 43 34  1  0  0  0  0
 47 42  1  0  0  0  0
M  END
>  <minimizedAffinity>
-5.83964109

$$$$

 OpenBabel03272501473D

 47 51  0  0  1  0  0  0  0  0999 V2000
   36.4380   28.8480   32.2570 C   0  0  0  0  0  0  0  0  0  0  0  0
   35.6630   29.0950   32.9900 H   0  0  0  0  0  0  0  0  0  0  0  0
   37.4450   29.1200   32.6410 H   0  0  0  0  0  0  0  0  0  0  0  0
   36.1340   29.5750   30.9810 C   0  0  1  0  0  0  0  0  0  0  0  0
   34.9030   30.4380   31.2720 C   0  0  0  0  0  0  0  0  0  0  0  0
   35.2850   31.8630   30.9850 C   0  0  0  0  0  0  0  0  0  0  0  0
   36.7600   31.8740   31.1910 C   0  0  0  0  0  0  0  0  0  0  0  0
   37.1720   30.5580   30.5640 C   0  0  2  0  0  0  0  0  0  0  0  0
   35.9180   28.8880   30.1470 H   0  0  0  0  0  0  0  0  0  0  0  0
   34.4850   30.2780   32.2680 H   0  0  0  0  0  0  0  0  0  0  0  0
   34.1090   30.1780   30.5300 H   0  0  0  0  0  0  0  0  0  0  0  0
   34.8280   32.5530   31.7400 H   0  0  0  0  0  0  0  0  0  0  0  0
   35.0670   32.1910   29.9500 H   0  0  0  0  0  0  0  0  0  0  0  0
   37.0400   31.7980   32.2660 H   0  0  0  0  0  0  0  0  0  0  0  0
   37.2710   32.7270   30.6890 H   0  0  0  0  0  0  0  0  0  0  0  0
   38.1910   30.3070   30.9420 H   0  0  0  0  0  0  0  0  0  0  0  0
   38.2240   28.3320   28.6080 O   0  0  0  0  0  0  0  0  0  0  0  0
   37.8810   29.5500   28.4380 C   0  0  0  0  0  0  0  0  0  0  0  0
   37.1990   30.6870   29.0680 C   0  0  2  0  0  3  0  0  0  0  0  0
   37.9670   31.8700   28.5770 C   0  0  0  0  0  3  0  0  0  0  0  0
   38.8790   32.0450   29.1460 H   0  0  0  0  0  0  0  0  0  0  0  0
   38.2080   31.4900   27.1250 C   0  0  0  0  0  3  0  0  0  0  0  0
   37.2860   31.7560   26.5310 H   0  0  0  0  0  0  0  0  0  0  0  0
   38.3060   30.0370   27.1490 N   0  0  0  0  0  0  0  0  0  0  0  0
   38.6570   29.6280   26.2560 H   0  0  0  0  0  0  0  0  0  0  0  0
   37.1740   25.2300   32.5750 C   0  0  0  0  0  0  0  0  0  0  0  0
   36.2650   24.6570   31.6750 C   0  0  0  0  0  0  0  0  0  0  0  0
   35.4220   25.5200   30.9800 C   0  0  0  0  0  0  0  0  0  0  0  0
   35.5150   26.8480   31.2000 N   0  0  0  0  0  0  0  0  0  0  0  0
   36.4140   27.3690   32.0870 C   0  0  0  0  0  0  0  0  0  0  0  0
   37.2240   26.5520   32.7560 N   0  0  0  0  0  0  0  0  0  0  0  0
   37.8570   24.6270   33.1490 H   0  0  0  0  0  0  0  0  0  0  0  0
   34.7450   25.0510   30.3050 H   0  0  0  0  0  0  0  0  0  0  0  0
   37.4230   22.6400   30.9960 C   0  0  0  0  0  0  0  0  0  0  0  0
   36.3120   23.2130   31.5740 C   0  0  0  0  0  0  0  0  0  0  0  0
   35.3190   22.3500   32.0160 C   0  0  0  0  0  0  0  0  0  0  0  0
   35.4900   20.9720   31.8560 C   0  0  0  0  0  0  0  0  0  0  0  0
   34.7140   19.9310   32.1810 N   0  0  0  0  0  0  0  0  0  0  0  0
   35.3040   18.8010   31.8300 C   0  0  0  0  0  0  0  0  0  0  0  0
   36.4910   19.1010   31.2630 N   0  0  0  0  0  0  0  0  0  0  0  0
   36.6100   20.4440   31.2770 C   0  0  0  0  0  0  0  0  0  0  0  0
   37.5960   21.2900   30.8370 C   0  0  0  0  0  0  0  0  0  0  0  0
   38.2350   23.2540   30.6310 H   0  0  0  0  0  0  0  0  0  0  0  0
   34.4510   22.7840   32.4660 H   0  0  0  0  0  0  0  0  0  0  0  0
   33.7900   20.0130   32.6410 H   0  0  0  0  0  0  0  0  0  0  0  0
   34.8780   17.8080   31.9860 H   0  0  0  0  0  0  0  0  0  0  0  0
   38.4760   20.8570   30.3810 H   0  0  0  0  0  0  0  0  0  0  0  0
  1  3  1  0  0  0  0
  1  2  1  0  0  0  0
  4  9  1  6  0  0  0
  4  5  1  0  0  0  0
  4  1  1  0  0  0  0
  5 10  1  0  0  0  0
  6  7  1  0  0  0  0
  6  5  1  0  0  0  0
  6 12  1  0  0  0  0
  7 14  1  0  0  0  0
  8 16  1  1  0  0  0
  8  4  1  0  0  0  0
  8  7  1  0  0  0  0
 11  5  1  0  0  0  0
 13  6  1  0  0  0  0
 15  7  1  0  0  0  0
 18 17  2  0  0  0  0
 19 18  1  6  0  0  0
 19  8  1  0  0  0  0
 20 19  1  0  0  0  0
 20 21  1  0  0  0  0
 22 24  1  0  0  0  0
 22 20  1  0  0  0  0
 23 22  1  0  0  0  0
 24 18  1  0  0  0  0
 25 24  1  0  0  0  0
 26 31  1  0  0  0  0
 26 32  1  0  0  0  0
 27 26  2  0  0  0  0
 28 29  2  0  0  0  0
 28 27  1  0  0  0  0
 29 30  1  0  0  0  0
 30  1  1  0  0  0  0
 30 31  2  0  0  0  0
 33 28  1  0  0  0  0
 34 35  1  0  0  0  0
 35 27  1  0  0  0  0
 35 36  2  0  0  0  0
 36 44  1  0  0  0  0
 37 36  1  0  0  0  0
 37 38  1  0  0  0  0
 38 45  1  0  0  0  0
 39 46  1  0  0  0  0
 39 38  1  0  0  0  0
 40 41  1  0  0  0  0
 40 39  2  0  0  0  0
 41 37  2  0  0  0  0
 42 34  2  0  0  0  0
 42 41  1  0  0  0  0
 43 34  1  0  0  0  0
 47 42  1  0  0  0  0
M  END
>  <minimizedAffinity>
-5.81700611

$$$$

 OpenBabel03272501473D

 47 51  0  0  1  0  0  0  0  0999 V2000
   36.6000   26.5820   31.3310 C   0  0  0  0  0  0  0  0  0  0  0  0
   35.8610   26.5650   30.5220 H   0  0  0  0  0  0  0  0  0  0  0  0
   37.6280   26.6880   30.9220 H   0  0  0  0  0  0  0  0  0  0  0  0
   36.4630   25.3200   32.1270 C   0  0  1  0  0  0  0  0  0  0  0  0
   35.3780   24.4950   31.4260 C   0  0  0  0  0  0  0  0  0  0  0  0
   35.9970   23.1770   31.0550 C   0  0  0  0  0  0  0  0  0  0  0  0
   37.4460   23.4980   30.9280 C   0  0  0  0  0  0  0  0  0  0  0  0
   37.6610   24.4350   32.0990 C   0  0  2  0  0  0  0  0  0  0  0  0
   36.1680   25.5100   33.1710 H   0  0  0  0  0  0  0  0  0  0  0  0
   34.9050   25.0190   30.5930 H   0  0  0  0  0  0  0  0  0  0  0  0
   34.5800   24.2610   32.1710 H   0  0  0  0  0  0  0  0  0  0  0  0
   35.6310   22.8400   30.0510 H   0  0  0  0  0  0  0  0  0  0  0  0
   35.8720   22.3860   31.8210 H   0  0  0  0  0  0  0  0  0  0  0  0
   37.6710   24.0950   30.0170 H   0  0  0  0  0  0  0  0  0  0  0  0
   38.1060   22.6040   31.0130 H   0  0  0  0  0  0  0  0  0  0  0  0
   38.6120   24.9900   31.9180 H   0  0  0  0  0  0  0  0  0  0  0  0
   38.5340   25.6470   34.8660 O   0  0  0  0  0  0  0  0  0  0  0  0
   38.3360   24.4530   34.4610 C   0  0  0  0  0  0  0  0  0  0  0  0
   37.7610   23.6500   33.3750 C   0  0  2  0  0  3  0  0  0  0  0  0
   38.6750   22.4720   33.2900 C   0  0  0  0  0  3  0  0  0  0  0  0
   39.5780   22.6800   32.7170 H   0  0  0  0  0  0  0  0  0  0  0  0
   38.9300   22.1830   34.7610 C   0  0  0  0  0  3  0  0  0  0  0  0
   38.0680   21.5710   35.1560 H   0  0  0  0  0  0  0  0  0  0  0  0
   38.8650   23.4910   35.3970 N   0  0  0  0  0  0  0  0  0  0  0  0
   39.2020   23.4910   36.3840 H   0  0  0  0  0  0  0  0  0  0  0  0
   36.0690   28.9070   34.1680 C   0  0  0  0  0  0  0  0  0  0  0  0
   35.7860   30.1160   33.5190 C   0  0  0  0  0  0  0  0  0  0  0  0
   35.7830   30.1100   32.1270 C   0  0  0  0  0  0  0  0  0  0  0  0
   36.0480   28.9590   31.4740 N   0  0  0  0  0  0  0  0  0  0  0  0
   36.3200   27.7990   32.1440 C   0  0  0  0  0  0  0  0  0  0  0  0
   36.3260   27.7960   33.4740 N   0  0  0  0  0  0  0  0  0  0  0  0
   36.0900   28.8330   35.2430 H   0  0  0  0  0  0  0  0  0  0  0  0
   35.5640   31.0440   31.6660 H   0  0  0  0  0  0  0  0  0  0  0  0
   35.9730   32.4860   33.9860 C   0  0  0  0  0  0  0  0  0  0  0  0
   35.5270   31.2450   34.3870 C   0  0  0  0  0  0  0  0  0  0  0  0
   34.8610   31.1810   35.6020 C   0  0  0  0  0  0  0  0  0  0  0  0
   34.6780   32.3510   36.3450 C   0  0  0  0  0  0  0  0  0  0  0  0
   34.0850   32.5800   37.5240 N   0  0  0  0  0  0  0  0  0  0  0  0
   34.1600   33.8650   37.8250 C   0  0  0  0  0  0  0  0  0  0  0  0
   34.8130   34.4970   36.8280 N   0  0  0  0  0  0  0  0  0  0  0  0
   35.1350   33.5640   35.9090 C   0  0  0  0  0  0  0  0  0  0  0  0
   35.7950   33.6360   34.7090 C   0  0  0  0  0  0  0  0  0  0  0  0
   36.4980   32.6080   33.0490 H   0  0  0  0  0  0  0  0  0  0  0  0
   34.5110   30.2230   35.9250 H   0  0  0  0  0  0  0  0  0  0  0  0
   33.6380   31.8480   38.1030 H   0  0  0  0  0  0  0  0  0  0  0  0
   33.7520   34.3100   38.7350 H   0  0  0  0  0  0  0  0  0  0  0  0
   36.1520   34.6020   34.3780 H   0  0  0  0  0  0  0  0  0  0  0  0
  1  4  1  0  0  0  0
  1 30  1  0  0  0  0
  2  1  1  0  0  0  0
  3  1  1  0  0  0  0
  4  9  1  1  0  0  0
  5  4  1  0  0  0  0
  5 11  1  0  0  0  0
  6  5  1  0  0  0  0
  6 13  1  0  0  0  0
  7 15  1  0  0  0  0
  7  6  1  0  0  0  0
  7  8  1  0  0  0  0
  8 16  1  6  0  0  0
  8  4  1  0  0  0  0
  8 19  1  0  0  0  0
 10  5  1  0  0  0  0
 12  6  1  0  0  0  0
 14  7  1  0  0  0  0
 18 17  2  0  0  0  0
 18 24  1  0  0  0  0
 19 20  1  6  0  0  0
 19 18  1  0  0  0  0
 20 22  1  0  0  0  0
 21 20  1  0  0  0  0
 22 23  1  0  0  0  0
 22 24  1  0  0  0  0
 24 25  1  0  0  0  0
 26 32  1  0  0  0  0
 27 26  1  0  0  0  0
 27 35  1  0  0  0  0
 28 27  2  0  0  0  0
 29 28  1  0  0  0  0
 29 30  2  0  0  0  0
 30 31  1  0  0  0  0
 31 26  2  0  0  0  0
 33 28  1  0  0  0  0
 34 35  2  0  0  0  0
 34 42  1  0  0  0  0
 35 36  1  0  0  0  0
 36 44  1  0  0  0  0
 36 37  2  0  0  0  0
 37 38  1  0  0  0  0
 38 39  1  0  0  0  0
 38 45  1  0  0  0  0
 39 46  1  0  0  0  0
 40 39  2  0  0  0  0
 41 37  1  0  0  0  0
 41 40  1  0  0  0  0
 42 41  2  0  0  0  0
 43 34  1  0  0  0  0
 47 42  1  0  0  0  0
M  END
>  <minimizedAffinity>
-5.8065424

$$$$

 OpenBabel03272501473D

 47 51  0  0  1  0  0  0  0  0999 V2000
   35.5900   28.4330   32.8470 C   0  0  0  0  0  0  0  0  0  0  0  0
   35.3960   28.0570   31.8360 H   0  0  0  0  0  0  0  0  0  0  0  0
   34.6690   28.3880   33.4670 H   0  0  0  0  0  0  0  0  0  0  0  0
   36.1000   29.8390   32.7410 C   0  0  1  0  0  0  0  0  0  0  0  0
   36.4720   30.0420   31.2690 C   0  0  0  0  0  0  0  0  0  0  0  0
   35.6690   31.2090   30.7670 C   0  0  0  0  0  0  0  0  0  0  0  0
   34.4700   31.2100   31.6510 C   0  0  0  0  0  0  0  0  0  0  0  0
   35.0790   30.8910   33.0020 C   0  0  2  0  0  0  0  0  0  0  0  0
   36.9840   30.0150   33.3750 H   0  0  0  0  0  0  0  0  0  0  0  0
   36.3710   29.1370   30.6660 H   0  0  0  0  0  0  0  0  0  0  0  0
   37.5410   30.3610   31.2180 H   0  0  0  0  0  0  0  0  0  0  0  0
   35.3210   31.0260   29.7180 H   0  0  0  0  0  0  0  0  0  0  0  0
   36.1830   32.1870   30.8610 H   0  0  0  0  0  0  0  0  0  0  0  0
   33.7750   30.3700   31.4270 H   0  0  0  0  0  0  0  0  0  0  0  0
   33.9410   32.1910   31.6790 H   0  0  0  0  0  0  0  0  0  0  0  0
   34.2550   30.5470   33.6710 H   0  0  0  0  0  0  0  0  0  0  0  0
   36.1880   31.1040   35.9370 O   0  0  0  0  0  0  0  0  0  0  0  0
   36.0050   31.9630   35.0100 C   0  0  0  0  0  0  0  0  0  0  0  0
   35.7280   32.1180   33.5770 C   0  0  2  0  0  3  0  0  0  0  0  0
   34.8700   33.3400   33.5180 C   0  0  0  0  0  3  0  0  0  0  0  0
   33.8250   33.1310   33.7420 H   0  0  0  0  0  0  0  0  0  0  0  0
   35.5540   34.2360   34.5370 C   0  0  0  0  0  3  0  0  0  0  0  0
   36.4280   34.7430   34.0330 H   0  0  0  0  0  0  0  0  0  0  0  0
   36.0950   33.3090   35.5200 N   0  0  0  0  0  0  0  0  0  0  0  0
   36.4380   33.7750   36.3880 H   0  0  0  0  0  0  0  0  0  0  0  0
   37.9050   25.6030   33.4560 C   0  0  0  0  0  0  0  0  0  0  0  0
   38.4250   25.9060   34.7200 C   0  0  0  0  0  0  0  0  0  0  0  0
   37.9740   27.0700   35.3370 C   0  0  0  0  0  0  0  0  0  0  0  0
   37.0700   27.8430   34.7000 N   0  0  0  0  0  0  0  0  0  0  0  0
   36.5860   27.5140   33.4650 C   0  0  0  0  0  0  0  0  0  0  0  0
   37.0120   26.4030   32.8690 N   0  0  0  0  0  0  0  0  0  0  0  0
   38.2060   24.7200   32.9160 H   0  0  0  0  0  0  0  0  0  0  0  0
   38.3900   27.2700   36.2970 H   0  0  0  0  0  0  0  0  0  0  0  0
   40.6970   25.0730   34.8370 C   0  0  0  0  0  0  0  0  0  0  0  0
   39.3860   24.9580   35.2440 C   0  0  0  0  0  0  0  0  0  0  0  0
   39.0920   23.9310   36.1300 C   0  0  0  0  0  0  0  0  0  0  0  0
   40.1170   23.0830   36.5590 C   0  0  0  0  0  0  0  0  0  0  0  0
   40.1210   22.0340   37.3910 N   0  0  0  0  0  0  0  0  0  0  0  0
   41.3430   21.5410   37.4900 C   0  0  0  0  0  0  0  0  0  0  0  0
   42.1620   22.2770   36.7100 N   0  0  0  0  0  0  0  0  0  0  0  0
   41.4060   23.2320   36.1310 C   0  0  0  0  0  0  0  0  0  0  0  0
   41.7060   24.2450   35.2540 C   0  0  0  0  0  0  0  0  0  0  0  0
   40.9960   25.8510   34.1490 H   0  0  0  0  0  0  0  0  0  0  0  0
   38.0770   23.8320   36.4520 H   0  0  0  0  0  0  0  0  0  0  0  0
   39.2830   21.6730   37.8790 H   0  0  0  0  0  0  0  0  0  0  0  0
   41.6150   20.6830   38.1080 H   0  0  0  0  0  0  0  0  0  0  0  0
   42.7310   24.3500   34.9250 H   0  0  0  0  0  0  0  0  0  0  0  0
  1 30  1  0  0  0  0
  1  3  1  0  0  0  0
  2  1  1  0  0  0  0
  4  1  1  0  0  0  0
  4  8  1  0  0  0  0
  4  9  1  1  0  0  0
  5  4  1  0  0  0  0
  6 13  1  0  0  0  0
  6  5  1  0  0  0  0
  6  7  1  0  0  0  0
  7 15  1  0  0  0  0
  7  8  1  0  0  0  0
  8 19  1  0  0  0  0
  8 16  1  1  0  0  0
 10  5  1  0  0  0  0
 11  5  1  0  0  0  0
 12  6  1  0  0  0  0
 14  7  1  0  0  0  0
 18 24  1  0  0  0  0
 18 17  2  0  0  0  0
 19 20  1  1  0  0  0
 19 18  1  0  0  0  0
 20 21  1  0  0  0  0
 20 22  1  0  0  0  0
 22 24  1  0  0  0  0
 23 22  1  0  0  0  0
 24 25  1  0  0  0  0
 26 27  1  0  0  0  0
 27 35  1  0  0  0  0
 27 28  2  0  0  0  0
 28 33  1  0  0  0  0
 29 28  1  0  0  0  0
 30 29  2  0  0  0  0
 31 26  2  0  0  0  0
 31 30  1  0  0  0  0
 32 26  1  0  0  0  0
 34 35  2  0  0  0  0
 34 42  1  0  0  0  0
 35 36  1  0  0  0  0
 36 44  1  0  0  0  0
 36 37  2  0  0  0  0
 37 38  1  0  0  0  0
 38 39  1  0  0  0  0
 38 45  1  0  0  0  0
 39 46  1  0  0  0  0
 40 39  2  0  0  0  0
 41 37  1  0  0  0  0
 41 40  1  0  0  0  0
 42 41  2  0  0  0  0
 43 34  1  0  0  0  0
 47 42  1  0  0  0  0
M  END
>  <minimizedAffinity>
-5.77915859

$$$$
