
 OpenBabel03262521493D

 32 34  0  0  1  0  0  0  0  0999 V2000
   37.2620   29.2450   50.5830 C   0  0  0  0  0  0  0  0  0  0  0  0
   37.3960   30.6050   50.9360 C   0  0  0  0  0  0  0  0  0  0  0  0
   36.6480   31.5220   50.2000 C   0  0  0  0  0  0  0  0  0  0  0  0
   35.8520   31.0470   49.2040 N   0  0  0  0  0  0  0  0  0  0  0  0
   35.7540   29.7330   48.9010 C   0  0  0  0  0  0  0  0  0  0  0  0
   36.4680   28.8260   49.5990 N   0  0  0  0  0  0  0  0  0  0  0  0
   34.9110   29.3280   47.8600 N   0  0  0  0  0  0  0  0  0  0  0  0
   34.2600   28.0270   47.8480 C   0  0  0  0  0  0  0  0  0  0  0  0
   32.7800   28.1970   47.7180 C   0  0  0  0  0  0  0  0  0  0  0  0
   32.3300   29.4240   47.2130 N   0  0  0  0  0  0  0  0  0  0  0  0
   33.1960   30.2590   46.4670 C   0  0  0  0  0  0  0  0  0  0  0  0
   34.6370   30.1850   46.7330 C   0  0  2  0  0  0  0  0  0  0  0  0
   37.7970   28.4450   51.0910 H   0  0  0  0  0  0  0  0  0  0  0  0
   38.0580   30.8540   51.7420 H   0  0  0  0  0  0  0  0  0  0  0  0
   36.7340   32.5630   50.4480 H   0  0  0  0  0  0  0  0  0  0  0  0
   34.6630   27.4810   46.9610 H   0  0  0  0  0  0  0  0  0  0  0  0
   34.5130   27.4500   48.7510 H   0  0  0  0  0  0  0  0  0  0  0  0
   32.3280   28.0020   48.7150 H   0  0  0  0  0  0  0  0  0  0  0  0
   32.4130   27.3670   47.0640 H   0  0  0  0  0  0  0  0  0  0  0  0
   31.4350   29.3090   46.6950 H   0  0  0  0  0  0  0  0  0  0  0  0
   33.0210   30.0110   45.3860 H   0  0  0  0  0  0  0  0  0  0  0  0
   32.8090   31.3000   46.5640 H   0  0  0  0  0  0  0  0  0  0  0  0
   35.0240   31.2190   46.9770 H   0  0  0  0  0  0  0  0  0  0  0  0
   37.5700   31.1490   46.1110 O   0  0  0  0  0  0  0  0  0  0  0  0
   36.6870   30.5710   45.4040 C   0  0  0  0  0  0  0  0  0  0  0  0
   35.4690   29.7360   45.5580 C   0  0  2  0  0  0  0  0  0  0  0  0
   34.7800   29.9080   44.2490 C   0  0  0  0  0  0  0  0  0  0  0  0
   34.2690   30.8810   44.2150 H   0  0  0  0  0  0  0  0  0  0  0  0
   35.9680   29.8990   43.2800 C   0  0  0  0  0  0  0  0  0  0  0  0
   36.3200   28.8390   43.2360 H   0  0  0  0  0  0  0  0  0  0  0  0
   36.8940   30.7660   43.9900 N   0  0  0  0  0  0  0  0  0  0  0  0
   37.5410   31.3720   43.4040 H   0  0  0  0  0  0  0  0  0  0  0  0
  1  2  1  0  0  0  0
  1 13  1  0  0  0  0
  2 14  1  0  0  0  0
  3 15  1  0  0  0  0
  3  2  2  0  0  0  0
  4  3  1  0  0  0  0
  5  4  2  0  0  0  0
  5  6  1  0  0  0  0
  6  1  2  0  0  0  0
  7  5  1  0  0  0  0
  8  7  1  0  0  0  0
  8 17  1  0  0  0  0
  9  8  1  0  0  0  0
  9 18  1  0  0  0  0
 10  9  1  0  0  0  0
 11 22  1  0  0  0  0
 11 12  1  0  0  0  0
 11 10  1  0  0  0  0
 12 23  1  1  0  0  0
 12  7  1  0  0  0  0
 16  8  1  0  0  0  0
 19  9  1  0  0  0  0
 20 10  1  0  0  0  0
 21 11  1  0  0  0  0
 25 26  1  0  0  0  0
 25 24  2  0  0  0  0
 26 27  1  6  0  0  0
 26 12  1  0  0  0  0
 28 27  1  0  0  0  0
 29 31  1  0  0  0  0
 29 27  1  0  0  0  0
 30 29  1  0  0  0  0
 31 25  1  0  0  0  0
 32 31  1  0  0  0  0
M  END
>  <minimizedAffinity>
-4.76695776

>  <minimizedRMSD>
0.932361841

$$$$
