
 OpenBabel03272504333D

 40 43  0  0  1  0  0  0  0  0999 V2000
   35.0240   29.6000   47.5530 C   0  0  0  0  0  0  0  0  0  0  0  0
   35.1780   29.9950   46.2330 C   0  0  0  0  0  0  0  0  0  0  0  0
   34.1390   29.8350   45.3320 C   0  0  0  0  0  0  0  0  0  0  0  0
   32.9840   29.2820   45.8000 N   0  0  0  0  0  0  0  0  0  0  0  0
   32.8620   28.9060   47.0950 C   0  0  0  0  0  0  0  0  0  0  0  0
   33.8680   29.0600   47.9700 N   0  0  0  0  0  0  0  0  0  0  0  0
   36.1280   30.4190   45.9700 H   0  0  0  0  0  0  0  0  0  0  0  0
   34.2670   30.1450   44.3070 H   0  0  0  0  0  0  0  0  0  0  0  0
   36.0550   29.7370   48.5330 N   0  0  0  0  0  0  0  0  0  0  0  0
   36.1380   28.8780   49.7070 C   0  0  0  0  0  0  0  0  0  0  0  0
   36.4460   29.5870   50.9840 C   0  0  0  0  0  0  0  0  0  0  0  0
   37.1810   30.7830   50.9070 N   0  0  0  0  0  0  0  0  0  0  0  0
   36.9030   31.5770   49.7210 C   0  0  0  0  0  0  0  0  0  0  0  0
   37.1210   30.6770   48.5390 C   0  0  0  0  0  0  0  0  0  0  0  0
   36.9200   28.1020   49.4760 H   0  0  0  0  0  0  0  0  0  0  0  0
   35.1780   28.3090   49.7840 H   0  0  0  0  0  0  0  0  0  0  0  0
   35.4770   29.7440   51.5250 H   0  0  0  0  0  0  0  0  0  0  0  0
   37.0130   28.8640   51.6390 H   0  0  0  0  0  0  0  0  0  0  0  0
   38.1960   30.7380   51.1380 H   0  0  0  0  0  0  0  0  0  0  0  0
   35.8900   31.9840   49.7380 H   0  0  0  0  0  0  0  0  0  0  0  0
   37.7000   32.3590   49.7000 H   0  0  0  0  0  0  0  0  0  0  0  0
   38.0930   30.1500   48.6260 H   0  0  0  0  0  0  0  0  0  0  0  0
   37.1180   31.2530   47.6070 H   0  0  0  0  0  0  0  0  0  0  0  0
   31.5940   28.3200   47.5290 C   0  0  0  0  0  0  0  0  0  0  0  0
   31.5760   27.3650   48.5270 C   0  0  0  0  0  0  0  0  0  0  0  0
   30.4140   26.7700   48.9860 C   0  0  0  0  0  0  0  0  0  0  0  0
   29.2760   27.1820   48.3900 N   0  0  0  0  0  0  0  0  0  0  0  0
   29.3000   28.1140   47.4150 C   0  0  0  0  0  0  0  0  0  0  0  0
   30.4330   28.6910   46.9720 N   0  0  0  0  0  0  0  0  0  0  0  0
   32.5130   27.0630   48.9800 H   0  0  0  0  0  0  0  0  0  0  0  0
   30.4660   26.0290   49.7700 H   0  0  0  0  0  0  0  0  0  0  0  0
   27.7460   26.5280   45.3320 O   0  0  0  0  0  0  0  0  0  0  0  0
   27.6990   27.7750   45.5660 C   0  0  0  0  0  0  0  0  0  0  0  0
   28.0320   28.5540   46.7720 C   0  0  2  0  0  3  0  0  0  0  0  0
   28.1470   29.9680   46.2120 C   0  0  0  0  0  3  0  0  0  0  0  0
   29.1150   30.0490   45.7150 H   0  0  0  0  0  0  0  0  0  0  0  0
   27.0180   29.9570   45.1880 C   0  0  0  0  0  3  0  0  0  0  0  0
   26.0620   29.9610   45.7340 H   0  0  0  0  0  0  0  0  0  0  0  0
   27.2570   28.6620   44.5450 N   0  0  0  0  0  0  0  0  0  0  0  0
   27.1060   28.5020   43.5100 H   0  0  0  0  0  0  0  0  0  0  0  0
  1  6  1  0  0  0  0
  1  9  1  0  0  0  0
  2  1  2  0  0  0  0
  3  4  2  0  0  0  0
  3  2  1  0  0  0  0
  4  5  1  0  0  0  0
  5 24  1  0  0  0  0
  5  6  2  0  0  0  0
  7  2  1  0  0  0  0
  8  3  1  0  0  0  0
  9 14  1  0  0  0  0
  9 10  1  0  0  0  0
 10 16  1  0  0  0  0
 10 11  1  0  0  0  0
 11 17  1  0  0  0  0
 11 18  1  0  0  0  0
 12 11  1  0  0  0  0
 12 19  1  0  0  0  0
 13 20  1  0  0  0  0
 13 12  1  0  0  0  0
 14 22  1  0  0  0  0
 14 13  1  0  0  0  0
 15 10  1  0  0  0  0
 21 13  1  0  0  0  0
 23 14  1  0  0  0  0
 24 25  1  0  0  0  0
 25 30  1  0  0  0  0
 25 26  2  0  0  0  0
 26 31  1  0  0  0  0
 27 26  1  0  0  0  0
 28 27  2  0  0  0  0
 29 28  1  0  0  0  0
 29 24  2  0  0  0  0
 32 33  2  0  0  0  0
 33 34  1  0  0  0  0
 34 28  1  6  0  0  0
 35 34  1  0  0  0  0
 36 35  1  0  0  0  0
 37 38  1  0  0  0  0
 37 35  1  0  0  0  0
 39 37  1  0  0  0  0
 39 33  1  0  0  0  0
 40 39  1  0  0  0  0
M  END
>  <minimizedAffinity>
-5.13092709

>  <minimizedRMSD>
0.20136261

$$$$
