
     RDKit          3D

 36 38  0  0  0  0  0  0  0  0999 V2000
   38.7365   32.3248   47.6061 C   0  0  0  0  0  0  0  0  0  0  0  0
   38.3788   32.4066   48.9415 C   0  0  0  0  0  0  0  0  0  0  0  0
   38.8332   33.4121   49.7580 C   0  0  0  0  0  0  0  0  0  0  0  0
   39.6711   34.3826   49.2619 C   0  0  0  0  0  0  0  0  0  0  0  0
   40.0361   34.3148   47.9345 C   0  0  0  0  0  0  0  0  0  0  0  0
   39.5865   33.3060   47.0953 C   0  0  0  0  0  0  0  0  0  0  0  0
   38.0759   30.2264   50.0168 C   0  0  0  0  0  0  0  0  0  0  0  0
   37.4938   31.3678   49.4346 C   0  0  0  0  0  0  0  0  0  0  0  0
   36.0973   31.4033   49.3807 C   0  0  0  0  0  0  0  0  0  0  0  0
   35.3831   30.3657   49.8776 N   0  0  0  0  0  0  0  0  0  0  0  0
   35.9859   29.2868   50.4293 C   0  0  0  0  0  0  0  0  0  0  0  0
   37.3274   29.2239   50.4953 N   0  0  0  0  0  0  0  0  0  0  0  0
   39.1290   30.3398   46.3113 N   0  0  0  0  0  0  0  0  0  0  0  0
   38.3272   31.3141   46.6331 C   0  0  0  0  0  0  0  0  0  0  0  0
   37.0797   31.2466   45.9397 N   0  0  0  0  0  0  0  0  0  0  0  0
   40.0666   30.2336   46.7015 H   0  0  0  0  0  0  0  0  0  0  0  0
   38.5358   33.4426   50.7832 H   0  0  0  0  0  0  0  0  0  0  0  0
   40.0681   35.2009   49.8386 H   0  0  0  0  0  0  0  0  0  0  0  0
   40.6980   35.0591   47.4917 H   0  0  0  0  0  0  0  0  0  0  0  0
   39.9122   33.3052   46.0461 H   0  0  0  0  0  0  0  0  0  0  0  0
   39.1608   30.1756   50.0701 H   0  0  0  0  0  0  0  0  0  0  0  0
   35.6546   32.2623   48.9425 H   0  0  0  0  0  0  0  0  0  0  0  0
   36.1183   30.8085   46.0440 H   0  0  0  0  0  0  0  0  0  0  0  0
   36.7678   31.6797   45.0220 H   0  0  0  0  0  0  0  0  0  0  0  0
   34.1889   29.3397   52.5633 O   0  0  0  0  0  0  0  0  0  0  0  0
   34.0127   28.4730   51.6545 C   0  0  0  0  0  0  0  0  0  0  0  0
   35.2740   28.1210   50.9900 C   0  0  1  0  0  0  0  0  0  0  0  0
   34.7972   27.1651   49.8918 C   0  0  1  0  0  0  0  0  0  0  0  0
   34.4146   27.6957   49.0013 H   0  0  0  0  0  0  0  0  0  0  0  0
   33.5997   26.5378   50.5788 C   0  0  1  0  0  0  0  0  0  0  0  0
   32.9781   25.9572   49.8894 H   0  0  0  0  0  0  0  0  0  0  0  0
   32.9232   27.7380   51.0922 N   0  0  0  0  0  0  0  0  0  0  0  0
   35.9617   27.5074   51.6141 H   0  0  0  0  0  0  0  0  0  0  0  0
   35.5783   26.4142   49.6581 H   0  0  0  0  0  0  0  0  0  0  0  0
   33.9672   25.9837   51.4643 H   0  0  0  0  0  0  0  0  0  0  0  0
   31.9766   28.2137   51.1837 H   0  0  0  0  0  0  0  0  0  0  0  0
  1  2  2  0
  2  8  1  0
  2  3  1  0
  4  3  2  0
  5  4  1  0
  6  1  1  0
  6  5  2  0
  7 12  2  0
  8  7  1  0
  9  8  2  0
  9 10  1  0
 10 11  2  0
 11 12  1  0
 13 14  2  0
 13 16  1  0
 14  1  1  0
 15 14  1  0
  3 17  1  0
  4 18  1  0
  5 19  1  0
  6 20  1  0
  7 21  1  0
  9 22  1  0
 15 23  1  0
 15 24  1  0
 25 26  2  0
 26 27  1  0
 27 28  1  0
 28 29  1  6
 28 30  1  0
 30 31  1  6
 30 32  1  0
 32 26  1  0
 27 33  1  1
 28 34  1  0
 30 35  1  0
 32 36  1  0
 11 27  1  0
M  ISO  8  17  14  18  14  19  14  20  14  21  14  22  14  29   8  31   8
M  END
>  <DihAtoms>  (1) 
9,10,26,25

>  <DihDeg>  (1) 
129.59898146900977

$$$$
