
 OpenBabel03272510203D

 36 39  0  0  1  0  0  0  0  0999 V2000
   37.3460   29.1960   50.8450 Br  0  0  0  0  0  0  0  0  0  0  0  0
   35.9850   29.3190   49.5120 C   0  0  0  0  0  0  0  0  0  0  0  0
   36.0070   30.3310   48.5670 C   0  0  0  0  0  0  0  0  0  0  0  0
   34.9960   30.3700   47.6290 C   0  0  0  0  0  0  0  0  0  0  0  0
   33.9670   29.4370   47.5970 C   0  0  0  0  0  0  0  0  0  0  0  0
   33.9710   28.4510   48.5410 C   0  0  0  0  0  0  0  0  0  0  0  0
   34.9780   28.4030   49.4860 C   0  0  0  0  0  0  0  0  0  0  0  0
   35.0190   31.1510   46.9040 H   0  0  0  0  0  0  0  0  0  0  0  0
   33.2060   27.6830   48.5900 H   0  0  0  0  0  0  0  0  0  0  0  0
   34.9800   27.6220   50.2310 H   0  0  0  0  0  0  0  0  0  0  0  0
   37.9780   33.2280   49.5810 C   0  0  0  0  0  0  0  0  0  0  0  0
   39.0450   33.2480   48.6320 C   0  0  0  0  0  0  0  0  0  0  0  0
   39.0610   32.2620   47.6620 C   0  0  0  0  0  0  0  0  0  0  0  0
   38.0670   31.3160   47.6480 N   0  0  0  0  0  0  0  0  0  0  0  0
   37.0730   31.3310   48.5670 C   0  0  0  0  0  0  0  0  0  0  0  0
   37.0290   32.2890   49.5350 N   0  0  0  0  0  0  0  0  0  0  0  0
   38.0000   34.0160   50.3260 H   0  0  0  0  0  0  0  0  0  0  0  0
   39.8030   34.0240   48.6950 H   0  0  0  0  0  0  0  0  0  0  0  0
   39.8570   32.2460   46.9250 H   0  0  0  0  0  0  0  0  0  0  0  0
   32.9000   29.4630   46.6210 C   0  0  0  0  0  0  0  0  0  0  0  0
   31.9960   28.4530   46.4050 C   0  0  0  0  0  0  0  0  0  0  0  0
   30.9870   28.5180   45.4570 C   0  0  0  0  0  0  0  0  0  0  0  0
   30.8760   29.6150   44.7060 N   0  0  0  0  0  0  0  0  0  0  0  0
   31.7480   30.6170   44.8960 C   0  0  0  0  0  0  0  0  0  0  0  0
   32.7170   30.5380   45.8170 N   0  0  0  0  0  0  0  0  0  0  0  0
   32.0830   27.5550   47.0180 H   0  0  0  0  0  0  0  0  0  0  0  0
   30.3100   27.6890   45.3390 H   0  0  0  0  0  0  0  0  0  0  0  0
   33.9200   31.6190   42.9470 O   0  0  0  0  0  0  0  0  0  0  0  0
   32.8560   32.1930   43.3380 C   0  0  0  0  0  0  0  0  0  0  0  0
   31.6040   31.8280   44.0460 C   0  0  2  0  0  3  0  0  0  0  0  0
   31.3330   33.0390   44.9180 C   0  0  0  0  0  3  0  0  0  0  0  0
   30.2740   33.1850   45.1390 H   0  0  0  0  0  0  0  0  0  0  0  0
   31.9250   34.2120   44.1440 C   0  0  0  0  0  3  0  0  0  0  0  0
   31.0810   34.8090   43.7630 H   0  0  0  0  0  0  0  0  0  0  0  0
   32.7060   33.6030   43.0750 N   0  0  0  0  0  0  0  0  0  0  0  0
   33.0370   34.2380   42.2980 H   0  0  0  0  0  0  0  0  0  0  0  0
  2  1  1  0  0  0  0
  3 15  1  0  0  0  0
  3  2  2  0  0  0  0
  4  3  1  0  0  0  0
  5  4  2  0  0  0  0
  5  6  1  0  0  0  0
  6  9  1  0  0  0  0
  6  7  2  0  0  0  0
  7  2  1  0  0  0  0
  7 10  1  0  0  0  0
  8  4  1  0  0  0  0
 11 17  1  0  0  0  0
 12 18  1  0  0  0  0
 12 11  2  0  0  0  0
 13 12  1  0  0  0  0
 14 13  2  0  0  0  0
 14 15  1  0  0  0  0
 15 16  2  0  0  0  0
 16 11  1  0  0  0  0
 19 13  1  0  0  0  0
 20  5  1  0  0  0  0
 21 20  1  0  0  0  0
 21 26  1  0  0  0  0
 22 21  2  0  0  0  0
 23 24  2  0  0  0  0
 23 22  1  0  0  0  0
 24 25  1  0  0  0  0
 25 20  2  0  0  0  0
 27 22  1  0  0  0  0
 28 29  2  0  0  0  0
 29 30  1  0  0  0  0
 30 24  1  1  0  0  0
 30 31  1  0  0  0  0
 31 32  1  0  0  0  0
 33 31  1  0  0  0  0
 34 33  1  0  0  0  0
 35 29  1  0  0  0  0
 35 33  1  0  0  0  0
 36 35  1  0  0  0  0
M  END
>  <minimizedAffinity>
-6.54019785

>  <minimizedRMSD>
0.54491955

$$$$
