REMARK  Name = 
REMARK  3 active torsions:
REMARK  status: ('A' for Active; 'I' for Inactive)
REMARK    1  A    between atoms: C_3  and  C_12
REMARK    2  A    between atoms: C_5  and  C_14
REMARK    3  A    between atoms: C_18  and  C_30
REMARK                            x       y       z     vdW  Elec       q    Type
REMARK                         _______ _______ _______ _____ _____    ______ ____
ROOT
ATOM      1 BR   UNL     1      37.317  29.334  51.027  0.00  0.00    +0.000 Br
ATOM      2  C   UNL     1      35.966  29.329  49.677  0.00  0.00    +0.000 A 
ATOM      3  C   UNL     1      35.992  30.252  48.645  0.00  0.00    +0.000 A 
ATOM      4  C   UNL     1      34.989  30.200  47.699  0.00  0.00    +0.000 A 
ATOM      5  C   UNL     1      33.964  29.263  47.743  0.00  0.00    +0.000 A 
ATOM      6  C   UNL     1      33.965  28.367  48.773  0.00  0.00    +0.000 A 
ATOM      7  C   UNL     1      34.964  28.409  49.726  0.00  0.00    +0.000 A 
ATOM      8  H   UNL     1      35.015  30.913  46.907  0.00  0.00    +0.000 HD
ATOM      9  H   UNL     1      33.203  27.602  48.885  0.00  0.00    +0.000 HD
ATOM     10  H   UNL     1      34.963  27.699  50.539  0.00  0.00    +0.000 HD
ENDROOT
BRANCH   3  15
ATOM     11  C   UNL     1      37.985  33.197  49.457  0.00  0.00    +0.000 A 
ATOM     12  C   UNL     1      39.019  33.175  48.473  0.00  0.00    +0.000 A 
ATOM     13  C   UNL     1      39.007  32.145  47.550  0.00  0.00    +0.000 A 
ATOM     14  N   UNL     1      38.017  31.197  47.613  0.00  0.00    +0.000 NA
ATOM     15  C   UNL     1      37.054  31.253  48.563  0.00  0.00    +0.000 A 
ATOM     16  N   UNL     1      37.038  32.255  49.486  0.00  0.00    +0.000 NA
ATOM     17  H   UNL     1      38.028  34.019  50.163  0.00  0.00    +0.000 HD
ATOM     18  H   UNL     1      39.776  33.955  48.475  0.00  0.00    +0.000 HD
ATOM     19  H   UNL     1      39.778  32.097  46.788  0.00  0.00    +0.000 HD
ENDBRANCH   3  15
BRANCH   5  20
ATOM     20  C   UNL     1      32.905  29.195  46.760  0.00  0.00    +0.000 A 
ATOM     21  C   UNL     1      32.256  28.051  46.370  0.00  0.00    +0.000 A 
ATOM     22  C   UNL     1      31.245  28.030  45.422  0.00  0.00    +0.000 A 
ATOM     23  N   UNL     1      30.872  29.175  44.849  0.00  0.00    +0.000 NA
ATOM     24  C   UNL     1      31.492  30.309  45.212  0.00  0.00    +0.000 A 
ATOM     25  N   UNL     1      32.467  30.312  46.130  0.00  0.00    +0.000 NA
ATOM     26  H   UNL     1      32.557  27.112  46.837  0.00  0.00    +0.000 HD
ATOM     27  H   UNL     1      30.776  27.096  45.162  0.00  0.00    +0.000 HD
BRANCH  24  30
ATOM     28  O   UNL     1      33.000  31.639  42.873  0.00  0.00    +0.000 OA
ATOM     29  C   UNL     1      32.052  32.093  43.587  0.00  0.00    +0.000 C 
ATOM     30  C   UNL     1      31.059  31.572  44.559  0.00  0.00    +0.000 C 
ATOM     31  C   UNL     1      30.969  32.679  45.591  0.00  0.00    +0.000 C 
ATOM     32  H   UNL     1      30.003  32.722  46.096  0.00  0.00    +0.000 HD
ATOM     33  C   UNL     1      31.267  33.957  44.811  0.00  0.00    +0.000 C 
ATOM     34  H   UNL     1      30.320  34.514  44.729  0.00  0.00    +0.000 HD
ATOM     35  N   UNL     1      31.761  33.503  43.518  0.00  0.00    +0.000 N 
ATOM     36  H   UNL     1      31.835  34.226  42.750  0.00  0.00    +0.000 HD
ENDBRANCH  24  30
ENDBRANCH   5  20
TORSDOF 3
