
     RDKit          3D

 33 35  0  0  0  0  0  0  0  0999 V2000
   37.7255   33.2180   49.4474 Cl  0  0  0  0  0  0  0  0  0  0  0  0
   38.2875   32.2951   48.0847 C   0  0  0  0  0  0  0  0  0  0  0  0
   37.7662   31.0416   47.8108 C   0  0  0  0  0  0  0  0  0  0  0  0
   38.2624   30.3812   46.7202 C   0  0  0  0  0  0  0  0  0  0  0  0
   39.2401   30.8924   45.8928 C   0  0  0  0  0  0  0  0  0  0  0  0
   39.7418   32.1728   46.2104 C   0  0  0  0  0  0  0  0  0  0  0  0
   40.9727   32.7977   45.1553 Cl  0  0  0  0  0  0  0  0  0  0  0  0
   39.2749   32.8792   47.2985 C   0  0  0  0  0  0  0  0  0  0  0  0
   36.0652   29.4359   50.7970 C   0  0  0  0  0  0  0  0  0  0  0  0
   37.0363   29.9220   49.9172 C   0  0  0  0  0  0  0  0  0  0  0  0
   36.7419   30.5457   48.7067 C   0  0  0  0  0  0  0  0  0  0  0  0
   35.4217   30.6508   48.4353 N   0  0  0  0  0  0  0  0  0  0  0  0
   34.4894   30.1823   49.2835 C   0  0  0  0  0  0  0  0  0  0  0  0
   34.7764   29.5927   50.4283 N   0  0  0  0  0  0  0  0  0  0  0  0
   38.3988   29.7556   50.3080 N   0  0  0  0  0  0  0  0  0  0  0  0
   37.8241   29.3969   46.5407 H   0  0  0  0  0  0  0  0  0  0  0  0
   39.6115   30.3529   45.0436 H   0  0  0  0  0  0  0  0  0  0  0  0
   39.6843   33.8626   47.5129 H   0  0  0  0  0  0  0  0  0  0  0  0
   36.3770   28.9614   51.7227 H   0  0  0  0  0  0  0  0  0  0  0  0
   38.7156   28.8445   50.7057 H   0  0  0  0  0  0  0  0  0  0  0  0
   39.1379   30.4837   50.2322 H   0  0  0  0  0  0  0  0  0  0  0  0
   33.2564   32.7926   48.5637 O   0  0  0  0  0  0  0  0  0  0  0  0
   33.0726   31.6503   48.0690 C   0  0  0  0  0  0  0  0  0  0  0  0
   33.0697   30.3663   48.8557 C   0  0  1  0  0  0  0  0  0  0  0  0
   32.6391   29.3232   47.8720 C   0  0  2  0  0  0  0  0  0  0  0  0
   31.8363   28.6490   48.2414 H   0  0  0  0  0  0  0  0  0  0  0  0
   32.1380   30.0983   46.6559 C   0  0  1  0  0  0  0  0  0  0  0  0
   32.3834   29.5260   45.7426 H   0  0  0  0  0  0  0  0  0  0  0  0
   32.8376   31.3736   46.6930 N   0  0  0  0  0  0  0  0  0  0  0  0
   32.3953   30.4740   49.7196 H   0  0  0  0  0  0  0  0  0  0  0  0
   33.4657   28.6211   47.5734 H   0  0  0  0  0  0  0  0  0  0  0  0
   31.0519   30.3317   46.7505 H   0  0  0  0  0  0  0  0  0  0  0  0
   33.0997   31.9462   45.8569 H   0  0  0  0  0  0  0  0  0  0  0  0
  2  1  1  0
  3  2  2  0
  3 11  1  0
  4  3  1  0
  5  6  1  0
  5  4  2  0
  6  8  2  0
  7  6  1  0
  8  2  1  0
 10 15  1  0
 10  9  2  0
 11 10  1  0
 12 11  2  0
 12 13  1  0
 13 14  2  0
 14  9  1  0
  4 16  1  0
  5 17  1  0
  8 18  1  0
  9 19  1  0
 15 20  1  0
 15 21  1  0
 22 23  2  0
 23 24  1  0
 24 25  1  0
 25 26  1  1
 25 27  1  0
 27 28  1  6
 27 29  1  0
 29 23  1  0
 24 30  1  1
 25 31  1  0
 27 32  1  0
 29 33  1  0
 13 24  1  0
M  ISO  6  16  14  17  14  18  14  19  14  26   8  28   8
M  END
>  <DihAtoms>  (1) 
11,12,23,22

>  <DihDeg>  (1) 
117.91134077941174

$$$$
