
 OpenBabel03272506463D

 42 44  0  0  1  0  0  0  0  0999 V2000
   32.1660   28.5340   47.3530 C   0  0  2  0  0  0  0  0  0  0  0  0
   33.4060   28.3610   48.1820 C   0  0  1  0  0  0  0  0  0  0  0  0
   33.8350   27.0770   48.0350 O   0  0  0  0  0  0  0  0  0  0  0  0
   33.1580   26.4830   46.9740 C   0  0  0  0  0  0  0  0  0  0  0  0
   32.5390   27.5950   46.1640 C   0  0  1  0  0  0  0  0  0  0  0  0
   31.2450   28.1560   47.7920 H   0  0  0  0  0  0  0  0  0  0  0  0
   33.2060   28.6210   49.2390 H   0  0  0  0  0  0  0  0  0  0  0  0
   33.8620   25.8840   46.3320 H   0  0  0  0  0  0  0  0  0  0  0  0
   32.4770   25.7640   47.4080 H   0  0  0  0  0  0  0  0  0  0  0  0
   33.2810   28.1170   45.5680 H   0  0  0  0  0  0  0  0  0  0  0  0
   32.0720   29.8590   46.8760 O   0  0  0  0  0  0  0  0  0  0  0  0
   32.3660   29.8660   45.9330 H   0  0  0  0  0  0  0  0  0  0  0  0
   34.6970   29.4710   47.4920 S   0  0  0  0  0  0  0  0  0  0  0  0
   37.1010   29.2400   50.6330 C   0  0  0  0  0  0  0  0  0  0  0  0
   37.5710   30.5310   50.8340 C   0  0  0  0  0  0  0  0  0  0  0  0
   37.1220   31.5270   49.9510 C   0  0  0  0  0  0  0  0  0  0  0  0
   36.2580   31.1810   48.9550 N   0  0  0  0  0  0  0  0  0  0  0  0
   35.8320   29.9050   48.8070 C   0  0  0  0  0  0  0  0  0  0  0  0
   36.2470   28.9160   49.6420 N   0  0  0  0  0  0  0  0  0  0  0  0
   37.4340   28.4570   51.3000 H   0  0  0  0  0  0  0  0  0  0  0  0
   38.2490   30.8110   51.6120 H   0  0  0  0  0  0  0  0  0  0  0  0
   37.4330   32.5610   50.0290 H   0  0  0  0  0  0  0  0  0  0  0  0
   31.4160   27.1230   45.5330 O   0  0  0  0  0  0  0  0  0  0  0  0
   29.8370   29.2230   44.2080 Cl  0  0  0  0  0 15  0  0  0  0  0  0
   29.3390   28.1190   45.4700 C   0  0  0  0  0  3  0  0  0  0  0  0
   30.1740   27.1660   46.0090 C   0  0  0  0  0  0  0  0  0  0  0  0
   29.6570   26.3260   46.9980 C   0  0  0  0  0  0  0  0  0  0  0  0
   28.3520   26.4540   47.4180 C   0  0  0  0  0  0  0  0  0  0  0  0
   27.5070   27.4080   46.8830 C   0  0  0  0  0  0  0  0  0  0  0  0
   28.0090   28.2440   45.9020 C   0  0  0  0  0  0  0  0  0  0  0  0
   30.2290   25.5490   47.4730 H   0  0  0  0  0  0  0  0  0  0  0  0
   27.9010   25.8380   48.1740 H   0  0  0  0  0  0  0  0  0  0  0  0
   26.4660   27.5430   47.1890 H   0  0  0  0  0  0  0  0  0  0  0  0
   25.3050   27.9750   44.3720 O   0  0  0  0  0  0  0  0  0  0  0  0
   26.2960   28.7550   44.2100 C   0  0  0  0  0  0  0  0  0  0  0  0
   27.1180   29.2730   45.3180 C   0  0  2  0  0  3  0  0  0  0  0  0
   27.8680   30.4140   44.6850 C   0  0  0  0  0  3  0  0  0  0  0  0
   28.9520   30.2010   44.5600 H   0  0  0  0  0  0  0  0  0  0  0  0
   27.3120   30.6130   43.2890 C   0  0  0  0  0  3  0  0  0  0  0  0
   26.5080   31.3750   43.2460 H   0  0  0  0  0  0  0  0  0  0  0  0
   26.8170   29.2840   42.9760 N   0  0  0  0  0  0  0  0  0  0  0  0
   26.7920   28.7250   42.0760 H   0  0  0  0  0  0  0  0  0  0  0  0
  1  6  1  1  0  0  0
  1  2  1  0  0  0  0
  2  7  1  1  0  0  0
  3  2  1  0  0  0  0
  4  9  1  0  0  0  0
  4  3  1  0  0  0  0
  5 10  1  6  0  0  0
  5  4  1  0  0  0  0
  5  1  1  0  0  0  0
  8  4  1  0  0  0  0
 11  1  1  0  0  0  0
 12 11  1  0  0  0  0
 13  2  1  0  0  0  0
 13 18  1  0  0  0  0
 14 15  1  0  0  0  0
 14 20  1  0  0  0  0
 15 21  1  0  0  0  0
 16 22  1  0  0  0  0
 16 15  2  0  0  0  0
 17 16  1  0  0  0  0
 18 17  2  0  0  0  0
 18 19  1  0  0  0  0
 19 14  2  0  0  0  0
 23 26  1  0  0  0  0
 23  5  1  0  0  0  0
 25 30  2  0  0  0  0
 25 26  1  0  0  0  0
 26 27  2  0  0  0  0
 27 28  1  0  0  0  0
 27 31  1  0  0  0  0
 28 32  1  0  0  0  0
 29 33  1  0  0  0  0
 29 28  2  0  0  0  0
 30 29  1  0  0  0  0
 35 34  2  0  0  0  0
 35 36  1  0  0  0  0
 36 30  1  6  0  0  0
 37 36  1  0  0  0  0
 38 37  1  0  0  0  0
 39 37  1  0  0  0  0
 40 39  1  0  0  0  0
 41 39  1  0  0  0  0
 41 35  1  0  0  0  0
 42 41  1  0  0  0  0
M  END
>  <minimizedAffinity>
-5.08118343

>  <minimizedRMSD>
0.52554965

$$$$
