
 OpenBabel03272504323D

 40 43  0  0  1  0  0  0  0  0999 V2000
   34.9320   29.5630   47.5490 C   0  0  0  0  0  0  0  0  0  0  0  0
   35.0720   29.9180   46.2170 C   0  0  0  0  0  0  0  0  0  0  0  0
   34.0180   29.7480   45.3350 C   0  0  0  0  0  0  0  0  0  0  0  0
   32.8620   29.2260   45.8350 N   0  0  0  0  0  0  0  0  0  0  0  0
   32.7530   28.8890   47.1410 C   0  0  0  0  0  0  0  0  0  0  0  0
   33.7740   29.0530   47.9980 N   0  0  0  0  0  0  0  0  0  0  0  0
   36.0250   30.3190   45.9280 H   0  0  0  0  0  0  0  0  0  0  0  0
   34.1360   30.0270   44.3000 H   0  0  0  0  0  0  0  0  0  0  0  0
   35.9790   29.7120   48.5100 N   0  0  0  0  0  0  0  0  0  0  0  0
   36.0880   28.8590   49.6860 C   0  0  0  0  0  0  0  0  0  0  0  0
   36.4140   29.5770   50.9540 C   0  0  0  0  0  0  0  0  0  0  0  0
   37.1390   30.7780   50.8580 N   0  0  0  0  0  0  0  0  0  0  0  0
   36.8350   31.5640   49.6730 C   0  0  0  0  0  0  0  0  0  0  0  0
   37.0390   30.6590   48.4920 C   0  0  0  0  0  0  0  0  0  0  0  0
   36.8710   28.0880   49.4460 H   0  0  0  0  0  0  0  0  0  0  0  0
   35.1340   28.2850   49.7830 H   0  0  0  0  0  0  0  0  0  0  0  0
   35.4530   29.7310   51.5110 H   0  0  0  0  0  0  0  0  0  0  0  0
   36.9970   28.8620   51.6030 H   0  0  0  0  0  0  0  0  0  0  0  0
   38.1590   30.7420   51.0720 H   0  0  0  0  0  0  0  0  0  0  0  0
   35.8190   31.9640   49.7060 H   0  0  0  0  0  0  0  0  0  0  0  0
   37.6260   32.3520   49.6350 H   0  0  0  0  0  0  0  0  0  0  0  0
   38.0160   30.1400   48.5650 H   0  0  0  0  0  0  0  0  0  0  0  0
   37.0150   31.2310   47.5580 H   0  0  0  0  0  0  0  0  0  0  0  0
   31.4840   28.3350   47.6090 C   0  0  0  0  0  0  0  0  0  0  0  0
   31.4560   27.4820   48.6970 C   0  0  0  0  0  0  0  0  0  0  0  0
   30.2920   26.9230   49.1920 C   0  0  0  0  0  0  0  0  0  0  0  0
   29.1610   27.2630   48.5400 N   0  0  0  0  0  0  0  0  0  0  0  0
   29.1930   28.0940   47.4790 C   0  0  0  0  0  0  0  0  0  0  0  0
   30.3300   28.6370   47.0000 N   0  0  0  0  0  0  0  0  0  0  0  0
   32.3880   27.2360   49.1920 H   0  0  0  0  0  0  0  0  0  0  0  0
   30.3360   26.2630   50.0460 H   0  0  0  0  0  0  0  0  0  0  0  0
   27.9860   26.5580   45.1450 O   0  0  0  0  0  0  0  0  0  0  0  0
   27.7790   27.7650   45.4810 C   0  0  0  0  0  0  0  0  0  0  0  0
   27.9340   28.4550   46.7740 C   0  0  2  0  0  3  0  0  0  0  0  0
   27.9250   29.9210   46.3520 C   0  0  0  0  0  3  0  0  0  0  0  0
   28.9110   30.1520   45.9440 H   0  0  0  0  0  0  0  0  0  0  0  0
   26.8830   29.8860   45.2410 C   0  0  0  0  0  3  0  0  0  0  0  0
   25.8960   29.7360   45.7050 H   0  0  0  0  0  0  0  0  0  0  0  0
   27.3140   28.6930   44.5100 N   0  0  0  0  0  0  0  0  0  0  0  0
   27.2560   28.6180   43.4550 H   0  0  0  0  0  0  0  0  0  0  0  0
  1  6  1  0  0  0  0
  1  9  1  0  0  0  0
  2  1  2  0  0  0  0
  3  4  2  0  0  0  0
  3  2  1  0  0  0  0
  4  5  1  0  0  0  0
  5 24  1  0  0  0  0
  5  6  2  0  0  0  0
  7  2  1  0  0  0  0
  8  3  1  0  0  0  0
  9 10  1  0  0  0  0
 10 16  1  0  0  0  0
 10 11  1  0  0  0  0
 11 17  1  0  0  0  0
 11 18  1  0  0  0  0
 12 11  1  0  0  0  0
 12 19  1  0  0  0  0
 13 20  1  0  0  0  0
 13 12  1  0  0  0  0
 14  9  1  0  0  0  0
 14 22  1  0  0  0  0
 14 13  1  0  0  0  0
 15 10  1  0  0  0  0
 21 13  1  0  0  0  0
 23 14  1  0  0  0  0
 24 25  1  0  0  0  0
 25 26  2  0  0  0  0
 25 30  1  0  0  0  0
 26 31  1  0  0  0  0
 27 26  1  0  0  0  0
 28 27  2  0  0  0  0
 29 28  1  0  0  0  0
 29 24  2  0  0  0  0
 32 33  2  0  0  0  0
 33 34  1  0  0  0  0
 34 28  1  6  0  0  0
 35 34  1  0  0  0  0
 36 35  1  0  0  0  0
 37 38  1  0  0  0  0
 37 35  1  0  0  0  0
 39 37  1  0  0  0  0
 39 33  1  0  0  0  0
 40 39  1  0  0  0  0
M  END
>  <minimizedAffinity>
-5.12720251

>  <minimizedRMSD>
0.27808705

$$$$
