
 OpenBabel03272508103D

 34 36  0  0  1  0  0  0  0  0999 V2000
   36.7230   29.4830   44.1780 Cl  0  0  0  0  0  0  0  0  0  0  0  0
   38.3560   29.8420   43.6090 C   0  0  0  0  0  0  0  0  0  0  0  0
   39.3730   30.3490   44.4290 C   0  0  0  0  0  0  0  0  0  0  0  0
   40.6110   30.5870   43.8540 C   0  0  0  0  0  0  0  0  0  0  0  0
   40.8200   30.3280   42.5100 C   0  0  0  0  0  0  0  0  0  0  0  0
   39.8480   29.8380   41.7010 C   0  0  0  0  0  0  0  0  0  0  0  0
   38.6330   29.6030   42.2620 C   0  0  0  0  0  0  0  0  0  0  0  0
   41.3320   30.9700   44.5370 H   0  0  0  0  0  0  0  0  0  0  0  0
   41.8210   30.5450   42.1440 H   0  0  0  0  0  0  0  0  0  0  0  0
   40.0810   29.6590   40.6580 H   0  0  0  0  0  0  0  0  0  0  0  0
   35.8290   30.6040   41.9240 O   0  0  0  0  0  0  0  0  0  0  0  0
   36.2010   29.4020   41.9100 C   0  0  0  0  0  0  0  0  0  0  0  0
   37.5400   29.0590   41.3790 C   0  0  2  0  0  3  0  0  0  0  0  0
   37.6420   27.5460   41.4320 C   0  0  0  0  0  3  0  0  0  0  0  0
   37.3440   27.1070   40.4410 H   0  0  0  0  0  0  0  0  0  0  0  0
   36.6290   27.2060   42.5000 C   0  0  0  0  0  3  0  0  0  0  0  0
   36.2810   26.1610   42.4220 H   0  0  0  0  0  0  0  0  0  0  0  0
   35.5680   28.1760   42.3280 N   0  0  0  0  0  0  0  0  0  0  0  0
   34.5110   28.1690   42.4380 H   0  0  0  0  0  0  0  0  0  0  0  0
   38.9610   30.5340   45.7250 O   0  0  0  0  0  0  0  0  0  0  0  0
   39.4970   32.6390   47.1300 O   0  0  0  0  0  0  0  0  0  0  0  0
   38.3790   31.9270   46.4530 P   0  0  1  0  0  0  0  0  0  0  0  0
   37.7930   32.9050   45.1730 O   0  0  0  0  0  0  0  0  0  0  0  0
   36.9970   32.4280   44.8270 H   0  0  0  0  0  0  0  0  0  0  0  0
   37.0970   31.5320   47.4890 O   0  0  0  0  0  0  0  0  0  0  0  0
   37.6370   30.5080   50.9830 C   0  0  0  0  0  0  0  0  0  0  0  0
   37.7450   31.3260   49.8570 C   0  0  0  0  0  0  0  0  0  0  0  0
   37.1240   30.9170   48.6720 C   0  0  0  0  0  0  0  0  0  0  0  0
   36.4410   29.7290   48.6860 N   0  0  0  0  0  0  0  0  0  0  0  0
   36.3620   28.9710   49.7950 C   0  0  0  0  0  0  0  0  0  0  0  0
   36.9620   29.3680   50.9390 N   0  0  0  0  0  0  0  0  0  0  0  0
   38.1510   30.9240   51.8250 H   0  0  0  0  0  0  0  0  0  0  0  0
   38.2480   32.2670   49.7250 H   0  0  0  0  0  0  0  0  0  0  0  0
   35.8210   28.0270   49.8160 H   0  0  0  0  0  0  0  0  0  0  0  0
  2  1  1  0  0  0  0
  2  3  1  0  0  0  0
  3 20  1  0  0  0  0
  4  3  2  0  0  0  0
  4  8  1  0  0  0  0
  5  4  1  0  0  0  0
  6  7  1  0  0  0  0
  6  5  2  0  0  0  0
  7  2  2  0  0  0  0
  9  5  1  0  0  0  0
 10  6  1  0  0  0  0
 12 11  2  0  0  0  0
 12 18  1  0  0  0  0
 13 14  1  0  0  0  0
 13 12  1  0  0  0  0
 13  7  1  1  0  0  0
 14 16  1  0  0  0  0
 15 14  1  0  0  0  0
 17 16  1  0  0  0  0
 18 19  1  0  0  0  0
 18 16  1  0  0  0  0
 20 22  1  0  0  0  0
 22 21  2  1  0  0  0
 22 25  1  0  0  0  0
 23 22  1  0  0  0  0
 24 23  1  0  0  0  0
 25 28  1  0  0  0  0
 26 32  1  0  0  0  0
 27 26  2  0  0  0  0
 28 29  2  0  0  0  0
 28 27  1  0  0  0  0
 29 30  1  0  0  0  0
 30 34  1  0  0  0  0
 30 31  2  0  0  0  0
 31 26  1  0  0  0  0
 33 27  1  0  0  0  0
M  END
>  <minimizedAffinity>
-4.95333004

>  <minimizedRMSD>
0.158795059

$$$$
