
 OpenBabel03272504323D

 40 43  0  0  1  0  0  0  0  0999 V2000
   35.0920   29.6370   47.5570 C   0  0  0  0  0  0  0  0  0  0  0  0
   35.2230   30.0800   46.2510 C   0  0  0  0  0  0  0  0  0  0  0  0
   34.1830   29.9160   45.3510 C   0  0  0  0  0  0  0  0  0  0  0  0
   33.0500   29.3110   45.8080 N   0  0  0  0  0  0  0  0  0  0  0  0
   32.9500   28.8890   47.0900 C   0  0  0  0  0  0  0  0  0  0  0  0
   33.9570   29.0470   47.9640 N   0  0  0  0  0  0  0  0  0  0  0  0
   36.1580   30.5420   45.9960 H   0  0  0  0  0  0  0  0  0  0  0  0
   34.2940   30.2630   44.3360 H   0  0  0  0  0  0  0  0  0  0  0  0
   36.1250   29.7750   48.5350 N   0  0  0  0  0  0  0  0  0  0  0  0
   36.2200   28.9060   49.7000 C   0  0  0  0  0  0  0  0  0  0  0  0
   36.5260   29.6070   50.9830 C   0  0  0  0  0  0  0  0  0  0  0  0
   37.2490   30.8110   50.9140 N   0  0  0  0  0  0  0  0  0  0  0  0
   36.9590   31.6130   49.7370 C   0  0  0  0  0  0  0  0  0  0  0  0
   37.1820   30.7260   48.5450 C   0  0  0  0  0  0  0  0  0  0  0  0
   37.0090   28.1410   49.4590 H   0  0  0  0  0  0  0  0  0  0  0  0
   35.2670   28.3280   49.7760 H   0  0  0  0  0  0  0  0  0  0  0  0
   35.5570   29.7500   51.5290 H   0  0  0  0  0  0  0  0  0  0  0  0
   37.1030   28.8840   51.6290 H   0  0  0  0  0  0  0  0  0  0  0  0
   38.2660   30.7740   51.1420 H   0  0  0  0  0  0  0  0  0  0  0  0
   35.9420   32.0100   49.7610 H   0  0  0  0  0  0  0  0  0  0  0  0
   37.7480   32.4030   49.7200 H   0  0  0  0  0  0  0  0  0  0  0  0
   38.1600   30.2080   48.6250 H   0  0  0  0  0  0  0  0  0  0  0  0
   37.1700   31.3100   47.6190 H   0  0  0  0  0  0  0  0  0  0  0  0
   31.7050   28.2490   47.5130 C   0  0  0  0  0  0  0  0  0  0  0  0
   31.7400   27.0850   48.2580 C   0  0  0  0  0  0  0  0  0  0  0  0
   30.6030   26.4280   48.6900 C   0  0  0  0  0  0  0  0  0  0  0  0
   29.4320   26.9970   48.3350 N   0  0  0  0  0  0  0  0  0  0  0  0
   29.4030   28.1320   47.6070 C   0  0  0  0  0  0  0  0  0  0  0  0
   30.5140   28.7690   47.1880 N   0  0  0  0  0  0  0  0  0  0  0  0
   32.7020   26.6620   48.5220 H   0  0  0  0  0  0  0  0  0  0  0  0
   30.6960   25.5220   49.2700 H   0  0  0  0  0  0  0  0  0  0  0  0
   28.6790   29.1270   44.8230 O   0  0  0  0  0  0  0  0  0  0  0  0
   28.1530   29.4480   45.9340 C   0  0  0  0  0  0  0  0  0  0  0  0
   28.1010   28.7430   47.2270 C   0  0  2  0  0  3  0  0  0  0  0  0
   27.7040   29.8640   48.1820 C   0  0  0  0  0  3  0  0  0  0  0  0
   28.5960   30.4630   48.3760 H   0  0  0  0  0  0  0  0  0  0  0  0
   26.7220   30.6390   47.3110 C   0  0  0  0  0  3  0  0  0  0  0  0
   25.8070   30.0360   47.2120 H   0  0  0  0  0  0  0  0  0  0  0  0
   27.4660   30.6880   46.0510 N   0  0  0  0  0  0  0  0  0  0  0  0
   27.4430   31.5270   45.4060 H   0  0  0  0  0  0  0  0  0  0  0  0
  1  6  1  0  0  0  0
  1  9  1  0  0  0  0
  2  1  2  0  0  0  0
  3  4  2  0  0  0  0
  3  2  1  0  0  0  0
  4  5  1  0  0  0  0
  5 24  1  0  0  0  0
  5  6  2  0  0  0  0
  7  2  1  0  0  0  0
  8  3  1  0  0  0  0
  9 14  1  0  0  0  0
  9 10  1  0  0  0  0
 10 16  1  0  0  0  0
 10 11  1  0  0  0  0
 11 17  1  0  0  0  0
 11 18  1  0  0  0  0
 12 11  1  0  0  0  0
 12 19  1  0  0  0  0
 13 20  1  0  0  0  0
 13 12  1  0  0  0  0
 14 22  1  0  0  0  0
 14 13  1  0  0  0  0
 15 10  1  0  0  0  0
 21 13  1  0  0  0  0
 23 14  1  0  0  0  0
 24 25  1  0  0  0  0
 25 30  1  0  0  0  0
 25 26  2  0  0  0  0
 26 31  1  0  0  0  0
 27 26  1  0  0  0  0
 28 27  2  0  0  0  0
 29 24  2  0  0  0  0
 29 28  1  0  0  0  0
 32 33  2  0  0  0  0
 33 39  1  0  0  0  0
 33 34  1  0  0  0  0
 34 28  1  1  0  0  0
 34 35  1  0  0  0  0
 35 36  1  0  0  0  0
 37 35  1  0  0  0  0
 38 37  1  0  0  0  0
 39 37  1  0  0  0  0
 40 39  1  0  0  0  0
M  END
>  <minimizedAffinity>
-5.247015

>  <minimizedRMSD>
0.497629941

$$$$
