
     RDKit          3D

 36 38  0  0  0  0  0  0  0  0999 V2000
   33.5948   28.7107   49.0357 N   0  0  0  0  0  0  0  0  0  0  0  0
   34.4367   29.8827   48.9334 C   0  0  2  0  0  0  0  0  0  0  0  0
   34.3767   30.3836   47.5056 C   0  0  0  0  0  0  0  0  0  0  0  0
   33.2452   29.8647   46.8440 O   0  0  0  0  0  0  0  0  0  0  0  0
   33.5458   28.4970   46.6588 C   0  0  0  0  0  0  0  0  0  0  0  0
   33.9238   27.8141   47.9511 C   0  0  2  0  0  0  0  0  0  0  0  0
   33.1767   26.6299   48.1146 O   0  0  0  0  0  0  0  0  0  0  0  0
   36.1775   29.4514   49.3146 S   0  0  0  0  0  0  0  0  0  0  0  0
   37.2846   30.7358   48.8105 C   0  0  0  0  0  0  0  0  0  0  0  0
   37.2220   31.8702   49.6548 C   0  0  0  0  0  0  0  0  0  0  0  0
   38.0428   32.9503   49.3675 C   0  0  0  0  0  0  0  0  0  0  0  0
   38.8731   32.8623   48.2790 N   0  0  0  0  0  0  0  0  0  0  0  0
   38.9083   31.7722   47.4985 C   0  0  0  0  0  0  0  0  0  0  0  0
   38.1180   30.7143   47.7630 N   0  0  0  0  0  0  0  0  0  0  0  0
   32.6061   28.9648   49.0845 H   0  0  0  0  0  0  0  0  0  0  0  0
   34.1282   30.6393   49.6629 H   0  0  0  0  0  0  0  0  0  0  0  0
   35.2586   30.0633   46.9160 H   0  0  0  0  0  0  0  0  0  0  0  0
   34.3278   31.4958   47.5552 H   0  0  0  0  0  0  0  0  0  0  0  0
   32.7169   27.9935   46.1453 H   0  0  0  0  0  0  0  0  0  0  0  0
   34.4137   28.5007   45.9510 H   0  0  0  0  0  0  0  0  0  0  0  0
   35.0118   27.6103   47.9844 H   0  0  0  0  0  0  0  0  0  0  0  0
   33.8040   25.8665   48.0789 H   0  0  0  0  0  0  0  0  0  0  0  0
   36.6080   32.0091   50.5096 H   0  0  0  0  0  0  0  0  0  0  0  0
   38.0513   33.8518   49.9663 H   0  0  0  0  0  0  0  0  0  0  0  0
   38.0984   32.8870   44.7506 O   0  0  0  0  0  0  0  0  0  0  0  0
   39.1358   32.2476   45.0974 C   0  0  0  0  0  0  0  0  0  0  0  0
   39.8329   31.7462   46.3349 C   0  0  2  0  0  0  0  0  0  0  0  0
   40.2211   30.3727   45.8915 C   0  0  1  0  0  0  0  0  0  0  0  0
   41.0193   29.9534   46.5546 H   0  0  0  0  0  0  0  0  0  0  0  0
   40.7413   30.6304   44.4802 C   0  0  1  0  0  0  0  0  0  0  0  0
   41.8262   30.9116   44.5051 H   0  0  0  0  0  0  0  0  0  0  0  0
   40.0102   31.8039   44.0536 N   0  0  0  0  0  0  0  0  0  0  0  0
   40.7430   32.3513   46.4968 H   0  0  0  0  0  0  0  0  0  0  0  0
   39.3457   29.7054   45.7917 H   0  0  0  0  0  0  0  0  0  0  0  0
   40.5605   29.7535   43.8207 H   0  0  0  0  0  0  0  0  0  0  0  0
   40.1839   32.1899   43.0788 H   0  0  0  0  0  0  0  0  0  0  0  0
  2  1  1  0
  2  8  1  0
  3  2  1  0
  4  3  1  0
  5  4  1  0
  5  6  1  0
  6  7  1  0
  6  1  1  0
  9  8  1  0
  9 10  2  0
 11 10  1  0
 12 11  2  0
 13 14  2  0
 13 12  1  0
 14  9  1  0
  1 15  1  0
  2 16  1  1
  3 17  1  0
  3 18  1  0
  5 19  1  0
  5 20  1  0
  6 21  1  6
  7 22  1  0
 10 23  1  0
 11 24  1  0
 25 26  2  0
 26 27  1  0
 27 28  1  0
 28 29  1  1
 28 30  1  0
 30 31  1  1
 30 32  1  0
 32 26  1  0
 27 33  1  1
 28 34  1  0
 30 35  1  0
 32 36  1  0
 13 27  1  0
M  ISO  8  15   5  16  13  17  13  18  13  19  13  20  13  21  13  22   3
M  ISO  4  23  14  24  14  29   8  31   8
M  END
>  <DihAtoms>  (1) 
13,12,26,25

>  <DihDeg>  (1) 
-121.78846915720233

$$$$
