
 OpenBabel03272504333D

 40 43  0  0  1  0  0  0  0  0999 V2000
   35.0590   29.6160   47.5580 C   0  0  0  0  0  0  0  0  0  0  0  0
   35.2180   30.0400   46.2480 C   0  0  0  0  0  0  0  0  0  0  0  0
   34.1880   29.8880   45.3350 C   0  0  0  0  0  0  0  0  0  0  0  0
   33.0360   29.3130   45.7830 N   0  0  0  0  0  0  0  0  0  0  0  0
   32.9080   28.9100   47.0690 C   0  0  0  0  0  0  0  0  0  0  0  0
   33.9060   29.0560   47.9550 N   0  0  0  0  0  0  0  0  0  0  0  0
   36.1670   30.4790   46.0010 H   0  0  0  0  0  0  0  0  0  0  0  0
   34.3210   30.2210   44.3180 H   0  0  0  0  0  0  0  0  0  0  0  0
   36.0810   29.7440   48.5490 N   0  0  0  0  0  0  0  0  0  0  0  0
   36.1440   28.8830   49.7220 C   0  0  0  0  0  0  0  0  0  0  0  0
   36.4450   29.5880   51.0030 C   0  0  0  0  0  0  0  0  0  0  0  0
   37.1910   30.7780   50.9350 N   0  0  0  0  0  0  0  0  0  0  0  0
   36.9330   31.5760   49.7470 C   0  0  0  0  0  0  0  0  0  0  0  0
   37.1550   30.6740   48.5660 C   0  0  0  0  0  0  0  0  0  0  0  0
   36.9210   28.1010   49.4990 H   0  0  0  0  0  0  0  0  0  0  0  0
   35.1790   28.3220   49.7890 H   0  0  0  0  0  0  0  0  0  0  0  0
   35.4720   29.7540   51.5340 H   0  0  0  0  0  0  0  0  0  0  0  0
   36.9990   28.8600   51.6630 H   0  0  0  0  0  0  0  0  0  0  0  0
   38.2040   30.7240   51.1770 H   0  0  0  0  0  0  0  0  0  0  0  0
   35.9230   31.9910   49.7540 H   0  0  0  0  0  0  0  0  0  0  0  0
   37.7370   32.3510   49.7350 H   0  0  0  0  0  0  0  0  0  0  0  0
   38.1220   30.1390   48.6630 H   0  0  0  0  0  0  0  0  0  0  0  0
   37.1670   31.2510   47.6350 H   0  0  0  0  0  0  0  0  0  0  0  0
   31.6430   28.3020   47.4800 C   0  0  0  0  0  0  0  0  0  0  0  0
   31.6170   27.3820   48.5110 C   0  0  0  0  0  0  0  0  0  0  0  0
   30.4580   26.7690   48.9510 C   0  0  0  0  0  0  0  0  0  0  0  0
   29.3290   27.1270   48.3030 N   0  0  0  0  0  0  0  0  0  0  0  0
   29.3610   28.0250   47.2970 C   0  0  0  0  0  0  0  0  0  0  0  0
   30.4920   28.6190   46.8720 N   0  0  0  0  0  0  0  0  0  0  0  0
   32.5470   27.1240   49.0050 H   0  0  0  0  0  0  0  0  0  0  0  0
   30.5030   26.0580   49.7630 H   0  0  0  0  0  0  0  0  0  0  0  0
   28.5910   27.1570   44.4830 O   0  0  0  0  0  0  0  0  0  0  0  0
   28.1550   28.1490   45.1460 C   0  0  0  0  0  0  0  0  0  0  0  0
   28.1040   28.4040   46.5960 C   0  0  2  0  0  3  0  0  0  0  0  0
   27.8670   29.9100   46.6430 C   0  0  0  0  0  3  0  0  0  0  0  0
   28.8200   30.4010   46.4420 H   0  0  0  0  0  0  0  0  0  0  0  0
   26.9190   30.0810   45.4630 C   0  0  0  0  0  3  0  0  0  0  0  0
   25.9460   29.6470   45.7410 H   0  0  0  0  0  0  0  0  0  0  0  0
   27.5980   29.2610   44.4560 N   0  0  0  0  0  0  0  0  0  0  0  0
   27.6200   29.5190   43.4300 H   0  0  0  0  0  0  0  0  0  0  0  0
  1  6  1  0  0  0  0
  1  9  1  0  0  0  0
  2  1  2  0  0  0  0
  3  4  2  0  0  0  0
  3  2  1  0  0  0  0
  4  5  1  0  0  0  0
  5 24  1  0  0  0  0
  5  6  2  0  0  0  0
  7  2  1  0  0  0  0
  8  3  1  0  0  0  0
  9 14  1  0  0  0  0
  9 10  1  0  0  0  0
 10 16  1  0  0  0  0
 10 11  1  0  0  0  0
 11 17  1  0  0  0  0
 11 18  1  0  0  0  0
 12 11  1  0  0  0  0
 12 19  1  0  0  0  0
 13 20  1  0  0  0  0
 13 12  1  0  0  0  0
 14 22  1  0  0  0  0
 14 13  1  0  0  0  0
 15 10  1  0  0  0  0
 21 13  1  0  0  0  0
 23 14  1  0  0  0  0
 24 25  1  0  0  0  0
 25 26  2  0  0  0  0
 25 30  1  0  0  0  0
 26 31  1  0  0  0  0
 27 26  1  0  0  0  0
 28 27  2  0  0  0  0
 29 28  1  0  0  0  0
 29 24  2  0  0  0  0
 32 33  2  0  0  0  0
 33 34  1  0  0  0  0
 34 35  1  0  0  0  0
 34 28  1  1  0  0  0
 36 35  1  0  0  0  0
 37 38  1  0  0  0  0
 37 35  1  0  0  0  0
 39 33  1  0  0  0  0
 39 37  1  0  0  0  0
 40 39  1  0  0  0  0
M  END
>  <minimizedAffinity>
-5.08171129

>  <minimizedRMSD>
0.0713743046

$$$$
