
 OpenBabel03272509043D

 33 35  0  0  1  0  0  0  0  0999 V2000
   37.3670   30.1290   51.5760 C   0  0  0  0  0  0  0  0  0  0  0  0
   38.0830   30.7170   50.5100 C   0  0  0  0  0  0  0  0  0  0  0  0
   37.5640   30.5350   49.1920 C   0  0  0  0  0  0  0  0  0  0  0  0
   36.4220   29.8070   49.0990 N   0  0  0  0  0  0  0  0  0  0  0  0
   35.7790   29.2710   50.1330 C   0  0  0  0  0  0  0  0  0  0  0  0
   36.2500   29.4320   51.3710 N   0  0  0  0  0  0  0  0  0  0  0  0
   37.8060   30.2990   52.5540 H   0  0  0  0  0  0  0  0  0  0  0  0
   38.9880   31.2890   50.6090 H   0  0  0  0  0  0  0  0  0  0  0  0
   38.5310   33.5150   48.9260 O   0  0  0  0  0  0  0  0  0  0  0  0
   38.4970   32.5590   48.1070 C   0  0  0  0  0  0  0  0  0  0  0  0
   38.2110   31.0910   48.0060 C   0  0  2  0  0  0  0  0  0  0  0  0
   37.3970   31.0420   46.7570 C   0  0  0  0  0  0  0  0  0  0  0  0
   36.4150   31.5590   46.9050 H   0  0  0  0  0  0  0  0  0  0  0  0
   38.2080   31.9500   45.8280 C   0  0  0  0  0  0  0  0  0  0  0  0
   37.5750   32.4330   45.0600 H   0  0  0  0  0  0  0  0  0  0  0  0
   38.8350   32.8740   46.7400 N   0  0  0  0  0  0  0  0  0  0  0  0
   39.4240   33.6040   46.2370 H   0  0  0  0  0  0  0  0  0  0  0  0
   34.5800   28.5320   49.8260 C   0  0  0  0  0  0  0  0  0  0  0  0
   34.3960   28.0980   48.6150 C   0  0  0  0  0  0  0  0  0  0  0  0
   33.2640   27.3320   48.0780 C   0  0  0  0  0  0  0  0  0  0  0  0
   32.5360   27.9970   47.5550 H   0  0  0  0  0  0  0  0  0  0  0  0
   32.7070   26.8140   48.8690 H   0  0  0  0  0  0  0  0  0  0  0  0
   33.6940   26.3000   47.0760 C   0  0  0  0  0  0  0  0  0  0  0  0
   33.9430   24.9760   47.3180 C   0  0  0  0  0  0  0  0  0  0  0  0
   34.3350   24.1310   46.2990 C   0  0  0  0  0  0  0  0  0  0  0  0
   34.4910   24.5880   44.9980 C   0  0  0  0  0  0  0  0  0  0  0  0
   34.2480   25.9060   44.7320 C   0  0  0  0  0  0  0  0  0  0  0  0
   33.8540   26.7600   45.7550 C   0  0  0  0  0  0  0  0  0  0  0  0
   33.8080   24.6550   48.3570 H   0  0  0  0  0  0  0  0  0  0  0  0
   34.5240   23.0870   46.5260 H   0  0  0  0  0  0  0  0  0  0  0  0
   34.7960   23.9490   44.1890 H   0  0  0  0  0  0  0  0  0  0  0  0
   34.3450   26.3520   43.7440 H   0  0  0  0  0  0  0  0  0  0  0  0
   33.6640   27.8110   45.5250 H   0  0  0  0  0  0  0  0  0  0  0  0
  1  7  1  0  0  0  0
  2  8  1  0  0  0  0
  2  1  2  0  0  0  0
  3  2  1  0  0  0  0
  4  3  2  0  0  0  0
  4  5  1  0  0  0  0
  5  6  2  0  0  0  0
  6  1  1  0  0  0  0
 10  9  2  0  0  0  0
 11 10  1  0  0  0  0
 11  3  1  1  0  0  0
 12 13  1  0  0  0  0
 12 11  1  0  0  0  0
 14 16  1  0  0  0  0
 14 12  1  0  0  0  0
 15 14  1  0  0  0  0
 16 10  1  0  0  0  0
 17 16  1  0  0  0  0
 18  5  1  0  0  0  0
 19 18  2  0  0  0  0
 20 19  1  0  0  0  0
 20 22  1  0  0  0  0
 21 20  1  0  0  0  0
 23 24  1  0  0  0  0
 23 20  1  0  0  0  0
 24 29  1  0  0  0  0
 25 30  1  0  0  0  0
 25 24  2  0  0  0  0
 26 25  1  0  0  0  0
 27 26  2  0  0  0  0
 27 28  1  0  0  0  0
 28 23  2  0  0  0  0
 31 26  1  0  0  0  0
 32 27  1  0  0  0  0
 33 28  1  0  0  0  0
M  END
>  <minimizedAffinity>
-6.53358889

>  <minimizedRMSD>
0.889367759

$$$$
