
     RDKit          3D

 45 48  0  0  0  0  0  0  0  0999 V2000
   35.6828   29.8166   48.4952 C   0  0  0  0  0  0  0  0  0  0  0  0
   35.4718   28.8848   49.4492 C   0  0  0  0  0  0  0  0  0  0  0  0
   34.6759   27.8292   49.2229 C   0  0  0  0  0  0  0  0  0  0  0  0
   34.0761   27.7047   48.0087 N   0  0  0  0  0  0  0  0  0  0  0  0
   34.2918   28.6269   47.0799 C   0  0  0  0  0  0  0  0  0  0  0  0
   35.0868   29.6852   47.3010 N   0  0  0  0  0  0  0  0  0  0  0  0
   32.2637   28.0781   45.8082 C   0  0  0  0  0  0  0  0  0  0  0  0
   33.6262   28.3832   45.8209 C   0  0  0  0  0  0  0  0  0  0  0  0
   34.4152   28.4489   44.6898 C   0  0  0  0  0  0  0  0  0  0  0  0
   33.8409   28.1999   43.4620 C   0  0  0  0  0  0  0  0  0  0  0  0
   32.5070   27.8900   43.3501 C   0  0  0  0  0  0  0  0  0  0  0  0
   31.8121   27.8492   44.5149 C   0  0  0  0  0  0  0  0  0  0  0  0
   31.2756   28.0104   47.1470 S   0  0  0  0  0  0  0  0  0  0  0  0
   30.4689   26.7408   46.7186 O   0  0  0  0  0  0  0  0  0  0  0  0
   30.3572   29.2043   47.0880 O   0  0  0  0  0  0  0  0  0  0  0  0
   30.9786   27.6171   48.6670 C   0  0  0  0  0  0  0  0  0  0  0  0
   30.5407   26.3485   49.1041 F   0  0  0  0  0  0  0  0  0  0  0  0
   29.6874   28.1887   49.0811 F   0  0  0  0  0  0  0  0  0  0  0  0
   31.5484   28.3406   49.7525 F   0  0  0  0  0  0  0  0  0  0  0  0
   37.3123   32.7571   49.9695 C   0  0  0  0  0  0  0  0  0  0  0  0
   38.2565   33.1101   48.9848 C   0  0  0  0  0  0  0  0  0  0  0  0
   38.3058   32.3234   47.8339 C   0  0  0  0  0  0  0  0  0  0  0  0
   37.4446   31.2713   47.7348 N   0  0  0  0  0  0  0  0  0  0  0  0
   36.5445   30.9635   48.7129 C   0  0  0  0  0  0  0  0  0  0  0  0
   36.4862   31.7103   49.8232 N   0  0  0  0  0  0  0  0  0  0  0  0
   35.9588   29.0008   50.4116 H   0  0  0  0  0  0  0  0  0  0  0  0
   34.5186   27.0912   50.0017 H   0  0  0  0  0  0  0  0  0  0  0  0
   35.4674   28.6904   44.7491 H   0  0  0  0  0  0  0  0  0  0  0  0
   34.4795   28.2566   42.5800 H   0  0  0  0  0  0  0  0  0  0  0  0
   32.0467   27.6938   42.4080 H   0  0  0  0  0  0  0  0  0  0  0  0
   30.7440   27.6008   44.4229 H   0  0  0  0  0  0  0  0  0  0  0  0
   37.2808   33.3682   50.8529 H   0  0  0  0  0  0  0  0  0  0  0  0
   38.9005   33.9622   49.1483 H   0  0  0  0  0  0  0  0  0  0  0  0
   40.7813   30.8125   47.2304 O   0  0  0  0  0  0  0  0  0  0  0  0
   40.1981   31.5837   46.4134 C   0  0  0  0  0  0  0  0  0  0  0  0
   39.2789   32.6631   46.7860 C   0  0  1  0  0  0  0  0  0  0  0  0
   38.5823   32.9312   45.4455 C   0  0  1  0  0  0  0  0  0  0  0  0
   37.8485   32.1241   45.3114 H   0  0  0  0  0  0  0  0  0  0  0  0
   39.7503   32.7236   44.4781 C   0  0  2  0  0  0  0  0  0  0  0  0
   40.4322   33.5854   44.5155 H   0  0  0  0  0  0  0  0  0  0  0  0
   40.3707   31.4928   44.9841 N   0  0  0  0  0  0  0  0  0  0  0  0
   39.8683   33.5529   47.0855 H   0  0  0  0  0  0  0  0  0  0  0  0
   38.1705   33.9424   45.3860 H   0  0  0  0  0  0  0  0  0  0  0  0
   39.4039   32.6153   43.4321 H   0  0  0  0  0  0  0  0  0  0  0  0
   40.8532   30.6753   44.5048 H   0  0  0  0  0  0  0  0  0  0  0  0
  1 24  1  0
  1  2  2  0
  3  2  1  0
  4  3  2  0
  5  6  2  0
  5  4  1  0
  6  1  1  0
  7  8  2  0
  7 13  1  0
  8  5  1  0
  9  8  1  0
 10  9  2  0
 11 10  1  0
 11 12  2  0
 12  7  1  0
 13 16  1  0
 14 13  2  0
 15 13  2  0
 16 18  1  0
 16 17  1  0
 16 19  1  0
 21 20  2  0
 22 21  1  0
 23 22  2  0
 23 24  1  0
 24 25  2  0
 25 20  1  0
  2 26  1  0
  3 27  1  0
  9 28  1  0
 10 29  1  0
 11 30  1  0
 12 31  1  0
 20 32  1  0
 21 33  1  0
 34 35  2  0
 35 36  1  0
 36 37  1  0
 37 38  1  6
 37 39  1  0
 39 40  1  6
 39 41  1  0
 41 35  1  0
 36 42  1  1
 37 43  1  0
 39 44  1  0
 41 45  1  0
 22 36  1  0
M  ISO  8  26  14  27  14  28  14  29  14  30  14  31  14  32  14  33  14
M  ISO  2  38   8  40   8
M  END
>  <DihAtoms>  (1) 
20,21,35,34

>  <DihDeg>  (1) 
-56.12350599432141

$$$$
