
 OpenBabel03272508383D

 44 47  0  0  1  0  0  0  0  0999 V2000
   37.4140   26.1540   34.5810 C   0  0  0  0  0  0  0  0  0  0  0  0
   36.9190   26.9980   35.1070 H   0  0  0  0  0  0  0  0  0  0  0  0
   36.7230   25.2890   34.7820 H   0  0  0  0  0  0  0  0  0  0  0  0
   38.6090   25.8840   35.2710 N   0  0  0  0  0  0  0  0  0  0  0  0
   39.6100   26.8800   35.2570 C   0  0  0  0  0  0  0  0  0  0  0  0
   40.8890   26.5410   34.6090 C   0  0  0  0  0  0  0  0  0  0  0  0
   41.3110   25.2280   34.9720 O   0  0  0  0  0  0  0  0  0  0  0  0
   40.3430   24.3650   34.5150 C   0  0  0  0  0  0  0  0  0  0  0  0
   39.0910   24.5730   35.3290 C   0  0  1  0  0  0  0  0  0  0  0  0
   39.3420   27.9190   35.1690 H   0  0  0  0  0  0  0  0  0  0  0  0
   39.8730   26.8620   36.3760 H   0  0  0  0  0  0  0  0  0  0  0  0
   41.6840   27.1440   35.2180 H   0  0  0  0  0  0  0  0  0  0  0  0
   41.1720   26.7760   33.6350 H   0  0  0  0  0  0  0  0  0  0  0  0
   40.7020   23.3340   34.8240 H   0  0  0  0  0  0  0  0  0  0  0  0
   40.2030   24.3010   33.4430 H   0  0  0  0  0  0  0  0  0  0  0  0
   38.3240   23.9010   34.8680 H   0  0  0  0  0  0  0  0  0  0  0  0
   40.5570   21.7970   36.8190 O   0  0  0  0  0  0  0  0  0  0  0  0
   39.5960   22.5820   36.6600 C   0  0  0  0  0  0  0  0  0  0  0  0
   39.2770   24.0330   36.7350 C   0  0  2  0  0  3  0  0  0  0  0  0
   37.9050   24.0030   37.3750 C   0  0  0  0  0  3  0  0  0  0  0  0
   37.9780   23.9170   38.4800 H   0  0  0  0  0  0  0  0  0  0  0  0
   37.2290   22.8250   36.7280 C   0  0  0  0  0  3  0  0  0  0  0  0
   36.6500   22.2540   37.4940 H   0  0  0  0  0  0  0  0  0  0  0  0
   38.3470   21.9820   36.2820 N   0  0  0  0  0  0  0  0  0  0  0  0
   37.9970   21.1310   35.7880 H   0  0  0  0  0  0  0  0  0  0  0  0
   37.4840   26.3500   33.1390 C   0  0  0  0  0  0  0  0  0  0  0  0
   38.4010   26.5040   32.6000 H   0  0  0  0  0  0  0  0  0  0  0  0
   36.8750   27.2720   32.9070 H   0  0  0  0  0  0  0  0  0  0  0  0
   36.1670   23.3020   31.7800 C   0  0  0  0  0  0  0  0  0  0  0  0
   35.4750   24.2330   31.0700 C   0  0  0  0  0  0  0  0  0  0  0  0
   35.8810   25.4870   31.4890 C   0  0  0  0  0  0  0  0  0  0  0  0
   36.8060   25.2660   32.4370 N   0  0  0  0  0  0  0  0  0  0  0  0
   36.9710   23.9510   32.6040 N   0  0  0  0  0  0  0  0  0  0  0  0
   34.7310   23.9940   30.3060 H   0  0  0  0  0  0  0  0  0  0  0  0
   35.3890   26.2940   30.9910 H   0  0  0  0  0  0  0  0  0  0  0  0
   34.8920   19.7630   32.0060 C   0  0  0  0  0  0  0  0  0  0  0  0
   34.9850   21.1170   32.2430 C   0  0  0  0  0  0  0  0  0  0  0  0
   35.9740   21.8720   31.6300 C   0  0  0  0  0  0  0  0  0  0  0  0
   36.7890   21.1580   30.8170 N   0  0  0  0  0  0  0  0  0  0  0  0
   36.6920   19.8420   30.5920 C   0  0  0  0  0  0  0  0  0  0  0  0
   35.7400   19.1490   31.1900 N   0  0  0  0  0  0  0  0  0  0  0  0
   34.1200   19.1760   32.4850 H   0  0  0  0  0  0  0  0  0  0  0  0
   34.3090   21.6510   32.9030 H   0  0  0  0  0  0  0  0  0  0  0  0
   37.4410   19.4480   29.9050 H   0  0  0  0  0  0  0  0  0  0  0  0
  1  3  1  0  0  0  0
  1  2  1  0  0  0  0
  1  4  1  0  0  0  0
  4  9  1  0  0  0  0
  5  4  1  0  0  0  0
  5 11  1  0  0  0  0
  6  7  1  0  0  0  0
  6 12  1  0  0  0  0
  6  5  1  0  0  0  0
  8 14  1  0  0  0  0
  8  7  1  0  0  0  0
  8  9  1  0  0  0  0
  9 16  1  6  0  0  0
  9 19  1  0  0  0  0
 10  5  1  0  0  0  0
 13  6  1  0  0  0  0
 15  8  1  0  0  0  0
 18 17  2  0  0  0  0
 19 18  1  6  0  0  0
 19 20  1  0  0  0  0
 20 21  1  0  0  0  0
 22 20  1  0  0  0  0
 22 23  1  0  0  0  0
 24 18  1  0  0  0  0
 24 22  1  0  0  0  0
 25 24  1  0  0  0  0
 26  1  1  0  0  0  0
 27 26  1  0  0  0  0
 28 26  1  0  0  0  0
 29 33  2  0  0  0  0
 30 31  2  0  0  0  0
 30 29  1  0  0  0  0
 31 32  1  0  0  0  0
 32 33  1  0  0  0  0
 32 26  1  0  0  0  0
 34 30  1  0  0  0  0
 35 31  1  0  0  0  0
 36 37  1  0  0  0  0
 36 42  1  0  0  0  0
 37 43  1  0  0  0  0
 38 29  1  0  0  0  0
 38 37  2  0  0  0  0
 39 38  1  0  0  0  0
 40 39  2  0  0  0  0
 40 41  1  0  0  0  0
 41 36  2  0  0  0  0
 44 40  1  0  0  0  0
M  END
>  <minimizedAffinity>
-5.96382475

$$$$

 OpenBabel03272508383D

 44 47  0  0  1  0  0  0  0  0999 V2000
   37.4750   25.9190   34.2270 C   0  0  0  0  0  0  0  0  0  0  0  0
   36.6090   26.1210   34.8950 H   0  0  0  0  0  0  0  0  0  0  0  0
   37.2400   24.9020   33.8070 H   0  0  0  0  0  0  0  0  0  0  0  0
   38.6030   25.7640   35.0530 N   0  0  0  0  0  0  0  0  0  0  0  0
   39.5340   26.8250   35.0920 C   0  0  0  0  0  0  0  0  0  0  0  0
   40.8940   26.5470   34.6000 C   0  0  0  0  0  0  0  0  0  0  0  0
   41.3580   25.2840   35.0750 O   0  0  0  0  0  0  0  0  0  0  0  0
   40.5030   24.3360   34.5630 C   0  0  0  0  0  0  0  0  0  0  0  0
   39.1590   24.4930   35.2290 C   0  0  1  0  0  0  0  0  0  0  0  0
   39.2100   27.8380   34.9220 H   0  0  0  0  0  0  0  0  0  0  0  0
   39.6740   26.8760   36.2320 H   0  0  0  0  0  0  0  0  0  0  0  0
   41.5780   27.2300   35.2580 H   0  0  0  0  0  0  0  0  0  0  0  0
   41.2660   26.7570   33.6510 H   0  0  0  0  0  0  0  0  0  0  0  0
   40.8910   23.3480   34.9620 H   0  0  0  0  0  0  0  0  0  0  0  0
   40.4840   24.2140   33.4880 H   0  0  0  0  0  0  0  0  0  0  0  0
   38.4910   23.7500   34.7260 H   0  0  0  0  0  0  0  0  0  0  0  0
   40.6310   21.8960   37.0080 O   0  0  0  0  0  0  0  0  0  0  0  0
   39.6440   22.6040   36.7080 C   0  0  0  0  0  0  0  0  0  0  0  0
   39.2260   24.0310   36.6730 C   0  0  2  0  0  3  0  0  0  0  0  0
   37.7960   23.9340   37.1660 C   0  0  0  0  0  3  0  0  0  0  0  0
   37.7540   23.9030   38.2750 H   0  0  0  0  0  0  0  0  0  0  0  0
   37.2720   22.6840   36.5130 C   0  0  0  0  0  3  0  0  0  0  0  0
   36.6520   22.1090   37.2420 H   0  0  0  0  0  0  0  0  0  0  0  0
   38.4840   21.9030   36.2330 N   0  0  0  0  0  0  0  0  0  0  0  0
   38.2470   21.0070   35.7490 H   0  0  0  0  0  0  0  0  0  0  0  0
   37.5610   26.8570   33.1160 C   0  0  0  0  0  0  0  0  0  0  0  0
   37.4090   26.5820   32.0880 H   0  0  0  0  0  0  0  0  0  0  0  0
   38.6060   27.2840   33.1320 H   0  0  0  0  0  0  0  0  0  0  0  0
   35.5580   29.5980   34.2740 C   0  0  0  0  0  0  0  0  0  0  0  0
   35.3330   29.6500   32.9340 C   0  0  0  0  0  0  0  0  0  0  0  0
   36.0530   28.6330   32.3350 C   0  0  0  0  0  0  0  0  0  0  0  0
   36.6850   28.0020   33.3380 N   0  0  0  0  0  0  0  0  0  0  0  0
   36.3810   28.5900   34.4990 N   0  0  0  0  0  0  0  0  0  0  0  0
   34.6870   30.3850   32.4480 H   0  0  0  0  0  0  0  0  0  0  0  0
   35.9470   28.5890   31.2730 H   0  0  0  0  0  0  0  0  0  0  0  0
   35.0390   32.3410   36.8080 C   0  0  0  0  0  0  0  0  0  0  0  0
   35.6960   31.4850   35.9510 C   0  0  0  0  0  0  0  0  0  0  0  0
   34.9890   30.5410   35.2200 C   0  0  0  0  0  0  0  0  0  0  0  0
   33.6530   30.5620   35.4380 N   0  0  0  0  0  0  0  0  0  0  0  0
   33.0210   31.3980   36.2720 C   0  0  0  0  0  0  0  0  0  0  0  0
   33.7210   32.2860   36.9540 N   0  0  0  0  0  0  0  0  0  0  0  0
   35.5920   33.0760   37.3760 H   0  0  0  0  0  0  0  0  0  0  0  0
   36.7710   31.5020   35.8060 H   0  0  0  0  0  0  0  0  0  0  0  0
   31.9400   31.2610   36.3110 H   0  0  0  0  0  0  0  0  0  0  0  0
  1  2  1  0  0  0  0
  1  4  1  0  0  0  0
  3  1  1  0  0  0  0
  4  5  1  0  0  0  0
  4  9  1  0  0  0  0
  5 11  1  0  0  0  0
  6  7  1  0  0  0  0
  6  5  1  0  0  0  0
  6 12  1  0  0  0  0
  8 14  1  0  0  0  0
  8  7  1  0  0  0  0
  8  9  1  0  0  0  0
  9 16  1  6  0  0  0
  9 19  1  0  0  0  0
 10  5  1  0  0  0  0
 13  6  1  0  0  0  0
 15  8  1  0  0  0  0
 18 17  2  0  0  0  0
 19 18  1  6  0  0  0
 19 20  1  0  0  0  0
 20 21  1  0  0  0  0
 22 20  1  0  0  0  0
 22 23  1  0  0  0  0
 24 22  1  0  0  0  0
 24 18  1  0  0  0  0
 25 24  1  0  0  0  0
 26 28  1  0  0  0  0
 26 32  1  0  0  0  0
 26  1  1  0  0  0  0
 27 26  1  0  0  0  0
 29 33  2  0  0  0  0
 29 38  1  0  0  0  0
 30 29  1  0  0  0  0
 31 30  2  0  0  0  0
 31 32  1  0  0  0  0
 32 33  1  0  0  0  0
 34 30  1  0  0  0  0
 35 31  1  0  0  0  0
 36 41  1  0  0  0  0
 36 42  1  0  0  0  0
 37 36  2  0  0  0  0
 38 39  2  0  0  0  0
 38 37  1  0  0  0  0
 39 40  1  0  0  0  0
 40 44  1  0  0  0  0
 40 41  2  0  0  0  0
 43 37  1  0  0  0  0
M  END
>  <minimizedAffinity>
-5.72009897

$$$$

 OpenBabel03272508383D

 44 47  0  0  1  0  0  0  0  0999 V2000
   37.2900   26.2180   34.7620 C   0  0  0  0  0  0  0  0  0  0  0  0
   36.9990   27.2400   35.0890 H   0  0  0  0  0  0  0  0  0  0  0  0
   36.5200   25.5630   35.2550 H   0  0  0  0  0  0  0  0  0  0  0  0
   38.5220   25.9260   35.3770 N   0  0  0  0  0  0  0  0  0  0  0  0
   39.5200   26.9230   35.3430 C   0  0  0  0  0  0  0  0  0  0  0  0
   40.7620   26.6100   34.6150 C   0  0  0  0  0  0  0  0  0  0  0  0
   41.2030   25.2860   34.9090 O   0  0  0  0  0  0  0  0  0  0  0  0
   40.2120   24.4380   34.4740 C   0  0  0  0  0  0  0  0  0  0  0  0
   39.0050   24.6140   35.3610 C   0  0  1  0  0  0  0  0  0  0  0  0
   39.2470   27.9650   35.3070 H   0  0  0  0  0  0  0  0  0  0  0  0
   39.8440   26.8670   36.4460 H   0  0  0  0  0  0  0  0  0  0  0  0
   41.5890   27.1920   35.2020 H   0  0  0  0  0  0  0  0  0  0  0  0
   40.9920   26.8810   33.6370 H   0  0  0  0  0  0  0  0  0  0  0  0
   40.5870   23.3980   34.7260 H   0  0  0  0  0  0  0  0  0  0  0  0
   40.0140   24.4120   33.4100 H   0  0  0  0  0  0  0  0  0  0  0  0
   38.2150   23.9580   34.9190 H   0  0  0  0  0  0  0  0  0  0  0  0
   40.5120   21.7690   36.6680 O   0  0  0  0  0  0  0  0  0  0  0  0
   39.5570   22.5730   36.5940 C   0  0  0  0  0  0  0  0  0  0  0  0
   39.2680   24.0260   36.7350 C   0  0  2  0  0  3  0  0  0  0  0  0
   37.9360   23.9950   37.4570 C   0  0  0  0  0  3  0  0  0  0  0  0
   38.0750   23.8710   38.5520 H   0  0  0  0  0  0  0  0  0  0  0  0
   37.2020   22.8490   36.8140 C   0  0  0  0  0  3  0  0  0  0  0  0
   36.6610   22.2610   37.5950 H   0  0  0  0  0  0  0  0  0  0  0  0
   38.2770   22.0050   36.2740 N   0  0  0  0  0  0  0  0  0  0  0  0
   37.8830   21.1760   35.7750 H   0  0  0  0  0  0  0  0  0  0  0  0
   37.1830   26.0350   33.3210 C   0  0  0  0  0  0  0  0  0  0  0  0
   36.5040   25.3430   32.8550 H   0  0  0  0  0  0  0  0  0  0  0  0
   38.1990   25.7040   32.9590 H   0  0  0  0  0  0  0  0  0  0  0  0
   36.9580   28.9330   31.2180 C   0  0  0  0  0  0  0  0  0  0  0  0
   36.1950   29.3110   32.2780 C   0  0  0  0  0  0  0  0  0  0  0  0
   36.1840   28.2760   33.1950 C   0  0  0  0  0  0  0  0  0  0  0  0
   36.9440   27.3100   32.6540 N   0  0  0  0  0  0  0  0  0  0  0  0
   37.4050   27.7140   31.4670 N   0  0  0  0  0  0  0  0  0  0  0  0
   35.6900   30.2770   32.3570 H   0  0  0  0  0  0  0  0  0  0  0  0
   35.6040   28.4740   34.0700 H   0  0  0  0  0  0  0  0  0  0  0  0
   37.9140   30.2360   27.8130 C   0  0  0  0  0  0  0  0  0  0  0  0
   37.7930   29.3620   28.8710 C   0  0  0  0  0  0  0  0  0  0  0  0
   37.1660   29.7590   30.0430 C   0  0  0  0  0  0  0  0  0  0  0  0
   36.7140   31.0360   30.0220 N   0  0  0  0  0  0  0  0  0  0  0  0
   36.8350   31.8800   28.9900 C   0  0  0  0  0  0  0  0  0  0  0  0
   37.4360   31.4730   27.8860 N   0  0  0  0  0  0  0  0  0  0  0  0
   38.4020   29.9250   26.9000 H   0  0  0  0  0  0  0  0  0  0  0  0
   38.1700   28.3450   28.8450 H   0  0  0  0  0  0  0  0  0  0  0  0
   36.4070   32.8660   29.1640 H   0  0  0  0  0  0  0  0  0  0  0  0
  1  2  1  0  0  0  0
  1  3  1  0  0  0  0
  1  4  1  0  0  0  0
  5  4  1  0  0  0  0
  5 11  1  0  0  0  0
  6  7  1  0  0  0  0
  6 12  1  0  0  0  0
  6  5  1  0  0  0  0
  8 14  1  0  0  0  0
  8  7  1  0  0  0  0
  8  9  1  0  0  0  0
  9 16  1  6  0  0  0
  9  4  1  0  0  0  0
  9 19  1  0  0  0  0
 10  5  1  0  0  0  0
 13  6  1  0  0  0  0
 15  8  1  0  0  0  0
 18 17  2  0  0  0  0
 19 18  1  6  0  0  0
 19 20  1  0  0  0  0
 20 21  1  0  0  0  0
 22 20  1  0  0  0  0
 22 23  1  0  0  0  0
 24 18  1  0  0  0  0
 24 22  1  0  0  0  0
 25 24  1  0  0  0  0
 26  1  1  0  0  0  0
 27 26  1  0  0  0  0
 28 26  1  0  0  0  0
 29 33  2  0  0  0  0
 29 30  1  0  0  0  0
 30 34  1  0  0  0  0
 30 31  2  0  0  0  0
 31 35  1  0  0  0  0
 32 31  1  0  0  0  0
 32 26  1  0  0  0  0
 33 32  1  0  0  0  0
 36 41  2  0  0  0  0
 36 37  1  0  0  0  0
 37 38  2  0  0  0  0
 38 29  1  0  0  0  0
 39 38  1  0  0  0  0
 40 44  1  0  0  0  0
 40 39  2  0  0  0  0
 41 40  1  0  0  0  0
 42 36  1  0  0  0  0
 43 37  1  0  0  0  0
M  END
>  <minimizedAffinity>
-5.27736282

$$$$

 OpenBabel03272508383D

 44 47  0  0  1  0  0  0  0  0999 V2000
   38.1380   27.1670   31.9470 C   0  0  0  0  0  0  0  0  0  0  0  0
   38.3440   27.3200   30.8660 H   0  0  0  0  0  0  0  0  0  0  0  0
   38.5480   28.1010   32.4200 H   0  0  0  0  0  0  0  0  0  0  0  0
   38.9580   26.1060   32.3740 N   0  0  0  0  0  0  0  0  0  0  0  0
   39.6520   25.3790   31.3830 C   0  0  0  0  0  0  0  0  0  0  0  0
   39.3160   23.9530   31.2340 C   0  0  0  0  0  0  0  0  0  0  0  0
   39.1920   23.3230   32.5080 O   0  0  0  0  0  0  0  0  0  0  0  0
   38.1570   23.9540   33.1570 C   0  0  0  0  0  0  0  0  0  0  0  0
   38.5880   25.3580   33.4960 C   0  0  1  0  0  0  0  0  0  0  0  0
   39.9410   25.8550   30.4610 H   0  0  0  0  0  0  0  0  0  0  0  0
   40.6830   25.3500   31.8940 H   0  0  0  0  0  0  0  0  0  0  0  0
   40.3210   23.4570   30.9020 H   0  0  0  0  0  0  0  0  0  0  0  0
   38.6590   23.5400   30.5390 H   0  0  0  0  0  0  0  0  0  0  0  0
   38.0880   23.4380   34.1650 H   0  0  0  0  0  0  0  0  0  0  0  0
   37.1690   23.8560   32.7260 H   0  0  0  0  0  0  0  0  0  0  0  0
   37.6890   25.8410   33.9540 H   0  0  0  0  0  0  0  0  0  0  0  0
   39.0110   23.7690   36.5570 O   0  0  0  0  0  0  0  0  0  0  0  0
   38.9970   24.7960   35.8430 C   0  0  0  0  0  0  0  0  0  0  0  0
   39.6220   25.3410   34.6080 C   0  0  2  0  0  3  0  0  0  0  0  0
   39.8570   26.7840   35.0050 C   0  0  0  0  0  3  0  0  0  0  0  0
   40.7990   26.8930   35.5830 H   0  0  0  0  0  0  0  0  0  0  0  0
   38.6280   27.1480   35.7930 C   0  0  0  0  0  3  0  0  0  0  0  0
   38.9170   27.7580   36.6840 H   0  0  0  0  0  0  0  0  0  0  0  0
   38.1260   25.8530   36.2740 N   0  0  0  0  0  0  0  0  0  0  0  0
   37.2450   25.9760   36.8230 H   0  0  0  0  0  0  0  0  0  0  0  0
   36.7140   27.0970   32.2470 C   0  0  0  0  0  0  0  0  0  0  0  0
   36.2750   26.3600   32.8950 H   0  0  0  0  0  0  0  0  0  0  0  0
   36.1820   26.9460   31.2630 H   0  0  0  0  0  0  0  0  0  0  0  0
   35.4180   29.9370   34.0130 C   0  0  0  0  0  0  0  0  0  0  0  0
   35.6950   30.4820   32.7980 C   0  0  0  0  0  0  0  0  0  0  0  0
   36.2140   29.4880   31.9880 C   0  0  0  0  0  0  0  0  0  0  0  0
   36.2280   28.3790   32.7440 N   0  0  0  0  0  0  0  0  0  0  0  0
   35.7480   28.6590   33.9590 N   0  0  0  0  0  0  0  0  0  0  0  0
   35.5240   31.5300   32.5420 H   0  0  0  0  0  0  0  0  0  0  0  0
   36.4700   29.8160   31.0040 H   0  0  0  0  0  0  0  0  0  0  0  0
   34.9910   32.2600   36.9510 C   0  0  0  0  0  0  0  0  0  0  0  0
   35.6100   31.5800   35.9250 C   0  0  0  0  0  0  0  0  0  0  0  0
   34.8910   30.6980   35.1320 C   0  0  0  0  0  0  0  0  0  0  0  0
   33.5830   30.5940   35.4680 N   0  0  0  0  0  0  0  0  0  0  0  0
   32.9880   31.2590   36.4660 C   0  0  0  0  0  0  0  0  0  0  0  0
   33.6980   32.0920   37.2040 N   0  0  0  0  0  0  0  0  0  0  0  0
   35.5530   32.9470   37.5680 H   0  0  0  0  0  0  0  0  0  0  0  0
   36.6630   31.6930   35.6890 H   0  0  0  0  0  0  0  0  0  0  0  0
   31.9260   31.0420   36.5800 H   0  0  0  0  0  0  0  0  0  0  0  0
  1 26  1  0  0  0  0
  1  4  1  0  0  0  0
  1  3  1  0  0  0  0
  2  1  1  0  0  0  0
  4  9  1  0  0  0  0
  5 11  1  0  0  0  0
  5  4  1  0  0  0  0
  6  5  1  0  0  0  0
  6  7  1  0  0  0  0
  7  8  1  0  0  0  0
  8  9  1  0  0  0  0
  8 14  1  0  0  0  0
  9 16  1  1  0  0  0
  9 19  1  0  0  0  0
 10  5  1  0  0  0  0
 12  6  1  0  0  0  0
 13  6  1  0  0  0  0
 15  8  1  0  0  0  0
 18 24  1  0  0  0  0
 18 17  2  0  0  0  0
 19 20  1  1  0  0  0
 19 18  1  0  0  0  0
 20 21  1  0  0  0  0
 20 22  1  0  0  0  0
 22 24  1  0  0  0  0
 22 23  1  0  0  0  0
 24 25  1  0  0  0  0
 26 32  1  0  0  0  0
 26 27  1  0  0  0  0
 28 26  1  0  0  0  0
 29 38  1  0  0  0  0
 30 29  1  0  0  0  0
 31 32  1  0  0  0  0
 31 30  2  0  0  0  0
 32 33  1  0  0  0  0
 33 29  2  0  0  0  0
 34 30  1  0  0  0  0
 35 31  1  0  0  0  0
 36 41  1  0  0  0  0
 36 42  1  0  0  0  0
 37 36  2  0  0  0  0
 38 39  2  0  0  0  0
 38 37  1  0  0  0  0
 39 40  1  0  0  0  0
 40 44  1  0  0  0  0
 40 41  2  0  0  0  0
 43 37  1  0  0  0  0
M  END
>  <minimizedAffinity>
-5.2733202

$$$$

 OpenBabel03272508383D

 44 47  0  0  1  0  0  0  0  0999 V2000
   33.7590   30.0620   33.6430 C   0  0  0  0  0  0  0  0  0  0  0  0
   32.9730   30.5860   33.0580 H   0  0  0  0  0  0  0  0  0  0  0  0
   33.5200   28.9760   33.4750 H   0  0  0  0  0  0  0  0  0  0  0  0
   33.5040   30.3260   35.0020 N   0  0  0  0  0  0  0  0  0  0  0  0
   32.5160   29.5480   35.6430 C   0  0  0  0  0  0  0  0  0  0  0  0
   31.3250   30.2530   36.1460 C   0  0  0  0  0  0  0  0  0  0  0  0
   31.6900   31.4690   36.7950 O   0  0  0  0  0  0  0  0  0  0  0  0
   32.2960   32.2540   35.8440 C   0  0  0  0  0  0  0  0  0  0  0  0
   33.6220   31.6330   35.4830 C   0  0  1  0  0  0  0  0  0  0  0  0
   32.3180   28.5420   35.3140 H   0  0  0  0  0  0  0  0  0  0  0  0
   33.1000   29.3050   36.6040 H   0  0  0  0  0  0  0  0  0  0  0  0
   31.0160   29.6450   37.0960 H   0  0  0  0  0  0  0  0  0  0  0  0
   30.4060   30.3380   35.6650 H   0  0  0  0  0  0  0  0  0  0  0  0
   32.5800   33.2070   36.3900 H   0  0  0  0  0  0  0  0  0  0  0  0
   31.6880   32.5820   35.0100 H   0  0  0  0  0  0  0  0  0  0  0  0
   34.0330   32.2700   34.6600 H   0  0  0  0  0  0  0  0  0  0  0  0
   34.2330   33.9310   38.0170 O   0  0  0  0  0  0  0  0  0  0  0  0
   34.6150   33.2160   37.0640 C   0  0  0  0  0  0  0  0  0  0  0  0
   34.6110   31.7960   36.6230 C   0  0  2  0  0  3  0  0  0  0  0  0
   35.9950   31.6670   36.0210 C   0  0  0  0  0  3  0  0  0  0  0  0
   36.7570   31.4680   36.8040 H   0  0  0  0  0  0  0  0  0  0  0  0
   36.2010   32.9730   35.3050 C   0  0  0  0  0  3  0  0  0  0  0  0
   37.2460   33.3330   35.4680 H   0  0  0  0  0  0  0  0  0  0  0  0
   35.2910   33.8970   35.9950 N   0  0  0  0  0  0  0  0  0  0  0  0
   35.3280   34.8490   35.5630 H   0  0  0  0  0  0  0  0  0  0  0  0
   35.1010   30.3120   33.1360 C   0  0  0  0  0  0  0  0  0  0  0  0
   35.7710   31.0440   33.5510 H   0  0  0  0  0  0  0  0  0  0  0  0
   34.9880   30.6270   32.0580 H   0  0  0  0  0  0  0  0  0  0  0  0
   36.9380   27.2730   33.6450 C   0  0  0  0  0  0  0  0  0  0  0  0
   36.9790   27.3870   32.2900 C   0  0  0  0  0  0  0  0  0  0  0  0
   36.2990   28.5360   31.9320 C   0  0  0  0  0  0  0  0  0  0  0  0
   35.8730   29.0750   33.0860 N   0  0  0  0  0  0  0  0  0  0  0  0
   36.2620   28.3090   34.1090 N   0  0  0  0  0  0  0  0  0  0  0  0
   37.4750   26.6730   31.6290 H   0  0  0  0  0  0  0  0  0  0  0  0
   36.2700   28.7170   30.8790 H   0  0  0  0  0  0  0  0  0  0  0  0
   38.3500   25.0180   36.3150 C   0  0  0  0  0  0  0  0  0  0  0  0
   37.8120   26.1440   35.7300 C   0  0  0  0  0  0  0  0  0  0  0  0
   37.5210   26.1620   34.3740 C   0  0  0  0  0  0  0  0  0  0  0  0
   37.8130   25.0060   33.7320 N   0  0  0  0  0  0  0  0  0  0  0  0
   38.3360   23.9150   34.3060 C   0  0  0  0  0  0  0  0  0  0  0  0
   38.6020   23.9280   35.6000 N   0  0  0  0  0  0  0  0  0  0  0  0
   38.5760   25.0060   37.3720 H   0  0  0  0  0  0  0  0  0  0  0  0
   37.5930   27.0510   36.2840 H   0  0  0  0  0  0  0  0  0  0  0  0
   38.4990   23.0820   33.6230 H   0  0  0  0  0  0  0  0  0  0  0  0
  1  4  1  0  0  0  0
  2  1  1  0  0  0  0
  3  1  1  0  0  0  0
  4  9  1  0  0  0  0
  4  5  1  0  0  0  0
  5  6  1  0  0  0  0
  5 11  1  0  0  0  0
  6  7  1  0  0  0  0
  6 12  1  0  0  0  0
  8 14  1  0  0  0  0
  8  7  1  0  0  0  0
  9 16  1  6  0  0  0
  9  8  1  0  0  0  0
  9 19  1  0  0  0  0
 10  5  1  0  0  0  0
 13  6  1  0  0  0  0
 15  8  1  0  0  0  0
 18 17  2  0  0  0  0
 19 20  1  6  0  0  0
 19 18  1  0  0  0  0
 20 21  1  0  0  0  0
 22 23  1  0  0  0  0
 22 24  1  0  0  0  0
 22 20  1  0  0  0  0
 24 18  1  0  0  0  0
 25 24  1  0  0  0  0
 26 27  1  0  0  0  0
 26  1  1  0  0  0  0
 28 26  1  0  0  0  0
 29 33  2  0  0  0  0
 29 38  1  0  0  0  0
 30 29  1  0  0  0  0
 31 30  2  0  0  0  0
 31 32  1  0  0  0  0
 32 26  1  0  0  0  0
 32 33  1  0  0  0  0
 34 30  1  0  0  0  0
 35 31  1  0  0  0  0
 36 42  1  0  0  0  0
 37 43  1  0  0  0  0
 37 36  1  0  0  0  0
 38 37  2  0  0  0  0
 39 40  2  0  0  0  0
 39 38  1  0  0  0  0
 40 41  1  0  0  0  0
 41 36  2  0  0  0  0
 44 40  1  0  0  0  0
M  END
>  <minimizedAffinity>
-5.24776363

$$$$

 OpenBabel03272508383D

 44 47  0  0  1  0  0  0  0  0999 V2000
   35.5120   29.0660   34.5870 C   0  0  0  0  0  0  0  0  0  0  0  0
   34.7600   28.3770   35.0290 H   0  0  0  0  0  0  0  0  0  0  0  0
   36.2720   29.1750   35.4090 H   0  0  0  0  0  0  0  0  0  0  0  0
   34.8870   30.3190   34.4470 N   0  0  0  0  0  0  0  0  0  0  0  0
   35.4850   31.2510   33.5710 C   0  0  0  0  0  0  0  0  0  0  0  0
   35.9870   32.5040   34.1610 C   0  0  0  0  0  0  0  0  0  0  0  0
   35.0560   33.0310   35.1040 O   0  0  0  0  0  0  0  0  0  0  0  0
   34.9350   32.0930   36.1010 C   0  0  0  0  0  0  0  0  0  0  0  0
   34.2270   30.8850   35.5410 C   0  0  1  0  0  0  0  0  0  0  0  0
   36.0550   30.9120   32.7230 H   0  0  0  0  0  0  0  0  0  0  0  0
   34.5340   31.5880   33.0180 H   0  0  0  0  0  0  0  0  0  0  0  0
   35.8330   33.2970   33.3170 H   0  0  0  0  0  0  0  0  0  0  0  0
   36.9690   32.7080   34.4400 H   0  0  0  0  0  0  0  0  0  0  0  0
   34.1860   32.5360   36.8290 H   0  0  0  0  0  0  0  0  0  0  0  0
   35.8150   31.8870   36.6980 H   0  0  0  0  0  0  0  0  0  0  0  0
   34.2210   30.1340   36.3690 H   0  0  0  0  0  0  0  0  0  0  0  0
   31.7240   32.7370   37.0850 O   0  0  0  0  0  0  0  0  0  0  0  0
   32.1510   31.6830   36.5630 C   0  0  0  0  0  0  0  0  0  0  0  0
   32.7610   31.1970   35.2970 C   0  0  2  0  0  3  0  0  0  0  0  0
   32.0570   29.8680   35.1180 C   0  0  0  0  0  3  0  0  0  0  0  0
   31.0640   29.9990   34.6410 H   0  0  0  0  0  0  0  0  0  0  0  0
   31.9800   29.3080   36.5130 C   0  0  0  0  0  3  0  0  0  0  0  0
   30.9800   28.8360   36.6760 H   0  0  0  0  0  0  0  0  0  0  0  0
   32.0650   30.4980   37.3710 N   0  0  0  0  0  0  0  0  0  0  0  0
   32.0450   30.2310   38.3810 H   0  0  0  0  0  0  0  0  0  0  0  0
   36.1820   28.5000   33.4240 C   0  0  0  0  0  0  0  0  0  0  0  0
   36.9000   29.0340   32.8280 H   0  0  0  0  0  0  0  0  0  0  0  0
   35.3740   28.2190   32.6880 H   0  0  0  0  0  0  0  0  0  0  0  0
   37.7420   25.6080   34.8630 C   0  0  0  0  0  0  0  0  0  0  0  0
   37.7470   25.2850   33.5420 C   0  0  0  0  0  0  0  0  0  0  0  0
   37.1650   26.3250   32.8400 C   0  0  0  0  0  0  0  0  0  0  0  0
   36.8320   27.2390   33.7660 N   0  0  0  0  0  0  0  0  0  0  0  0
   37.1830   26.7990   34.9770 N   0  0  0  0  0  0  0  0  0  0  0  0
   38.1510   24.3530   33.1400 H   0  0  0  0  0  0  0  0  0  0  0  0
   37.1180   26.1670   31.7850 H   0  0  0  0  0  0  0  0  0  0  0  0
   39.6940   23.0680   36.8500 C   0  0  0  0  0  0  0  0  0  0  0  0
   39.2970   23.8370   35.7770 C   0  0  0  0  0  0  0  0  0  0  0  0
   38.2440   24.7310   35.9050 C   0  0  0  0  0  0  0  0  0  0  0  0
   37.6880   24.7550   37.1400 N   0  0  0  0  0  0  0  0  0  0  0  0
   38.0800   24.0060   38.1780 C   0  0  0  0  0  0  0  0  0  0  0  0
   39.0860   23.1630   38.0250 N   0  0  0  0  0  0  0  0  0  0  0  0
   40.5150   22.3710   36.7480 H   0  0  0  0  0  0  0  0  0  0  0  0
   39.7710   23.7850   34.8030 H   0  0  0  0  0  0  0  0  0  0  0  0
   37.5080   24.1690   39.0910 H   0  0  0  0  0  0  0  0  0  0  0  0
  1  2  1  0  0  0  0
  1  3  1  0  0  0  0
  4  1  1  0  0  0  0
  4  9  1  0  0  0  0
  5  6  1  0  0  0  0
  5  4  1  0  0  0  0
  6 13  1  0  0  0  0
  6  7  1  0  0  0  0
  7  8  1  0  0  0  0
  8 15  1  0  0  0  0
  8 14  1  0  0  0  0
  9  8  1  0  0  0  0
  9 16  1  1  0  0  0
 10  5  1  0  0  0  0
 11  5  1  0  0  0  0
 12  6  1  0  0  0  0
 18 17  2  0  0  0  0
 18 24  1  0  0  0  0
 19 20  1  1  0  0  0
 19  9  1  0  0  0  0
 19 18  1  0  0  0  0
 20 22  1  0  0  0  0
 21 20  1  0  0  0  0
 22 23  1  0  0  0  0
 22 24  1  0  0  0  0
 24 25  1  0  0  0  0
 26 32  1  0  0  0  0
 26  1  1  0  0  0  0
 27 26  1  0  0  0  0
 28 26  1  0  0  0  0
 29 33  2  0  0  0  0
 29 38  1  0  0  0  0
 30 29  1  0  0  0  0
 31 30  2  0  0  0  0
 31 32  1  0  0  0  0
 32 33  1  0  0  0  0
 34 30  1  0  0  0  0
 35 31  1  0  0  0  0
 36 41  1  0  0  0  0
 37 38  1  0  0  0  0
 37 36  2  0  0  0  0
 38 39  2  0  0  0  0
 39 40  1  0  0  0  0
 40 44  1  0  0  0  0
 41 40  2  0  0  0  0
 42 36  1  0  0  0  0
 43 37  1  0  0  0  0
M  END
>  <minimizedAffinity>
-5.2321043

$$$$

 OpenBabel03272508383D

 44 47  0  0  1  0  0  0  0  0999 V2000
   37.5640   26.3950   34.9330 C   0  0  0  0  0  0  0  0  0  0  0  0
   36.7860   25.7520   35.3980 H   0  0  0  0  0  0  0  0  0  0  0  0
   37.5020   26.1230   33.8430 H   0  0  0  0  0  0  0  0  0  0  0  0
   38.8100   25.9290   35.3940 N   0  0  0  0  0  0  0  0  0  0  0  0
   39.9280   26.7720   35.2160 C   0  0  0  0  0  0  0  0  0  0  0  0
   41.0090   26.2820   34.3440 C   0  0  0  0  0  0  0  0  0  0  0  0
   41.2900   24.9080   34.6050 O   0  0  0  0  0  0  0  0  0  0  0  0
   40.1410   24.2120   34.3140 C   0  0  0  0  0  0  0  0  0  0  0  0
   39.0950   24.5610   35.3430 C   0  0  1  0  0  0  0  0  0  0  0  0
   39.8040   27.8410   35.1940 H   0  0  0  0  0  0  0  0  0  0  0  0
   40.3770   26.6700   36.2700 H   0  0  0  0  0  0  0  0  0  0  0  0
   41.9790   26.7390   34.8100 H   0  0  0  0  0  0  0  0  0  0  0  0
   41.1500   26.5150   33.3390 H   0  0  0  0  0  0  0  0  0  0  0  0
   40.3930   23.1290   34.5380 H   0  0  0  0  0  0  0  0  0  0  0  0
   39.8080   24.2130   33.2840 H   0  0  0  0  0  0  0  0  0  0  0  0
   38.1690   24.0260   35.0170 H   0  0  0  0  0  0  0  0  0  0  0  0
   40.4940   21.5960   36.4940 O   0  0  0  0  0  0  0  0  0  0  0  0
   39.6020   22.4730   36.5150 C   0  0  0  0  0  0  0  0  0  0  0  0
   39.4430   23.9420   36.6840 C   0  0  2  0  0  3  0  0  0  0  0  0
   38.1900   24.0090   37.5330 C   0  0  0  0  0  3  0  0  0  0  0  0
   38.4250   23.8660   38.6090 H   0  0  0  0  0  0  0  0  0  0  0  0
   37.3090   22.9310   36.9650 C   0  0  0  0  0  3  0  0  0  0  0  0
   36.8020   22.3800   37.7950 H   0  0  0  0  0  0  0  0  0  0  0  0
   38.2560   22.0100   36.3220 N   0  0  0  0  0  0  0  0  0  0  0  0
   37.7510   21.2180   35.8630 H   0  0  0  0  0  0  0  0  0  0  0  0
   37.2740   27.8160   35.0610 C   0  0  0  0  0  0  0  0  0  0  0  0
   38.0300   28.5780   35.1280 H   0  0  0  0  0  0  0  0  0  0  0  0
   36.6770   27.9410   36.0110 H   0  0  0  0  0  0  0  0  0  0  0  0
   34.7540   29.1910   32.9090 C   0  0  0  0  0  0  0  0  0  0  0  0
   35.5450   28.5410   32.0140 C   0  0  0  0  0  0  0  0  0  0  0  0
   36.5850   27.9470   32.7070 C   0  0  0  0  0  0  0  0  0  0  0  0
   36.3800   28.2590   33.9970 N   0  0  0  0  0  0  0  0  0  0  0  0
   35.2780   29.0060   34.1080 N   0  0  0  0  0  0  0  0  0  0  0  0
   35.3610   28.5150   30.9380 H   0  0  0  0  0  0  0  0  0  0  0  0
   37.2710   27.4100   32.0890 H   0  0  0  0  0  0  0  0  0  0  0  0
   32.3510   31.5910   31.2740 C   0  0  0  0  0  0  0  0  0  0  0  0
   33.5330   30.9400   31.5530 C   0  0  0  0  0  0  0  0  0  0  0  0
   33.5820   29.9600   32.5340 C   0  0  0  0  0  0  0  0  0  0  0  0
   32.3950   29.7330   33.1470 N   0  0  0  0  0  0  0  0  0  0  0  0
   31.2500   30.3690   32.8700 C   0  0  0  0  0  0  0  0  0  0  0  0
   31.2350   31.2970   31.9310 N   0  0  0  0  0  0  0  0  0  0  0  0
   32.3150   32.3540   30.5100 H   0  0  0  0  0  0  0  0  0  0  0  0
   34.4630   31.1530   31.0370 H   0  0  0  0  0  0  0  0  0  0  0  0
   30.4010   30.0460   33.4710 H   0  0  0  0  0  0  0  0  0  0  0  0
  1 26  1  0  0  0  0
  1  4  1  0  0  0  0
  1  2  1  0  0  0  0
  3  1  1  0  0  0  0
  5  4  1  0  0  0  0
  5 11  1  0  0  0  0
  6  7  1  0  0  0  0
  6 12  1  0  0  0  0
  6  5  1  0  0  0  0
  8 14  1  0  0  0  0
  8  7  1  0  0  0  0
  8  9  1  0  0  0  0
  9 16  1  6  0  0  0
  9  4  1  0  0  0  0
  9 19  1  0  0  0  0
 10  5  1  0  0  0  0
 13  6  1  0  0  0  0
 15  8  1  0  0  0  0
 17 18  2  0  0  0  0
 19 18  1  6  0  0  0
 19 20  1  0  0  0  0
 20 21  1  0  0  0  0
 22 20  1  0  0  0  0
 22 23  1  0  0  0  0
 24 18  1  0  0  0  0
 24 22  1  0  0  0  0
 25 24  1  0  0  0  0
 26 27  1  0  0  0  0
 26 28  1  0  0  0  0
 29 33  2  0  0  0  0
 30 31  2  0  0  0  0
 30 29  1  0  0  0  0
 31 32  1  0  0  0  0
 32 33  1  0  0  0  0
 32 26  1  0  0  0  0
 34 30  1  0  0  0  0
 35 31  1  0  0  0  0
 36 37  2  0  0  0  0
 36 41  1  0  0  0  0
 37 38  1  0  0  0  0
 38 29  1  0  0  0  0
 38 39  2  0  0  0  0
 40 39  1  0  0  0  0
 40 44  1  0  0  0  0
 41 40  2  0  0  0  0
 42 36  1  0  0  0  0
 43 37  1  0  0  0  0
M  END
>  <minimizedAffinity>
-5.17933607

$$$$

 OpenBabel03272508383D

 44 47  0  0  1  0  0  0  0  0999 V2000
   37.7220   25.3430   33.4550 C   0  0  0  0  0  0  0  0  0  0  0  0
   37.0470   25.7000   34.2620 H   0  0  0  0  0  0  0  0  0  0  0  0
   37.3200   24.3200   33.2200 H   0  0  0  0  0  0  0  0  0  0  0  0
   38.9910   25.1540   34.0340 N   0  0  0  0  0  0  0  0  0  0  0  0
   40.0610   25.9220   33.5250 C   0  0  0  0  0  0  0  0  0  0  0  0
   41.1690   25.1920   32.8860 C   0  0  0  0  0  0  0  0  0  0  0  0
   41.5250   24.0400   33.6470 O   0  0  0  0  0  0  0  0  0  0  0  0
   40.4170   23.2260   33.6670 C   0  0  0  0  0  0  0  0  0  0  0  0
   39.3510   23.8880   34.5040 C   0  0  1  0  0  0  0  0  0  0  0  0
   39.8780   26.8940   33.0990 H   0  0  0  0  0  0  0  0  0  0  0  0
   40.5130   26.2550   34.5290 H   0  0  0  0  0  0  0  0  0  0  0  0
   42.1110   25.8430   33.1220 H   0  0  0  0  0  0  0  0  0  0  0  0
   41.2980   25.0300   31.8650 H   0  0  0  0  0  0  0  0  0  0  0  0
   40.7280   22.3260   34.2830 H   0  0  0  0  0  0  0  0  0  0  0  0
   40.0860   22.8160   32.7210 H   0  0  0  0  0  0  0  0  0  0  0  0
   38.4570   23.2210   34.4260 H   0  0  0  0  0  0  0  0  0  0  0  0
   40.8030   21.6200   36.7000 O   0  0  0  0  0  0  0  0  0  0  0  0
   39.9020   22.4320   36.3930 C   0  0  0  0  0  0  0  0  0  0  0  0
   39.7310   23.8490   35.9730 C   0  0  2  0  0  3  0  0  0  0  0  0
   38.4940   24.2420   36.7530 C   0  0  0  0  0  3  0  0  0  0  0  0
   38.7500   24.5350   37.7930 H   0  0  0  0  0  0  0  0  0  0  0  0
   37.6140   23.0240   36.6750 C   0  0  0  0  0  3  0  0  0  0  0  0
   37.1280   22.8440   37.6650 H   0  0  0  0  0  0  0  0  0  0  0  0
   38.5580   21.9270   36.4270 N   0  0  0  0  0  0  0  0  0  0  0  0
   38.0540   21.0170   36.3280 H   0  0  0  0  0  0  0  0  0  0  0  0
   37.6340   26.1510   32.2460 C   0  0  0  0  0  0  0  0  0  0  0  0
   37.2120   25.8010   31.3210 H   0  0  0  0  0  0  0  0  0  0  0  0
   38.6890   26.4420   31.9720 H   0  0  0  0  0  0  0  0  0  0  0  0
   35.9150   29.0360   33.5090 C   0  0  0  0  0  0  0  0  0  0  0  0
   36.1100   29.3880   32.2100 C   0  0  0  0  0  0  0  0  0  0  0  0
   36.7760   28.3550   31.5770 C   0  0  0  0  0  0  0  0  0  0  0  0
   36.9560   27.4140   32.5180 N   0  0  0  0  0  0  0  0  0  0  0  0
   36.4360   27.8330   33.6750 N   0  0  0  0  0  0  0  0  0  0  0  0
   35.7830   30.3360   31.7750 H   0  0  0  0  0  0  0  0  0  0  0  0
   36.9820   28.5350   30.5440 H   0  0  0  0  0  0  0  0  0  0  0  0
   33.4270   30.8090   35.7170 C   0  0  0  0  0  0  0  0  0  0  0  0
   33.9140   29.9600   34.7470 C   0  0  0  0  0  0  0  0  0  0  0  0
   35.2750   29.8980   34.4860 C   0  0  0  0  0  0  0  0  0  0  0  0
   36.0230   30.7240   35.2560 N   0  0  0  0  0  0  0  0  0  0  0  0
   35.5430   31.5460   36.1970 C   0  0  0  0  0  0  0  0  0  0  0  0
   34.2420   31.5830   36.4230 N   0  0  0  0  0  0  0  0  0  0  0  0
   32.3660   30.8560   35.9190 H   0  0  0  0  0  0  0  0  0  0  0  0
   33.2780   29.3130   34.1520 H   0  0  0  0  0  0  0  0  0  0  0  0
   36.3030   32.1330   36.7110 H   0  0  0  0  0  0  0  0  0  0  0  0
  1  4  1  0  0  0  0
  1  2  1  0  0  0  0
  3  1  1  0  0  0  0
  4  9  1  0  0  0  0
  5  4  1  0  0  0  0
  5 11  1  0  0  0  0
  6 12  1  0  0  0  0
  6  5  1  0  0  0  0
  6  7  1  0  0  0  0
  7  8  1  0  0  0  0
  8 14  1  0  0  0  0
  8  9  1  0  0  0  0
  9 16  1  6  0  0  0
  9 19  1  0  0  0  0
 10  5  1  0  0  0  0
 13  6  1  0  0  0  0
 15  8  1  0  0  0  0
 18 24  1  0  0  0  0
 18 17  2  0  0  0  0
 19 18  1  1  0  0  0
 19 20  1  0  0  0  0
 20 21  1  0  0  0  0
 22 20  1  0  0  0  0
 22 23  1  0  0  0  0
 24 22  1  0  0  0  0
 25 24  1  0  0  0  0
 26 32  1  0  0  0  0
 26  1  1  0  0  0  0
 27 26  1  0  0  0  0
 28 26  1  0  0  0  0
 29 33  2  0  0  0  0
 29 38  1  0  0  0  0
 30 29  1  0  0  0  0
 31 30  2  0  0  0  0
 31 32  1  0  0  0  0
 32 33  1  0  0  0  0
 34 30  1  0  0  0  0
 35 31  1  0  0  0  0
 36 42  1  0  0  0  0
 36 41  1  0  0  0  0
 37 36  2  0  0  0  0
 38 37  1  0  0  0  0
 38 39  2  0  0  0  0
 39 40  1  0  0  0  0
 40 41  2  0  0  0  0
 40 44  1  0  0  0  0
 43 37  1  0  0  0  0
M  END
>  <minimizedAffinity>
-5.13016701

$$$$

 OpenBabel03272508383D

 44 47  0  0  1  0  0  0  0  0999 V2000
   37.3920   25.6790   33.6300 C   0  0  0  0  0  0  0  0  0  0  0  0
   37.3510   26.1550   34.6340 H   0  0  0  0  0  0  0  0  0  0  0  0
   36.4090   25.1380   33.5650 H   0  0  0  0  0  0  0  0  0  0  0  0
   38.3930   24.6910   33.6850 N   0  0  0  0  0  0  0  0  0  0  0  0
   37.9900   23.3460   33.5390 C   0  0  0  0  0  0  0  0  0  0  0  0
   38.2120   22.4470   34.6850 C   0  0  0  0  0  0  0  0  0  0  0  0
   39.5010   22.6610   35.2560 O   0  0  0  0  0  0  0  0  0  0  0  0
   39.5200   23.9600   35.7060 C   0  0  0  0  0  0  0  0  0  0  0  0
   39.5040   24.8820   34.5130 C   0  0  1  0  0  0  0  0  0  0  0  0
   37.1180   23.1000   32.9580 H   0  0  0  0  0  0  0  0  0  0  0  0
   38.7970   23.0160   32.7890 H   0  0  0  0  0  0  0  0  0  0  0  0
   38.4210   21.4070   34.1930 H   0  0  0  0  0  0  0  0  0  0  0  0
   37.5130   22.1820   35.4090 H   0  0  0  0  0  0  0  0  0  0  0  0
   40.5550   24.1010   36.1470 H   0  0  0  0  0  0  0  0  0  0  0  0
   38.8380   24.2170   36.5080 H   0  0  0  0  0  0  0  0  0  0  0  0
   39.4470   25.9150   34.9370 H   0  0  0  0  0  0  0  0  0  0  0  0
   42.8690   24.8430   35.3800 O   0  0  0  0  0  0  0  0  0  0  0  0
   41.9080   25.2950   34.7190 C   0  0  0  0  0  0  0  0  0  0  0  0
   40.8390   24.8370   33.7910 C   0  0  2  0  0  3  0  0  0  0  0  0
   40.8240   25.9620   32.7770 C   0  0  0  0  0  3  0  0  0  0  0  0
   41.6120   25.8210   32.0080 H   0  0  0  0  0  0  0  0  0  0  0  0
   41.0140   27.2010   33.6080 C   0  0  0  0  0  3  0  0  0  0  0  0
   41.7140   27.9000   33.0890 H   0  0  0  0  0  0  0  0  0  0  0  0
   41.6810   26.7090   34.8210 N   0  0  0  0  0  0  0  0  0  0  0  0
   41.8470   27.4890   35.4970 H   0  0  0  0  0  0  0  0  0  0  0  0
   37.4470   26.6510   32.5460 C   0  0  0  0  0  0  0  0  0  0  0  0
   37.2260   26.4160   31.5210 H   0  0  0  0  0  0  0  0  0  0  0  0
   38.5050   27.0420   32.5140 H   0  0  0  0  0  0  0  0  0  0  0  0
   35.5990   29.4070   33.9100 C   0  0  0  0  0  0  0  0  0  0  0  0
   35.3250   29.5310   32.5830 C   0  0  0  0  0  0  0  0  0  0  0  0
   35.9810   28.5170   31.9100 C   0  0  0  0  0  0  0  0  0  0  0  0
   36.6260   27.8160   32.8560 N   0  0  0  0  0  0  0  0  0  0  0  0
   36.3900   28.3590   34.0540 N   0  0  0  0  0  0  0  0  0  0  0  0
   34.6900   30.3120   32.1580 H   0  0  0  0  0  0  0  0  0  0  0  0
   35.8320   28.5270   30.8520 H   0  0  0  0  0  0  0  0  0  0  0  0
   35.2840   32.0590   36.5700 C   0  0  0  0  0  0  0  0  0  0  0  0
   35.8730   31.2230   35.6460 C   0  0  0  0  0  0  0  0  0  0  0  0
   35.1060   30.3250   34.9200 C   0  0  0  0  0  0  0  0  0  0  0  0
   33.7830   30.3670   35.2110 N   0  0  0  0  0  0  0  0  0  0  0  0
   33.2170   31.1830   36.1090 C   0  0  0  0  0  0  0  0  0  0  0  0
   33.9740   32.0280   36.7850 N   0  0  0  0  0  0  0  0  0  0  0  0
   35.8840   32.7590   37.1350 H   0  0  0  0  0  0  0  0  0  0  0  0
   36.9390   31.2220   35.4440 H   0  0  0  0  0  0  0  0  0  0  0  0
   32.1380   31.0690   36.2010 H   0  0  0  0  0  0  0  0  0  0  0  0
  1  4  1  0  0  0  0
  1  2  1  0  0  0  0
  3  1  1  0  0  0  0
  4  9  1  0  0  0  0
  5  4  1  0  0  0  0
  5  6  1  0  0  0  0
  6  7  1  0  0  0  0
  6 13  1  0  0  0  0
  7  8  1  0  0  0  0
  8 14  1  0  0  0  0
  8 15  1  0  0  0  0
  9 16  1  1  0  0  0
  9  8  1  0  0  0  0
 10  5  1  0  0  0  0
 11  5  1  0  0  0  0
 12  6  1  0  0  0  0
 18 24  1  0  0  0  0
 18 17  2  0  0  0  0
 19 20  1  6  0  0  0
 19  9  1  0  0  0  0
 19 18  1  0  0  0  0
 20 22  1  0  0  0  0
 21 20  1  0  0  0  0
 22 24  1  0  0  0  0
 23 22  1  0  0  0  0
 24 25  1  0  0  0  0
 26 32  1  0  0  0  0
 26  1  1  0  0  0  0
 27 26  1  0  0  0  0
 28 26  1  0  0  0  0
 29 33  2  0  0  0  0
 29 38  1  0  0  0  0
 30 29  1  0  0  0  0
 31 30  2  0  0  0  0
 31 32  1  0  0  0  0
 32 33  1  0  0  0  0
 34 30  1  0  0  0  0
 35 31  1  0  0  0  0
 36 41  1  0  0  0  0
 36 42  1  0  0  0  0
 37 36  2  0  0  0  0
 38 39  2  0  0  0  0
 38 37  1  0  0  0  0
 39 40  1  0  0  0  0
 40 44  1  0  0  0  0
 40 41  2  0  0  0  0
 43 37  1  0  0  0  0
M  END
>  <minimizedAffinity>
-5.09493589

$$$$
