
 OpenBabel03272505163D

 42 45  0  0  1  0  0  0  0  0999 V2000
   37.2280   31.3000   43.1320 N   0  0  0  0  0  0  0  0  0  0  0  0
   37.3560   32.6750   42.7010 C   0  0  0  0  0  0  0  0  0  0  0  0
   37.7990   32.6840   41.2910 C   0  0  0  0  0  0  0  0  0  0  0  0
   37.0630   31.7610   40.5300 N   0  0  0  0  0  0  0  0  0  0  0  0
   37.2920   30.4120   40.9200 C   0  0  0  0  0  0  0  0  0  0  0  0
   37.8070   30.2840   42.3020 C   0  0  1  0  0  0  0  0  0  0  0  0
   38.1050   33.1590   43.3950 H   0  0  0  0  0  0  0  0  0  0  0  0
   36.3800   33.1490   42.8520 H   0  0  0  0  0  0  0  0  0  0  0  0
   38.8620   32.8240   41.0830 H   0  0  0  0  0  0  0  0  0  0  0  0
   37.3840   33.6800   40.9210 H   0  0  0  0  0  0  0  0  0  0  0  0
   37.0180   31.9380   39.5150 H   0  0  0  0  0  0  0  0  0  0  0  0
   38.0800   30.0140   40.2170 H   0  0  0  0  0  0  0  0  0  0  0  0
   36.3720   29.8600   40.6550 H   0  0  0  0  0  0  0  0  0  0  0  0
   37.2880   29.3330   42.6060 H   0  0  0  0  0  0  0  0  0  0  0  0
   38.6470   31.8520   45.6470 Cl  0  0  0  0  0  0  0  0  0  0  0  0
   37.1230   31.0430   45.5660 C   0  0  0  0  0  0  0  0  0  0  0  0
   36.5220   30.6170   46.7030 C   0  0  0  0  0  0  0  0  0  0  0  0
   35.2820   30.0030   46.5390 C   0  0  0  0  0  0  0  0  0  0  0  0
   34.6590   29.8120   45.3450 C   0  0  0  0  0  0  0  0  0  0  0  0
   35.3110   30.2640   44.2110 C   0  0  0  0  0  0  0  0  0  0  0  0
   36.5520   30.8820   44.3180 C   0  0  0  0  0  0  0  0  0  0  0  0
   34.7680   29.6460   47.4360 H   0  0  0  0  0  0  0  0  0  0  0  0
   33.6930   29.3280   45.2860 H   0  0  0  0  0  0  0  0  0  0  0  0
   34.8820   30.1480   43.2310 H   0  0  0  0  0  0  0  0  0  0  0  0
   37.8750   29.9950   50.1540 C   0  0  0  0  0  0  0  0  0  0  0  0
   37.2300   29.7870   48.9280 C   0  0  0  0  0  0  0  0  0  0  0  0
   37.1640   30.8100   47.9830 C   0  0  0  0  0  0  0  0  0  0  0  0
   37.7480   32.0050   48.3100 N   0  0  0  0  0  0  0  0  0  0  0  0
   38.3640   32.1950   49.4910 C   0  0  0  0  0  0  0  0  0  0  0  0
   38.4310   31.2000   50.4120 N   0  0  0  0  0  0  0  0  0  0  0  0
   37.9770   29.2670   50.9430 H   0  0  0  0  0  0  0  0  0  0  0  0
   36.8200   28.7990   48.9020 H   0  0  0  0  0  0  0  0  0  0  0  0
   38.7600   33.1970   49.5660 H   0  0  0  0  0  0  0  0  0  0  0  0
   38.6680   27.2200   42.2080 O   0  0  0  0  0  0  0  0  0  0  0  0
   39.2250   28.3480   42.3880 C   0  0  0  0  0  0  0  0  0  0  0  0
   39.1850   29.8560   42.5210 C   0  0  1  0  0  0  0  0  0  0  0  0
   40.3080   30.2300   41.6700 C   0  0  0  0  0  0  0  0  0  0  0  0
   40.1760   29.7840   40.6400 H   0  0  0  0  0  0  0  0  0  0  0  0
   41.4200   29.3370   42.2510 C   0  0  0  0  0  0  0  0  0  0  0  0
   42.1960   29.1460   41.4930 H   0  0  0  0  0  0  0  0  0  0  0  0
   40.6420   28.1260   42.5640 N   0  0  0  0  0  0  0  0  0  0  0  0
   41.2990   27.3390   42.8560 H   0  0  0  0  0  0  0  0  0  0  0  0
  1 21  1  0  0  0  0
  2  8  1  0  0  0  0
  2  1  1  0  0  0  0
  2  7  1  0  0  0  0
  3  2  1  0  0  0  0
  4  5  1  0  0  0  0
  4  3  1  0  0  0  0
  5  6  1  0  0  0  0
  6 36  1  0  0  0  0
  6 14  1  1  0  0  0
  6  1  1  0  0  0  0
  9  3  1  0  0  0  0
 10  3  1  0  0  0  0
 11  4  1  0  0  0  0
 12  5  1  0  0  0  0
 13  5  1  0  0  0  0
 16 15  1  0  0  0  0
 16 17  1  0  0  0  0
 17 27  1  0  0  0  0
 18 17  2  0  0  0  0
 18 22  1  0  0  0  0
 19 18  1  0  0  0  0
 20 21  1  0  0  0  0
 20 19  2  0  0  0  0
 21 16  2  0  0  0  0
 23 19  1  0  0  0  0
 24 20  1  0  0  0  0
 25 30  1  0  0  0  0
 25 31  1  0  0  0  0
 26 25  2  0  0  0  0
 27 28  2  0  0  0  0
 27 26  1  0  0  0  0
 28 29  1  0  0  0  0
 29 33  1  0  0  0  0
 29 30  2  0  0  0  0
 32 26  1  0  0  0  0
 34 35  2  0  0  0  0
 35 36  1  0  0  0  0
 35 41  1  0  0  0  0
 36 37  1  6  0  0  0
 37 39  1  0  0  0  0
 38 37  1  0  0  0  0
 39 41  1  0  0  0  0
 40 39  1  0  0  0  0
 41 42  1  0  0  0  0
M  END
>  <minimizedAffinity>
-5.67870378

>  <minimizedRMSD>
3.20731711

$$$$
