
 OpenBabel03262522063D

 40 43  0  0  1  0  0  0  0  0999 V2000
   34.5550   29.1410   48.6040 C   0  0  2  0  0  0  0  0  0  0  0  0
   35.2020   28.3880   49.7190 C   0  0  0  0  0  0  0  0  0  0  0  0
   36.3280   29.1660   50.2260 N   0  0  0  0  0  0  0  0  0  0  0  0
   37.2740   29.8950   51.0370 C   0  0  0  0  0  0  0  0  0  0  0  0
   37.4820   30.0560   52.2500 O   0  0  0  0  0  0  0  0  0  0  0  0
   37.9870   30.4500   49.9220 C   0  0  1  0  0  0  0  0  0  0  0  0
   37.1720   29.4480   49.1070 C   0  0  2  0  0  0  0  0  0  0  0  0
   35.9590   30.1690   47.9780 S   0  0  0  0  0  0  0  0  0  0  0  0
   34.4370   28.3340   50.5470 H   0  0  0  0  0  0  0  0  0  0  0  0
   35.4750   27.3580   49.4810 H   0  0  0  0  0  0  0  0  0  0  0  0
   39.0730   30.2210   49.7620 H   0  0  0  0  0  0  0  0  0  0  0  0
   37.7490   28.5970   48.6970 H   0  0  0  0  0  0  0  0  0  0  0  0
   33.3430   29.9330   48.9440 C   0  0  0  0  0  0  0  0  0  0  0  0
   33.4540   31.0210   48.7190 H   0  0  0  0  0  0  0  0  0  0  0  0
   33.1340   29.8330   50.0210 H   0  0  0  0  0  0  0  0  0  0  0  0
   32.4780   29.5330   48.3700 H   0  0  0  0  0  0  0  0  0  0  0  0
   34.2860   28.1500   47.4520 C   0  0  0  0  0  0  0  0  0  0  0  0
   33.2650   27.7540   47.6490 H   0  0  0  0  0  0  0  0  0  0  0  0
   35.0330   27.3340   47.4700 H   0  0  0  0  0  0  0  0  0  0  0  0
   34.3590   28.8440   46.2450 O   0  0  0  0  0  0  0  0  0  0  0  0
   34.1760   28.1780   45.5430 H   0  0  0  0  0  0  0  0  0  0  0  0
   37.7590   31.8690   49.6120 C   0  0  0  0  0  0  0  0  0  0  0  0
   36.7210   32.3440   50.1800 O   0  0  0  0  0  0  0  0  0  0  0  0
   38.6040   32.6580   48.7680 C   0  0  0  0  0  0  0  0  0  0  0  0
   39.1410   33.8190   49.2830 C   0  0  0  0  0  0  0  0  0  0  0  0
   39.9750   34.5950   48.4390 C   0  0  0  0  0  0  0  0  0  0  0  0
   40.1930   34.1420   47.1690 N   0  0  0  0  0  0  0  0  0  0  0  0
   39.6590   33.0180   46.7010 C   0  0  0  0  0  0  0  0  0  0  0  0
   38.8600   32.2650   47.4980 N   0  0  0  0  0  0  0  0  0  0  0  0
   38.9390   34.1340   50.2930 H   0  0  0  0  0  0  0  0  0  0  0  0
   40.3980   35.5010   48.8330 H   0  0  0  0  0  0  0  0  0  0  0  0
   41.7580   31.0400   45.8650 O   0  0  0  0  0  0  0  0  0  0  0  0
   40.7300   31.3700   45.1860 C   0  0  0  0  0  0  0  0  0  0  0  0
   39.9420   32.5960   45.3200 C   0  0  1  0  0  0  0  0  0  0  0  0
   38.6610   32.2080   44.5730 C   0  0  0  0  0  0  0  0  0  0  0  0
   38.0070   31.5600   45.1950 H   0  0  0  0  0  0  0  0  0  0  0  0
   39.2880   31.3940   43.4330 C   0  0  0  0  0  0  0  0  0  0  0  0
   38.5520   30.8330   42.8530 H   0  0  0  0  0  0  0  0  0  0  0  0
   40.2130   30.5060   44.1510 N   0  0  0  0  0  0  0  0  0  0  0  0
   40.4610   29.4970   43.9840 H   0  0  0  0  0  0  0  0  0  0  0  0
  1 17  1  6  0  0  0
  1 13  1  0  0  0  0
  1  2  1  0  0  0  0
  2  3  1  0  0  0  0
  2  9  1  0  0  0  0
  3  4  1  0  0  0  0
  4  5  2  0  0  0  0
  6 11  1  1  0  0  0
  6  4  1  0  0  0  0
  7 12  1  6  0  0  0
  7  6  1  0  0  0  0
  7  3  1  0  0  0  0
  8  1  1  0  0  0  0
  8  7  1  0  0  0  0
 10  2  1  0  0  0  0
 13 15  1  0  0  0  0
 14 13  1  0  0  0  0
 16 13  1  0  0  0  0
 17 19  1  0  0  0  0
 17 18  1  0  0  0  0
 20 17  1  0  0  0  0
 21 20  1  0  0  0  0
 22  6  1  0  0  0  0
 22 23  2  0  0  0  0
 24 25  1  0  0  0  0
 24 22  1  0  0  0  0
 25 30  1  0  0  0  0
 26 31  1  0  0  0  0
 26 25  2  0  0  0  0
 27 26  1  0  0  0  0
 28 27  2  0  0  0  0
 28 29  1  0  0  0  0
 29 24  2  0  0  0  0
 33 34  1  0  0  0  0
 33 32  2  0  0  0  0
 34 28  1  1  0  0  0
 35 36  1  0  0  0  0
 35 34  1  0  0  0  0
 37 39  1  0  0  0  0
 37 35  1  0  0  0  0
 38 37  1  0  0  0  0
 39 33  1  0  0  0  0
 40 39  1  0  0  0  0
M  END
>  <minimizedAffinity>
-5.87835598

>  <minimizedRMSD>
0.134374365

$$$$
