
 OpenBabel03272506203D

 44 47  0  0  1  0  0  0  0  0999 V2000
   38.4620   30.7610   45.1140 C   0  0  2  0  0  0  0  0  0  0  0  0
   38.5820   31.7220   46.2950 C   0  0  0  0  0  0  0  0  0  0  0  0
   39.4910   32.8660   46.0250 C   0  0  0  0  0  0  0  0  0  0  0  0
   40.8460   32.4410   45.5680 C   0  0  0  0  0  0  0  0  0  0  0  0
   40.8200   31.3800   44.5250 C   0  0  0  0  0  0  0  0  0  0  0  0
   39.4180   31.0460   44.0260 C   0  0  1  0  0  0  0  0  0  0  0  0
   38.5290   29.7110   45.4680 H   0  0  0  0  0  0  0  0  0  0  0  0
   39.0190   31.1390   47.1290 H   0  0  0  0  0  0  0  0  0  0  0  0
   37.6050   32.0950   46.6490 H   0  0  0  0  0  0  0  0  0  0  0  0
   39.5490   33.4920   46.9110 H   0  0  0  0  0  0  0  0  0  0  0  0
   39.0810   33.5300   45.2100 H   0  0  0  0  0  0  0  0  0  0  0  0
   41.3910   33.3600   45.2460 H   0  0  0  0  0  0  0  0  0  0  0  0
   41.3800   32.0650   46.4730 H   0  0  0  0  0  0  0  0  0  0  0  0
   41.3690   30.4730   44.8750 H   0  0  0  0  0  0  0  0  0  0  0  0
   41.3860   31.7700   43.6480 H   0  0  0  0  0  0  0  0  0  0  0  0
   39.1140   31.8910   43.3780 H   0  0  0  0  0  0  0  0  0  0  0  0
   37.0760   30.8790   44.5510 C   0  0  0  0  0  0  0  0  0  0  0  0
   36.1120   30.0640   45.1480 C   0  0  0  0  0  0  0  0  0  0  0  0
   34.8100   30.1420   44.6430 C   0  0  0  0  0  0  0  0  0  0  0  0
   34.5390   31.0070   43.5900 N   0  0  0  0  0  0  0  0  0  0  0  0
   35.5260   31.7830   43.0420 C   0  0  0  0  0  0  0  0  0  0  0  0
   36.7620   31.7130   43.5190 N   0  0  0  0  0  0  0  0  0  0  0  0
   33.7580   29.3680   45.1760 N   0  0  0  0  0  0  0  0  0  0  0  0
   33.3830   29.4760   46.4880 C   0  0  0  0  0  0  0  0  0  0  0  0
   32.3540   28.7160   46.9910 C   0  0  0  0  0  0  0  0  0  0  0  0
   31.7190   27.8510   46.1420 C   0  0  0  0  0  0  0  0  0  0  0  0
   30.7680   27.1450   46.5970 O   0  0  0  0  0  0  0  0  0  0  0  0
   32.0830   27.7380   44.8400 N   0  0  0  0  0  0  0  0  0  0  0  0
   33.0980   28.5080   44.4080 C   0  0  0  0  0  0  0  0  0  0  0  0
   33.3670   28.3320   43.1760 O   0  0  0  0  0  0  0  0  0  0  0  0
   36.2420   29.3760   45.9540 H   0  0  0  0  0  0  0  0  0  0  0  0
   35.2460   32.4340   42.2270 H   0  0  0  0  0  0  0  0  0  0  0  0
   33.9240   30.1840   47.1240 H   0  0  0  0  0  0  0  0  0  0  0  0
   32.1120   28.8550   48.0380 H   0  0  0  0  0  0  0  0  0  0  0  0
   31.5630   27.0610   44.2390 H   0  0  0  0  0  0  0  0  0  0  0  0
   39.8230   30.7190   40.7520 O   0  0  0  0  0  0  0  0  0  0  0  0
   39.2700   30.1290   41.7130 C   0  0  0  0  0  0  0  0  0  0  0  0
   39.5820   29.8260   43.1370 C   0  0  2  0  0  3  0  0  0  0  0  0
   38.6530   28.6950   43.5160 C   0  0  0  0  0  3  0  0  0  0  0  0
   38.2820   28.8100   44.5770 H   0  0  0  0  0  0  0  0  0  0  0  0
   37.5330   28.6580   42.5180 C   0  0  0  0  0  3  0  0  0  0  0  0
   37.4420   27.6570   42.0240 H   0  0  0  0  0  0  0  0  0  0  0  0
   37.9870   29.5570   41.4620 N   0  0  0  0  0  0  0  0  0  0  0  0
   37.3140   29.6720   40.6500 H   0  0  0  0  0  0  0  0  0  0  0  0
  1  7  1  1  0  0  0
  1  2  1  0  0  0  0
  2  9  1  0  0  0  0
  2  8  1  0  0  0  0
  3  2  1  0  0  0  0
  3 10  1  0  0  0  0
  4  3  1  0  0  0  0
  4 13  1  0  0  0  0
  5 14  1  0  0  0  0
  5  4  1  0  0  0  0
  6 16  1  6  0  0  0
  6  5  1  0  0  0  0
  6  1  1  0  0  0  0
 11  3  1  0  0  0  0
 12  4  1  0  0  0  0
 15  5  1  0  0  0  0
 17  1  1  0  0  0  0
 17 18  1  0  0  0  0
 18 31  1  0  0  0  0
 19 18  2  0  0  0  0
 19 23  1  0  0  0  0
 20 19  1  0  0  0  0
 21 22  1  0  0  0  0
 21 20  2  0  0  0  0
 22 17  2  0  0  0  0
 23 24  1  0  0  0  0
 24 25  2  0  0  0  0
 24 33  1  0  0  0  0
 25 34  1  0  0  0  0
 26 27  2  0  0  0  0
 26 25  1  0  0  0  0
 28 26  1  0  0  0  0
 29 28  1  0  0  0  0
 29 23  1  0  0  0  0
 30 29  2  0  0  0  0
 32 21  1  0  0  0  0
 35 28  1  0  0  0  0
 36 37  2  0  0  0  0
 38 37  1  6  0  0  0
 38 39  1  0  0  0  0
 38  6  1  0  0  0  0
 39 40  1  0  0  0  0
 41 39  1  0  0  0  0
 42 41  1  0  0  0  0
 43 37  1  0  0  0  0
 43 41  1  0  0  0  0
 44 43  1  0  0  0  0
M  END
>  <minimizedAffinity>
-4.63830185

>  <minimizedRMSD>
6.83831978

$$$$
