
 OpenBabel03272508103D

 34 36  0  0  1  0  0  0  0  0999 V2000
   36.6970   29.4490   44.0450 Cl  0  0  0  0  0  0  0  0  0  0  0  0
   38.3480   29.8230   43.5400 C   0  0  0  0  0  0  0  0  0  0  0  0
   39.3350   30.3140   44.4060 C   0  0  0  0  0  0  0  0  0  0  0  0
   40.5910   30.5670   43.8800 C   0  0  0  0  0  0  0  0  0  0  0  0
   40.8480   30.3370   42.5380 C   0  0  0  0  0  0  0  0  0  0  0  0
   39.9050   29.8630   41.6860 C   0  0  0  0  0  0  0  0  0  0  0  0
   38.6720   29.6130   42.2000 C   0  0  0  0  0  0  0  0  0  0  0  0
   41.2870   30.9370   44.5940 H   0  0  0  0  0  0  0  0  0  0  0  0
   41.8600   30.5630   42.2120 H   0  0  0  0  0  0  0  0  0  0  0  0
   40.1750   29.7060   40.6480 H   0  0  0  0  0  0  0  0  0  0  0  0
   37.6550   26.8100   41.9200 O   0  0  0  0  0  0  0  0  0  0  0  0
   37.8100   27.6450   40.9920 C   0  0  0  0  0  0  0  0  0  0  0  0
   37.6110   29.0860   41.2680 C   0  0  2  0  0  3  0  0  0  0  0  0
   37.7940   29.8000   39.9420 C   0  0  0  0  0  3  0  0  0  0  0  0
   36.7970   29.9500   39.4460 H   0  0  0  0  0  0  0  0  0  0  0  0
   38.6370   28.8090   39.1720 C   0  0  0  0  0  3  0  0  0  0  0  0
   38.5600   28.9620   38.0810 H   0  0  0  0  0  0  0  0  0  0  0  0
   38.1670   27.5100   39.6020 N   0  0  0  0  0  0  0  0  0  0  0  0
   38.0410   26.5600   39.1420 H   0  0  0  0  0  0  0  0  0  0  0  0
   38.8780   30.4710   45.6910 O   0  0  0  0  0  0  0  0  0  0  0  0
   39.4390   32.5560   47.1150 O   0  0  0  0  0  0  0  0  0  0  0  0
   38.3100   31.8580   46.4420 P   0  0  1  0  0  0  0  0  0  0  0  0
   37.7150   32.8540   45.1790 O   0  0  0  0  0  0  0  0  0  0  0  0
   36.9140   32.3840   44.8360 H   0  0  0  0  0  0  0  0  0  0  0  0
   37.0370   31.4560   47.4860 O   0  0  0  0  0  0  0  0  0  0  0  0
   37.6150   30.5160   50.9970 C   0  0  0  0  0  0  0  0  0  0  0  0
   37.7100   31.3080   49.8510 C   0  0  0  0  0  0  0  0  0  0  0  0
   37.0780   30.8690   48.6820 C   0  0  0  0  0  0  0  0  0  0  0  0
   36.3980   29.6800   48.7310 N   0  0  0  0  0  0  0  0  0  0  0  0
   36.3320   28.9480   49.8590 C   0  0  0  0  0  0  0  0  0  0  0  0
   36.9430   29.3740   50.9870 N   0  0  0  0  0  0  0  0  0  0  0  0
   38.1370   30.9530   51.8240 H   0  0  0  0  0  0  0  0  0  0  0  0
   38.2090   32.2460   49.6920 H   0  0  0  0  0  0  0  0  0  0  0  0
   35.7940   28.0030   49.9080 H   0  0  0  0  0  0  0  0  0  0  0  0
  2  1  1  0  0  0  0
  2  3  1  0  0  0  0
  3 20  1  0  0  0  0
  4  3  2  0  0  0  0
  4  8  1  0  0  0  0
  5  4  1  0  0  0  0
  6  7  1  0  0  0  0
  6  5  2  0  0  0  0
  7  2  2  0  0  0  0
  9  5  1  0  0  0  0
 10  6  1  0  0  0  0
 12 13  1  0  0  0  0
 12 11  2  0  0  0  0
 13  7  1  1  0  0  0
 14 13  1  0  0  0  0
 15 14  1  0  0  0  0
 16 18  1  0  0  0  0
 16 14  1  0  0  0  0
 17 16  1  0  0  0  0
 18 12  1  0  0  0  0
 19 18  1  0  0  0  0
 20 22  1  0  0  0  0
 22 21  2  1  0  0  0
 22 25  1  0  0  0  0
 23 22  1  0  0  0  0
 24 23  1  0  0  0  0
 25 28  1  0  0  0  0
 26 32  1  0  0  0  0
 27 26  2  0  0  0  0
 28 29  2  0  0  0  0
 28 27  1  0  0  0  0
 29 30  1  0  0  0  0
 30 34  1  0  0  0  0
 30 31  2  0  0  0  0
 31 26  1  0  0  0  0
 33 27  1  0  0  0  0
M  END
>  <minimizedAffinity>
-4.95152187

>  <minimizedRMSD>
0.180418119

$$$$
