
     RDKit          3D

 49 52  0  0  0  0  0  0  0  0999 V2000
   35.3340   30.3967   49.9711 C   0  0  2  0  0  0  0  0  0  0  0  0
   36.2522   31.3806   49.4126 C   0  0  0  0  0  0  0  0  0  0  0  0
   37.7365   30.9035   49.4471 C   0  0  2  0  0  0  0  0  0  0  0  0
   38.2146   30.5786   50.7685 C   0  0  0  0  0  0  0  0  0  0  0  0
   37.1854   29.8549   51.6335 C   0  0  0  0  0  0  0  0  0  0  0  0
   36.0480   29.3339   50.8140 C   0  0  0  0  0  0  0  0  0  0  0  0
   38.5725   30.6212   46.6292 Cl  0  0  0  0  0  0  0  0  0  0  0  0
   38.9570   32.0306   47.5843 C   0  0  0  0  0  0  0  0  0  0  0  0
   38.4759   32.0675   48.8686 C   0  0  0  0  0  0  0  0  0  0  0  0
   38.7933   33.2327   49.5432 C   0  0  0  0  0  0  0  0  0  0  0  0
   39.5253   34.2620   48.9837 C   0  0  0  0  0  0  0  0  0  0  0  0
   39.9801   34.1449   47.6690 C   0  0  0  0  0  0  0  0  0  0  0  0
   39.6806   32.9874   46.9543 C   0  0  0  0  0  0  0  0  0  0  0  0
   40.1442   32.8696   45.6153 N   0  0  0  0  0  0  0  0  0  0  0  0
   34.4971   29.6756   49.0156 C   0  0  0  0  0  0  0  0  0  0  0  0
   34.5116   30.2011   47.7310 C   0  0  0  0  0  0  0  0  0  0  0  0
   33.7704   29.5705   46.7388 C   0  0  0  0  0  0  0  0  0  0  0  0
   33.0406   28.4300   47.0869 N   0  0  0  0  0  0  0  0  0  0  0  0
   33.0497   27.9508   48.3410 C   0  0  0  0  0  0  0  0  0  0  0  0
   33.7781   28.5929   49.2564 N   0  0  0  0  0  0  0  0  0  0  0  0
   34.6317   30.8725   50.7199 H   0  0  0  0  0  0  0  0  0  0  0  0
   36.2761   32.2904   50.1073 H   0  0  0  0  0  0  0  0  0  0  0  0
   36.1496   31.7944   48.4332 H   0  0  0  0  0  0  0  0  0  0  0  0
   37.8132   30.0708   48.7283 H   0  0  0  0  0  0  0  0  0  0  0  0
   38.4834   31.4864   51.3422 H   0  0  0  0  0  0  0  0  0  0  0  0
   39.1602   30.0027   50.6829 H   0  0  0  0  0  0  0  0  0  0  0  0
   36.8721   30.4326   52.5141 H   0  0  0  0  0  0  0  0  0  0  0  0
   37.6994   28.9581   52.0377 H   0  0  0  0  0  0  0  0  0  0  0  0
   35.3494   28.8320   51.5015 H   0  0  0  0  0  0  0  0  0  0  0  0
   36.4697   28.5947   50.0937 H   0  0  0  0  0  0  0  0  0  0  0  0
   38.4461   33.3425   50.5628 H   0  0  0  0  0  0  0  0  0  0  0  0
   39.7215   35.1286   49.5888 H   0  0  0  0  0  0  0  0  0  0  0  0
   40.5535   34.9447   47.2242 H   0  0  0  0  0  0  0  0  0  0  0  0
   40.1741   33.7251   45.0120 H   0  0  0  0  0  0  0  0  0  0  0  0
   40.4446   31.9321   45.2637 H   0  0  0  0  0  0  0  0  0  0  0  0
   34.9563   31.0289   47.1975 H   0  0  0  0  0  0  0  0  0  0  0  0
   33.6153   29.7611   45.7086 H   0  0  0  0  0  0  0  0  0  0  0  0
   30.1095   26.7600   47.6171 O   0  0  0  0  0  0  0  0  0  0  0  0
   30.8500   27.0906   48.5863 C   0  0  0  0  0  0  0  0  0  0  0  0
   32.2894   26.7503   48.7382 C   0  0  2  0  0  0  0  0  0  0  0  0
   32.4039   26.5868   50.2331 C   0  0  2  0  0  0  0  0  0  0  0  0
   33.4291   26.8996   50.5208 H   0  0  0  0  0  0  0  0  0  0  0  0
   31.3809   27.5333   50.8249 C   0  0  1  0  0  0  0  0  0  0  0  0
   30.8599   27.0131   51.6625 H   0  0  0  0  0  0  0  0  0  0  0  0
   30.4829   27.8511   49.7349 N   0  0  0  0  0  0  0  0  0  0  0  0
   32.5790   25.8536   48.1927 H   0  0  0  0  0  0  0  0  0  0  0  0
   32.2622   25.5457   50.5245 H   0  0  0  0  0  0  0  0  0  0  0  0
   31.9042   28.4279   51.2276 H   0  0  0  0  0  0  0  0  0  0  0  0
   29.7070   28.5259   49.8050 H   0  0  0  0  0  0  0  0  0  0  0  0
  1  6  1  0
  2  3  1  0
  2  1  1  0
  3  4  1  0
  4  5  1  0
  6  5  1  0
  7  8  1  0
  8  9  2  0
  9  3  1  0
  9 10  1  0
 11 10  2  0
 12 11  1  0
 13  8  1  0
 13 12  2  0
 14 13  1  0
 15 20  1  0
 15  1  1  0
 16 15  2  0
 17 18  2  0
 17 16  1  0
 18 19  1  0
 19 20  2  0
  1 21  1  1
  2 22  1  0
  2 23  1  0
  3 24  1  6
  4 25  1  0
  4 26  1  0
  5 27  1  0
  5 28  1  0
  6 29  1  0
  6 30  1  0
 10 31  1  0
 11 32  1  0
 12 33  1  0
 14 34  1  0
 14 35  1  0
 16 36  1  0
 17 37  1  0
 38 39  2  0
 39 40  1  0
 40 41  1  0
 41 42  1  1
 41 43  1  0
 43 44  1  1
 43 45  1  0
 45 39  1  0
 40 46  1  6
 41 47  1  0
 43 48  1  0
 45 49  1  0
 19 40  1  0
M  ISO  8  21  13  22  13  23  13  24  13  25  13  26  13  27  13  28  13
M  ISO  8  29  13  30  13  31  14  32  14  33  14  36  14  37  14  42   8
M  ISO  1  44   8
M  END
>  <DihAtoms>  (1) 
17,18,39,38

>  <DihDeg>  (1) 
54.674198837387756

$$$$
