
 OpenBabel03272503573D

 34 37  0  0  1  0  0  0  0  0999 V2000
   32.6320   29.4470   33.2620 C   0  0  0  0  0  0  0  0  0  0  0  0
   32.6720   30.5570   34.1360 C   0  0  0  0  0  0  0  0  0  0  0  0
   33.9320   31.0210   34.4650 C   0  0  0  0  0  0  0  0  0  0  0  0
   34.9800   30.4070   33.9460 N   0  0  0  0  0  0  0  0  0  0  0  0
   34.9870   29.3740   33.1310 C   0  0  0  0  0  0  0  0  0  0  0  0
   33.7670   28.9450   32.8300 N   0  0  0  0  0  0  0  0  0  0  0  0
   31.7690   30.9990   34.5140 H   0  0  0  0  0  0  0  0  0  0  0  0
   36.0420   28.6020   32.4860 C   0  0  0  0  0  0  0  0  0  0  0  0
   36.1600   28.4870   31.1380 N   0  0  0  0  0  0  0  0  0  0  0  0
   37.1310   27.7820   30.5630 C   0  0  0  0  0  0  0  0  0  0  0  0
   38.0750   27.1250   31.2420 N   0  0  0  0  0  0  0  0  0  0  0  0
   38.0240   27.1920   32.5840 C   0  0  0  0  0  0  0  0  0  0  0  0
   38.9950   26.5170   33.2910 C   0  0  0  0  0  0  0  0  0  0  0  0
   38.9910   26.5510   34.6640 C   0  0  0  0  0  0  0  0  0  0  0  0
   37.9850   27.2820   35.2810 C   0  0  0  0  0  0  0  0  0  0  0  0
   37.0400   27.9370   34.5220 C   0  0  0  0  0  0  0  0  0  0  0  0
   37.0170   27.9230   33.1600 C   0  0  0  0  0  0  0  0  0  0  0  0
   37.2140   27.6970   29.4640 H   0  0  0  0  0  0  0  0  0  0  0  0
   39.7660   25.9560   32.7750 H   0  0  0  0  0  0  0  0  0  0  0  0
   39.7530   26.0220   35.1840 H   0  0  0  0  0  0  0  0  0  0  0  0
   38.0290   27.2760   36.3640 H   0  0  0  0  0  0  0  0  0  0  0  0
   36.3270   28.4530   35.1450 H   0  0  0  0  0  0  0  0  0  0  0  0
   36.1830   31.2270   36.0390 O   0  0  0  0  0  0  0  0  0  0  0  0
   35.1480   31.8740   36.4110 C   0  0  0  0  0  0  0  0  0  0  0  0
   34.1140   32.1800   35.3740 C   0  0  2  0  0  3  0  0  0  0  0  0
   32.9130   32.4580   36.2260 C   0  0  0  0  0  3  0  0  0  0  0  0
   32.4860   31.5390   36.6390 H   0  0  0  0  0  0  0  0  0  0  0  0
   33.5470   33.2250   37.3890 C   0  0  0  0  0  3  0  0  0  0  0  0
   33.9350   34.2010   37.0680 H   0  0  0  0  0  0  0  0  0  0  0  0
   34.7280   32.4070   37.6740 N   0  0  0  0  0  0  0  0  0  0  0  0
   35.3260   32.1070   38.4730 H   0  0  0  0  0  0  0  0  0  0  0  0
   31.3770   28.8780   32.8480 N   0  0  0  0  0  0  0  0  0  0  0  0
   30.5190   29.0750   33.4450 H   0  0  0  0  0  0  0  0  0  0  0  0
   31.3530   28.3100   32.0040 H   0  0  0  0  0  0  0  0  0  0  0  0
  1  2  1  0  0  0  0
  2  3  2  0  0  0  0
  2  7  1  0  0  0  0
  4  3  1  0  0  0  0
  5  4  2  0  0  0  0
  6  5  1  0  0  0  0
  6  1  2  0  0  0  0
  8  5  1  0  0  0  0
  8 17  1  0  0  0  0
  9  8  2  0  0  0  0
 10  9  1  0  0  0  0
 10 11  2  0  0  0  0
 11 12  1  0  0  0  0
 12 17  2  0  0  0  0
 12 13  1  0  0  0  0
 13 14  2  0  0  0  0
 14 20  1  0  0  0  0
 14 15  1  0  0  0  0
 15 21  1  0  0  0  0
 16 22  1  0  0  0  0
 16 15  2  0  0  0  0
 17 16  1  0  0  0  0
 18 10  1  0  0  0  0
 19 13  1  0  0  0  0
 23 24  2  0  0  0  0
 24 30  1  0  0  0  0
 25  3  1  6  0  0  0
 25 26  1  0  0  0  0
 25 24  1  0  0  0  0
 26 27  1  0  0  0  0
 26 28  1  0  0  0  0
 28 30  1  0  0  0  0
 29 28  1  0  0  0  0
 30 31  1  0  0  0  0
 32  1  1  0  0  0  0
 32 33  1  0  0  0  0
 34 32  1  0  0  0  0
M  END
>  <minimizedAffinity>
-6.34831142

$$$$

 OpenBabel03272503573D

 34 37  0  0  1  0  0  0  0  0999 V2000
   35.4700   31.0450   31.4810 C   0  0  0  0  0  0  0  0  0  0  0  0
   34.9650   31.8260   32.5450 C   0  0  0  0  0  0  0  0  0  0  0  0
   34.8720   31.1900   33.7690 C   0  0  0  0  0  0  0  0  0  0  0  0
   35.2550   29.9280   33.8500 N   0  0  0  0  0  0  0  0  0  0  0  0
   35.7290   29.1670   32.8870 C   0  0  0  0  0  0  0  0  0  0  0  0
   35.8090   29.7980   31.7210 N   0  0  0  0  0  0  0  0  0  0  0  0
   34.6760   32.8500   32.3950 H   0  0  0  0  0  0  0  0  0  0  0  0
   36.1870   27.7840   32.8230 C   0  0  0  0  0  0  0  0  0  0  0  0
   35.8720   26.9440   31.8040 N   0  0  0  0  0  0  0  0  0  0  0  0
   36.3010   25.6860   31.7570 C   0  0  0  0  0  0  0  0  0  0  0  0
   37.0730   25.1270   32.6940 N   0  0  0  0  0  0  0  0  0  0  0  0
   37.4270   25.9000   33.7370 C   0  0  0  0  0  0  0  0  0  0  0  0
   38.2220   25.3310   34.7060 C   0  0  0  0  0  0  0  0  0  0  0  0
   38.6140   26.0730   35.7930 C   0  0  0  0  0  0  0  0  0  0  0  0
   38.1760   27.3890   35.8590 C   0  0  0  0  0  0  0  0  0  0  0  0
   37.3800   27.9040   34.8590 C   0  0  0  0  0  0  0  0  0  0  0  0
   36.9750   27.1940   33.7690 C   0  0  0  0  0  0  0  0  0  0  0  0
   36.0370   25.0130   30.9210 H   0  0  0  0  0  0  0  0  0  0  0  0
   38.5460   24.3000   34.6220 H   0  0  0  0  0  0  0  0  0  0  0  0
   39.2290   25.6100   36.5270 H   0  0  0  0  0  0  0  0  0  0  0  0
   38.5130   27.9280   36.7360 H   0  0  0  0  0  0  0  0  0  0  0  0
   37.1200   28.9310   35.0560 H   0  0  0  0  0  0  0  0  0  0  0  0
   36.5920   32.5390   35.4460 O   0  0  0  0  0  0  0  0  0  0  0  0
   35.4700   32.1730   35.9300 C   0  0  0  0  0  0  0  0  0  0  0  0
   34.3580   31.8970   34.9680 C   0  0  2  0  0  3  0  0  0  0  0  0
   33.4440   31.0540   35.8050 C   0  0  0  0  0  3  0  0  0  0  0  0
   33.8280   30.0370   35.9290 H   0  0  0  0  0  0  0  0  0  0  0  0
   33.5590   31.7510   37.1630 C   0  0  0  0  0  3  0  0  0  0  0  0
   33.1220   32.7590   37.1410 H   0  0  0  0  0  0  0  0  0  0  0  0
   35.0060   31.9530   37.2690 N   0  0  0  0  0  0  0  0  0  0  0  0
   35.7640   31.9840   37.9830 H   0  0  0  0  0  0  0  0  0  0  0  0
   35.6140   31.6000   30.1620 N   0  0  0  0  0  0  0  0  0  0  0  0
   35.0460   32.4670   29.9200 H   0  0  0  0  0  0  0  0  0  0  0  0
   36.2500   31.1480   29.5080 H   0  0  0  0  0  0  0  0  0  0  0  0
  1  6  2  0  0  0  0
  1  2  1  0  0  0  0
  2  3  2  0  0  0  0
  3  4  1  0  0  0  0
  5  4  2  0  0  0  0
  6  5  1  0  0  0  0
  7  2  1  0  0  0  0
  8  5  1  0  0  0  0
  8 17  1  0  0  0  0
  9  8  2  0  0  0  0
 10  9  1  0  0  0  0
 10 11  2  0  0  0  0
 11 12  1  0  0  0  0
 12 17  2  0  0  0  0
 12 13  1  0  0  0  0
 13 14  2  0  0  0  0
 14 15  1  0  0  0  0
 14 20  1  0  0  0  0
 15 21  1  0  0  0  0
 16 22  1  0  0  0  0
 16 15  2  0  0  0  0
 17 16  1  0  0  0  0
 18 10  1  0  0  0  0
 19 13  1  0  0  0  0
 23 24  2  0  0  0  0
 24 30  1  0  0  0  0
 25  3  1  6  0  0  0
 25 26  1  0  0  0  0
 25 24  1  0  0  0  0
 26 27  1  0  0  0  0
 26 28  1  0  0  0  0
 28 30  1  0  0  0  0
 29 28  1  0  0  0  0
 30 31  1  0  0  0  0
 32  1  1  0  0  0  0
 33 32  1  0  0  0  0
 34 32  1  0  0  0  0
M  END
>  <minimizedAffinity>
-6.30927944

$$$$

 OpenBabel03272503573D

 34 37  0  0  1  0  0  0  0  0999 V2000
   36.0590   29.3500   31.4580 C   0  0  0  0  0  0  0  0  0  0  0  0
   37.0960   28.4490   31.7890 C   0  0  0  0  0  0  0  0  0  0  0  0
   37.0750   27.9530   33.0790 C   0  0  0  0  0  0  0  0  0  0  0  0
   36.1070   28.3480   33.8870 N   0  0  0  0  0  0  0  0  0  0  0  0
   35.1250   29.1830   33.6190 C   0  0  0  0  0  0  0  0  0  0  0  0
   35.1660   29.6470   32.3760 N   0  0  0  0  0  0  0  0  0  0  0  0
   37.8480   28.1780   31.0710 H   0  0  0  0  0  0  0  0  0  0  0  0
   34.0030   29.7050   34.3900 C   0  0  0  0  0  0  0  0  0  0  0  0
   32.7360   29.2330   34.2690 N   0  0  0  0  0  0  0  0  0  0  0  0
   31.7220   29.7170   34.9820 C   0  0  0  0  0  0  0  0  0  0  0  0
   31.8450   30.7010   35.8770 N   0  0  0  0  0  0  0  0  0  0  0  0
   33.0730   31.2210   36.0520 C   0  0  0  0  0  0  0  0  0  0  0  0
   33.2070   32.2360   36.9730 C   0  0  0  0  0  0  0  0  0  0  0  0
   34.4380   32.8030   37.1930 C   0  0  0  0  0  0  0  0  0  0  0  0
   35.5080   32.3110   36.4580 C   0  0  0  0  0  0  0  0  0  0  0  0
   35.3140   31.2930   35.5480 C   0  0  0  0  0  0  0  0  0  0  0  0
   34.1060   30.7100   35.3080 C   0  0  0  0  0  0  0  0  0  0  0  0
   30.6960   29.3230   34.8720 H   0  0  0  0  0  0  0  0  0  0  0  0
   32.3490   32.5940   37.5300 H   0  0  0  0  0  0  0  0  0  0  0  0
   34.5140   33.5840   37.9100 H   0  0  0  0  0  0  0  0  0  0  0  0
   36.4550   32.7930   36.6700 H   0  0  0  0  0  0  0  0  0  0  0  0
   36.2350   31.0280   35.0560 H   0  0  0  0  0  0  0  0  0  0  0  0
   36.7840   25.2470   32.6550 O   0  0  0  0  0  0  0  0  0  0  0  0
   37.5530   25.6100   33.6060 C   0  0  0  0  0  0  0  0  0  0  0  0
   38.1070   26.9990   33.5560 C   0  0  2  0  0  3  0  0  0  0  0  0
   38.4970   27.2150   34.9870 C   0  0  0  0  0  3  0  0  0  0  0  0
   37.6250   27.3940   35.6230 H   0  0  0  0  0  0  0  0  0  0  0  0
   39.0500   25.8360   35.3540 C   0  0  0  0  0  3  0  0  0  0  0  0
   39.9770   25.6110   34.8070 H   0  0  0  0  0  0  0  0  0  0  0  0
   38.0340   24.9490   34.7840 N   0  0  0  0  0  0  0  0  0  0  0  0
   37.5760   24.0300   34.9630 H   0  0  0  0  0  0  0  0  0  0  0  0
   35.9770   29.9300   30.1440 N   0  0  0  0  0  0  0  0  0  0  0  0
   36.8570   29.9400   29.5470 H   0  0  0  0  0  0  0  0  0  0  0  0
   35.0850   30.3090   29.8320 H   0  0  0  0  0  0  0  0  0  0  0  0
  1  2  2  0  0  0  0
  1  6  1  0  0  0  0
  2  3  1  0  0  0  0
  3  4  2  0  0  0  0
  5  4  1  0  0  0  0
  5  8  1  0  0  0  0
  6  5  2  0  0  0  0
  7  2  1  0  0  0  0
  8 17  1  0  0  0  0
  9  8  2  0  0  0  0
  9 10  1  0  0  0  0
 10 11  2  0  0  0  0
 11 12  1  0  0  0  0
 12 13  1  0  0  0  0
 13 14  2  0  0  0  0
 13 19  1  0  0  0  0
 14 20  1  0  0  0  0
 15 21  1  0  0  0  0
 15 14  1  0  0  0  0
 16 15  2  0  0  0  0
 17 16  1  0  0  0  0
 17 12  2  0  0  0  0
 18 10  1  0  0  0  0
 22 16  1  0  0  0  0
 23 24  2  0  0  0  0
 24 30  1  0  0  0  0
 25  3  1  1  0  0  0
 25 24  1  0  0  0  0
 25 26  1  0  0  0  0
 26 28  1  0  0  0  0
 26 27  1  0  0  0  0
 29 28  1  0  0  0  0
 30 31  1  0  0  0  0
 30 28  1  0  0  0  0
 32  1  1  0  0  0  0
 33 32  1  0  0  0  0
 34 32  1  0  0  0  0
M  END
>  <minimizedAffinity>
-6.10119152

$$$$

 OpenBabel03272503573D

 34 37  0  0  1  0  0  0  0  0999 V2000
   37.3200   23.2240   32.0980 C   0  0  0  0  0  0  0  0  0  0  0  0
   37.3780   24.4440   31.3870 C   0  0  0  0  0  0  0  0  0  0  0  0
   37.7880   25.5470   32.1130 C   0  0  0  0  0  0  0  0  0  0  0  0
   38.0900   25.3800   33.3890 N   0  0  0  0  0  0  0  0  0  0  0  0
   38.0490   24.2650   34.0860 C   0  0  0  0  0  0  0  0  0  0  0  0
   37.6530   23.2200   33.3690 N   0  0  0  0  0  0  0  0  0  0  0  0
   37.1150   24.4950   30.3470 H   0  0  0  0  0  0  0  0  0  0  0  0
   38.3480   23.9280   35.4730 C   0  0  0  0  0  0  0  0  0  0  0  0
   37.5570   24.2970   36.5140 N   0  0  0  0  0  0  0  0  0  0  0  0
   37.8410   23.9790   37.7740 C   0  0  0  0  0  0  0  0  0  0  0  0
   38.9160   23.2750   38.1410 N   0  0  0  0  0  0  0  0  0  0  0  0
   39.7480   22.8740   37.1630 C   0  0  0  0  0  0  0  0  0  0  0  0
   40.8580   22.1480   37.5330 C   0  0  0  0  0  0  0  0  0  0  0  0
   41.7410   21.7120   36.5770 C   0  0  0  0  0  0  0  0  0  0  0  0
   41.4620   22.0340   35.2550 C   0  0  0  0  0  0  0  0  0  0  0  0
   40.3350   22.7650   34.9440 C   0  0  0  0  0  0  0  0  0  0  0  0
   39.4400   23.2110   35.8700 C   0  0  0  0  0  0  0  0  0  0  0  0
   37.1880   24.2870   38.6110 H   0  0  0  0  0  0  0  0  0  0  0  0
   41.0440   21.9140   38.5750 H   0  0  0  0  0  0  0  0  0  0  0  0
   42.5900   21.1520   36.8900 H   0  0  0  0  0  0  0  0  0  0  0  0
   42.1900   21.6660   34.5420 H   0  0  0  0  0  0  0  0  0  0  0  0
   40.2620   22.9370   33.8830 H   0  0  0  0  0  0  0  0  0  0  0  0
   35.5360   27.0780   31.6970 O   0  0  0  0  0  0  0  0  0  0  0  0
   36.5580   27.3330   30.9770 C   0  0  0  0  0  0  0  0  0  0  0  0
   37.8920   26.8880   31.4870 C   0  0  2  0  0  3  0  0  0  0  0  0
   38.7070   26.8920   30.2290 C   0  0  0  0  0  3  0  0  0  0  0  0
   38.4680   26.0380   29.5870 H   0  0  0  0  0  0  0  0  0  0  0  0
   38.1710   28.1460   29.5330 C   0  0  0  0  0  3  0  0  0  0  0  0
   38.4380   29.0600   30.0820 H   0  0  0  0  0  0  0  0  0  0  0  0
   36.7260   27.9880   29.7130 N   0  0  0  0  0  0  0  0  0  0  0  0
   35.8280   28.1960   29.2270 H   0  0  0  0  0  0  0  0  0  0  0  0
   36.9090   22.0090   31.4460 N   0  0  0  0  0  0  0  0  0  0  0  0
   36.3470   22.0910   30.5470 H   0  0  0  0  0  0  0  0  0  0  0  0
   37.1680   21.1190   31.8650 H   0  0  0  0  0  0  0  0  0  0  0  0
  1  6  1  0  0  0  0
  2  1  2  0  0  0  0
  2  3  1  0  0  0  0
  3  4  2  0  0  0  0
  4  5  1  0  0  0  0
  5  8  1  0  0  0  0
  6  5  2  0  0  0  0
  7  2  1  0  0  0  0
  8 17  2  0  0  0  0
  8  9  1  0  0  0  0
  9 10  2  0  0  0  0
 10 11  1  0  0  0  0
 10 18  1  0  0  0  0
 12 13  1  0  0  0  0
 12 11  2  0  0  0  0
 13 19  1  0  0  0  0
 14 20  1  0  0  0  0
 14 13  2  0  0  0  0
 15 14  1  0  0  0  0
 16 15  2  0  0  0  0
 16 17  1  0  0  0  0
 17 12  1  0  0  0  0
 21 15  1  0  0  0  0
 22 16  1  0  0  0  0
 24 25  1  0  0  0  0
 24 23  2  0  0  0  0
 25  3  1  6  0  0  0
 26 25  1  0  0  0  0
 27 26  1  0  0  0  0
 28 30  1  0  0  0  0
 28 29  1  0  0  0  0
 28 26  1  0  0  0  0
 30 24  1  0  0  0  0
 31 30  1  0  0  0  0
 32 34  1  0  0  0  0
 32  1  1  0  0  0  0
 33 32  1  0  0  0  0
M  END
>  <minimizedAffinity>
-5.94397497

$$$$

 OpenBabel03272503573D

 34 37  0  0  1  0  0  0  0  0999 V2000
   36.5500   24.0770   32.0210 C   0  0  0  0  0  0  0  0  0  0  0  0
   36.4680   25.4640   31.7600 C   0  0  0  0  0  0  0  0  0  0  0  0
   37.3720   26.2610   32.4360 C   0  0  0  0  0  0  0  0  0  0  0  0
   38.2280   25.6790   33.2580 N   0  0  0  0  0  0  0  0  0  0  0  0
   38.3380   24.3960   33.5290 C   0  0  0  0  0  0  0  0  0  0  0  0
   37.4600   23.6500   32.8690 N   0  0  0  0  0  0  0  0  0  0  0  0
   35.7400   25.8570   31.0740 H   0  0  0  0  0  0  0  0  0  0  0  0
   39.2160   23.6170   34.3940 C   0  0  0  0  0  0  0  0  0  0  0  0
   40.2470   22.8670   33.9260 N   0  0  0  0  0  0  0  0  0  0  0  0
   41.0420   22.1650   34.7280 C   0  0  0  0  0  0  0  0  0  0  0  0
   40.9110   22.1250   36.0570 N   0  0  0  0  0  0  0  0  0  0  0  0
   39.9100   22.8440   36.5960 C   0  0  0  0  0  0  0  0  0  0  0  0
   39.7690   22.8080   37.9650 C   0  0  0  0  0  0  0  0  0  0  0  0
   38.7650   23.5230   38.5700 C   0  0  0  0  0  0  0  0  0  0  0  0
   37.9240   24.2620   37.7480 C   0  0  0  0  0  0  0  0  0  0  0  0
   38.1130   24.2600   36.3830 C   0  0  0  0  0  0  0  0  0  0  0  0
   39.1000   23.5620   35.7540 C   0  0  0  0  0  0  0  0  0  0  0  0
   41.8770   21.5590   34.3310 H   0  0  0  0  0  0  0  0  0  0  0  0
   40.4450   22.2200   38.5760 H   0  0  0  0  0  0  0  0  0  0  0  0
   38.6790   23.4780   39.6290 H   0  0  0  0  0  0  0  0  0  0  0  0
   37.1500   24.8070   38.2760 H   0  0  0  0  0  0  0  0  0  0  0  0
   37.3800   24.8740   35.8860 H   0  0  0  0  0  0  0  0  0  0  0  0
   36.3070   27.9280   34.3530 O   0  0  0  0  0  0  0  0  0  0  0  0
   36.4080   28.3890   33.1680 C   0  0  0  0  0  0  0  0  0  0  0  0
   37.3920   27.7330   32.2520 C   0  0  2  0  0  3  0  0  0  0  0  0
   36.8840   28.1680   30.9100 C   0  0  0  0  0  3  0  0  0  0  0  0
   35.9810   27.6220   30.6210 H   0  0  0  0  0  0  0  0  0  0  0  0
   36.4670   29.6110   31.2060 C   0  0  0  0  0  3  0  0  0  0  0  0
   37.3350   30.2460   31.4330 H   0  0  0  0  0  0  0  0  0  0  0  0
   35.7500   29.4570   32.4730 N   0  0  0  0  0  0  0  0  0  0  0  0
   34.9490   29.8660   32.9990 H   0  0  0  0  0  0  0  0  0  0  0  0
   35.6620   23.1500   31.3740 N   0  0  0  0  0  0  0  0  0  0  0  0
   34.7550   23.5280   30.9680 H   0  0  0  0  0  0  0  0  0  0  0  0
   35.9300   22.1690   31.3270 H   0  0  0  0  0  0  0  0  0  0  0  0
  1  6  1  0  0  0  0
  2  1  2  0  0  0  0
  2  3  1  0  0  0  0
  3  4  2  0  0  0  0
  4  5  1  0  0  0  0
  5  8  1  0  0  0  0
  6  5  2  0  0  0  0
  7  2  1  0  0  0  0
  8 17  1  0  0  0  0
  9  8  2  0  0  0  0
  9 10  1  0  0  0  0
 10 11  2  0  0  0  0
 11 12  1  0  0  0  0
 12 13  1  0  0  0  0
 13 14  2  0  0  0  0
 13 19  1  0  0  0  0
 14 20  1  0  0  0  0
 15 21  1  0  0  0  0
 15 14  1  0  0  0  0
 16 15  2  0  0  0  0
 17 16  1  0  0  0  0
 17 12  2  0  0  0  0
 18 10  1  0  0  0  0
 22 16  1  0  0  0  0
 24 23  2  0  0  0  0
 25  3  1  6  0  0  0
 25 24  1  0  0  0  0
 26 28  1  0  0  0  0
 26 25  1  0  0  0  0
 27 26  1  0  0  0  0
 28 29  1  0  0  0  0
 28 30  1  0  0  0  0
 30 31  1  0  0  0  0
 30 24  1  0  0  0  0
 32  1  1  0  0  0  0
 33 32  1  0  0  0  0
 34 32  1  0  0  0  0
M  END
>  <minimizedAffinity>
-5.93373537

$$$$

 OpenBabel03272503573D

 34 37  0  0  1  0  0  0  0  0999 V2000
   37.9120   25.6670   33.1560 C   0  0  0  0  0  0  0  0  0  0  0  0
   38.1800   25.6860   34.5430 C   0  0  0  0  0  0  0  0  0  0  0  0
   38.3720   24.4520   35.1380 C   0  0  0  0  0  0  0  0  0  0  0  0
   38.2940   23.3730   34.3800 N   0  0  0  0  0  0  0  0  0  0  0  0
   38.0480   23.3110   33.0890 C   0  0  0  0  0  0  0  0  0  0  0  0
   37.8660   24.5060   32.5390 N   0  0  0  0  0  0  0  0  0  0  0  0
   38.2260   26.6100   35.0880 H   0  0  0  0  0  0  0  0  0  0  0  0
   37.9340   22.2170   32.1320 C   0  0  0  0  0  0  0  0  0  0  0  0
   38.6540   22.1580   30.9820 N   0  0  0  0  0  0  0  0  0  0  0  0
   38.5430   21.1510   30.1200 C   0  0  0  0  0  0  0  0  0  0  0  0
   37.7240   20.1100   30.2940 N   0  0  0  0  0  0  0  0  0  0  0  0
   36.9770   20.0970   31.4130 C   0  0  0  0  0  0  0  0  0  0  0  0
   36.1310   19.0270   31.5990 C   0  0  0  0  0  0  0  0  0  0  0  0
   35.3450   18.9620   32.7230 C   0  0  0  0  0  0  0  0  0  0  0  0
   35.4480   20.0050   33.6340 C   0  0  0  0  0  0  0  0  0  0  0  0
   36.3120   21.0520   33.3940 C   0  0  0  0  0  0  0  0  0  0  0  0
   37.1050   21.1440   32.2900 C   0  0  0  0  0  0  0  0  0  0  0  0
   39.1350   21.1170   29.1880 H   0  0  0  0  0  0  0  0  0  0  0  0
   36.0770   18.2300   30.8660 H   0  0  0  0  0  0  0  0  0  0  0  0
   34.7010   18.1250   32.8430 H   0  0  0  0  0  0  0  0  0  0  0  0
   34.8070   19.9050   34.5020 H   0  0  0  0  0  0  0  0  0  0  0  0
   36.2730   21.7800   34.1880 H   0  0  0  0  0  0  0  0  0  0  0  0
   40.7720   23.4180   36.0090 O   0  0  0  0  0  0  0  0  0  0  0  0
   39.7890   23.3780   36.8210 C   0  0  0  0  0  0  0  0  0  0  0  0
   38.6600   24.3320   36.5880 C   0  0  2  0  0  3  0  0  0  0  0  0
   37.5540   23.6770   37.3590 C   0  0  0  0  0  3  0  0  0  0  0  0
   37.1580   22.8010   36.8360 H   0  0  0  0  0  0  0  0  0  0  0  0
   38.3120   23.1660   38.5870 C   0  0  0  0  0  3  0  0  0  0  0  0
   38.6800   23.9930   39.2100 H   0  0  0  0  0  0  0  0  0  0  0  0
   39.5040   22.5760   37.9750 N   0  0  0  0  0  0  0  0  0  0  0  0
   40.1750   21.7910   38.1130 H   0  0  0  0  0  0  0  0  0  0  0  0
   37.6970   26.8890   32.4290 N   0  0  0  0  0  0  0  0  0  0  0  0
   37.4170   27.7550   32.9800 H   0  0  0  0  0  0  0  0  0  0  0  0
   37.8190   26.8840   31.4180 H   0  0  0  0  0  0  0  0  0  0  0  0
  1  2  1  0  0  0  0
  2  7  1  0  0  0  0
  2  3  2  0  0  0  0
  4  3  1  0  0  0  0
  5  4  2  0  0  0  0
  6  5  1  0  0  0  0
  6  1  2  0  0  0  0
  8 17  1  0  0  0  0
  8  5  1  0  0  0  0
  9  8  2  0  0  0  0
 10 11  2  0  0  0  0
 10  9  1  0  0  0  0
 11 12  1  0  0  0  0
 12 13  2  0  0  0  0
 12 17  1  0  0  0  0
 13 14  1  0  0  0  0
 14 20  1  0  0  0  0
 14 15  2  0  0  0  0
 15 21  1  0  0  0  0
 16 15  1  0  0  0  0
 16 22  1  0  0  0  0
 17 16  2  0  0  0  0
 18 10  1  0  0  0  0
 19 13  1  0  0  0  0
 23 24  2  0  0  0  0
 24 30  1  0  0  0  0
 25  3  1  6  0  0  0
 25 24  1  0  0  0  0
 25 26  1  0  0  0  0
 26 28  1  0  0  0  0
 27 26  1  0  0  0  0
 28 29  1  0  0  0  0
 30 31  1  0  0  0  0
 30 28  1  0  0  0  0
 32 33  1  0  0  0  0
 32  1  1  0  0  0  0
 34 32  1  0  0  0  0
M  END
>  <minimizedAffinity>
-5.91731834

$$$$

 OpenBabel03272503573D

 34 37  0  0  1  0  0  0  0  0999 V2000
   41.1470   26.7200   34.0550 C   0  0  0  0  0  0  0  0  0  0  0  0
   40.9390   25.5120   34.7600 C   0  0  0  0  0  0  0  0  0  0  0  0
   39.7140   24.9030   34.5640 C   0  0  0  0  0  0  0  0  0  0  0  0
   38.8490   25.4820   33.7500 N   0  0  0  0  0  0  0  0  0  0  0  0
   39.0020   26.6020   33.0770 C   0  0  0  0  0  0  0  0  0  0  0  0
   40.1850   27.1700   33.2800 N   0  0  0  0  0  0  0  0  0  0  0  0
   41.6970   25.1070   35.4040 H   0  0  0  0  0  0  0  0  0  0  0  0
   38.1570   27.3520   32.1560 C   0  0  0  0  0  0  0  0  0  0  0  0
   38.3700   27.3890   30.8150 N   0  0  0  0  0  0  0  0  0  0  0  0
   37.5870   28.0750   29.9860 C   0  0  0  0  0  0  0  0  0  0  0  0
   36.5280   28.7870   30.3810 N   0  0  0  0  0  0  0  0  0  0  0  0
   36.2530   28.7980   31.6970 C   0  0  0  0  0  0  0  0  0  0  0  0
   35.1620   29.5300   32.1120 C   0  0  0  0  0  0  0  0  0  0  0  0
   34.8350   29.5770   33.4440 C   0  0  0  0  0  0  0  0  0  0  0  0
   35.6400   28.8670   34.3250 C   0  0  0  0  0  0  0  0  0  0  0  0
   36.7200   28.1520   33.8520 C   0  0  0  0  0  0  0  0  0  0  0  0
   37.0700   28.0860   32.5370 C   0  0  0  0  0  0  0  0  0  0  0  0
   37.7730   28.0960   28.8970 H   0  0  0  0  0  0  0  0  0  0  0  0
   34.5550   30.0720   31.3950 H   0  0  0  0  0  0  0  0  0  0  0  0
   33.9870   30.1480   33.7370 H   0  0  0  0  0  0  0  0  0  0  0  0
   35.3380   28.9380   35.3630 H   0  0  0  0  0  0  0  0  0  0  0  0
   37.2460   27.6630   34.6560 H   0  0  0  0  0  0  0  0  0  0  0  0
   38.0820   24.8990   36.7840 O   0  0  0  0  0  0  0  0  0  0  0  0
   38.8560   23.8960   36.6240 C   0  0  0  0  0  0  0  0  0  0  0  0
   39.3680   23.6300   35.2440 C   0  0  2  0  0  3  0  0  0  0  0  0
   40.5610   22.7690   35.5310 C   0  0  0  0  0  3  0  0  0  0  0  0
   41.3990   23.3540   35.9220 H   0  0  0  0  0  0  0  0  0  0  0  0
   40.0340   21.9070   36.6810 C   0  0  0  0  0  3  0  0  0  0  0  0
   39.2330   21.2320   36.3480 H   0  0  0  0  0  0  0  0  0  0  0  0
   39.3770   22.9090   37.5240 N   0  0  0  0  0  0  0  0  0  0  0  0
   39.1820   23.1140   38.5270 H   0  0  0  0  0  0  0  0  0  0  0  0
   42.3840   27.4420   34.1780 N   0  0  0  0  0  0  0  0  0  0  0  0
   42.9920   27.2500   35.0300 H   0  0  0  0  0  0  0  0  0  0  0  0
   42.6350   28.1100   33.4520 H   0  0  0  0  0  0  0  0  0  0  0  0
  1 32  1  0  0  0  0
  1  2  1  0  0  0  0
  2  7  1  0  0  0  0
  3  2  2  0  0  0  0
  4  3  1  0  0  0  0
  5  6  1  0  0  0  0
  5  4  2  0  0  0  0
  6  1  2  0  0  0  0
  8 17  1  0  0  0  0
  8  5  1  0  0  0  0
  9  8  2  0  0  0  0
 10 11  2  0  0  0  0
 10  9  1  0  0  0  0
 11 12  1  0  0  0  0
 12 13  2  0  0  0  0
 12 17  1  0  0  0  0
 13 14  1  0  0  0  0
 14 20  1  0  0  0  0
 14 15  2  0  0  0  0
 15 21  1  0  0  0  0
 16 15  1  0  0  0  0
 16 22  1  0  0  0  0
 17 16  2  0  0  0  0
 18 10  1  0  0  0  0
 19 13  1  0  0  0  0
 24 23  2  0  0  0  0
 24 30  1  0  0  0  0
 25  3  1  1  0  0  0
 25 26  1  0  0  0  0
 25 24  1  0  0  0  0
 26 27  1  0  0  0  0
 26 28  1  0  0  0  0
 28 30  1  0  0  0  0
 29 28  1  0  0  0  0
 30 31  1  0  0  0  0
 32 33  1  0  0  0  0
 34 32  1  0  0  0  0
M  END
>  <minimizedAffinity>
-5.82476711

$$$$

 OpenBabel03272503573D

 34 37  0  0  1  0  0  0  0  0999 V2000
   32.7880   29.4630   33.1290 C   0  0  0  0  0  0  0  0  0  0  0  0
   32.8640   30.5530   34.0260 C   0  0  0  0  0  0  0  0  0  0  0  0
   34.1350   31.0180   34.3040 C   0  0  0  0  0  0  0  0  0  0  0  0
   35.1610   30.4230   33.7230 N   0  0  0  0  0  0  0  0  0  0  0  0
   35.1350   29.4080   32.8850 C   0  0  0  0  0  0  0  0  0  0  0  0
   33.9040   28.9780   32.6320 N   0  0  0  0  0  0  0  0  0  0  0  0
   31.9780   30.9810   34.4560 H   0  0  0  0  0  0  0  0  0  0  0  0
   36.1620   28.6580   32.1720 C   0  0  0  0  0  0  0  0  0  0  0  0
   36.6110   27.4420   32.5790 N   0  0  0  0  0  0  0  0  0  0  0  0
   37.5460   26.7670   31.9170 C   0  0  0  0  0  0  0  0  0  0  0  0
   38.1320   27.2090   30.8000 N   0  0  0  0  0  0  0  0  0  0  0  0
   37.7380   28.4080   30.3340 C   0  0  0  0  0  0  0  0  0  0  0  0
   38.3370   28.8690   29.1830 C   0  0  0  0  0  0  0  0  0  0  0  0
   37.9750   30.0870   28.6630 C   0  0  0  0  0  0  0  0  0  0  0  0
   37.0000   30.8060   29.3410 C   0  0  0  0  0  0  0  0  0  0  0  0
   36.4350   30.2940   30.4900 C   0  0  0  0  0  0  0  0  0  0  0  0
   36.7740   29.0900   31.0300 C   0  0  0  0  0  0  0  0  0  0  0  0
   37.9010   25.7790   32.2600 H   0  0  0  0  0  0  0  0  0  0  0  0
   39.0960   28.2800   28.6800 H   0  0  0  0  0  0  0  0  0  0  0  0
   38.4530   30.4190   27.7730 H   0  0  0  0  0  0  0  0  0  0  0  0
   36.7520   31.7590   28.8890 H   0  0  0  0  0  0  0  0  0  0  0  0
   35.7030   30.9700   30.9000 H   0  0  0  0  0  0  0  0  0  0  0  0
   36.2920   31.0370   36.0180 O   0  0  0  0  0  0  0  0  0  0  0  0
   35.2930   31.7670   36.3270 C   0  0  0  0  0  0  0  0  0  0  0  0
   34.3540   32.1570   35.2290 C   0  0  2  0  0  3  0  0  0  0  0  0
   33.1290   32.5330   36.0060 C   0  0  0  0  0  3  0  0  0  0  0  0
   32.6020   31.6520   36.3860 H   0  0  0  0  0  0  0  0  0  0  0  0
   33.7490   33.2440   37.2110 C   0  0  0  0  0  3  0  0  0  0  0  0
   34.2360   34.1860   36.9210 H   0  0  0  0  0  0  0  0  0  0  0  0
   34.8380   32.3320   37.5650 N   0  0  0  0  0  0  0  0  0  0  0  0
   35.3580   31.9840   38.3980 H   0  0  0  0  0  0  0  0  0  0  0  0
   31.5180   28.8950   32.7630 N   0  0  0  0  0  0  0  0  0  0  0  0
   30.6880   29.0730   33.4050 H   0  0  0  0  0  0  0  0  0  0  0  0
   31.4570   28.3460   31.9080 H   0  0  0  0  0  0  0  0  0  0  0  0
  1  2  1  0  0  0  0
  2  3  2  0  0  0  0
  2  7  1  0  0  0  0
  4  3  1  0  0  0  0
  5  4  2  0  0  0  0
  6  5  1  0  0  0  0
  6  1  2  0  0  0  0
  8  9  1  0  0  0  0
  8  5  1  0  0  0  0
 10 18  1  0  0  0  0
 10  9  2  0  0  0  0
 11 10  1  0  0  0  0
 12 11  2  0  0  0  0
 12 17  1  0  0  0  0
 13 12  1  0  0  0  0
 14 13  2  0  0  0  0
 14 15  1  0  0  0  0
 15 16  2  0  0  0  0
 16 22  1  0  0  0  0
 16 17  1  0  0  0  0
 17  8  2  0  0  0  0
 19 13  1  0  0  0  0
 20 14  1  0  0  0  0
 21 15  1  0  0  0  0
 23 24  2  0  0  0  0
 24 30  1  0  0  0  0
 25  3  1  6  0  0  0
 25 26  1  0  0  0  0
 25 24  1  0  0  0  0
 26 27  1  0  0  0  0
 26 28  1  0  0  0  0
 28 30  1  0  0  0  0
 29 28  1  0  0  0  0
 30 31  1  0  0  0  0
 32  1  1  0  0  0  0
 32 33  1  0  0  0  0
 34 32  1  0  0  0  0
M  END
>  <minimizedAffinity>
-5.81207943

$$$$

 OpenBabel03272503573D

 34 37  0  0  1  0  0  0  0  0999 V2000
   36.2370   21.3290   32.7610 C   0  0  0  0  0  0  0  0  0  0  0  0
   35.8990   22.3950   31.8960 C   0  0  0  0  0  0  0  0  0  0  0  0
   36.7030   23.5160   31.9760 C   0  0  0  0  0  0  0  0  0  0  0  0
   37.7070   23.5070   32.8350 N   0  0  0  0  0  0  0  0  0  0  0  0
   38.0550   22.5390   33.6570 C   0  0  0  0  0  0  0  0  0  0  0  0
   37.2690   21.4740   33.5630 N   0  0  0  0  0  0  0  0  0  0  0  0
   35.0640   22.3210   31.2240 H   0  0  0  0  0  0  0  0  0  0  0  0
   39.1170   22.3840   34.6440 C   0  0  0  0  0  0  0  0  0  0  0  0
   40.3340   21.8600   34.3480 N   0  0  0  0  0  0  0  0  0  0  0  0
   41.2950   21.7280   35.2580 C   0  0  0  0  0  0  0  0  0  0  0  0
   41.1640   22.0910   36.5370 N   0  0  0  0  0  0  0  0  0  0  0  0
   39.9830   22.6200   36.9060 C   0  0  0  0  0  0  0  0  0  0  0  0
   39.8410   22.9960   38.2230 C   0  0  0  0  0  0  0  0  0  0  0  0
   38.6570   23.5420   38.6550 C   0  0  0  0  0  0  0  0  0  0  0  0
   37.6420   23.6870   37.7190 C   0  0  0  0  0  0  0  0  0  0  0  0
   37.8420   23.2910   36.4140 C   0  0  0  0  0  0  0  0  0  0  0  0
   39.0040   22.7480   35.9550 C   0  0  0  0  0  0  0  0  0  0  0  0
   42.2820   21.3000   35.0030 H   0  0  0  0  0  0  0  0  0  0  0  0
   40.6550   22.8680   38.9260 H   0  0  0  0  0  0  0  0  0  0  0  0
   38.5740   23.8250   39.6770 H   0  0  0  0  0  0  0  0  0  0  0  0
   36.7300   24.1210   38.1120 H   0  0  0  0  0  0  0  0  0  0  0  0
   36.9630   23.4630   35.8140 H   0  0  0  0  0  0  0  0  0  0  0  0
   38.4070   24.1270   29.8990 O   0  0  0  0  0  0  0  0  0  0  0  0
   37.6970   25.0760   30.3710 C   0  0  0  0  0  0  0  0  0  0  0  0
   36.4570   24.7040   31.1220 C   0  0  2  0  0  3  0  0  0  0  0  0
   36.2010   25.9540   31.9080 C   0  0  0  0  0  3  0  0  0  0  0  0
   36.8940   26.0560   32.7480 H   0  0  0  0  0  0  0  0  0  0  0  0
   36.5700   27.0290   30.8830 C   0  0  0  0  0  3  0  0  0  0  0  0
   35.8690   27.0420   30.0370 H   0  0  0  0  0  0  0  0  0  0  0  0
   37.8260   26.5030   30.3440 N   0  0  0  0  0  0  0  0  0  0  0  0
   38.7400   26.8320   29.9650 H   0  0  0  0  0  0  0  0  0  0  0  0
   35.4730   20.1110   32.7660 N   0  0  0  0  0  0  0  0  0  0  0  0
   34.4850   20.1400   32.3710 H   0  0  0  0  0  0  0  0  0  0  0  0
   35.8990   19.2680   33.1440 H   0  0  0  0  0  0  0  0  0  0  0  0
  1 32  1  0  0  0  0
  1  6  1  0  0  0  0
  2  3  1  0  0  0  0
  2  1  2  0  0  0  0
  3  4  2  0  0  0  0
  4  5  1  0  0  0  0
  5  8  1  0  0  0  0
  6  5  2  0  0  0  0
  7  2  1  0  0  0  0
  8 17  1  0  0  0  0
  9  8  2  0  0  0  0
  9 10  1  0  0  0  0
 10 11  2  0  0  0  0
 11 12  1  0  0  0  0
 12 13  1  0  0  0  0
 13 14  2  0  0  0  0
 13 19  1  0  0  0  0
 14 20  1  0  0  0  0
 15 21  1  0  0  0  0
 15 14  1  0  0  0  0
 16 15  2  0  0  0  0
 17 16  1  0  0  0  0
 17 12  2  0  0  0  0
 18 10  1  0  0  0  0
 22 16  1  0  0  0  0
 23 24  2  0  0  0  0
 24 25  1  0  0  0  0
 25 26  1  0  0  0  0
 25  3  1  1  0  0  0
 26 27  1  0  0  0  0
 28 26  1  0  0  0  0
 29 28  1  0  0  0  0
 30 24  1  0  0  0  0
 30 28  1  0  0  0  0
 31 30  1  0  0  0  0
 32 34  1  0  0  0  0
 33 32  1  0  0  0  0
M  END
>  <minimizedAffinity>
-5.78712654

$$$$
