
 OpenBabel03272503403D

 41 44  0  0  1  0  0  0  0  0999 V2000
   39.6130   30.9110   41.7870 C   0  0  2  0  0  0  0  0  0  0  0  0
   39.8450   32.0470   42.7550 C   0  0  1  0  0  0  0  0  0  0  0  0
   38.8510   33.0370   42.1790 C   0  0  0  0  0  0  0  0  0  0  0  0
   38.8340   32.8710   40.8150 O   0  0  0  0  0  0  0  0  0  0  0  0
   39.5200   31.7440   40.4950 C   0  0  0  0  0  0  0  0  0  0  0  0
   40.4000   30.1690   41.7120 H   0  0  0  0  0  0  0  0  0  0  0  0
   40.8420   32.4760   42.6930 H   0  0  0  0  0  0  0  0  0  0  0  0
   39.1130   34.0670   42.4380 H   0  0  0  0  0  0  0  0  0  0  0  0
   37.8450   32.7390   42.5700 H   0  0  0  0  0  0  0  0  0  0  0  0
   40.5700   32.0280   40.2610 H   0  0  0  0  0  0  0  0  0  0  0  0
   39.1550   31.1490   39.6550 H   0  0  0  0  0  0  0  0  0  0  0  0
   38.4860   31.1310   45.9450 C   0  0  0  0  0  0  0  0  0  0  0  0
   39.8030   31.0680   46.2260 C   0  0  0  0  0  0  0  0  0  0  0  0
   40.4280   31.4150   45.0260 C   0  0  0  0  0  0  0  0  0  0  0  0
   39.4960   31.6650   44.0970 N   0  0  0  0  0  0  0  0  0  0  0  0
   38.2930   31.4940   44.6490 N   0  0  0  0  0  0  0  0  0  0  0  0
   40.2350   30.7990   47.1910 H   0  0  0  0  0  0  0  0  0  0  0  0
   41.5190   31.4590   44.9170 H   0  0  0  0  0  0  0  0  0  0  0  0
   36.4900   30.6480   49.0910 C   0  0  0  0  0  0  0  0  0  0  0  0
   37.5330   30.9260   48.2420 C   0  0  0  0  0  0  0  0  0  0  0  0
   37.4100   30.8480   46.8800 C   0  0  0  0  0  0  0  0  0  0  0  0
   36.1830   30.4730   46.4110 N   0  0  0  0  0  0  0  0  0  0  0  0
   35.1560   30.2000   47.2660 C   0  0  0  0  0  0  0  0  0  0  0  0
   35.3010   30.2830   48.5770 N   0  0  0  0  0  0  0  0  0  0  0  0
   38.5350   31.2300   48.5800 H   0  0  0  0  0  0  0  0  0  0  0  0
   34.1990   29.9080   46.9070 H   0  0  0  0  0  0  0  0  0  0  0  0
   36.8140   30.7850   50.4360 O   0  0  0  0  0  0  0  0  0  0  0  0
   36.8640   29.7130   51.3430 C   0  0  0  0  0  0  0  0  0  0  0  0
   35.5940   29.2210   51.6430 F   0  0  0  0  0  0  0  0  0  0  0  0
   37.5140   30.0980   52.4720 F   0  0  0  0  0  0  0  0  0  0  0  0
   37.5900   28.6780   50.7590 F   0  0  0  0  0  0  0  0  0  0  0  0
   38.3530   30.3700   42.0510 O   0  0  0  0  0  0  0  0  0  0  0  0
   38.0660   28.3960   39.4970 O   0  0  0  0  0  0  0  0  0  0  0  0
   38.3180   28.4260   40.7490 C   0  0  0  0  0  0  0  0  0  0  0  0
   38.3950   28.9830   42.1110 C   0  0  1  0  0  3  0  0  0  0  0  0
   39.7970   28.5440   42.5260 C   0  0  0  0  0  3  0  0  0  0  0  0
   39.9820   28.5950   43.5970 H   0  0  0  0  0  0  0  0  0  0  0  0
   39.7740   27.0540   42.1590 C   0  0  0  0  0  3  0  0  0  0  0  0
   39.3470   26.5260   43.0190 H   0  0  0  0  0  0  0  0  0  0  0  0
   38.8700   27.1070   41.0190 N   0  0  0  0  0  0  0  0  0  0  0  0
   38.8550   26.1110   40.6680 H   0  0  0  0  0  0  0  0  0  0  0  0
  1  6  1  6  0  0  0
  1 32  1  0  0  0  0
  1  2  1  0  0  0  0
  2  7  1  6  0  0  0
  2 15  1  0  0  0  0
  3  8  1  0  0  0  0
  3  9  1  0  0  0  0
  3  2  1  0  0  0  0
  4  3  1  0  0  0  0
  5  4  1  0  0  0  0
  5  1  1  0  0  0  0
 10  5  1  0  0  0  0
 11  5  1  0  0  0  0
 12 13  1  0  0  0  0
 12 21  1  0  0  0  0
 13 17  1  0  0  0  0
 14 13  2  0  0  0  0
 15 16  1  0  0  0  0
 15 14  1  0  0  0  0
 16 12  2  0  0  0  0
 18 14  1  0  0  0  0
 19 27  1  0  0  0  0
 20 25  1  0  0  0  0
 20 19  2  0  0  0  0
 21 20  1  0  0  0  0
 22 21  2  0  0  0  0
 22 23  1  0  0  0  0
 23 24  2  0  0  0  0
 24 19  1  0  0  0  0
 26 23  1  0  0  0  0
 27 28  1  0  0  0  0
 28 29  1  0  0  0  0
 28 30  1  0  0  0  0
 31 28  1  0  0  0  0
 33 34  2  0  0  0  0
 34 40  1  0  0  0  0
 34 35  1  0  0  0  0
 35 32  1  6  0  0  0
 35 36  1  0  0  0  0
 36 37  1  0  0  0  0
 38 36  1  0  0  0  0
 38 39  1  0  0  0  0
 40 38  1  0  0  0  0
 41 40  1  0  0  0  0
M  END
>  <minimizedAffinity>
-6.10676575

>  <minimizedRMSD>
0.690654755

$$$$
