
 OpenBabel03272503403D

 41 44  0  0  1  0  0  0  0  0999 V2000
   39.7390   31.1830   41.7130 C   0  0  2  0  0  0  0  0  0  0  0  0
   39.6170   32.3150   42.7050 C   0  0  1  0  0  0  0  0  0  0  0  0
   38.4240   33.0220   42.0920 C   0  0  0  0  0  0  0  0  0  0  0  0
   38.5140   32.8930   40.7260 O   0  0  0  0  0  0  0  0  0  0  0  0
   39.4890   31.9940   40.4280 C   0  0  0  0  0  0  0  0  0  0  0  0
   40.6970   30.6770   41.6700 H   0  0  0  0  0  0  0  0  0  0  0  0
   40.4670   32.9930   42.7000 H   0  0  0  0  0  0  0  0  0  0  0  0
   38.3910   34.0780   42.3760 H   0  0  0  0  0  0  0  0  0  0  0  0
   37.5160   32.4590   42.4260 H   0  0  0  0  0  0  0  0  0  0  0  0
   40.4360   32.5520   40.2520 H   0  0  0  0  0  0  0  0  0  0  0  0
   39.3340   31.3470   39.5640 H   0  0  0  0  0  0  0  0  0  0  0  0
   38.3820   31.1630   45.8690 C   0  0  0  0  0  0  0  0  0  0  0  0
   39.7050   30.9900   46.0590 C   0  0  0  0  0  0  0  0  0  0  0  0
   40.2840   31.4190   44.8620 C   0  0  0  0  0  0  0  0  0  0  0  0
   39.3190   31.8200   44.0230 N   0  0  0  0  0  0  0  0  0  0  0  0
   38.1410   31.6690   44.6310 N   0  0  0  0  0  0  0  0  0  0  0  0
   40.1730   30.5980   46.9640 H   0  0  0  0  0  0  0  0  0  0  0  0
   41.3670   31.4060   44.6880 H   0  0  0  0  0  0  0  0  0  0  0  0
   36.5020   30.6290   49.0780 C   0  0  0  0  0  0  0  0  0  0  0  0
   37.5100   30.9330   48.1960 C   0  0  0  0  0  0  0  0  0  0  0  0
   37.3440   30.8530   46.8390 C   0  0  0  0  0  0  0  0  0  0  0  0
   36.1120   30.4500   46.4090 N   0  0  0  0  0  0  0  0  0  0  0  0
   35.1200   30.1510   47.2960 C   0  0  0  0  0  0  0  0  0  0  0  0
   35.3060   30.2360   48.6020 N   0  0  0  0  0  0  0  0  0  0  0  0
   38.5140   31.2610   48.5010 H   0  0  0  0  0  0  0  0  0  0  0  0
   34.1590   29.8370   46.9680 H   0  0  0  0  0  0  0  0  0  0  0  0
   36.8670   30.7720   50.4120 O   0  0  0  0  0  0  0  0  0  0  0  0
   36.9120   29.7100   51.3300 C   0  0  0  0  0  0  0  0  0  0  0  0
   35.6390   29.2440   51.6570 F   0  0  0  0  0  0  0  0  0  0  0  0
   37.5890   30.0950   52.4430 F   0  0  0  0  0  0  0  0  0  0  0  0
   37.6080   28.6540   50.7450 F   0  0  0  0  0  0  0  0  0  0  0  0
   38.6570   30.3220   41.9040 O   0  0  0  0  0  0  0  0  0  0  0  0
   41.6860   29.2210   42.2450 O   0  0  0  0  0  0  0  0  0  0  0  0
   40.4700   28.8560   42.0880 C   0  0  0  0  0  0  0  0  0  0  0  0
   39.0350   28.9910   41.7840 C   0  0  1  0  0  3  0  0  0  0  0  0
   38.4190   28.1910   42.9280 C   0  0  0  0  0  3  0  0  0  0  0  0
   37.3800   27.9100   42.7660 H   0  0  0  0  0  0  0  0  0  0  0  0
   39.2360   26.8930   42.8710 C   0  0  0  0  0  3  0  0  0  0  0  0
   38.7420   26.2440   42.1420 H   0  0  0  0  0  0  0  0  0  0  0  0
   40.4990   27.4330   42.3880 N   0  0  0  0  0  0  0  0  0  0  0  0
   41.1420   26.5940   42.3840 H   0  0  0  0  0  0  0  0  0  0  0  0
  1  6  1  1  0  0  0
  1 32  1  0  0  0  0
  1  2  1  0  0  0  0
  2  7  1  6  0  0  0
  2 15  1  0  0  0  0
  3  8  1  0  0  0  0
  3  9  1  0  0  0  0
  3  2  1  0  0  0  0
  4  3  1  0  0  0  0
  5  4  1  0  0  0  0
  5  1  1  0  0  0  0
 10  5  1  0  0  0  0
 11  5  1  0  0  0  0
 12 13  1  0  0  0  0
 12 21  1  0  0  0  0
 13 17  1  0  0  0  0
 14 13  2  0  0  0  0
 15 16  1  0  0  0  0
 15 14  1  0  0  0  0
 16 12  2  0  0  0  0
 18 14  1  0  0  0  0
 19 27  1  0  0  0  0
 20 25  1  0  0  0  0
 20 19  2  0  0  0  0
 21 20  1  0  0  0  0
 22 21  2  0  0  0  0
 22 23  1  0  0  0  0
 23 24  2  0  0  0  0
 24 19  1  0  0  0  0
 26 23  1  0  0  0  0
 27 28  1  0  0  0  0
 28 29  1  0  0  0  0
 28 30  1  0  0  0  0
 31 28  1  0  0  0  0
 34 33  2  0  0  0  0
 34 40  1  0  0  0  0
 35 32  1  1  0  0  0
 35 34  1  0  0  0  0
 35 36  1  0  0  0  0
 37 36  1  0  0  0  0
 38 36  1  0  0  0  0
 39 38  1  0  0  0  0
 40 38  1  0  0  0  0
 41 40  1  0  0  0  0
M  END
>  <minimizedAffinity>
-6.68302822

>  <minimizedRMSD>
0.474702597

$$$$
