
     RDKit          3D

 44 47  0  0  0  0  0  0  0  0999 V2000
   38.5080   31.1467   45.9689 C   0  0  0  0  0  0  0  0  0  0  0  0
   39.8108   31.2036   46.3102 C   0  0  0  0  0  0  0  0  0  0  0  0
   40.4661   31.5196   45.1173 C   0  0  0  0  0  0  0  0  0  0  0  0
   39.5626   31.6373   44.1342 N   0  0  0  0  0  0  0  0  0  0  0  0
   38.3506   31.4100   44.6450 N   0  0  0  0  0  0  0  0  0  0  0  0
   36.4362   30.6281   49.0597 C   0  0  0  0  0  0  0  0  0  0  0  0
   37.4960   30.9270   48.2391 C   0  0  0  0  0  0  0  0  0  0  0  0
   37.4126   30.8425   46.8752 C   0  0  0  0  0  0  0  0  0  0  0  0
   36.2076   30.4413   46.3716 N   0  0  0  0  0  0  0  0  0  0  0  0
   35.1632   30.1476   47.1986 C   0  0  0  0  0  0  0  0  0  0  0  0
   35.2696   30.2372   48.5127 N   0  0  0  0  0  0  0  0  0  0  0  0
   36.7195   30.7751   50.4132 O   0  0  0  0  0  0  0  0  0  0  0  0
   36.7994   29.7035   51.3167 C   0  0  0  0  0  0  0  0  0  0  0  0
   35.5418   29.1854   51.6288 F   0  0  0  0  0  0  0  0  0  0  0  0
   37.4529   30.0989   52.4395 F   0  0  0  0  0  0  0  0  0  0  0  0
   37.5395   28.6833   50.7236 F   0  0  0  0  0  0  0  0  0  0  0  0
   39.9274   30.7284   41.9069 C   0  0  2  0  0  0  0  0  0  0  0  0
   39.9474   31.9570   42.7850 C   0  0  1  0  0  0  0  0  0  0  0  0
   38.8727   32.7570   42.0739 C   0  0  0  0  0  0  0  0  0  0  0  0
   38.9661   32.4847   40.7304 O   0  0  0  0  0  0  0  0  0  0  0  0
   39.8123   31.4382   40.5451 C   0  0  0  0  0  0  0  0  0  0  0  0
   38.7328   30.0447   42.1472 O   0  0  0  0  0  0  0  0  0  0  0  0
   40.2158   31.0334   47.3085 H   0  0  0  0  0  0  0  0  0  0  0  0
   41.5544   31.6411   45.0517 H   0  0  0  0  0  0  0  0  0  0  0  0
   38.4815   31.2531   48.6042 H   0  0  0  0  0  0  0  0  0  0  0  0
   34.2228   29.8349   46.8141 H   0  0  0  0  0  0  0  0  0  0  0  0
   40.8061   30.0946   41.9390 H   0  0  0  0  0  0  0  0  0  0  0  0
   40.8818   32.5094   42.7414 H   0  0  0  0  0  0  0  0  0  0  0  0
   38.9821   33.8303   42.2567 H   0  0  0  0  0  0  0  0  0  0  0  0
   37.8913   32.3576   42.4327 H   0  0  0  0  0  0  0  0  0  0  0  0
   40.8292   31.8421   40.3447 H   0  0  0  0  0  0  0  0  0  0  0  0
   39.5824   30.7368   39.7409 H   0  0  0  0  0  0  0  0  0  0  0  0
   37.0797   27.7301   40.5940 O   0  0  0  0  0  0  0  0  0  0  0  0
   38.0718   27.9384   41.3725 C   0  0  0  0  0  0  0  0  0  0  0  0
   38.9464   28.6813   42.2970 C   0  0  1  0  0  0  0  0  0  0  0  0
   40.3238   28.3271   41.7421 C   0  0  2  0  0  0  0  0  0  0  0  0
   41.1453   28.5310   42.4259 H   0  0  0  0  0  0  0  0  0  0  0  0
   40.2242   26.8002   41.6223 C   0  0  2  0  0  0  0  0  0  0  0  0
   40.5048   26.3908   42.5981 H   0  0  0  0  0  0  0  0  0  0  0  0
   38.7999   26.6800   41.3429 N   0  0  0  0  0  0  0  0  0  0  0  0
   38.8396   28.3342   43.3387 H   0  0  0  0  0  0  0  0  0  0  0  0
   40.4034   28.8226   40.7628 H   0  0  0  0  0  0  0  0  0  0  0  0
   40.8725   26.5388   40.7768 H   0  0  0  0  0  0  0  0  0  0  0  0
   38.6659   25.6442   41.1832 H   0  0  0  0  0  0  0  0  0  0  0  0
  1  2  1  0
  1  8  1  0
  3  2  2  0
  4  5  1  0
  4  3  1  0
  5  1  2  0
  6 12  1  0
  7  6  2  0
  8  7  1  0
  9  8  2  0
  9 10  1  0
 10 11  2  0
 11  6  1  0
 12 13  1  0
 13 14  1  0
 13 15  1  0
 16 13  1  0
 17 22  1  0
 17 18  1  0
 18  4  1  0
 19 18  1  0
 20 19  1  0
 21 20  1  0
 21 17  1  0
  2 23  1  0
  3 24  1  0
  7 25  1  0
 10 26  1  0
 17 27  1  6
 18 28  1  1
 19 29  1  0
 19 30  1  0
 21 31  1  0
 21 32  1  0
 33 34  2  0
 34 35  1  0
 35 36  1  0
 36 37  1  1
 36 38  1  0
 38 39  1  1
 38 40  1  0
 40 34  1  0
 35 41  1  1
 36 42  1  0
 38 43  1  0
 40 44  1  0
 22 35  1  0
M  ISO  8  23  14  24  14  25  14  26  14  27  13  28  13  29  13  30  13
M  ISO  4  31  13  32  13  37   8  39   8
M  END
>  <DihAtoms>  (1) 
16,21,34,33

>  <DihDeg>  (1) 
128.36341648407353

$$$$
