
 OpenBabel03272506363D

 23 24  0  0  1  0  0  0  0  0999 V2000
   38.0710   31.2470   48.3590 C   0  0  0  0  0  0  0  0  0  0  0  0
   38.2560   32.0160   49.5300 C   0  0  0  0  0  0  0  0  0  0  0  0
   38.9320   33.2310   49.4530 C   0  0  0  0  0  0  0  0  0  0  0  0
   39.3880   33.6170   48.2180 N   0  0  0  0  0  0  0  0  0  0  0  0
   39.2020   32.8660   47.1070 C   0  0  0  0  0  0  0  0  0  0  0  0
   38.5550   31.7110   47.2060 N   0  0  0  0  0  0  0  0  0  0  0  0
   40.6410   32.3720   45.2820 C   0  0  0  0  0  0  0  0  0  0  0  0
   41.0510   31.2700   45.7550 O   0  0  0  0  0  0  0  0  0  0  0  0
   39.6950   33.3090   45.8480 N   0  0  0  0  0  0  0  0  0  0  0  0
   37.9160   31.7580   50.5290 H   0  0  0  0  0  0  0  0  0  0  0  0
   39.0980   33.8550   50.3200 H   0  0  0  0  0  0  0  0  0  0  0  0
   41.1620   32.4790   44.3240 H   0  0  0  0  0  0  0  0  0  0  0  0
   39.5120   34.1430   45.2830 H   0  0  0  0  0  0  0  0  0  0  0  0
   37.3870   30.0860   48.6230 O   0  0  0  0  0  0  0  0  0  0  0  0
   36.2250   29.3130   51.1740 O   0  0  0  0  0  0  0  0  0  0  0  0
   35.6410   29.2630   50.0600 C   0  0  0  0  0  0  0  0  0  0  0  0
   36.0110   30.1520   48.9310 C   0  0  2  0  0  0  0  0  0  0  0  0
   35.1640   29.5860   47.7990 C   0  0  0  0  0  0  0  0  0  0  0  0
   34.8410   30.3800   47.1010 H   0  0  0  0  0  0  0  0  0  0  0  0
   33.9970   28.9650   48.5200 C   0  0  0  0  0  0  0  0  0  0  0  0
   33.2560   29.7310   48.8100 H   0  0  0  0  0  0  0  0  0  0  0  0
   34.5670   28.3710   49.7270 N   0  0  0  0  0  0  0  0  0  0  0  0
   34.2600   27.5170   50.2080 H   0  0  0  0  0  0  0  0  0  0  0  0
  1 14  1  0  0  0  0
  1  2  1  0  0  0  0
  2 10  1  0  0  0  0
  3  2  2  0  0  0  0
  3 11  1  0  0  0  0
  4  3  1  0  0  0  0
  5  6  1  0  0  0  0
  5  4  2  0  0  0  0
  6  1  2  0  0  0  0
  7  8  2  0  0  0  0
  7  9  1  0  0  0  0
  9  5  1  0  0  0  0
 12  7  1  0  0  0  0
 13  9  1  0  0  0  0
 16 15  2  0  0  0  0
 17 14  1  6  0  0  0
 17 16  1  0  0  0  0
 18 20  1  0  0  0  0
 18 17  1  0  0  0  0
 19 18  1  0  0  0  0
 20 21  1  0  0  0  0
 20 22  1  0  0  0  0
 22 16  1  0  0  0  0
 22 23  1  0  0  0  0
M  END
>  <minimizedAffinity>
-5.45283365

>  <minimizedRMSD>
5.47712898

$$$$
