
 OpenBabel03272503433D

 41 44  0  0  1  0  0  0  0  0999 V2000
   34.5850   29.6380   33.4350 C   0  0  2  0  0  0  0  0  0  0  0  0
   35.0530   28.8440   32.2380 C   0  0  1  0  0  0  0  0  0  0  0  0
   35.2670   29.9960   31.2750 C   0  0  0  0  0  0  0  0  0  0  0  0
   34.3070   30.9450   31.5340 O   0  0  0  0  0  0  0  0  0  0  0  0
   33.6690   30.6290   32.6910 C   0  0  0  0  0  0  0  0  0  0  0  0
   34.0320   29.0940   34.1910 H   0  0  0  0  0  0  0  0  0  0  0  0
   34.2930   28.1830   31.8290 H   0  0  0  0  0  0  0  0  0  0  0  0
   35.2100   29.6670   30.2340 H   0  0  0  0  0  0  0  0  0  0  0  0
   36.2610   30.4420   31.5310 H   0  0  0  0  0  0  0  0  0  0  0  0
   32.7580   30.0430   32.4390 H   0  0  0  0  0  0  0  0  0  0  0  0
   33.3530   31.4500   33.3360 H   0  0  0  0  0  0  0  0  0  0  0  0
   37.8690   26.9140   33.3380 C   0  0  0  0  0  0  0  0  0  0  0  0
   38.4130   27.5340   32.2720 C   0  0  0  0  0  0  0  0  0  0  0  0
   37.3780   28.3240   31.7660 C   0  0  0  0  0  0  0  0  0  0  0  0
   36.2840   28.1550   32.5210 N   0  0  0  0  0  0  0  0  0  0  0  0
   36.5720   27.2890   33.4950 N   0  0  0  0  0  0  0  0  0  0  0  0
   39.4400   27.4130   31.9210 H   0  0  0  0  0  0  0  0  0  0  0  0
   37.4970   28.9630   30.8840 H   0  0  0  0  0  0  0  0  0  0  0  0
   38.6290   24.3650   35.9920 C   0  0  0  0  0  0  0  0  0  0  0  0
   37.9420   25.2450   35.1920 C   0  0  0  0  0  0  0  0  0  0  0  0
   38.5550   25.9710   34.2060 C   0  0  0  0  0  0  0  0  0  0  0  0
   39.8980   25.7700   34.0610 N   0  0  0  0  0  0  0  0  0  0  0  0
   40.5680   24.8910   34.8620 C   0  0  0  0  0  0  0  0  0  0  0  0
   39.9530   24.2040   35.8070 N   0  0  0  0  0  0  0  0  0  0  0  0
   36.8620   25.4360   35.2770 H   0  0  0  0  0  0  0  0  0  0  0  0
   41.6130   24.7300   34.7540 H   0  0  0  0  0  0  0  0  0  0  0  0
   37.8300   23.7250   36.9320 O   0  0  0  0  0  0  0  0  0  0  0  0
   38.1240   23.6760   38.3050 C   0  0  0  0  0  0  0  0  0  0  0  0
   39.4440   23.2930   38.5460 F   0  0  0  0  0  0  0  0  0  0  0  0
   37.2550   22.8390   38.9290 F   0  0  0  0  0  0  0  0  0  0  0  0
   37.9530   24.9510   38.8370 F   0  0  0  0  0  0  0  0  0  0  0  0
   35.6790   30.3460   33.9380 O   0  0  0  0  0  0  0  0  0  0  0  0
   36.9020   32.9640   35.4050 O   0  0  0  0  0  0  0  0  0  0  0  0
   36.1360   31.9550   35.5740 C   0  0  0  0  0  0  0  0  0  0  0  0
   35.5160   30.6500   35.2830 C   0  0  1  0  0  3  0  0  0  0  0  0
   34.0450   30.9590   35.5520 C   0  0  0  0  0  3  0  0  0  0  0  0
   33.4200   30.0760   35.6750 H   0  0  0  0  0  0  0  0  0  0  0  0
   34.1190   31.6370   36.9260 C   0  0  0  0  0  3  0  0  0  0  0  0
   34.0950   30.8360   37.6720 H   0  0  0  0  0  0  0  0  0  0  0  0
   35.4290   32.2630   36.8070 N   0  0  0  0  0  0  0  0  0  0  0  0
   35.5250   32.8100   37.7060 H   0  0  0  0  0  0  0  0  0  0  0  0
  1 32  1  0  0  0  0
  1  6  1  1  0  0  0
  2  7  1  6  0  0  0
  2 15  1  0  0  0  0
  2  1  1  0  0  0  0
  3  9  1  0  0  0  0
  3  4  1  0  0  0  0
  3  2  1  0  0  0  0
  4  5  1  0  0  0  0
  5 11  1  0  0  0  0
  5  1  1  0  0  0  0
  8  3  1  0  0  0  0
 10  5  1  0  0  0  0
 12 16  2  0  0  0  0
 12 21  1  0  0  0  0
 13 12  1  0  0  0  0
 14 13  2  0  0  0  0
 14 15  1  0  0  0  0
 15 16  1  0  0  0  0
 17 13  1  0  0  0  0
 18 14  1  0  0  0  0
 19 27  1  0  0  0  0
 20 25  1  0  0  0  0
 20 19  2  0  0  0  0
 21 20  1  0  0  0  0
 22 21  2  0  0  0  0
 22 23  1  0  0  0  0
 23 24  2  0  0  0  0
 24 19  1  0  0  0  0
 26 23  1  0  0  0  0
 27 28  1  0  0  0  0
 28 29  1  0  0  0  0
 28 31  1  0  0  0  0
 28 30  1  0  0  0  0
 33 34  2  0  0  0  0
 34 40  1  0  0  0  0
 35 32  1  6  0  0  0
 35 36  1  0  0  0  0
 35 34  1  0  0  0  0
 36 37  1  0  0  0  0
 36 38  1  0  0  0  0
 38 39  1  0  0  0  0
 40 38  1  0  0  0  0
 40 41  1  0  0  0  0
M  END
>  <minimizedAffinity>
-6.14859581

$$$$

 OpenBabel03272503433D

 41 44  0  0  1  0  0  0  0  0999 V2000
   38.6070   22.9350   34.0450 C   0  0  2  0  0  0  0  0  0  0  0  0
   38.1440   23.5560   32.7490 C   0  0  1  0  0  0  0  0  0  0  0  0
   36.7670   22.9240   32.6770 C   0  0  0  0  0  0  0  0  0  0  0  0
   36.8580   21.6580   33.2040 O   0  0  0  0  0  0  0  0  0  0  0  0
   38.0670   21.5120   33.8070 C   0  0  0  0  0  0  0  0  0  0  0  0
   39.6760   22.9170   34.2200 H   0  0  0  0  0  0  0  0  0  0  0  0
   38.7200   23.2410   31.8830 H   0  0  0  0  0  0  0  0  0  0  0  0
   36.3940   22.8860   31.6490 H   0  0  0  0  0  0  0  0  0  0  0  0
   36.1070   23.5250   33.3510 H   0  0  0  0  0  0  0  0  0  0  0  0
   38.7700   21.0570   33.0740 H   0  0  0  0  0  0  0  0  0  0  0  0
   38.1110   20.9050   34.7120 H   0  0  0  0  0  0  0  0  0  0  0  0
   37.4370   27.0670   32.9520 C   0  0  0  0  0  0  0  0  0  0  0  0
   38.7710   27.0870   33.1430 C   0  0  0  0  0  0  0  0  0  0  0  0
   39.1480   25.7430   33.0790 C   0  0  0  0  0  0  0  0  0  0  0  0
   38.0630   24.9880   32.8600 N   0  0  0  0  0  0  0  0  0  0  0  0
   37.0000   25.7920   32.7790 N   0  0  0  0  0  0  0  0  0  0  0  0
   39.3780   27.9790   33.3070 H   0  0  0  0  0  0  0  0  0  0  0  0
   40.1870   25.4120   33.1970 H   0  0  0  0  0  0  0  0  0  0  0  0
   35.2270   29.9200   33.9980 C   0  0  0  0  0  0  0  0  0  0  0  0
   36.0440   28.8170   34.0570 C   0  0  0  0  0  0  0  0  0  0  0  0
   36.5710   28.2340   32.9360 C   0  0  0  0  0  0  0  0  0  0  0  0
   36.2360   28.8140   31.7460 N   0  0  0  0  0  0  0  0  0  0  0  0
   35.4250   29.9100   31.7010 C   0  0  0  0  0  0  0  0  0  0  0  0
   34.9280   30.4530   32.7980 N   0  0  0  0  0  0  0  0  0  0  0  0
   36.3360   28.3210   34.9940 H   0  0  0  0  0  0  0  0  0  0  0  0
   35.1600   30.3660   30.7780 H   0  0  0  0  0  0  0  0  0  0  0  0
   34.7950   30.3630   35.2420 O   0  0  0  0  0  0  0  0  0  0  0  0
   35.2980   31.5050   35.8850 C   0  0  0  0  0  0  0  0  0  0  0  0
   34.7790   31.6560   37.1710 F   0  0  0  0  0  0  0  0  0  0  0  0
   35.0460   32.6050   35.1280 F   0  0  0  0  0  0  0  0  0  0  0  0
   36.6790   31.3700   36.0030 F   0  0  0  0  0  0  0  0  0  0  0  0
   37.8760   23.5110   35.0860 O   0  0  0  0  0  0  0  0  0  0  0  0
   40.8370   23.2720   36.3830 O   0  0  0  0  0  0  0  0  0  0  0  0
   39.5960   23.0640   36.6090 C   0  0  0  0  0  0  0  0  0  0  0  0
   38.1620   22.9100   36.3050 C   0  0  1  0  0  3  0  0  0  0  0  0
   37.5360   23.7320   37.4280 C   0  0  0  0  0  3  0  0  0  0  0  0
   36.4750   23.5410   37.5810 H   0  0  0  0  0  0  0  0  0  0  0  0
   38.2630   23.1760   38.6590 C   0  0  0  0  0  3  0  0  0  0  0  0
   37.7010   22.2940   38.9830 H   0  0  0  0  0  0  0  0  0  0  0  0
   39.5410   22.8430   38.0450 N   0  0  0  0  0  0  0  0  0  0  0  0
   40.1260   22.5080   38.8580 H   0  0  0  0  0  0  0  0  0  0  0  0
  1  6  1  1  0  0  0
  1 32  1  0  0  0  0
  2  7  1  6  0  0  0
  2 15  1  0  0  0  0
  2  1  1  0  0  0  0
  3  2  1  0  0  0  0
  3  4  1  0  0  0  0
  3  9  1  0  0  0  0
  4  5  1  0  0  0  0
  5  1  1  0  0  0  0
  5 11  1  0  0  0  0
  8  3  1  0  0  0  0
 10  5  1  0  0  0  0
 12 13  1  0  0  0  0
 13 17  1  0  0  0  0
 14 13  2  0  0  0  0
 14 18  1  0  0  0  0
 15 14  1  0  0  0  0
 16 15  1  0  0  0  0
 16 12  2  0  0  0  0
 19 20  1  0  0  0  0
 19 27  1  0  0  0  0
 20 25  1  0  0  0  0
 21 12  1  0  0  0  0
 21 20  2  0  0  0  0
 22 21  1  0  0  0  0
 23 22  2  0  0  0  0
 23 24  1  0  0  0  0
 24 19  2  0  0  0  0
 26 23  1  0  0  0  0
 27 28  1  0  0  0  0
 28 31  1  0  0  0  0
 28 29  1  0  0  0  0
 30 28  1  0  0  0  0
 33 34  2  0  0  0  0
 34 40  1  0  0  0  0
 35 32  1  6  0  0  0
 35 34  1  0  0  0  0
 35 36  1  0  0  0  0
 36 37  1  0  0  0  0
 36 38  1  0  0  0  0
 38 39  1  0  0  0  0
 40 38  1  0  0  0  0
 40 41  1  0  0  0  0
M  END
>  <minimizedAffinity>
-5.95351076

$$$$

 OpenBabel03272503433D

 41 44  0  0  1  0  0  0  0  0999 V2000
   33.7970   31.1940   34.9100 C   0  0  2  0  0  0  0  0  0  0  0  0
   35.2710   31.1770   34.5800 C   0  0  1  0  0  0  0  0  0  0  0  0
   35.8160   31.3580   35.9830 C   0  0  0  0  0  0  0  0  0  0  0  0
   34.9520   32.1790   36.6680 O   0  0  0  0  0  0  0  0  0  0  0  0
   33.8190   32.3420   35.9360 C   0  0  0  0  0  0  0  0  0  0  0  0
   33.1200   31.4190   34.0940 H   0  0  0  0  0  0  0  0  0  0  0  0
   35.5900   32.0180   33.9690 H   0  0  0  0  0  0  0  0  0  0  0  0
   36.8240   31.7840   35.9720 H   0  0  0  0  0  0  0  0  0  0  0  0
   35.7810   30.3500   36.4680 H   0  0  0  0  0  0  0  0  0  0  0  0
   33.9250   33.2680   35.3290 H   0  0  0  0  0  0  0  0  0  0  0  0
   32.8740   32.4190   36.4770 H   0  0  0  0  0  0  0  0  0  0  0  0
   36.4330   27.9150   33.6470 C   0  0  0  0  0  0  0  0  0  0  0  0
   35.9030   28.3170   32.4750 C   0  0  0  0  0  0  0  0  0  0  0  0
   35.4170   29.6000   32.7390 C   0  0  0  0  0  0  0  0  0  0  0  0
   35.6630   29.9120   34.0180 N   0  0  0  0  0  0  0  0  0  0  0  0
   36.2900   28.8820   34.5910 N   0  0  0  0  0  0  0  0  0  0  0  0
   35.8820   27.7350   31.5520 H   0  0  0  0  0  0  0  0  0  0  0  0
   34.9170   30.2130   31.9780 H   0  0  0  0  0  0  0  0  0  0  0  0
   38.2310   25.0370   35.2600 C   0  0  0  0  0  0  0  0  0  0  0  0
   37.6400   26.2630   35.0760 C   0  0  0  0  0  0  0  0  0  0  0  0
   37.0680   26.6300   33.8870 C   0  0  0  0  0  0  0  0  0  0  0  0
   37.1190   25.7010   32.8860 N   0  0  0  0  0  0  0  0  0  0  0  0
   37.7090   24.4870   33.0830 C   0  0  0  0  0  0  0  0  0  0  0  0
   38.2550   24.1580   34.2410 N   0  0  0  0  0  0  0  0  0  0  0  0
   37.5780   27.0370   35.8550 H   0  0  0  0  0  0  0  0  0  0  0  0
   37.7530   23.7600   32.3090 H   0  0  0  0  0  0  0  0  0  0  0  0
   38.7530   24.8560   36.5360 O   0  0  0  0  0  0  0  0  0  0  0  0
   38.1390   24.0760   37.5300 C   0  0  0  0  0  0  0  0  0  0  0  0
   36.9990   23.4260   37.0560 F   0  0  0  0  0  0  0  0  0  0  0  0
   37.8430   24.8540   38.6030 F   0  0  0  0  0  0  0  0  0  0  0  0
   39.0410   23.0980   37.9410 F   0  0  0  0  0  0  0  0  0  0  0  0
   33.4920   30.0090   35.5830 O   0  0  0  0  0  0  0  0  0  0  0  0
   32.0220   28.7750   32.9720 O   0  0  0  0  0  0  0  0  0  0  0  0
   31.8460   29.0880   34.1990 C   0  0  0  0  0  0  0  0  0  0  0  0
   32.1380   29.7100   35.5030 C   0  0  1  0  0  3  0  0  0  0  0  0
   31.8230   28.5580   36.4520 C   0  0  0  0  0  3  0  0  0  0  0  0
   31.6950   28.8590   37.4910 H   0  0  0  0  0  0  0  0  0  0  0  0
   30.4420   28.1150   35.9520 C   0  0  0  0  0  3  0  0  0  0  0  0
   29.7070   28.7460   36.4630 H   0  0  0  0  0  0  0  0  0  0  0  0
   30.5890   28.4420   34.5400 N   0  0  0  0  0  0  0  0  0  0  0  0
   29.6850   28.1020   34.1120 H   0  0  0  0  0  0  0  0  0  0  0  0
  1  6  1  6  0  0  0
  1 32  1  0  0  0  0
  1  5  1  0  0  0  0
  2  7  1  6  0  0  0
  2  1  1  0  0  0  0
  2  3  1  0  0  0  0
  3  9  1  0  0  0  0
  3  4  1  0  0  0  0
  5 11  1  0  0  0  0
  5  4  1  0  0  0  0
  8  3  1  0  0  0  0
 10  5  1  0  0  0  0
 12 21  1  0  0  0  0
 12 16  2  0  0  0  0
 13 14  2  0  0  0  0
 13 12  1  0  0  0  0
 14 15  1  0  0  0  0
 15  2  1  0  0  0  0
 15 16  1  0  0  0  0
 17 13  1  0  0  0  0
 18 14  1  0  0  0  0
 19 27  1  0  0  0  0
 20 19  1  0  0  0  0
 20 25  1  0  0  0  0
 21 20  2  0  0  0  0
 22 23  2  0  0  0  0
 22 21  1  0  0  0  0
 23 24  1  0  0  0  0
 24 19  2  0  0  0  0
 26 23  1  0  0  0  0
 27 28  1  0  0  0  0
 28 31  1  0  0  0  0
 28 30  1  0  0  0  0
 29 28  1  0  0  0  0
 33 34  2  0  0  0  0
 34 40  1  0  0  0  0
 34 35  1  0  0  0  0
 35 32  1  6  0  0  0
 35 36  1  0  0  0  0
 36 37  1  0  0  0  0
 38 36  1  0  0  0  0
 38 39  1  0  0  0  0
 40 38  1  0  0  0  0
 41 40  1  0  0  0  0
M  END
>  <minimizedAffinity>
-5.90369844

$$$$

 OpenBabel03272503433D

 41 44  0  0  1  0  0  0  0  0999 V2000
   37.2250   25.2560   31.9320 C   0  0  2  0  0  0  0  0  0  0  0  0
   36.5490   25.8810   30.7340 C   0  0  1  0  0  0  0  0  0  0  0  0
   35.1330   25.4090   31.0050 C   0  0  0  0  0  0  0  0  0  0  0  0
   35.2080   24.1600   31.5740 O   0  0  0  0  0  0  0  0  0  0  0  0
   36.4990   23.8970   31.9040 C   0  0  0  0  0  0  0  0  0  0  0  0
   38.2980   25.1210   31.8680 H   0  0  0  0  0  0  0  0  0  0  0  0
   36.8790   25.4710   29.7840 H   0  0  0  0  0  0  0  0  0  0  0  0
   34.5370   25.3790   30.0880 H   0  0  0  0  0  0  0  0  0  0  0  0
   34.7080   26.1060   31.7710 H   0  0  0  0  0  0  0  0  0  0  0  0
   36.9680   23.3390   31.0640 H   0  0  0  0  0  0  0  0  0  0  0  0
   36.6830   23.3220   32.8130 H   0  0  0  0  0  0  0  0  0  0  0  0
   36.4090   29.4370   31.1800 C   0  0  0  0  0  0  0  0  0  0  0  0
   37.4030   29.3550   30.2720 C   0  0  0  0  0  0  0  0  0  0  0  0
   37.5350   27.9850   30.0290 C   0  0  0  0  0  0  0  0  0  0  0  0
   36.6450   27.3160   30.7740 N   0  0  0  0  0  0  0  0  0  0  0  0
   35.9440   28.1980   31.4890 N   0  0  0  0  0  0  0  0  0  0  0  0
   37.9530   30.1990   29.8520 H   0  0  0  0  0  0  0  0  0  0  0  0
   38.2710   27.5760   29.3260 H   0  0  0  0  0  0  0  0  0  0  0  0
   35.0860   32.0000   33.5880 C   0  0  0  0  0  0  0  0  0  0  0  0
   35.5680   30.8180   33.0800 C   0  0  0  0  0  0  0  0  0  0  0  0
   35.8990   30.6680   31.7600 C   0  0  0  0  0  0  0  0  0  0  0  0
   35.7210   31.7680   30.9690 N   0  0  0  0  0  0  0  0  0  0  0  0
   35.2420   32.9360   31.4870 C   0  0  0  0  0  0  0  0  0  0  0  0
   34.9300   33.0540   32.7650 N   0  0  0  0  0  0  0  0  0  0  0  0
   35.7250   29.9110   33.6820 H   0  0  0  0  0  0  0  0  0  0  0  0
   35.1010   33.7950   30.8770 H   0  0  0  0  0  0  0  0  0  0  0  0
   34.8090   31.9510   34.9490 O   0  0  0  0  0  0  0  0  0  0  0  0
   35.7920   32.0170   35.9500 C   0  0  0  0  0  0  0  0  0  0  0  0
   35.2480   32.3060   37.2020 F   0  0  0  0  0  0  0  0  0  0  0  0
   36.7340   32.9330   35.6080 F   0  0  0  0  0  0  0  0  0  0  0  0
   36.4130   30.7730   36.0390 F   0  0  0  0  0  0  0  0  0  0  0  0
   36.8120   25.9490   33.0710 O   0  0  0  0  0  0  0  0  0  0  0  0
   39.7210   27.3070   32.6310 O   0  0  0  0  0  0  0  0  0  0  0  0
   38.9610   26.7670   33.5050 C   0  0  0  0  0  0  0  0  0  0  0  0
   37.8160   26.0010   34.0290 C   0  0  1  0  0  3  0  0  0  0  0  0
   37.3660   26.9010   35.1780 C   0  0  0  0  0  3  0  0  0  0  0  0
   36.7080   26.4120   35.8940 H   0  0  0  0  0  0  0  0  0  0  0  0
   38.6920   27.1560   35.9070 C   0  0  0  0  0  3  0  0  0  0  0  0
   38.8310   26.3240   36.6040 H   0  0  0  0  0  0  0  0  0  0  0  0
   39.5980   27.1030   34.7680 N   0  0  0  0  0  0  0  0  0  0  0  0
   40.5390   27.3360   35.1890 H   0  0  0  0  0  0  0  0  0  0  0  0
  1  6  1  6  0  0  0
  1 32  1  0  0  0  0
  2  7  1  6  0  0  0
  2 15  1  0  0  0  0
  2  3  1  0  0  0  0
  2  1  1  0  0  0  0
  3  4  1  0  0  0  0
  3  9  1  0  0  0  0
  4  5  1  0  0  0  0
  5  1  1  0  0  0  0
  5 11  1  0  0  0  0
  8  3  1  0  0  0  0
 10  5  1  0  0  0  0
 12 16  2  0  0  0  0
 12 21  1  0  0  0  0
 13 12  1  0  0  0  0
 14 13  2  0  0  0  0
 14 15  1  0  0  0  0
 15 16  1  0  0  0  0
 17 13  1  0  0  0  0
 18 14  1  0  0  0  0
 19 27  1  0  0  0  0
 20 19  1  0  0  0  0
 20 25  1  0  0  0  0
 21 20  2  0  0  0  0
 22 23  2  0  0  0  0
 22 21  1  0  0  0  0
 23 24  1  0  0  0  0
 24 19  2  0  0  0  0
 26 23  1  0  0  0  0
 27 28  1  0  0  0  0
 28 31  1  0  0  0  0
 28 29  1  0  0  0  0
 30 28  1  0  0  0  0
 33 34  2  0  0  0  0
 34 35  1  0  0  0  0
 34 40  1  0  0  0  0
 35 32  1  6  0  0  0
 35 36  1  0  0  0  0
 36 37  1  0  0  0  0
 36 38  1  0  0  0  0
 38 39  1  0  0  0  0
 40 41  1  0  0  0  0
 40 38  1  0  0  0  0
M  END
>  <minimizedAffinity>
-5.65987301

$$$$

 OpenBabel03272503433D

 41 44  0  0  1  0  0  0  0  0999 V2000
   37.4520   26.1000   31.9080 C   0  0  2  0  0  0  0  0  0  0  0  0
   36.4990   26.7690   30.9450 C   0  0  1  0  0  0  0  0  0  0  0  0
   35.4240   25.7010   30.9170 C   0  0  0  0  0  0  0  0  0  0  0  0
   36.0410   24.4780   31.0280 O   0  0  0  0  0  0  0  0  0  0  0  0
   37.3470   24.6660   31.3550 C   0  0  0  0  0  0  0  0  0  0  0  0
   38.4790   26.4450   31.8920 H   0  0  0  0  0  0  0  0  0  0  0  0
   36.9030   26.8850   29.9420 H   0  0  0  0  0  0  0  0  0  0  0  0
   34.8310   25.7490   29.9990 H   0  0  0  0  0  0  0  0  0  0  0  0
   34.8040   25.8510   31.8370 H   0  0  0  0  0  0  0  0  0  0  0  0
   37.9440   24.6760   30.4160 H   0  0  0  0  0  0  0  0  0  0  0  0
   37.8110   23.9400   32.0230 H   0  0  0  0  0  0  0  0  0  0  0  0
   34.8630   29.5790   32.4590 C   0  0  0  0  0  0  0  0  0  0  0  0
   35.9560   30.1880   31.9560 C   0  0  0  0  0  0  0  0  0  0  0  0
   36.6700   29.1600   31.3350 C   0  0  0  0  0  0  0  0  0  0  0  0
   36.0020   28.0070   31.4820 N   0  0  0  0  0  0  0  0  0  0  0  0
   34.8860   28.2500   32.1730 N   0  0  0  0  0  0  0  0  0  0  0  0
   36.1890   31.2510   32.0420 H   0  0  0  0  0  0  0  0  0  0  0  0
   37.6240   29.3260   30.8220 H   0  0  0  0  0  0  0  0  0  0  0  0
   32.9840   31.7420   34.8890 C   0  0  0  0  0  0  0  0  0  0  0  0
   34.0160   31.1480   34.2040 C   0  0  0  0  0  0  0  0  0  0  0  0
   33.8040   30.2330   33.2070 C   0  0  0  0  0  0  0  0  0  0  0  0
   32.4980   29.9420   32.9310 N   0  0  0  0  0  0  0  0  0  0  0  0
   31.4830   30.5400   33.6180 C   0  0  0  0  0  0  0  0  0  0  0  0
   31.7150   31.4200   34.5770 N   0  0  0  0  0  0  0  0  0  0  0  0
   35.0790   31.3550   34.3960 H   0  0  0  0  0  0  0  0  0  0  0  0
   30.4650   30.3180   33.4080 H   0  0  0  0  0  0  0  0  0  0  0  0
   33.4050   32.6410   35.8620 O   0  0  0  0  0  0  0  0  0  0  0  0
   33.7720   32.2690   37.1650 C   0  0  0  0  0  0  0  0  0  0  0  0
   35.0820   31.7930   37.2260 F   0  0  0  0  0  0  0  0  0  0  0  0
   32.8980   31.3450   37.6410 F   0  0  0  0  0  0  0  0  0  0  0  0
   33.6960   33.3960   37.9810 F   0  0  0  0  0  0  0  0  0  0  0  0
   36.8700   26.1240   33.1770 O   0  0  0  0  0  0  0  0  0  0  0  0
   36.8130   28.7280   35.1060 O   0  0  0  0  0  0  0  0  0  0  0  0
   37.4140   27.6200   34.8920 C   0  0  0  0  0  0  0  0  0  0  0  0
   37.8080   26.4010   34.1630 C   0  0  1  0  0  3  0  0  0  0  0  0
   37.6980   25.3530   35.2670 C   0  0  0  0  0  3  0  0  0  0  0  0
   38.2070   24.4170   35.0450 H   0  0  0  0  0  0  0  0  0  0  0  0
   38.4830   26.0190   36.4040 C   0  0  0  0  0  3  0  0  0  0  0  0
   39.5360   25.7580   36.2520 H   0  0  0  0  0  0  0  0  0  0  0  0
   38.1930   27.4140   36.1020 N   0  0  0  0  0  0  0  0  0  0  0  0
   38.6570   27.9400   36.8930 H   0  0  0  0  0  0  0  0  0  0  0  0
  1  6  1  6  0  0  0
  1 32  1  0  0  0  0
  2  7  1  6  0  0  0
  2 15  1  0  0  0  0
  2  1  1  0  0  0  0
  3  2  1  0  0  0  0
  3  4  1  0  0  0  0
  3  9  1  0  0  0  0
  4  5  1  0  0  0  0
  5  1  1  0  0  0  0
  5 11  1  0  0  0  0
  8  3  1  0  0  0  0
 10  5  1  0  0  0  0
 12 21  1  0  0  0  0
 13 17  1  0  0  0  0
 13 12  1  0  0  0  0
 14 15  1  0  0  0  0
 14 13  2  0  0  0  0
 15 16  1  0  0  0  0
 16 12  2  0  0  0  0
 18 14  1  0  0  0  0
 19 27  1  0  0  0  0
 20 25  1  0  0  0  0
 20 19  2  0  0  0  0
 21 20  1  0  0  0  0
 22 21  2  0  0  0  0
 22 23  1  0  0  0  0
 23 24  2  0  0  0  0
 24 19  1  0  0  0  0
 26 23  1  0  0  0  0
 27 28  1  0  0  0  0
 28 29  1  0  0  0  0
 28 30  1  0  0  0  0
 28 31  1  0  0  0  0
 34 33  2  0  0  0  0
 34 40  1  0  0  0  0
 35 32  1  6  0  0  0
 35 34  1  0  0  0  0
 35 36  1  0  0  0  0
 36 38  1  0  0  0  0
 37 36  1  0  0  0  0
 39 38  1  0  0  0  0
 40 38  1  0  0  0  0
 40 41  1  0  0  0  0
M  END
>  <minimizedAffinity>
-5.54163408

$$$$

 OpenBabel03272503433D

 41 44  0  0  1  0  0  0  0  0999 V2000
   37.2720   28.2320   30.1360 C   0  0  2  0  0  0  0  0  0  0  0  0
   38.5420   27.4340   29.9550 C   0  0  1  0  0  0  0  0  0  0  0  0
   39.4890   28.5830   29.6690 C   0  0  0  0  0  0  0  0  0  0  0  0
   38.7940   29.5340   28.9600 O   0  0  0  0  0  0  0  0  0  0  0  0
   37.4720   29.2220   28.9730 C   0  0  0  0  0  0  0  0  0  0  0  0
   36.3400   27.6910   30.0260 H   0  0  0  0  0  0  0  0  0  0  0  0
   38.5220   26.7730   29.0930 H   0  0  0  0  0  0  0  0  0  0  0  0
   40.3670   28.2510   29.1070 H   0  0  0  0  0  0  0  0  0  0  0  0
   39.7560   29.0280   30.6600 H   0  0  0  0  0  0  0  0  0  0  0  0
   37.2420   28.6370   28.0560 H   0  0  0  0  0  0  0  0  0  0  0  0
   36.7570   30.0450   29.0150 H   0  0  0  0  0  0  0  0  0  0  0  0
   39.0110   25.4280   32.8910 C   0  0  0  0  0  0  0  0  0  0  0  0
   40.0800   26.2420   32.9930 C   0  0  0  0  0  0  0  0  0  0  0  0
   39.9850   27.0770   31.8760 C   0  0  0  0  0  0  0  0  0  0  0  0
   38.8980   26.7440   31.1670 N   0  0  0  0  0  0  0  0  0  0  0  0
   38.2870   25.7290   31.7810 N   0  0  0  0  0  0  0  0  0  0  0  0
   40.8270   26.2170   33.7880 H   0  0  0  0  0  0  0  0  0  0  0  0
   40.7150   27.8660   31.6620 H   0  0  0  0  0  0  0  0  0  0  0  0
   37.9080   23.5480   35.9520 C   0  0  0  0  0  0  0  0  0  0  0  0
   38.2190   24.5800   35.1000 C   0  0  0  0  0  0  0  0  0  0  0  0
   38.6690   24.3680   33.8250 C   0  0  0  0  0  0  0  0  0  0  0  0
   38.7930   23.0610   33.4430 N   0  0  0  0  0  0  0  0  0  0  0  0
   38.4790   22.0460   34.2990 C   0  0  0  0  0  0  0  0  0  0  0  0
   38.0480   22.2790   35.5260 N   0  0  0  0  0  0  0  0  0  0  0  0
   38.1340   25.6430   35.3690 H   0  0  0  0  0  0  0  0  0  0  0  0
   38.5730   21.0280   34.0090 H   0  0  0  0  0  0  0  0  0  0  0  0
   37.4690   23.9690   37.2020 O   0  0  0  0  0  0  0  0  0  0  0  0
   38.1730   23.7410   38.3960 C   0  0  0  0  0  0  0  0  0  0  0  0
   38.1550   24.8550   39.2360 F   0  0  0  0  0  0  0  0  0  0  0  0
   39.4470   23.3670   38.1120 F   0  0  0  0  0  0  0  0  0  0  0  0
   37.5560   22.6930   39.0750 F   0  0  0  0  0  0  0  0  0  0  0  0
   37.3740   28.9390   31.3360 O   0  0  0  0  0  0  0  0  0  0  0  0
   36.8220   27.8350   34.3320 O   0  0  0  0  0  0  0  0  0  0  0  0
   36.2990   28.4870   33.3650 C   0  0  0  0  0  0  0  0  0  0  0  0
   36.1530   29.0080   31.9940 C   0  0  1  0  0  3  0  0  0  0  0  0
   35.8150   30.4700   32.2720 C   0  0  0  0  0  3  0  0  0  0  0  0
   35.3870   30.9970   31.4220 H   0  0  0  0  0  0  0  0  0  0  0  0
   34.6950   30.3350   33.3120 C   0  0  0  0  0  3  0  0  0  0  0  0
   33.7610   30.2180   32.7530 H   0  0  0  0  0  0  0  0  0  0  0  0
   35.1260   29.1040   33.9610 N   0  0  0  0  0  0  0  0  0  0  0  0
   34.4270   28.9790   34.7430 H   0  0  0  0  0  0  0  0  0  0  0  0
  1  6  1  6  0  0  0
  1 32  1  0  0  0  0
  2  7  1  6  0  0  0
  2  1  1  0  0  0  0
  2 15  1  0  0  0  0
  3  2  1  0  0  0  0
  3  9  1  0  0  0  0
  4  5  1  0  0  0  0
  4  3  1  0  0  0  0
  5 11  1  0  0  0  0
  5  1  1  0  0  0  0
  8  3  1  0  0  0  0
 10  5  1  0  0  0  0
 12 13  1  0  0  0  0
 12 21  1  0  0  0  0
 13 17  1  0  0  0  0
 14 13  2  0  0  0  0
 15 16  1  0  0  0  0
 15 14  1  0  0  0  0
 16 12  2  0  0  0  0
 18 14  1  0  0  0  0
 19 27  1  0  0  0  0
 20 25  1  0  0  0  0
 20 19  2  0  0  0  0
 21 20  1  0  0  0  0
 22 21  2  0  0  0  0
 22 23  1  0  0  0  0
 23 24  2  0  0  0  0
 24 19  1  0  0  0  0
 26 23  1  0  0  0  0
 27 28  1  0  0  0  0
 28 31  1  0  0  0  0
 28 29  1  0  0  0  0
 30 28  1  0  0  0  0
 34 40  1  0  0  0  0
 34 33  2  0  0  0  0
 35 32  1  6  0  0  0
 35 36  1  0  0  0  0
 35 34  1  0  0  0  0
 36 38  1  0  0  0  0
 37 36  1  0  0  0  0
 38 40  1  0  0  0  0
 39 38  1  0  0  0  0
 40 41  1  0  0  0  0
M  END
>  <minimizedAffinity>
-5.50102377

$$$$

 OpenBabel03272503433D

 41 44  0  0  1  0  0  0  0  0999 V2000
   39.7390   23.6490   35.2610 C   0  0  2  0  0  0  0  0  0  0  0  0
   38.2360   23.8020   35.2480 C   0  0  1  0  0  0  0  0  0  0  0  0
   38.0420   24.2280   36.6900 C   0  0  0  0  0  0  0  0  0  0  0  0
   38.9750   23.5670   37.4530 O   0  0  0  0  0  0  0  0  0  0  0  0
   39.8740   22.9620   36.6330 C   0  0  0  0  0  0  0  0  0  0  0  0
   40.1700   23.0350   34.4790 H   0  0  0  0  0  0  0  0  0  0  0  0
   37.7040   22.8680   35.0840 H   0  0  0  0  0  0  0  0  0  0  0  0
   37.0310   24.0070   37.0440 H   0  0  0  0  0  0  0  0  0  0  0  0
   38.2830   25.3200   36.7330 H   0  0  0  0  0  0  0  0  0  0  0  0
   39.5410   21.9140   36.4640 H   0  0  0  0  0  0  0  0  0  0  0  0
   40.9120   22.9190   36.9640 H   0  0  0  0  0  0  0  0  0  0  0  0
   37.1200   26.6540   33.3830 C   0  0  0  0  0  0  0  0  0  0  0  0
   37.4220   25.8180   32.3700 C   0  0  0  0  0  0  0  0  0  0  0  0
   37.8730   24.6570   33.0040 C   0  0  0  0  0  0  0  0  0  0  0  0
   37.8280   24.8330   34.3320 N   0  0  0  0  0  0  0  0  0  0  0  0
   37.3650   26.0600   34.5800 N   0  0  0  0  0  0  0  0  0  0  0  0
   37.3210   26.0420   31.3060 H   0  0  0  0  0  0  0  0  0  0  0  0
   38.2020   23.7690   32.4520 H   0  0  0  0  0  0  0  0  0  0  0  0
   35.4930   29.9770   34.0390 C   0  0  0  0  0  0  0  0  0  0  0  0
   35.9630   28.7000   34.2220 C   0  0  0  0  0  0  0  0  0  0  0  0
   36.6080   28.0070   33.2330 C   0  0  0  0  0  0  0  0  0  0  0  0
   36.7590   28.6620   32.0440 N   0  0  0  0  0  0  0  0  0  0  0  0
   36.2880   29.9310   31.8750 C   0  0  0  0  0  0  0  0  0  0  0  0
   35.6680   30.5770   32.8470 N   0  0  0  0  0  0  0  0  0  0  0  0
   35.8620   28.1390   35.1630 H   0  0  0  0  0  0  0  0  0  0  0  0
   36.4020   30.4460   30.9520 H   0  0  0  0  0  0  0  0  0  0  0  0
   34.8680   30.5090   35.1610 O   0  0  0  0  0  0  0  0  0  0  0  0
   35.3800   31.5840   35.9060 C   0  0  0  0  0  0  0  0  0  0  0  0
   34.8050   31.6640   37.1740 F   0  0  0  0  0  0  0  0  0  0  0  0
   35.2040   32.7420   35.2200 F   0  0  0  0  0  0  0  0  0  0  0  0
   36.7480   31.3870   36.0770 F   0  0  0  0  0  0  0  0  0  0  0  0
   40.3020   24.9230   35.3520 O   0  0  0  0  0  0  0  0  0  0  0  0
   40.5360   27.4240   33.3040 O   0  0  0  0  0  0  0  0  0  0  0  0
   41.1460   26.3850   33.7310 C   0  0  0  0  0  0  0  0  0  0  0  0
   41.3230   25.0970   34.4270 C   0  0  1  0  0  3  0  0  0  0  0  0
   42.6340   25.3450   35.1680 C   0  0  0  0  0  3  0  0  0  0  0  0
   43.1170   24.4390   35.5310 H   0  0  0  0  0  0  0  0  0  0  0  0
   43.5230   25.8950   34.0460 C   0  0  0  0  0  3  0  0  0  0  0  0
   43.9640   25.0290   33.5420 H   0  0  0  0  0  0  0  0  0  0  0  0
   42.5050   26.5620   33.2460 N   0  0  0  0  0  0  0  0  0  0  0  0
   43.0590   27.0260   32.4750 H   0  0  0  0  0  0  0  0  0  0  0  0
  1  6  1  6  0  0  0
  1 32  1  0  0  0  0
  1  5  1  0  0  0  0
  2  7  1  6  0  0  0
  2  1  1  0  0  0  0
  2  3  1  0  0  0  0
  3  9  1  0  0  0  0
  3  8  1  0  0  0  0
  3  4  1  0  0  0  0
  5 11  1  0  0  0  0
  5  4  1  0  0  0  0
 10  5  1  0  0  0  0
 12 16  2  0  0  0  0
 13 14  2  0  0  0  0
 13 12  1  0  0  0  0
 14 15  1  0  0  0  0
 15 16  1  0  0  0  0
 15  2  1  0  0  0  0
 17 13  1  0  0  0  0
 18 14  1  0  0  0  0
 19 20  1  0  0  0  0
 19 27  1  0  0  0  0
 20 25  1  0  0  0  0
 21 12  1  0  0  0  0
 21 20  2  0  0  0  0
 22 21  1  0  0  0  0
 23 22  2  0  0  0  0
 23 24  1  0  0  0  0
 24 19  2  0  0  0  0
 26 23  1  0  0  0  0
 27 28  1  0  0  0  0
 28 31  1  0  0  0  0
 28 29  1  0  0  0  0
 30 28  1  0  0  0  0
 33 34  2  0  0  0  0
 34 35  1  0  0  0  0
 35 36  1  0  0  0  0
 35 32  1  1  0  0  0
 36 37  1  0  0  0  0
 38 36  1  0  0  0  0
 39 38  1  0  0  0  0
 40 34  1  0  0  0  0
 40 38  1  0  0  0  0
 41 40  1  0  0  0  0
M  END
>  <minimizedAffinity>
-5.47507238

$$$$

 OpenBabel03272503433D

 41 44  0  0  1  0  0  0  0  0999 V2000
   35.7550   29.3850   31.2690 C   0  0  2  0  0  0  0  0  0  0  0  0
   36.5770   28.3620   30.5220 C   0  0  1  0  0  0  0  0  0  0  0  0
   37.8280   29.1930   30.3090 C   0  0  0  0  0  0  0  0  0  0  0  0
   37.4390   30.4970   30.1190 O   0  0  0  0  0  0  0  0  0  0  0  0
   36.1190   30.6170   30.4190 C   0  0  0  0  0  0  0  0  0  0  0  0
   34.6820   29.2290   31.2820 H   0  0  0  0  0  0  0  0  0  0  0  0
   36.1650   28.0950   29.5520 H   0  0  0  0  0  0  0  0  0  0  0  0
   38.4080   28.8360   29.4530 H   0  0  0  0  0  0  0  0  0  0  0  0
   38.4050   29.1470   31.2670 H   0  0  0  0  0  0  0  0  0  0  0  0
   35.5360   30.5010   29.4790 H   0  0  0  0  0  0  0  0  0  0  0  0
   35.7890   31.5450   30.8890 H   0  0  0  0  0  0  0  0  0  0  0  0
   37.6430   25.7480   32.7340 C   0  0  0  0  0  0  0  0  0  0  0  0
   36.5370   25.1780   32.2160 C   0  0  0  0  0  0  0  0  0  0  0  0
   36.0410   26.1340   31.3260 C   0  0  0  0  0  0  0  0  0  0  0  0
   36.8400   27.2090   31.3410 N   0  0  0  0  0  0  0  0  0  0  0  0
   37.8330   26.9850   32.2050 N   0  0  0  0  0  0  0  0  0  0  0  0
   36.1530   24.1870   32.4670 H   0  0  0  0  0  0  0  0  0  0  0  0
   35.1320   25.9770   30.7320 H   0  0  0  0  0  0  0  0  0  0  0  0
   38.9400   23.8770   35.7230 C   0  0  0  0  0  0  0  0  0  0  0  0
   38.0780   24.4330   34.8090 C   0  0  0  0  0  0  0  0  0  0  0  0
   38.5180   25.1420   33.7240 C   0  0  0  0  0  0  0  0  0  0  0  0
   39.8730   25.2680   33.6000 N   0  0  0  0  0  0  0  0  0  0  0  0
   40.7180   24.7100   34.5150 C   0  0  0  0  0  0  0  0  0  0  0  0
   40.2660   24.0310   35.5540 N   0  0  0  0  0  0  0  0  0  0  0  0
   36.9830   24.3540   34.8730 H   0  0  0  0  0  0  0  0  0  0  0  0
   41.7720   24.8050   34.4240 H   0  0  0  0  0  0  0  0  0  0  0  0
   38.3000   23.1970   36.7520 O   0  0  0  0  0  0  0  0  0  0  0  0
   38.3430   23.5930   38.0990 C   0  0  0  0  0  0  0  0  0  0  0  0
   38.0420   24.9460   38.2580 F   0  0  0  0  0  0  0  0  0  0  0  0
   39.5630   23.3030   38.6220 F   0  0  0  0  0  0  0  0  0  0  0  0
   37.3880   22.8640   38.8030 F   0  0  0  0  0  0  0  0  0  0  0  0
   36.3150   29.5470   32.5380 O   0  0  0  0  0  0  0  0  0  0  0  0
   35.3650   32.1570   34.2080 O   0  0  0  0  0  0  0  0  0  0  0  0
   35.1150   30.9190   34.0050 C   0  0  0  0  0  0  0  0  0  0  0  0
   35.3430   29.5430   33.5290 C   0  0  1  0  0  3  0  0  0  0  0  0
   33.9880   29.2240   32.9020 C   0  0  0  0  0  3  0  0  0  0  0  0
   33.8170   28.1630   32.7290 H   0  0  0  0  0  0  0  0  0  0  0  0
   33.0240   29.6460   34.0180 C   0  0  0  0  0  3  0  0  0  0  0  0
   32.9250   28.7860   34.6880 H   0  0  0  0  0  0  0  0  0  0  0  0
   33.8020   30.7320   34.6000 N   0  0  0  0  0  0  0  0  0  0  0  0
   33.1640   31.1200   35.3470 H   0  0  0  0  0  0  0  0  0  0  0  0
  1  6  1  1  0  0  0
  1 32  1  0  0  0  0
  2  7  1  6  0  0  0
  2  1  1  0  0  0  0
  2 15  1  0  0  0  0
  3  2  1  0  0  0  0
  3  9  1  0  0  0  0
  4  3  1  0  0  0  0
  4  5  1  0  0  0  0
  5 11  1  0  0  0  0
  5  1  1  0  0  0  0
  8  3  1  0  0  0  0
 10  5  1  0  0  0  0
 12 21  1  0  0  0  0
 13 17  1  0  0  0  0
 13 12  1  0  0  0  0
 14 15  1  0  0  0  0
 14 13  2  0  0  0  0
 15 16  1  0  0  0  0
 16 12  2  0  0  0  0
 18 14  1  0  0  0  0
 19 27  1  0  0  0  0
 20 25  1  0  0  0  0
 20 19  2  0  0  0  0
 21 20  1  0  0  0  0
 22 21  2  0  0  0  0
 22 23  1  0  0  0  0
 23 24  2  0  0  0  0
 24 19  1  0  0  0  0
 26 23  1  0  0  0  0
 27 28  1  0  0  0  0
 28 29  1  0  0  0  0
 28 30  1  0  0  0  0
 28 31  1  0  0  0  0
 34 33  2  0  0  0  0
 34 40  1  0  0  0  0
 35 32  1  6  0  0  0
 35 34  1  0  0  0  0
 36 35  1  0  0  0  0
 36 38  1  0  0  0  0
 37 36  1  0  0  0  0
 38 40  1  0  0  0  0
 38 39  1  0  0  0  0
 40 41  1  0  0  0  0
M  END
>  <minimizedAffinity>
-5.47071457

$$$$

 OpenBabel03272503433D

 41 44  0  0  1  0  0  0  0  0999 V2000
   32.1380   30.9600   34.0480 C   0  0  2  0  0  0  0  0  0  0  0  0
   32.2650   30.5310   32.6050 C   0  0  1  0  0  0  0  0  0  0  0  0
   31.8220   31.8240   31.9480 C   0  0  0  0  0  0  0  0  0  0  0  0
   30.8540   32.3900   32.7430 O   0  0  0  0  0  0  0  0  0  0  0  0
   30.8080   31.7270   33.9280 C   0  0  0  0  0  0  0  0  0  0  0  0
   32.0620   30.1680   34.7840 H   0  0  0  0  0  0  0  0  0  0  0  0
   31.5760   29.7400   32.3230 H   0  0  0  0  0  0  0  0  0  0  0  0
   31.4380   31.6520   30.9390 H   0  0  0  0  0  0  0  0  0  0  0  0
   32.7100   32.5050   31.9590 H   0  0  0  0  0  0  0  0  0  0  0  0
   30.0270   30.9380   33.8570 H   0  0  0  0  0  0  0  0  0  0  0  0
   30.5940   32.3090   34.8260 H   0  0  0  0  0  0  0  0  0  0  0  0
   35.6030   29.3230   32.0920 C   0  0  0  0  0  0  0  0  0  0  0  0
   35.6340   30.4290   31.3210 C   0  0  0  0  0  0  0  0  0  0  0  0
   34.3580   30.9800   31.4570 C   0  0  0  0  0  0  0  0  0  0  0  0
   33.6290   30.2110   32.2770 N   0  0  0  0  0  0  0  0  0  0  0  0
   34.3840   29.1860   32.6770 N   0  0  0  0  0  0  0  0  0  0  0  0
   36.4900   30.7750   30.7380 H   0  0  0  0  0  0  0  0  0  0  0  0
   34.0530   31.9020   30.9480 H   0  0  0  0  0  0  0  0  0  0  0  0
   37.9190   26.7280   33.5120 C   0  0  0  0  0  0  0  0  0  0  0  0
   36.8590   27.5910   33.3750 C   0  0  0  0  0  0  0  0  0  0  0  0
   36.7060   28.3950   32.2770 C   0  0  0  0  0  0  0  0  0  0  0  0
   37.6740   28.2900   31.3190 N   0  0  0  0  0  0  0  0  0  0  0  0
   38.7210   27.4280   31.4670 C   0  0  0  0  0  0  0  0  0  0  0  0
   38.8450   26.6630   32.5380 N   0  0  0  0  0  0  0  0  0  0  0  0
   36.0610   27.7050   34.1230 H   0  0  0  0  0  0  0  0  0  0  0  0
   39.4770   27.3420   30.7250 H   0  0  0  0  0  0  0  0  0  0  0  0
   37.8960   25.9990   34.6960 O   0  0  0  0  0  0  0  0  0  0  0  0
   38.8610   26.1210   35.7090 C   0  0  0  0  0  0  0  0  0  0  0  0
   39.6770   27.2380   35.5250 F   0  0  0  0  0  0  0  0  0  0  0  0
   39.6020   24.9840   35.7750 F   0  0  0  0  0  0  0  0  0  0  0  0
   38.2030   26.2770   36.9260 F   0  0  0  0  0  0  0  0  0  0  0  0
   33.1530   31.8810   34.3160 O   0  0  0  0  0  0  0  0  0  0  0  0
   35.9760   30.9420   35.6000 O   0  0  0  0  0  0  0  0  0  0  0  0
   34.8580   31.4990   35.8720 C   0  0  0  0  0  0  0  0  0  0  0  0
   33.4610   31.9210   35.6700 C   0  0  1  0  0  3  0  0  0  0  0  0
   33.5280   33.3770   36.1250 C   0  0  0  0  0  3  0  0  0  0  0  0
   32.5570   33.8230   36.3320 H   0  0  0  0  0  0  0  0  0  0  0  0
   34.2460   33.2450   37.4740 C   0  0  0  0  0  3  0  0  0  0  0  0
   33.4720   33.0400   38.2210 H   0  0  0  0  0  0  0  0  0  0  0  0
   35.0780   32.0860   37.1840 N   0  0  0  0  0  0  0  0  0  0  0  0
   35.6570   31.9710   38.0600 H   0  0  0  0  0  0  0  0  0  0  0  0
  1 32  1  0  0  0  0
  1  6  1  1  0  0  0
  2  7  1  6  0  0  0
  2  1  1  0  0  0  0
  3  9  1  0  0  0  0
  3  2  1  0  0  0  0
  3  4  1  0  0  0  0
  4  5  1  0  0  0  0
  5  1  1  0  0  0  0
  5 11  1  0  0  0  0
  8  3  1  0  0  0  0
 10  5  1  0  0  0  0
 12 21  1  0  0  0  0
 12 16  2  0  0  0  0
 13 14  2  0  0  0  0
 13 12  1  0  0  0  0
 14 15  1  0  0  0  0
 15  2  1  0  0  0  0
 15 16  1  0  0  0  0
 17 13  1  0  0  0  0
 18 14  1  0  0  0  0
 19 27  1  0  0  0  0
 20 19  1  0  0  0  0
 20 25  1  0  0  0  0
 21 20  2  0  0  0  0
 22 23  2  0  0  0  0
 22 21  1  0  0  0  0
 23 24  1  0  0  0  0
 24 19  2  0  0  0  0
 26 23  1  0  0  0  0
 27 28  1  0  0  0  0
 28 30  1  0  0  0  0
 28 31  1  0  0  0  0
 29 28  1  0  0  0  0
 33 34  2  0  0  0  0
 34 40  1  0  0  0  0
 35 32  1  6  0  0  0
 35 34  1  0  0  0  0
 35 36  1  0  0  0  0
 36 37  1  0  0  0  0
 36 38  1  0  0  0  0
 38 39  1  0  0  0  0
 40 38  1  0  0  0  0
 40 41  1  0  0  0  0
M  END
>  <minimizedAffinity>
-5.4570117

$$$$
