
     RDKit          3D

 26 27  0  0  0  0  0  0  0  0999 V2000
   37.3844   30.1229   51.1048 C   0  0  0  0  0  0  0  0  0  0  0  0
   38.2174   30.8894   50.2580 C   0  0  0  0  0  0  0  0  0  0  0  0
   37.6893   31.4404   49.0930 C   0  0  0  0  0  0  0  0  0  0  0  0
   36.3644   31.2011   48.8320 N   0  0  0  0  0  0  0  0  0  0  0  0
   35.5819   30.4642   49.6551 C   0  0  0  0  0  0  0  0  0  0  0  0
   36.1077   29.9488   50.7604 N   0  0  0  0  0  0  0  0  0  0  0  0
   33.9132   28.8354   49.2004 C   0  0  0  0  0  0  0  0  0  0  0  0
   34.6889   27.8406   49.3207 O   0  0  0  0  0  0  0  0  0  0  0  0
   34.2122   30.2444   49.3400 N   0  0  0  0  0  0  0  0  0  0  0  0
   38.0714   29.6618   52.2006 O   0  0  0  0  0  0  0  0  0  0  0  0
   39.2685   31.1085   50.4170 H   0  0  0  0  0  0  0  0  0  0  0  0
   38.2864   32.0335   48.4142 H   0  0  0  0  0  0  0  0  0  0  0  0
   32.9353   28.4028   48.9611 H   0  0  0  0  0  0  0  0  0  0  0  0
   33.4204   30.8774   49.1973 H   0  0  0  0  0  0  0  0  0  0  0  0
   35.6632   30.4822   53.6097 O   0  0  0  0  0  0  0  0  0  0  0  0
   36.5345   29.6890   54.0532 C   0  0  0  0  0  0  0  0  0  0  0  0
   37.3936   28.8745   53.1583 C   0  0  2  0  0  0  0  0  0  0  0  0
   38.3683   28.2485   54.1473 C   0  0  1  0  0  0  0  0  0  0  0  0
   38.6738   27.2356   53.8249 H   0  0  0  0  0  0  0  0  0  0  0  0
   37.5808   28.2146   55.4301 C   0  0  1  0  0  0  0  0  0  0  0  0
   36.8796   27.3618   55.4438 H   0  0  0  0  0  0  0  0  0  0  0  0
   36.8179   29.4610   55.4424 N   0  0  0  0  0  0  0  0  0  0  0  0
   36.7607   28.0917   52.6876 H   0  0  0  0  0  0  0  0  0  0  0  0
   39.2311   28.9234   54.2254 H   0  0  0  0  0  0  0  0  0  0  0  0
   38.2950   28.1887   56.2946 H   0  0  0  0  0  0  0  0  0  0  0  0
   36.5560   30.0261   56.2582 H   0  0  0  0  0  0  0  0  0  0  0  0
  1 10  1  0
  2  1  2  0
  3  2  1  0
  4  3  2  0
  4  5  1  0
  5  6  2  0
  6  1  1  0
  7  8  2  0
  7  9  1  0
  9  5  1  0
  2 11  1  0
  3 12  1  0
  7 13  1  0
  9 14  1  0
 15 16  2  0
 16 17  1  0
 17 18  1  0
 18 19  1  6
 18 20  1  0
 20 21  1  6
 20 22  1  0
 22 16  1  0
 17 23  1  6
 18 24  1  0
 20 25  1  0
 22 26  1  0
 10 17  1  0
M  ISO  5  11  14  12  14  13   6  19   8  21   8
M  END
>  <DihAtoms>  (1) 
0,9,16,15

>  <DihDeg>  (1) 
-122.2280998040459

$$$$
