
 OpenBabel03272506363D

 23 24  0  0  1  0  0  0  0  0999 V2000
   37.1090   29.9290   48.8670 C   0  0  0  0  0  0  0  0  0  0  0  0
   37.7570   30.4430   47.7200 C   0  0  0  0  0  0  0  0  0  0  0  0
   37.0090   30.7270   46.5800 C   0  0  0  0  0  0  0  0  0  0  0  0
   35.6610   30.4850   46.6390 N   0  0  0  0  0  0  0  0  0  0  0  0
   35.0580   29.9920   47.7460 C   0  0  0  0  0  0  0  0  0  0  0  0
   35.7910   29.7290   48.8210 N   0  0  0  0  0  0  0  0  0  0  0  0
   33.3440   28.3670   48.0140 C   0  0  0  0  0  0  0  0  0  0  0  0
   34.1360   27.4000   48.2170 O   0  0  0  0  0  0  0  0  0  0  0  0
   33.6550   29.7570   47.7570 N   0  0  0  0  0  0  0  0  0  0  0  0
   38.8180   30.6520   47.6210 H   0  0  0  0  0  0  0  0  0  0  0  0
   37.4600   31.1210   45.6790 H   0  0  0  0  0  0  0  0  0  0  0  0
   32.3420   27.9300   48.0740 H   0  0  0  0  0  0  0  0  0  0  0  0
   32.8450   30.3700   47.6210 H   0  0  0  0  0  0  0  0  0  0  0  0
   37.9980   29.7110   49.8900 O   0  0  0  0  0  0  0  0  0  0  0  0
   36.9910   30.3530   52.5420 O   0  0  0  0  0  0  0  0  0  0  0  0
   37.6790   29.3410   52.2470 C   0  0  0  0  0  0  0  0  0  0  0  0
   37.6850   28.7570   50.8830 C   0  0  2  0  0  3  0  0  0  0  0  0
   38.7800   27.7030   51.0010 C   0  0  0  0  0  3  0  0  0  0  0  0
   38.5610   26.8230   50.3690 H   0  0  0  0  0  0  0  0  0  0  0  0
   38.7680   27.3580   52.4660 C   0  0  0  0  0  3  0  0  0  0  0  0
   37.9460   26.6600   52.7030 H   0  0  0  0  0  0  0  0  0  0  0  0
   38.5320   28.6250   53.1540 N   0  0  0  0  0  0  0  0  0  0  0  0
   38.8960   28.9180   54.0680 H   0  0  0  0  0  0  0  0  0  0  0  0
  1 14  1  0  0  0  0
  2  1  2  0  0  0  0
  3  4  2  0  0  0  0
  3  2  1  0  0  0  0
  4  5  1  0  0  0  0
  5  9  1  0  0  0  0
  5  6  2  0  0  0  0
  6  1  1  0  0  0  0
  7 12  1  0  0  0  0
  7  8  2  0  0  0  0
  9  7  1  0  0  0  0
 10  2  1  0  0  0  0
 11  3  1  0  0  0  0
 13  9  1  0  0  0  0
 16 15  2  0  0  0  0
 16 22  1  0  0  0  0
 17 14  1  6  0  0  0
 17 18  1  0  0  0  0
 17 16  1  0  0  0  0
 18 20  1  0  0  0  0
 19 18  1  0  0  0  0
 20 21  1  0  0  0  0
 20 22  1  0  0  0  0
 22 23  1  0  0  0  0
M  END
>  <minimizedAffinity>
-1.34344864

>  <minimizedRMSD>
2.31106019

$$$$
