REMARK  Name = 
REMARK  4 active torsions:
REMARK  status: ('A' for Active; 'I' for Inactive)
REMARK    1  A    between atoms: C_1  and  C_4
REMARK    2  A    between atoms: C_3  and  C_11
REMARK    3  A    between atoms: C_10  and  O_15
REMARK    4  A    between atoms: O_15  and  C_31
REMARK                            x       y       z     vdW  Elec       q    Type
REMARK                         _______ _______ _______ _____ _____    ______ ____
ROOT
ATOM      1  C   UNL     1      37.290  29.105  50.370  0.00  0.00    +0.000 C 
ATOM      2  C   UNL     1      36.744  29.353  48.995  0.00  0.00    +0.000 C 
ATOM      3  C   UNL     1      35.458  30.070  49.283  0.00  0.00    +0.000 C 
ATOM      4  O   UNL     1      35.528  30.569  50.563  0.00  0.00    +0.000 OA
ATOM      5  C   UNL     1      36.151  29.553  51.282  0.00  0.00    +0.000 C 
ATOM      6  H   UNL     1      37.478  28.038  50.512  0.00  0.00    +0.000 HD
ATOM      7  H   UNL     1      36.600  28.398  48.425  0.00  0.00    +0.000 HD
ATOM      8  H   UNL     1      34.972  30.621  48.515  0.00  0.00    +0.000 HD
ATOM      9  H   UNL     1      34.751  29.199  49.424  0.00  0.00    +0.000 HD
ATOM     10  H   UNL     1      36.531  29.910  52.266  0.00  0.00    +0.000 HD
ATOM     11  H   UNL     1      35.485  28.671  51.430  0.00  0.00    +0.000 HD
ENDROOT
BRANCH   2  14
ATOM     12  C   UNL     1      37.199  31.625  47.844  0.00  0.00    +0.000 C 
ATOM     13  C   UNL     1      37.099  30.618  46.815  0.00  0.00    +0.000 C 
ATOM     14  C   UNL     1      37.643  30.209  48.168  0.00  0.00    +0.000 C 
ATOM     15  H   UNL     1      36.365  32.062  48.420  0.00  0.00    +0.000 HD
ATOM     16  H   UNL     1      37.760  30.677  45.938  0.00  0.00    +0.000 HD
ATOM     17  H   UNL     1      36.064  30.273  46.537  0.00  0.00    +0.000 HD
ATOM     18  H   UNL     1      38.697  29.940  48.164  0.00  0.00    +0.000 HD
BRANCH  12  19
ATOM     19  C   UNL     1      38.354  32.601  47.879  0.00  0.00    +0.000 A 
ATOM     20  C   UNL     1      38.496  33.357  49.054  0.00  0.00    +0.000 A 
ATOM     21  C   UNL     1      39.546  34.259  49.042  0.00  0.00    +0.000 A 
ATOM     22  N   UNL     1      40.359  34.379  47.958  0.00  0.00    +0.000 NA
ATOM     23  C   UNL     1      40.192  33.629  46.835  0.00  0.00    +0.000 A 
ATOM     24  N   UNL     1      39.180  32.741  46.811  0.00  0.00    +0.000 NA
ATOM     25  H   UNL     1      37.810  33.196  49.857  0.00  0.00    +0.000 HD
ATOM     26  H   UNL     1      39.694  34.866  49.930  0.00  0.00    +0.000 HD
ATOM     27  H   UNL     1      40.861  33.761  46.004  0.00  0.00    +0.000 HD
ENDBRANCH  12  19
ENDBRANCH   2  14
BRANCH   1  28
ATOM     28  O   UNL     1      38.388  29.927  50.635  0.00  0.00    +0.000 OA
BRANCH  28  31
ATOM     29  O   UNL     1      39.221  29.717  53.684  0.00  0.00    +0.000 OA
ATOM     30  C   UNL     1      39.561  29.268  52.535  0.00  0.00    +0.000 C 
ATOM     31  C   UNL     1      39.491  29.249  51.056  0.00  0.00    +0.000 C 
ATOM     32  C   UNL     1      39.348  27.729  50.839  0.00  0.00    +0.000 C 
ATOM     33  H   UNL     1      39.371  27.454  49.784  0.00  0.00    +0.000 HD
ATOM     34  C   UNL     1      40.569  27.262  51.626  0.00  0.00    +0.000 C 
ATOM     35  H   UNL     1      41.516  27.463  51.079  0.00  0.00    +0.000 HD
ATOM     36  N   UNL     1      40.531  28.215  52.747  0.00  0.00    +0.000 N 
ATOM     37  H   UNL     1      41.239  27.923  53.491  0.00  0.00    +0.000 HD
ENDBRANCH  28  31
ENDBRANCH   1  28
TORSDOF 4
