
 OpenBabel03272504563D

 33 35  0  0  1  0  0  0  0  0999 V2000
   37.1220   31.5460   48.7090 C   0  0  1  0  0  0  0  0  0  0  0  0
   36.1730   30.8240   47.8930 C   0  0  0  0  0  0  0  0  0  0  0  0
   37.2200   30.0900   48.6620 C   0  0  2  0  0  0  0  0  0  0  0  0
   36.8590   31.9550   49.7450 H   0  0  0  0  0  0  0  0  0  0  0  0
   35.1930   31.1610   48.1610 H   0  0  0  0  0  0  0  0  0  0  0  0
   36.3340   30.8680   46.7950 H   0  0  0  0  0  0  0  0  0  0  0  0
   37.8190   29.4790   48.0200 H   0  0  0  0  0  0  0  0  0  0  0  0
   38.2390   32.3280   48.0810 C   0  0  0  0  0  0  0  0  0  0  0  0
   38.7790   33.3740   48.8660 C   0  0  0  0  0  0  0  0  0  0  0  0
   39.8000   34.0670   48.2620 C   0  0  0  0  0  0  0  0  0  0  0  0
   40.2200   33.7300   46.9990 N   0  0  0  0  0  0  0  0  0  0  0  0
   39.6720   32.7240   46.2930 C   0  0  0  0  0  0  0  0  0  0  0  0
   38.6500   32.0090   46.8640 N   0  0  0  0  0  0  0  0  0  0  0  0
   40.0970   32.3740   45.0050 N   0  0  0  0  0  0  0  0  0  0  0  0
   38.4480   33.6360   49.8550 H   0  0  0  0  0  0  0  0  0  0  0  0
   40.2810   34.8870   48.7760 H   0  0  0  0  0  0  0  0  0  0  0  0
   39.7650   31.5270   44.5330 H   0  0  0  0  0  0  0  0  0  0  0  0
   40.7720   32.9750   44.4850 H   0  0  0  0  0  0  0  0  0  0  0  0
   36.7650   29.4190   49.8060 O   0  0  0  0  0  0  0  0  0  0  0  0
   34.6500   28.5680   51.0090 O   0  0  0  0  0  0  0  0  0  0  0  0
   35.1190   29.1680   49.7230 P   0  0  1  0  0  0  0  0  0  0  0  0
   34.3170   30.7010   49.6210 O   0  0  0  0  0  0  0  0  0  0  0  0
   34.5090   31.1120   50.5010 H   0  0  0  0  0  0  0  0  0  0  0  0
   34.7680   28.2420   48.3690 O   0  0  0  0  0  0  0  0  0  0  0  0
   34.4370   25.9770   46.4410 O   0  0  0  0  0  0  0  0  0  0  0  0
   33.6720   26.5280   47.2740 C   0  0  0  0  0  0  0  0  0  0  0  0
   33.8040   27.2880   48.5450 C   0  0  2  0  0  3  0  0  0  0  0  0
   32.4520   27.9840   48.6550 C   0  0  0  0  0  3  0  0  0  0  0  0
   32.4080   28.9140   48.0750 H   0  0  0  0  0  0  0  0  0  0  0  0
   31.5240   26.9020   48.1150 C   0  0  0  0  0  3  0  0  0  0  0  0
   30.5550   27.3400   47.8650 H   0  0  0  0  0  0  0  0  0  0  0  0
   32.2800   26.4330   46.9700 N   0  0  0  0  0  0  0  0  0  0  0  0
   31.7400   26.1060   46.1210 H   0  0  0  0  0  0  0  0  0  0  0  0
  1  4  1  1  0  0  0
  2  5  1  0  0  0  0
  2  3  1  0  0  0  0
  2  1  1  0  0  0  0
  3  7  1  6  0  0  0
  3  1  1  0  0  0  0
  3 19  1  0  0  0  0
  6  2  1  0  0  0  0
  8  1  1  0  0  0  0
  8  9  1  0  0  0  0
  9 15  1  0  0  0  0
 10 16  1  0  0  0  0
 10  9  2  0  0  0  0
 11 10  1  0  0  0  0
 12 13  1  0  0  0  0
 12 11  2  0  0  0  0
 13  8  2  0  0  0  0
 14 12  1  0  0  0  0
 17 14  1  0  0  0  0
 18 14  1  0  0  0  0
 21 19  1  0  0  0  0
 21 20  2  1  0  0  0
 22 21  1  0  0  0  0
 22 23  1  0  0  0  0
 24 21  1  0  0  0  0
 25 26  2  0  0  0  0
 26 27  1  0  0  0  0
 27 24  1  6  0  0  0
 27 28  1  0  0  0  0
 29 28  1  0  0  0  0
 30 28  1  0  0  0  0
 31 30  1  0  0  0  0
 32 26  1  0  0  0  0
 32 30  1  0  0  0  0
 33 32  1  0  0  0  0
M  END
>  <minimizedAffinity>
-4.65408611

>  <minimizedRMSD>
1.47182083

$$$$
