
     RDKit          3D

 40 43  0  0  0  0  0  0  0  0999 V2000
   37.1993   31.6250   47.8436 C   0  0  1  0  0  0  0  0  0  0  0  0
   37.0995   30.6179   46.8152 C   0  0  0  0  0  0  0  0  0  0  0  0
   37.6434   30.2095   48.1681 C   0  0  2  0  0  0  0  0  0  0  0  0
   38.3542   32.6009   47.8786 C   0  0  0  0  0  0  0  0  0  0  0  0
   38.4961   33.3571   49.0538 C   0  0  0  0  0  0  0  0  0  0  0  0
   39.5458   34.2594   49.0425 C   0  0  0  0  0  0  0  0  0  0  0  0
   40.3589   34.3792   47.9581 N   0  0  0  0  0  0  0  0  0  0  0  0
   40.1918   33.6293   46.8349 C   0  0  0  0  0  0  0  0  0  0  0  0
   39.1804   32.7406   46.8113 N   0  0  0  0  0  0  0  0  0  0  0  0
   37.2903   29.1049   50.3704 C   0  0  2  0  0  0  0  0  0  0  0  0
   36.7436   29.3532   48.9953 C   0  0  1  0  0  0  0  0  0  0  0  0
   35.4575   30.0701   49.2829 C   0  0  0  0  0  0  0  0  0  0  0  0
   35.5278   30.5687   50.5629 O   0  0  0  0  0  0  0  0  0  0  0  0
   36.1509   29.5535   51.2817 C   0  0  0  0  0  0  0  0  0  0  0  0
   38.3876   29.9269   50.6348 O   0  0  0  0  0  0  0  0  0  0  0  0
   36.3646   32.0624   48.4196 H   0  0  0  0  0  0  0  0  0  0  0  0
   37.7597   30.6770   45.9376 H   0  0  0  0  0  0  0  0  0  0  0  0
   36.0637   30.2733   46.5369 H   0  0  0  0  0  0  0  0  0  0  0  0
   38.6969   29.9404   48.1639 H   0  0  0  0  0  0  0  0  0  0  0  0
   37.8099   33.1961   49.8568 H   0  0  0  0  0  0  0  0  0  0  0  0
   39.6942   34.8659   49.9303 H   0  0  0  0  0  0  0  0  0  0  0  0
   40.8614   33.7612   46.0037 H   0  0  0  0  0  0  0  0  0  0  0  0
   37.4776   28.0382   50.5120 H   0  0  0  0  0  0  0  0  0  0  0  0
   36.6000   28.3984   48.4251 H   0  0  0  0  0  0  0  0  0  0  0  0
   34.9725   30.6212   48.5154 H   0  0  0  0  0  0  0  0  0  0  0  0
   34.7513   29.1992   49.4244 H   0  0  0  0  0  0  0  0  0  0  0  0
   36.5305   29.9101   52.2662 H   0  0  0  0  0  0  0  0  0  0  0  0
   35.4854   28.6707   51.4303 H   0  0  0  0  0  0  0  0  0  0  0  0
   38.5697   28.5234   53.4696 O   0  0  0  0  0  0  0  0  0  0  0  0
   39.2352   28.6432   52.3831 C   0  0  0  0  0  0  0  0  0  0  0  0
   39.4908   29.2486   51.0556 C   0  0  1  0  0  0  0  0  0  0  0  0
   39.7178   27.9597   50.2409 C   0  0  2  0  0  0  0  0  0  0  0  0
   40.0252   28.1646   49.2144 H   0  0  0  0  0  0  0  0  0  0  0  0
   40.8105   27.3278   51.0980 C   0  0  2  0  0  0  0  0  0  0  0  0
   41.7900   27.8367   50.9624 H   0  0  0  0  0  0  0  0  0  0  0  0
   40.3346   27.7033   52.4386 N   0  0  0  0  0  0  0  0  0  0  0  0
   40.4262   29.8273   51.0425 H   0  0  0  0  0  0  0  0  0  0  0  0
   38.8309   27.3160   50.3569 H   0  0  0  0  0  0  0  0  0  0  0  0
   40.8505   26.2315   50.9527 H   0  0  0  0  0  0  0  0  0  0  0  0
   40.9103   27.1953   53.1804 H   0  0  0  0  0  0  0  0  0  0  0  0
  1  4  1  0
  1  3  1  0
  2  1  1  0
  2  3  1  0
  3 11  1  0
  4  5  2  0
  6  5  1  0
  7  6  2  0
  8  7  1  0
  9  8  2  0
  9  4  1  0
 10 15  1  0
 10 14  1  0
 11 12  1  0
 11 10  1  0
 12 13  1  0
 13 14  1  0
  1 16  1  1
  2 17  1  0
  2 18  1  0
  3 19  1  6
  5 20  1  0
  6 21  1  0
  8 22  1  0
 10 23  1  6
 11 24  1  6
 12 25  1  0
 12 26  1  0
 14 27  1  0
 14 28  1  0
 29 30  2  0
 30 31  1  0
 31 32  1  0
 32 33  1  6
 32 34  1  0
 34 35  1  6
 34 36  1  0
 36 30  1  0
 31 37  1  1
 32 38  1  0
 34 39  1  0
 36 40  1  0
 15 31  1  0
M  ISO  8  16  13  17  13  18  13  19  13  20  14  21  14  22  14  23  13
M  ISO  7  24  13  25  13  26  13  27  13  28  13  33   8  35   8
M  END
>  <DihAtoms>  (1) 
9,14,30,29

>  <DihDeg>  (1) 
128.51544383502213

$$$$
