REMARK  Name = 
REMARK  6 active torsions:
REMARK  status: ('A' for Active; 'I' for Inactive)
REMARK    1  A    between atoms: C_1  and  C_4
REMARK    2  A    between atoms: C_3  and  O_11
REMARK    3  A    between atoms: O_11  and  P_13
REMARK    4  A    between atoms: P_13  and  O_14
REMARK    5  A    between atoms: P_13  and  O_15
REMARK    6  A    between atoms: O_15  and  C_27
REMARK                            x       y       z     vdW  Elec       q    Type
REMARK                         _______ _______ _______ _____ _____    ______ ____
ROOT
ATOM      1  C   UNL     1      36.993  31.562  48.669  0.00  0.00    +0.000 C 
ATOM      2  C   UNL     1      36.238  30.900  47.631  0.00  0.00    +0.000 C 
ATOM      3  C   UNL     1      37.183  30.126  48.488  0.00  0.00    +0.000 C 
ATOM      4  H   UNL     1      36.537  31.840  49.682  0.00  0.00    +0.000 HD
ATOM      5  H   UNL     1      35.209  31.164  47.760  0.00  0.00    +0.000 HD
ATOM      6  H   UNL     1      36.577  31.074  46.588  0.00  0.00    +0.000 HD
ATOM      7  H   UNL     1      37.916  29.616  47.898  0.00  0.00    +0.000 HD
ENDROOT
BRANCH   1   8
ATOM      8  C   UNL     1      38.151  32.455  48.329  0.00  0.00    +0.000 A 
ATOM      9  C   UNL     1      38.546  33.366  49.336  0.00  0.00    +0.000 A 
ATOM     10  C   UNL     1      39.609  34.166  48.992  0.00  0.00    +0.000 A 
ATOM     11  N   UNL     1      40.200  34.047  47.758  0.00  0.00    +0.000 NA
ATOM     12  C   UNL     1      39.785  33.162  46.834  0.00  0.00    +0.000 A 
ATOM     13  N   UNL     1      38.726  32.346  47.142  0.00  0.00    +0.000 NA
ATOM     14  N   UNL     1      40.385  33.035  45.574  0.00  0.00    +0.000 N 
ATOM     15  H   UNL     1      38.081  33.457  50.302  0.00  0.00    +0.000 HD
ATOM     16  H   UNL     1      39.989  34.898  49.691  0.00  0.00    +0.000 HD
ATOM     17  H   UNL     1      40.148  32.272  44.932  0.00  0.00    +0.000 HD
ATOM     18  H   UNL     1      41.098  33.724  45.252  0.00  0.00    +0.000 HD
ENDBRANCH   1   8
BRANCH   3  19
ATOM     19  O   UNL     1      36.584  29.312  49.459  0.00  0.00    +0.000 OA
BRANCH  19  21
ATOM     20  O   UNL     1      34.606  27.676  49.694  0.00  0.00    +0.000 OA
ATOM     21  P   UNL     1      35.011  28.956  49.037  0.00  0.00    +0.000 P 
BRANCH  21  22
ATOM     22  O   UNL     1      33.959  30.160  49.707  0.00  0.00    +0.000 OA
ATOM     23  H   UNL     1      34.044  30.013  50.682  0.00  0.00    +0.000 HD
ENDBRANCH  21  22
BRANCH  21  24
ATOM     24  O   UNL     1      34.877  28.938  47.365  0.00  0.00    +0.000 OA
BRANCH  24  27
ATOM     25  O   UNL     1      35.665  28.634  44.494  0.00  0.00    +0.000 OA
ATOM     26  C   UNL     1      35.048  27.900  45.309  0.00  0.00    +0.000 C 
ATOM     27  C   UNL     1      34.992  27.706  46.781  0.00  0.00    +0.000 C 
ATOM     28  C   UNL     1      33.674  26.961  46.967  0.00  0.00    +0.000 C 
ATOM     29  H   UNL     1      32.810  27.635  46.996  0.00  0.00    +0.000 HD
ATOM     30  C   UNL     1      33.679  26.056  45.741  0.00  0.00    +0.000 C 
ATOM     31  H   UNL     1      32.675  25.659  45.574  0.00  0.00    +0.000 HD
ATOM     32  N   UNL     1      34.134  26.975  44.716  0.00  0.00    +0.000 N 
ATOM     33  H   UNL     1      33.757  26.849  43.736  0.00  0.00    +0.000 HD
ENDBRANCH  24  27
ENDBRANCH  21  24
ENDBRANCH  19  21
ENDBRANCH   3  19
TORSDOF 6
