
 OpenBabel03272506423D

 32 34  0  0  1  0  0  0  0  0999 V2000
   32.3840   28.3660   47.4860 C   0  0  2  0  0  0  0  0  0  0  0  0
   33.6240   28.4140   48.3550 C   0  0  1  0  0  0  0  0  0  0  0  0
   34.1780   27.1560   48.3470 O   0  0  0  0  0  0  0  0  0  0  0  0
   33.5230   26.3730   47.4250 C   0  0  0  0  0  0  0  0  0  0  0  0
   32.8410   27.3350   46.4600 C   0  0  1  0  0  0  0  0  0  0  0  0
   31.4910   27.9730   48.0150 H   0  0  0  0  0  0  0  0  0  0  0  0
   33.4400   28.8020   49.3640 H   0  0  0  0  0  0  0  0  0  0  0  0
   32.7820   25.6680   47.8810 H   0  0  0  0  0  0  0  0  0  0  0  0
   34.2620   25.7270   46.8880 H   0  0  0  0  0  0  0  0  0  0  0  0
   33.5900   27.7640   45.7850 H   0  0  0  0  0  0  0  0  0  0  0  0
   32.1510   29.6100   46.8950 O   0  0  0  0  0  0  0  0  0  0  0  0
   32.9510   29.8140   46.3750 H   0  0  0  0  0  0  0  0  0  0  0  0
   34.8100   29.5310   47.5130 S   0  0  0  0  0  0  0  0  0  0  0  0
   37.3730   29.4650   50.5480 C   0  0  0  0  0  0  0  0  0  0  0  0
   37.9750   30.7360   50.5180 C   0  0  0  0  0  0  0  0  0  0  0  0
   37.5750   31.6320   49.5320 C   0  0  0  0  0  0  0  0  0  0  0  0
   36.6300   31.2500   48.6470 N   0  0  0  0  0  0  0  0  0  0  0  0
   36.0610   30.0190   48.6940 C   0  0  0  0  0  0  0  0  0  0  0  0
   36.4280   29.1360   49.6340 N   0  0  0  0  0  0  0  0  0  0  0  0
   37.6050   28.6960   51.2650 H   0  0  0  0  0  0  0  0  0  0  0  0
   38.7270   30.9380   51.2800 H   0  0  0  0  0  0  0  0  0  0  0  0
   38.0450   32.6070   49.5180 H   0  0  0  0  0  0  0  0  0  0  0  0
   31.7760   26.7200   45.8230 O   0  0  0  0  0  0  0  0  0  0  0  0
   32.4550   24.2280   44.2440 O   0  0  0  0  0  0  0  0  0  0  0  0
   31.8920   25.3350   43.9440 C   0  0  0  0  0  0  0  0  0  0  0  0
   31.8890   26.7360   44.4390 C   0  0  1  0  0  3  0  0  0  0  0  0
   30.6600   27.3000   43.7540 C   0  0  0  0  0  3  0  0  0  0  0  0
   29.7530   26.9070   44.2230 H   0  0  0  0  0  0  0  0  0  0  0  0
   30.7630   26.6400   42.3860 C   0  0  0  0  0  3  0  0  0  0  0  0
   29.8770   26.7570   41.7650 H   0  0  0  0  0  0  0  0  0  0  0  0
   30.9990   25.2530   42.8120 N   0  0  0  0  0  0  0  0  0  0  0  0
   30.5340   24.4540   42.2880 H   0  0  0  0  0  0  0  0  0  0  0  0
  1  6  1  1  0  0  0
  1  2  1  0  0  0  0
  2  7  1  1  0  0  0
  3  2  1  0  0  0  0
  4  8  1  0  0  0  0
  4  3  1  0  0  0  0
  5 10  1  6  0  0  0
  5  4  1  0  0  0  0
  5  1  1  0  0  0  0
  9  4  1  0  0  0  0
 11  1  1  0  0  0  0
 12 11  1  0  0  0  0
 13  2  1  0  0  0  0
 13 18  1  0  0  0  0
 14 20  1  0  0  0  0
 15 14  1  0  0  0  0
 15 21  1  0  0  0  0
 16 15  2  0  0  0  0
 17 18  2  0  0  0  0
 17 16  1  0  0  0  0
 18 19  1  0  0  0  0
 19 14  2  0  0  0  0
 22 16  1  0  0  0  0
 23  5  1  0  0  0  0
 25 24  2  0  0  0  0
 25 26  1  0  0  0  0
 26 23  1  1  0  0  0
 27 28  1  0  0  0  0
 27 26  1  0  0  0  0
 29 31  1  0  0  0  0
 29 27  1  0  0  0  0
 30 29  1  0  0  0  0
 31 25  1  0  0  0  0
 32 31  1  0  0  0  0
M  END
>  <minimizedAffinity>
-3.72872686

>  <minimizedRMSD>
0.0345592387

$$$$
