
 OpenBabel03272506433D

 32 34  0  0  1  0  0  0  0  0999 V2000
   32.3510   28.2990   47.5580 C   0  0  2  0  0  0  0  0  0  0  0  0
   33.5990   28.2930   48.4150 C   0  0  1  0  0  0  0  0  0  0  0  0
   34.1660   27.0460   48.3050 O   0  0  0  0  0  0  0  0  0  0  0  0
   33.5080   26.3280   47.3330 C   0  0  0  0  0  0  0  0  0  0  0  0
   32.8060   27.3550   46.4520 C   0  0  1  0  0  0  0  0  0  0  0  0
   31.4670   27.8570   48.0640 H   0  0  0  0  0  0  0  0  0  0  0  0
   33.4220   28.6010   49.4530 H   0  0  0  0  0  0  0  0  0  0  0  0
   32.7790   25.5830   47.7410 H   0  0  0  0  0  0  0  0  0  0  0  0
   34.2470   25.7330   46.7400 H   0  0  0  0  0  0  0  0  0  0  0  0
   33.5440   27.8420   45.8040 H   0  0  0  0  0  0  0  0  0  0  0  0
   32.0990   29.5820   47.0660 O   0  0  0  0  0  0  0  0  0  0  0  0
   32.8910   29.8340   46.5550 H   0  0  0  0  0  0  0  0  0  0  0  0
   34.7650   29.4840   47.6490 S   0  0  0  0  0  0  0  0  0  0  0  0
   37.3520   29.3180   50.6600 C   0  0  0  0  0  0  0  0  0  0  0  0
   37.8450   30.6320   50.7620 C   0  0  0  0  0  0  0  0  0  0  0  0
   37.3620   31.5890   49.8760 C   0  0  0  0  0  0  0  0  0  0  0  0
   36.4440   31.2230   48.9560 N   0  0  0  0  0  0  0  0  0  0  0  0
   35.9820   29.9500   48.8740 C   0  0  0  0  0  0  0  0  0  0  0  0
   36.4300   29.0080   49.7160 N   0  0  0  0  0  0  0  0  0  0  0  0
   37.6540   28.5010   51.2920 H   0  0  0  0  0  0  0  0  0  0  0  0
   38.5840   30.8170   51.5410 H   0  0  0  0  0  0  0  0  0  0  0  0
   37.7480   32.5960   49.9630 H   0  0  0  0  0  0  0  0  0  0  0  0
   31.7400   26.7780   45.7800 O   0  0  0  0  0  0  0  0  0  0  0  0
   29.4930   28.4390   44.6130 O   0  0  0  0  0  0  0  0  0  0  0  0
   30.6910   28.1900   44.2410 C   0  0  0  0  0  0  0  0  0  0  0  0
   31.7010   27.1160   44.4340 C   0  0  1  0  0  3  0  0  0  0  0  0
   32.9670   27.8030   43.9620 C   0  0  0  0  0  3  0  0  0  0  0  0
   33.2960   28.5390   44.7010 H   0  0  0  0  0  0  0  0  0  0  0  0
   32.4440   28.5890   42.7680 C   0  0  0  0  0  3  0  0  0  0  0  0
   33.1520   29.3120   42.3650 H   0  0  0  0  0  0  0  0  0  0  0  0
   31.2650   29.2070   43.3930 N   0  0  0  0  0  0  0  0  0  0  0  0
   31.0170   30.2140   43.1640 H   0  0  0  0  0  0  0  0  0  0  0  0
  1  6  1  1  0  0  0
  1  2  1  0  0  0  0
  2  7  1  1  0  0  0
  3  2  1  0  0  0  0
  4  8  1  0  0  0  0
  4  3  1  0  0  0  0
  5 10  1  6  0  0  0
  5  4  1  0  0  0  0
  5  1  1  0  0  0  0
  9  4  1  0  0  0  0
 11  1  1  0  0  0  0
 12 11  1  0  0  0  0
 13  2  1  0  0  0  0
 13 18  1  0  0  0  0
 14 15  1  0  0  0  0
 14 20  1  0  0  0  0
 15 21  1  0  0  0  0
 16 22  1  0  0  0  0
 16 15  2  0  0  0  0
 17 16  1  0  0  0  0
 18 17  2  0  0  0  0
 18 19  1  0  0  0  0
 19 14  2  0  0  0  0
 23  5  1  0  0  0  0
 25 26  1  0  0  0  0
 25 24  2  0  0  0  0
 26 23  1  1  0  0  0
 27 26  1  0  0  0  0
 27 28  1  0  0  0  0
 29 31  1  0  0  0  0
 29 27  1  0  0  0  0
 30 29  1  0  0  0  0
 31 25  1  0  0  0  0
 32 31  1  0  0  0  0
M  END
>  <minimizedAffinity>
-3.82523942

>  <minimizedRMSD>
0.515646935

$$$$
