
 OpenBabel03272504243D

 39 41  0  0  1  0  0  0  0  0999 V2000
   38.1550   25.4290   35.1460 C   0  0  2  0  0  0  0  0  0  0  0  0
   37.4640   25.7420   33.8500 C   0  0  1  0  0  0  0  0  0  0  0  0
   38.0750   27.1320   33.6160 C   0  0  0  0  0  0  0  0  0  0  0  0
   39.4110   26.8910   33.8170 O   0  0  0  0  0  0  0  0  0  0  0  0
   39.5550   26.0110   34.8570 C   0  0  0  0  0  0  0  0  0  0  0  0
   37.6980   25.9450   35.9950 H   0  0  0  0  0  0  0  0  0  0  0  0
   36.3770   25.7530   33.8990 H   0  0  0  0  0  0  0  0  0  0  0  0
   37.6210   27.8620   34.3110 H   0  0  0  0  0  0  0  0  0  0  0  0
   37.9220   27.4410   32.5590 H   0  0  0  0  0  0  0  0  0  0  0  0
   39.9180   26.4730   35.7840 H   0  0  0  0  0  0  0  0  0  0  0  0
   40.2100   25.1700   34.4960 H   0  0  0  0  0  0  0  0  0  0  0  0
   37.9960   24.8710   32.9000 O   0  0  0  0  0  0  0  0  0  0  0  0
   35.7510   25.4110   31.7180 O   0  0  0  0  0  0  0  0  0  0  0  0
   37.1150   24.8480   31.4700 P   0  0  1  0  0  0  0  0  0  0  0  0
   37.8990   25.8350   30.3050 O   0  0  0  0  0  0  0  0  0  0  0  0
   38.8680   25.6820   30.3870 H   0  0  0  0  0  0  0  0  0  0  0  0
   36.9920   23.2700   30.8700 O   0  0  0  0  0  0  0  0  0  0  0  0
   35.7560   22.7740   31.2630 C   0  0  0  0  0  0  0  0  0  0  0  0
   35.3130   23.3440   32.0910 H   0  0  0  0  0  0  0  0  0  0  0  0
   35.0870   22.9060   30.3690 H   0  0  0  0  0  0  0  0  0  0  0  0
   35.7940   21.3270   31.5710 C   0  0  0  0  0  0  0  0  0  0  0  0
   35.4060   20.9460   32.8350 C   0  0  0  0  0  0  0  0  0  0  0  0
   35.4210   19.5930   33.1790 C   0  0  0  0  0  0  0  0  0  0  0  0
   35.8300   18.7150   32.2200 N   0  0  0  0  0  0  0  0  0  0  0  0
   36.2070   19.1060   30.9890 C   0  0  0  0  0  0  0  0  0  0  0  0
   36.1890   20.4120   30.6620 N   0  0  0  0  0  0  0  0  0  0  0  0
   35.0730   21.5620   33.6420 H   0  0  0  0  0  0  0  0  0  0  0  0
   35.1310   19.2140   34.1510 H   0  0  0  0  0  0  0  0  0  0  0  0
   36.5180   18.3580   30.2790 H   0  0  0  0  0  0  0  0  0  0  0  0
   38.1980   24.0440   35.3130 O   0  0  0  0  0  0  0  0  0  0  0  0
   37.6330   23.2930   38.4280 O   0  0  0  0  0  0  0  0  0  0  0  0
   38.5820   23.3000   37.5710 C   0  0  0  0  0  0  0  0  0  0  0  0
   39.1430   23.6580   36.2430 C   0  0  1  0  0  3  0  0  0  0  0  0
   39.7670   22.3060   35.8690 C   0  0  0  0  0  3  0  0  0  0  0  0
   38.9640   21.5540   35.8160 H   0  0  0  0  0  0  0  0  0  0  0  0
   40.6130   22.0780   37.1180 C   0  0  0  0  0  3  0  0  0  0  0  0
   40.8390   21.0060   37.2630 H   0  0  0  0  0  0  0  0  0  0  0  0
   39.7160   22.6130   38.1490 N   0  0  0  0  0  0  0  0  0  0  0  0
   40.0880   22.3830   39.1210 H   0  0  0  0  0  0  0  0  0  0  0  0
  1 30  1  0  0  0  0
  1  6  1  1  0  0  0
  2  7  1  1  0  0  0
  2  1  1  0  0  0  0
  3  4  1  0  0  0  0
  3  2  1  0  0  0  0
  3  8  1  0  0  0  0
  4  5  1  0  0  0  0
  5  1  1  0  0  0  0
  5 10  1  0  0  0  0
  9  3  1  0  0  0  0
 11  5  1  0  0  0  0
 12  2  1  0  0  0  0
 14 13  2  1  0  0  0
 14 12  1  0  0  0  0
 15 16  1  0  0  0  0
 15 14  1  0  0  0  0
 17 18  1  0  0  0  0
 17 14  1  0  0  0  0
 18 21  1  0  0  0  0
 18 19  1  0  0  0  0
 20 18  1  0  0  0  0
 21 22  1  0  0  0  0
 22 23  2  0  0  0  0
 22 27  1  0  0  0  0
 23 28  1  0  0  0  0
 24 23  1  0  0  0  0
 25 24  2  0  0  0  0
 26 25  1  0  0  0  0
 26 21  2  0  0  0  0
 29 25  1  0  0  0  0
 32 38  1  0  0  0  0
 32 31  2  0  0  0  0
 33 30  1  6  0  0  0
 33 32  1  0  0  0  0
 34 33  1  0  0  0  0
 34 36  1  0  0  0  0
 35 34  1  0  0  0  0
 36 37  1  0  0  0  0
 36 38  1  0  0  0  0
 38 39  1  0  0  0  0
M  END
>  <minimizedAffinity>
-5.42706871

$$$$

 OpenBabel03272504243D

 39 41  0  0  1  0  0  0  0  0999 V2000
   41.5310   24.9630   34.7310 C   0  0  2  0  0  0  0  0  0  0  0  0
   40.7390   26.2310   34.8650 C   0  0  1  0  0  0  0  0  0  0  0  0
   41.6230   27.1250   33.9810 C   0  0  0  0  0  0  0  0  0  0  0  0
   41.7800   26.3480   32.8610 O   0  0  0  0  0  0  0  0  0  0  0  0
   41.9240   25.0400   33.2410 C   0  0  0  0  0  0  0  0  0  0  0  0
   42.4270   24.9650   35.3590 H   0  0  0  0  0  0  0  0  0  0  0  0
   40.6330   26.6030   35.8810 H   0  0  0  0  0  0  0  0  0  0  0  0
   42.5590   27.3710   34.5160 H   0  0  0  0  0  0  0  0  0  0  0  0
   41.0710   28.0490   33.7020 H   0  0  0  0  0  0  0  0  0  0  0  0
   42.9490   24.6590   33.1490 H   0  0  0  0  0  0  0  0  0  0  0  0
   41.1750   24.4380   32.6550 H   0  0  0  0  0  0  0  0  0  0  0  0
   39.5360   26.0160   34.1930 O   0  0  0  0  0  0  0  0  0  0  0  0
   37.4820   25.5860   35.7170 O   0  0  0  0  0  0  0  0  0  0  0  0
   38.2140   26.6730   34.9950 P   0  0  1  0  0  0  0  0  0  0  0  0
   38.7650   27.8100   36.1570 O   0  0  0  0  0  0  0  0  0  0  0  0
   39.5030   28.3190   35.7510 H   0  0  0  0  0  0  0  0  0  0  0  0
   37.1790   27.4480   33.9050 O   0  0  0  0  0  0  0  0  0  0  0  0
   37.5960   27.1050   32.6250 C   0  0  0  0  0  0  0  0  0  0  0  0
   37.7020   27.9770   31.9650 H   0  0  0  0  0  0  0  0  0  0  0  0
   38.6190   26.6570   32.7570 H   0  0  0  0  0  0  0  0  0  0  0  0
   36.7400   26.0680   32.0050 C   0  0  0  0  0  0  0  0  0  0  0  0
   37.1910   24.7690   32.0630 C   0  0  0  0  0  0  0  0  0  0  0  0
   36.4240   23.7500   31.4950 C   0  0  0  0  0  0  0  0  0  0  0  0
   35.2510   24.1150   30.9060 N   0  0  0  0  0  0  0  0  0  0  0  0
   34.8250   25.3910   30.8590 C   0  0  0  0  0  0  0  0  0  0  0  0
   35.5700   26.3690   31.4090 N   0  0  0  0  0  0  0  0  0  0  0  0
   38.0920   24.3970   32.5020 H   0  0  0  0  0  0  0  0  0  0  0  0
   36.7090   22.7060   31.4990 H   0  0  0  0  0  0  0  0  0  0  0  0
   33.8860   25.6080   30.3780 H   0  0  0  0  0  0  0  0  0  0  0  0
   40.6930   23.8770   34.9880 O   0  0  0  0  0  0  0  0  0  0  0  0
   38.5890   22.8660   37.2550 O   0  0  0  0  0  0  0  0  0  0  0  0
   39.8360   22.8210   36.9760 C   0  0  0  0  0  0  0  0  0  0  0  0
   41.0120   23.2380   36.1700 C   0  0  1  0  0  3  0  0  0  0  0  0
   41.6280   21.8560   35.9040 C   0  0  0  0  0  3  0  0  0  0  0  0
   40.9010   21.2550   35.3360 H   0  0  0  0  0  0  0  0  0  0  0  0
   41.7150   21.3510   37.3400 C   0  0  0  0  0  3  0  0  0  0  0  0
   41.7510   20.2470   37.3790 H   0  0  0  0  0  0  0  0  0  0  0  0
   40.4700   21.8980   37.8920 N   0  0  0  0  0  0  0  0  0  0  0  0
   40.2870   21.4990   38.8630 H   0  0  0  0  0  0  0  0  0  0  0  0
  1  2  1  0  0  0  0
  1 30  1  0  0  0  0
  1  6  1  1  0  0  0
  2  7  1  1  0  0  0
  3  8  1  0  0  0  0
  3  2  1  0  0  0  0
  4  5  1  0  0  0  0
  4  3  1  0  0  0  0
  5  1  1  0  0  0  0
  9  3  1  0  0  0  0
 10  5  1  0  0  0  0
 11  5  1  0  0  0  0
 12  2  1  0  0  0  0
 12 14  1  0  0  0  0
 14 13  2  1  0  0  0
 14 15  1  0  0  0  0
 16 15  1  0  0  0  0
 17 14  1  0  0  0  0
 18 20  1  0  0  0  0
 18 17  1  0  0  0  0
 19 18  1  0  0  0  0
 21 22  1  0  0  0  0
 21 18  1  0  0  0  0
 22 27  1  0  0  0  0
 23 28  1  0  0  0  0
 23 22  2  0  0  0  0
 24 23  1  0  0  0  0
 25 24  2  0  0  0  0
 25 26  1  0  0  0  0
 26 21  2  0  0  0  0
 29 25  1  0  0  0  0
 32 31  2  0  0  0  0
 32 38  1  0  0  0  0
 33 30  1  6  0  0  0
 33 32  1  0  0  0  0
 34 33  1  0  0  0  0
 34 36  1  0  0  0  0
 35 34  1  0  0  0  0
 36 37  1  0  0  0  0
 36 38  1  0  0  0  0
 38 39  1  0  0  0  0
M  END
>  <minimizedAffinity>
-5.23542166

$$$$

 OpenBabel03272504243D

 39 41  0  0  1  0  0  0  0  0999 V2000
   38.5210   22.6220   34.0390 C   0  0  2  0  0  0  0  0  0  0  0  0
   38.1550   23.2070   32.7060 C   0  0  1  0  0  0  0  0  0  0  0  0
   37.6400   21.9190   32.0440 C   0  0  0  0  0  0  0  0  0  0  0  0
   36.7930   21.4280   33.0050 O   0  0  0  0  0  0  0  0  0  0  0  0
   37.3440   21.6430   34.2410 C   0  0  0  0  0  0  0  0  0  0  0  0
   39.4670   22.0750   34.0060 H   0  0  0  0  0  0  0  0  0  0  0  0
   38.9770   23.6690   32.1640 H   0  0  0  0  0  0  0  0  0  0  0  0
   38.4920   21.2630   31.7900 H   0  0  0  0  0  0  0  0  0  0  0  0
   37.0460   22.1690   31.1380 H   0  0  0  0  0  0  0  0  0  0  0  0
   37.7460   20.7380   34.7130 H   0  0  0  0  0  0  0  0  0  0  0  0
   36.5680   22.1620   34.8680 H   0  0  0  0  0  0  0  0  0  0  0  0
   37.0610   24.0440   32.9300 O   0  0  0  0  0  0  0  0  0  0  0  0
   37.7600   24.9340   30.5960 O   0  0  0  0  0  0  0  0  0  0  0  0
   36.6230   24.9240   31.5680 P   0  0  1  0  0  0  0  0  0  0  0  0
   35.2800   24.1680   30.8130 O   0  0  0  0  0  0  0  0  0  0  0  0
   34.6690   23.8640   31.5240 H   0  0  0  0  0  0  0  0  0  0  0  0
   36.2050   26.5080   31.9910 O   0  0  0  0  0  0  0  0  0  0  0  0
   37.3730   27.2590   31.9860 C   0  0  0  0  0  0  0  0  0  0  0  0
   38.0380   27.0040   31.1490 H   0  0  0  0  0  0  0  0  0  0  0  0
   37.0390   28.3230   31.8370 H   0  0  0  0  0  0  0  0  0  0  0  0
   38.0930   27.2040   33.2770 C   0  0  0  0  0  0  0  0  0  0  0  0
   37.3720   27.5070   34.4090 C   0  0  0  0  0  0  0  0  0  0  0  0
   38.0020   27.4690   35.6550 C   0  0  0  0  0  0  0  0  0  0  0  0
   39.3200   27.1270   35.6710 N   0  0  0  0  0  0  0  0  0  0  0  0
   40.0100   26.8330   34.5530 C   0  0  0  0  0  0  0  0  0  0  0  0
   39.3970   26.8710   33.3550 N   0  0  0  0  0  0  0  0  0  0  0  0
   36.3430   27.7840   34.4880 H   0  0  0  0  0  0  0  0  0  0  0  0
   37.5040   27.6950   36.5900 H   0  0  0  0  0  0  0  0  0  0  0  0
   41.0510   26.5690   34.6400 H   0  0  0  0  0  0  0  0  0  0  0  0
   38.5160   23.6380   34.9960 O   0  0  0  0  0  0  0  0  0  0  0  0
   40.9990   22.7940   36.9210 O   0  0  0  0  0  0  0  0  0  0  0  0
   39.7270   22.9200   36.9500 C   0  0  0  0  0  0  0  0  0  0  0  0
   38.4190   23.1440   36.2820 C   0  0  1  0  0  3  0  0  0  0  0  0
   37.8350   24.1960   37.2360 C   0  0  0  0  0  3  0  0  0  0  0  0
   38.4900   25.0810   37.2220 H   0  0  0  0  0  0  0  0  0  0  0  0
   38.0020   23.4450   38.5530 C   0  0  0  0  0  3  0  0  0  0  0  0
   38.0250   24.1380   39.4140 H   0  0  0  0  0  0  0  0  0  0  0  0
   39.2920   22.7850   38.3220 N   0  0  0  0  0  0  0  0  0  0  0  0
   39.6450   22.3360   39.2220 H   0  0  0  0  0  0  0  0  0  0  0  0
  1  6  1  6  0  0  0
  1  5  1  0  0  0  0
  1 30  1  0  0  0  0
  2  7  1  6  0  0  0
  2 12  1  0  0  0  0
  2  1  1  0  0  0  0
  3  2  1  0  0  0  0
  3  4  1  0  0  0  0
  4  5  1  0  0  0  0
  5 10  1  0  0  0  0
  5 11  1  0  0  0  0
  8  3  1  0  0  0  0
  9  3  1  0  0  0  0
 14 13  2  6  0  0  0
 14 17  1  0  0  0  0
 14 12  1  0  0  0  0
 15 16  1  0  0  0  0
 15 14  1  0  0  0  0
 18 17  1  0  0  0  0
 18 21  1  0  0  0  0
 19 18  1  0  0  0  0
 20 18  1  0  0  0  0
 21 26  2  0  0  0  0
 21 22  1  0  0  0  0
 22 27  1  0  0  0  0
 22 23  2  0  0  0  0
 23 24  1  0  0  0  0
 23 28  1  0  0  0  0
 25 29  1  0  0  0  0
 25 24  2  0  0  0  0
 26 25  1  0  0  0  0
 31 32  2  0  0  0  0
 32 38  1  0  0  0  0
 33 30  1  6  0  0  0
 33 32  1  0  0  0  0
 33 34  1  0  0  0  0
 34 36  1  0  0  0  0
 35 34  1  0  0  0  0
 36 37  1  0  0  0  0
 38 36  1  0  0  0  0
 38 39  1  0  0  0  0
M  END
>  <minimizedAffinity>
-5.17607546

$$$$

 OpenBabel03272504243D

 39 41  0  0  1  0  0  0  0  0999 V2000
   38.1350   27.2800   33.9990 C   0  0  2  0  0  0  0  0  0  0  0  0
   38.7170   25.9310   33.6900 C   0  0  1  0  0  0  0  0  0  0  0  0
   39.5820   25.7800   34.9520 C   0  0  0  0  0  0  0  0  0  0  0  0
   38.6910   26.1020   35.9450 O   0  0  0  0  0  0  0  0  0  0  0  0
   37.8990   27.1350   35.5180 C   0  0  0  0  0  0  0  0  0  0  0  0
   38.8410   28.0910   33.8010 H   0  0  0  0  0  0  0  0  0  0  0  0
   39.2900   25.8760   32.7680 H   0  0  0  0  0  0  0  0  0  0  0  0
   40.4650   26.4420   34.8810 H   0  0  0  0  0  0  0  0  0  0  0  0
   39.8900   24.7200   35.0770 H   0  0  0  0  0  0  0  0  0  0  0  0
   38.1370   28.1000   35.9820 H   0  0  0  0  0  0  0  0  0  0  0  0
   36.8290   26.8220   35.6720 H   0  0  0  0  0  0  0  0  0  0  0  0
   37.6660   25.0180   33.7780 O   0  0  0  0  0  0  0  0  0  0  0  0
   36.5380   23.1590   32.3640 O   0  0  0  0  0  0  0  0  0  0  0  0
   37.8760   23.6810   32.7830 P   0  0  1  0  0  0  0  0  0  0  0  0
   38.7320   24.1550   31.3720 O   0  0  0  0  0  0  0  0  0  0  0  0
   39.4370   24.7850   31.6480 H   0  0  0  0  0  0  0  0  0  0  0  0
   38.7480   22.4730   33.5840 O   0  0  0  0  0  0  0  0  0  0  0  0
   37.9270   21.9640   34.5820 C   0  0  0  0  0  0  0  0  0  0  0  0
   36.8620   22.1520   34.3920 H   0  0  0  0  0  0  0  0  0  0  0  0
   38.0820   20.8500   34.5520 H   0  0  0  0  0  0  0  0  0  0  0  0
   38.3190   22.4240   35.9330 C   0  0  0  0  0  0  0  0  0  0  0  0
   39.6380   22.2660   36.2900 C   0  0  0  0  0  0  0  0  0  0  0  0
   40.0620   22.6840   37.5530 C   0  0  0  0  0  0  0  0  0  0  0  0
   39.1210   23.2330   38.3710 N   0  0  0  0  0  0  0  0  0  0  0  0
   37.8350   23.3800   38.0050 C   0  0  0  0  0  0  0  0  0  0  0  0
   37.4310   22.9760   36.7850 N   0  0  0  0  0  0  0  0  0  0  0  0
   40.4370   21.8480   35.7150 H   0  0  0  0  0  0  0  0  0  0  0  0
   41.0810   22.5940   37.9070 H   0  0  0  0  0  0  0  0  0  0  0  0
   37.1440   23.8240   38.7020 H   0  0  0  0  0  0  0  0  0  0  0  0
   36.9340   27.4240   33.3030 O   0  0  0  0  0  0  0  0  0  0  0  0
   35.5330   25.9600   30.7580 O   0  0  0  0  0  0  0  0  0  0  0  0
   36.2980   26.9480   31.0300 C   0  0  0  0  0  0  0  0  0  0  0  0
   37.1360   27.7330   31.9720 C   0  0  1  0  0  3  0  0  0  0  0  0
   36.6170   29.1410   31.6450 C   0  0  0  0  0  3  0  0  0  0  0  0
   35.5420   29.1790   31.8810 H   0  0  0  0  0  0  0  0  0  0  0  0
   36.8190   29.1270   30.1330 C   0  0  0  0  0  3  0  0  0  0  0  0
   36.1620   29.8590   29.6310 H   0  0  0  0  0  0  0  0  0  0  0  0
   36.4580   27.7370   29.8280 N   0  0  0  0  0  0  0  0  0  0  0  0
   36.3880   27.5950   28.7750 H   0  0  0  0  0  0  0  0  0  0  0  0
  1  6  1  6  0  0  0
  1  5  1  0  0  0  0
  2  7  1  6  0  0  0
  2 12  1  0  0  0  0
  2  1  1  0  0  0  0
  2  3  1  0  0  0  0
  3  9  1  0  0  0  0
  3  4  1  0  0  0  0
  5 11  1  0  0  0  0
  5  4  1  0  0  0  0
  5 10  1  0  0  0  0
  8  3  1  0  0  0  0
 14 13  2  6  0  0  0
 14 17  1  0  0  0  0
 14 12  1  0  0  0  0
 15 16  1  0  0  0  0
 15 14  1  0  0  0  0
 17 18  1  0  0  0  0
 18 21  1  0  0  0  0
 19 18  1  0  0  0  0
 20 18  1  0  0  0  0
 21 22  2  0  0  0  0
 21 26  1  0  0  0  0
 22 23  1  0  0  0  0
 23 28  1  0  0  0  0
 23 24  2  0  0  0  0
 25 24  1  0  0  0  0
 25 29  1  0  0  0  0
 26 25  2  0  0  0  0
 27 22  1  0  0  0  0
 30  1  1  0  0  0  0
 31 32  2  0  0  0  0
 32 33  1  0  0  0  0
 33 30  1  1  0  0  0
 34 35  1  0  0  0  0
 34 33  1  0  0  0  0
 36 34  1  0  0  0  0
 37 36  1  0  0  0  0
 38 36  1  0  0  0  0
 38 32  1  0  0  0  0
 39 38  1  0  0  0  0
M  END
>  <minimizedAffinity>
-5.11201334

$$$$

 OpenBabel03272504243D

 39 41  0  0  1  0  0  0  0  0999 V2000
   37.7510   25.5930   35.4870 C   0  0  2  0  0  0  0  0  0  0  0  0
   37.3160   26.1850   34.1770 C   0  0  1  0  0  0  0  0  0  0  0  0
   36.8530   27.5510   34.7070 C   0  0  0  0  0  0  0  0  0  0  0  0
   37.9190   27.9270   35.4850 O   0  0  0  0  0  0  0  0  0  0  0  0
   38.4030   26.8280   36.1420 C   0  0  0  0  0  0  0  0  0  0  0  0
   36.9040   25.2480   36.0870 H   0  0  0  0  0  0  0  0  0  0  0  0
   36.5310   25.6360   33.6610 H   0  0  0  0  0  0  0  0  0  0  0  0
   35.8950   27.4380   35.2470 H   0  0  0  0  0  0  0  0  0  0  0  0
   36.7530   28.2710   33.8650 H   0  0  0  0  0  0  0  0  0  0  0  0
   38.1570   26.8030   37.2110 H   0  0  0  0  0  0  0  0  0  0  0  0
   39.5100   26.7790   35.9430 H   0  0  0  0  0  0  0  0  0  0  0  0
   38.4770   26.3830   33.4300 O   0  0  0  0  0  0  0  0  0  0  0  0
   36.8540   26.4900   31.4100 O   0  0  0  0  0  0  0  0  0  0  0  0
   38.2510   26.1110   31.7880 P   0  0  1  0  0  0  0  0  0  0  0  0
   39.3340   27.1010   30.8960 O   0  0  0  0  0  0  0  0  0  0  0  0
   40.1990   27.0970   31.3670 H   0  0  0  0  0  0  0  0  0  0  0  0
   38.5380   24.4880   31.4060 O   0  0  0  0  0  0  0  0  0  0  0  0
   37.3490   23.9620   30.9180 C   0  0  0  0  0  0  0  0  0  0  0  0
   36.6030   24.7370   30.6930 H   0  0  0  0  0  0  0  0  0  0  0  0
   37.6220   23.4670   29.9450 H   0  0  0  0  0  0  0  0  0  0  0  0
   36.7840   22.9150   31.7980 C   0  0  0  0  0  0  0  0  0  0  0  0
   37.5440   22.5280   32.8770 C   0  0  0  0  0  0  0  0  0  0  0  0
   37.0590   21.5440   33.7410 C   0  0  0  0  0  0  0  0  0  0  0  0
   35.8360   21.0180   33.4540 N   0  0  0  0  0  0  0  0  0  0  0  0
   35.1060   21.4090   32.3930 C   0  0  0  0  0  0  0  0  0  0  0  0
   35.5780   22.3590   31.5640 N   0  0  0  0  0  0  0  0  0  0  0  0
   38.5070   22.8850   33.1750 H   0  0  0  0  0  0  0  0  0  0  0  0
   37.5960   21.1850   34.6100 H   0  0  0  0  0  0  0  0  0  0  0  0
   34.1450   20.9500   32.2260 H   0  0  0  0  0  0  0  0  0  0  0  0
   38.6850   24.5860   35.2400 O   0  0  0  0  0  0  0  0  0  0  0  0
   37.0990   22.7920   37.4430 O   0  0  0  0  0  0  0  0  0  0  0  0
   38.2760   23.2190   37.1800 C   0  0  0  0  0  0  0  0  0  0  0  0
   39.2160   24.0680   36.4050 C   0  0  1  0  0  3  0  0  0  0  0  0
   40.2980   23.0210   36.1030 C   0  0  0  0  0  3  0  0  0  0  0  0
   39.8440   22.2140   35.5060 H   0  0  0  0  0  0  0  0  0  0  0  0
   40.5630   22.5320   37.5230 C   0  0  0  0  0  3  0  0  0  0  0  0
   41.0030   21.5190   37.5270 H   0  0  0  0  0  0  0  0  0  0  0  0
   39.2030   22.5630   38.0740 N   0  0  0  0  0  0  0  0  0  0  0  0
   39.1800   22.0900   39.0290 H   0  0  0  0  0  0  0  0  0  0  0  0
  1  6  1  1  0  0  0
  1  5  1  0  0  0  0
  2  7  1  6  0  0  0
  2  3  1  0  0  0  0
  2  1  1  0  0  0  0
  3  8  1  0  0  0  0
  3  4  1  0  0  0  0
  4  5  1  0  0  0  0
  5 10  1  0  0  0  0
  9  3  1  0  0  0  0
 11  5  1  0  0  0  0
 12  2  1  0  0  0  0
 14 13  2  6  0  0  0
 14 12  1  0  0  0  0
 15 16  1  0  0  0  0
 15 14  1  0  0  0  0
 17 14  1  0  0  0  0
 18 17  1  0  0  0  0
 18 21  1  0  0  0  0
 19 18  1  0  0  0  0
 20 18  1  0  0  0  0
 21 22  1  0  0  0  0
 22 27  1  0  0  0  0
 22 23  2  0  0  0  0
 23 28  1  0  0  0  0
 24 23  1  0  0  0  0
 25 24  2  0  0  0  0
 26 21  2  0  0  0  0
 26 25  1  0  0  0  0
 29 25  1  0  0  0  0
 30  1  1  0  0  0  0
 32 31  2  0  0  0  0
 32 38  1  0  0  0  0
 33 30  1  6  0  0  0
 33 32  1  0  0  0  0
 34 33  1  0  0  0  0
 34 36  1  0  0  0  0
 35 34  1  0  0  0  0
 36 37  1  0  0  0  0
 36 38  1  0  0  0  0
 38 39  1  0  0  0  0
M  END
>  <minimizedAffinity>
-5.0389142

$$$$

 OpenBabel03272504243D

 39 41  0  0  1  0  0  0  0  0999 V2000
   38.2610   26.0780   33.8140 C   0  0  2  0  0  0  0  0  0  0  0  0
   38.9080   25.4480   35.0140 C   0  0  1  0  0  0  0  0  0  0  0  0
   38.9680   26.7000   35.9020 C   0  0  0  0  0  0  0  0  0  0  0  0
   37.6880   27.1830   35.7960 O   0  0  0  0  0  0  0  0  0  0  0  0
   37.2530   27.0180   34.5080 C   0  0  0  0  0  0  0  0  0  0  0  0
   38.9700   26.6580   33.2170 H   0  0  0  0  0  0  0  0  0  0  0  0
   39.8830   25.0030   34.8310 H   0  0  0  0  0  0  0  0  0  0  0  0
   39.7580   27.3810   35.5360 H   0  0  0  0  0  0  0  0  0  0  0  0
   39.1540   26.4080   36.9590 H   0  0  0  0  0  0  0  0  0  0  0  0
   37.2150   27.9480   33.9270 H   0  0  0  0  0  0  0  0  0  0  0  0
   36.2620   26.4860   34.5560 H   0  0  0  0  0  0  0  0  0  0  0  0
   37.9640   24.5780   35.5590 O   0  0  0  0  0  0  0  0  0  0  0  0
   40.1270   23.2020   35.9480 O   0  0  0  0  0  0  0  0  0  0  0  0
   38.6450   23.1590   36.1440 P   0  0  1  0  0  0  0  0  0  0  0  0
   38.3310   23.0330   37.8270 O   0  0  0  0  0  0  0  0  0  0  0  0
   37.4070   23.3360   37.9830 H   0  0  0  0  0  0  0  0  0  0  0  0
   37.9910   21.8130   35.3550 O   0  0  0  0  0  0  0  0  0  0  0  0
   38.4330   21.8510   34.0390 C   0  0  0  0  0  0  0  0  0  0  0  0
   38.8310   22.8350   33.7530 H   0  0  0  0  0  0  0  0  0  0  0  0
   39.2850   21.1180   33.9920 H   0  0  0  0  0  0  0  0  0  0  0  0
   37.4060   21.3900   33.0780 C   0  0  0  0  0  0  0  0  0  0  0  0
   36.1760   21.0520   33.5920 C   0  0  0  0  0  0  0  0  0  0  0  0
   35.1690   20.6110   32.7300 C   0  0  0  0  0  0  0  0  0  0  0  0
   35.4770   20.5410   31.4050 N   0  0  0  0  0  0  0  0  0  0  0  0
   36.6870   20.8770   30.9200 C   0  0  0  0  0  0  0  0  0  0  0  0
   37.6530   21.3010   31.7560 N   0  0  0  0  0  0  0  0  0  0  0  0
   35.8510   21.0760   34.6100 H   0  0  0  0  0  0  0  0  0  0  0  0
   34.1770   20.3270   33.0570 H   0  0  0  0  0  0  0  0  0  0  0  0
   36.8610   20.7980   29.8590 H   0  0  0  0  0  0  0  0  0  0  0  0
   37.6160   25.0850   33.0750 O   0  0  0  0  0  0  0  0  0  0  0  0
   37.9500   26.8870   30.3860 O   0  0  0  0  0  0  0  0  0  0  0  0
   37.0440   26.3140   31.0840 C   0  0  0  0  0  0  0  0  0  0  0  0
   36.5910   25.5930   32.3000 C   0  0  1  0  0  3  0  0  0  0  0  0
   35.7910   24.4650   31.6320 C   0  0  0  0  0  3  0  0  0  0  0  0
   36.4790   23.8750   31.0050 H   0  0  0  0  0  0  0  0  0  0  0  0
   34.8760   25.3090   30.7500 C   0  0  0  0  0  3  0  0  0  0  0  0
   34.4920   24.7270   29.8930 H   0  0  0  0  0  0  0  0  0  0  0  0
   35.8030   26.3720   30.3450 N   0  0  0  0  0  0  0  0  0  0  0  0
   35.3650   26.9750   29.5820 H   0  0  0  0  0  0  0  0  0  0  0  0
  1  6  1  6  0  0  0
  1  5  1  0  0  0  0
  1  2  1  0  0  0  0
  2  7  1  6  0  0  0
  2 12  1  0  0  0  0
  2  3  1  0  0  0  0
  3  9  1  0  0  0  0
  4  3  1  0  0  0  0
  5 11  1  0  0  0  0
  5  4  1  0  0  0  0
  8  3  1  0  0  0  0
 10  5  1  0  0  0  0
 12 14  1  0  0  0  0
 14 13  2  6  0  0  0
 14 15  1  0  0  0  0
 15 16  1  0  0  0  0
 17 14  1  0  0  0  0
 18 17  1  0  0  0  0
 19 18  1  0  0  0  0
 20 18  1  0  0  0  0
 21 22  1  0  0  0  0
 21 18  1  0  0  0  0
 22 27  1  0  0  0  0
 23 28  1  0  0  0  0
 23 22  2  0  0  0  0
 24 23  1  0  0  0  0
 25 24  2  0  0  0  0
 25 26  1  0  0  0  0
 26 21  2  0  0  0  0
 29 25  1  0  0  0  0
 30  1  1  0  0  0  0
 31 32  2  0  0  0  0
 32 33  1  0  0  0  0
 33 30  1  6  0  0  0
 34 33  1  0  0  0  0
 35 34  1  0  0  0  0
 36 34  1  0  0  0  0
 37 36  1  0  0  0  0
 38 36  1  0  0  0  0
 38 32  1  0  0  0  0
 39 38  1  0  0  0  0
M  END
>  <minimizedAffinity>
-5.02926254

$$$$

 OpenBabel03272504243D

 39 41  0  0  1  0  0  0  0  0999 V2000
   38.8610   22.6100   34.2160 C   0  0  2  0  0  0  0  0  0  0  0  0
   38.4610   23.3360   32.9640 C   0  0  1  0  0  0  0  0  0  0  0  0
   37.6030   22.2250   32.3400 C   0  0  0  0  0  0  0  0  0  0  0  0
   36.8000   21.8640   33.3930 O   0  0  0  0  0  0  0  0  0  0  0  0
   37.5380   21.8860   34.5470 C   0  0  0  0  0  0  0  0  0  0  0  0
   39.6560   21.8810   34.0360 H   0  0  0  0  0  0  0  0  0  0  0  0
   39.2870   23.6490   32.3290 H   0  0  0  0  0  0  0  0  0  0  0  0
   38.2550   21.4210   31.9510 H   0  0  0  0  0  0  0  0  0  0  0  0
   36.9650   22.6450   31.5320 H   0  0  0  0  0  0  0  0  0  0  0  0
   37.7940   20.8910   34.9320 H   0  0  0  0  0  0  0  0  0  0  0  0
   36.9770   22.5170   35.2910 H   0  0  0  0  0  0  0  0  0  0  0  0
   37.6100   24.3670   33.3610 O   0  0  0  0  0  0  0  0  0  0  0  0
   38.7960   26.6550   33.0790 O   0  0  0  0  0  0  0  0  0  0  0  0
   37.7890   25.7560   32.4350 P   0  0  1  0  0  0  0  0  0  0  0  0
   38.3720   25.3280   30.8780 O   0  0  0  0  0  0  0  0  0  0  0  0
   37.9050   24.5060   30.6000 H   0  0  0  0  0  0  0  0  0  0  0  0
   36.3090   26.5610   32.2730 O   0  0  0  0  0  0  0  0  0  0  0  0
   36.1460   26.8590   30.9270 C   0  0  0  0  0  0  0  0  0  0  0  0
   36.6820   26.1600   30.2700 H   0  0  0  0  0  0  0  0  0  0  0  0
   35.0460   26.7320   30.7270 H   0  0  0  0  0  0  0  0  0  0  0  0
   36.4890   28.2630   30.6080 C   0  0  0  0  0  0  0  0  0  0  0  0
   36.1880   29.2120   31.5570 C   0  0  0  0  0  0  0  0  0  0  0  0
   36.4910   30.5520   31.3090 C   0  0  0  0  0  0  0  0  0  0  0  0
   37.0780   30.8420   30.1140 N   0  0  0  0  0  0  0  0  0  0  0  0
   37.3660   29.9000   29.1970 C   0  0  0  0  0  0  0  0  0  0  0  0
   37.0720   28.6090   29.4430 N   0  0  0  0  0  0  0  0  0  0  0  0
   35.7300   29.0740   32.5130 H   0  0  0  0  0  0  0  0  0  0  0  0
   36.2850   31.3560   32.0040 H   0  0  0  0  0  0  0  0  0  0  0  0
   37.8330   30.2000   28.2730 H   0  0  0  0  0  0  0  0  0  0  0  0
   39.1950   23.5460   35.1950 O   0  0  0  0  0  0  0  0  0  0  0  0
   40.9170   22.3440   37.6800 O   0  0  0  0  0  0  0  0  0  0  0  0
   39.7370   22.7530   37.4030 C   0  0  0  0  0  0  0  0  0  0  0  0
   38.7010   23.2020   36.4380 C   0  0  1  0  0  3  0  0  0  0  0  0
   38.1860   24.4380   37.1900 C   0  0  0  0  0  3  0  0  0  0  0  0
   39.0190   25.1500   37.3010 H   0  0  0  0  0  0  0  0  0  0  0  0
   37.8740   23.7880   38.5340 C   0  0  0  0  0  3  0  0  0  0  0  0
   37.8690   24.5320   39.3520 H   0  0  0  0  0  0  0  0  0  0  0  0
   38.9890   22.8390   38.6380 N   0  0  0  0  0  0  0  0  0  0  0  0
   39.0170   22.4040   39.6100 H   0  0  0  0  0  0  0  0  0  0  0  0
  1  6  1  6  0  0  0
  1  5  1  0  0  0  0
  1 30  1  0  0  0  0
  2  7  1  6  0  0  0
  2 12  1  0  0  0  0
  2  1  1  0  0  0  0
  3  2  1  0  0  0  0
  3  4  1  0  0  0  0
  4  5  1  0  0  0  0
  5 10  1  0  0  0  0
  5 11  1  0  0  0  0
  8  3  1  0  0  0  0
  9  3  1  0  0  0  0
 14 13  2  1  0  0  0
 14 12  1  0  0  0  0
 15 14  1  0  0  0  0
 16 15  1  0  0  0  0
 17 14  1  0  0  0  0
 18 17  1  0  0  0  0
 19 18  1  0  0  0  0
 20 18  1  0  0  0  0
 21 18  1  0  0  0  0
 21 22  1  0  0  0  0
 22 27  1  0  0  0  0
 23 22  2  0  0  0  0
 23 28  1  0  0  0  0
 24 23  1  0  0  0  0
 25 26  1  0  0  0  0
 25 24  2  0  0  0  0
 26 21  2  0  0  0  0
 29 25  1  0  0  0  0
 32 31  2  0  0  0  0
 32 38  1  0  0  0  0
 33 30  1  6  0  0  0
 33 34  1  0  0  0  0
 33 32  1  0  0  0  0
 34 35  1  0  0  0  0
 34 36  1  0  0  0  0
 36 38  1  0  0  0  0
 36 37  1  0  0  0  0
 38 39  1  0  0  0  0
M  END
>  <minimizedAffinity>
-4.97805405

$$$$

 OpenBabel03272504243D

 39 41  0  0  1  0  0  0  0  0999 V2000
   40.8590   23.2080   35.1960 C   0  0  2  0  0  0  0  0  0  0  0  0
   41.7120   24.3990   34.8640 C   0  0  1  0  0  0  0  0  0  0  0  0
   42.9460   23.6380   34.3540 C   0  0  0  0  0  0  0  0  0  0  0  0
   42.3840   22.7410   33.4820 O   0  0  0  0  0  0  0  0  0  0  0  0
   41.2040   22.2850   34.0080 C   0  0  0  0  0  0  0  0  0  0  0  0
   41.1530   22.7380   36.1380 H   0  0  0  0  0  0  0  0  0  0  0  0
   41.9300   25.0580   35.7020 H   0  0  0  0  0  0  0  0  0  0  0  0
   43.4870   23.1880   35.2070 H   0  0  0  0  0  0  0  0  0  0  0  0
   43.6080   24.3260   33.7830 H   0  0  0  0  0  0  0  0  0  0  0  0
   41.2530   21.2590   34.3910 H   0  0  0  0  0  0  0  0  0  0  0  0
   40.4110   22.4250   33.2210 H   0  0  0  0  0  0  0  0  0  0  0  0
   41.1090   25.0240   33.7730 O   0  0  0  0  0  0  0  0  0  0  0  0
   40.0570   26.9490   35.1550 O   0  0  0  0  0  0  0  0  0  0  0  0
   40.9430   26.6820   33.9800 P   0  0  1  0  0  0  0  0  0  0  0  0
   42.4820   27.3700   34.3010 O   0  0  0  0  0  0  0  0  0  0  0  0
   43.1370   26.9250   33.7150 H   0  0  0  0  0  0  0  0  0  0  0  0
   40.2950   27.3940   32.5890 O   0  0  0  0  0  0  0  0  0  0  0  0
   39.6950   26.3840   31.8480 C   0  0  0  0  0  0  0  0  0  0  0  0
   40.1580   26.2500   30.8610 H   0  0  0  0  0  0  0  0  0  0  0  0
   39.8750   25.4410   32.4350 H   0  0  0  0  0  0  0  0  0  0  0  0
   38.2290   26.5540   31.7320 C   0  0  0  0  0  0  0  0  0  0  0  0
   37.7120   27.7780   32.0910 C   0  0  0  0  0  0  0  0  0  0  0  0
   36.3350   27.9940   32.0000 C   0  0  0  0  0  0  0  0  0  0  0  0
   35.5750   26.9550   31.5520 N   0  0  0  0  0  0  0  0  0  0  0  0
   36.0990   25.7660   31.2050 C   0  0  0  0  0  0  0  0  0  0  0  0
   37.4270   25.5630   31.2940 N   0  0  0  0  0  0  0  0  0  0  0  0
   38.2310   28.6400   32.4500 H   0  0  0  0  0  0  0  0  0  0  0  0
   35.8520   28.9260   32.2630 H   0  0  0  0  0  0  0  0  0  0  0  0
   35.4380   24.9880   30.8580 H   0  0  0  0  0  0  0  0  0  0  0  0
   39.5180   23.5940   35.1770 O   0  0  0  0  0  0  0  0  0  0  0  0
   40.8510   22.2220   37.8090 O   0  0  0  0  0  0  0  0  0  0  0  0
   39.7360   22.6990   37.4020 C   0  0  0  0  0  0  0  0  0  0  0  0
   38.8540   23.2320   36.3330 C   0  0  1  0  0  3  0  0  0  0  0  0
   38.3040   24.4660   37.0640 C   0  0  0  0  0  3  0  0  0  0  0  0
   39.1470   25.1310   37.3070 H   0  0  0  0  0  0  0  0  0  0  0  0
   37.7930   23.7870   38.3300 C   0  0  0  0  0  3  0  0  0  0  0  0
   37.7170   24.5010   39.1700 H   0  0  0  0  0  0  0  0  0  0  0  0
   38.8410   22.7800   38.5350 N   0  0  0  0  0  0  0  0  0  0  0  0
   38.7250   22.3110   39.4850 H   0  0  0  0  0  0  0  0  0  0  0  0
  1  6  1  1  0  0  0
  2  1  1  0  0  0  0
  2  7  1  1  0  0  0
  3  2  1  0  0  0  0
  3  8  1  0  0  0  0
  4  5  1  0  0  0  0
  4  3  1  0  0  0  0
  5 10  1  0  0  0  0
  5  1  1  0  0  0  0
  9  3  1  0  0  0  0
 11  5  1  0  0  0  0
 12 14  1  0  0  0  0
 12  2  1  0  0  0  0
 14 15  1  0  0  0  0
 14 13  2  1  0  0  0
 16 15  1  0  0  0  0
 17 14  1  0  0  0  0
 18 20  1  0  0  0  0
 18 17  1  0  0  0  0
 19 18  1  0  0  0  0
 21 18  1  0  0  0  0
 21 22  1  0  0  0  0
 22 27  1  0  0  0  0
 23 22  2  0  0  0  0
 23 28  1  0  0  0  0
 24 23  1  0  0  0  0
 25 26  1  0  0  0  0
 25 24  2  0  0  0  0
 26 21  2  0  0  0  0
 29 25  1  0  0  0  0
 30  1  1  0  0  0  0
 32 31  2  0  0  0  0
 32 38  1  0  0  0  0
 33 30  1  6  0  0  0
 33 34  1  0  0  0  0
 33 32  1  0  0  0  0
 34 35  1  0  0  0  0
 34 36  1  0  0  0  0
 36 38  1  0  0  0  0
 36 37  1  0  0  0  0
 38 39  1  0  0  0  0
M  END
>  <minimizedAffinity>
-4.94322014

$$$$

 OpenBabel03272504243D

 39 41  0  0  1  0  0  0  0  0999 V2000
   38.4990   23.9380   33.0810 C   0  0  2  0  0  0  0  0  0  0  0  0
   37.8860   25.0030   32.2170 C   0  0  1  0  0  0  0  0  0  0  0  0
   37.1230   24.0790   31.2540 C   0  0  0  0  0  0  0  0  0  0  0  0
   36.4830   23.2320   32.1240 O   0  0  0  0  0  0  0  0  0  0  0  0
   37.3220   22.9440   33.1670 C   0  0  0  0  0  0  0  0  0  0  0  0
   39.3610   23.4640   32.6050 H   0  0  0  0  0  0  0  0  0  0  0  0
   38.5970   25.6540   31.7140 H   0  0  0  0  0  0  0  0  0  0  0  0
   37.8340   23.5910   30.5630 H   0  0  0  0  0  0  0  0  0  0  0  0
   36.3600   24.6610   30.6940 H   0  0  0  0  0  0  0  0  0  0  0  0
   37.7430   21.9310   33.1340 H   0  0  0  0  0  0  0  0  0  0  0  0
   36.7590   23.1580   34.1180 H   0  0  0  0  0  0  0  0  0  0  0  0
   36.9500   25.6640   33.0120 O   0  0  0  0  0  0  0  0  0  0  0  0
   38.1760   27.8140   32.2360 O   0  0  0  0  0  0  0  0  0  0  0  0
   36.8350   27.3030   32.6600 P   0  0  1  0  0  0  0  0  0  0  0  0
   35.7400   27.5260   31.3570 O   0  0  0  0  0  0  0  0  0  0  0  0
   34.9820   26.9120   31.4940 H   0  0  0  0  0  0  0  0  0  0  0  0
   36.2830   28.1650   34.0060 O   0  0  0  0  0  0  0  0  0  0  0  0
   35.7070   29.3380   33.5370 C   0  0  0  0  0  0  0  0  0  0  0  0
   36.4100   29.9550   32.9610 H   0  0  0  0  0  0  0  0  0  0  0  0
   34.8940   29.0090   32.8340 H   0  0  0  0  0  0  0  0  0  0  0  0
   35.0630   30.1270   34.6120 C   0  0  0  0  0  0  0  0  0  0  0  0
   35.8720   30.9630   35.3450 C   0  0  0  0  0  0  0  0  0  0  0  0
   35.3160   31.7310   36.3710 C   0  0  0  0  0  0  0  0  0  0  0  0
   33.9770   31.6000   36.5850 N   0  0  0  0  0  0  0  0  0  0  0  0
   33.2010   30.7760   35.8570 C   0  0  0  0  0  0  0  0  0  0  0  0
   33.7420   30.0390   34.8690 N   0  0  0  0  0  0  0  0  0  0  0  0
   36.9230   31.1270   35.2460 H   0  0  0  0  0  0  0  0  0  0  0  0
   35.8850   32.4110   36.9920 H   0  0  0  0  0  0  0  0  0  0  0  0
   32.1480   30.7220   36.0800 H   0  0  0  0  0  0  0  0  0  0  0  0
   38.8020   24.4870   34.3280 O   0  0  0  0  0  0  0  0  0  0  0  0
   40.8050   22.6930   36.1600 O   0  0  0  0  0  0  0  0  0  0  0  0
   39.5720   23.0230   36.0780 C   0  0  0  0  0  0  0  0  0  0  0  0
   38.4320   23.6580   35.3680 C   0  0  1  0  0  3  0  0  0  0  0  0
   37.8370   24.4630   36.5330 C   0  0  0  0  0  3  0  0  0  0  0  0
   38.5930   25.1850   36.8790 H   0  0  0  0  0  0  0  0  0  0  0  0
   37.6870   23.3380   37.5510 C   0  0  0  0  0  3  0  0  0  0  0  0
   37.6560   23.7280   38.5850 H   0  0  0  0  0  0  0  0  0  0  0  0
   38.9020   22.5630   37.2740 N   0  0  0  0  0  0  0  0  0  0  0  0
   39.0420   21.8130   38.0190 H   0  0  0  0  0  0  0  0  0  0  0  0
  1  6  1  6  0  0  0
  1  5  1  0  0  0  0
  1 30  1  0  0  0  0
  2  7  1  6  0  0  0
  2 12  1  0  0  0  0
  2  1  1  0  0  0  0
  3  4  1  0  0  0  0
  3  2  1  0  0  0  0
  4  5  1  0  0  0  0
  5 11  1  0  0  0  0
  8  3  1  0  0  0  0
  9  3  1  0  0  0  0
 10  5  1  0  0  0  0
 14 13  2  6  0  0  0
 14 12  1  0  0  0  0
 14 17  1  0  0  0  0
 15 16  1  0  0  0  0
 15 14  1  0  0  0  0
 18 17  1  0  0  0  0
 18 21  1  0  0  0  0
 19 18  1  0  0  0  0
 20 18  1  0  0  0  0
 21 26  2  0  0  0  0
 21 22  1  0  0  0  0
 22 23  2  0  0  0  0
 23 24  1  0  0  0  0
 23 28  1  0  0  0  0
 25 29  1  0  0  0  0
 25 24  2  0  0  0  0
 26 25  1  0  0  0  0
 27 22  1  0  0  0  0
 32 31  2  0  0  0  0
 32 38  1  0  0  0  0
 33 30  1  6  0  0  0
 33 32  1  0  0  0  0
 33 34  1  0  0  0  0
 34 35  1  0  0  0  0
 34 36  1  0  0  0  0
 36 37  1  0  0  0  0
 38 36  1  0  0  0  0
 38 39  1  0  0  0  0
M  END
>  <minimizedAffinity>
-4.87296629

$$$$
