
 OpenBabel03272506423D

 32 34  0  0  1  0  0  0  0  0999 V2000
   32.3850   28.3550   47.4880 C   0  0  2  0  0  0  0  0  0  0  0  0
   33.6200   28.4210   48.3620 C   0  0  1  0  0  0  0  0  0  0  0  0
   34.1900   27.1700   48.3620 O   0  0  0  0  0  0  0  0  0  0  0  0
   33.5480   26.3740   47.4420 C   0  0  0  0  0  0  0  0  0  0  0  0
   32.8590   27.3240   46.4690 C   0  0  1  0  0  0  0  0  0  0  0  0
   31.4950   27.9530   48.0150 H   0  0  0  0  0  0  0  0  0  0  0  0
   33.4270   28.8120   49.3680 H   0  0  0  0  0  0  0  0  0  0  0  0
   32.8140   25.6630   47.8980 H   0  0  0  0  0  0  0  0  0  0  0  0
   34.2970   25.7350   46.9110 H   0  0  0  0  0  0  0  0  0  0  0  0
   33.6060   27.7590   45.7950 H   0  0  0  0  0  0  0  0  0  0  0  0
   32.1400   29.5930   46.8900 O   0  0  0  0  0  0  0  0  0  0  0  0
   32.9400   29.8040   46.3720 H   0  0  0  0  0  0  0  0  0  0  0  0
   34.7970   29.5480   47.5200 S   0  0  0  0  0  0  0  0  0  0  0  0
   37.3790   29.4650   50.5390 C   0  0  0  0  0  0  0  0  0  0  0  0
   37.9840   30.7340   50.5090 C   0  0  0  0  0  0  0  0  0  0  0  0
   37.5800   31.6350   49.5290 C   0  0  0  0  0  0  0  0  0  0  0  0
   36.6280   31.2590   48.6480 N   0  0  0  0  0  0  0  0  0  0  0  0
   36.0570   30.0290   48.6950 C   0  0  0  0  0  0  0  0  0  0  0  0
   36.4270   29.1420   49.6290 N   0  0  0  0  0  0  0  0  0  0  0  0
   37.6130   28.6930   51.2510 H   0  0  0  0  0  0  0  0  0  0  0  0
   38.7410   30.9320   51.2670 H   0  0  0  0  0  0  0  0  0  0  0  0
   38.0520   32.6090   49.5150 H   0  0  0  0  0  0  0  0  0  0  0  0
   31.8040   26.6930   45.8300 O   0  0  0  0  0  0  0  0  0  0  0  0
   33.1980   24.5260   44.2410 O   0  0  0  0  0  0  0  0  0  0  0  0
   32.3240   25.4120   43.9450 C   0  0  0  0  0  0  0  0  0  0  0  0
   31.8990   26.7450   44.4460 C   0  0  1  0  0  3  0  0  0  0  0  0
   30.5540   26.9110   43.7670 C   0  0  0  0  0  3  0  0  0  0  0  0
   29.8120   26.2610   44.2410 H   0  0  0  0  0  0  0  0  0  0  0  0
   30.8440   26.3150   42.3980 C   0  0  0  0  0  3  0  0  0  0  0  0
   29.9610   26.1600   41.7810 H   0  0  0  0  0  0  0  0  0  0  0  0
   31.4930   25.0640   42.8190 N   0  0  0  0  0  0  0  0  0  0  0  0
   31.2880   24.1630   42.2940 H   0  0  0  0  0  0  0  0  0  0  0  0
  1  6  1  1  0  0  0
  1  2  1  0  0  0  0
  2  3  1  0  0  0  0
  2  7  1  1  0  0  0
  4  8  1  0  0  0  0
  4  3  1  0  0  0  0
  5 10  1  6  0  0  0
  5  4  1  0  0  0  0
  5  1  1  0  0  0  0
  9  4  1  0  0  0  0
 11  1  1  0  0  0  0
 12 11  1  0  0  0  0
 13  2  1  0  0  0  0
 13 18  1  0  0  0  0
 14 20  1  0  0  0  0
 15 14  1  0  0  0  0
 15 21  1  0  0  0  0
 16 15  2  0  0  0  0
 17 18  2  0  0  0  0
 17 16  1  0  0  0  0
 18 19  1  0  0  0  0
 19 14  2  0  0  0  0
 22 16  1  0  0  0  0
 23  5  1  0  0  0  0
 25 24  2  0  0  0  0
 25 26  1  0  0  0  0
 26 23  1  1  0  0  0
 27 28  1  0  0  0  0
 27 26  1  0  0  0  0
 29 31  1  0  0  0  0
 29 27  1  0  0  0  0
 30 29  1  0  0  0  0
 31 25  1  0  0  0  0
 32 31  1  0  0  0  0
M  END
>  <minimizedAffinity>
-3.72579575

>  <minimizedRMSD>
0.0398655422

$$$$
