
 OpenBabel03272506423D

 32 34  0  0  1  0  0  0  0  0999 V2000
   32.4050   28.3150   47.6320 C   0  0  2  0  0  0  0  0  0  0  0  0
   33.6790   28.3760   48.4490 C   0  0  1  0  0  0  0  0  0  0  0  0
   34.2660   27.1350   48.3870 O   0  0  0  0  0  0  0  0  0  0  0  0
   33.5930   26.3550   47.4750 C   0  0  0  0  0  0  0  0  0  0  0  0
   32.8450   27.3210   46.5630 C   0  0  1  0  0  0  0  0  0  0  0  0
   31.5460   27.8840   48.1890 H   0  0  0  0  0  0  0  0  0  0  0  0
   33.5280   28.7350   49.4740 H   0  0  0  0  0  0  0  0  0  0  0  0
   32.8910   25.6200   47.9440 H   0  0  0  0  0  0  0  0  0  0  0  0
   34.3250   25.7430   46.8910 H   0  0  0  0  0  0  0  0  0  0  0  0
   33.5530   27.7860   45.8680 H   0  0  0  0  0  0  0  0  0  0  0  0
   32.1140   29.5660   47.0830 O   0  0  0  0  0  0  0  0  0  0  0  0
   32.8850   29.8030   46.5340 H   0  0  0  0  0  0  0  0  0  0  0  0
   34.7980   29.5450   47.5860 S   0  0  0  0  0  0  0  0  0  0  0  0
   37.4430   29.5050   50.5500 C   0  0  0  0  0  0  0  0  0  0  0  0
   38.0500   30.7720   50.4870 C   0  0  0  0  0  0  0  0  0  0  0  0
   37.6270   31.6580   49.5010 C   0  0  0  0  0  0  0  0  0  0  0  0
   36.6560   31.2700   48.6470 N   0  0  0  0  0  0  0  0  0  0  0  0
   36.0830   30.0410   48.7260 C   0  0  0  0  0  0  0  0  0  0  0  0
   36.4720   29.1690   49.6670 N   0  0  0  0  0  0  0  0  0  0  0  0
   37.6910   28.7440   51.2700 H   0  0  0  0  0  0  0  0  0  0  0  0
   38.8230   30.9810   51.2260 H   0  0  0  0  0  0  0  0  0  0  0  0
   38.1000   32.6300   49.4620 H   0  0  0  0  0  0  0  0  0  0  0  0
   31.7700   26.6910   45.9560 O   0  0  0  0  0  0  0  0  0  0  0  0
   30.2090   24.6950   44.3010 O   0  0  0  0  0  0  0  0  0  0  0  0
   30.7720   25.8110   44.0350 C   0  0  0  0  0  0  0  0  0  0  0  0
   31.8840   26.6360   44.5740 C   0  0  1  0  0  3  0  0  0  0  0  0
   31.6230   27.9720   43.9070 C   0  0  0  0  0  3  0  0  0  0  0  0
   30.7570   28.4600   44.3650 H   0  0  0  0  0  0  0  0  0  0  0  0
   31.1880   27.5240   42.5200 C   0  0  0  0  0  3  0  0  0  0  0  0
   30.7700   28.3180   41.9030 H   0  0  0  0  0  0  0  0  0  0  0  0
   30.2030   26.5010   42.9030 N   0  0  0  0  0  0  0  0  0  0  0  0
   29.2960   26.4120   42.3540 H   0  0  0  0  0  0  0  0  0  0  0  0
  1  6  1  1  0  0  0
  1  2  1  0  0  0  0
  2  7  1  1  0  0  0
  3  2  1  0  0  0  0
  4  8  1  0  0  0  0
  4  3  1  0  0  0  0
  5 10  1  6  0  0  0
  5  4  1  0  0  0  0
  5  1  1  0  0  0  0
  9  4  1  0  0  0  0
 11  1  1  0  0  0  0
 12 11  1  0  0  0  0
 13  2  1  0  0  0  0
 13 18  1  0  0  0  0
 14 20  1  0  0  0  0
 15 14  1  0  0  0  0
 15 21  1  0  0  0  0
 16 15  2  0  0  0  0
 17 18  2  0  0  0  0
 17 16  1  0  0  0  0
 18 19  1  0  0  0  0
 19 14  2  0  0  0  0
 22 16  1  0  0  0  0
 23  5  1  0  0  0  0
 25 24  2  0  0  0  0
 25 26  1  0  0  0  0
 26 23  1  1  0  0  0
 27 28  1  0  0  0  0
 27 26  1  0  0  0  0
 29 31  1  0  0  0  0
 29 27  1  0  0  0  0
 30 29  1  0  0  0  0
 31 25  1  0  0  0  0
 32 31  1  0  0  0  0
M  END
>  <minimizedAffinity>
-3.74649882

>  <minimizedRMSD>
0.166895553

$$$$
