
 OpenBabel03272507263D

 37 39  0  0  1  0  0  0  0  0999 V2000
   37.9810   30.5760   48.3230 C   0  0  0  0  0  0  0  0  0  0  0  0
   38.5350   31.0900   47.1370 C   0  0  0  0  0  0  0  0  0  0  0  0
   37.7030   31.1630   46.0160 C   0  0  0  0  0  0  0  0  0  0  0  0
   36.4240   30.7450   46.1180 N   0  0  0  0  0  0  0  0  0  0  0  0
   35.9150   30.2500   47.2830 C   0  0  0  0  0  0  0  0  0  0  0  0
   36.7010   30.1740   48.3680 N   0  0  0  0  0  0  0  0  0  0  0  0
   38.1930   31.6680   44.7940 N   0  0  0  0  0  0  0  0  0  0  0  0
   39.2640   32.6620   44.6670 C   0  0  0  0  0  0  0  0  0  0  0  0
   39.2980   33.0730   43.2320 C   0  0  0  0  0  0  0  0  0  0  0  0
   37.9590   32.6550   42.7370 C   0  0  0  0  0  0  0  0  0  0  0  0
   37.7910   31.3530   43.4750 C   0  0  2  0  0  0  0  0  0  0  0  0
   38.6690   30.5390   49.1650 H   0  0  0  0  0  0  0  0  0  0  0  0
   39.5600   31.4120   47.0970 H   0  0  0  0  0  0  0  0  0  0  0  0
   34.8920   29.9490   47.2510 H   0  0  0  0  0  0  0  0  0  0  0  0
   38.9030   33.5270   45.2970 H   0  0  0  0  0  0  0  0  0  0  0  0
   40.2180   32.3050   45.0770 H   0  0  0  0  0  0  0  0  0  0  0  0
   39.3230   34.1830   43.1810 H   0  0  0  0  0  0  0  0  0  0  0  0
   40.1680   32.7470   42.6520 H   0  0  0  0  0  0  0  0  0  0  0  0
   37.1900   33.4000   42.9290 H   0  0  0  0  0  0  0  0  0  0  0  0
   38.0770   32.4210   41.6440 H   0  0  0  0  0  0  0  0  0  0  0  0
   36.4360   30.7750   43.2690 C   0  0  0  0  0  0  0  0  0  0  0  0
   35.5300   31.7620   43.6370 F   0  0  0  0  0  0  0  0  0  0  0  0
   36.1340   29.6790   44.0130 F   0  0  0  0  0  0  0  0  0  0  0  0
   36.2670   30.5910   41.9140 F   0  0  0  0  0  0  0  0  0  0  0  0
   38.7760   30.3570   42.9500 C   0  0  0  0  0  0  0  0  0  0  0  0
   39.7780   30.8260   42.7120 H   0  0  0  0  0  0  0  0  0  0  0  0
   38.4030   30.0480   41.9460 H   0  0  0  0  0  0  0  0  0  0  0  0
   38.8930   29.4630   43.7900 O   0  0  0  0  0  0  0  0  0  0  0  0
   41.4800   28.8820   42.0810 O   0  0  0  0  0  0  0  0  0  0  0  0
   40.4350   28.2490   42.4110 C   0  0  0  0  0  0  0  0  0  0  0  0
   39.1800   28.2210   43.2450 C   0  0  2  0  0  3  0  0  0  0  0  0
   38.2020   27.7340   42.2260 C   0  0  0  0  0  3  0  0  0  0  0  0
   37.2050   27.4860   42.6150 H   0  0  0  0  0  0  0  0  0  0  0  0
   38.9500   26.4910   41.7380 C   0  0  0  0  0  3  0  0  0  0  0  0
   38.8710   25.7330   42.5150 H   0  0  0  0  0  0  0  0  0  0  0  0
   40.3230   26.9830   41.7300 N   0  0  0  0  0  0  0  0  0  0  0  0
   41.0040   26.3370   41.2320 H   0  0  0  0  0  0  0  0  0  0  0  0
  1  6  1  0  0  0  0
  1 12  1  0  0  0  0
  2  1  2  0  0  0  0
  3  4  2  0  0  0  0
  3  2  1  0  0  0  0
  4  5  1  0  0  0  0
  5  6  2  0  0  0  0
  7  3  1  0  0  0  0
  8  7  1  0  0  0  0
  8 16  1  0  0  0  0
  8 15  1  0  0  0  0
  9  8  1  0  0  0  0
 10 19  1  0  0  0  0
 10  9  1  0  0  0  0
 10 11  1  0  0  0  0
 11 25  1  6  0  0  0
 11  7  1  0  0  0  0
 13  2  1  0  0  0  0
 14  5  1  0  0  0  0
 17  9  1  0  0  0  0
 18  9  1  0  0  0  0
 20 10  1  0  0  0  0
 21 11  1  0  0  0  0
 21 22  1  0  0  0  0
 21 23  1  0  0  0  0
 24 21  1  0  0  0  0
 25 28  1  0  0  0  0
 26 25  1  0  0  0  0
 27 25  1  0  0  0  0
 29 30  2  0  0  0  0
 30 31  1  0  0  0  0
 31 28  1  6  0  0  0
 32 33  1  0  0  0  0
 32 31  1  0  0  0  0
 34 32  1  0  0  0  0
 34 35  1  0  0  0  0
 36 34  1  0  0  0  0
 36 30  1  0  0  0  0
 37 36  1  0  0  0  0
M  END
>  <minimizedAffinity>
-4.46478701

>  <minimizedRMSD>
1.73113286

$$$$
