
 OpenBabel03272506413D

 32 34  0  0  1  0  0  0  0  0999 V2000
   32.3880   28.3550   47.5500 C   0  0  2  0  0  0  0  0  0  0  0  0
   33.6340   28.4200   48.4070 C   0  0  1  0  0  0  0  0  0  0  0  0
   34.1930   27.1640   48.4140 O   0  0  0  0  0  0  0  0  0  0  0  0
   33.5330   26.3640   47.5110 C   0  0  0  0  0  0  0  0  0  0  0  0
   32.8390   27.3090   46.5370 C   0  0  1  0  0  0  0  0  0  0  0  0
   31.5010   27.9660   48.0920 H   0  0  0  0  0  0  0  0  0  0  0  0
   33.4570   28.8240   49.4110 H   0  0  0  0  0  0  0  0  0  0  0  0
   32.7980   25.6640   47.9840 H   0  0  0  0  0  0  0  0  0  0  0  0
   34.2690   25.7120   46.9780 H   0  0  0  0  0  0  0  0  0  0  0  0
   33.5820   27.7290   45.8490 H   0  0  0  0  0  0  0  0  0  0  0  0
   32.1450   29.5880   46.9410 O   0  0  0  0  0  0  0  0  0  0  0  0
   32.9400   29.7860   46.4100 H   0  0  0  0  0  0  0  0  0  0  0  0
   34.8100   29.5270   47.5380 S   0  0  0  0  0  0  0  0  0  0  0  0
   37.4180   29.4880   50.5350 C   0  0  0  0  0  0  0  0  0  0  0  0
   38.0170   30.7600   50.4860 C   0  0  0  0  0  0  0  0  0  0  0  0
   37.6000   31.6480   49.5000 C   0  0  0  0  0  0  0  0  0  0  0  0
   36.6430   31.2580   48.6310 N   0  0  0  0  0  0  0  0  0  0  0  0
   36.0770   30.0260   48.6960 C   0  0  0  0  0  0  0  0  0  0  0  0
   36.4600   29.1510   49.6370 N   0  0  0  0  0  0  0  0  0  0  0  0
   37.6620   28.7250   51.2530 H   0  0  0  0  0  0  0  0  0  0  0  0
   38.7800   30.9690   51.2350 H   0  0  0  0  0  0  0  0  0  0  0  0
   38.0680   32.6240   49.4710 H   0  0  0  0  0  0  0  0  0  0  0  0
   31.7710   26.6790   45.9180 O   0  0  0  0  0  0  0  0  0  0  0  0
   31.9350   24.3140   44.0360 O   0  0  0  0  0  0  0  0  0  0  0  0
   31.5230   25.5180   43.9050 C   0  0  0  0  0  0  0  0  0  0  0  0
   31.7720   26.8390   44.5390 C   0  0  1  0  0  3  0  0  0  0  0  0
   30.5910   27.6460   44.0360 C   0  0  0  0  0  3  0  0  0  0  0  0
   29.6770   27.3340   44.5500 H   0  0  0  0  0  0  0  0  0  0  0  0
   30.4820   27.1390   42.6060 C   0  0  0  0  0  3  0  0  0  0  0  0
   29.5760   27.4520   42.0900 H   0  0  0  0  0  0  0  0  0  0  0  0
   30.5400   25.6920   42.8630 N   0  0  0  0  0  0  0  0  0  0  0  0
   29.9170   25.0350   42.3090 H   0  0  0  0  0  0  0  0  0  0  0  0
  1  6  1  1  0  0  0
  1  2  1  0  0  0  0
  2  3  1  0  0  0  0
  2  7  1  1  0  0  0
  4  8  1  0  0  0  0
  4  3  1  0  0  0  0
  5 10  1  6  0  0  0
  5  4  1  0  0  0  0
  5  1  1  0  0  0  0
  9  4  1  0  0  0  0
 11  1  1  0  0  0  0
 12 11  1  0  0  0  0
 13  2  1  0  0  0  0
 13 18  1  0  0  0  0
 14 20  1  0  0  0  0
 15 14  1  0  0  0  0
 15 21  1  0  0  0  0
 16 15  2  0  0  0  0
 17 18  2  0  0  0  0
 17 16  1  0  0  0  0
 18 19  1  0  0  0  0
 19 14  2  0  0  0  0
 22 16  1  0  0  0  0
 23  5  1  0  0  0  0
 25 24  2  0  0  0  0
 25 26  1  0  0  0  0
 26 23  1  1  0  0  0
 27 26  1  0  0  0  0
 27 28  1  0  0  0  0
 29 31  1  0  0  0  0
 29 27  1  0  0  0  0
 30 29  1  0  0  0  0
 31 25  1  0  0  0  0
 32 31  1  0  0  0  0
M  END
>  <minimizedAffinity>
-3.74461126

>  <minimizedRMSD>
0.138189495

$$$$
