REMARK  Name = 
REMARK  4 active torsions:
REMARK  status: ('A' for Active; 'I' for Inactive)
REMARK    1  A    between atoms: C_11  and  C_12
REMARK    2  A    between atoms: C_11  and  C_16
REMARK    3  A    between atoms: C_16  and  O_17
REMARK    4  A    between atoms: O_17  and  C_31
REMARK                            x       y       z     vdW  Elec       q    Type
REMARK                         _______ _______ _______ _____ _____    ______ ____
ROOT
ATOM      1  C   UNL     1      37.073  30.076  48.944  0.00  0.00    +0.000 A 
ATOM      2  C   UNL     1      38.035  30.720  48.146  0.00  0.00    +0.000 A 
ATOM      3  C   UNL     1      37.684  31.013  46.825  0.00  0.00    +0.000 A 
ATOM      4  N   UNL     1      36.456  30.672  46.379  0.00  0.00    +0.000 NA
ATOM      5  C   UNL     1      35.544  30.047  47.179  0.00  0.00    +0.000 A 
ATOM      6  N   UNL     1      35.867  29.759  48.449  0.00  0.00    +0.000 NA
ATOM      7  N   UNL     1      38.599  31.658  45.968  0.00  0.00    +0.000 N 
ATOM      8  C   UNL     1      39.648  32.586  46.407  0.00  0.00    +0.000 C 
ATOM      9  C   UNL     1      40.220  33.200  45.172  0.00  0.00    +0.000 C 
ATOM     10  C   UNL     1      39.160  32.951  44.158  0.00  0.00    +0.000 C 
ATOM     11  C   UNL     1      38.718  31.569  44.562  0.00  0.00    +0.000 C 
ATOM     12  H   UNL     1      37.395  29.869  49.963  0.00  0.00    +0.000 HD
ATOM     13  H   UNL     1      39.003  30.975  48.539  0.00  0.00    +0.000 HD
ATOM     14  H   UNL     1      34.605  29.823  46.724  0.00  0.00    +0.000 HD
ATOM     15  H   UNL     1      39.084  33.371  46.991  0.00  0.00    +0.000 HD
ATOM     16  H   UNL     1      40.376  32.109  47.076  0.00  0.00    +0.000 HD
ATOM     17  H   UNL     1      40.270  34.301  45.314  0.00  0.00    +0.000 HD
ATOM     18  H   UNL     1      41.241  32.905  44.909  0.00  0.00    +0.000 HD
ATOM     19  H   UNL     1      38.381  33.710  44.171  0.00  0.00    +0.000 HD
ATOM     20  H   UNL     1      39.677  32.873  43.163  0.00  0.00    +0.000 HD
ENDROOT
BRANCH  11  21
ATOM     21  C   UNL     1      37.534  31.120  43.780  0.00  0.00    +0.000 C 
ATOM     22  F   UNL     1      36.557  32.091  43.960  0.00  0.00    +0.000 F 
ATOM     23  F   UNL     1      36.979  29.940  44.161  0.00  0.00    +0.000 F 
ATOM     24  F   UNL     1      37.877  31.169  42.447  0.00  0.00    +0.000 F 
ENDBRANCH  11  21
BRANCH  11  25
ATOM     25  C   UNL     1      39.820  30.596  44.283  0.00  0.00    +0.000 C 
ATOM     26  H   UNL     1      40.805  30.919  44.738  0.00  0.00    +0.000 HD
ATOM     27  H   UNL     1      40.022  30.658  43.188  0.00  0.00    +0.000 HD
BRANCH  25  28
ATOM     28  O   UNL     1      39.471  29.496  44.714  0.00  0.00    +0.000 OA
BRANCH  28  31
ATOM     29  O   UNL     1      42.503  30.080  44.070  0.00  0.00    +0.000 OA
ATOM     30  C   UNL     1      41.760  29.059  44.146  0.00  0.00    +0.000 C 
ATOM     31  C   UNL     1      40.412  28.497  44.517  0.00  0.00    +0.000 C 
ATOM     32  C   UNL     1      40.164  27.616  43.337  0.00  0.00    +0.000 C 
ATOM     33  H   UNL     1      39.284  26.962  43.417  0.00  0.00    +0.000 HD
ATOM     34  C   UNL     1      41.470  26.818  43.343  0.00  0.00    +0.000 C 
ATOM     35  H   UNL     1      41.422  26.114  44.172  0.00  0.00    +0.000 HD
ATOM     36  N   UNL     1      42.426  27.861  43.698  0.00  0.00    +0.000 N 
ATOM     37  H   UNL     1      43.440  27.571  43.569  0.00  0.00    +0.000 HD
ENDBRANCH  28  31
ENDBRANCH  25  28
ENDBRANCH  11  25
TORSDOF 4
