
 OpenBabel03272506423D

 32 34  0  0  1  0  0  0  0  0999 V2000
   32.2410   28.1910   47.5200 C   0  0  2  0  0  0  0  0  0  0  0  0
   33.5000   28.1600   48.3610 C   0  0  1  0  0  0  0  0  0  0  0  0
   34.0830   26.9290   48.1810 O   0  0  0  0  0  0  0  0  0  0  0  0
   33.4250   26.2520   47.1810 C   0  0  0  0  0  0  0  0  0  0  0  0
   32.6970   27.3110   46.3610 C   0  0  1  0  0  0  0  0  0  0  0  0
   31.3710   27.7100   48.0130 H   0  0  0  0  0  0  0  0  0  0  0  0
   33.3310   28.4120   49.4150 H   0  0  0  0  0  0  0  0  0  0  0  0
   32.7120   25.4760   47.5580 H   0  0  0  0  0  0  0  0  0  0  0  0
   34.1650   25.7000   46.5500 H   0  0  0  0  0  0  0  0  0  0  0  0
   33.4200   27.8420   45.7310 H   0  0  0  0  0  0  0  0  0  0  0  0
   31.9650   29.4940   47.0980 O   0  0  0  0  0  0  0  0  0  0  0  0
   32.7470   29.7830   46.5910 H   0  0  0  0  0  0  0  0  0  0  0  0
   34.6390   29.4060   47.6450 S   0  0  0  0  0  0  0  0  0  0  0  0
   37.2250   29.2300   50.6560 C   0  0  0  0  0  0  0  0  0  0  0  0
   37.6400   30.5620   50.8310 C   0  0  0  0  0  0  0  0  0  0  0  0
   37.1040   31.5360   49.9950 C   0  0  0  0  0  0  0  0  0  0  0  0
   36.2110   31.1680   49.0520 N   0  0  0  0  0  0  0  0  0  0  0  0
   35.8240   29.8760   48.9000 C   0  0  0  0  0  0  0  0  0  0  0  0
   36.3240   28.9180   49.6920 N   0  0  0  0  0  0  0  0  0  0  0  0
   37.5730   28.3990   51.2450 H   0  0  0  0  0  0  0  0  0  0  0  0
   38.3650   30.7480   51.6230 H   0  0  0  0  0  0  0  0  0  0  0  0
   37.4300   32.5580   50.1380 H   0  0  0  0  0  0  0  0  0  0  0  0
   31.6310   26.7540   45.6730 O   0  0  0  0  0  0  0  0  0  0  0  0
   29.3650   28.4510   44.5990 O   0  0  0  0  0  0  0  0  0  0  0  0
   30.5600   28.2250   44.2050 C   0  0  0  0  0  0  0  0  0  0  0  0
   31.5780   27.1500   44.3430 C   0  0  1  0  0  3  0  0  0  0  0  0
   32.8380   27.8630   43.8910 C   0  0  0  0  0  3  0  0  0  0  0  0
   33.1690   28.5690   44.6590 H   0  0  0  0  0  0  0  0  0  0  0  0
   32.2990   28.6980   42.7370 C   0  0  0  0  0  3  0  0  0  0  0  0
   32.9980   29.4430   42.3600 H   0  0  0  0  0  0  0  0  0  0  0  0
   31.1220   29.2810   43.3970 N   0  0  0  0  0  0  0  0  0  0  0  0
   30.8650   30.2960   43.2150 H   0  0  0  0  0  0  0  0  0  0  0  0
  1  6  1  1  0  0  0
  1  2  1  0  0  0  0
  2  7  1  1  0  0  0
  3  2  1  0  0  0  0
  4  8  1  0  0  0  0
  4  3  1  0  0  0  0
  5 10  1  6  0  0  0
  5  4  1  0  0  0  0
  5  1  1  0  0  0  0
  9  4  1  0  0  0  0
 11  1  1  0  0  0  0
 12 11  1  0  0  0  0
 13  2  1  0  0  0  0
 13 18  1  0  0  0  0
 14 15  1  0  0  0  0
 14 20  1  0  0  0  0
 15 21  1  0  0  0  0
 16 22  1  0  0  0  0
 16 15  2  0  0  0  0
 17 16  1  0  0  0  0
 18 17  2  0  0  0  0
 18 19  1  0  0  0  0
 19 14  2  0  0  0  0
 23  5  1  0  0  0  0
 25 26  1  0  0  0  0
 25 24  2  0  0  0  0
 26 23  1  1  0  0  0
 27 26  1  0  0  0  0
 27 28  1  0  0  0  0
 29 31  1  0  0  0  0
 29 27  1  0  0  0  0
 30 29  1  0  0  0  0
 31 25  1  0  0  0  0
 32 31  1  0  0  0  0
M  END
>  <minimizedAffinity>
-3.80259275

>  <minimizedRMSD>
0.638099551

$$$$
