
 OpenBabel03272506423D

 32 34  0  0  1  0  0  0  0  0999 V2000
   32.3920   28.3520   47.5310 C   0  0  2  0  0  0  0  0  0  0  0  0
   33.6340   28.4210   48.3950 C   0  0  1  0  0  0  0  0  0  0  0  0
   34.1970   27.1670   48.4020 O   0  0  0  0  0  0  0  0  0  0  0  0
   33.5450   26.3660   47.4940 C   0  0  0  0  0  0  0  0  0  0  0  0
   32.8530   27.3110   46.5180 C   0  0  1  0  0  0  0  0  0  0  0  0
   31.5040   27.9590   48.0680 H   0  0  0  0  0  0  0  0  0  0  0  0
   33.4500   28.8210   49.3990 H   0  0  0  0  0  0  0  0  0  0  0  0
   32.8110   25.6630   47.9610 H   0  0  0  0  0  0  0  0  0  0  0  0
   34.2870   25.7190   46.9630 H   0  0  0  0  0  0  0  0  0  0  0  0
   33.5970   27.7360   45.8350 H   0  0  0  0  0  0  0  0  0  0  0  0
   32.1480   29.5860   46.9240 O   0  0  0  0  0  0  0  0  0  0  0  0
   32.9450   29.7890   46.3980 H   0  0  0  0  0  0  0  0  0  0  0  0
   34.8090   29.5350   47.5340 S   0  0  0  0  0  0  0  0  0  0  0  0
   37.4070   29.4840   50.5400 C   0  0  0  0  0  0  0  0  0  0  0  0
   38.0090   30.7540   50.4960 C   0  0  0  0  0  0  0  0  0  0  0  0
   37.5980   31.6460   49.5100 C   0  0  0  0  0  0  0  0  0  0  0  0
   36.6430   31.2590   48.6380 N   0  0  0  0  0  0  0  0  0  0  0  0
   36.0740   30.0280   48.6980 C   0  0  0  0  0  0  0  0  0  0  0  0
   36.4510   29.1500   49.6380 N   0  0  0  0  0  0  0  0  0  0  0  0
   37.6470   28.7180   51.2580 H   0  0  0  0  0  0  0  0  0  0  0  0
   38.7700   30.9610   51.2480 H   0  0  0  0  0  0  0  0  0  0  0  0
   38.0680   32.6200   49.4850 H   0  0  0  0  0  0  0  0  0  0  0  0
   31.7900   26.6790   45.8920 O   0  0  0  0  0  0  0  0  0  0  0  0
   31.3880   24.2310   44.1570 O   0  0  0  0  0  0  0  0  0  0  0  0
   31.2980   25.4880   43.9420 C   0  0  0  0  0  0  0  0  0  0  0  0
   31.8610   26.7420   44.5070 C   0  0  1  0  0  3  0  0  0  0  0  0
   30.9320   27.7860   43.9160 C   0  0  0  0  0  3  0  0  0  0  0  0
   29.9590   27.7480   44.4130 H   0  0  0  0  0  0  0  0  0  0  0  0
   30.7290   27.2310   42.5140 C   0  0  0  0  0  3  0  0  0  0  0  0
   29.9420   27.7270   41.9480 H   0  0  0  0  0  0  0  0  0  0  0  0
   30.4130   25.8370   42.8570 N   0  0  0  0  0  0  0  0  0  0  0  0
   29.6550   25.3210   42.3180 H   0  0  0  0  0  0  0  0  0  0  0  0
  1  6  1  1  0  0  0
  1  2  1  0  0  0  0
  2  3  1  0  0  0  0
  2  7  1  1  0  0  0
  4  8  1  0  0  0  0
  4  3  1  0  0  0  0
  5 10  1  6  0  0  0
  5  4  1  0  0  0  0
  5  1  1  0  0  0  0
  9  4  1  0  0  0  0
 11  1  1  0  0  0  0
 12 11  1  0  0  0  0
 13  2  1  0  0  0  0
 13 18  1  0  0  0  0
 14 20  1  0  0  0  0
 15 14  1  0  0  0  0
 15 21  1  0  0  0  0
 16 15  2  0  0  0  0
 17 18  2  0  0  0  0
 17 16  1  0  0  0  0
 18 19  1  0  0  0  0
 19 14  2  0  0  0  0
 22 16  1  0  0  0  0
 23  5  1  0  0  0  0
 25 24  2  0  0  0  0
 25 26  1  0  0  0  0
 26 23  1  1  0  0  0
 27 28  1  0  0  0  0
 27 26  1  0  0  0  0
 29 31  1  0  0  0  0
 29 27  1  0  0  0  0
 30 29  1  0  0  0  0
 31 25  1  0  0  0  0
 32 31  1  0  0  0  0
M  END
>  <minimizedAffinity>
-3.74039888

>  <minimizedRMSD>
0.111408427

$$$$
