
 OpenBabel03272504223D

 39 41  0  0  1  0  0  0  0  0999 V2000
   38.7810   32.3620   47.7470 C   0  0  2  0  0  0  0  0  0  0  0  0
   38.2080   31.3670   48.7150 C   0  0  1  0  0  0  0  0  0  0  0  0
   38.8020   31.9590   50.0020 C   0  0  0  0  0  0  0  0  0  0  0  0
   38.4800   33.2870   49.8760 O   0  0  0  0  0  0  0  0  0  0  0  0
   38.6270   33.6600   48.5660 C   0  0  0  0  0  0  0  0  0  0  0  0
   39.8360   32.1720   47.5330 H   0  0  0  0  0  0  0  0  0  0  0  0
   38.5020   30.3340   48.5420 H   0  0  0  0  0  0  0  0  0  0  0  0
   39.8840   31.7410   50.0500 H   0  0  0  0  0  0  0  0  0  0  0  0
   38.2740   31.5460   50.8890 H   0  0  0  0  0  0  0  0  0  0  0  0
   39.5130   34.2780   48.3750 H   0  0  0  0  0  0  0  0  0  0  0  0
   37.6670   34.1560   48.2500 H   0  0  0  0  0  0  0  0  0  0  0  0
   36.8310   31.5850   48.7350 O   0  0  0  0  0  0  0  0  0  0  0  0
   35.8560   29.8700   47.0510 O   0  0  0  0  0  0  0  0  0  0  0  0
   35.9430   30.1760   48.5130 P   0  0  1  0  0  0  0  0  0  0  0  0
   36.7470   28.8720   49.2870 O   0  0  0  0  0  0  0  0  0  0  0  0
   37.0970   29.2040   50.1460 H   0  0  0  0  0  0  0  0  0  0  0  0
   34.3910   30.3400   49.1670 O   0  0  0  0  0  0  0  0  0  0  0  0
   34.1200   29.1820   49.8830 C   0  0  0  0  0  0  0  0  0  0  0  0
   35.0300   28.6860   50.2490 H   0  0  0  0  0  0  0  0  0  0  0  0
   33.5370   29.5200   50.7830 H   0  0  0  0  0  0  0  0  0  0  0  0
   33.2610   28.2360   49.1350 C   0  0  0  0  0  0  0  0  0  0  0  0
   33.8920   27.3490   48.2940 C   0  0  0  0  0  0  0  0  0  0  0  0
   33.1300   26.4340   47.5650 C   0  0  0  0  0  0  0  0  0  0  0  0
   31.7790   26.4790   47.7360 N   0  0  0  0  0  0  0  0  0  0  0  0
   31.1790   27.3540   48.5630 C   0  0  0  0  0  0  0  0  0  0  0  0
   31.9190   28.2340   49.2650 N   0  0  0  0  0  0  0  0  0  0  0  0
   34.9380   27.2450   48.1010 H   0  0  0  0  0  0  0  0  0  0  0  0
   33.5510   25.7050   46.8840 H   0  0  0  0  0  0  0  0  0  0  0  0
   30.1060   27.3340   48.6510 H   0  0  0  0  0  0  0  0  0  0  0  0
   37.9900   32.3810   46.5970 O   0  0  0  0  0  0  0  0  0  0  0  0
   40.1530   34.2470   45.0380 O   0  0  0  0  0  0  0  0  0  0  0  0
   39.6810   33.0580   45.0210 C   0  0  0  0  0  0  0  0  0  0  0  0
   38.7040   32.0320   45.4670 C   0  0  1  0  0  0  0  0  0  0  0  0
   39.6760   30.8800   45.7600 C   0  0  0  0  0  0  0  0  0  0  0  0
   40.3660   31.2010   46.5550 H   0  0  0  0  0  0  0  0  0  0  0  0
   40.4070   30.8370   44.4210 C   0  0  0  0  0  0  0  0  0  0  0  0
   41.4030   30.3690   44.5200 H   0  0  0  0  0  0  0  0  0  0  0  0
   40.4810   32.2690   44.1100 N   0  0  0  0  0  0  0  0  0  0  0  0
   41.1150   32.4340   43.2700 H   0  0  0  0  0  0  0  0  0  0  0  0
  1  6  1  6  0  0  0
  1  5  1  0  0  0  0
  1  2  1  0  0  0  0
  2  7  1  6  0  0  0
  2 12  1  0  0  0  0
  2  3  1  0  0  0  0
  3  8  1  0  0  0  0
  3  9  1  0  0  0  0
  4  3  1  0  0  0  0
  5  4  1  0  0  0  0
 10  5  1  0  0  0  0
 11  5  1  0  0  0  0
 14 13  2  6  0  0  0
 14 12  1  0  0  0  0
 14 17  1  0  0  0  0
 14 15  1  0  0  0  0
 15 16  1  0  0  0  0
 17 18  1  0  0  0  0
 18 19  1  0  0  0  0
 18 20  1  0  0  0  0
 21 26  1  0  0  0  0
 21 18  1  0  0  0  0
 22 21  2  0  0  0  0
 23 24  2  0  0  0  0
 23 22  1  0  0  0  0
 24 25  1  0  0  0  0
 25 29  1  0  0  0  0
 25 26  2  0  0  0  0
 27 22  1  0  0  0  0
 28 23  1  0  0  0  0
 30  1  1  0  0  0  0
 32 31  2  0  0  0  0
 32 33  1  0  0  0  0
 33 34  1  0  0  0  0
 33 30  1  1  0  0  0
 34 35  1  0  0  0  0
 36 37  1  0  0  0  0
 36 34  1  0  0  0  0
 38 36  1  0  0  0  0
 38 32  1  0  0  0  0
 39 38  1  0  0  0  0
M  END
>  <minimizedAffinity>
-4.92313671

>  <minimizedRMSD>
0.484644443

$$$$
