REMARK  Name = 
REMARK  5 active torsions:
REMARK  status: ('A' for Active; 'I' for Inactive)
REMARK    1  A    between atoms: S_1  and  C_6
REMARK    2  A    between atoms: S_1  and  C_9
REMARK    3  A    between atoms: C_8  and  O_13
REMARK    4  A    between atoms: C_12  and  O_14
REMARK    5  A    between atoms: O_14  and  C_26
REMARK                            x       y       z     vdW  Elec       q    Type
REMARK                         _______ _______ _______ _____ _____    ______ ____
ROOT
ATOM      1  C   UNL     1      32.386  28.351  47.484  0.00  0.00    +0.000 C 
ATOM      2  C   UNL     1      33.625  28.409  48.353  0.00  0.00    +0.000 C 
ATOM      3  O   UNL     1      34.192  27.157  48.342  0.00  0.00    +0.000 OA
ATOM      4  C   UNL     1      33.545  26.369  47.419  0.00  0.00    +0.000 C 
ATOM      5  C   UNL     1      32.853  27.327  46.456  0.00  0.00    +0.000 C 
ATOM      6  H   UNL     1      31.497  27.947  48.012  0.00  0.00    +0.000 HD
ATOM      7  H   UNL     1      33.437  28.793  49.363  0.00  0.00    +0.000 HD
ATOM      8  H   UNL     1      32.811  25.656  47.873  0.00  0.00    +0.000 HD
ATOM      9  H   UNL     1      34.290  25.732  46.880  0.00  0.00    +0.000 HD
ATOM     10  H   UNL     1      33.598  27.765  45.782  0.00  0.00    +0.000 HD
ENDROOT
BRANCH   1  11
ATOM     11  O   UNL     1      32.140  29.594  46.896  0.00  0.00    +0.000 OA
ATOM     12  H   UNL     1      32.938  29.807  46.376  0.00  0.00    +0.000 HD
ENDBRANCH   1  11
BRANCH   2  13
ATOM     13  S   UNL     1      34.800  29.540  47.514  0.00  0.00    +0.000 S 
BRANCH  13  18
ATOM     14  C   UNL     1      37.371  29.468  50.542  0.00  0.00    +0.000 A 
ATOM     15  C   UNL     1      37.975  30.738  50.511  0.00  0.00    +0.000 A 
ATOM     16  C   UNL     1      37.573  31.636  49.527  0.00  0.00    +0.000 A 
ATOM     17  N   UNL     1      36.625  31.256  48.644  0.00  0.00    +0.000 NA
ATOM     18  C   UNL     1      36.055  30.025  48.692  0.00  0.00    +0.000 A 
ATOM     19  N   UNL     1      36.423  29.141  49.630  0.00  0.00    +0.000 NA
ATOM     20  H   UNL     1      37.604  28.698  51.257  0.00  0.00    +0.000 HD
ATOM     21  H   UNL     1      38.729  30.939  51.271  0.00  0.00    +0.000 HD
ATOM     22  H   UNL     1      38.044  32.610  49.512  0.00  0.00    +0.000 HD
ENDBRANCH  13  18
ENDBRANCH   2  13
BRANCH   5  23
ATOM     23  O   UNL     1      31.794  26.702  45.817  0.00  0.00    +0.000 OA
BRANCH  23  26
ATOM     24  O   UNL     1      33.779  28.511  44.421  0.00  0.00    +0.000 OA
ATOM     25  C   UNL     1      33.148  27.457  44.068  0.00  0.00    +0.000 C 
ATOM     26  C   UNL     1      31.888  26.756  44.433  0.00  0.00    +0.000 C 
ATOM     27  C   UNL     1      32.104  25.395  43.803  0.00  0.00    +0.000 C 
ATOM     28  H   UNL     1      32.838  24.825  44.380  0.00  0.00    +0.000 HD
ATOM     29  C   UNL     1      32.782  25.783  42.497  0.00  0.00    +0.000 C 
ATOM     30  H   UNL     1      33.200  24.944  41.944  0.00  0.00    +0.000 HD
ATOM     31  N   UNL     1      33.801  26.702  43.026  0.00  0.00    +0.000 N 
ATOM     32  H   UNL     1      34.782  26.692  42.617  0.00  0.00    +0.000 HD
ENDBRANCH  23  26
ENDBRANCH   5  23
TORSDOF 5
