REMARK  Name = 
REMARK  9 active torsions:
REMARK  status: ('A' for Active; 'I' for Inactive)
REMARK    1  A    between atoms: C_3  and  C_12
REMARK    2  A    between atoms: C_7  and  C_15
REMARK    3  A    between atoms: C_10  and  N_14
REMARK    4  A    between atoms: C_15  and  C_16
REMARK    5  A    between atoms: C_16  and  O_17
REMARK    6  A    between atoms: O_17  and  P_19
REMARK    7  A    between atoms: P_19  and  O_20
REMARK    8  A    between atoms: P_19  and  O_21
REMARK    9  A    between atoms: O_21  and  C_36
REMARK                            x       y       z     vdW  Elec       q    Type
REMARK                         _______ _______ _______ _____ _____    ______ ____
ROOT
ATOM      1 CL   UNL     1      37.650  30.460  48.519  0.00  0.00    +0.000 Cl
ATOM      2  C   UNL     1      36.481  30.308  47.207  0.00  0.00    +0.000 A 
ATOM      3  C   UNL     1      36.836  30.697  45.952  0.00  0.00    +0.000 A 
ATOM      4  C   UNL     1      35.940  30.584  44.925  0.00  0.00    +0.000 A 
ATOM      5  C   UNL     1      34.682  30.073  45.186  0.00  0.00    +0.000 A 
ATOM      6  C   UNL     1      34.368  29.689  46.491  0.00  0.00    +0.000 A 
ATOM      7  C   UNL     1      35.248  29.794  47.527  0.00  0.00    +0.000 A 
ATOM      8  H   UNL     1      36.261  30.907  43.926  0.00  0.00    +0.000 HD
ATOM      9  H   UNL     1      34.054  30.027  44.304  0.00  0.00    +0.000 HD
ATOM     10  H   UNL     1      33.397  29.337  46.485  0.00  0.00    +0.000 HD
ENDROOT
BRANCH   3  15
ATOM     11  C   UNL     1      39.851  32.832  45.962  0.00  0.00    +0.000 A 
ATOM     12  C   UNL     1      40.702  32.106  45.086  0.00  0.00    +0.000 A 
ATOM     13  C   UNL     1      40.208  30.927  44.536  0.00  0.00    +0.000 A 
ATOM     14  N   UNL     1      38.950  30.517  44.850  0.00  0.00    +0.000 NA
ATOM     15  C   UNL     1      38.166  31.235  45.690  0.00  0.00    +0.000 A 
ATOM     16  N   UNL     1      38.622  32.370  46.228  0.00  0.00    +0.000 NA
ATOM     17  H   UNL     1      40.215  33.755  46.404  0.00  0.00    +0.000 HD
ATOM     18  H   UNL     1      41.689  32.510  44.894  0.00  0.00    +0.000 HD
BRANCH  13  19
ATOM     19  N   UNL     1      41.072  30.223  43.666  0.00  0.00    +0.000 N 
ATOM     20  H   UNL     1      41.448  30.465  42.710  0.00  0.00    +0.000 HD
ATOM     21  H   UNL     1      41.309  29.339  44.154  0.00  0.00    +0.000 HD
ENDBRANCH  13  19
ENDBRANCH   3  15
BRANCH   7  22
ATOM     22  C   UNL     1      34.904  29.397  48.875  0.00  0.00    +0.000 C 
ATOM     23  H   UNL     1      35.823  29.401  49.498  0.00  0.00    +0.000 HD
ATOM     24  H   UNL     1      34.288  30.239  49.311  0.00  0.00    +0.000 HD
BRANCH  22  25
ATOM     25  C   UNL     1      34.197  28.139  49.090  0.00  0.00    +0.000 C 
ATOM     26  H   UNL     1      34.658  27.504  49.882  0.00  0.00    +0.000 HD
ATOM     27  H   UNL     1      34.250  27.522  48.157  0.00  0.00    +0.000 HD
BRANCH  25  28
ATOM     28  O   UNL     1      32.885  28.343  49.433  0.00  0.00    +0.000 OA
BRANCH  28  30
ATOM     29  O   UNL     1      32.626  26.607  47.471  0.00  0.00    +0.000 OA
ATOM     30  P   UNL     1      31.864  27.560  48.358  0.00  0.00    +0.000 P 
BRANCH  30  31
ATOM     31  O   UNL     1      31.102  28.785  47.428  0.00  0.00    +0.000 OA
ATOM     32  H   UNL     1      30.922  29.535  48.022  0.00  0.00    +0.000 HD
ENDBRANCH  30  31
BRANCH  30  33
ATOM     33  O   UNL     1      30.660  26.702  49.131  0.00  0.00    +0.000 OA
BRANCH  33  36
ATOM     34  O   UNL     1      27.541  25.795  49.242  0.00  0.00    +0.000 OA
ATOM     35  C   UNL     1      28.396  26.580  48.728  0.00  0.00    +0.000 C 
ATOM     36  C   UNL     1      29.766  26.227  48.208  0.00  0.00    +0.000 C 
ATOM     37  C   UNL     1      29.811  27.108  46.983  0.00  0.00    +0.000 C 
ATOM     38  H   UNL     1      29.047  26.782  46.219  0.00  0.00    +0.000 HD
ATOM     39  C   UNL     1      29.274  28.420  47.554  0.00  0.00    +0.000 C 
ATOM     40  H   UNL     1      28.762  29.021  46.777  0.00  0.00    +0.000 HD
ATOM     41  N   UNL     1      28.277  27.983  48.516  0.00  0.00    +0.000 N 
ATOM     42  H   UNL     1      27.575  28.593  48.988  0.00  0.00    +0.000 HD
ENDBRANCH  33  36
ENDBRANCH  30  33
ENDBRANCH  28  30
ENDBRANCH  25  28
ENDBRANCH  22  25
ENDBRANCH   7  22
TORSDOF 9
