
     RDKit          3D

 18 18  0  0  0  0  0  0  0  0999 V2000
   37.3033   29.9904   51.1864 C   0  0  0  0  0  0  0  0  0  0  0  0
   37.9494   30.9178   50.3508 C   0  0  0  0  0  0  0  0  0  0  0  0
   37.2732   31.3865   49.2339 C   0  0  0  0  0  0  0  0  0  0  0  0
   36.0182   30.9297   48.9965 N   0  0  0  0  0  0  0  0  0  0  0  0
   35.4095   30.0324   49.8164 C   0  0  0  0  0  0  0  0  0  0  0  0
   36.0536   29.5765   50.8933 N   0  0  0  0  0  0  0  0  0  0  0  0
   38.0867   29.6106   52.2546 O   0  0  0  0  0  0  0  0  0  0  0  0
   38.9513   31.3024   50.5129 H   0  0  0  0  0  0  0  0  0  0  0  0
   37.7072   32.0945   48.5550 H   0  0  0  0  0  0  0  0  0  0  0  0
   38.3493   28.6338   52.3065 H   0  0  0  0  0  0  0  0  0  0  0  0
   34.0604   29.5525   49.5457 C   0  0  0  0  0  0  0  0  0  0  0  0
   33.0022   29.9583   50.2315 C   0  0  0  0  0  0  0  0  0  0  0  0
   31.6300   29.4285   49.9082 C   0  0  0  0  0  0  0  0  0  0  0  0
   30.8824   30.2063   50.0927 H   0  0  0  0  0  0  0  0  0  0  0  0
   33.9127   28.8279   48.7445 H   0  0  0  0  0  0  0  0  0  0  0  0
   33.1181   30.6777   51.0333 H   0  0  0  0  0  0  0  0  0  0  0  0
   31.4761   28.5927   50.6281 H   0  0  0  0  0  0  0  0  0  0  0  0
   31.6071   29.0668   48.8636 H   0  0  0  0  0  0  0  0  0  0  0  0
  1  7  1  0
  2  1  2  0
  3  2  1  0
  4  3  2  0
  4  5  1  0
  5  6  2  0
  6  1  1  0
  2  8  1  0
  3  9  1  0
  7 10  1  0
 11 12  2  3
 12 13  1  0
 13 14  1  0
 11 15  1  0
 12 16  1  0
 13 17  1  0
 13 18  1  0
  5 11  1  0
M  ISO  4   8  14   9  14  10   3  14   8
M  END
>  <DihAtoms>  (1) 
3,4,10,11

>  <DihDeg>  (1) 
-179.99914076284838

$$$$
