
 OpenBabel03272505563D

 29 30  0  0  1  0  0  0  0  0999 V2000
   37.8750   26.1650   33.4120 C   0  0  2  0  0  0  0  0  0  0  0  0
   38.6320   25.1020   34.1820 C   0  0  0  0  0  0  0  0  0  0  0  0
   38.2790   25.0720   35.6390 C   0  0  2  0  0  0  0  0  0  0  0  0
   38.4220   26.4130   36.3150 C   0  0  0  0  0  0  0  0  0  0  0  0
   37.9540   27.5570   35.4680 C   0  0  0  0  0  0  0  0  0  0  0  0
   37.1120   27.0910   34.2960 C   0  0  0  0  0  0  0  0  0  0  0  0
   38.6070   26.7220   32.8020 H   0  0  0  0  0  0  0  0  0  0  0  0
   38.3870   24.1250   33.7620 H   0  0  0  0  0  0  0  0  0  0  0  0
   39.7210   25.2670   34.1170 H   0  0  0  0  0  0  0  0  0  0  0  0
   37.2410   24.6990   35.7210 H   0  0  0  0  0  0  0  0  0  0  0  0
   37.7200   26.3790   37.1950 H   0  0  0  0  0  0  0  0  0  0  0  0
   39.4280   26.5570   36.7520 H   0  0  0  0  0  0  0  0  0  0  0  0
   37.4360   28.3530   36.0180 H   0  0  0  0  0  0  0  0  0  0  0  0
   38.8850   27.9850   34.9930 H   0  0  0  0  0  0  0  0  0  0  0  0
   36.2150   26.6030   34.7380 H   0  0  0  0  0  0  0  0  0  0  0  0
   36.7920   27.9920   33.7610 H   0  0  0  0  0  0  0  0  0  0  0  0
   36.9080   25.5190   32.4760 C   0  0  0  0  0  0  0  0  0  0  0  0
   37.0040   24.1220   32.3500 C   0  0  0  0  0  0  0  0  0  0  0  0
   36.1120   23.5090   31.4690 C   0  0  0  0  0  0  0  0  0  0  0  0
   35.2040   24.2910   30.7840 N   0  0  0  0  0  0  0  0  0  0  0  0
   35.1490   25.6320   30.9370 C   0  0  0  0  0  0  0  0  0  0  0  0
   36.0070   26.2240   31.7860 N   0  0  0  0  0  0  0  0  0  0  0  0
   37.6840   23.4720   32.8510 H   0  0  0  0  0  0  0  0  0  0  0  0
   36.1320   22.4350   31.3250 H   0  0  0  0  0  0  0  0  0  0  0  0
   34.4020   26.1510   30.3540 H   0  0  0  0  0  0  0  0  0  0  0  0
   39.2720   24.1780   36.3030 C   0  0  0  0  0  3  0  0  0  0  0  0
   38.9930   23.3400   37.2840 C   0  0  0  0  0  3  0  0  0  0  0  0
   37.5930   23.2770   37.7680 C   0  0  0  0  0  2  0  0  0  0  0  0
   36.9270   23.1260   36.8900 H   0  0  0  0  0  0  0  0  0  0  0  0
  1  7  1  6  0  0  0
  1  2  1  0  0  0  0
  1  6  1  0  0  0  0
  2  3  1  0  0  0  0
  3 10  1  1  0  0  0
  3 26  1  0  0  0  0
  3  4  1  0  0  0  0
  4 12  1  0  0  0  0
  4 11  1  0  0  0  0
  5 13  1  0  0  0  0
  5  4  1  0  0  0  0
  6 15  1  0  0  0  0
  6  5  1  0  0  0  0
  8  2  1  0  0  0  0
  9  2  1  0  0  0  0
 14  5  1  0  0  0  0
 16  6  1  0  0  0  0
 17  1  1  0  0  0  0
 18 17  1  0  0  0  0
 18 23  1  0  0  0  0
 19 18  2  0  0  0  0
 20 21  2  0  0  0  0
 20 19  1  0  0  0  0
 21 22  1  0  0  0  0
 22 17  2  0  0  0  0
 24 19  1  0  0  0  0
 25 21  1  0  0  0  0
 26 27  2  0  0  0  0
 27 28  1  0  0  0  0
 29 28  1  0  0  0  0
M  END
>  <minimizedAffinity>
-4.51885366

$$$$

 OpenBabel03272505563D

 29 30  0  0  1  0  0  0  0  0999 V2000
   37.4740   26.9310   33.2080 C   0  0  2  0  0  0  0  0  0  0  0  0
   38.9750   26.7150   33.1860 C   0  0  0  0  0  0  0  0  0  0  0  0
   39.5280   26.3200   34.5220 C   0  0  2  0  0  0  0  0  0  0  0  0
   39.1500   27.2700   35.6290 C   0  0  0  0  0  0  0  0  0  0  0  0
   37.7370   27.7600   35.5350 C   0  0  0  0  0  0  0  0  0  0  0  0
   36.9050   26.9190   34.5850 C   0  0  0  0  0  0  0  0  0  0  0  0
   37.2670   27.8930   32.7070 H   0  0  0  0  0  0  0  0  0  0  0  0
   39.2020   25.9130   32.4820 H   0  0  0  0  0  0  0  0  0  0  0  0
   39.5010   27.6350   32.8770 H   0  0  0  0  0  0  0  0  0  0  0  0
   39.1660   25.2970   34.7400 H   0  0  0  0  0  0  0  0  0  0  0  0
   39.1970   26.6600   36.5750 H   0  0  0  0  0  0  0  0  0  0  0  0
   39.8980   28.0740   35.7660 H   0  0  0  0  0  0  0  0  0  0  0  0
   37.2230   27.8670   36.4990 H   0  0  0  0  0  0  0  0  0  0  0  0
   37.7980   28.7710   35.0360 H   0  0  0  0  0  0  0  0  0  0  0  0
   36.8850   25.8950   35.0200 H   0  0  0  0  0  0  0  0  0  0  0  0
   35.8900   27.3300   34.6090 H   0  0  0  0  0  0  0  0  0  0  0  0
   36.7980   25.8590   32.4200 C   0  0  0  0  0  0  0  0  0  0  0  0
   35.7780   26.2780   31.5470 C   0  0  0  0  0  0  0  0  0  0  0  0
   35.1320   25.2820   30.8130 C   0  0  0  0  0  0  0  0  0  0  0  0
   35.5210   23.9680   30.9810 N   0  0  0  0  0  0  0  0  0  0  0  0
   36.5080   23.6130   31.8310 C   0  0  0  0  0  0  0  0  0  0  0  0
   37.1320   24.5710   32.5390 N   0  0  0  0  0  0  0  0  0  0  0  0
   35.4370   27.2740   31.3820 H   0  0  0  0  0  0  0  0  0  0  0  0
   34.3360   25.5370   30.1230 H   0  0  0  0  0  0  0  0  0  0  0  0
   36.7350   22.5580   31.8880 H   0  0  0  0  0  0  0  0  0  0  0  0
   41.0140   26.3990   34.4110 C   0  0  0  0  0  3  0  0  0  0  0  0
   41.8460   25.4270   34.7340 C   0  0  0  0  0  3  0  0  0  0  0  0
   41.2710   24.1600   35.2450 C   0  0  0  0  0  2  0  0  0  0  0  0
   40.4900   23.8180   34.5310 H   0  0  0  0  0  0  0  0  0  0  0  0
  1  7  1  6  0  0  0
  1  6  1  0  0  0  0
  2  1  1  0  0  0  0
  2  3  1  0  0  0  0
  3 10  1  1  0  0  0
  3  4  1  0  0  0  0
  4 12  1  0  0  0  0
  4 11  1  0  0  0  0
  5  4  1  0  0  0  0
  5 13  1  0  0  0  0
  6 16  1  0  0  0  0
  6 15  1  0  0  0  0
  6  5  1  0  0  0  0
  8  2  1  0  0  0  0
  9  2  1  0  0  0  0
 14  5  1  0  0  0  0
 17 22  1  0  0  0  0
 17  1  1  0  0  0  0
 18 17  2  0  0  0  0
 19 20  2  0  0  0  0
 19 18  1  0  0  0  0
 20 21  1  0  0  0  0
 21 25  1  0  0  0  0
 21 22  2  0  0  0  0
 23 18  1  0  0  0  0
 24 19  1  0  0  0  0
 26  3  1  0  0  0  0
 26 27  2  0  0  0  0
 27 28  1  0  0  0  0
 29 28  1  0  0  0  0
M  END
>  <minimizedAffinity>
-4.48805809

$$$$

 OpenBabel03272505563D

 29 30  0  0  1  0  0  0  0  0999 V2000
   39.7450   22.3910   36.5100 C   0  0  2  0  0  0  0  0  0  0  0  0
   38.8900   23.3390   35.6930 C   0  0  0  0  0  0  0  0  0  0  0  0
   38.5830   24.6170   36.4130 C   0  0  2  0  0  0  0  0  0  0  0  0
   37.9740   24.4030   37.7760 C   0  0  0  0  0  0  0  0  0  0  0  0
   38.5920   23.2650   38.5290 C   0  0  0  0  0  0  0  0  0  0  0  0
   39.9130   22.8310   37.9240 C   0  0  0  0  0  0  0  0  0  0  0  0
   39.2750   21.3920   36.4650 H   0  0  0  0  0  0  0  0  0  0  0  0
   39.4280   23.5940   34.7780 H   0  0  0  0  0  0  0  0  0  0  0  0
   37.9230   22.8740   35.4320 H   0  0  0  0  0  0  0  0  0  0  0  0
   39.5270   25.1890   36.4890 H   0  0  0  0  0  0  0  0  0  0  0  0
   38.2270   25.3290   38.3640 H   0  0  0  0  0  0  0  0  0  0  0  0
   36.8690   24.3740   37.7420 H   0  0  0  0  0  0  0  0  0  0  0  0
   38.7050   23.4360   39.6080 H   0  0  0  0  0  0  0  0  0  0  0  0
   37.9050   22.3840   38.3670 H   0  0  0  0  0  0  0  0  0  0  0  0
   40.5930   23.7090   38.0100 H   0  0  0  0  0  0  0  0  0  0  0  0
   40.3000   22.0260   38.5570 H   0  0  0  0  0  0  0  0  0  0  0  0
   41.1010   22.2770   35.8970 C   0  0  0  0  0  0  0  0  0  0  0  0
   42.1730   22.7660   36.6640 C   0  0  0  0  0  0  0  0  0  0  0  0
   43.4450   22.6740   36.0940 C   0  0  0  0  0  0  0  0  0  0  0  0
   43.5760   22.1210   34.8370 N   0  0  0  0  0  0  0  0  0  0  0  0
   42.5150   21.6640   34.1370 C   0  0  0  0  0  0  0  0  0  0  0  0
   41.2900   21.7510   34.6840 N   0  0  0  0  0  0  0  0  0  0  0  0
   42.1290   23.2030   37.6350 H   0  0  0  0  0  0  0  0  0  0  0  0
   44.3140   23.0330   36.6320 H   0  0  0  0  0  0  0  0  0  0  0  0
   42.7270   21.2500   33.1620 H   0  0  0  0  0  0  0  0  0  0  0  0
   37.5400   25.3210   35.6110 C   0  0  0  0  0  3  0  0  0  0  0  0
   37.5960   26.5900   35.2520 C   0  0  0  0  0  3  0  0  0  0  0  0
   38.7770   27.3810   35.6710 C   0  0  0  0  0  2  0  0  0  0  0  0
   39.6930   26.8240   35.3740 H   0  0  0  0  0  0  0  0  0  0  0  0
  1  7  1  6  0  0  0
  1  6  1  0  0  0  0
  2  3  1  0  0  0  0
  2  1  1  0  0  0  0
  3 10  1  1  0  0  0
  3  4  1  0  0  0  0
  4 11  1  0  0  0  0
  4  5  1  0  0  0  0
  5 13  1  0  0  0  0
  6 15  1  0  0  0  0
  6  5  1  0  0  0  0
  6 16  1  0  0  0  0
  8  2  1  0  0  0  0
  9  2  1  0  0  0  0
 12  4  1  0  0  0  0
 14  5  1  0  0  0  0
 17  1  1  0  0  0  0
 17 18  1  0  0  0  0
 18 23  1  0  0  0  0
 19 24  1  0  0  0  0
 19 18  2  0  0  0  0
 20 19  1  0  0  0  0
 21 22  1  0  0  0  0
 21 20  2  0  0  0  0
 22 17  2  0  0  0  0
 25 21  1  0  0  0  0
 26  3  1  0  0  0  0
 27 26  2  0  0  0  0
 27 28  1  0  0  0  0
 29 28  1  0  0  0  0
M  END
>  <minimizedAffinity>
-4.45435047

$$$$

 OpenBabel03272505563D

 29 30  0  0  1  0  0  0  0  0999 V2000
   35.9670   27.8170   31.6180 C   0  0  2  0  0  0  0  0  0  0  0  0
   36.3920   28.1020   33.0450 C   0  0  0  0  0  0  0  0  0  0  0  0
   37.4810   27.1900   33.5240 C   0  0  2  0  0  0  0  0  0  0  0  0
   37.1530   25.7290   33.3560 C   0  0  0  0  0  0  0  0  0  0  0  0
   36.4510   25.4220   32.0680 C   0  0  0  0  0  0  0  0  0  0  0  0
   36.5610   26.5630   31.0740 C   0  0  0  0  0  0  0  0  0  0  0  0
   34.8640   27.7670   31.6010 H   0  0  0  0  0  0  0  0  0  0  0  0
   36.7680   29.1250   33.0990 H   0  0  0  0  0  0  0  0  0  0  0  0
   35.5430   27.9850   33.7410 H   0  0  0  0  0  0  0  0  0  0  0  0
   38.4020   27.4530   32.9680 H   0  0  0  0  0  0  0  0  0  0  0  0
   38.1480   25.2050   33.2910 H   0  0  0  0  0  0  0  0  0  0  0  0
   36.6600   25.3040   34.2500 H   0  0  0  0  0  0  0  0  0  0  0  0
   36.7480   24.4760   31.5970 H   0  0  0  0  0  0  0  0  0  0  0  0
   35.3520   25.3760   32.3240 H   0  0  0  0  0  0  0  0  0  0  0  0
   37.6460   26.6750   30.8550 H   0  0  0  0  0  0  0  0  0  0  0  0
   36.0520   26.2340   30.1610 H   0  0  0  0  0  0  0  0  0  0  0  0
   36.3800   28.9450   30.7330 C   0  0  0  0  0  0  0  0  0  0  0  0
   37.1660   28.6060   29.6170 C   0  0  0  0  0  0  0  0  0  0  0  0
   37.5660   29.6550   28.7890 C   0  0  0  0  0  0  0  0  0  0  0  0
   37.1780   30.9420   29.1040 N   0  0  0  0  0  0  0  0  0  0  0  0
   36.4210   31.2200   30.1880 C   0  0  0  0  0  0  0  0  0  0  0  0
   36.0340   30.2100   30.9870 N   0  0  0  0  0  0  0  0  0  0  0  0
   37.4960   27.6340   29.3290 H   0  0  0  0  0  0  0  0  0  0  0  0
   38.1730   29.4620   27.9120 H   0  0  0  0  0  0  0  0  0  0  0  0
   36.1720   32.2600   30.3440 H   0  0  0  0  0  0  0  0  0  0  0  0
   37.6080   27.4090   34.9940 C   0  0  0  0  0  3  0  0  0  0  0  0
   38.7330   27.3020   35.6770 C   0  0  0  0  0  3  0  0  0  0  0  0
   39.9640   26.9390   34.9370 C   0  0  0  0  0  2  0  0  0  0  0  0
   40.0680   27.6300   34.0710 H   0  0  0  0  0  0  0  0  0  0  0  0
  1  7  1  6  0  0  0
  1  2  1  0  0  0  0
  2  8  1  0  0  0  0
  2  3  1  0  0  0  0
  2  9  1  0  0  0  0
  3 10  1  6  0  0  0
  3 26  1  0  0  0  0
  4  3  1  0  0  0  0
  4 12  1  0  0  0  0
  5 14  1  0  0  0  0
  5  4  1  0  0  0  0
  6  1  1  0  0  0  0
  6  5  1  0  0  0  0
 11  4  1  0  0  0  0
 13  5  1  0  0  0  0
 15  6  1  0  0  0  0
 16  6  1  0  0  0  0
 17 22  1  0  0  0  0
 17  1  1  0  0  0  0
 18 17  2  0  0  0  0
 19 20  2  0  0  0  0
 19 18  1  0  0  0  0
 20 21  1  0  0  0  0
 21 25  1  0  0  0  0
 21 22  2  0  0  0  0
 23 18  1  0  0  0  0
 24 19  1  0  0  0  0
 26 27  2  0  0  0  0
 28 27  1  0  0  0  0
 29 28  1  0  0  0  0
M  END
>  <minimizedAffinity>
-4.35999489

$$$$

 OpenBabel03272505563D

 29 30  0  0  1  0  0  0  0  0999 V2000
   38.6970   26.3950   35.3110 C   0  0  2  0  0  0  0  0  0  0  0  0
   37.5370   26.7760   34.4120 C   0  0  0  0  0  0  0  0  0  0  0  0
   37.8320   26.5660   32.9580 C   0  0  2  0  0  0  0  0  0  0  0  0
   39.0980   27.2470   32.5010 C   0  0  0  0  0  0  0  0  0  0  0  0
   40.2130   27.1560   33.4980 C   0  0  0  0  0  0  0  0  0  0  0  0
   39.9470   26.1030   34.5560 C   0  0  0  0  0  0  0  0  0  0  0  0
   38.8550   27.2230   36.0240 H   0  0  0  0  0  0  0  0  0  0  0  0
   36.6770   26.1560   34.6700 H   0  0  0  0  0  0  0  0  0  0  0  0
   37.2740   27.8410   34.5390 H   0  0  0  0  0  0  0  0  0  0  0  0
   37.8890   25.4740   32.7850 H   0  0  0  0  0  0  0  0  0  0  0  0
   39.4440   26.6600   31.6040 H   0  0  0  0  0  0  0  0  0  0  0  0
   38.9120   28.2700   32.1240 H   0  0  0  0  0  0  0  0  0  0  0  0
   41.2100   27.0140   33.0600 H   0  0  0  0  0  0  0  0  0  0  0  0
   40.1960   28.1340   34.0630 H   0  0  0  0  0  0  0  0  0  0  0  0
   39.8910   25.1320   34.0150 H   0  0  0  0  0  0  0  0  0  0  0  0
   40.8240   26.0880   35.2120 H   0  0  0  0  0  0  0  0  0  0  0  0
   38.3420   25.1810   36.1050 C   0  0  0  0  0  0  0  0  0  0  0  0
   38.2390   23.9760   35.3870 C   0  0  0  0  0  0  0  0  0  0  0  0
   37.8970   22.8380   36.1180 C   0  0  0  0  0  0  0  0  0  0  0  0
   37.6830   22.9540   37.4760 N   0  0  0  0  0  0  0  0  0  0  0  0
   37.7940   24.1340   38.1240 C   0  0  0  0  0  0  0  0  0  0  0  0
   38.1240   25.2320   37.4220 N   0  0  0  0  0  0  0  0  0  0  0  0
   38.3900   23.8310   34.3420 H   0  0  0  0  0  0  0  0  0  0  0  0
   37.8000   21.8770   35.6250 H   0  0  0  0  0  0  0  0  0  0  0  0
   37.6060   24.1160   39.1880 H   0  0  0  0  0  0  0  0  0  0  0  0
   36.7260   27.2180   32.1980 C   0  0  0  0  0  3  0  0  0  0  0  0
   35.8250   26.5740   31.4800 C   0  0  0  0  0  3  0  0  0  0  0  0
   35.9090   25.0960   31.4200 C   0  0  0  0  0  2  0  0  0  0  0  0
   35.9670   24.7070   32.4610 H   0  0  0  0  0  0  0  0  0  0  0  0
  1  7  1  1  0  0  0
  1 17  1  0  0  0  0
  2  9  1  0  0  0  0
  2  8  1  0  0  0  0
  2  1  1  0  0  0  0
  3 10  1  6  0  0  0
  3  2  1  0  0  0  0
  4  3  1  0  0  0  0
  4  5  1  0  0  0  0
  5 14  1  0  0  0  0
  5  6  1  0  0  0  0
  6 16  1  0  0  0  0
  6  1  1  0  0  0  0
 11  4  1  0  0  0  0
 12  4  1  0  0  0  0
 13  5  1  0  0  0  0
 15  6  1  0  0  0  0
 17 22  1  0  0  0  0
 18 17  2  0  0  0  0
 18 19  1  0  0  0  0
 19 20  2  0  0  0  0
 20 21  1  0  0  0  0
 21 25  1  0  0  0  0
 22 21  2  0  0  0  0
 23 18  1  0  0  0  0
 24 19  1  0  0  0  0
 26  3  1  0  0  0  0
 27 26  2  0  0  0  0
 28 27  1  0  0  0  0
 28 29  1  0  0  0  0
M  END
>  <minimizedAffinity>
-4.27817154

$$$$

 OpenBabel03272505563D

 29 30  0  0  1  0  0  0  0  0999 V2000
   37.0940   25.0320   31.3850 C   0  0  2  0  0  0  0  0  0  0  0  0
   35.9930   23.9940   31.4750 C   0  0  0  0  0  0  0  0  0  0  0  0
   36.5040   22.6290   31.8240 C   0  0  2  0  0  0  0  0  0  0  0  0
   37.6040   22.1510   30.9100 C   0  0  0  0  0  0  0  0  0  0  0  0
   38.5770   23.2290   30.5400 C   0  0  0  0  0  0  0  0  0  0  0  0
   38.4590   24.4390   31.4460 C   0  0  0  0  0  0  0  0  0  0  0  0
   36.9510   25.5910   30.4430 H   0  0  0  0  0  0  0  0  0  0  0  0
   35.2910   24.2950   32.2550 H   0  0  0  0  0  0  0  0  0  0  0  0
   35.4570   23.9030   30.5140 H   0  0  0  0  0  0  0  0  0  0  0  0
   36.8530   22.6650   32.8740 H   0  0  0  0  0  0  0  0  0  0  0  0
   38.1920   21.4060   31.5150 H   0  0  0  0  0  0  0  0  0  0  0  0
   37.2130   21.5800   30.0470 H   0  0  0  0  0  0  0  0  0  0  0  0
   39.6230   22.9000   30.4770 H   0  0  0  0  0  0  0  0  0  0  0  0
   38.2470   23.6020   29.5270 H   0  0  0  0  0  0  0  0  0  0  0  0
   38.7150   24.0820   32.4690 H   0  0  0  0  0  0  0  0  0  0  0  0
   39.2260   25.1510   31.1220 H   0  0  0  0  0  0  0  0  0  0  0  0
   36.9620   26.0060   32.5090 C   0  0  0  0  0  0  0  0  0  0  0  0
   36.4480   27.2720   32.1780 C   0  0  0  0  0  0  0  0  0  0  0  0
   36.3320   28.1940   33.2200 C   0  0  0  0  0  0  0  0  0  0  0  0
   36.7200   27.8200   34.4910 N   0  0  0  0  0  0  0  0  0  0  0  0
   37.2090   26.5900   34.7610 C   0  0  0  0  0  0  0  0  0  0  0  0
   37.3210   25.7010   33.7590 N   0  0  0  0  0  0  0  0  0  0  0  0
   36.1370   27.6140   31.2170 H   0  0  0  0  0  0  0  0  0  0  0  0
   35.9430   29.1880   33.0330 H   0  0  0  0  0  0  0  0  0  0  0  0
   37.4830   26.3990   35.7890 H   0  0  0  0  0  0  0  0  0  0  0  0
   35.3700   21.6810   31.6210 C   0  0  0  0  0  3  0  0  0  0  0  0
   34.9800   20.7750   32.4980 C   0  0  0  0  0  3  0  0  0  0  0  0
   35.7170   20.6850   33.7810 C   0  0  0  0  0  2  0  0  0  0  0  0
   35.7640   21.7020   34.2280 H   0  0  0  0  0  0  0  0  0  0  0  0
  1  7  1  6  0  0  0
  1  6  1  0  0  0  0
  1  2  1  0  0  0  0
  1 17  1  0  0  0  0
  2  3  1  0  0  0  0
  2  8  1  0  0  0  0
  3 10  1  1  0  0  0
  4 11  1  0  0  0  0
  4  3  1  0  0  0  0
  5  4  1  0  0  0  0
  5  6  1  0  0  0  0
  6 15  1  0  0  0  0
  9  2  1  0  0  0  0
 12  4  1  0  0  0  0
 13  5  1  0  0  0  0
 14  5  1  0  0  0  0
 16  6  1  0  0  0  0
 17 22  1  0  0  0  0
 18 17  2  0  0  0  0
 18 19  1  0  0  0  0
 19 20  2  0  0  0  0
 20 21  1  0  0  0  0
 21 25  1  0  0  0  0
 22 21  2  0  0  0  0
 23 18  1  0  0  0  0
 24 19  1  0  0  0  0
 26  3  1  0  0  0  0
 26 27  2  0  0  0  0
 27 28  1  0  0  0  0
 28 29  1  0  0  0  0
M  END
>  <minimizedAffinity>
-4.25216532

$$$$

 OpenBabel03272505563D

 29 30  0  0  1  0  0  0  0  0999 V2000
   37.2840   24.5540   31.6790 C   0  0  2  0  0  0  0  0  0  0  0  0
   38.4050   25.0960   32.5420 C   0  0  0  0  0  0  0  0  0  0  0  0
   38.0150   26.3300   33.3000 C   0  0  2  0  0  0  0  0  0  0  0  0
   37.4550   27.4180   32.4200 C   0  0  0  0  0  0  0  0  0  0  0  0
   36.5530   26.9030   31.3400 C   0  0  0  0  0  0  0  0  0  0  0  0
   36.1150   25.4740   31.5970 C   0  0  0  0  0  0  0  0  0  0  0  0
   37.6990   24.3590   30.6740 H   0  0  0  0  0  0  0  0  0  0  0  0
   38.6860   24.3340   33.2700 H   0  0  0  0  0  0  0  0  0  0  0  0
   39.2840   25.3590   31.9280 H   0  0  0  0  0  0  0  0  0  0  0  0
   37.2790   26.0270   34.0690 H   0  0  0  0  0  0  0  0  0  0  0  0
   36.7980   28.0370   33.0950 H   0  0  0  0  0  0  0  0  0  0  0  0
   38.2370   28.1130   32.0620 H   0  0  0  0  0  0  0  0  0  0  0  0
   35.6820   27.5370   31.1290 H   0  0  0  0  0  0  0  0  0  0  0  0
   37.1950   26.8390   30.4130 H   0  0  0  0  0  0  0  0  0  0  0  0
   35.5340   25.4980   32.5470 H   0  0  0  0  0  0  0  0  0  0  0  0
   35.4380   25.2010   30.7800 H   0  0  0  0  0  0  0  0  0  0  0  0
   36.8080   23.2510   32.2290 C   0  0  0  0  0  0  0  0  0  0  0  0
   35.6520   22.7100   31.6380 C   0  0  0  0  0  0  0  0  0  0  0  0
   35.1930   21.4970   32.1540 C   0  0  0  0  0  0  0  0  0  0  0  0
   35.8830   20.9070   33.1930 N   0  0  0  0  0  0  0  0  0  0  0  0
   36.9900   21.4650   33.7300 C   0  0  0  0  0  0  0  0  0  0  0  0
   37.4350   22.6330   33.2350 N   0  0  0  0  0  0  0  0  0  0  0  0
   35.0810   23.1220   30.8380 H   0  0  0  0  0  0  0  0  0  0  0  0
   34.3080   21.0260   31.7430 H   0  0  0  0  0  0  0  0  0  0  0  0
   37.4550   20.9220   34.5400 H   0  0  0  0  0  0  0  0  0  0  0  0
   39.2690   26.8880   33.8850 C   0  0  0  0  0  3  0  0  0  0  0  0
   39.4520   27.1460   35.1660 C   0  0  0  0  0  3  0  0  0  0  0  0
   38.3370   26.8630   36.1000 C   0  0  0  0  0  2  0  0  0  0  0  0
   37.9970   25.8170   35.9310 H   0  0  0  0  0  0  0  0  0  0  0  0
  1  7  1  6  0  0  0
  1 17  1  0  0  0  0
  1  2  1  0  0  0  0
  2  8  1  0  0  0  0
  2  3  1  0  0  0  0
  3 26  1  0  0  0  0
  3 10  1  1  0  0  0
  4 11  1  0  0  0  0
  4  3  1  0  0  0  0
  5  6  1  0  0  0  0
  5  4  1  0  0  0  0
  6  1  1  0  0  0  0
  6 15  1  0  0  0  0
  9  2  1  0  0  0  0
 12  4  1  0  0  0  0
 13  5  1  0  0  0  0
 14  5  1  0  0  0  0
 16  6  1  0  0  0  0
 17 22  1  0  0  0  0
 18 19  1  0  0  0  0
 18 17  2  0  0  0  0
 19 20  2  0  0  0  0
 20 21  1  0  0  0  0
 21 25  1  0  0  0  0
 22 21  2  0  0  0  0
 23 18  1  0  0  0  0
 24 19  1  0  0  0  0
 26 27  2  0  0  0  0
 27 28  1  0  0  0  0
 29 28  1  0  0  0  0
M  END
>  <minimizedAffinity>
-4.24575233

$$$$

 OpenBabel03272505563D

 29 30  0  0  1  0  0  0  0  0999 V2000
   38.6280   22.7100   33.4440 C   0  0  2  0  0  0  0  0  0  0  0  0
   38.9920   22.3190   34.8630 C   0  0  0  0  0  0  0  0  0  0  0  0
   38.9400   23.4730   35.8180 C   0  0  2  0  0  0  0  0  0  0  0  0
   39.7620   24.6560   35.3710 C   0  0  0  0  0  0  0  0  0  0  0  0
   39.6740   24.9160   33.8980 C   0  0  0  0  0  0  0  0  0  0  0  0
   38.5100   24.1830   33.2590 C   0  0  0  0  0  0  0  0  0  0  0  0
   39.3990   22.2910   32.7730 H   0  0  0  0  0  0  0  0  0  0  0  0
   38.2820   21.5670   35.2110 H   0  0  0  0  0  0  0  0  0  0  0  0
   40.0150   21.9070   34.9090 H   0  0  0  0  0  0  0  0  0  0  0  0
   37.8770   23.7560   35.9390 H   0  0  0  0  0  0  0  0  0  0  0  0
   39.2900   25.5500   35.8670 H   0  0  0  0  0  0  0  0  0  0  0  0
   40.7960   24.6200   35.7620 H   0  0  0  0  0  0  0  0  0  0  0  0
   39.6550   25.9780   33.6200 H   0  0  0  0  0  0  0  0  0  0  0  0
   40.5910   24.4350   33.4490 H   0  0  0  0  0  0  0  0  0  0  0  0
   37.5910   24.5930   33.7350 H   0  0  0  0  0  0  0  0  0  0  0  0
   38.5090   24.4610   32.1990 H   0  0  0  0  0  0  0  0  0  0  0  0
   37.3230   22.0910   33.0700 C   0  0  0  0  0  0  0  0  0  0  0  0
   36.7930   22.4640   31.8210 C   0  0  0  0  0  0  0  0  0  0  0  0
   35.5660   21.9000   31.4660 C   0  0  0  0  0  0  0  0  0  0  0  0
   34.9540   21.0260   32.3410 N   0  0  0  0  0  0  0  0  0  0  0  0
   35.5010   20.6960   33.5310 C   0  0  0  0  0  0  0  0  0  0  0  0
   36.6830   21.2390   33.8750 N   0  0  0  0  0  0  0  0  0  0  0  0
   37.2200   23.1340   31.1110 H   0  0  0  0  0  0  0  0  0  0  0  0
   35.1030   22.1450   30.5180 H   0  0  0  0  0  0  0  0  0  0  0  0
   34.9410   20.0030   34.1410 H   0  0  0  0  0  0  0  0  0  0  0  0
   39.5650   23.0050   37.0900 C   0  0  0  0  0  3  0  0  0  0  0  0
   39.1080   23.2780   38.2980 C   0  0  0  0  0  3  0  0  0  0  0  0
   37.8860   24.1100   38.4090 C   0  0  0  0  0  2  0  0  0  0  0  0
   37.1010   23.6650   37.7580 H   0  0  0  0  0  0  0  0  0  0  0  0
  1  7  1  6  0  0  0
  1  2  1  0  0  0  0
  2  9  1  0  0  0  0
  2  8  1  0  0  0  0
  2  3  1  0  0  0  0
  3 10  1  1  0  0  0
  3 26  1  0  0  0  0
  4 12  1  0  0  0  0
  4  3  1  0  0  0  0
  4 11  1  0  0  0  0
  5  4  1  0  0  0  0
  6  1  1  0  0  0  0
  6 15  1  0  0  0  0
  6  5  1  0  0  0  0
 13  5  1  0  0  0  0
 14  5  1  0  0  0  0
 16  6  1  0  0  0  0
 17  1  1  0  0  0  0
 17 22  1  0  0  0  0
 18 17  2  0  0  0  0
 19 18  1  0  0  0  0
 19 20  2  0  0  0  0
 20 21  1  0  0  0  0
 21 22  2  0  0  0  0
 21 25  1  0  0  0  0
 23 18  1  0  0  0  0
 24 19  1  0  0  0  0
 26 27  2  0  0  0  0
 27 28  1  0  0  0  0
 29 28  1  0  0  0  0
M  END
>  <minimizedAffinity>
-4.2286191

$$$$

 OpenBabel03272505563D

 29 30  0  0  1  0  0  0  0  0999 V2000
   34.9050   29.9780   33.7160 C   0  0  2  0  0  0  0  0  0  0  0  0
   35.3990   28.6250   34.1900 C   0  0  0  0  0  0  0  0  0  0  0  0
   36.7610   28.2830   33.6640 C   0  0  2  0  0  0  0  0  0  0  0  0
   36.8640   28.3850   32.1630 C   0  0  0  0  0  0  0  0  0  0  0  0
   36.1310   29.5630   31.5970 C   0  0  0  0  0  0  0  0  0  0  0  0
   35.7730   30.5780   32.6650 C   0  0  0  0  0  0  0  0  0  0  0  0
   33.8730   29.8460   33.3440 H   0  0  0  0  0  0  0  0  0  0  0  0
   35.4560   28.6360   35.2790 H   0  0  0  0  0  0  0  0  0  0  0  0
   34.7160   27.8200   33.8660 H   0  0  0  0  0  0  0  0  0  0  0  0
   37.4850   28.9610   34.1550 H   0  0  0  0  0  0  0  0  0  0  0  0
   37.9540   28.5750   31.9520 H   0  0  0  0  0  0  0  0  0  0  0  0
   36.6340   27.4270   31.6610 H   0  0  0  0  0  0  0  0  0  0  0  0
   36.6360   30.0570   30.7560 H   0  0  0  0  0  0  0  0  0  0  0  0
   35.1370   29.1620   31.2440 H   0  0  0  0  0  0  0  0  0  0  0  0
   36.7400   30.9420   33.0790 H   0  0  0  0  0  0  0  0  0  0  0  0
   35.2760   31.4100   32.1540 H   0  0  0  0  0  0  0  0  0  0  0  0
   34.8500   30.9260   34.8680 C   0  0  0  0  0  0  0  0  0  0  0  0
   35.8980   31.8590   34.9560 C   0  0  0  0  0  0  0  0  0  0  0  0
   35.8620   32.7440   36.0350 C   0  0  0  0  0  0  0  0  0  0  0  0
   34.8220   32.6550   36.9380 N   0  0  0  0  0  0  0  0  0  0  0  0
   33.8360   31.7410   36.8130 C   0  0  0  0  0  0  0  0  0  0  0  0
   33.8680   30.8880   35.7730 N   0  0  0  0  0  0  0  0  0  0  0  0
   36.7240   31.9700   34.2910 H   0  0  0  0  0  0  0  0  0  0  0  0
   36.6390   33.4880   36.1610 H   0  0  0  0  0  0  0  0  0  0  0  0
   33.0690   31.7560   37.5730 H   0  0  0  0  0  0  0  0  0  0  0  0
   36.9970   26.8460   33.9880 C   0  0  0  0  0  3  0  0  0  0  0  0
   37.8070   26.4120   34.9360 C   0  0  0  0  0  3  0  0  0  0  0  0
   38.5390   27.4190   35.7420 C   0  0  0  0  0  2  0  0  0  0  0  0
   37.8020   28.1570   36.1300 H   0  0  0  0  0  0  0  0  0  0  0  0
  1  7  1  6  0  0  0
  1  2  1  0  0  0  0
  1 17  1  0  0  0  0
  2  8  1  0  0  0  0
  3 26  1  0  0  0  0
  3 10  1  1  0  0  0
  3  2  1  0  0  0  0
  4  3  1  0  0  0  0
  5  4  1  0  0  0  0
  5  6  1  0  0  0  0
  6 15  1  0  0  0  0
  6  1  1  0  0  0  0
  9  2  1  0  0  0  0
 11  4  1  0  0  0  0
 12  4  1  0  0  0  0
 13  5  1  0  0  0  0
 14  5  1  0  0  0  0
 16  6  1  0  0  0  0
 17 18  2  0  0  0  0
 17 22  1  0  0  0  0
 18 19  1  0  0  0  0
 19 24  1  0  0  0  0
 19 20  2  0  0  0  0
 21 20  1  0  0  0  0
 21 25  1  0  0  0  0
 22 21  2  0  0  0  0
 23 18  1  0  0  0  0
 26 27  2  0  0  0  0
 27 28  1  0  0  0  0
 28 29  1  0  0  0  0
M  END
>  <minimizedAffinity>
-4.19634533

$$$$
