
 OpenBabel03272509493D

 28 29  0  0  0  0  0  0  0  0999 V2000
   33.9730   28.5470   48.5530 C   0  0  0  0  0  0  0  0  0  0  0  0
   34.6060   28.8630   47.7160 H   0  0  0  0  0  0  0  0  0  0  0  0
   33.3380   29.4290   48.8320 H   0  0  0  0  0  0  0  0  0  0  0  0
   33.0530   27.4190   48.2070 C   0  0  0  0  0  0  0  0  0  0  0  0
   33.3370   26.9740   47.2140 H   0  0  0  0  0  0  0  0  0  0  0  0
   33.1270   26.5840   48.9440 H   0  0  0  0  0  0  0  0  0  0  0  0
   31.6340   27.8450   48.0970 C   0  0  0  0  0  0  0  0  0  0  0  0
   30.8250   27.6100   49.1810 C   0  0  0  0  0  0  0  0  0  0  0  0
   29.4910   27.9580   49.2040 C   0  0  0  0  0  0  0  0  0  0  0  0
   28.9650   28.5460   48.1360 N   0  0  0  0  0  0  0  0  0  0  0  0
   29.7640   28.7820   47.0570 C   0  0  0  0  0  0  0  0  0  0  0  0
   31.0670   28.4440   47.0280 N   0  0  0  0  0  0  0  0  0  0  0  0
   31.2100   27.1330   50.0780 H   0  0  0  0  0  0  0  0  0  0  0  0
   28.8760   27.7640   50.0650 H   0  0  0  0  0  0  0  0  0  0  0  0
   29.4040   29.2570   46.1480 H   0  0  0  0  0  0  0  0  0  0  0  0
   34.7290   28.2410   49.7200 O   0  0  0  0  0  0  0  0  0  0  0  0
   37.2620   30.1750   51.4300 C   0  0  0  0  0  0  0  0  0  0  0  0
   37.9410   30.7140   50.3320 C   0  0  0  0  0  0  0  0  0  0  0  0
   37.4970   30.3890   49.0470 C   0  0  0  0  0  0  0  0  0  0  0  0
   36.4100   29.5510   48.9520 N   0  0  0  0  0  0  0  0  0  0  0  0
   35.7840   29.0520   50.0320 C   0  0  0  0  0  0  0  0  0  0  0  0
   36.2220   29.3730   51.2690 N   0  0  0  0  0  0  0  0  0  0  0  0
   37.6500   30.4610   52.3990 H   0  0  0  0  0  0  0  0  0  0  0  0
   38.7970   31.3740   50.4030 H   0  0  0  0  0  0  0  0  0  0  0  0
   38.1280   30.8940   47.8170 C   0  0  0  0  0  3  0  0  0  0  0  0
   38.8000   32.0330   47.7900 C   0  0  0  0  0  3  0  0  0  0  0  0
   39.3950   32.4400   46.4840 C   0  0  0  0  0  2  0  0  0  0  0  0
   38.6810   32.1910   45.6800 H   0  0  0  0  0  0  0  0  0  0  0  0
  1  3  1  0  0  0  0
  1 16  1  0  0  0  0
  2  1  1  0  0  0  0
  4  1  1  0  0  0  0
  4  6  1  0  0  0  0
  5  4  1  0  0  0  0
  7  4  1  0  0  0  0
  7  8  1  0  0  0  0
  8  9  2  0  0  0  0
  8 13  1  0  0  0  0
  9 14  1  0  0  0  0
 10  9  1  0  0  0  0
 11 10  2  0  0  0  0
 12 11  1  0  0  0  0
 12  7  2  0  0  0  0
 15 11  1  0  0  0  0
 16 21  1  0  0  0  0
 17 23  1  0  0  0  0
 18 24  1  0  0  0  0
 18 17  2  0  0  0  0
 19 18  1  0  0  0  0
 20 19  2  0  0  0  0
 20 21  1  0  0  0  0
 21 22  2  0  0  0  0
 22 17  1  0  0  0  0
 25 19  1  0  0  0  0
 26 25  2  0  0  0  0
 27 26  1  0  0  0  0
 28 27  1  0  0  0  0
M  END
>  <minimizedAffinity>
-5.27545309

>  <minimizedRMSD>
0.600151479

$$$$
