
 OpenBabel03272509553D

 38 40  0  0  0  0  0  0  0  0999 V2000
   36.3010   29.5100   31.8330 C   0  0  0  0  0  0  0  0  0  0  0  0
   35.6600   30.3790   32.7500 C   0  0  0  0  0  0  0  0  0  0  0  0
   35.5100   29.9260   34.0510 C   0  0  0  0  0  0  0  0  0  0  0  0
   35.9970   28.6740   34.3370 N   0  0  0  0  0  0  0  0  0  0  0  0
   36.5960   27.8830   33.4500 C   0  0  0  0  0  0  0  0  0  0  0  0
   36.7450   28.3180   32.1800 N   0  0  0  0  0  0  0  0  0  0  0  0
   36.3800   29.9370   30.8350 H   0  0  0  0  0  0  0  0  0  0  0  0
   35.2770   31.3630   32.5190 H   0  0  0  0  0  0  0  0  0  0  0  0
   36.7580   31.7400   35.9290 F   0  0  0  0  0  0  0  0  0  0  0  0
   35.4510   31.5080   36.0110 C   0  0  0  0  0  0  0  0  0  0  0  0
   34.8860   30.6590   35.1270 C   0  0  0  0  0  0  0  0  0  0  0  0
   33.5200   30.4940   35.3070 C   0  0  0  0  0  0  0  0  0  0  0  0
   32.8160   31.1380   36.2940 C   0  0  0  0  0  0  0  0  0  0  0  0
   33.4280   31.9880   37.1670 C   0  0  0  0  0  0  0  0  0  0  0  0
   34.7780   32.1710   37.0140 C   0  0  0  0  0  0  0  0  0  0  0  0
   32.9010   29.8420   34.6790 H   0  0  0  0  0  0  0  0  0  0  0  0
   31.7360   31.0040   36.4320 H   0  0  0  0  0  0  0  0  0  0  0  0
   32.8940   32.5040   37.9530 H   0  0  0  0  0  0  0  0  0  0  0  0
   35.2870   32.8410   37.6950 H   0  0  0  0  0  0  0  0  0  0  0  0
   36.9900   26.6970   33.9710 O   0  0  0  0  0  0  0  0  0  0  0  0
   38.2770   26.6100   34.5890 C   0  0  0  0  0  0  0  0  0  0  0  0
   38.2410   26.9750   35.6330 H   0  0  0  0  0  0  0  0  0  0  0  0
   38.9260   27.3100   34.0220 H   0  0  0  0  0  0  0  0  0  0  0  0
   38.8360   25.2320   34.4470 C   0  0  0  0  0  0  0  0  0  0  0  0
   39.7620   25.1730   33.8660 H   0  0  0  0  0  0  0  0  0  0  0  0
   38.0810   24.6460   33.8460 H   0  0  0  0  0  0  0  0  0  0  0  0
   38.9300   24.5050   35.7400 C   0  0  0  0  0  0  0  0  0  0  0  0
   38.0400   24.8660   36.7570 C   0  0  0  0  0  0  0  0  0  0  0  0
   38.0620   24.2450   37.9740 C   0  0  0  0  0  0  0  0  0  0  0  0
   38.9350   23.2870   38.2050 N   0  0  0  0  0  0  0  0  0  0  0  0
   39.8050   22.9350   37.2090 C   0  0  0  0  0  0  0  0  0  0  0  0
   39.8220   23.5160   35.9970 N   0  0  0  0  0  0  0  0  0  0  0  0
   37.3240   25.6580   36.5530 H   0  0  0  0  0  0  0  0  0  0  0  0
   37.3780   24.5090   38.7820 H   0  0  0  0  0  0  0  0  0  0  0  0
   40.7530   21.8680   37.5150 C   0  0  0  0  0  3  0  0  0  0  0  0
   41.8310   21.6660   36.8150 C   0  0  0  0  0  3  0  0  0  0  0  0
   42.8120   20.5760   37.1160 C   0  0  0  0  0  2  0  0  0  0  0  0
   42.3380   19.9360   37.8890 H   0  0  0  0  0  0  0  0  0  0  0  0
  1  6  2  0  0  0  0
  1  2  1  0  0  0  0
  2  3  2  0  0  0  0
  3  4  1  0  0  0  0
  3 11  1  0  0  0  0
  5 20  1  0  0  0  0
  5  4  2  0  0  0  0
  6  5  1  0  0  0  0
  7  1  1  0  0  0  0
  8  2  1  0  0  0  0
  9 10  1  0  0  0  0
 10 15  1  0  0  0  0
 11 12  1  0  0  0  0
 11 10  2  0  0  0  0
 12 13  2  0  0  0  0
 13 17  1  0  0  0  0
 13 14  1  0  0  0  0
 14 18  1  0  0  0  0
 15 14  2  0  0  0  0
 15 19  1  0  0  0  0
 16 12  1  0  0  0  0
 20 21  1  0  0  0  0
 21 22  1  0  0  0  0
 23 21  1  0  0  0  0
 24 21  1  0  0  0  0
 24 27  1  0  0  0  0
 25 24  1  0  0  0  0
 26 24  1  0  0  0  0
 27 32  2  0  0  0  0
 27 28  1  0  0  0  0
 28 29  2  0  0  0  0
 29 30  1  0  0  0  0
 29 34  1  0  0  0  0
 31 35  1  0  0  0  0
 31 30  2  0  0  0  0
 32 31  1  0  0  0  0
 33 28  1  0  0  0  0
 36 37  1  0  0  0  0
 36 35  2  0  0  0  0
 37 38  1  0  0  0  0
M  END
>  <minimizedAffinity>
-6.3500905

$$$$

 OpenBabel03272509553D

 38 40  0  0  0  0  0  0  0  0999 V2000
   36.2490   29.3830   31.9800 C   0  0  0  0  0  0  0  0  0  0  0  0
   35.5900   30.2870   32.8490 C   0  0  0  0  0  0  0  0  0  0  0  0
   35.5030   29.9290   34.1850 C   0  0  0  0  0  0  0  0  0  0  0  0
   36.0650   28.7300   34.5490 N   0  0  0  0  0  0  0  0  0  0  0  0
   36.6780   27.9040   33.7050 C   0  0  0  0  0  0  0  0  0  0  0  0
   36.7660   28.2460   32.4010 N   0  0  0  0  0  0  0  0  0  0  0  0
   36.2750   29.7350   30.9490 H   0  0  0  0  0  0  0  0  0  0  0  0
   35.1500   31.2300   32.5570 H   0  0  0  0  0  0  0  0  0  0  0  0
   36.7340   31.8630   35.9520 F   0  0  0  0  0  0  0  0  0  0  0  0
   35.4310   31.6170   36.0550 C   0  0  0  0  0  0  0  0  0  0  0  0
   34.8740   30.7120   35.2220 C   0  0  0  0  0  0  0  0  0  0  0  0
   33.5120   30.5370   35.4200 C   0  0  0  0  0  0  0  0  0  0  0  0
   32.8040   31.2230   36.3740 C   0  0  0  0  0  0  0  0  0  0  0  0
   33.4070   32.1290   37.1950 C   0  0  0  0  0  0  0  0  0  0  0  0
   34.7530   32.3240   37.0240 C   0  0  0  0  0  0  0  0  0  0  0  0
   32.9000   29.8410   34.8330 H   0  0  0  0  0  0  0  0  0  0  0  0
   31.7270   31.0810   36.5260 H   0  0  0  0  0  0  0  0  0  0  0  0
   32.8700   32.6800   37.9540 H   0  0  0  0  0  0  0  0  0  0  0  0
   35.2550   33.0380   37.6640 H   0  0  0  0  0  0  0  0  0  0  0  0
   37.1500   26.7830   34.3000 O   0  0  0  0  0  0  0  0  0  0  0  0
   38.5260   26.7360   34.6860 C   0  0  0  0  0  0  0  0  0  0  0  0
   38.6330   26.8100   35.7850 H   0  0  0  0  0  0  0  0  0  0  0  0
   38.9870   27.6470   34.2510 H   0  0  0  0  0  0  0  0  0  0  0  0
   39.1980   25.5410   34.0910 C   0  0  0  0  0  0  0  0  0  0  0  0
   40.2900   25.5530   34.1560 H   0  0  0  0  0  0  0  0  0  0  0  0
   38.9740   25.5730   32.9840 H   0  0  0  0  0  0  0  0  0  0  0  0
   38.6150   24.2540   34.5530 C   0  0  0  0  0  0  0  0  0  0  0  0
   38.6220   23.9910   35.9260 C   0  0  0  0  0  0  0  0  0  0  0  0
   38.1050   22.8300   36.4300 C   0  0  0  0  0  0  0  0  0  0  0  0
   37.5890   21.9350   35.6140 N   0  0  0  0  0  0  0  0  0  0  0  0
   37.5830   22.1940   34.2710 C   0  0  0  0  0  0  0  0  0  0  0  0
   38.0790   23.3200   33.7290 N   0  0  0  0  0  0  0  0  0  0  0  0
   39.0520   24.7380   36.5880 H   0  0  0  0  0  0  0  0  0  0  0  0
   38.1000   22.6020   37.4970 H   0  0  0  0  0  0  0  0  0  0  0  0
   37.0000   21.1700   33.4090 C   0  0  0  0  0  3  0  0  0  0  0  0
   35.8100   20.6810   33.6070 C   0  0  0  0  0  3  0  0  0  0  0  0
   35.2000   19.6310   32.7320 C   0  0  0  0  0  2  0  0  0  0  0  0
   36.0080   19.2790   32.0580 H   0  0  0  0  0  0  0  0  0  0  0  0
  1  6  2  0  0  0  0
  1  2  1  0  0  0  0
  2  3  2  0  0  0  0
  3  4  1  0  0  0  0
  3 11  1  0  0  0  0
  5 20  1  0  0  0  0
  5  4  2  0  0  0  0
  6  5  1  0  0  0  0
  7  1  1  0  0  0  0
  8  2  1  0  0  0  0
  9 10  1  0  0  0  0
 10 15  1  0  0  0  0
 11 12  1  0  0  0  0
 11 10  2  0  0  0  0
 12 13  2  0  0  0  0
 13 17  1  0  0  0  0
 13 14  1  0  0  0  0
 14 18  1  0  0  0  0
 15 14  2  0  0  0  0
 15 19  1  0  0  0  0
 16 12  1  0  0  0  0
 20 21  1  0  0  0  0
 21 22  1  0  0  0  0
 23 21  1  0  0  0  0
 24 25  1  0  0  0  0
 24 27  1  0  0  0  0
 24 21  1  0  0  0  0
 26 24  1  0  0  0  0
 27 28  1  0  0  0  0
 28 29  2  0  0  0  0
 28 33  1  0  0  0  0
 29 34  1  0  0  0  0
 30 29  1  0  0  0  0
 31 30  2  0  0  0  0
 32 31  1  0  0  0  0
 32 27  2  0  0  0  0
 35 36  2  0  0  0  0
 35 31  1  0  0  0  0
 37 36  1  0  0  0  0
 38 37  1  0  0  0  0
M  END
>  <minimizedAffinity>
-5.89401484

$$$$

 OpenBabel03272509553D

 38 40  0  0  0  0  0  0  0  0999 V2000
   35.4460   24.9950   31.1700 C   0  0  0  0  0  0  0  0  0  0  0  0
   35.1610   23.6080   31.1860 C   0  0  0  0  0  0  0  0  0  0  0  0
   36.1080   22.7760   31.7630 C   0  0  0  0  0  0  0  0  0  0  0  0
   37.2380   23.3700   32.2690 N   0  0  0  0  0  0  0  0  0  0  0  0
   37.4720   24.6800   32.2380 C   0  0  0  0  0  0  0  0  0  0  0  0
   36.5540   25.4970   31.6770 N   0  0  0  0  0  0  0  0  0  0  0  0
   34.6560   25.5800   30.7010 H   0  0  0  0  0  0  0  0  0  0  0  0
   34.2710   23.1450   30.7860 H   0  0  0  0  0  0  0  0  0  0  0  0
   35.3060   21.2230   34.0700 F   0  0  0  0  0  0  0  0  0  0  0  0
   35.6320   20.5990   32.9420 C   0  0  0  0  0  0  0  0  0  0  0  0
   36.0040   21.3400   31.8750 C   0  0  0  0  0  0  0  0  0  0  0  0
   36.3210   20.5850   30.7560 C   0  0  0  0  0  0  0  0  0  0  0  0
   36.2600   19.2140   30.7400 C   0  0  0  0  0  0  0  0  0  0  0  0
   35.8790   18.5050   31.8410 C   0  0  0  0  0  0  0  0  0  0  0  0
   35.5590   19.2240   32.9640 C   0  0  0  0  0  0  0  0  0  0  0  0
   36.6430   21.0220   29.8030 H   0  0  0  0  0  0  0  0  0  0  0  0
   36.5120   18.6220   29.8520 H   0  0  0  0  0  0  0  0  0  0  0  0
   35.8250   17.4260   31.8530 H   0  0  0  0  0  0  0  0  0  0  0  0
   35.2540   18.6840   33.8510 H   0  0  0  0  0  0  0  0  0  0  0  0
   38.6550   25.0260   32.8000 O   0  0  0  0  0  0  0  0  0  0  0  0
   38.7360   26.2510   33.5320 C   0  0  0  0  0  0  0  0  0  0  0  0
   37.7300   26.6020   33.8320 H   0  0  0  0  0  0  0  0  0  0  0  0
   39.1430   26.9970   32.8190 H   0  0  0  0  0  0  0  0  0  0  0  0
   39.6960   26.1200   34.6710 C   0  0  0  0  0  0  0  0  0  0  0  0
   39.9330   27.0600   35.1770 H   0  0  0  0  0  0  0  0  0  0  0  0
   40.6740   25.7800   34.2200 H   0  0  0  0  0  0  0  0  0  0  0  0
   39.3280   25.0390   35.6220 C   0  0  0  0  0  0  0  0  0  0  0  0
   38.0910   25.1310   36.2670 C   0  0  0  0  0  0  0  0  0  0  0  0
   37.6790   24.1770   37.1560 C   0  0  0  0  0  0  0  0  0  0  0  0
   38.4570   23.1480   37.4180 N   0  0  0  0  0  0  0  0  0  0  0  0
   39.6670   23.0590   36.7860 C   0  0  0  0  0  0  0  0  0  0  0  0
   40.1150   23.9710   35.9040 N   0  0  0  0  0  0  0  0  0  0  0  0
   37.4590   25.9870   36.0420 H   0  0  0  0  0  0  0  0  0  0  0  0
   36.7190   24.2280   37.6720 H   0  0  0  0  0  0  0  0  0  0  0  0
   40.4920   21.8990   37.1100 C   0  0  0  0  0  3  0  0  0  0  0  0
   41.7570   21.8340   36.8160 C   0  0  0  0  0  3  0  0  0  0  0  0
   42.6150   20.6510   37.1420 C   0  0  0  0  0  2  0  0  0  0  0  0
   41.9260   19.8530   37.4900 H   0  0  0  0  0  0  0  0  0  0  0  0
  1  2  2  0  0  0  0
  1  6  1  0  0  0  0
  2  3  1  0  0  0  0
  3 11  1  0  0  0  0
  3  4  2  0  0  0  0
  5  4  1  0  0  0  0
  5 20  1  0  0  0  0
  6  5  2  0  0  0  0
  7  1  1  0  0  0  0
  8  2  1  0  0  0  0
 10 15  1  0  0  0  0
 10  9  1  0  0  0  0
 11 10  2  0  0  0  0
 12 11  1  0  0  0  0
 13 12  2  0  0  0  0
 13 14  1  0  0  0  0
 14 18  1  0  0  0  0
 14 15  2  0  0  0  0
 15 19  1  0  0  0  0
 16 12  1  0  0  0  0
 17 13  1  0  0  0  0
 20 21  1  0  0  0  0
 21 22  1  0  0  0  0
 21 24  1  0  0  0  0
 23 21  1  0  0  0  0
 24 25  1  0  0  0  0
 24 27  1  0  0  0  0
 26 24  1  0  0  0  0
 27 32  2  0  0  0  0
 27 28  1  0  0  0  0
 28 29  2  0  0  0  0
 29 30  1  0  0  0  0
 29 34  1  0  0  0  0
 31 35  1  0  0  0  0
 31 30  2  0  0  0  0
 32 31  1  0  0  0  0
 33 28  1  0  0  0  0
 36 35  2  0  0  0  0
 36 37  1  0  0  0  0
 37 38  1  0  0  0  0
M  END
>  <minimizedAffinity>
-5.84951591

$$$$

 OpenBabel03272509553D

 38 40  0  0  0  0  0  0  0  0999 V2000
   36.2410   29.9490   31.7190 C   0  0  0  0  0  0  0  0  0  0  0  0
   35.5980   30.7260   32.7140 C   0  0  0  0  0  0  0  0  0  0  0  0
   35.4670   30.1580   33.9720 C   0  0  0  0  0  0  0  0  0  0  0  0
   35.9730   28.8930   34.1430 N   0  0  0  0  0  0  0  0  0  0  0  0
   36.5730   28.1910   33.1840 C   0  0  0  0  0  0  0  0  0  0  0  0
   36.7040   28.7380   31.9560 N   0  0  0  0  0  0  0  0  0  0  0  0
   36.3040   30.4630   30.7610 H   0  0  0  0  0  0  0  0  0  0  0  0
   35.2010   31.7210   32.5750 H   0  0  0  0  0  0  0  0  0  0  0  0
   36.6730   31.9530   35.8950 F   0  0  0  0  0  0  0  0  0  0  0  0
   35.3900   31.6240   36.0200 C   0  0  0  0  0  0  0  0  0  0  0  0
   34.8450   30.7850   35.1140 C   0  0  0  0  0  0  0  0  0  0  0  0
   33.5040   30.5130   35.3430 C   0  0  0  0  0  0  0  0  0  0  0  0
   32.8040   31.0500   36.3940 C   0  0  0  0  0  0  0  0  0  0  0  0
   33.3950   31.8940   37.2880 C   0  0  0  0  0  0  0  0  0  0  0  0
   34.7210   32.1820   37.0870 C   0  0  0  0  0  0  0  0  0  0  0  0
   32.9030   29.8530   34.7060 H   0  0  0  0  0  0  0  0  0  0  0  0
   31.7440   30.8320   36.5700 H   0  0  0  0  0  0  0  0  0  0  0  0
   32.8650   32.3280   38.1230 H   0  0  0  0  0  0  0  0  0  0  0  0
   35.2130   32.8490   37.7830 H   0  0  0  0  0  0  0  0  0  0  0  0
   36.9870   26.9690   33.5950 O   0  0  0  0  0  0  0  0  0  0  0  0
   37.9880   26.2900   32.8320 C   0  0  0  0  0  0  0  0  0  0  0  0
   38.8340   25.9790   33.4740 H   0  0  0  0  0  0  0  0  0  0  0  0
   38.3810   27.0450   32.1190 H   0  0  0  0  0  0  0  0  0  0  0  0
   37.3830   25.1730   32.0460 C   0  0  0  0  0  0  0  0  0  0  0  0
   37.7420   25.0930   31.0150 H   0  0  0  0  0  0  0  0  0  0  0  0
   36.2830   25.4150   31.9500 H   0  0  0  0  0  0  0  0  0  0  0  0
   37.4170   23.8700   32.7620 C   0  0  0  0  0  0  0  0  0  0  0  0
   36.8150   22.7710   32.1430 C   0  0  0  0  0  0  0  0  0  0  0  0
   36.8040   21.5390   32.7360 C   0  0  0  0  0  0  0  0  0  0  0  0
   37.3680   21.3750   33.9150 N   0  0  0  0  0  0  0  0  0  0  0  0
   37.9560   22.4520   34.5190 C   0  0  0  0  0  0  0  0  0  0  0  0
   37.9920   23.6820   33.9750 N   0  0  0  0  0  0  0  0  0  0  0  0
   36.3530   22.9200   31.1710 H   0  0  0  0  0  0  0  0  0  0  0  0
   36.3410   20.6660   32.2730 H   0  0  0  0  0  0  0  0  0  0  0  0
   38.5670   22.2180   35.8240 C   0  0  0  0  0  3  0  0  0  0  0  0
   39.6720   22.7970   36.1950 C   0  0  0  0  0  3  0  0  0  0  0  0
   40.3100   22.5670   37.5290 C   0  0  0  0  0  2  0  0  0  0  0  0
   39.7610   21.7220   37.9950 H   0  0  0  0  0  0  0  0  0  0  0  0
  1  6  2  0  0  0  0
  1  2  1  0  0  0  0
  2  3  2  0  0  0  0
  3  4  1  0  0  0  0
  3 11  1  0  0  0  0
  5 20  1  0  0  0  0
  5  4  2  0  0  0  0
  6  5  1  0  0  0  0
  7  1  1  0  0  0  0
  8  2  1  0  0  0  0
  9 10  1  0  0  0  0
 10 15  1  0  0  0  0
 11 12  1  0  0  0  0
 11 10  2  0  0  0  0
 12 13  2  0  0  0  0
 13 17  1  0  0  0  0
 13 14  1  0  0  0  0
 14 18  1  0  0  0  0
 15 14  2  0  0  0  0
 15 19  1  0  0  0  0
 16 12  1  0  0  0  0
 21 22  1  0  0  0  0
 21 20  1  0  0  0  0
 23 21  1  0  0  0  0
 24 27  1  0  0  0  0
 24 21  1  0  0  0  0
 25 24  1  0  0  0  0
 26 24  1  0  0  0  0
 27 32  1  0  0  0  0
 28 29  1  0  0  0  0
 28 27  2  0  0  0  0
 29 30  2  0  0  0  0
 30 31  1  0  0  0  0
 31 35  1  0  0  0  0
 32 31  2  0  0  0  0
 33 28  1  0  0  0  0
 34 29  1  0  0  0  0
 35 36  2  0  0  0  0
 36 37  1  0  0  0  0
 37 38  1  0  0  0  0
M  END
>  <minimizedAffinity>
-5.62796259

$$$$

 OpenBabel03272509553D

 38 40  0  0  0  0  0  0  0  0999 V2000
   36.1400   29.8630   31.5550 C   0  0  0  0  0  0  0  0  0  0  0  0
   35.4080   30.5760   32.5350 C   0  0  0  0  0  0  0  0  0  0  0  0
   35.3760   30.0400   33.8130 C   0  0  0  0  0  0  0  0  0  0  0  0
   36.0590   28.8670   34.0170 N   0  0  0  0  0  0  0  0  0  0  0  0
   36.7390   28.2230   33.0710 C   0  0  0  0  0  0  0  0  0  0  0  0
   36.7740   28.7380   31.8230 N   0  0  0  0  0  0  0  0  0  0  0  0
   36.1170   30.3460   30.5790 H   0  0  0  0  0  0  0  0  0  0  0  0
   34.8710   31.4990   32.3700 H   0  0  0  0  0  0  0  0  0  0  0  0
   32.6440   29.5840   34.6540 F   0  0  0  0  0  0  0  0  0  0  0  0
   33.4150   30.4130   35.3520 C   0  0  0  0  0  0  0  0  0  0  0  0
   34.6870   30.6140   34.9450 C   0  0  0  0  0  0  0  0  0  0  0  0
   35.3950   31.4960   35.7470 C   0  0  0  0  0  0  0  0  0  0  0  0
   34.8490   32.1040   36.8490 C   0  0  0  0  0  0  0  0  0  0  0  0
   33.5590   31.8730   37.2250 C   0  0  0  0  0  0  0  0  0  0  0  0
   32.8320   31.0050   36.4510 C   0  0  0  0  0  0  0  0  0  0  0  0
   36.4400   31.7740   35.5640 H   0  0  0  0  0  0  0  0  0  0  0  0
   35.4140   32.8010   37.4800 H   0  0  0  0  0  0  0  0  0  0  0  0
   33.1070   32.3410   38.0880 H   0  0  0  0  0  0  0  0  0  0  0  0
   31.8050   30.8050   36.7280 H   0  0  0  0  0  0  0  0  0  0  0  0
   37.3290   27.0870   33.5150 O   0  0  0  0  0  0  0  0  0  0  0  0
   37.8600   27.0610   34.8420 C   0  0  0  0  0  0  0  0  0  0  0  0
   37.1570   26.5710   35.5420 H   0  0  0  0  0  0  0  0  0  0  0  0
   37.9400   28.1240   35.1500 H   0  0  0  0  0  0  0  0  0  0  0  0
   39.2310   26.4670   34.8470 C   0  0  0  0  0  0  0  0  0  0  0  0
   40.0010   27.1010   35.2980 H   0  0  0  0  0  0  0  0  0  0  0  0
   39.5360   26.3690   33.7640 H   0  0  0  0  0  0  0  0  0  0  0  0
   39.2620   25.0760   35.3720 C   0  0  0  0  0  0  0  0  0  0  0  0
   40.4730   24.3800   35.3010 C   0  0  0  0  0  0  0  0  0  0  0  0
   40.5830   23.0980   35.7620 C   0  0  0  0  0  0  0  0  0  0  0  0
   39.5340   22.4970   36.2830 N   0  0  0  0  0  0  0  0  0  0  0  0
   38.3510   23.1800   36.3520 C   0  0  0  0  0  0  0  0  0  0  0  0
   38.1930   24.4410   35.9120 N   0  0  0  0  0  0  0  0  0  0  0  0
   41.3310   24.8880   34.8680 H   0  0  0  0  0  0  0  0  0  0  0  0
   41.5170   22.5340   35.7180 H   0  0  0  0  0  0  0  0  0  0  0  0
   37.2180   22.4690   36.9380 C   0  0  0  0  0  3  0  0  0  0  0  0
   36.4130   21.7300   36.2320 C   0  0  0  0  0  3  0  0  0  0  0  0
   35.2470   20.9970   36.8190 C   0  0  0  0  0  2  0  0  0  0  0  0
   35.1450   21.3590   37.8630 H   0  0  0  0  0  0  0  0  0  0  0  0
  1  6  2  0  0  0  0
  1  2  1  0  0  0  0
  2  3  2  0  0  0  0
  3  4  1  0  0  0  0
  3 11  1  0  0  0  0
  5 20  1  0  0  0  0
  5  4  2  0  0  0  0
  6  5  1  0  0  0  0
  7  1  1  0  0  0  0
  8  2  1  0  0  0  0
  9 10  1  0  0  0  0
 10 15  1  0  0  0  0
 11 10  2  0  0  0  0
 11 12  1  0  0  0  0
 12 13  2  0  0  0  0
 13 14  1  0  0  0  0
 13 17  1  0  0  0  0
 14 18  1  0  0  0  0
 15 19  1  0  0  0  0
 15 14  2  0  0  0  0
 16 12  1  0  0  0  0
 20 21  1  0  0  0  0
 21 24  1  0  0  0  0
 21 23  1  0  0  0  0
 21 22  1  0  0  0  0
 24 25  1  0  0  0  0
 24 27  1  0  0  0  0
 26 24  1  0  0  0  0
 27 32  1  0  0  0  0
 28 27  2  0  0  0  0
 28 29  1  0  0  0  0
 29 30  2  0  0  0  0
 30 31  1  0  0  0  0
 31 35  1  0  0  0  0
 32 31  2  0  0  0  0
 33 28  1  0  0  0  0
 34 29  1  0  0  0  0
 36 37  1  0  0  0  0
 36 35  2  0  0  0  0
 37 38  1  0  0  0  0
M  END
>  <minimizedAffinity>
-5.57839775

$$$$

 OpenBabel03272509553D

 38 40  0  0  0  0  0  0  0  0999 V2000
   35.6610   21.8280   31.8350 C   0  0  0  0  0  0  0  0  0  0  0  0
   35.7520   23.1540   31.3450 C   0  0  0  0  0  0  0  0  0  0  0  0
   36.7010   23.9780   31.9280 C   0  0  0  0  0  0  0  0  0  0  0  0
   37.4700   23.4370   32.9290 N   0  0  0  0  0  0  0  0  0  0  0  0
   37.3570   22.1850   33.3650 C   0  0  0  0  0  0  0  0  0  0  0  0
   36.4340   21.3750   32.8020 N   0  0  0  0  0  0  0  0  0  0  0  0
   34.8940   21.2450   31.3270 H   0  0  0  0  0  0  0  0  0  0  0  0
   35.1450   23.5750   30.5570 H   0  0  0  0  0  0  0  0  0  0  0  0
   34.7750   25.9810   31.1180 F   0  0  0  0  0  0  0  0  0  0  0  0
   36.0640   26.3030   31.1910 C   0  0  0  0  0  0  0  0  0  0  0  0
   36.9480   25.3550   31.5700 C   0  0  0  0  0  0  0  0  0  0  0  0
   38.2600   25.8030   31.6100 C   0  0  0  0  0  0  0  0  0  0  0  0
   38.6190   27.0880   31.2930 C   0  0  0  0  0  0  0  0  0  0  0  0
   37.6930   28.0140   30.9130 C   0  0  0  0  0  0  0  0  0  0  0  0
   36.3860   27.6020   30.8650 C   0  0  0  0  0  0  0  0  0  0  0  0
   39.1070   25.1680   31.8970 H   0  0  0  0  0  0  0  0  0  0  0  0
   39.6590   27.4370   31.3260 H   0  0  0  0  0  0  0  0  0  0  0  0
   37.9510   29.0320   30.6580 H   0  0  0  0  0  0  0  0  0  0  0  0
   35.6310   28.3180   30.5660 H   0  0  0  0  0  0  0  0  0  0  0  0
   38.2250   21.8840   34.3610 O   0  0  0  0  0  0  0  0  0  0  0  0
   37.8600   22.1930   35.7080 C   0  0  0  0  0  0  0  0  0  0  0  0
   37.4780   21.2960   36.2320 H   0  0  0  0  0  0  0  0  0  0  0  0
   37.0150   22.9090   35.6300 H   0  0  0  0  0  0  0  0  0  0  0  0
   38.9860   22.8730   36.4160 C   0  0  0  0  0  0  0  0  0  0  0  0
   39.8800   22.2560   36.5500 H   0  0  0  0  0  0  0  0  0  0  0  0
   38.6190   23.0820   37.4640 H   0  0  0  0  0  0  0  0  0  0  0  0
   39.3010   24.2150   35.8560 C   0  0  0  0  0  0  0  0  0  0  0  0
   40.5620   24.4020   35.2830 C   0  0  0  0  0  0  0  0  0  0  0  0
   40.9280   25.6060   34.7470 C   0  0  0  0  0  0  0  0  0  0  0  0
   40.0820   26.6150   34.7680 N   0  0  0  0  0  0  0  0  0  0  0  0
   38.8490   26.4290   35.3290 C   0  0  0  0  0  0  0  0  0  0  0  0
   38.4440   25.2660   35.8680 N   0  0  0  0  0  0  0  0  0  0  0  0
   41.2500   23.5610   35.2730 H   0  0  0  0  0  0  0  0  0  0  0  0
   41.9060   25.7760   34.2950 H   0  0  0  0  0  0  0  0  0  0  0  0
   37.9490   27.5790   35.3270 C   0  0  0  0  0  3  0  0  0  0  0  0
   36.9140   27.6580   34.5420 C   0  0  0  0  0  3  0  0  0  0  0  0
   35.9830   28.8300   34.5290 C   0  0  0  0  0  2  0  0  0  0  0  0
   36.4590   29.6130   35.1560 H   0  0  0  0  0  0  0  0  0  0  0  0
  1  6  1  0  0  0  0
  2  1  2  0  0  0  0
  2  3  1  0  0  0  0
  3  4  2  0  0  0  0
  4  5  1  0  0  0  0
  5 20  1  0  0  0  0
  6  5  2  0  0  0  0
  7  1  1  0  0  0  0
  8  2  1  0  0  0  0
  9 10  1  0  0  0  0
 10 11  1  0  0  0  0
 11 12  2  0  0  0  0
 11  3  1  0  0  0  0
 12 16  1  0  0  0  0
 13 17  1  0  0  0  0
 13 12  1  0  0  0  0
 14 13  2  0  0  0  0
 15 14  1  0  0  0  0
 15 10  2  0  0  0  0
 18 14  1  0  0  0  0
 19 15  1  0  0  0  0
 20 21  1  0  0  0  0
 21 22  1  0  0  0  0
 21 24  1  0  0  0  0
 23 21  1  0  0  0  0
 24 25  1  0  0  0  0
 24 26  1  0  0  0  0
 27 32  1  0  0  0  0
 27 24  1  0  0  0  0
 28 27  2  0  0  0  0
 29 30  2  0  0  0  0
 29 28  1  0  0  0  0
 30 31  1  0  0  0  0
 31 32  2  0  0  0  0
 33 28  1  0  0  0  0
 34 29  1  0  0  0  0
 35 31  1  0  0  0  0
 36 35  2  0  0  0  0
 37 36  1  0  0  0  0
 37 38  1  0  0  0  0
M  END
>  <minimizedAffinity>
-5.55040741

$$$$

 OpenBabel03272509553D

 38 40  0  0  0  0  0  0  0  0999 V2000
   37.1040   26.8980   34.1940 C   0  0  0  0  0  0  0  0  0  0  0  0
   37.7150   26.2540   35.2970 C   0  0  0  0  0  0  0  0  0  0  0  0
   38.2750   25.0070   35.0690 C   0  0  0  0  0  0  0  0  0  0  0  0
   38.1890   24.5060   33.7940 N   0  0  0  0  0  0  0  0  0  0  0  0
   37.6070   25.1390   32.7790 C   0  0  0  0  0  0  0  0  0  0  0  0
   37.0580   26.3550   32.9930 N   0  0  0  0  0  0  0  0  0  0  0  0
   36.6880   27.8710   34.4530 H   0  0  0  0  0  0  0  0  0  0  0  0
   37.7800   26.6530   36.2990 H   0  0  0  0  0  0  0  0  0  0  0  0
   37.3530   24.3260   37.7270 F   0  0  0  0  0  0  0  0  0  0  0  0
   38.5270   23.8660   37.3030 C   0  0  0  0  0  0  0  0  0  0  0  0
   38.9410   24.1940   36.0600 C   0  0  0  0  0  0  0  0  0  0  0  0
   40.1770   23.6600   35.7260 C   0  0  0  0  0  0  0  0  0  0  0  0
   40.9040   22.8720   36.5830 C   0  0  0  0  0  0  0  0  0  0  0  0
   40.4480   22.5660   37.8310 C   0  0  0  0  0  0  0  0  0  0  0  0
   39.2280   23.0790   38.1900 C   0  0  0  0  0  0  0  0  0  0  0  0
   40.6640   23.8240   34.7580 H   0  0  0  0  0  0  0  0  0  0  0  0
   41.8810   22.4520   36.3130 H   0  0  0  0  0  0  0  0  0  0  0  0
   41.0030   21.9490   38.5220 H   0  0  0  0  0  0  0  0  0  0  0  0
   38.8440   22.8510   39.1760 H   0  0  0  0  0  0  0  0  0  0  0  0
   37.6480   24.4420   31.6180 O   0  0  0  0  0  0  0  0  0  0  0  0
   36.4350   24.2550   30.8860 C   0  0  0  0  0  0  0  0  0  0  0  0
   36.6400   23.8700   29.8690 H   0  0  0  0  0  0  0  0  0  0  0  0
   35.9990   25.2690   30.7680 H   0  0  0  0  0  0  0  0  0  0  0  0
   35.4730   23.4200   31.6670 C   0  0  0  0  0  0  0  0  0  0  0  0
   34.4200   23.6790   31.5190 H   0  0  0  0  0  0  0  0  0  0  0  0
   35.6750   23.6420   32.7560 H   0  0  0  0  0  0  0  0  0  0  0  0
   35.7230   21.9610   31.5310 C   0  0  0  0  0  0  0  0  0  0  0  0
   34.9410   21.0910   32.2970 C   0  0  0  0  0  0  0  0  0  0  0  0
   35.1100   19.7360   32.2290 C   0  0  0  0  0  0  0  0  0  0  0  0
   36.0260   19.2300   31.4290 N   0  0  0  0  0  0  0  0  0  0  0  0
   36.7890   20.0830   30.6800 C   0  0  0  0  0  0  0  0  0  0  0  0
   36.6610   21.4210   30.7130 N   0  0  0  0  0  0  0  0  0  0  0  0
   34.1890   21.5220   32.9530 H   0  0  0  0  0  0  0  0  0  0  0  0
   34.5120   19.0380   32.8170 H   0  0  0  0  0  0  0  0  0  0  0  0
   37.7910   19.4720   29.8100 C   0  0  0  0  0  3  0  0  0  0  0  0
   38.6230   20.1740   29.0980 C   0  0  0  0  0  3  0  0  0  0  0  0
   39.6540   19.5620   28.2020 C   0  0  0  0  0  2  0  0  0  0  0  0
   39.4250   18.4770   28.1600 H   0  0  0  0  0  0  0  0  0  0  0  0
  1  7  1  0  0  0  0
  1  2  1  0  0  0  0
  2  8  1  0  0  0  0
  3  2  2  0  0  0  0
  3 11  1  0  0  0  0
  4  3  1  0  0  0  0
  5  6  1  0  0  0  0
  5  4  2  0  0  0  0
  6  1  2  0  0  0  0
 10  9  1  0  0  0  0
 10 15  1  0  0  0  0
 11 10  2  0  0  0  0
 12 11  1  0  0  0  0
 12 13  2  0  0  0  0
 13 14  1  0  0  0  0
 14 15  2  0  0  0  0
 14 18  1  0  0  0  0
 15 19  1  0  0  0  0
 16 12  1  0  0  0  0
 17 13  1  0  0  0  0
 20  5  1  0  0  0  0
 21 20  1  0  0  0  0
 21 24  1  0  0  0  0
 22 21  1  0  0  0  0
 23 21  1  0  0  0  0
 24 26  1  0  0  0  0
 25 24  1  0  0  0  0
 27 24  1  0  0  0  0
 27 28  1  0  0  0  0
 28 33  1  0  0  0  0
 29 28  2  0  0  0  0
 29 34  1  0  0  0  0
 30 29  1  0  0  0  0
 31 32  1  0  0  0  0
 31 30  2  0  0  0  0
 32 27  2  0  0  0  0
 35 31  1  0  0  0  0
 36 35  2  0  0  0  0
 37 36  1  0  0  0  0
 38 37  1  0  0  0  0
M  END
>  <minimizedAffinity>
-5.54140234

$$$$

 OpenBabel03272509553D

 38 40  0  0  0  0  0  0  0  0999 V2000
   38.3640   23.4290   38.1360 C   0  0  0  0  0  0  0  0  0  0  0  0
   37.4770   23.0940   37.0840 C   0  0  0  0  0  0  0  0  0  0  0  0
   38.0070   22.3920   36.0120 C   0  0  0  0  0  0  0  0  0  0  0  0
   39.3430   22.0830   36.0650 N   0  0  0  0  0  0  0  0  0  0  0  0
   40.1480   22.4140   37.0720 C   0  0  0  0  0  0  0  0  0  0  0  0
   39.6400   23.0980   38.1200 N   0  0  0  0  0  0  0  0  0  0  0  0
   37.8740   23.9780   38.9390 H   0  0  0  0  0  0  0  0  0  0  0  0
   36.4260   23.3400   37.0470 H   0  0  0  0  0  0  0  0  0  0  0  0
   35.8150   20.5060   35.8890 F   0  0  0  0  0  0  0  0  0  0  0  0
   36.2460   21.0830   34.7710 C   0  0  0  0  0  0  0  0  0  0  0  0
   37.2700   21.9610   34.8480 C   0  0  0  0  0  0  0  0  0  0  0  0
   37.6340   22.4990   33.6220 C   0  0  0  0  0  0  0  0  0  0  0  0
   37.0080   22.1670   32.4470 C   0  0  0  0  0  0  0  0  0  0  0  0
   35.9780   21.2750   32.4150 C   0  0  0  0  0  0  0  0  0  0  0  0
   35.5940   20.7250   33.6110 C   0  0  0  0  0  0  0  0  0  0  0  0
   38.4440   23.2280   33.4990 H   0  0  0  0  0  0  0  0  0  0  0  0
   37.3010   22.5970   31.4810 H   0  0  0  0  0  0  0  0  0  0  0  0
   35.4710   20.9980   31.5020 H   0  0  0  0  0  0  0  0  0  0  0  0
   34.7790   20.0140   33.6130 H   0  0  0  0  0  0  0  0  0  0  0  0
   41.4250   21.9980   36.8950 O   0  0  0  0  0  0  0  0  0  0  0  0
   42.0740   22.2800   35.6530 C   0  0  0  0  0  0  0  0  0  0  0  0
   41.3350   22.4440   34.8460 H   0  0  0  0  0  0  0  0  0  0  0  0
   42.6380   21.3590   35.3960 H   0  0  0  0  0  0  0  0  0  0  0  0
   43.0530   23.3980   35.8130 C   0  0  0  0  0  0  0  0  0  0  0  0
   44.0810   23.1480   35.5340 H   0  0  0  0  0  0  0  0  0  0  0  0
   43.1000   23.6190   36.9200 H   0  0  0  0  0  0  0  0  0  0  0  0
   42.5910   24.6700   35.1970 C   0  0  0  0  0  0  0  0  0  0  0  0
   43.5430   25.4680   34.5560 C   0  0  0  0  0  0  0  0  0  0  0  0
   43.1980   26.6520   33.9660 C   0  0  0  0  0  0  0  0  0  0  0  0
   41.9460   27.0580   33.9970 N   0  0  0  0  0  0  0  0  0  0  0  0
   41.0160   26.2760   34.6250 C   0  0  0  0  0  0  0  0  0  0  0  0
   41.3070   25.1050   35.2190 N   0  0  0  0  0  0  0  0  0  0  0  0
   44.5730   25.1200   34.5380 H   0  0  0  0  0  0  0  0  0  0  0  0
   43.9240   27.2910   33.4600 H   0  0  0  0  0  0  0  0  0  0  0  0
   39.6420   26.7710   34.6320 C   0  0  0  0  0  3  0  0  0  0  0  0
   38.6360   26.0420   35.0160 C   0  0  0  0  0  3  0  0  0  0  0  0
   37.2230   26.5350   35.0290 C   0  0  0  0  0  2  0  0  0  0  0  0
   37.2300   27.5130   34.5030 H   0  0  0  0  0  0  0  0  0  0  0  0
  1  7  1  0  0  0  0
  2  1  2  0  0  0  0
  3  4  2  0  0  0  0
  3  2  1  0  0  0  0
  4  5  1  0  0  0  0
  5  6  2  0  0  0  0
  6  1  1  0  0  0  0
  8  2  1  0  0  0  0
 10 11  1  0  0  0  0
 10  9  1  0  0  0  0
 11  3  1  0  0  0  0
 12 11  2  0  0  0  0
 13 12  1  0  0  0  0
 14 13  2  0  0  0  0
 14 15  1  0  0  0  0
 15 19  1  0  0  0  0
 15 10  2  0  0  0  0
 16 12  1  0  0  0  0
 17 13  1  0  0  0  0
 18 14  1  0  0  0  0
 20  5  1  0  0  0  0
 21 24  1  0  0  0  0
 21 20  1  0  0  0  0
 22 21  1  0  0  0  0
 23 21  1  0  0  0  0
 24 26  1  0  0  0  0
 25 24  1  0  0  0  0
 27 32  1  0  0  0  0
 27 24  1  0  0  0  0
 28 27  2  0  0  0  0
 29 30  2  0  0  0  0
 29 28  1  0  0  0  0
 30 31  1  0  0  0  0
 31 35  1  0  0  0  0
 31 32  2  0  0  0  0
 33 28  1  0  0  0  0
 34 29  1  0  0  0  0
 35 36  2  0  0  0  0
 36 37  1  0  0  0  0
 38 37  1  0  0  0  0
M  END
>  <minimizedAffinity>
-5.52591944

$$$$

 OpenBabel03272509553D

 38 40  0  0  0  0  0  0  0  0999 V2000
   35.9780   28.9690   32.1820 C   0  0  0  0  0  0  0  0  0  0  0  0
   35.3160   29.9410   32.9710 C   0  0  0  0  0  0  0  0  0  0  0  0
   35.4270   29.8180   34.3470 C   0  0  0  0  0  0  0  0  0  0  0  0
   36.1680   28.7650   34.8240 N   0  0  0  0  0  0  0  0  0  0  0  0
   36.7780   27.8690   34.0520 C   0  0  0  0  0  0  0  0  0  0  0  0
   36.6750   27.9830   32.7100 N   0  0  0  0  0  0  0  0  0  0  0  0
   35.8440   29.1340   31.1130 H   0  0  0  0  0  0  0  0  0  0  0  0
   34.7340   30.7680   32.5910 H   0  0  0  0  0  0  0  0  0  0  0  0
   36.7370   31.8120   35.9870 F   0  0  0  0  0  0  0  0  0  0  0  0
   35.4220   31.6380   36.0910 C   0  0  0  0  0  0  0  0  0  0  0  0
   34.8280   30.7040   35.3180 C   0  0  0  0  0  0  0  0  0  0  0  0
   33.4580   30.6110   35.5110 C   0  0  0  0  0  0  0  0  0  0  0  0
   32.7760   31.3990   36.4040 C   0  0  0  0  0  0  0  0  0  0  0  0
   33.4160   32.3310   37.1660 C   0  0  0  0  0  0  0  0  0  0  0  0
   34.7720   32.4460   36.9980 C   0  0  0  0  0  0  0  0  0  0  0  0
   32.8170   29.9060   34.9680 H   0  0  0  0  0  0  0  0  0  0  0  0
   31.6920   31.3210   36.5520 H   0  0  0  0  0  0  0  0  0  0  0  0
   32.9010   32.9620   37.8760 H   0  0  0  0  0  0  0  0  0  0  0  0
   35.3040   33.1790   37.5910 H   0  0  0  0  0  0  0  0  0  0  0  0
   37.4480   26.9250   34.7540 O   0  0  0  0  0  0  0  0  0  0  0  0
   38.7900   26.6080   34.3730 C   0  0  0  0  0  0  0  0  0  0  0  0
   39.5180   27.0440   35.0840 H   0  0  0  0  0  0  0  0  0  0  0  0
   38.9480   27.1090   33.3960 H   0  0  0  0  0  0  0  0  0  0  0  0
   38.9460   25.1350   34.1750 C   0  0  0  0  0  0  0  0  0  0  0  0
   38.6320   24.5240   35.0270 H   0  0  0  0  0  0  0  0  0  0  0  0
   40.0560   24.9470   34.0780 H   0  0  0  0  0  0  0  0  0  0  0  0
   38.3730   24.6560   32.8900 C   0  0  0  0  0  0  0  0  0  0  0  0
   38.9190   25.1580   31.7050 C   0  0  0  0  0  0  0  0  0  0  0  0
   38.4470   24.7660   30.4830 C   0  0  0  0  0  0  0  0  0  0  0  0
   37.4580   23.9000   30.4100 N   0  0  0  0  0  0  0  0  0  0  0  0
   36.9250   23.4100   31.5700 C   0  0  0  0  0  0  0  0  0  0  0  0
   37.3550   23.7650   32.7940 N   0  0  0  0  0  0  0  0  0  0  0  0
   39.7350   25.8720   31.7800 H   0  0  0  0  0  0  0  0  0  0  0  0
   38.8570   25.1440   29.5450 H   0  0  0  0  0  0  0  0  0  0  0  0
   35.8300   22.4530   31.4350 C   0  0  0  0  0  3  0  0  0  0  0  0
   35.7160   21.4060   32.1990 C   0  0  0  0  0  3  0  0  0  0  0  0
   34.6000   20.4170   32.0720 C   0  0  0  0  0  2  0  0  0  0  0  0
   34.0600   20.6750   31.1370 H   0  0  0  0  0  0  0  0  0  0  0  0
  1  6  2  0  0  0  0
  1  2  1  0  0  0  0
  2  3  2  0  0  0  0
  3  4  1  0  0  0  0
  3 11  1  0  0  0  0
  5 20  1  0  0  0  0
  5  4  2  0  0  0  0
  6  5  1  0  0  0  0
  7  1  1  0  0  0  0
  8  2  1  0  0  0  0
  9 10  1  0  0  0  0
 10 15  1  0  0  0  0
 11 12  1  0  0  0  0
 11 10  2  0  0  0  0
 12 13  2  0  0  0  0
 13 17  1  0  0  0  0
 13 14  1  0  0  0  0
 14 18  1  0  0  0  0
 15 14  2  0  0  0  0
 15 19  1  0  0  0  0
 16 12  1  0  0  0  0
 21 20  1  0  0  0  0
 21 22  1  0  0  0  0
 23 21  1  0  0  0  0
 24 21  1  0  0  0  0
 24 25  1  0  0  0  0
 26 24  1  0  0  0  0
 27 24  1  0  0  0  0
 28 33  1  0  0  0  0
 28 27  2  0  0  0  0
 29 28  1  0  0  0  0
 30 29  2  0  0  0  0
 30 31  1  0  0  0  0
 31 32  2  0  0  0  0
 32 27  1  0  0  0  0
 34 29  1  0  0  0  0
 35 31  1  0  0  0  0
 35 36  2  0  0  0  0
 37 36  1  0  0  0  0
 38 37  1  0  0  0  0
M  END
>  <minimizedAffinity>
-5.49981642

$$$$
