
 OpenBabel03272509503D

 28 29  0  0  0  0  0  0  0  0999 V2000
   33.7330   28.5940   48.7040 C   0  0  0  0  0  0  0  0  0  0  0  0
   34.2690   29.0110   47.8440 H   0  0  0  0  0  0  0  0  0  0  0  0
   33.1010   29.4210   49.1270 H   0  0  0  0  0  0  0  0  0  0  0  0
   32.8180   27.4670   48.3430 C   0  0  0  0  0  0  0  0  0  0  0  0
   33.0510   27.0910   47.3090 H   0  0  0  0  0  0  0  0  0  0  0  0
   32.9530   26.5910   49.0210 H   0  0  0  0  0  0  0  0  0  0  0  0
   31.3860   27.8630   48.3430 C   0  0  0  0  0  0  0  0  0  0  0  0
   30.7040   27.7390   49.5280 C   0  0  0  0  0  0  0  0  0  0  0  0
   29.3720   28.0730   49.6590 C   0  0  0  0  0  0  0  0  0  0  0  0
   28.7210   28.5350   48.5980 N   0  0  0  0  0  0  0  0  0  0  0  0
   29.3940   28.6610   47.4190 C   0  0  0  0  0  0  0  0  0  0  0  0
   30.6950   28.3360   47.2840 N   0  0  0  0  0  0  0  0  0  0  0  0
   31.1930   27.3670   50.4240 H   0  0  0  0  0  0  0  0  0  0  0  0
   28.8580   27.9670   50.5980 H   0  0  0  0  0  0  0  0  0  0  0  0
   28.9290   29.0300   46.5090 H   0  0  0  0  0  0  0  0  0  0  0  0
   34.6100   28.2130   49.7580 O   0  0  0  0  0  0  0  0  0  0  0  0
   37.2330   30.1510   51.3200 C   0  0  0  0  0  0  0  0  0  0  0  0
   37.9040   30.6170   50.1840 C   0  0  0  0  0  0  0  0  0  0  0  0
   37.4240   30.2440   48.9250 C   0  0  0  0  0  0  0  0  0  0  0  0
   36.3110   29.4340   48.8930 N   0  0  0  0  0  0  0  0  0  0  0  0
   35.6950   29.0060   50.0090 C   0  0  0  0  0  0  0  0  0  0  0  0
   36.1680   29.3740   51.2190 N   0  0  0  0  0  0  0  0  0  0  0  0
   37.6510   30.4730   52.2660 H   0  0  0  0  0  0  0  0  0  0  0  0
   38.7800   31.2540   50.2050 H   0  0  0  0  0  0  0  0  0  0  0  0
   38.0420   30.6690   47.6600 C   0  0  0  0  0  3  0  0  0  0  0  0
   37.3200   31.0670   46.6250 C   0  0  0  0  0  3  0  0  0  0  0  0
   38.0630   31.4750   45.3960 C   0  0  0  0  0  2  0  0  0  0  0  0
   38.9130   30.7850   45.2550 H   0  0  0  0  0  0  0  0  0  0  0  0
  1  3  1  0  0  0  0
  1 16  1  0  0  0  0
  2  1  1  0  0  0  0
  4  7  1  0  0  0  0
  4  1  1  0  0  0  0
  4  6  1  0  0  0  0
  5  4  1  0  0  0  0
  7  8  1  0  0  0  0
  8  9  2  0  0  0  0
  8 13  1  0  0  0  0
  9 14  1  0  0  0  0
 10  9  1  0  0  0  0
 11 10  2  0  0  0  0
 12 11  1  0  0  0  0
 12  7  2  0  0  0  0
 15 11  1  0  0  0  0
 16 21  1  0  0  0  0
 17 23  1  0  0  0  0
 18 24  1  0  0  0  0
 18 17  2  0  0  0  0
 19 18  1  0  0  0  0
 20 19  2  0  0  0  0
 20 21  1  0  0  0  0
 21 22  2  0  0  0  0
 22 17  1  0  0  0  0
 25 19  1  0  0  0  0
 26 25  2  0  0  0  0
 27 26  1  0  0  0  0
 28 27  1  0  0  0  0
M  END
>  <minimizedAffinity>
-5.08464336

>  <minimizedRMSD>
0.100194

$$$$
