
 OpenBabel03272500583D

 30 31  0  0  0  0  0  0  0  0999 V2000
   38.1210   31.8920   47.4290 C   0  0  0  0  0  0  0  0  0  0  0  0
   38.5970   32.7950   48.3390 C   0  0  0  0  0  0  0  0  0  0  0  0
   38.1000   32.8720   49.6450 C   0  0  0  0  0  0  0  0  0  0  0  0
   37.0450   31.9440   50.0060 C   0  0  0  0  0  0  0  0  0  0  0  0
   36.6210   31.0760   49.0580 C   0  0  0  0  0  0  0  0  0  0  0  0
   37.1030   31.0110   47.8060 C   0  0  0  0  0  0  0  0  0  0  0  0
   39.3980   33.5080   48.0850 H   0  0  0  0  0  0  0  0  0  0  0  0
   38.5260   33.6160   50.3160 H   0  0  0  0  0  0  0  0  0  0  0  0
   36.7740   32.1220   51.0170 H   0  0  0  0  0  0  0  0  0  0  0  0
   35.8700   30.4800   49.5540 H   0  0  0  0  0  0  0  0  0  0  0  0
   40.0010   31.2750   46.0010 C   0  0  0  0  0  0  0  0  0  0  0  0
   38.7520   31.9210   46.1270 C   0  0  0  0  0  0  0  0  0  0  0  0
   38.2860   32.5010   44.9730 C   0  0  0  0  0  0  0  0  0  0  0  0
   39.0020   32.4310   43.8350 N   0  0  0  0  0  0  0  0  0  0  0  0
   40.1610   31.8260   43.7370 C   0  0  0  0  0  0  0  0  0  0  0  0
   40.6600   31.2490   44.8190 N   0  0  0  0  0  0  0  0  0  0  0  0
   40.4480   30.7900   46.8600 H   0  0  0  0  0  0  0  0  0  0  0  0
   37.3170   33.0020   45.0710 H   0  0  0  0  0  0  0  0  0  0  0  0
   40.7180   31.7840   42.8110 H   0  0  0  0  0  0  0  0  0  0  0  0
   35.1650   29.9870   46.9540 C   0  0  0  0  0  0  0  0  0  0  0  0
   34.5290   30.6510   47.8650 O   0  0  0  0  0  0  0  0  0  0  0  0
   36.6080   30.1210   46.8860 N   0  0  0  0  0  0  0  0  0  0  0  0
   37.1830   29.6020   46.2210 H   0  0  0  0  0  0  0  0  0  0  0  0
   34.4580   29.1880   46.0990 O   0  0  0  0  0  0  0  0  0  0  0  0
   33.3110   29.5710   45.4150 C   0  0  0  0  0  0  0  0  0  0  0  0
   33.2940   30.6240   44.6240 O   0  0  0  0  0  0  0  0  0  0  0  0
   32.0490   28.8000   45.5200 C   0  0  0  0  0  3  0  0  0  0  0  0
   31.3260   28.4610   44.4820 C   0  0  0  0  0  3  0  0  0  0  0  0
   30.0560   27.6900   44.5350 C   0  0  0  0  0  2  0  0  0  0  0  0
   29.7220   27.4530   45.5550 H   0  0  0  0  0  0  0  0  0  0  0  0
  1  6  2  0  0  0  0
  1  2  1  0  0  0  0
  2  3  2  0  0  0  0
  3  4  1  0  0  0  0
  3  8  1  0  0  0  0
  4  9  1  0  0  0  0
  5 10  1  0  0  0  0
  5  4  2  0  0  0  0
  6  5  1  0  0  0  0
  7  2  1  0  0  0  0
 11 12  1  0  0  0  0
 11 17  1  0  0  0  0
 12  1  1  0  0  0  0
 13 18  1  0  0  0  0
 13 12  2  0  0  0  0
 14 13  1  0  0  0  0
 15 14  2  0  0  0  0
 15 16  1  0  0  0  0
 16 11  2  0  0  0  0
 19 15  1  0  0  0  0
 20 21  2  0  0  0  0
 22 20  1  0  0  0  0
 22  6  1  0  0  0  0
 23 22  1  0  0  0  0
 24 20  1  0  0  0  0
 25 27  1  0  0  0  0
 25 24  1  0  0  0  0
 26 25  2  0  0  0  0
 28 29  1  0  0  0  0
 28 27  2  0  0  0  0
 29 30  1  0  0  0  0
M  END
>  <minimizedAffinity>
-4.99007177

>  <minimizedRMSD>
0.219261289

$$$$
