
 OpenBabel03272500583D

 30 31  0  0  0  0  0  0  0  0999 V2000
   38.1650   31.8860   47.4140 C   0  0  0  0  0  0  0  0  0  0  0  0
   38.6840   32.7670   48.3230 C   0  0  0  0  0  0  0  0  0  0  0  0
   38.2150   32.8420   49.6400 C   0  0  0  0  0  0  0  0  0  0  0  0
   37.1440   31.9380   50.0130 C   0  0  0  0  0  0  0  0  0  0  0  0
   36.6780   31.0910   49.0650 C   0  0  0  0  0  0  0  0  0  0  0  0
   37.1330   31.0280   47.8020 C   0  0  0  0  0  0  0  0  0  0  0  0
   39.4970   33.4620   48.0590 H   0  0  0  0  0  0  0  0  0  0  0  0
   38.6740   33.5680   50.3100 H   0  0  0  0  0  0  0  0  0  0  0  0
   36.8990   32.1120   51.0310 H   0  0  0  0  0  0  0  0  0  0  0  0
   35.9230   30.5100   49.5700 H   0  0  0  0  0  0  0  0  0  0  0  0
   40.0110   31.2580   45.9470 C   0  0  0  0  0  0  0  0  0  0  0  0
   38.7700   31.9130   46.0990 C   0  0  0  0  0  0  0  0  0  0  0  0
   38.2850   32.5000   44.9560 C   0  0  0  0  0  0  0  0  0  0  0  0
   38.9770   32.4270   43.8030 N   0  0  0  0  0  0  0  0  0  0  0  0
   40.1300   31.8130   43.6810 C   0  0  0  0  0  0  0  0  0  0  0  0
   40.6460   31.2300   44.7520 N   0  0  0  0  0  0  0  0  0  0  0  0
   40.4720   30.7680   46.7960 H   0  0  0  0  0  0  0  0  0  0  0  0
   37.3220   33.0080   45.0740 H   0  0  0  0  0  0  0  0  0  0  0  0
   40.6670   31.7690   42.7430 H   0  0  0  0  0  0  0  0  0  0  0  0
   35.1580   30.0270   47.0110 C   0  0  0  0  0  0  0  0  0  0  0  0
   34.5630   30.6700   47.9650 O   0  0  0  0  0  0  0  0  0  0  0  0
   36.5970   30.1620   46.8840 N   0  0  0  0  0  0  0  0  0  0  0  0
   37.1410   29.6580   46.1820 H   0  0  0  0  0  0  0  0  0  0  0  0
   34.4120   29.2500   46.1690 O   0  0  0  0  0  0  0  0  0  0  0  0
   33.1800   29.6080   45.6350 C   0  0  0  0  0  0  0  0  0  0  0  0
   33.0830   30.3850   44.5760 O   0  0  0  0  0  0  0  0  0  0  0  0
   31.9080   29.1150   46.2160 C   0  0  0  0  0  3  0  0  0  0  0  0
   30.7550   29.7030   46.0210 C   0  0  0  0  0  3  0  0  0  0  0  0
   29.4530   29.2480   46.5800 C   0  0  0  0  0  2  0  0  0  0  0  0
   29.5340   28.3730   47.2390 H   0  0  0  0  0  0  0  0  0  0  0  0
  1  6  2  0  0  0  0
  1  2  1  0  0  0  0
  2  3  2  0  0  0  0
  3  4  1  0  0  0  0
  3  8  1  0  0  0  0
  4  9  1  0  0  0  0
  5 10  1  0  0  0  0
  5  4  2  0  0  0  0
  6  5  1  0  0  0  0
  7  2  1  0  0  0  0
 11 12  1  0  0  0  0
 11 17  1  0  0  0  0
 12  1  1  0  0  0  0
 13 18  1  0  0  0  0
 13 12  2  0  0  0  0
 14 13  1  0  0  0  0
 15 14  2  0  0  0  0
 15 16  1  0  0  0  0
 16 11  2  0  0  0  0
 19 15  1  0  0  0  0
 20 21  2  0  0  0  0
 22 20  1  0  0  0  0
 22  6  1  0  0  0  0
 23 22  1  0  0  0  0
 24 20  1  0  0  0  0
 25 24  1  0  0  0  0
 25 27  1  0  0  0  0
 26 25  2  0  0  0  0
 28 27  2  0  0  0  0
 28 29  1  0  0  0  0
 29 30  1  0  0  0  0
M  END
>  <minimizedAffinity>
-5.29080153

>  <minimizedRMSD>
0.993502915

$$$$
