
 OpenBabel03272509533D

 38 40  0  0  0  0  0  0  0  0999 V2000
   37.3060   30.1450   51.4900 C   0  0  0  0  0  0  0  0  0  0  0  0
   38.0590   30.8530   50.5210 C   0  0  0  0  0  0  0  0  0  0  0  0
   37.7090   30.6690   49.1920 C   0  0  0  0  0  0  0  0  0  0  0  0
   36.6630   29.8190   48.9320 N   0  0  0  0  0  0  0  0  0  0  0  0
   35.9750   29.1710   49.8690 C   0  0  0  0  0  0  0  0  0  0  0  0
   36.3110   29.3440   51.1660 N   0  0  0  0  0  0  0  0  0  0  0  0
   37.6410   30.3420   52.5070 H   0  0  0  0  0  0  0  0  0  0  0  0
   38.8820   31.5210   50.7310 H   0  0  0  0  0  0  0  0  0  0  0  0
   38.8930   33.3070   49.0560 F   0  0  0  0  0  0  0  0  0  0  0  0
   38.9100   32.5250   47.9800 C   0  0  0  0  0  0  0  0  0  0  0  0
   38.3530   31.2980   48.0620 C   0  0  0  0  0  0  0  0  0  0  0  0
   38.4280   30.5720   46.8820 C   0  0  0  0  0  0  0  0  0  0  0  0
   39.0150   31.0620   45.7430 C   0  0  0  0  0  0  0  0  0  0  0  0
   39.5660   32.3090   45.7040 C   0  0  0  0  0  0  0  0  0  0  0  0
   39.5070   33.0500   46.8560 C   0  0  0  0  0  0  0  0  0  0  0  0
   38.0270   29.5580   46.7700 H   0  0  0  0  0  0  0  0  0  0  0  0
   39.0720   30.4830   44.8130 H   0  0  0  0  0  0  0  0  0  0  0  0
   40.0330   32.7150   44.8180 H   0  0  0  0  0  0  0  0  0  0  0  0
   39.9370   34.0440   46.8500 H   0  0  0  0  0  0  0  0  0  0  0  0
   34.9890   28.3900   49.3660 O   0  0  0  0  0  0  0  0  0  0  0  0
   34.4070   28.7430   48.1090 C   0  0  0  0  0  0  0  0  0  0  0  0
   35.1820   29.0690   47.3890 H   0  0  0  0  0  0  0  0  0  0  0  0
   33.7640   29.6240   48.3160 H   0  0  0  0  0  0  0  0  0  0  0  0
   33.5380   27.6380   47.6030 C   0  0  0  0  0  0  0  0  0  0  0  0
   33.8240   26.6390   47.9470 H   0  0  0  0  0  0  0  0  0  0  0  0
   33.6850   27.6100   46.4830 H   0  0  0  0  0  0  0  0  0  0  0  0
   32.0870   27.9080   47.7830 C   0  0  0  0  0  0  0  0  0  0  0  0
   31.4980   27.5260   48.9920 C   0  0  0  0  0  0  0  0  0  0  0  0
   30.1700   27.7400   49.2340 C   0  0  0  0  0  0  0  0  0  0  0  0
   29.4210   28.3150   48.3160 N   0  0  0  0  0  0  0  0  0  0  0  0
   29.9990   28.6870   47.1340 C   0  0  0  0  0  0  0  0  0  0  0  0
   31.3000   28.4990   46.8500 N   0  0  0  0  0  0  0  0  0  0  0  0
   32.1280   27.0530   49.7410 H   0  0  0  0  0  0  0  0  0  0  0  0
   29.6880   27.4510   50.1700 H   0  0  0  0  0  0  0  0  0  0  0  0
   29.1260   29.3200   46.1490 C   0  0  0  0  0  3  0  0  0  0  0  0
   27.8330   29.1880   46.1700 C   0  0  0  0  0  3  0  0  0  0  0  0
   26.9260   29.8310   45.1680 C   0  0  0  0  0  2  0  0  0  0  0  0
   27.5840   30.2470   44.3760 H   0  0  0  0  0  0  0  0  0  0  0  0
  1  7  1  0  0  0  0
  2  8  1  0  0  0  0
  2  1  2  0  0  0  0
  3  2  1  0  0  0  0
  4  3  2  0  0  0  0
  4  5  1  0  0  0  0
  5  6  2  0  0  0  0
  6  1  1  0  0  0  0
 10 11  1  0  0  0  0
 10  9  1  0  0  0  0
 11  3  1  0  0  0  0
 12 11  2  0  0  0  0
 13 12  1  0  0  0  0
 14 13  2  0  0  0  0
 14 15  1  0  0  0  0
 15 10  2  0  0  0  0
 16 12  1  0  0  0  0
 17 13  1  0  0  0  0
 18 14  1  0  0  0  0
 19 15  1  0  0  0  0
 20  5  1  0  0  0  0
 21 23  1  0  0  0  0
 21 20  1  0  0  0  0
 22 21  1  0  0  0  0
 24 27  1  0  0  0  0
 24 25  1  0  0  0  0
 24 21  1  0  0  0  0
 26 24  1  0  0  0  0
 27 28  1  0  0  0  0
 28 29  2  0  0  0  0
 28 33  1  0  0  0  0
 29 34  1  0  0  0  0
 30 29  1  0  0  0  0
 31 30  2  0  0  0  0
 32 31  1  0  0  0  0
 32 27  2  0  0  0  0
 35 36  2  0  0  0  0
 35 31  1  0  0  0  0
 37 36  1  0  0  0  0
 38 37  1  0  0  0  0
M  END
>  <minimizedAffinity>
-6.33771515

>  <minimizedRMSD>
0.382280022

$$$$
