
 OpenBabel03272507363D

 14 14  0  0  0  0  0  0  0  0999 V2000
   34.1530   28.8720   48.3120 C   0  0  0  0  0  0  0  0  0  0  0  0
   35.3780   29.3940   48.7180 C   0  0  0  0  0  0  0  0  0  0  0  0
   36.1190   30.1230   47.8030 C   0  0  0  0  0  0  0  0  0  0  0  0
   35.6210   30.2960   46.5530 N   0  0  0  0  0  0  0  0  0  0  0  0
   34.4230   29.7810   46.1680 C   0  0  0  0  0  0  0  0  0  0  0  0
   33.7210   29.0830   47.0590 N   0  0  0  0  0  0  0  0  0  0  0  0
   37.0670   30.5810   47.9660 H   0  0  0  0  0  0  0  0  0  0  0  0
   34.0280   29.9200   45.1710 H   0  0  0  0  0  0  0  0  0  0  0  0
   33.5160   28.1690   49.3130 O   0  0  0  0  0  0  0  0  0  0  0  0
   32.9150   27.3520   49.1480 H   0  0  0  0  0  0  0  0  0  0  0  0
   35.9330   29.2170   50.0540 C   0  0  0  0  0  3  0  0  0  0  0  0
   36.8010   30.0620   50.5800 C   0  0  0  0  0  3  0  0  0  0  0  0
   37.4080   29.9650   51.9050 C   0  0  0  0  0  2  0  0  0  0  0  0
   38.5060   29.8170   51.8060 H   0  0  0  0  0  0  0  0  0  0  0  0
  1  2  1  0  0  0  0
  1  9  1  0  0  0  0
  2 11  1  0  0  0  0
  3  7  1  0  0  0  0
  3  2  2  0  0  0  0
  4  3  1  0  0  0  0
  5  4  2  0  0  0  0
  5  6  1  0  0  0  0
  6  1  2  0  0  0  0
  8  5  1  0  0  0  0
 10  9  1  0  0  0  0
 11 12  2  0  0  0  0
 12 13  1  0  0  0  0
 14 13  1  0  0  0  0
M  END
>  <minimizedAffinity>
-3.69696403

>  <minimizedRMSD>
3.95235229

$$$$
