
 OpenBabel03272505353D

 32 33  0  0  1  0  0  0  0  0999 V2000
   37.5670   30.7860   49.4690 C   0  0  0  0  0  0  0  0  0  0  0  0
   37.3200   32.1320   49.7390 C   0  0  0  0  0  0  0  0  0  0  0  0
   37.7100   33.0640   48.7590 C   0  0  0  0  0  0  0  0  0  0  0  0
   38.3010   32.5960   47.6130 N   0  0  0  0  0  0  0  0  0  0  0  0
   38.5090   31.3000   47.4140 C   0  0  0  0  0  0  0  0  0  0  0  0
   38.1460   30.3860   48.3330 N   0  0  0  0  0  0  0  0  0  0  0  0
   39.1330   30.9090   46.1870 N   0  0  0  0  0  0  0  0  0  0  0  0
   40.5650   30.7890   46.1150 C   0  0  0  0  0  0  0  0  0  0  0  0
   41.1060   31.4050   44.8460 C   0  0  0  0  0  0  0  0  0  0  0  0
   40.3800   30.9790   43.6970 N   0  0  0  0  0  0  0  0  0  0  0  0
   39.2920   30.0630   43.9400 C   0  0  0  0  0  0  0  0  0  0  0  0
   38.3600   30.6260   45.0070 C   0  0  2  0  0  0  0  0  0  0  0  0
   36.8490   32.4640   50.6590 H   0  0  0  0  0  0  0  0  0  0  0  0
   37.5420   34.1220   48.9180 H   0  0  0  0  0  0  0  0  0  0  0  0
   41.0740   31.2310   46.9950 H   0  0  0  0  0  0  0  0  0  0  0  0
   40.8250   29.7000   46.0750 H   0  0  0  0  0  0  0  0  0  0  0  0
   42.1660   31.0420   44.7240 H   0  0  0  0  0  0  0  0  0  0  0  0
   41.1920   32.5050   44.9750 H   0  0  0  0  0  0  0  0  0  0  0  0
   40.1350   31.7450   43.0520 H   0  0  0  0  0  0  0  0  0  0  0  0
   39.6270   29.0820   44.2710 H   0  0  0  0  0  0  0  0  0  0  0  0
   38.6860   30.0250   43.0090 H   0  0  0  0  0  0  0  0  0  0  0  0
   37.6650   29.7820   45.2870 H   0  0  0  0  0  0  0  0  0  0  0  0
   37.1590   29.7730   50.5000 C   0  0  0  0  0  0  0  0  0  0  0  0
   35.8420   29.3730   50.2750 F   0  0  0  0  0  0  0  0  0  0  0  0
   38.0540   28.7670   50.4830 F   0  0  0  0  0  0  0  0  0  0  0  0
   37.1320   30.4490   51.7360 F   0  0  0  0  0  0  0  0  0  0  0  0
   37.5800   31.7540   44.4980 C   0  0  0  0  0  0  0  0  0  0  0  0
   38.0970   32.8810   44.3610 O   0  0  0  0  0  0  0  0  0  0  0  0
   36.2660   32.1530   44.0130 C   0  0  0  0  0  2  0  0  0  0  0  0
   36.3030   32.7340   42.8430 C   0  0  0  0  0  2  0  0  0  0  0  0
   35.0710   33.2010   42.2010 C   0  0  0  0  0  2  0  0  0  0  0  0
   35.1480   34.3210   42.0980 H   0  0  0  0  0  0  0  0  0  0  0  0
  1  2  1  0  0  0  0
  1 23  1  0  0  0  0
  2 13  1  0  0  0  0
  3 14  1  0  0  0  0
  3  2  2  0  0  0  0
  4  3  1  0  0  0  0
  5  4  2  0  0  0  0
  5  6  1  0  0  0  0
  6  1  2  0  0  0  0
  7  5  1  0  0  0  0
  8  7  1  0  0  0  0
  8 15  1  0  0  0  0
  9 18  1  0  0  0  0
  9  8  1  0  0  0  0
 10 11  1  0  0  0  0
 10  9  1  0  0  0  0
 11 20  1  0  0  0  0
 11 12  1  0  0  0  0
 12 22  1  1  0  0  0
 12  7  1  0  0  0  0
 16  8  1  0  0  0  0
 17  9  1  0  0  0  0
 19 10  1  0  0  0  0
 21 11  1  0  0  0  0
 23 26  1  0  0  0  0
 24 23  1  0  0  0  0
 25 23  1  0  0  0  0
 27 12  1  0  0  0  0
 28 27  2  0  0  0  0
 29 27  1  0  0  0  0
 30 29  1  0  0  0  0
 31 30  1  0  0  0  0
 32 31  1  0  0  0  0
M  END
>  <minimizedAffinity>
-4.90058279

>  <minimizedRMSD>
0.976093888

$$$$
