REMARK  Name = 
REMARK  6 active torsions:
REMARK  status: ('A' for Active; 'I' for Inactive)
REMARK    1  A    between atoms: C_1  and  C_2
REMARK    2  A    between atoms: C_1  and  O_9
REMARK    3  A    between atoms: C_2  and  C_3
REMARK    4  A    between atoms: O_9  and  C_14
REMARK    5  A    between atoms: C_12  and  C_25
REMARK    6  A    between atoms: C_26  and  C_27
REMARK                            x       y       z     vdW  Elec       q    Type
REMARK                         _______ _______ _______ _____ _____    ______ ____
ROOT
ATOM      1  C   UNL     1      33.731  28.591  48.699  0.00  0.00    +0.000 C 
ATOM      2  H   UNL     1      34.265  28.998  47.833  0.00  0.00    +0.000 HD
ATOM      3  H   UNL     1      33.102  29.423  49.115  0.00  0.00    +0.000 HD
ENDROOT
BRANCH   1   4
ATOM      4  C   UNL     1      32.813  27.462  48.352  0.00  0.00    +0.000 C 
ATOM      5  H   UNL     1      33.045  27.072  47.323  0.00  0.00    +0.000 HD
ATOM      6  H   UNL     1      32.946  26.594  49.041  0.00  0.00    +0.000 HD
BRANCH   4   7
ATOM      7  C   UNL     1      31.382  27.862  48.347  0.00  0.00    +0.000 A 
ATOM      8  C   UNL     1      30.695  27.740  49.529  0.00  0.00    +0.000 A 
ATOM      9  C   UNL     1      29.364  28.078  49.655  0.00  0.00    +0.000 A 
ATOM     10  N   UNL     1      28.718  28.541  48.591  0.00  0.00    +0.000 NA
ATOM     11  C   UNL     1      29.396  28.664  47.415  0.00  0.00    +0.000 A 
ATOM     12  N   UNL     1      30.696  28.336  47.285  0.00  0.00    +0.000 NA
ATOM     13  H   UNL     1      31.180  27.367  50.427  0.00  0.00    +0.000 HD
ATOM     14  H   UNL     1      28.846  27.974  50.592  0.00  0.00    +0.000 HD
ATOM     15  H   UNL     1      28.935  29.034  46.503  0.00  0.00    +0.000 HD
ENDBRANCH   4   7
ENDBRANCH   1   4
BRANCH   1  16
ATOM     16  O   UNL     1      34.611  28.219  49.754  0.00  0.00    +0.000 OA
BRANCH  16  21
ATOM     17  C   UNL     1      37.233  30.177  51.294  0.00  0.00    +0.000 A 
ATOM     18  C   UNL     1      37.906  30.626  50.152  0.00  0.00    +0.000 A 
ATOM     19  C   UNL     1      37.427  30.236  48.898  0.00  0.00    +0.000 A 
ATOM     20  N   UNL     1      36.314  29.427  48.875  0.00  0.00    +0.000 NA
ATOM     21  C   UNL     1      35.696  29.015  49.996  0.00  0.00    +0.000 A 
ATOM     22  N   UNL     1      36.167  29.399  51.202  0.00  0.00    +0.000 NA
ATOM     23  H   UNL     1      37.649  30.511  52.236  0.00  0.00    +0.000 HD
ATOM     24  H   UNL     1      38.782  31.263  50.166  0.00  0.00    +0.000 HD
BRANCH  19  25
ATOM     25  C   UNL     1      38.048  30.644  47.628  0.00  0.00    +0.000 C 
ATOM     26  C   UNL     1      38.003  29.881  46.548  0.00  0.00    +0.000 C 
BRANCH  26  27
ATOM     27  C   UNL     1      38.670  30.403  45.320  0.00  0.00    +0.000 C 
ATOM     28  H   UNL     1      39.610  30.901  45.615  0.00  0.00    +0.000 HD
ENDBRANCH  26  27
ENDBRANCH  19  25
ENDBRANCH  16  21
ENDBRANCH   1  16
TORSDOF 6
