
     RDKit          3D

 43 45  0  0  0  0  0  0  0  0999 V2000
   36.3838   30.5442   46.3901 Cl  0  0  0  0  0  0  0  0  0  0  0  0
   36.7889   30.5842   48.0830 C   0  0  0  0  0  0  0  0  0  0  0  0
   38.0320   31.0931   48.3511 C   0  0  0  0  0  0  0  0  0  0  0  0
   38.4082   31.2114   49.6816 C   0  0  0  0  0  0  0  0  0  0  0  0
   37.5048   30.8107   50.6569 C   0  0  0  0  0  0  0  0  0  0  0  0
   36.2695   30.3096   50.2999 C   0  0  0  0  0  0  0  0  0  0  0  0
   35.8625   30.1753   49.0031 C   0  0  0  0  0  0  0  0  0  0  0  0
   40.0366   33.3081   46.2431 C   0  0  0  0  0  0  0  0  0  0  0  0
   40.5687   32.4861   45.2628 C   0  0  0  0  0  0  0  0  0  0  0  0
   40.2247   31.1395   45.3478 C   0  0  0  0  0  0  0  0  0  0  0  0
   39.4065   30.7035   46.3584 N   0  0  0  0  0  0  0  0  0  0  0  0
   38.9252   31.5510   47.2750 C   0  0  0  0  0  0  0  0  0  0  0  0
   39.2425   32.8654   47.2182 N   0  0  0  0  0  0  0  0  0  0  0  0
   34.5625   29.5724   48.6070 C   0  0  1  0  0  0  0  0  0  0  0  0
   34.1791   30.0047   47.2719 C   0  0  0  0  0  0  0  0  0  0  0  0
   32.8620   29.2534   47.0466 C   0  0  0  0  0  0  0  0  0  0  0  0
   33.3570   27.8398   46.7004 C   0  0  0  0  0  0  0  0  0  0  0  0
   34.1777   27.2353   47.7496 C   0  0  0  0  0  0  0  0  0  0  0  0
   34.5477   28.0863   48.8915 C   0  0  1  0  0  0  0  0  0  0  0  0
   39.3785   31.6050   49.9523 H   0  0  0  0  0  0  0  0  0  0  0  0
   37.7807   30.8956   51.7115 H   0  0  0  0  0  0  0  0  0  0  0  0
   35.6129   30.0214   51.1147 H   0  0  0  0  0  0  0  0  0  0  0  0
   40.2485   34.3766   46.2607 H   0  0  0  0  0  0  0  0  0  0  0  0
   41.2101   32.8781   44.4849 H   0  0  0  0  0  0  0  0  0  0  0  0
   40.6203   30.4857   44.6068 H   0  0  0  0  0  0  0  0  0  0  0  0
   33.8663   29.9910   49.3887 H   0  0  0  0  0  0  0  0  0  0  0  0
   34.5596   29.5914   46.3522 H   0  0  0  0  0  0  0  0  0  0  0  0
   33.9019   31.0759   47.2194 H   0  0  0  0  0  0  0  0  0  0  0  0
   32.3124   29.6509   46.1803 H   0  0  0  0  0  0  0  0  0  0  0  0
   32.2611   29.2275   47.9697 H   0  0  0  0  0  0  0  0  0  0  0  0
   33.9632   28.0125   45.7613 H   0  0  0  0  0  0  0  0  0  0  0  0
   32.4694   27.3139   46.3626 H   0  0  0  0  0  0  0  0  0  0  0  0
   35.1403   26.8574   47.2928 H   0  0  0  0  0  0  0  0  0  0  0  0
   33.6734   26.3023   48.0825 H   0  0  0  0  0  0  0  0  0  0  0  0
   33.8098   27.8781   49.6849 H   0  0  0  0  0  0  0  0  0  0  0  0
   35.8807   27.6529   49.4406 C   0  0  0  0  0  0  0  0  0  0  0  0
   36.1876   27.4856   50.7149 C   0  0  0  0  0  0  0  0  0  0  0  0
   35.1307   27.7442   51.7260 C   0  0  0  0  0  0  0  0  0  0  0  0
   34.5922   28.6890   51.5799 H   0  0  0  0  0  0  0  0  0  0  0  0
   36.5259   27.5090   48.5837 H   0  0  0  0  0  0  0  0  0  0  0  0
   37.2105   27.1689   50.8697 H   0  0  0  0  0  0  0  0  0  0  0  0
   35.5705   27.7223   52.7422 H   0  0  0  0  0  0  0  0  0  0  0  0
   34.3521   26.9431   51.7234 H   0  0  0  0  0  0  0  0  0  0  0  0
  1  2  1  0
  2  3  2  0
  2  7  1  0
  3  4  1  0
  4  5  2  0
  6  5  1  0
  7  6  2  0
  8 13  2  0
  9 10  2  0
  9  8  1  0
 10 11  1  0
 11 12  2  0
 12  3  1  0
 13 12  1  0
 14 19  1  0
 14  7  1  0
 15 14  1  0
 16 15  1  0
 17 16  1  0
 17 18  1  0
 18 19  1  0
  4 20  1  0
  5 21  1  0
  6 22  1  0
  8 23  1  0
  9 24  1  0
 10 25  1  0
 14 26  1  1
 15 27  1  0
 15 28  1  0
 16 29  1  0
 16 30  1  0
 17 31  1  0
 17 32  1  0
 18 33  1  0
 18 34  1  0
 19 35  1  1
 36 37  2  3
 37 38  1  0
 38 39  1  0
 36 40  1  0
 37 41  1  0
 38 42  1  0
 38 43  1  0
 19 36  1  0
M  ISO  8  20  14  21  14  22  14  23  14  24  14  25  14  26  13  27  13
M  ISO  8  28  13  29  13  30  13  31  13  32  13  33  13  34  13  35  13
M  ISO  1  39   8
M  END
>  <DihAtoms>  (1) 
13,18,35,36

>  <DihDeg>  (1) 
112.59327440796812

$$$$
