REMARK  Name = 
REMARK  3 active torsions:
REMARK  status: ('A' for Active; 'I' for Inactive)
REMARK    1  A    between atoms: C_1  and  C_7
REMARK    2  A    between atoms: C_9  and  C_26
REMARK    3  A    between atoms: C_27  and  C_28
REMARK                            x       y       z     vdW  Elec       q    Type
REMARK                         _______ _______ _______ _____ _____    ______ ____
ROOT
ATOM      1  C   UNL     1      35.531  30.288  49.733  0.00  0.00    +0.000 C 
ATOM      2  C   UNL     1      36.485  31.168  48.950  0.00  0.00    +0.000 C 
ATOM      3  C   UNL     1      37.924  30.808  49.167  0.00  0.00    +0.000 C 
ATOM      4  C   UNL     1      38.317  30.771  50.622  0.00  0.00    +0.000 C 
ATOM      5  C   UNL     1      37.267  30.168  51.505  0.00  0.00    +0.000 C 
ATOM      6  C   UNL     1      36.225  29.404  50.711  0.00  0.00    +0.000 C 
ATOM      7  H   UNL     1      34.810  30.949  50.246  0.00  0.00    +0.000 HD
ATOM      8  H   UNL     1      36.271  31.055  47.886  0.00  0.00    +0.000 HD
ATOM      9  H   UNL     1      36.370  32.228  49.237  0.00  0.00    +0.000 HD
ATOM     10  H   UNL     1      38.095  29.825  48.688  0.00  0.00    +0.000 HD
ATOM     11  H   UNL     1      39.197  30.070  50.675  0.00  0.00    +0.000 HD
ATOM     12  H   UNL     1      38.701  31.745  50.978  0.00  0.00    +0.000 HD
ATOM     13  H   UNL     1      37.656  29.546  52.322  0.00  0.00    +0.000 HD
ATOM     14  H   UNL     1      36.702  31.041  51.945  0.00  0.00    +0.000 HD
ATOM     15  H   UNL     1      36.770  28.573  50.210  0.00  0.00    +0.000 HD
ATOM     16  H   UNL     1      35.527  28.976  51.439  0.00  0.00    +0.000 HD
ENDROOT
BRANCH   1  17
ATOM     17  C   UNL     1      34.758  29.422  48.795  0.00  0.00    +0.000 A 
ATOM     18  C   UNL     1      34.221  30.057  47.661  0.00  0.00    +0.000 A 
ATOM     19  C   UNL     1      33.487  29.258  46.783  0.00  0.00    +0.000 A 
ATOM     20  N   UNL     1      33.331  27.917  47.070  0.00  0.00    +0.000 NA
ATOM     21  C   UNL     1      33.866  27.350  48.173  0.00  0.00    +0.000 A 
ATOM     22  N   UNL     1      34.574  28.118  49.020  0.00  0.00    +0.000 NA
ATOM     23  H   UNL     1      34.308  31.085  47.393  0.00  0.00    +0.000 HD
ATOM     24  H   UNL     1      33.046  29.685  45.890  0.00  0.00    +0.000 HD
ATOM     25  H   UNL     1      33.685  26.293  48.304  0.00  0.00    +0.000 HD
ENDBRANCH   1  17
BRANCH   3  26
ATOM     26  C   UNL     1      38.736  31.901  48.557  0.00  0.00    +0.000 C 
ATOM     27  C   UNL     1      39.140  31.928  47.302  0.00  0.00    +0.000 C 
BRANCH  27  28
ATOM     28  C   UNL     1      38.765  30.793  46.425  0.00  0.00    +0.000 C 
ATOM     29  H   UNL     1      37.666  30.640  46.505  0.00  0.00    +0.000 HD
ENDBRANCH  27  28
ENDBRANCH   3  26
TORSDOF 3
