
 OpenBabel03272500323D

 39 41  0  0  1  0  0  0  0  0999 V2000
   35.3940   30.5690   49.1660 C   0  0  1  0  0  0  0  0  0  0  0  0
   34.5450   30.4580   47.9890 C   0  0  0  0  0  0  0  0  0  0  0  0
   33.4540   29.4900   48.4600 C   0  0  0  0  0  0  0  0  0  0  0  0
   34.1670   28.1330   48.3610 C   0  0  0  0  0  0  0  0  0  0  0  0
   35.3810   28.0500   49.1740 C   0  0  0  0  0  0  0  0  0  0  0  0
   35.8380   29.2840   49.8320 C   0  0  1  0  0  0  0  0  0  0  0  0
   34.8710   31.1230   49.9970 H   0  0  0  0  0  0  0  0  0  0  0  0
   34.7360   29.8160   47.1450 H   0  0  0  0  0  0  0  0  0  0  0  0
   34.0040   31.3940   47.7470 H   0  0  0  0  0  0  0  0  0  0  0  0
   32.5950   29.4830   47.7710 H   0  0  0  0  0  0  0  0  0  0  0  0
   33.1720   29.6940   49.5060 H   0  0  0  0  0  0  0  0  0  0  0  0
   34.4120   28.0600   47.2590 H   0  0  0  0  0  0  0  0  0  0  0  0
   33.3820   27.3990   48.5170 H   0  0  0  0  0  0  0  0  0  0  0  0
   36.2320   27.6840   48.5280 H   0  0  0  0  0  0  0  0  0  0  0  0
   35.2460   27.2240   49.9060 H   0  0  0  0  0  0  0  0  0  0  0  0
   35.4380   29.2540   50.8590 H   0  0  0  0  0  0  0  0  0  0  0  0
   36.7200   30.3400   46.4520 Cl  0  0  0  0  0  0  0  0  0  0  0  0
   37.2720   31.3860   47.7300 C   0  0  0  0  0  0  0  0  0  0  0  0
   38.3880   32.1150   47.4160 C   0  0  0  0  0  0  0  0  0  0  0  0
   38.8580   33.0160   48.3630 C   0  0  0  0  0  0  0  0  0  0  0  0
   38.1700   33.1250   49.5630 C   0  0  0  0  0  0  0  0  0  0  0  0
   37.0510   32.3530   49.7980 C   0  0  0  0  0  0  0  0  0  0  0  0
   36.5570   31.4540   48.8950 C   0  0  0  0  0  0  0  0  0  0  0  0
   39.7370   33.6160   48.1690 H   0  0  0  0  0  0  0  0  0  0  0  0
   38.5230   33.8290   50.3220 H   0  0  0  0  0  0  0  0  0  0  0  0
   36.5600   32.4940   50.7560 H   0  0  0  0  0  0  0  0  0  0  0  0
   39.1170   32.6110   43.8680 C   0  0  0  0  0  0  0  0  0  0  0  0
   40.2030   31.7920   43.6070 C   0  0  0  0  0  0  0  0  0  0  0  0
   40.6870   31.0630   44.6890 C   0  0  0  0  0  0  0  0  0  0  0  0
   40.0930   31.1840   45.9190 N   0  0  0  0  0  0  0  0  0  0  0  0
   39.0440   31.9950   46.1040 C   0  0  0  0  0  0  0  0  0  0  0  0
   38.5510   32.7150   45.0710 N   0  0  0  0  0  0  0  0  0  0  0  0
   38.6670   33.2200   43.0840 H   0  0  0  0  0  0  0  0  0  0  0  0
   40.6380   31.7300   42.6180 H   0  0  0  0  0  0  0  0  0  0  0  0
   41.5210   30.4250   44.5160 H   0  0  0  0  0  0  0  0  0  0  0  0
   37.3370   29.2650   49.9690 C   0  0  0  0  0  3  0  0  0  0  0  0
   38.0250   29.4420   51.0830 C   0  0  0  0  0  3  0  0  0  0  0  0
   37.2690   29.6860   52.3380 C   0  0  0  0  0  2  0  0  0  0  0  0
   36.4810   30.4440   52.2460 H   0  0  0  0  0  0  0  0  0  0  0  0
  1  6  1  0  0  0  0
  1  7  1  1  0  0  0
  2  3  1  0  0  0  0
  2  1  1  0  0  0  0
  3 11  1  0  0  0  0
  4  3  1  0  0  0  0
  4 13  1  0  0  0  0
  4  5  1  0  0  0  0
  5  6  1  0  0  0  0
  5 15  1  0  0  0  0
  6 36  1  0  0  0  0
  6 16  1  1  0  0  0
  8  2  1  0  0  0  0
  9  2  1  0  0  0  0
 10  3  1  0  0  0  0
 12  4  1  0  0  0  0
 14  5  1  0  0  0  0
 17 18  1  0  0  0  0
 18 23  1  0  0  0  0
 19 18  2  0  0  0  0
 19 20  1  0  0  0  0
 20 21  2  0  0  0  0
 21 22  1  0  0  0  0
 21 25  1  0  0  0  0
 22 26  1  0  0  0  0
 23  1  1  0  0  0  0
 23 22  2  0  0  0  0
 24 20  1  0  0  0  0
 27 32  1  0  0  0  0
 28 27  2  0  0  0  0
 28 29  1  0  0  0  0
 29 30  2  0  0  0  0
 30 31  1  0  0  0  0
 31 19  1  0  0  0  0
 32 31  2  0  0  0  0
 33 27  1  0  0  0  0
 34 28  1  0  0  0  0
 35 29  1  0  0  0  0
 36 37  2  0  0  0  0
 37 38  1  0  0  0  0
 39 38  1  0  0  0  0
M  END
>  <minimizedAffinity>
-6.5749259

>  <minimizedRMSD>
1.84701025

$$$$
