
 OpenBabel03272500583D

 30 31  0  0  0  0  0  0  0  0999 V2000
   38.1130   31.8640   47.4190 C   0  0  0  0  0  0  0  0  0  0  0  0
   38.5950   32.7400   48.3530 C   0  0  0  0  0  0  0  0  0  0  0  0
   38.0890   32.7960   49.6560 C   0  0  0  0  0  0  0  0  0  0  0  0
   37.0180   31.8770   49.9890 C   0  0  0  0  0  0  0  0  0  0  0  0
   36.5880   31.0350   49.0190 C   0  0  0  0  0  0  0  0  0  0  0  0
   37.0790   30.9900   47.7690 C   0  0  0  0  0  0  0  0  0  0  0  0
   39.4090   33.4460   48.1200 H   0  0  0  0  0  0  0  0  0  0  0  0
   38.5200   33.5200   50.3470 H   0  0  0  0  0  0  0  0  0  0  0  0
   36.7410   32.0370   51.0010 H   0  0  0  0  0  0  0  0  0  0  0  0
   35.8250   30.4410   49.4960 H   0  0  0  0  0  0  0  0  0  0  0  0
   40.0020   31.2620   45.9970 C   0  0  0  0  0  0  0  0  0  0  0  0
   38.7550   31.9120   46.1230 C   0  0  0  0  0  0  0  0  0  0  0  0
   38.3010   32.5130   44.9760 C   0  0  0  0  0  0  0  0  0  0  0  0
   39.0260   32.4590   43.8420 N   0  0  0  0  0  0  0  0  0  0  0  0
   40.1830   31.8500   43.7430 C   0  0  0  0  0  0  0  0  0  0  0  0
   40.6700   31.2520   44.8200 N   0  0  0  0  0  0  0  0  0  0  0  0
   40.4390   30.7600   46.8510 H   0  0  0  0  0  0  0  0  0  0  0  0
   37.3340   33.0170   45.0740 H   0  0  0  0  0  0  0  0  0  0  0  0
   40.7470   31.8210   42.8210 H   0  0  0  0  0  0  0  0  0  0  0  0
   35.1340   30.0100   46.8840 C   0  0  0  0  0  0  0  0  0  0  0  0
   34.5010   30.6610   47.8070 O   0  0  0  0  0  0  0  0  0  0  0  0
   36.5790   30.1280   46.8260 N   0  0  0  0  0  0  0  0  0  0  0  0
   37.1520   29.6180   46.1530 H   0  0  0  0  0  0  0  0  0  0  0  0
   34.4220   29.2390   46.0070 O   0  0  0  0  0  0  0  0  0  0  0  0
   33.5270   29.7270   45.0630 C   0  0  0  0  0  0  0  0  0  0  0  0
   33.9160   30.5050   44.0750 O   0  0  0  0  0  0  0  0  0  0  0  0
   32.0870   29.3760   45.1040 C   0  0  0  0  0  3  0  0  0  0  0  0
   31.2570   29.8560   45.9980 C   0  0  0  0  0  3  0  0  0  0  0  0
   29.8080   29.5370   46.0830 C   0  0  0  0  0  2  0  0  0  0  0  0
   29.4710   28.7990   45.3430 H   0  0  0  0  0  0  0  0  0  0  0  0
  1  6  2  0  0  0  0
  1  2  1  0  0  0  0
  2  3  2  0  0  0  0
  3  4  1  0  0  0  0
  3  8  1  0  0  0  0
  4  9  1  0  0  0  0
  5 10  1  0  0  0  0
  5  4  2  0  0  0  0
  6  5  1  0  0  0  0
  7  2  1  0  0  0  0
 11 12  1  0  0  0  0
 11 17  1  0  0  0  0
 12  1  1  0  0  0  0
 13 18  1  0  0  0  0
 13 12  2  0  0  0  0
 14 13  1  0  0  0  0
 15 14  2  0  0  0  0
 15 16  1  0  0  0  0
 16 11  2  0  0  0  0
 19 15  1  0  0  0  0
 20 21  2  0  0  0  0
 22 20  1  0  0  0  0
 22  6  1  0  0  0  0
 23 22  1  0  0  0  0
 24 20  1  0  0  0  0
 25 27  1  0  0  0  0
 25 24  1  0  0  0  0
 26 25  2  0  0  0  0
 27 28  2  0  0  0  0
 28 29  1  0  0  0  0
 30 29  1  0  0  0  0
M  END
>  <minimizedAffinity>
-5.19295549

>  <minimizedRMSD>
0.481508791

$$$$
