
 OpenBabel03272509113D

 23 24  0  0  0  0  0  0  0  0999 V2000
   37.0900   31.0330   50.7000 C   0  0  0  0  0  0  0  0  0  0  0  0
   37.6210   31.4780   49.4630 C   0  0  0  0  0  0  0  0  0  0  0  0
   37.4970   30.6810   48.3580 C   0  0  0  0  0  0  0  0  0  0  0  0
   36.8680   29.5040   48.5400 N   0  0  0  0  0  0  0  0  0  0  0  0
   36.3700   29.0870   49.7200 C   0  0  0  0  0  0  0  0  0  0  0  0
   36.4790   29.8450   50.7860 N   0  0  0  0  0  0  0  0  0  0  0  0
   37.1260   31.5750   51.6320 H   0  0  0  0  0  0  0  0  0  0  0  0
   35.9060   28.1390   49.7100 H   0  0  0  0  0  0  0  0  0  0  0  0
   37.9830   31.0200   47.0340 C   0  0  0  0  0  0  0  0  0  0  0  0
   39.3660   31.0900   46.8930 C   0  0  0  0  0  0  0  0  0  0  0  0
   39.9540   31.3630   45.6700 C   0  0  0  0  0  0  0  0  0  0  0  0
   39.0850   31.5630   44.6040 C   0  0  0  0  0  0  0  0  0  0  0  0
   37.6860   31.5070   44.6910 C   0  0  0  0  0  0  0  0  0  0  0  0
   37.1460   31.2250   45.9550 C   0  0  0  0  0  0  0  0  0  0  0  0
   40.1560   30.9980   47.6190 H   0  0  0  0  0  0  0  0  0  0  0  0
   40.9910   31.4410   45.4340 H   0  0  0  0  0  0  0  0  0  0  0  0
   39.4370   31.7880   43.5810 H   0  0  0  0  0  0  0  0  0  0  0  0
   37.0550   31.6710   43.8370 H   0  0  0  0  0  0  0  0  0  0  0  0
   36.0850   31.1630   46.1120 H   0  0  0  0  0  0  0  0  0  0  0  0
   38.3490   32.6840   49.4210 C   0  0  0  0  0  0  0  0  0  0  0  0
   39.0450   33.7490   49.2850 C   0  0  0  0  0  0  0  0  0  0  0  0
   39.9580   34.6350   48.5470 C   0  0  0  0  0  0  0  0  0  0  0  0
   40.9130   34.7420   49.0950 H   0  0  0  0  0  0  0  0  0  0  0  0
  1  6  1  0  0  0  0
  1  7  1  0  0  0  0
  2  1  1  0  0  0  0
  3  4  2  0  0  0  0
  3  2  1  0  0  0  0
  4  5  1  0  0  0  0
  5  6  2  0  0  0  0
  8  5  1  0  0  0  0
  9  3  1  0  0  0  0
 10  9  1  0  0  0  0
 10 15  1  0  0  0  0
 11 10  2  0  0  0  0
 12 13  2  0  0  0  0
 12 11  1  0  0  0  0
 13 14  1  0  0  0  0
 14 19  1  0  0  0  0
 14  9  2  0  0  0  0
 16 11  1  0  0  0  0
 17 12  1  0  0  0  0
 18 13  1  0  0  0  0
 20  2  2  0  0  0  0
 21 20  2  0  0  0  0
 22 23  1  0  0  0  0
 22 21  1  0  0  0  0
M  END
>  <minimizedAffinity>
-5.15531969

>  <minimizedRMSD>
1.87740612

$$$$
