
 OpenBabel03272508403D

 37 39  0  0  1  0  0  0  0  0999 V2000
   32.7990   29.5060   46.6920 N   0  0  0  0  0  0  0  0  0  0  0  0
   33.8930   30.0250   47.5070 C   0  0  0  0  0  0  0  0  0  0  0  0
   34.9320   29.0450   47.8230 C   0  0  2  0  0  0  0  0  0  0  0  0
   34.3570   27.7360   48.2340 N   0  0  0  0  0  0  0  0  0  0  0  0
   33.4480   27.3030   47.1560 C   0  0  0  0  0  0  0  0  0  0  0  0
   32.3100   28.2940   47.2460 C   0  0  0  0  0  0  0  0  0  0  0  0
   34.2520   30.9340   47.0380 H   0  0  0  0  0  0  0  0  0  0  0  0
   33.3240   30.2200   48.4800 H   0  0  0  0  0  0  0  0  0  0  0  0
   35.5510   28.7060   46.9730 H   0  0  0  0  0  0  0  0  0  0  0  0
   33.8090   27.8790   49.0950 H   0  0  0  0  0  0  0  0  0  0  0  0
   33.9530   27.3180   46.1900 H   0  0  0  0  0  0  0  0  0  0  0  0
   33.0570   26.3230   47.4680 H   0  0  0  0  0  0  0  0  0  0  0  0
   32.0350   28.3880   48.3170 H   0  0  0  0  0  0  0  0  0  0  0  0
   31.4210   27.9010   46.7210 H   0  0  0  0  0  0  0  0  0  0  0  0
   37.0770   30.9290   46.9890 Cl  0  0  0  0  0  0  0  0  0  0  0  0
   36.7910   30.4340   48.6580 C   0  0  0  0  0  0  0  0  0  0  0  0
   35.7860   29.5360   48.8890 C   0  0  0  0  0  0  0  0  0  0  0  0
   35.4450   29.0550   50.1610 C   0  0  0  0  0  0  0  0  0  0  0  0
   36.2100   29.5500   51.2250 C   0  0  0  0  0  0  0  0  0  0  0  0
   37.2440   30.4670   50.9930 C   0  0  0  0  0  0  0  0  0  0  0  0
   37.5180   30.8970   49.7120 C   0  0  0  0  0  0  0  0  0  0  0  0
   34.7400   28.3940   50.6070 H   0  0  0  0  0  0  0  0  0  0  0  0
   36.1350   29.3270   52.2790 H   0  0  0  0  0  0  0  0  0  0  0  0
   37.8750   30.8900   51.7590 H   0  0  0  0  0  0  0  0  0  0  0  0
   38.5840   31.8490   49.4410 C   0  0  0  0  0  3  0  0  0  0  0  0
   38.3830   33.1470   49.3980 C   0  0  0  0  0  3  0  0  0  0  0  0
   39.4300   34.1600   49.1260 C   0  0  0  0  0  2  0  0  0  0  0  0
   39.3250   34.6610   48.1470 H   0  0  0  0  0  0  0  0  0  0  0  0
   32.3280   30.1710   45.5310 C   0  0  0  0  0  0  0  0  0  0  0  0
   32.1290   29.4990   44.3220 C   0  0  0  0  0  0  0  0  0  0  0  0
   31.6620   30.2230   43.2280 C   0  0  0  0  0  0  0  0  0  0  0  0
   31.4220   31.5790   43.4020 N   0  0  0  0  0  0  0  0  0  0  0  0
   31.6310   32.1770   44.5900 C   0  0  0  0  0  0  0  0  0  0  0  0
   32.0750   31.5030   45.6400 N   0  0  0  0  0  0  0  0  0  0  0  0
   32.3340   28.4450   44.2510 H   0  0  0  0  0  0  0  0  0  0  0  0
   31.4900   29.7580   42.2720 H   0  0  0  0  0  0  0  0  0  0  0  0
   31.4420   33.2310   44.7180 H   0  0  0  0  0  0  0  0  0  0  0  0
  1  6  1  0  0  0  0
  1  2  1  0  0  0  0
  2  3  1  0  0  0  0
  2  8  1  0  0  0  0
  3  9  1  6  0  0  0
  3  4  1  0  0  0  0
  3 17  1  0  0  0  0
  4 10  1  0  0  0  0
  5  6  1  0  0  0  0
  5 12  1  0  0  0  0
  5  4  1  0  0  0  0
  6 13  1  0  0  0  0
  7  2  1  0  0  0  0
 11  5  1  0  0  0  0
 14  6  1  0  0  0  0
 15 16  1  0  0  0  0
 16 17  2  0  0  0  0
 16 21  1  0  0  0  0
 17 18  1  0  0  0  0
 18 22  1  0  0  0  0
 18 19  2  0  0  0  0
 19 23  1  0  0  0  0
 20 19  1  0  0  0  0
 20 24  1  0  0  0  0
 21 20  2  0  0  0  0
 25 21  1  0  0  0  0
 26 25  2  0  0  0  0
 27 26  1  0  0  0  0
 28 27  1  0  0  0  0
 29 34  1  0  0  0  0
 29  1  1  0  0  0  0
 30 29  2  0  0  0  0
 31 32  2  0  0  0  0
 31 30  1  0  0  0  0
 32 33  1  0  0  0  0
 33 37  1  0  0  0  0
 33 34  2  0  0  0  0
 35 30  1  0  0  0  0
 36 31  1  0  0  0  0
M  END
>  <minimizedAffinity>
-6.48431778

>  <minimizedRMSD>
2.45143795

$$$$
