
 OpenBabel03272501463D

 42 45  0  0  1  0  0  0  0  0999 V2000
   33.9940   28.9540   49.3800 C   0  0  0  0  0  0  0  0  0  0  0  0
   34.4780   29.6020   48.2200 C   0  0  0  0  0  0  0  0  0  0  0  0
   33.8220   29.3470   47.0210 C   0  0  0  0  0  0  0  0  0  0  0  0
   32.7680   28.4990   47.0300 N   0  0  0  0  0  0  0  0  0  0  0  0
   32.3230   27.8900   48.1600 C   0  0  0  0  0  0  0  0  0  0  0  0
   32.9420   28.1260   49.3140 N   0  0  0  0  0  0  0  0  0  0  0  0
   34.4610   29.1120   50.3380 H   0  0  0  0  0  0  0  0  0  0  0  0
   34.2120   29.8500   46.1750 H   0  0  0  0  0  0  0  0  0  0  0  0
   35.8930   30.8760   49.7110 C   0  0  0  0  0  0  0  0  0  0  0  0
   35.6170   30.4670   48.4310 C   0  0  0  0  0  0  0  0  0  0  0  0
   36.4630   30.9240   47.4440 C   0  0  0  0  0  0  0  0  0  0  0  0
   37.5370   31.7600   47.7710 C   0  0  0  0  0  0  0  0  0  0  0  0
   38.4890   32.3360   47.0350 N   0  0  0  0  0  0  0  0  0  0  0  0
   39.2920   33.0470   47.8060 C   0  0  0  0  0  0  0  0  0  0  0  0
   38.8600   32.9390   49.0900 N   0  0  0  0  0  0  0  0  0  0  0  0
   37.7710   32.1390   49.0550 C   0  0  0  0  0  0  0  0  0  0  0  0
   36.9420   31.6960   50.0460 C   0  0  0  0  0  0  0  0  0  0  0  0
   35.2580   30.5450   50.5270 H   0  0  0  0  0  0  0  0  0  0  0  0
   36.2680   30.6170   46.4280 H   0  0  0  0  0  0  0  0  0  0  0  0
   38.6140   32.2590   45.9990 H   0  0  0  0  0  0  0  0  0  0  0  0
   40.1640   33.6460   47.5750 H   0  0  0  0  0  0  0  0  0  0  0  0
   37.1320   31.9990   51.0600 H   0  0  0  0  0  0  0  0  0  0  0  0
   31.1540   26.9790   48.0460 C   0  0  0  0  0  0  0  0  0  0  0  0
   31.5290   26.0570   47.5430 H   0  0  0  0  0  0  0  0  0  0  0  0
   30.8560   26.6670   49.0640 H   0  0  0  0  0  0  0  0  0  0  0  0
   30.0560   27.5510   47.2310 C   0  0  1  0  0  0  0  0  0  0  0  0
   29.6600   26.4920   46.1950 C   0  0  0  0  0  0  0  0  0  0  0  0
   28.2040   26.2010   46.4060 C   0  0  0  0  0  0  0  0  0  0  0  0
   27.9840   26.5500   47.8510 C   0  0  0  0  0  0  0  0  0  0  0  0
   28.7880   27.8520   47.9450 C   0  0  1  0  0  0  0  0  0  0  0  0
   30.4530   28.4630   46.7080 H   0  0  0  0  0  0  0  0  0  0  0  0
   29.8050   26.9430   45.1730 H   0  0  0  0  0  0  0  0  0  0  0  0
   30.2710   25.5900   46.2700 H   0  0  0  0  0  0  0  0  0  0  0  0
   27.5880   26.8750   45.7880 H   0  0  0  0  0  0  0  0  0  0  0  0
   27.9230   25.1660   46.1820 H   0  0  0  0  0  0  0  0  0  0  0  0
   28.5130   25.7960   48.4740 H   0  0  0  0  0  0  0  0  0  0  0  0
   26.9380   26.7130   48.1310 H   0  0  0  0  0  0  0  0  0  0  0  0
   28.2170   28.5720   47.2910 H   0  0  0  0  0  0  0  0  0  0  0  0
   28.9130   28.3400   49.3170 C   0  0  0  0  0  0  0  0  0  0  0  0
   28.2760   29.3470   49.9220 C   0  0  0  0  0  0  0  0  0  0  0  0
   27.3050   30.0610   49.0570 C   0  0  0  0  0  0  0  0  0  0  0  0
   26.7910   30.8510   49.6410 H   0  0  0  0  0  0  0  0  0  0  0  0
  1  7  1  0  0  0  0
  2 10  1  0  0  0  0
  2  1  2  0  0  0  0
  3  4  2  0  0  0  0
  3  2  1  0  0  0  0
  4  5  1  0  0  0  0
  5  6  2  0  0  0  0
  6  1  1  0  0  0  0
  8  3  1  0  0  0  0
  9 17  1  0  0  0  0
  9 18  1  0  0  0  0
 10  9  2  0  0  0  0
 11 12  2  0  0  0  0
 11 10  1  0  0  0  0
 12 16  1  0  0  0  0
 13 12  1  0  0  0  0
 13 14  1  0  0  0  0
 14 15  2  0  0  0  0
 16 15  1  0  0  0  0
 16 17  2  0  0  0  0
 17 22  1  0  0  0  0
 19 11  1  0  0  0  0
 20 13  1  0  0  0  0
 21 14  1  0  0  0  0
 23  5  1  0  0  0  0
 23 25  1  0  0  0  0
 24 23  1  0  0  0  0
 26 31  1  6  0  0  0
 26 30  1  0  0  0  0
 26 23  1  0  0  0  0
 27 33  1  0  0  0  0
 27 28  1  0  0  0  0
 27 26  1  0  0  0  0
 28 29  1  0  0  0  0
 29 30  1  0  0  0  0
 29 37  1  0  0  0  0
 29 36  1  0  0  0  0
 30 38  1  6  0  0  0
 30 39  1  0  0  0  0
 32 27  1  0  0  0  0
 34 28  1  0  0  0  0
 35 28  1  0  0  0  0
 39 40  1  0  0  0  0
 41 42  1  0  0  0  0
 41 40  1  0  0  0  0
M  END
>  <minimizedAffinity>
-6.31578159

>  <minimizedRMSD>
1.74895966

$$$$
