
 OpenBabel03272509533D

 38 40  0  0  0  0  0  0  0  0999 V2000
   37.2840   30.1340   51.4830 C   0  0  0  0  0  0  0  0  0  0  0  0
   38.0420   30.8410   50.5180 C   0  0  0  0  0  0  0  0  0  0  0  0
   37.6940   30.6630   49.1880 C   0  0  0  0  0  0  0  0  0  0  0  0
   36.6450   29.8180   48.9230 N   0  0  0  0  0  0  0  0  0  0  0  0
   35.9520   29.1700   49.8570 C   0  0  0  0  0  0  0  0  0  0  0  0
   36.2850   29.3380   51.1550 N   0  0  0  0  0  0  0  0  0  0  0  0
   37.6170   30.3260   52.5020 H   0  0  0  0  0  0  0  0  0  0  0  0
   38.8670   31.5050   50.7310 H   0  0  0  0  0  0  0  0  0  0  0  0
   38.8850   33.2980   49.0600 F   0  0  0  0  0  0  0  0  0  0  0  0
   38.9030   32.5180   47.9830 C   0  0  0  0  0  0  0  0  0  0  0  0
   38.3430   31.2920   48.0610 C   0  0  0  0  0  0  0  0  0  0  0  0
   38.4200   30.5690   46.8800 C   0  0  0  0  0  0  0  0  0  0  0  0
   39.0120   31.0580   45.7440 C   0  0  0  0  0  0  0  0  0  0  0  0
   39.5660   32.3040   45.7090 C   0  0  0  0  0  0  0  0  0  0  0  0
   39.5060   33.0440   46.8610 C   0  0  0  0  0  0  0  0  0  0  0  0
   38.0170   29.5550   46.7650 H   0  0  0  0  0  0  0  0  0  0  0  0
   39.0710   30.4810   44.8130 H   0  0  0  0  0  0  0  0  0  0  0  0
   40.0370   32.7110   44.8250 H   0  0  0  0  0  0  0  0  0  0  0  0
   39.9380   34.0360   46.8600 H   0  0  0  0  0  0  0  0  0  0  0  0
   34.9640   28.3950   49.3490 O   0  0  0  0  0  0  0  0  0  0  0  0
   34.3860   28.7550   48.0920 C   0  0  0  0  0  0  0  0  0  0  0  0
   35.1640   29.0770   47.3740 H   0  0  0  0  0  0  0  0  0  0  0  0
   33.7490   29.6400   48.3010 H   0  0  0  0  0  0  0  0  0  0  0  0
   33.5090   27.6570   47.5830 C   0  0  0  0  0  0  0  0  0  0  0  0
   33.7880   26.6550   47.9250 H   0  0  0  0  0  0  0  0  0  0  0  0
   33.6550   27.6320   46.4630 H   0  0  0  0  0  0  0  0  0  0  0  0
   32.0600   27.9360   47.7650 C   0  0  0  0  0  0  0  0  0  0  0  0
   31.4560   27.5010   48.9480 C   0  0  0  0  0  0  0  0  0  0  0  0
   30.1280   27.7190   49.1910 C   0  0  0  0  0  0  0  0  0  0  0  0
   29.3950   28.3500   48.2970 N   0  0  0  0  0  0  0  0  0  0  0  0
   29.9880   28.7750   47.1400 C   0  0  0  0  0  0  0  0  0  0  0  0
   31.2880   28.5840   46.8570 N   0  0  0  0  0  0  0  0  0  0  0  0
   32.0730   26.9820   49.6770 H   0  0  0  0  0  0  0  0  0  0  0  0
   29.6340   27.3890   50.1060 H   0  0  0  0  0  0  0  0  0  0  0  0
   29.1310   29.4690   46.1820 C   0  0  0  0  0  3  0  0  0  0  0  0
   27.9210   29.8470   46.4690 C   0  0  0  0  0  3  0  0  0  0  0  0
   27.0320   30.5580   45.4980 C   0  0  0  0  0  2  0  0  0  0  0  0
   27.5470   30.5150   44.5150 H   0  0  0  0  0  0  0  0  0  0  0  0
  1  7  1  0  0  0  0
  2  8  1  0  0  0  0
  2  1  2  0  0  0  0
  3  2  1  0  0  0  0
  4  3  2  0  0  0  0
  4  5  1  0  0  0  0
  5  6  2  0  0  0  0
  6  1  1  0  0  0  0
 10 11  1  0  0  0  0
 10  9  1  0  0  0  0
 11  3  1  0  0  0  0
 12 11  2  0  0  0  0
 13 12  1  0  0  0  0
 14 13  2  0  0  0  0
 14 15  1  0  0  0  0
 15 10  2  0  0  0  0
 16 12  1  0  0  0  0
 17 13  1  0  0  0  0
 18 14  1  0  0  0  0
 19 15  1  0  0  0  0
 20  5  1  0  0  0  0
 21 23  1  0  0  0  0
 21 20  1  0  0  0  0
 22 21  1  0  0  0  0
 24 27  1  0  0  0  0
 24 25  1  0  0  0  0
 24 21  1  0  0  0  0
 26 24  1  0  0  0  0
 27 28  1  0  0  0  0
 28 29  2  0  0  0  0
 28 33  1  0  0  0  0
 29 34  1  0  0  0  0
 30 29  1  0  0  0  0
 31 30  2  0  0  0  0
 32 31  1  0  0  0  0
 32 27  2  0  0  0  0
 35 36  2  0  0  0  0
 35 31  1  0  0  0  0
 37 36  1  0  0  0  0
 38 37  1  0  0  0  0
M  END
>  <minimizedAffinity>
-6.39709282

>  <minimizedRMSD>
0.313776523

$$$$
