
 OpenBabel03262523163D

 34 36  0  0  0  0  0  0  0  0999 V2000
   34.7970   29.1810   48.3530 C   0  0  0  0  0  0  0  0  0  0  0  0
   34.4700   27.9180   48.8090 C   0  0  0  0  0  0  0  0  0  0  0  0
   33.3710   27.3710   48.2030 C   0  0  0  0  0  0  0  0  0  0  0  0
   32.6460   28.0140   47.2240 C   0  0  0  0  0  0  0  0  0  0  0  0
   33.0440   29.2640   46.8360 C   0  0  0  0  0  0  0  0  0  0  0  0
   34.1210   29.8400   47.4060 N   0  0  0  0  0  0  0  0  0  0  0  0
   35.0630   27.4640   49.5680 H   0  0  0  0  0  0  0  0  0  0  0  0
   33.0700   26.3650   48.5300 H   0  0  0  0  0  0  0  0  0  0  0  0
   31.8130   27.4860   46.8210 H   0  0  0  0  0  0  0  0  0  0  0  0
   30.0290   29.1520   46.9490 Cl  0  0  0  0  0  0  0  0  0  0  0  0
   30.9510   30.0170   45.7650 C   0  0  0  0  0  0  0  0  0  0  0  0
   32.3210   29.9990   45.8100 C   0  0  0  0  0  0  0  0  0  0  0  0
   32.9220   30.7400   44.7990 C   0  0  0  0  0  0  0  0  0  0  0  0
   32.2670   31.4370   43.8290 C   0  0  0  0  0  0  0  0  0  0  0  0
   30.8770   31.4230   43.8290 C   0  0  0  0  0  0  0  0  0  0  0  0
   29.9860   32.2980   42.6110 Cl  0  0  0  0  0  0  0  0  0  0  0  0
   30.2320   30.7040   44.8100 C   0  0  0  0  0  0  0  0  0  0  0  0
   34.0150   30.7690   44.7740 H   0  0  0  0  0  0  0  0  0  0  0  0
   32.7940   31.9960   43.0680 H   0  0  0  0  0  0  0  0  0  0  0  0
   29.1480   30.7100   44.7870 H   0  0  0  0  0  0  0  0  0  0  0  0
   37.4250   30.2310   50.6950 C   0  0  0  0  0  0  0  0  0  0  0  0
   38.1580   31.1700   49.9610 C   0  0  0  0  0  0  0  0  0  0  0  0
   37.7350   31.4300   48.6660 C   0  0  0  0  0  0  0  0  0  0  0  0
   36.6530   30.7630   48.2100 N   0  0  0  0  0  0  0  0  0  0  0  0
   35.9610   29.8670   48.9240 C   0  0  0  0  0  0  0  0  0  0  0  0
   36.3630   29.6090   50.1790 N   0  0  0  0  0  0  0  0  0  0  0  0
   39.0020   31.6470   50.4080 H   0  0  0  0  0  0  0  0  0  0  0  0
   37.7740   29.8800   52.0540 N   0  0  0  0  0  0  0  0  0  0  0  0
   38.1290   28.9090   52.0810 H   0  0  0  0  0  0  0  0  0  0  0  0
   37.6620   30.5530   52.8500 H   0  0  0  0  0  0  0  0  0  0  0  0
   38.4430   32.3910   47.8410 C   0  0  0  0  0  0  0  0  0  0  0  0
   39.2430   32.0020   46.8630 C   0  0  0  0  0  0  0  0  0  0  0  0
   39.9700   33.0110   46.0150 C   0  0  0  0  0  0  0  0  0  0  0  0
   39.3260   33.4430   45.2280 H   0  0  0  0  0  0  0  0  0  0  0  0
  1  2  1  0  0  0  0
  1 25  1  0  0  0  0
  2  7  1  0  0  0  0
  3  8  1  0  0  0  0
  3  2  2  0  0  0  0
  4  3  1  0  0  0  0
  5  4  2  0  0  0  0
  5  6  1  0  0  0  0
  6  1  2  0  0  0  0
  9  4  1  0  0  0  0
 11 12  1  0  0  0  0
 11 10  1  0  0  0  0
 12  5  1  0  0  0  0
 13 12  2  0  0  0  0
 14 13  1  0  0  0  0
 15 14  2  0  0  0  0
 15 17  1  0  0  0  0
 16 15  1  0  0  0  0
 17 11  2  0  0  0  0
 18 13  1  0  0  0  0
 19 14  1  0  0  0  0
 20 17  1  0  0  0  0
 21 28  1  0  0  0  0
 22 27  1  0  0  0  0
 22 21  2  0  0  0  0
 23 22  1  0  0  0  0
 24 23  2  0  0  0  0
 24 25  1  0  0  0  0
 25 26  2  0  0  0  0
 26 21  1  0  0  0  0
 28 29  1  0  0  0  0
 28 30  1  0  0  0  0
 31 23  1  0  0  0  0
 32 31  2  0  0  0  0
 33 32  1  0  0  0  0
 34 33  1  0  0  0  0
M  END
>  <minimizedAffinity>
-6.61462879

>  <minimizedRMSD>
0.323875606

$$$$
