
 OpenBabel03272506313D

 29 30  0  0  1  0  0  0  0  0999 V2000
   38.4110   24.9110   33.6830 C   0  0  1  0  0  0  0  0  0  0  0  0
   39.6350   25.6470   33.3800 C   0  0  0  0  0  0  0  0  0  0  0  0
   39.7800   27.0150   33.9820 C   0  0  0  0  0  0  0  0  0  0  0  0
   39.2440   27.1630   35.3500 C   0  0  0  0  0  0  0  0  0  0  0  0
   37.9980   26.4150   35.6920 C   0  0  0  0  0  0  0  0  0  0  0  0
   38.0020   25.0320   35.1200 C   0  0  2  0  0  0  0  0  0  0  0  0
   38.6450   23.8010   33.5750 H   0  0  0  0  0  0  0  0  0  0  0  0
   39.9350   25.7100   32.3350 H   0  0  0  0  0  0  0  0  0  0  0  0
   40.4880   25.0620   33.8540 H   0  0  0  0  0  0  0  0  0  0  0  0
   39.2490   27.7210   33.3070 H   0  0  0  0  0  0  0  0  0  0  0  0
   40.8460   27.2850   33.9650 H   0  0  0  0  0  0  0  0  0  0  0  0
   40.0490   26.9360   36.0880 H   0  0  0  0  0  0  0  0  0  0  0  0
   39.0200   28.2570   35.4990 H   0  0  0  0  0  0  0  0  0  0  0  0
   37.9730   26.2980   36.7970 H   0  0  0  0  0  0  0  0  0  0  0  0
   37.0910   26.9370   35.3280 H   0  0  0  0  0  0  0  0  0  0  0  0
   37.1220   24.4830   35.4270 H   0  0  0  0  0  0  0  0  0  0  0  0
   36.7790   26.3600   32.4050 C   0  0  0  0  0  0  0  0  0  0  0  0
   37.2850   25.0900   32.7400 C   0  0  0  0  0  0  0  0  0  0  0  0
   36.6900   24.0020   32.1300 C   0  0  0  0  0  0  0  0  0  0  0  0
   35.6560   24.2120   31.2480 N   0  0  0  0  0  0  0  0  0  0  0  0
   35.2070   25.4500   30.9590 C   0  0  0  0  0  0  0  0  0  0  0  0
   35.7780   26.5340   31.5470 N   0  0  0  0  0  0  0  0  0  0  0  0
   37.1710   27.2740   32.8220 H   0  0  0  0  0  0  0  0  0  0  0  0
   36.9620   22.9690   32.2800 H   0  0  0  0  0  0  0  0  0  0  0  0
   34.3900   25.4740   30.2490 H   0  0  0  0  0  0  0  0  0  0  0  0
   39.1070   24.3170   35.8790 C   0  0  0  0  0  3  0  0  0  0  0  0
   38.8740   23.3810   36.8230 C   0  0  0  0  0  3  0  0  0  0  0  0
   37.4370   23.0850   37.0830 C   0  0  0  0  0  2  0  0  0  0  0  0
   37.3280   22.2680   37.8410 H   0  0  0  0  0  0  0  0  0  0  0  0
  1  7  1  6  0  0  0
  1  6  1  0  0  0  0
  2  1  1  0  0  0  0
  2  9  1  0  0  0  0
  2  3  1  0  0  0  0
  3  4  1  0  0  0  0
  4 13  1  0  0  0  0
  4  5  1  0  0  0  0
  4 12  1  0  0  0  0
  5 14  1  0  0  0  0
  6 16  1  1  0  0  0
  6  5  1  0  0  0  0
  6 26  1  0  0  0  0
  8  2  1  0  0  0  0
 10  3  1  0  0  0  0
 11  3  1  0  0  0  0
 15  5  1  0  0  0  0
 17 18  1  0  0  0  0
 17 23  1  0  0  0  0
 18  1  1  0  0  0  0
 19 24  1  0  0  0  0
 19 18  2  0  0  0  0
 20 19  1  0  0  0  0
 21 20  2  0  0  0  0
 21 22  1  0  0  0  0
 22 17  2  0  0  0  0
 25 21  1  0  0  0  0
 26 27  2  0  0  0  0
 27 28  1  0  0  0  0
 28 29  1  0  0  0  0
M  END
>  <minimizedAffinity>
-4.43616247

$$$$

 OpenBabel03272506313D

 29 30  0  0  1  0  0  0  0  0999 V2000
   39.8400   25.0860   34.4690 C   0  0  1  0  0  0  0  0  0  0  0  0
   38.5390   24.9770   33.8170 C   0  0  0  0  0  0  0  0  0  0  0  0
   37.4140   25.7910   34.3910 C   0  0  0  0  0  0  0  0  0  0  0  0
   37.7930   27.1290   34.8890 C   0  0  0  0  0  0  0  0  0  0  0  0
   39.1220   27.2720   35.5520 C   0  0  0  0  0  0  0  0  0  0  0  0
   40.1870   26.4950   34.8430 C   0  0  2  0  0  0  0  0  0  0  0  0
   40.6330   24.8230   33.6940 H   0  0  0  0  0  0  0  0  0  0  0  0
   38.1580   23.9760   33.6230 H   0  0  0  0  0  0  0  0  0  0  0  0
   38.6650   25.4090   32.7720 H   0  0  0  0  0  0  0  0  0  0  0  0
   36.9860   25.2000   35.2300 H   0  0  0  0  0  0  0  0  0  0  0  0
   36.6320   25.8840   33.6240 H   0  0  0  0  0  0  0  0  0  0  0  0
   37.6860   27.8730   34.0640 H   0  0  0  0  0  0  0  0  0  0  0  0
   37.0150   27.4300   35.6460 H   0  0  0  0  0  0  0  0  0  0  0  0
   39.4150   28.3420   35.4830 H   0  0  0  0  0  0  0  0  0  0  0  0
   39.0940   26.9360   36.6080 H   0  0  0  0  0  0  0  0  0  0  0  0
   41.1540   26.6580   35.2990 H   0  0  0  0  0  0  0  0  0  0  0  0
   39.1250   23.6800   36.4460 C   0  0  0  0  0  0  0  0  0  0  0  0
   40.1190   24.1120   35.5480 C   0  0  0  0  0  0  0  0  0  0  0  0
   41.3800   23.5690   35.7060 C   0  0  0  0  0  0  0  0  0  0  0  0
   41.5930   22.6550   36.7110 N   0  0  0  0  0  0  0  0  0  0  0  0
   40.6070   22.2730   37.5470 C   0  0  0  0  0  0  0  0  0  0  0  0
   39.3600   22.7940   37.4100 N   0  0  0  0  0  0  0  0  0  0  0  0
   38.1090   24.0400   36.4110 H   0  0  0  0  0  0  0  0  0  0  0  0
   42.2430   23.7950   35.1010 H   0  0  0  0  0  0  0  0  0  0  0  0
   40.9100   21.5480   38.2920 H   0  0  0  0  0  0  0  0  0  0  0  0
   40.3390   27.2030   33.5080 C   0  0  0  0  0  3  0  0  0  0  0  0
   41.5340   27.4950   32.9530 C   0  0  0  0  0  3  0  0  0  0  0  0
   42.7220   27.0730   33.7470 C   0  0  0  0  0  2  0  0  0  0  0  0
   43.6710   27.3070   33.2010 H   0  0  0  0  0  0  0  0  0  0  0  0
  1  7  1  6  0  0  0
  1  6  1  0  0  0  0
  1 18  1  0  0  0  0
  2  3  1  0  0  0  0
  2  1  1  0  0  0  0
  3  4  1  0  0  0  0
  3 10  1  0  0  0  0
  4  5  1  0  0  0  0
  4 13  1  0  0  0  0
  5 15  1  0  0  0  0
  6 16  1  1  0  0  0
  6  5  1  0  0  0  0
  8  2  1  0  0  0  0
  9  2  1  0  0  0  0
 11  3  1  0  0  0  0
 12  4  1  0  0  0  0
 14  5  1  0  0  0  0
 17 22  1  0  0  0  0
 18 19  1  0  0  0  0
 18 17  2  0  0  0  0
 19 20  2  0  0  0  0
 20 21  1  0  0  0  0
 21 25  1  0  0  0  0
 22 21  2  0  0  0  0
 23 17  1  0  0  0  0
 24 19  1  0  0  0  0
 26  6  1  0  0  0  0
 27 26  2  0  0  0  0
 27 28  1  0  0  0  0
 29 28  1  0  0  0  0
M  END
>  <minimizedAffinity>
-4.37086058

$$$$

 OpenBabel03272506313D

 29 30  0  0  1  0  0  0  0  0999 V2000
   38.0120   26.1640   32.7910 C   0  0  1  0  0  0  0  0  0  0  0  0
   37.5020   27.4760   32.4040 C   0  0  0  0  0  0  0  0  0  0  0  0
   36.5740   28.1610   33.3660 C   0  0  0  0  0  0  0  0  0  0  0  0
   36.8960   27.9740   34.7960 C   0  0  0  0  0  0  0  0  0  0  0  0
   37.4290   26.6460   35.2190 C   0  0  0  0  0  0  0  0  0  0  0  0
   38.4140   26.1000   34.2340 C   0  0  2  0  0  0  0  0  0  0  0  0
   38.9990   26.0070   32.2430 H   0  0  0  0  0  0  0  0  0  0  0  0
   37.0760   27.5730   31.4070 H   0  0  0  0  0  0  0  0  0  0  0  0
   38.4000   28.1730   32.3670 H   0  0  0  0  0  0  0  0  0  0  0  0
   35.5550   27.7630   33.1700 H   0  0  0  0  0  0  0  0  0  0  0  0
   36.5590   29.2330   33.1230 H   0  0  0  0  0  0  0  0  0  0  0  0
   37.5770   28.7920   35.1310 H   0  0  0  0  0  0  0  0  0  0  0  0
   35.9430   28.1430   35.3720 H   0  0  0  0  0  0  0  0  0  0  0  0
   37.9850   26.7980   36.1690 H   0  0  0  0  0  0  0  0  0  0  0  0
   36.6200   25.9000   35.3490 H   0  0  0  0  0  0  0  0  0  0  0  0
   38.8360   25.1680   34.5840 H   0  0  0  0  0  0  0  0  0  0  0  0
   36.1290   25.1120   31.4730 C   0  0  0  0  0  0  0  0  0  0  0  0
   37.2190   24.9940   32.3540 C   0  0  0  0  0  0  0  0  0  0  0  0
   37.5330   23.7200   32.7900 C   0  0  0  0  0  0  0  0  0  0  0  0
   36.7800   22.6580   32.3480 N   0  0  0  0  0  0  0  0  0  0  0  0
   35.7440   22.8230   31.5010 C   0  0  0  0  0  0  0  0  0  0  0  0
   35.4180   24.0660   31.0610 N   0  0  0  0  0  0  0  0  0  0  0  0
   35.8000   26.0580   31.0730 H   0  0  0  0  0  0  0  0  0  0  0  0
   38.3360   23.4650   33.4620 H   0  0  0  0  0  0  0  0  0  0  0  0
   35.2370   21.9050   31.2320 H   0  0  0  0  0  0  0  0  0  0  0  0
   39.6000   27.0440   34.3290 C   0  0  0  0  0  3  0  0  0  0  0  0
   40.8560   26.6340   34.6020 C   0  0  0  0  0  3  0  0  0  0  0  0
   41.0140   25.1670   34.8110 C   0  0  0  0  0  2  0  0  0  0  0  0
   42.0880   24.9020   34.9850 H   0  0  0  0  0  0  0  0  0  0  0  0
  1  7  1  6  0  0  0
  1  6  1  0  0  0  0
  2  1  1  0  0  0  0
  2  3  1  0  0  0  0
  3  4  1  0  0  0  0
  4 12  1  0  0  0  0
  4  5  1  0  0  0  0
  4 13  1  0  0  0  0
  5 15  1  0  0  0  0
  5 14  1  0  0  0  0
  6 26  1  0  0  0  0
  6 16  1  1  0  0  0
  6  5  1  0  0  0  0
  8  2  1  0  0  0  0
  9  2  1  0  0  0  0
 10  3  1  0  0  0  0
 11  3  1  0  0  0  0
 17 18  1  0  0  0  0
 18 19  2  0  0  0  0
 18  1  1  0  0  0  0
 19 24  1  0  0  0  0
 20 19  1  0  0  0  0
 21 20  2  0  0  0  0
 22 17  2  0  0  0  0
 22 21  1  0  0  0  0
 23 17  1  0  0  0  0
 25 21  1  0  0  0  0
 26 27  2  0  0  0  0
 27 28  1  0  0  0  0
 28 29  1  0  0  0  0
M  END
>  <minimizedAffinity>
-4.28754282

$$$$

 OpenBabel03272506313D

 29 30  0  0  1  0  0  0  0  0999 V2000
   35.1870   30.8230   35.2790 C   0  0  1  0  0  0  0  0  0  0  0  0
   36.2690   31.6450   35.8130 C   0  0  0  0  0  0  0  0  0  0  0  0
   36.3030   33.0870   35.3950 C   0  0  0  0  0  0  0  0  0  0  0  0
   34.9840   33.7380   35.2630 C   0  0  0  0  0  0  0  0  0  0  0  0
   33.8560   32.9180   34.7290 C   0  0  0  0  0  0  0  0  0  0  0  0
   33.8650   31.5280   35.2830 C   0  0  2  0  0  0  0  0  0  0  0  0
   35.0210   29.9630   36.0090 H   0  0  0  0  0  0  0  0  0  0  0  0
   37.2810   31.2530   35.7340 H   0  0  0  0  0  0  0  0  0  0  0  0
   36.1050   31.7030   36.9370 H   0  0  0  0  0  0  0  0  0  0  0  0
   36.8250   33.1260   34.4150 H   0  0  0  0  0  0  0  0  0  0  0  0
   36.9220   33.6390   36.1180 H   0  0  0  0  0  0  0  0  0  0  0  0
   34.7010   34.2010   36.2380 H   0  0  0  0  0  0  0  0  0  0  0  0
   35.1150   34.6090   34.5620 H   0  0  0  0  0  0  0  0  0  0  0  0
   32.9100   33.3890   35.0750 H   0  0  0  0  0  0  0  0  0  0  0  0
   33.8840   32.8500   33.6230 H   0  0  0  0  0  0  0  0  0  0  0  0
   33.0080   30.9670   34.9350 H   0  0  0  0  0  0  0  0  0  0  0  0
   35.3000   30.7240   32.7550 C   0  0  0  0  0  0  0  0  0  0  0  0
   35.4640   30.1120   34.0110 C   0  0  0  0  0  0  0  0  0  0  0  0
   35.9180   28.8060   34.0130 C   0  0  0  0  0  0  0  0  0  0  0  0
   36.1780   28.1870   32.8140 N   0  0  0  0  0  0  0  0  0  0  0  0
   36.0050   28.8160   31.6350 C   0  0  0  0  0  0  0  0  0  0  0  0
   35.5600   30.1000   31.6090 N   0  0  0  0  0  0  0  0  0  0  0  0
   34.9520   31.7380   32.6400 H   0  0  0  0  0  0  0  0  0  0  0  0
   36.0950   28.2020   34.8890 H   0  0  0  0  0  0  0  0  0  0  0  0
   36.2470   28.2150   30.7670 H   0  0  0  0  0  0  0  0  0  0  0  0
   33.5490   31.7120   36.7580 C   0  0  0  0  0  3  0  0  0  0  0  0
   32.5820   31.0250   37.4020 C   0  0  0  0  0  3  0  0  0  0  0  0
   31.8240   30.0560   36.5610 C   0  0  0  0  0  2  0  0  0  0  0  0
   31.0750   29.4950   37.1760 H   0  0  0  0  0  0  0  0  0  0  0  0
  1  6  1  0  0  0  0
  1  2  1  0  0  0  0
  1  7  1  1  0  0  0
  2  9  1  0  0  0  0
  3  2  1  0  0  0  0
  3 11  1  0  0  0  0
  4  3  1  0  0  0  0
  4 12  1  0  0  0  0
  5 14  1  0  0  0  0
  5  4  1  0  0  0  0
  5  6  1  0  0  0  0
  6 16  1  6  0  0  0
  6 26  1  0  0  0  0
  8  2  1  0  0  0  0
 10  3  1  0  0  0  0
 13  4  1  0  0  0  0
 15  5  1  0  0  0  0
 17 18  1  0  0  0  0
 18 19  2  0  0  0  0
 18  1  1  0  0  0  0
 19 24  1  0  0  0  0
 20 19  1  0  0  0  0
 21 20  2  0  0  0  0
 22 21  1  0  0  0  0
 22 17  2  0  0  0  0
 23 17  1  0  0  0  0
 25 21  1  0  0  0  0
 26 27  2  0  0  0  0
 28 29  1  0  0  0  0
 28 27  1  0  0  0  0
M  END
>  <minimizedAffinity>
-4.15438652

$$$$

 OpenBabel03272506313D

 29 30  0  0  1  0  0  0  0  0999 V2000
   38.0050   26.5230   33.3760 C   0  0  1  0  0  0  0  0  0  0  0  0
   39.0800   26.4550   32.3910 C   0  0  0  0  0  0  0  0  0  0  0  0
   40.3940   27.0750   32.7680 C   0  0  0  0  0  0  0  0  0  0  0  0
   40.7850   26.9170   34.1830 C   0  0  0  0  0  0  0  0  0  0  0  0
   39.7050   26.9730   35.2120 C   0  0  0  0  0  0  0  0  0  0  0  0
   38.4750   26.2430   34.7710 C   0  0  2  0  0  0  0  0  0  0  0  0
   37.2940   25.6570   33.1660 H   0  0  0  0  0  0  0  0  0  0  0  0
   38.8470   26.7630   31.3730 H   0  0  0  0  0  0  0  0  0  0  0  0
   39.3370   25.3530   32.2710 H   0  0  0  0  0  0  0  0  0  0  0  0
   40.3180   28.1590   32.5330 H   0  0  0  0  0  0  0  0  0  0  0  0
   41.1730   26.6540   32.1150 H   0  0  0  0  0  0  0  0  0  0  0  0
   41.3840   25.9830   34.2980 H   0  0  0  0  0  0  0  0  0  0  0  0
   41.5070   27.7490   34.4210 H   0  0  0  0  0  0  0  0  0  0  0  0
   40.0780   26.4430   36.1150 H   0  0  0  0  0  0  0  0  0  0  0  0
   39.4200   28.0170   35.4530 H   0  0  0  0  0  0  0  0  0  0  0  0
   37.7260   26.2410   35.5500 H   0  0  0  0  0  0  0  0  0  0  0  0
   36.4060   28.1910   34.4040 C   0  0  0  0  0  0  0  0  0  0  0  0
   37.1060   27.6960   33.2880 C   0  0  0  0  0  0  0  0  0  0  0  0
   36.9300   28.3680   32.0930 C   0  0  0  0  0  0  0  0  0  0  0  0
   36.0980   29.4620   32.0580 N   0  0  0  0  0  0  0  0  0  0  0  0
   35.4490   29.8990   33.1560 C   0  0  0  0  0  0  0  0  0  0  0  0
   35.6070   29.2530   34.3400 N   0  0  0  0  0  0  0  0  0  0  0  0
   36.4720   27.7420   35.3820 H   0  0  0  0  0  0  0  0  0  0  0  0
   37.3950   28.1150   31.1540 H   0  0  0  0  0  0  0  0  0  0  0  0
   34.8270   30.7700   32.9900 H   0  0  0  0  0  0  0  0  0  0  0  0
   38.9000   24.7860   34.7310 C   0  0  0  0  0  3  0  0  0  0  0  0
   38.5600   23.8860   35.6780 C   0  0  0  0  0  3  0  0  0  0  0  0
   37.7260   24.4220   36.7910 C   0  0  0  0  0  2  0  0  0  0  0  0
   37.4480   23.6080   37.5080 H   0  0  0  0  0  0  0  0  0  0  0  0
  1  7  1  6  0  0  0
  1  6  1  0  0  0  0
  2  3  1  0  0  0  0
  2  1  1  0  0  0  0
  3  4  1  0  0  0  0
  4 12  1  0  0  0  0
  4 13  1  0  0  0  0
  4  5  1  0  0  0  0
  5 15  1  0  0  0  0
  5 14  1  0  0  0  0
  6  5  1  0  0  0  0
  6 16  1  1  0  0  0
  8  2  1  0  0  0  0
  9  2  1  0  0  0  0
 10  3  1  0  0  0  0
 11  3  1  0  0  0  0
 17 23  1  0  0  0  0
 18  1  1  0  0  0  0
 18 17  2  0  0  0  0
 19 18  1  0  0  0  0
 20 19  2  0  0  0  0
 20 21  1  0  0  0  0
 21 22  2  0  0  0  0
 22 17  1  0  0  0  0
 24 19  1  0  0  0  0
 25 21  1  0  0  0  0
 26  6  1  0  0  0  0
 26 27  2  0  0  0  0
 27 28  1  0  0  0  0
 28 29  1  0  0  0  0
M  END
>  <minimizedAffinity>
-4.12487316

$$$$

 OpenBabel03272506313D

 29 30  0  0  1  0  0  0  0  0999 V2000
   36.7700   27.0370   32.8570 C   0  0  1  0  0  0  0  0  0  0  0  0
   36.0380   28.2760   33.1020 C   0  0  0  0  0  0  0  0  0  0  0  0
   36.2950   29.4200   32.1650 C   0  0  0  0  0  0  0  0  0  0  0  0
   36.5000   29.0460   30.7510 C   0  0  0  0  0  0  0  0  0  0  0  0
   37.2370   27.7780   30.4700 C   0  0  0  0  0  0  0  0  0  0  0  0
   36.8350   26.6790   31.4030 C   0  0  2  0  0  0  0  0  0  0  0  0
   36.1580   26.1850   33.3030 H   0  0  0  0  0  0  0  0  0  0  0  0
   36.0480   28.6700   34.1170 H   0  0  0  0  0  0  0  0  0  0  0  0
   34.9390   28.0400   32.9310 H   0  0  0  0  0  0  0  0  0  0  0  0
   37.2030   29.9430   32.5360 H   0  0  0  0  0  0  0  0  0  0  0  0
   35.4550   30.1260   32.2470 H   0  0  0  0  0  0  0  0  0  0  0  0
   35.5190   29.0510   30.2210 H   0  0  0  0  0  0  0  0  0  0  0  0
   37.0880   29.8790   30.2720 H   0  0  0  0  0  0  0  0  0  0  0  0
   36.9490   27.4460   29.4490 H   0  0  0  0  0  0  0  0  0  0  0  0
   38.3350   27.9140   30.5470 H   0  0  0  0  0  0  0  0  0  0  0  0
   37.3320   25.7530   31.1470 H   0  0  0  0  0  0  0  0  0  0  0  0
   39.2060   26.3610   32.9160 C   0  0  0  0  0  0  0  0  0  0  0  0
   38.0680   26.8900   33.5520 C   0  0  0  0  0  0  0  0  0  0  0  0
   38.2190   27.2880   34.8670 C   0  0  0  0  0  0  0  0  0  0  0  0
   39.4450   27.1490   35.4720 N   0  0  0  0  0  0  0  0  0  0  0  0
   40.5070   26.6360   34.8180 C   0  0  0  0  0  0  0  0  0  0  0  0
   40.3820   26.2380   33.5260 N   0  0  0  0  0  0  0  0  0  0  0  0
   39.1980   26.0200   31.8920 H   0  0  0  0  0  0  0  0  0  0  0  0
   37.4460   27.7120   35.4890 H   0  0  0  0  0  0  0  0  0  0  0  0
   41.4120   26.5820   35.4100 H   0  0  0  0  0  0  0  0  0  0  0  0
   35.3930   26.3830   31.0310 C   0  0  0  0  0  3  0  0  0  0  0  0
   34.9060   25.1330   30.8840 C   0  0  0  0  0  3  0  0  0  0  0  0
   35.8900   24.0370   31.1110 C   0  0  0  0  0  2  0  0  0  0  0  0
   35.3990   23.0340   31.0170 H   0  0  0  0  0  0  0  0  0  0  0  0
  1  2  1  0  0  0  0
  1  7  1  1  0  0  0
  1 18  1  0  0  0  0
  2  8  1  0  0  0  0
  3 11  1  0  0  0  0
  3 10  1  0  0  0  0
  3  2  1  0  0  0  0
  4  3  1  0  0  0  0
  5 15  1  0  0  0  0
  5  4  1  0  0  0  0
  5  6  1  0  0  0  0
  6 16  1  6  0  0  0
  6  1  1  0  0  0  0
  9  2  1  0  0  0  0
 12  4  1  0  0  0  0
 13  4  1  0  0  0  0
 14  5  1  0  0  0  0
 17 22  2  0  0  0  0
 17 18  1  0  0  0  0
 18 19  2  0  0  0  0
 19 20  1  0  0  0  0
 19 24  1  0  0  0  0
 21 25  1  0  0  0  0
 21 20  2  0  0  0  0
 22 21  1  0  0  0  0
 23 17  1  0  0  0  0
 26  6  1  0  0  0  0
 27 26  2  0  0  0  0
 27 28  1  0  0  0  0
 29 28  1  0  0  0  0
M  END
>  <minimizedAffinity>
-4.12119007

$$$$

 OpenBabel03272506313D

 29 30  0  0  1  0  0  0  0  0999 V2000
   38.2890   24.6430   35.1510 C   0  0  1  0  0  0  0  0  0  0  0  0
   38.0410   25.9150   35.8240 C   0  0  0  0  0  0  0  0  0  0  0  0
   38.9750   27.0490   35.5100 C   0  0  0  0  0  0  0  0  0  0  0  0
   39.4310   27.1230   34.1070 C   0  0  0  0  0  0  0  0  0  0  0  0
   39.6830   25.8370   33.3910 C   0  0  0  0  0  0  0  0  0  0  0  0
   38.6400   24.8100   33.7040 C   0  0  2  0  0  0  0  0  0  0  0  0
   37.2990   24.0800   35.1120 H   0  0  0  0  0  0  0  0  0  0  0  0
   37.8990   25.8920   36.9020 H   0  0  0  0  0  0  0  0  0  0  0  0
   37.0380   26.2910   35.4420 H   0  0  0  0  0  0  0  0  0  0  0  0
   39.8600   26.9300   36.1720 H   0  0  0  0  0  0  0  0  0  0  0  0
   38.4790   27.9890   35.7930 H   0  0  0  0  0  0  0  0  0  0  0  0
   38.7270   27.7620   33.5240 H   0  0  0  0  0  0  0  0  0  0  0  0
   40.4020   27.6940   34.1060 H   0  0  0  0  0  0  0  0  0  0  0  0
   39.6050   26.0430   32.3020 H   0  0  0  0  0  0  0  0  0  0  0  0
   40.6750   25.4120   33.6450 H   0  0  0  0  0  0  0  0  0  0  0  0
   38.8030   23.9070   33.1310 H   0  0  0  0  0  0  0  0  0  0  0  0
   39.1570   23.5470   37.2580 C   0  0  0  0  0  0  0  0  0  0  0  0
   39.1690   23.6860   35.8580 C   0  0  0  0  0  0  0  0  0  0  0  0
   40.0360   22.8680   35.1580 C   0  0  0  0  0  0  0  0  0  0  0  0
   40.8250   21.9820   35.8520 N   0  0  0  0  0  0  0  0  0  0  0  0
   40.7770   21.8860   37.1960 C   0  0  0  0  0  0  0  0  0  0  0  0
   39.9330   22.6800   37.9030 N   0  0  0  0  0  0  0  0  0  0  0  0
   38.5190   24.1350   37.8990 H   0  0  0  0  0  0  0  0  0  0  0  0
   40.1610   22.8530   34.0880 H   0  0  0  0  0  0  0  0  0  0  0  0
   41.4500   21.1480   37.6150 H   0  0  0  0  0  0  0  0  0  0  0  0
   37.3720   25.3630   33.0780 C   0  0  0  0  0  3  0  0  0  0  0  0
   36.6910   24.7320   32.0980 C   0  0  0  0  0  3  0  0  0  0  0  0
   37.2730   23.4330   31.6550 C   0  0  0  0  0  2  0  0  0  0  0  0
   36.6280   22.9520   30.8760 H   0  0  0  0  0  0  0  0  0  0  0  0
  1  7  1  6  0  0  0
  1  2  1  0  0  0  0
  1 18  1  0  0  0  0
  2  8  1  0  0  0  0
  3 11  1  0  0  0  0
  3  2  1  0  0  0  0
  3 10  1  0  0  0  0
  4  3  1  0  0  0  0
  5 15  1  0  0  0  0
  5  6  1  0  0  0  0
  5  4  1  0  0  0  0
  6 16  1  6  0  0  0
  6  1  1  0  0  0  0
  9  2  1  0  0  0  0
 12  4  1  0  0  0  0
 13  4  1  0  0  0  0
 14  5  1  0  0  0  0
 17 23  1  0  0  0  0
 17 22  1  0  0  0  0
 18 17  2  0  0  0  0
 19 20  2  0  0  0  0
 19 18  1  0  0  0  0
 20 21  1  0  0  0  0
 21 25  1  0  0  0  0
 21 22  2  0  0  0  0
 24 19  1  0  0  0  0
 26  6  1  0  0  0  0
 27 26  2  0  0  0  0
 28 27  1  0  0  0  0
 29 28  1  0  0  0  0
M  END
>  <minimizedAffinity>
-4.11927652

$$$$

 OpenBabel03272506313D

 29 30  0  0  1  0  0  0  0  0999 V2000
   40.1830   22.8890   36.1280 C   0  0  1  0  0  0  0  0  0  0  0  0
   40.0090   22.4130   37.4970 C   0  0  0  0  0  0  0  0  0  0  0  0
   39.2270   23.2890   38.4330 C   0  0  0  0  0  0  0  0  0  0  0  0
   38.0770   23.9920   37.8280 C   0  0  0  0  0  0  0  0  0  0  0  0
   38.2230   24.4810   36.4250 C   0  0  0  0  0  0  0  0  0  0  0  0
   38.9340   23.4890   35.5590 C   0  0  2  0  0  0  0  0  0  0  0  0
   40.3520   21.9750   35.4690 H   0  0  0  0  0  0  0  0  0  0  0  0
   40.8980   22.0740   38.0260 H   0  0  0  0  0  0  0  0  0  0  0  0
   39.3750   21.4700   37.4330 H   0  0  0  0  0  0  0  0  0  0  0  0
   39.9370   24.0410   38.8390 H   0  0  0  0  0  0  0  0  0  0  0  0
   38.8860   22.6720   39.2770 H   0  0  0  0  0  0  0  0  0  0  0  0
   37.1640   23.3580   37.9260 H   0  0  0  0  0  0  0  0  0  0  0  0
   37.8680   24.8940   38.4690 H   0  0  0  0  0  0  0  0  0  0  0  0
   37.2000   24.5910   36.0040 H   0  0  0  0  0  0  0  0  0  0  0  0
   38.7760   25.4400   36.3790 H   0  0  0  0  0  0  0  0  0  0  0  0
   38.9770   23.8320   34.5340 H   0  0  0  0  0  0  0  0  0  0  0  0
   42.6260   23.4340   36.4860 C   0  0  0  0  0  0  0  0  0  0  0  0
   41.3930   23.6980   35.8620 C   0  0  0  0  0  0  0  0  0  0  0  0
   41.3610   24.7490   34.9650 C   0  0  0  0  0  0  0  0  0  0  0  0
   42.5100   25.4670   34.7340 N   0  0  0  0  0  0  0  0  0  0  0  0
   43.6700   25.1740   35.3580 C   0  0  0  0  0  0  0  0  0  0  0  0
   43.7240   24.1460   36.2430 N   0  0  0  0  0  0  0  0  0  0  0  0
   42.7610   22.6390   37.2010 H   0  0  0  0  0  0  0  0  0  0  0  0
   40.4970   25.0750   34.4080 H   0  0  0  0  0  0  0  0  0  0  0  0
   44.4980   25.8160   35.0850 H   0  0  0  0  0  0  0  0  0  0  0  0
   37.9710   22.3180   35.4650 C   0  0  0  0  0  3  0  0  0  0  0  0
   37.4660   21.8630   34.2990 C   0  0  0  0  0  3  0  0  0  0  0  0
   37.9180   22.5950   33.0820 C   0  0  0  0  0  2  0  0  0  0  0  0
   37.4940   22.1300   32.1560 H   0  0  0  0  0  0  0  0  0  0  0  0
  1  7  1  6  0  0  0
  1  2  1  0  0  0  0
  2  8  1  0  0  0  0
  2  3  1  0  0  0  0
  3 10  1  0  0  0  0
  3 11  1  0  0  0  0
  4 12  1  0  0  0  0
  4  3  1  0  0  0  0
  4 13  1  0  0  0  0
  5  4  1  0  0  0  0
  6 16  1  6  0  0  0
  6  1  1  0  0  0  0
  6  5  1  0  0  0  0
  9  2  1  0  0  0  0
 14  5  1  0  0  0  0
 15  5  1  0  0  0  0
 17 23  1  0  0  0  0
 18  1  1  0  0  0  0
 18 17  2  0  0  0  0
 19 18  1  0  0  0  0
 20 19  2  0  0  0  0
 20 21  1  0  0  0  0
 21 22  2  0  0  0  0
 22 17  1  0  0  0  0
 24 19  1  0  0  0  0
 25 21  1  0  0  0  0
 26  6  1  0  0  0  0
 27 26  2  0  0  0  0
 28 27  1  0  0  0  0
 29 28  1  0  0  0  0
M  END
>  <minimizedAffinity>
-4.10557795

$$$$

 OpenBabel03272506313D

 29 30  0  0  1  0  0  0  0  0999 V2000
   38.6930   25.7310   33.6420 C   0  0  1  0  0  0  0  0  0  0  0  0
   39.0720   27.0480   34.1430 C   0  0  0  0  0  0  0  0  0  0  0  0
   38.4590   27.4900   35.4410 C   0  0  0  0  0  0  0  0  0  0  0  0
   38.2810   26.4260   36.4500 C   0  0  0  0  0  0  0  0  0  0  0  0
   37.9020   25.0660   35.9650 C   0  0  0  0  0  0  0  0  0  0  0  0
   38.6430   24.6910   34.7200 C   0  0  2  0  0  0  0  0  0  0  0  0
   39.5390   25.3650   32.9720 H   0  0  0  0  0  0  0  0  0  0  0  0
   39.0150   27.8840   33.4480 H   0  0  0  0  0  0  0  0  0  0  0  0
   40.1820   26.9940   34.3850 H   0  0  0  0  0  0  0  0  0  0  0  0
   37.4660   27.9260   35.1950 H   0  0  0  0  0  0  0  0  0  0  0  0
   39.0770   28.2990   35.8550 H   0  0  0  0  0  0  0  0  0  0  0  0
   39.1910   26.3720   37.0930 H   0  0  0  0  0  0  0  0  0  0  0  0
   37.4620   26.7660   37.1450 H   0  0  0  0  0  0  0  0  0  0  0  0
   38.2100   24.3380   36.7460 H   0  0  0  0  0  0  0  0  0  0  0  0
   36.8160   24.9900   35.7580 H   0  0  0  0  0  0  0  0  0  0  0  0
   38.4030   23.6810   34.4160 H   0  0  0  0  0  0  0  0  0  0  0  0
   36.9460   24.4710   32.3160 C   0  0  0  0  0  0  0  0  0  0  0  0
   37.5270   25.6840   32.7310 C   0  0  0  0  0  0  0  0  0  0  0  0
   36.9470   26.8460   32.2600 C   0  0  0  0  0  0  0  0  0  0  0  0
   35.8560   26.7590   31.4280 N   0  0  0  0  0  0  0  0  0  0  0  0
   35.3340   25.5720   31.0590 C   0  0  0  0  0  0  0  0  0  0  0  0
   35.8890   24.4170   31.5110 N   0  0  0  0  0  0  0  0  0  0  0  0
   37.3200   23.5080   32.6250 H   0  0  0  0  0  0  0  0  0  0  0  0
   37.2720   27.8490   32.4850 H   0  0  0  0  0  0  0  0  0  0  0  0
   34.4760   25.6450   30.4030 H   0  0  0  0  0  0  0  0  0  0  0  0
   40.0870   24.5570   35.1700 C   0  0  0  0  0  3  0  0  0  0  0  0
   40.7690   23.3930   35.1400 C   0  0  0  0  0  3  0  0  0  0  0  0
   40.0030   22.2210   34.6290 C   0  0  0  0  0  2  0  0  0  0  0  0
   40.6500   21.3070   34.5910 H   0  0  0  0  0  0  0  0  0  0  0  0
  1  7  1  6  0  0  0
  1  2  1  0  0  0  0
  1  6  1  0  0  0  0
  2  9  1  0  0  0  0
  2  3  1  0  0  0  0
  3 11  1  0  0  0  0
  3  4  1  0  0  0  0
  4 12  1  0  0  0  0
  4 13  1  0  0  0  0
  5  4  1  0  0  0  0
  5 14  1  0  0  0  0
  6 16  1  6  0  0  0
  6 26  1  0  0  0  0
  6  5  1  0  0  0  0
  8  2  1  0  0  0  0
 10  3  1  0  0  0  0
 15  5  1  0  0  0  0
 17 23  1  0  0  0  0
 17 18  1  0  0  0  0
 18  1  1  0  0  0  0
 19 24  1  0  0  0  0
 19 18  2  0  0  0  0
 20 19  1  0  0  0  0
 21 20  2  0  0  0  0
 21 22  1  0  0  0  0
 22 17  2  0  0  0  0
 25 21  1  0  0  0  0
 27 26  2  0  0  0  0
 28 27  1  0  0  0  0
 29 28  1  0  0  0  0
M  END
>  <minimizedAffinity>
-4.1038065

$$$$
