REMARK  Name = 
REMARK  4 active torsions:
REMARK  status: ('A' for Active; 'I' for Inactive)
REMARK    1  A    between atoms: C_1  and  C_8
REMARK    2  A    between atoms: C_4  and  C_13
REMARK    3  A    between atoms: C_18  and  C_36
REMARK    4  A    between atoms: C_37  and  C_38
REMARK                            x       y       z     vdW  Elec       q    Type
REMARK                         _______ _______ _______ _____ _____    ______ ____
ROOT
ATOM      1  C   UNL     1      34.640  30.351  48.256  0.00  0.00    +0.000 C 
ATOM      2  C   UNL     1      33.658  30.232  47.206  0.00  0.00    +0.000 C 
ATOM      3  C   UNL     1      33.450  28.846  46.635  0.00  0.00    +0.000 C 
ATOM      4  C   UNL     1      33.439  27.739  47.582  0.00  0.00    +0.000 C 
ATOM      5  C   UNL     1      34.410  27.839  48.750  0.00  0.00    +0.000 C 
ATOM      6  C   UNL     1      34.483  29.252  49.274  0.00  0.00    +0.000 C 
ATOM      7  H   UNL     1      34.398  31.287  48.859  0.00  0.00    +0.000 HD
ATOM      8  H   UNL     1      32.644  30.485  47.637  0.00  0.00    +0.000 HD
ATOM      9  H   UNL     1      33.743  30.903  46.348  0.00  0.00    +0.000 HD
ATOM     10  H   UNL     1      34.417  28.724  46.036  0.00  0.00    +0.000 HD
ATOM     11  H   UNL     1      32.577  28.838  45.980  0.00  0.00    +0.000 HD
ATOM     12  H   UNL     1      32.465  27.544  48.069  0.00  0.00    +0.000 HD
ATOM     13  H   UNL     1      33.988  27.349  49.626  0.00  0.00    +0.000 HD
ATOM     14  H   UNL     1      35.419  27.536  48.461  0.00  0.00    +0.000 HD
ATOM     15  H   UNL     1      35.371  29.298  49.939  0.00  0.00    +0.000 HD
ATOM     16  H   UNL     1      33.612  29.522  49.943  0.00  0.00    +0.000 HD
ENDROOT
BRANCH   4  17
ATOM     17  C   UNL     1      33.806  26.507  46.837  0.00  0.00    +0.000 A 
ATOM     18  C   UNL     1      34.055  26.610  45.475  0.00  0.00    +0.000 A 
ATOM     19  C   UNL     1      34.380  25.506  44.712  0.00  0.00    +0.000 A 
ATOM     20  C   UNL     1      34.456  24.292  45.321  0.00  0.00    +0.000 A 
ATOM     21  C   UNL     1      34.208  24.172  46.674  0.00  0.00    +0.000 A 
ATOM     22  C   UNL     1      33.878  25.294  47.426  0.00  0.00    +0.000 A 
ATOM     23  H   UNL     1      34.021  27.470  44.824  0.00  0.00    +0.000 HD
ATOM     24  H   UNL     1      34.585  25.526  43.643  0.00  0.00    +0.000 HD
ATOM     25  H   UNL     1      34.718  23.403  44.720  0.00  0.00    +0.000 HD
ATOM     26  H   UNL     1      34.294  23.154  47.024  0.00  0.00    +0.000 HD
BRANCH  22  27
ATOM     27  C   UNL     1      33.476  24.987  48.751  0.00  0.00    +0.000 C 
ATOM     28  C   UNL     1      32.996  23.965  49.422  0.00  0.00    +0.000 C 
BRANCH  28  29
ATOM     29  C   UNL     1      32.656  22.584  48.997  0.00  0.00    +0.000 C 
ATOM     30  H   UNL     1      31.695  22.497  48.474  0.00  0.00    +0.000 HD
ENDBRANCH  28  29
ENDBRANCH  22  27
ENDBRANCH   4  17
BRANCH   1  32
ATOM     31  C   UNL     1      36.479  30.555  46.580  0.00  0.00    +0.000 A 
ATOM     32  C   UNL     1      36.043  30.589  47.893  0.00  0.00    +0.000 A 
ATOM     33  C   UNL     1      36.998  30.868  48.879  0.00  0.00    +0.000 A 
ATOM     34  N   UNL     1      38.289  31.088  48.505  0.00  0.00    +0.000 NA
ATOM     35  C   UNL     1      38.668  31.043  47.203  0.00  0.00    +0.000 A 
ATOM     36  N   UNL     1      37.749  30.773  46.234  0.00  0.00    +0.000 NA
ATOM     37  H   UNL     1      35.899  30.378  45.694  0.00  0.00    +0.000 HD
ATOM     38  H   UNL     1      36.709  30.907  49.916  0.00  0.00    +0.000 HD
ATOM     39  H   UNL     1      39.712  31.232  47.017  0.00  0.00    +0.000 HD
ENDBRANCH   1  32
TORSDOF 4
