
 OpenBabel03272505543D

 29 30  0  0  1  0  0  0  0  0999 V2000
   35.5080   30.2190   49.3170 C   0  0  2  0  0  0  0  0  0  0  0  0
   36.5040   30.9630   48.4500 C   0  0  0  0  0  0  0  0  0  0  0  0
   37.9280   30.6060   48.7560 C   0  0  2  0  0  0  0  0  0  0  0  0
   38.2810   30.7620   50.2140 C   0  0  0  0  0  0  0  0  0  0  0  0
   37.1930   30.3080   51.1400 C   0  0  0  0  0  0  0  0  0  0  0  0
   36.1540   29.4640   50.4280 C   0  0  0  0  0  0  0  0  0  0  0  0
   34.7910   30.9590   49.7130 H   0  0  0  0  0  0  0  0  0  0  0  0
   36.3150   30.7080   47.4050 H   0  0  0  0  0  0  0  0  0  0  0  0
   36.4080   32.0540   48.5850 H   0  0  0  0  0  0  0  0  0  0  0  0
   38.0870   29.5630   48.4220 H   0  0  0  0  0  0  0  0  0  0  0  0
   39.1420   30.0570   50.3880 H   0  0  0  0  0  0  0  0  0  0  0  0
   38.6790   31.7670   50.4440 H   0  0  0  0  0  0  0  0  0  0  0  0
   37.5450   29.7970   52.0450 H   0  0  0  0  0  0  0  0  0  0  0  0
   36.6390   31.2450   51.4390 H   0  0  0  0  0  0  0  0  0  0  0  0
   36.6920   28.5610   50.0620 H   0  0  0  0  0  0  0  0  0  0  0  0
   35.4270   29.1550   51.1860 H   0  0  0  0  0  0  0  0  0  0  0  0
   34.7390   29.2480   48.4850 C   0  0  0  0  0  0  0  0  0  0  0  0
   34.4880   29.6310   47.1550 C   0  0  0  0  0  0  0  0  0  0  0  0
   33.7600   28.7340   46.3710 C   0  0  0  0  0  0  0  0  0  0  0  0
   33.3350   27.5470   46.9320 N   0  0  0  0  0  0  0  0  0  0  0  0
   33.6000   27.2220   48.2160 C   0  0  0  0  0  0  0  0  0  0  0  0
   34.3020   28.0840   48.9730 N   0  0  0  0  0  0  0  0  0  0  0  0
   34.7900   30.5330   46.6730 H   0  0  0  0  0  0  0  0  0  0  0  0
   33.5320   28.9680   45.3380 H   0  0  0  0  0  0  0  0  0  0  0  0
   33.2220   26.2690   48.5560 H   0  0  0  0  0  0  0  0  0  0  0  0
   38.7820   31.5870   48.0260 C   0  0  0  0  0  3  0  0  0  0  0  0
   38.8340   32.8800   48.2870 C   0  0  0  0  0  3  0  0  0  0  0  0
   37.9840   33.4040   49.3840 C   0  0  0  0  0  2  0  0  0  0  0  0
   38.1690   32.7890   50.2910 H   0  0  0  0  0  0  0  0  0  0  0  0
  1  7  1  1  0  0  0
  1  6  1  0  0  0  0
  2  9  1  0  0  0  0
  2  3  1  0  0  0  0
  2  1  1  0  0  0  0
  3 10  1  6  0  0  0
  3  4  1  0  0  0  0
  4 11  1  0  0  0  0
  4 12  1  0  0  0  0
  4  5  1  0  0  0  0
  5 14  1  0  0  0  0
  5 13  1  0  0  0  0
  6  5  1  0  0  0  0
  6 16  1  0  0  0  0
  8  2  1  0  0  0  0
 15  6  1  0  0  0  0
 17 22  1  0  0  0  0
 17  1  1  0  0  0  0
 18 17  2  0  0  0  0
 19 20  2  0  0  0  0
 19 18  1  0  0  0  0
 20 21  1  0  0  0  0
 21 25  1  0  0  0  0
 21 22  2  0  0  0  0
 23 18  1  0  0  0  0
 24 19  1  0  0  0  0
 26 27  2  0  0  0  0
 26  3  1  0  0  0  0
 27 28  1  0  0  0  0
 28 29  1  0  0  0  0
M  END
>  <minimizedAffinity>
-5.82321072

>  <minimizedRMSD>
0.734700859

$$$$
