REMARK  Name = 
REMARK  4 active torsions:
REMARK  status: ('A' for Active; 'I' for Inactive)
REMARK    1  A    between atoms: C_3  and  C_12
REMARK    2  A    between atoms: C_7  and  C_14
REMARK    3  A    between atoms: C_19  and  C_36
REMARK    4  A    between atoms: C_37  and  C_38
REMARK                            x       y       z     vdW  Elec       q    Type
REMARK                         _______ _______ _______ _____ _____    ______ ____
ROOT
ATOM      1  C   UNL     1      34.562  29.572  48.607  0.00  0.00    +0.000 C 
ATOM      2  C   UNL     1      34.179  30.005  47.272  0.00  0.00    +0.000 C 
ATOM      3  C   UNL     1      32.862  29.253  47.047  0.00  0.00    +0.000 C 
ATOM      4  C   UNL     1      33.357  27.840  46.700  0.00  0.00    +0.000 C 
ATOM      5  C   UNL     1      34.178  27.235  47.750  0.00  0.00    +0.000 C 
ATOM      6  C   UNL     1      34.548  28.086  48.892  0.00  0.00    +0.000 C 
ATOM      7  H   UNL     1      33.866  29.991  49.389  0.00  0.00    +0.000 HD
ATOM      8  H   UNL     1      34.560  29.591  46.352  0.00  0.00    +0.000 HD
ATOM      9  H   UNL     1      33.902  31.076  47.219  0.00  0.00    +0.000 HD
ATOM     10  H   UNL     1      32.312  29.651  46.180  0.00  0.00    +0.000 HD
ATOM     11  H   UNL     1      32.261  29.227  47.970  0.00  0.00    +0.000 HD
ATOM     12  H   UNL     1      33.963  28.012  45.761  0.00  0.00    +0.000 HD
ATOM     13  H   UNL     1      32.469  27.314  46.363  0.00  0.00    +0.000 HD
ATOM     14  H   UNL     1      35.140  26.857  47.293  0.00  0.00    +0.000 HD
ATOM     15  H   UNL     1      33.673  26.302  48.083  0.00  0.00    +0.000 HD
ATOM     16  H   UNL     1      33.810  27.878  49.685  0.00  0.00    +0.000 HD
ENDROOT
BRANCH   1  23
ATOM     17 CL   UNL     1      36.384  30.544  46.390  0.00  0.00    +0.000 Cl
ATOM     18  C   UNL     1      36.789  30.584  48.083  0.00  0.00    +0.000 A 
ATOM     19  C   UNL     1      38.032  31.093  48.351  0.00  0.00    +0.000 A 
ATOM     20  C   UNL     1      38.408  31.211  49.682  0.00  0.00    +0.000 A 
ATOM     21  C   UNL     1      37.505  30.811  50.657  0.00  0.00    +0.000 A 
ATOM     22  C   UNL     1      36.270  30.310  50.300  0.00  0.00    +0.000 A 
ATOM     23  C   UNL     1      35.862  30.175  49.003  0.00  0.00    +0.000 A 
ATOM     24  H   UNL     1      39.379  31.605  49.952  0.00  0.00    +0.000 HD
ATOM     25  H   UNL     1      37.781  30.896  51.712  0.00  0.00    +0.000 HD
ATOM     26  H   UNL     1      35.613  30.021  51.115  0.00  0.00    +0.000 HD
BRANCH  19  31
ATOM     27  C   UNL     1      40.037  33.308  46.243  0.00  0.00    +0.000 A 
ATOM     28  C   UNL     1      40.569  32.486  45.263  0.00  0.00    +0.000 A 
ATOM     29  C   UNL     1      40.225  31.140  45.348  0.00  0.00    +0.000 A 
ATOM     30  N   UNL     1      39.407  30.703  46.358  0.00  0.00    +0.000 NA
ATOM     31  C   UNL     1      38.925  31.551  47.275  0.00  0.00    +0.000 A 
ATOM     32  N   UNL     1      39.242  32.865  47.218  0.00  0.00    +0.000 NA
ATOM     33  H   UNL     1      40.248  34.377  46.261  0.00  0.00    +0.000 HD
ATOM     34  H   UNL     1      41.210  32.878  44.485  0.00  0.00    +0.000 HD
ATOM     35  H   UNL     1      40.620  30.486  44.607  0.00  0.00    +0.000 HD
ENDBRANCH  19  31
ENDBRANCH   1  23
BRANCH   6  36
ATOM     36  C   UNL     1      35.881  27.653  49.441  0.00  0.00    +0.000 C 
ATOM     37  C   UNL     1      36.280  27.747  50.697  0.00  0.00    +0.000 C 
BRANCH  37  38
ATOM     38  C   UNL     1      35.340  28.334  51.685  0.00  0.00    +0.000 C 
ATOM     39  H   UNL     1      34.873  29.272  51.357  0.00  0.00    +0.000 HD
ENDBRANCH  37  38
ENDBRANCH   6  36
TORSDOF 4
