
 OpenBabel03272506173D

 29 30  0  0  0  0  0  0  0  0999 V2000
   35.4630   30.2990   49.8610 C   0  0  0  0  0  0  0  0  0  0  0  0
   36.4260   31.1770   49.0960 C   0  0  0  0  0  0  0  0  0  0  0  0
   37.8570   30.7550   49.2580 C   0  0  0  0  0  0  0  0  0  0  0  0
   38.2840   30.6620   50.6960 C   0  0  0  0  0  0  0  0  0  0  0  0
   37.2490   30.0430   51.5830 C   0  0  0  0  0  0  0  0  0  0  0  0
   36.1410   29.3630   50.8010 C   0  0  0  0  0  0  0  0  0  0  0  0
   34.7300   30.9190   50.4160 H   0  0  0  0  0  0  0  0  0  0  0  0
   36.2130   31.2840   48.0340 H   0  0  0  0  0  0  0  0  0  0  0  0
   36.3600   32.2040   49.5520 H   0  0  0  0  0  0  0  0  0  0  0  0
   37.9710   29.7750   48.7210 H   0  0  0  0  0  0  0  0  0  0  0  0
   38.4690   31.5080   48.7260 H   0  0  0  0  0  0  0  0  0  0  0  0
   38.6440   31.6500   51.0630 H   0  0  0  0  0  0  0  0  0  0  0  0
   39.1750   29.9990   50.7210 H   0  0  0  0  0  0  0  0  0  0  0  0
   36.7490   30.8640   52.1540 H   0  0  0  0  0  0  0  0  0  0  0  0
   37.6620   29.3220   52.3110 H   0  0  0  0  0  0  0  0  0  0  0  0
   35.4270   28.9870   51.5600 H   0  0  0  0  0  0  0  0  0  0  0  0
   36.5490   28.4520   50.2920 H   0  0  0  0  0  0  0  0  0  0  0  0
   34.6560   29.4820   48.9080 C   0  0  0  0  0  0  0  0  0  0  0  0
   34.1690   30.1340   47.7620 C   0  0  0  0  0  0  0  0  0  0  0  0
   33.4110   29.3830   46.8730 C   0  0  0  0  0  0  0  0  0  0  0  0
   33.1740   28.0710   47.1410 N   0  0  0  0  0  0  0  0  0  0  0  0
   33.6620   27.4600   48.2660 C   0  0  0  0  0  0  0  0  0  0  0  0
   34.3930   28.1720   49.1310 N   0  0  0  0  0  0  0  0  0  0  0  0
   34.3150   31.1480   47.4970 H   0  0  0  0  0  0  0  0  0  0  0  0
   33.4240   26.4130   48.4000 H   0  0  0  0  0  0  0  0  0  0  0  0
   32.8560   29.9540   45.6530 C   0  0  0  0  0  0  0  0  0  0  0  0
   32.1900   31.0950   45.6380 C   0  0  0  0  0  0  0  0  0  0  0  0
   31.6130   31.7030   44.4120 C   0  0  0  0  0  0  0  0  0  0  0  0
   32.0570   32.7090   44.1790 H   0  0  0  0  0  0  0  0  0  0  0  0
  1  7  1  0  0  0  0
  1  6  1  0  0  0  0
  2  3  1  0  0  0  0
  2  9  1  0  0  0  0
  2  1  1  0  0  0  0
  3  4  1  0  0  0  0
  4 13  1  0  0  0  0
  4 12  1  0  0  0  0
  4  5  1  0  0  0  0
  5 14  1  0  0  0  0
  5 15  1  0  0  0  0
  6 16  1  0  0  0  0
  6  5  1  0  0  0  0
  8  2  1  0  0  0  0
 10  3  1  0  0  0  0
 11  3  1  0  0  0  0
 17  6  1  0  0  0  0
 18 23  1  0  0  0  0
 18  1  1  0  0  0  0
 19 18  2  0  0  0  0
 20 21  2  0  0  0  0
 20 19  1  0  0  0  0
 21 22  1  0  0  0  0
 22 25  1  0  0  0  0
 22 23  2  0  0  0  0
 24 19  1  0  0  0  0
 26 20  1  0  0  0  0
 27 26  2  0  0  0  0
 28 27  1  0  0  0  0
 29 28  1  0  0  0  0
M  END
>  <minimizedAffinity>
-5.0414362

>  <minimizedRMSD>
0.673725307

$$$$
