
 OpenBabel03272506303D

 29 30  0  0  1  0  0  0  0  0999 V2000
   35.4230   30.2310   48.1590 C   0  0  1  0  0  0  0  0  0  0  0  0
   34.0500   30.5080   47.7490 C   0  0  0  0  0  0  0  0  0  0  0  0
   33.2380   29.3490   47.2470 C   0  0  0  0  0  0  0  0  0  0  0  0
   33.4730   28.0660   47.9390 C   0  0  0  0  0  0  0  0  0  0  0  0
   34.8660   27.7600   48.3780 C   0  0  0  0  0  0  0  0  0  0  0  0
   35.5490   28.9640   48.9480 C   0  0  2  0  0  0  0  0  0  0  0  0
   35.7220   31.0330   48.9110 H   0  0  0  0  0  0  0  0  0  0  0  0
   33.8890   31.3440   47.0700 H   0  0  0  0  0  0  0  0  0  0  0  0
   33.4920   30.8300   48.6860 H   0  0  0  0  0  0  0  0  0  0  0  0
   33.4810   29.2280   46.1690 H   0  0  0  0  0  0  0  0  0  0  0  0
   32.1740   29.6210   47.3130 H   0  0  0  0  0  0  0  0  0  0  0  0
   32.7650   27.9740   48.7960 H   0  0  0  0  0  0  0  0  0  0  0  0
   33.1670   27.2470   47.2280 H   0  0  0  0  0  0  0  0  0  0  0  0
   34.7990   27.0170   49.2020 H   0  0  0  0  0  0  0  0  0  0  0  0
   35.4850   27.3730   47.5450 H   0  0  0  0  0  0  0  0  0  0  0  0
   36.5340   28.7110   49.3170 H   0  0  0  0  0  0  0  0  0  0  0  0
   36.1580   30.3440   45.7420 C   0  0  0  0  0  0  0  0  0  0  0  0
   36.4630   30.3740   47.1160 C   0  0  0  0  0  0  0  0  0  0  0  0
   37.7890   30.5610   47.4550 C   0  0  0  0  0  0  0  0  0  0  0  0
   38.7220   30.7040   46.4560 N   0  0  0  0  0  0  0  0  0  0  0  0
   38.3800   30.6690   45.1520 C   0  0  0  0  0  0  0  0  0  0  0  0
   37.0820   30.4860   44.7950 N   0  0  0  0  0  0  0  0  0  0  0  0
   35.1570   30.2040   45.3680 H   0  0  0  0  0  0  0  0  0  0  0  0
   38.1820   30.6080   48.4590 H   0  0  0  0  0  0  0  0  0  0  0  0
   39.2110   30.7950   44.4690 H   0  0  0  0  0  0  0  0  0  0  0  0
   34.7900   29.2510   50.2320 C   0  0  0  0  0  0  0  0  0  0  0  0
   35.3940   29.5070   51.4110 C   0  0  0  0  0  0  0  0  0  0  0  0
   36.8840   29.4870   51.3790 C   0  0  0  0  0  0  0  0  0  0  0  0
   37.3080   29.7530   52.3800 H   0  0  0  0  0  0  0  0  0  0  0  0
  1  7  1  1  0  0  0
  1  6  1  0  0  0  0
  2  1  1  0  0  0  0
  2  9  1  0  0  0  0
  3 11  1  0  0  0  0
  3  2  1  0  0  0  0
  3  4  1  0  0  0  0
  4  5  1  0  0  0  0
  4 12  1  0  0  0  0
  5  6  1  0  0  0  0
  5 14  1  0  0  0  0
  6 16  1  1  0  0  0
  6 26  1  0  0  0  0
  8  2  1  0  0  0  0
 10  3  1  0  0  0  0
 13  4  1  0  0  0  0
 15  5  1  0  0  0  0
 17 18  1  0  0  0  0
 18 19  2  0  0  0  0
 18  1  1  0  0  0  0
 19 24  1  0  0  0  0
 20 19  1  0  0  0  0
 21 20  2  0  0  0  0
 22 21  1  0  0  0  0
 22 17  2  0  0  0  0
 23 17  1  0  0  0  0
 25 21  1  0  0  0  0
 26 27  2  0  0  0  0
 28 27  1  0  0  0  0
 28 29  1  0  0  0  0
M  END
>  <minimizedAffinity>
-4.27983379

>  <minimizedRMSD>
3.15541387

$$$$
