
     RDKit          3D

 29 30  0  0  0  0  0  0  0  0999 V2000
   34.9358   28.7795   48.6892 C   0  0  0  0  0  0  0  0  0  0  0  0
   34.5957   27.8424   49.4998 O   0  0  0  0  0  0  0  0  0  0  0  0
   33.0223   30.5738   46.1836 C   0  0  0  0  0  0  0  0  0  0  0  0
   32.8292   29.6419   45.1715 C   0  0  0  0  0  0  0  0  0  0  0  0
   33.3566   28.3765   45.3498 C   0  0  0  0  0  0  0  0  0  0  0  0
   34.0384   28.0909   46.4954 N   0  0  0  0  0  0  0  0  0  0  0  0
   34.2091   28.9989   47.4452 C   0  0  0  0  0  0  0  0  0  0  0  0
   33.6974   30.2358   47.2800 N   0  0  0  0  0  0  0  0  0  0  0  0
   36.0727   29.5584   49.1340 C   0  0  0  0  0  0  0  0  0  0  0  0
   36.2907   29.6960   50.5101 C   0  0  0  0  0  0  0  0  0  0  0  0
   37.3526   30.4299   51.0217 C   0  0  0  0  0  0  0  0  0  0  0  0
   38.2465   31.0601   50.1593 C   0  0  0  0  0  0  0  0  0  0  0  0
   38.0185   30.9151   48.8125 C   0  0  0  0  0  0  0  0  0  0  0  0
   36.9627   30.1859   48.3228 C   0  0  0  0  0  0  0  0  0  0  0  0
   32.6334   31.5819   46.1042 H   0  0  0  0  0  0  0  0  0  0  0  0
   32.2691   30.0142   44.3245 H   0  0  0  0  0  0  0  0  0  0  0  0
   33.1935   27.6742   44.5541 H   0  0  0  0  0  0  0  0  0  0  0  0
   35.5948   29.2052   51.1786 H   0  0  0  0  0  0  0  0  0  0  0  0
   37.4138   30.4622   52.0965 H   0  0  0  0  0  0  0  0  0  0  0  0
   39.0374   31.6032   50.6569 H   0  0  0  0  0  0  0  0  0  0  0  0
   38.7881   31.4547   48.2790 H   0  0  0  0  0  0  0  0  0  0  0  0
   36.8725   30.1324   46.8818 C   0  0  0  0  0  0  0  0  0  0  0  0
   37.6324   29.4446   46.0538 C   0  0  0  0  0  0  0  0  0  0  0  0
   37.6862   29.2745   44.5978 C   0  0  0  0  0  0  0  0  0  0  0  0
   38.5170   29.8867   44.1474 H   0  0  0  0  0  0  0  0  0  0  0  0
   36.2117   30.5874   46.1757 H   0  0  0  0  0  0  0  0  0  0  0  0
   38.4559   28.8144   46.4110 H   0  0  0  0  0  0  0  0  0  0  0  0
   37.7402   28.2378   44.2494 H   0  0  0  0  0  0  0  0  0  0  0  0
   36.7625   29.7441   44.1400 H   0  0  0  0  0  0  0  0  0  0  0  0
  1  9  1  0
  1  2  2  0
  3  8  2  0
  4  5  2  0
  4  3  1  0
  5  6  1  0
  6  7  2  0
  7  1  1  0
  8  7  1  0
  9 10  2  0
 10 11  1  0
 12 11  2  0
 13 12  1  0
 14 13  2  0
 14  9  1  0
  3 15  1  0
  4 16  1  0
  5 17  1  0
 10 18  1  0
 11 19  1  0
 12 20  1  0
 13 21  1  0
 22 23  2  3
 23 24  1  0
 24 25  1  0
 22 26  1  0
 23 27  1  0
 24 28  1  0
 24 29  1  0
 14 22  1  0
M  ISO  8  15  14  16  14  17  14  18  14  19  14  20  14  21  14  25   8
M  END
>  <DihAtoms>  (1) 
12,13,21,22

>  <DihDeg>  (1) 
-1.208355498832682

$$$$
