REMARK  Name = 
REMARK  3 active torsions:
REMARK  status: ('A' for Active; 'I' for Inactive)
REMARK    1  A    between atoms: C_1  and  O_7
REMARK    2  A    between atoms: C_2  and  C_11
REMARK    3  A    between atoms: C_12  and  C_13
REMARK                            x       y       z     vdW  Elec       q    Type
REMARK                         _______ _______ _______ _____ _____    ______ ____
ROOT
ATOM      1  C   UNL     1      37.306  29.996  51.181  0.00  0.00    +0.000 A 
ATOM      2  C   UNL     1      37.948  30.914  50.355  0.00  0.00    +0.000 A 
ATOM      3  C   UNL     1      37.273  31.382  49.240  0.00  0.00    +0.000 A 
ATOM      4  N   UNL     1      36.018  30.926  49.001  0.00  0.00    +0.000 NA
ATOM      5  C   UNL     1      35.401  30.028  49.816  0.00  0.00    +0.000 A 
ATOM      6  N   UNL     1      36.063  29.588  50.884  0.00  0.00    +0.000 NA
ATOM      7  H   UNL     1      37.631  32.081  48.521  0.00  0.00    +0.000 HD
ATOM      8  H   UNL     1      34.401  29.666  49.623  0.00  0.00    +0.000 HD
ENDROOT
BRANCH   1   9
ATOM      9  O   UNL     1      38.084  29.610  52.253  0.00  0.00    +0.000 OA
ATOM     10  H   UNL     1      38.053  28.675  52.678  0.00  0.00    +0.000 HD
ENDBRANCH   1   9
BRANCH   2  11
ATOM     11  C   UNL     1      39.297  31.415  50.591  0.00  0.00    +0.000 C 
ATOM     12  C   UNL     1      39.571  32.299  51.532  0.00  0.00    +0.000 C 
BRANCH  12  13
ATOM     13  C   UNL     1      40.888  32.856  51.839  0.00  0.00    +0.000 C 
ATOM     14  H   UNL     1      40.889  33.948  51.635  0.00  0.00    +0.000 HD
ENDBRANCH  12  13
ENDBRANCH   2  11
TORSDOF 3
