REMARK  Name = 
REMARK  4 active torsions:
REMARK  status: ('A' for Active; 'I' for Inactive)
REMARK    1  A    between atoms: C_1  and  C_7
REMARK    2  A    between atoms: C_1  and  C_9
REMARK    3  A    between atoms: C_14  and  C_22
REMARK    4  A    between atoms: C_23  and  C_24
REMARK                            x       y       z     vdW  Elec       q    Type
REMARK                         _______ _______ _______ _____ _____    ______ ____
ROOT
ATOM      1  C   UNL     1      36.073  29.558  49.134  0.00  0.00    +0.000 A 
ATOM      2  C   UNL     1      36.291  29.696  50.510  0.00  0.00    +0.000 A 
ATOM      3  C   UNL     1      37.353  30.430  51.022  0.00  0.00    +0.000 A 
ATOM      4  C   UNL     1      38.246  31.060  50.159  0.00  0.00    +0.000 A 
ATOM      5  C   UNL     1      38.019  30.915  48.812  0.00  0.00    +0.000 A 
ATOM      6  C   UNL     1      36.963  30.186  48.323  0.00  0.00    +0.000 A 
ATOM      7  H   UNL     1      35.595  29.205  51.179  0.00  0.00    +0.000 HD
ATOM      8  H   UNL     1      37.414  30.462  52.096  0.00  0.00    +0.000 HD
ATOM      9  H   UNL     1      39.037  31.603  50.657  0.00  0.00    +0.000 HD
ATOM     10  H   UNL     1      38.788  31.455  48.279  0.00  0.00    +0.000 HD
ENDROOT
BRANCH   1  11
ATOM     11  C   UNL     1      34.936  28.779  48.689  0.00  0.00    +0.000 C 
ATOM     12  O   UNL     1      34.596  27.842  49.500  0.00  0.00    +0.000 OA
BRANCH  11  17
ATOM     13  C   UNL     1      33.022  30.574  46.184  0.00  0.00    +0.000 A 
ATOM     14  C   UNL     1      32.829  29.642  45.172  0.00  0.00    +0.000 A 
ATOM     15  C   UNL     1      33.357  28.377  45.350  0.00  0.00    +0.000 A 
ATOM     16  N   UNL     1      34.038  28.091  46.495  0.00  0.00    +0.000 NA
ATOM     17  C   UNL     1      34.209  28.999  47.445  0.00  0.00    +0.000 A 
ATOM     18  N   UNL     1      33.697  30.236  47.280  0.00  0.00    +0.000 NA
ATOM     19  H   UNL     1      32.633  31.582  46.104  0.00  0.00    +0.000 HD
ATOM     20  H   UNL     1      32.269  30.014  44.325  0.00  0.00    +0.000 HD
ATOM     21  H   UNL     1      33.194  27.674  44.554  0.00  0.00    +0.000 HD
ENDBRANCH  11  17
ENDBRANCH   1  11
BRANCH   6  22
ATOM     22  C   UNL     1      36.873  30.132  46.882  0.00  0.00    +0.000 C 
ATOM     23  C   UNL     1      37.665  30.714  46.005  0.00  0.00    +0.000 C 
BRANCH  23  24
ATOM     24  C   UNL     1      37.723  30.770  44.540  0.00  0.00    +0.000 C 
ATOM     25  H   UNL     1      37.315  31.746  44.154  0.00  0.00    +0.000 HD
ENDBRANCH  23  24
ENDBRANCH   6  22
TORSDOF 4
