
 OpenBabel03272500583D

 30 31  0  0  0  0  0  0  0  0999 V2000
   38.2370   31.9250   47.3960 C   0  0  0  0  0  0  0  0  0  0  0  0
   38.8150   32.7960   48.2780 C   0  0  0  0  0  0  0  0  0  0  0  0
   38.3960   32.8980   49.6090 C   0  0  0  0  0  0  0  0  0  0  0  0
   37.3100   32.0320   50.0280 C   0  0  0  0  0  0  0  0  0  0  0  0
   36.7840   31.1930   49.1060 C   0  0  0  0  0  0  0  0  0  0  0  0
   37.1920   31.1030   47.8290 C   0  0  0  0  0  0  0  0  0  0  0  0
   39.6410   33.4620   47.9780 H   0  0  0  0  0  0  0  0  0  0  0  0
   38.9010   33.6150   50.2550 H   0  0  0  0  0  0  0  0  0  0  0  0
   37.1070   32.2230   51.0530 H   0  0  0  0  0  0  0  0  0  0  0  0
   36.0290   30.6410   49.6420 H   0  0  0  0  0  0  0  0  0  0  0  0
   40.0250   31.2510   45.8790 C   0  0  0  0  0  0  0  0  0  0  0  0
   38.7960   31.9210   46.0600 C   0  0  0  0  0  0  0  0  0  0  0  0
   38.2760   32.4890   44.9240 C   0  0  0  0  0  0  0  0  0  0  0  0
   38.9270   32.3870   43.7490 N   0  0  0  0  0  0  0  0  0  0  0  0
   40.0690   31.7600   43.5990 C   0  0  0  0  0  0  0  0  0  0  0  0
   40.6170   31.1940   44.6630 N   0  0  0  0  0  0  0  0  0  0  0  0
   40.5110   30.7740   46.7200 H   0  0  0  0  0  0  0  0  0  0  0  0
   37.3220   33.0080   45.0650 H   0  0  0  0  0  0  0  0  0  0  0  0
   40.5730   31.6930   42.6440 H   0  0  0  0  0  0  0  0  0  0  0  0
   35.1780   30.0720   47.1890 C   0  0  0  0  0  0  0  0  0  0  0  0
   34.6560   30.6770   48.2080 O   0  0  0  0  0  0  0  0  0  0  0  0
   36.5960   30.2470   46.9380 N   0  0  0  0  0  0  0  0  0  0  0  0
   37.0870   29.7750   46.1780 H   0  0  0  0  0  0  0  0  0  0  0  0
   34.3790   29.2970   46.3950 O   0  0  0  0  0  0  0  0  0  0  0  0
   33.0190   29.0880   46.5950 C   0  0  0  0  0  0  0  0  0  0  0  0
   32.1090   29.8500   46.0260 O   0  0  0  0  0  0  0  0  0  0  0  0
   32.5210   27.9790   47.4440 C   0  0  0  0  0  3  0  0  0  0  0  0
   31.2640   27.8480   47.7870 C   0  0  0  0  0  3  0  0  0  0  0  0
   30.7150   26.7560   48.6360 C   0  0  0  0  0  2  0  0  0  0  0  0
   31.4780   26.0600   49.0130 H   0  0  0  0  0  0  0  0  0  0  0  0
  1  6  2  0  0  0  0
  1  2  1  0  0  0  0
  2  3  2  0  0  0  0
  3  4  1  0  0  0  0
  3  8  1  0  0  0  0
  4  9  1  0  0  0  0
  5 10  1  0  0  0  0
  5  4  2  0  0  0  0
  6  5  1  0  0  0  0
  7  2  1  0  0  0  0
 11 12  1  0  0  0  0
 11 17  1  0  0  0  0
 12  1  1  0  0  0  0
 13 18  1  0  0  0  0
 13 12  2  0  0  0  0
 14 13  1  0  0  0  0
 15 14  2  0  0  0  0
 15 16  1  0  0  0  0
 16 11  2  0  0  0  0
 19 15  1  0  0  0  0
 20 21  2  0  0  0  0
 22 20  1  0  0  0  0
 22  6  1  0  0  0  0
 23 22  1  0  0  0  0
 24 25  1  0  0  0  0
 24 20  1  0  0  0  0
 25 27  1  0  0  0  0
 26 25  2  0  0  0  0
 27 28  2  0  0  0  0
 28 29  1  0  0  0  0
 29 30  1  0  0  0  0
M  END
>  <minimizedAffinity>
-5.5217042

>  <minimizedRMSD>
1.55683219

$$$$
