
 OpenBabel03262523173D

 34 36  0  0  0  0  0  0  0  0999 V2000
   36.8190   27.3270   32.8700 C   0  0  0  0  0  0  0  0  0  0  0  0
   36.9890   27.6660   31.5420 C   0  0  0  0  0  0  0  0  0  0  0  0
   36.5490   28.9220   31.2230 C   0  0  0  0  0  0  0  0  0  0  0  0
   35.9820   29.7820   32.1390 C   0  0  0  0  0  0  0  0  0  0  0  0
   35.8530   29.3600   33.4340 C   0  0  0  0  0  0  0  0  0  0  0  0
   36.2740   28.1300   33.7900 N   0  0  0  0  0  0  0  0  0  0  0  0
   37.4330   26.9650   30.8740 H   0  0  0  0  0  0  0  0  0  0  0  0
   36.6630   29.2410   30.1770 H   0  0  0  0  0  0  0  0  0  0  0  0
   35.6820   30.7380   31.7750 H   0  0  0  0  0  0  0  0  0  0  0  0
   32.8410   29.3430   33.6430 Cl  0  0  0  0  0  0  0  0  0  0  0  0
   33.9040   30.2880   34.6320 C   0  0  0  0  0  0  0  0  0  0  0  0
   35.2610   30.2160   34.4490 C   0  0  0  0  0  0  0  0  0  0  0  0
   35.9840   31.0270   35.3160 C   0  0  0  0  0  0  0  0  0  0  0  0
   35.4530   31.8350   36.2760 C   0  0  0  0  0  0  0  0  0  0  0  0
   34.0710   31.8700   36.4200 C   0  0  0  0  0  0  0  0  0  0  0  0
   33.3360   32.8860   37.6320 Cl  0  0  0  0  0  0  0  0  0  0  0  0
   33.3080   31.0850   35.5850 C   0  0  0  0  0  0  0  0  0  0  0  0
   37.0740   31.0190   35.2260 H   0  0  0  0  0  0  0  0  0  0  0  0
   36.0710   32.4430   36.9220 H   0  0  0  0  0  0  0  0  0  0  0  0
   32.2330   31.1310   35.7190 H   0  0  0  0  0  0  0  0  0  0  0  0
   37.6390   23.7470   32.9290 C   0  0  0  0  0  0  0  0  0  0  0  0
   38.1030   23.5410   34.2340 C   0  0  0  0  0  0  0  0  0  0  0  0
   38.1260   24.6410   35.0770 C   0  0  0  0  0  0  0  0  0  0  0  0
   37.7010   25.8240   34.5830 N   0  0  0  0  0  0  0  0  0  0  0  0
   37.2600   26.0070   33.3330 C   0  0  0  0  0  0  0  0  0  0  0  0
   37.2340   24.9460   32.5080 N   0  0  0  0  0  0  0  0  0  0  0  0
   38.4190   22.5670   34.5340 H   0  0  0  0  0  0  0  0  0  0  0  0
   37.5730   22.6730   31.9630 N   0  0  0  0  0  0  0  0  0  0  0  0
   38.2770   22.8290   31.2220 H   0  0  0  0  0  0  0  0  0  0  0  0
   36.8910   21.8830   32.0550 H   0  0  0  0  0  0  0  0  0  0  0  0
   38.5930   24.5100   36.4450 C   0  0  0  0  0  3  0  0  0  0  0  0
   38.1490   23.5480   37.2350 C   0  0  0  0  0  3  0  0  0  0  0  0
   38.6440   23.4230   38.6510 C   0  0  0  0  0  2  0  0  0  0  0  0
   39.6290   22.9270   38.7120 H   0  0  0  0  0  0  0  0  0  0  0  0
  1 25  1  0  0  0  0
  1  6  1  0  0  0  0
  2  1  2  0  0  0  0
  3  2  1  0  0  0  0
  3  4  2  0  0  0  0
  4  5  1  0  0  0  0
  5  6  2  0  0  0  0
  5 12  1  0  0  0  0
  7  2  1  0  0  0  0
  8  3  1  0  0  0  0
  9  4  1  0  0  0  0
 10 11  1  0  0  0  0
 11 17  1  0  0  0  0
 12 11  2  0  0  0  0
 12 13  1  0  0  0  0
 13 14  2  0  0  0  0
 14 15  1  0  0  0  0
 14 19  1  0  0  0  0
 15 16  1  0  0  0  0
 17 20  1  0  0  0  0
 17 15  2  0  0  0  0
 18 13  1  0  0  0  0
 21 22  1  0  0  0  0
 22 27  1  0  0  0  0
 22 23  2  0  0  0  0
 23 31  1  0  0  0  0
 24 23  1  0  0  0  0
 25 24  2  0  0  0  0
 26 21  2  0  0  0  0
 26 25  1  0  0  0  0
 28 30  1  0  0  0  0
 28 21  1  0  0  0  0
 29 28  1  0  0  0  0
 31 32  2  0  0  0  0
 32 33  1  0  0  0  0
 33 34  1  0  0  0  0
M  END
>  <minimizedAffinity>
-6.28060865

$$$$

 OpenBabel03262523173D

 34 36  0  0  0  0  0  0  0  0999 V2000
   36.7630   27.2120   32.2300 C   0  0  0  0  0  0  0  0  0  0  0  0
   36.9910   27.6810   30.9510 C   0  0  0  0  0  0  0  0  0  0  0  0
   36.6060   28.9800   30.7540 C   0  0  0  0  0  0  0  0  0  0  0  0
   36.0370   29.7600   31.7370 C   0  0  0  0  0  0  0  0  0  0  0  0
   35.8480   29.2090   32.9760 C   0  0  0  0  0  0  0  0  0  0  0  0
   36.2150   27.9340   33.2130 N   0  0  0  0  0  0  0  0  0  0  0  0
   37.4330   27.0380   30.2270 H   0  0  0  0  0  0  0  0  0  0  0  0
   36.7670   29.4020   29.7520 H   0  0  0  0  0  0  0  0  0  0  0  0
   35.7830   30.7590   31.4680 H   0  0  0  0  0  0  0  0  0  0  0  0
   32.8350   29.1960   33.1520 Cl  0  0  0  0  0  0  0  0  0  0  0  0
   33.8940   30.0410   34.2320 C   0  0  0  0  0  0  0  0  0  0  0  0
   35.2520   29.9760   34.0570 C   0  0  0  0  0  0  0  0  0  0  0  0
   35.9700   30.7010   35.0000 C   0  0  0  0  0  0  0  0  0  0  0  0
   35.4350   31.4240   36.0230 C   0  0  0  0  0  0  0  0  0  0  0  0
   34.0510   31.4570   36.1560 C   0  0  0  0  0  0  0  0  0  0  0  0
   33.3100   32.3670   37.4460 Cl  0  0  0  0  0  0  0  0  0  0  0  0
   33.2920   30.7550   35.2470 C   0  0  0  0  0  0  0  0  0  0  0  0
   37.0610   30.6940   34.9210 H   0  0  0  0  0  0  0  0  0  0  0  0
   36.0500   31.9690   36.7270 H   0  0  0  0  0  0  0  0  0  0  0  0
   32.2160   30.7970   35.3730 H   0  0  0  0  0  0  0  0  0  0  0  0
   38.5270   24.3330   33.6770 C   0  0  0  0  0  0  0  0  0  0  0  0
   37.8220   23.2330   33.1740 C   0  0  0  0  0  0  0  0  0  0  0  0
   36.7470   23.4990   32.3410 C   0  0  0  0  0  0  0  0  0  0  0  0
   36.4590   24.7920   32.0750 N   0  0  0  0  0  0  0  0  0  0  0  0
   37.1420   25.8340   32.5640 C   0  0  0  0  0  0  0  0  0  0  0  0
   38.1860   25.5860   33.3730 N   0  0  0  0  0  0  0  0  0  0  0  0
   38.1250   22.2450   33.4410 H   0  0  0  0  0  0  0  0  0  0  0  0
   39.6640   24.1750   34.5570 N   0  0  0  0  0  0  0  0  0  0  0  0
   39.4200   24.5100   35.5040 H   0  0  0  0  0  0  0  0  0  0  0  0
   40.5740   23.7750   34.2240 H   0  0  0  0  0  0  0  0  0  0  0  0
   35.9660   22.4130   31.7790 C   0  0  0  0  0  3  0  0  0  0  0  0
   35.4480   21.4690   32.5450 C   0  0  0  0  0  3  0  0  0  0  0  0
   34.6390   20.3490   31.9480 C   0  0  0  0  0  2  0  0  0  0  0  0
   33.5990   20.6500   31.7290 H   0  0  0  0  0  0  0  0  0  0  0  0
  1 25  1  0  0  0  0
  1  6  1  0  0  0  0
  2  1  2  0  0  0  0
  3  2  1  0  0  0  0
  3  4  2  0  0  0  0
  4  5  1  0  0  0  0
  5  6  2  0  0  0  0
  5 12  1  0  0  0  0
  7  2  1  0  0  0  0
  8  3  1  0  0  0  0
  9  4  1  0  0  0  0
 10 11  1  0  0  0  0
 11 17  1  0  0  0  0
 12 11  2  0  0  0  0
 12 13  1  0  0  0  0
 13 14  2  0  0  0  0
 14 15  1  0  0  0  0
 14 19  1  0  0  0  0
 15 16  1  0  0  0  0
 17 20  1  0  0  0  0
 17 15  2  0  0  0  0
 18 13  1  0  0  0  0
 21 28  1  0  0  0  0
 22 27  1  0  0  0  0
 22 21  2  0  0  0  0
 23 22  1  0  0  0  0
 24 23  2  0  0  0  0
 24 25  1  0  0  0  0
 25 26  2  0  0  0  0
 26 21  1  0  0  0  0
 28 29  1  0  0  0  0
 30 28  1  0  0  0  0
 31 23  1  0  0  0  0
 31 32  2  0  0  0  0
 33 32  1  0  0  0  0
 34 33  1  0  0  0  0
M  END
>  <minimizedAffinity>
-6.03247595

$$$$

 OpenBabel03262523173D

 34 36  0  0  0  0  0  0  0  0999 V2000
   38.7840   25.1590   33.6230 C   0  0  0  0  0  0  0  0  0  0  0  0
   39.0750   26.4860   33.8740 C   0  0  0  0  0  0  0  0  0  0  0  0
   40.1420   26.6780   34.7100 C   0  0  0  0  0  0  0  0  0  0  0  0
   40.8690   25.6440   35.2610 C   0  0  0  0  0  0  0  0  0  0  0  0
   40.5060   24.3600   34.9570 C   0  0  0  0  0  0  0  0  0  0  0  0
   39.4620   24.1280   34.1360 N   0  0  0  0  0  0  0  0  0  0  0  0
   38.4830   27.2480   33.4240 H   0  0  0  0  0  0  0  0  0  0  0  0
   40.4160   27.7170   34.9410 H   0  0  0  0  0  0  0  0  0  0  0  0
   41.6830   25.9160   35.8930 H   0  0  0  0  0  0  0  0  0  0  0  0
   39.4130   23.1500   37.4970 Cl  0  0  0  0  0  0  0  0  0  0  0  0
   40.8220   22.5970   36.6550 C   0  0  0  0  0  0  0  0  0  0  0  0
   41.2290   23.2250   35.5060 C   0  0  0  0  0  0  0  0  0  0  0  0
   42.3710   22.6690   34.9420 C   0  0  0  0  0  0  0  0  0  0  0  0
   43.0630   21.6040   35.4360 C   0  0  0  0  0  0  0  0  0  0  0  0
   42.6080   21.0050   36.6050 C   0  0  0  0  0  0  0  0  0  0  0  0
   43.4550   19.6390   37.2830 Cl  0  0  0  0  0  0  0  0  0  0  0  0
   41.4800   21.5170   37.2040 C   0  0  0  0  0  0  0  0  0  0  0  0
   42.7530   23.1200   34.0220 H   0  0  0  0  0  0  0  0  0  0  0  0
   43.9480   21.2170   34.9490 H   0  0  0  0  0  0  0  0  0  0  0  0
   41.1460   21.0310   38.1140 H   0  0  0  0  0  0  0  0  0  0  0  0
   36.0970   25.4650   31.1370 C   0  0  0  0  0  0  0  0  0  0  0  0
   35.5660   24.1710   31.0710 C   0  0  0  0  0  0  0  0  0  0  0  0
   36.1430   23.2100   31.8860 C   0  0  0  0  0  0  0  0  0  0  0  0
   37.1670   23.5880   32.6810 N   0  0  0  0  0  0  0  0  0  0  0  0
   37.6650   24.8290   32.7340 C   0  0  0  0  0  0  0  0  0  0  0  0
   37.1130   25.7680   31.9480 N   0  0  0  0  0  0  0  0  0  0  0  0
   34.7530   23.9680   30.4100 H   0  0  0  0  0  0  0  0  0  0  0  0
   35.5760   26.5470   30.3320 N   0  0  0  0  0  0  0  0  0  0  0  0
   36.2750   26.8170   29.6180 H   0  0  0  0  0  0  0  0  0  0  0  0
   34.6250   26.9560   30.4950 H   0  0  0  0  0  0  0  0  0  0  0  0
   35.6490   21.8450   31.8750 C   0  0  0  0  0  3  0  0  0  0  0  0
   35.8120   21.0450   32.9150 C   0  0  0  0  0  3  0  0  0  0  0  0
   35.2930   19.6320   32.8890 C   0  0  0  0  0  2  0  0  0  0  0  0
   34.2100   19.5770   33.0990 H   0  0  0  0  0  0  0  0  0  0  0  0
  1  2  2  0  0  0  0
  1  6  1  0  0  0  0
  2  3  1  0  0  0  0
  3  8  1  0  0  0  0
  3  4  2  0  0  0  0
  4  9  1  0  0  0  0
  5  4  1  0  0  0  0
  5 12  1  0  0  0  0
  6  5  2  0  0  0  0
  7  2  1  0  0  0  0
 11 17  1  0  0  0  0
 11 10  1  0  0  0  0
 12 11  2  0  0  0  0
 13 14  2  0  0  0  0
 13 12  1  0  0  0  0
 14 15  1  0  0  0  0
 15 17  2  0  0  0  0
 15 16  1  0  0  0  0
 17 20  1  0  0  0  0
 18 13  1  0  0  0  0
 19 14  1  0  0  0  0
 21 26  1  0  0  0  0
 22 21  2  0  0  0  0
 22 23  1  0  0  0  0
 23 24  2  0  0  0  0
 24 25  1  0  0  0  0
 25  1  1  0  0  0  0
 26 25  2  0  0  0  0
 27 22  1  0  0  0  0
 28 30  1  0  0  0  0
 28 21  1  0  0  0  0
 29 28  1  0  0  0  0
 31 23  1  0  0  0  0
 31 32  2  0  0  0  0
 33 32  1  0  0  0  0
 33 34  1  0  0  0  0
M  END
>  <minimizedAffinity>
-5.99707413

$$$$

 OpenBabel03262523173D

 34 36  0  0  0  0  0  0  0  0999 V2000
   36.5480   26.2100   32.1420 C   0  0  0  0  0  0  0  0  0  0  0  0
   35.9900   25.4730   31.1150 C   0  0  0  0  0  0  0  0  0  0  0  0
   36.2820   24.1370   31.1610 C   0  0  0  0  0  0  0  0  0  0  0  0
   37.0640   23.5650   32.1410 C   0  0  0  0  0  0  0  0  0  0  0  0
   37.5760   24.3740   33.1190 C   0  0  0  0  0  0  0  0  0  0  0  0
   37.3120   25.6960   33.1110 N   0  0  0  0  0  0  0  0  0  0  0  0
   35.3920   25.9630   30.3820 H   0  0  0  0  0  0  0  0  0  0  0  0
   35.8610   23.5050   30.3660 H   0  0  0  0  0  0  0  0  0  0  0  0
   37.2180   22.5130   32.0770 H   0  0  0  0  0  0  0  0  0  0  0  0
   40.5630   24.5090   32.7020 Cl  0  0  0  0  0  0  0  0  0  0  0  0
   39.7790   23.8450   34.0970 C   0  0  0  0  0  0  0  0  0  0  0  0
   38.4110   23.8360   34.1800 C   0  0  0  0  0  0  0  0  0  0  0  0
   37.9280   23.2750   35.3570 C   0  0  0  0  0  0  0  0  0  0  0  0
   38.6890   22.7670   36.3650 C   0  0  0  0  0  0  0  0  0  0  0  0
   40.0730   22.8010   36.2310 C   0  0  0  0  0  0  0  0  0  0  0  0
   41.0970   22.1640   37.4900 Cl  0  0  0  0  0  0  0  0  0  0  0  0
   40.6030   23.3460   35.0840 C   0  0  0  0  0  0  0  0  0  0  0  0
   36.8430   23.2350   35.4900 H   0  0  0  0  0  0  0  0  0  0  0  0
   38.2520   22.3430   37.2590 H   0  0  0  0  0  0  0  0  0  0  0  0
   41.6850   23.3600   35.0040 H   0  0  0  0  0  0  0  0  0  0  0  0
   36.1860   29.7310   31.1580 C   0  0  0  0  0  0  0  0  0  0  0  0
   35.8150   30.3650   32.3500 C   0  0  0  0  0  0  0  0  0  0  0  0
   35.6950   29.5690   33.4780 C   0  0  0  0  0  0  0  0  0  0  0  0
   35.9440   28.2480   33.3480 N   0  0  0  0  0  0  0  0  0  0  0  0
   36.2980   27.6550   32.2020 C   0  0  0  0  0  0  0  0  0  0  0  0
   36.4170   28.4180   31.1030 N   0  0  0  0  0  0  0  0  0  0  0  0
   35.6390   31.4180   32.3550 H   0  0  0  0  0  0  0  0  0  0  0  0
   36.3410   30.4610   29.9200 N   0  0  0  0  0  0  0  0  0  0  0  0
   35.5880   30.1940   29.2630 H   0  0  0  0  0  0  0  0  0  0  0  0
   37.1200   31.1460   29.7700 H   0  0  0  0  0  0  0  0  0  0  0  0
   35.3140   30.1510   34.7510 C   0  0  0  0  0  3  0  0  0  0  0  0
   35.7650   31.3340   35.1310 C   0  0  0  0  0  3  0  0  0  0  0  0
   35.3600   31.9260   36.4540 C   0  0  0  0  0  2  0  0  0  0  0  0
   34.3590   32.3920   36.4190 H   0  0  0  0  0  0  0  0  0  0  0  0
  1 25  1  0  0  0  0
  1  6  1  0  0  0  0
  2  3  1  0  0  0  0
  2  1  2  0  0  0  0
  3  4  2  0  0  0  0
  4  5  1  0  0  0  0
  5 12  1  0  0  0  0
  6  5  2  0  0  0  0
  7  2  1  0  0  0  0
  8  3  1  0  0  0  0
  9  4  1  0  0  0  0
 10 11  1  0  0  0  0
 11 12  2  0  0  0  0
 11 17  1  0  0  0  0
 12 13  1  0  0  0  0
 13 18  1  0  0  0  0
 13 14  2  0  0  0  0
 14 19  1  0  0  0  0
 15 14  1  0  0  0  0
 15 16  1  0  0  0  0
 17 15  2  0  0  0  0
 20 17  1  0  0  0  0
 21 22  1  0  0  0  0
 22 27  1  0  0  0  0
 22 23  2  0  0  0  0
 23 31  1  0  0  0  0
 24 23  1  0  0  0  0
 25 24  2  0  0  0  0
 26 21  2  0  0  0  0
 26 25  1  0  0  0  0
 28 21  1  0  0  0  0
 29 28  1  0  0  0  0
 30 28  1  0  0  0  0
 31 32  2  0  0  0  0
 32 33  1  0  0  0  0
 34 33  1  0  0  0  0
M  END
>  <minimizedAffinity>
-5.90494251

$$$$

 OpenBabel03262523173D

 34 36  0  0  0  0  0  0  0  0999 V2000
   36.7440   27.7740   32.9900 C   0  0  0  0  0  0  0  0  0  0  0  0
   37.2740   28.3120   31.8330 C   0  0  0  0  0  0  0  0  0  0  0  0
   36.7420   29.5240   31.4850 C   0  0  0  0  0  0  0  0  0  0  0  0
   35.7620   30.1610   32.2150 C   0  0  0  0  0  0  0  0  0  0  0  0
   35.2960   29.5510   33.3480 C   0  0  0  0  0  0  0  0  0  0  0  0
   35.7940   28.3570   33.7280 N   0  0  0  0  0  0  0  0  0  0  0  0
   38.0300   27.7800   31.3040 H   0  0  0  0  0  0  0  0  0  0  0  0
   37.1300   29.9960   30.5710 H   0  0  0  0  0  0  0  0  0  0  0  0
   35.4290   31.1050   31.8490 H   0  0  0  0  0  0  0  0  0  0  0  0
   36.2180   31.1480   35.7380 Cl  0  0  0  0  0  0  0  0  0  0  0  0
   34.5660   30.9140   35.2720 C   0  0  0  0  0  0  0  0  0  0  0  0
   34.2620   30.1670   34.1630 C   0  0  0  0  0  0  0  0  0  0  0  0
   32.8980   30.0700   33.9140 C   0  0  0  0  0  0  0  0  0  0  0  0
   31.9120   30.6390   34.6610 C   0  0  0  0  0  0  0  0  0  0  0  0
   32.2740   31.3870   35.7750 C   0  0  0  0  0  0  0  0  0  0  0  0
   31.0530   32.1390   36.7680 Cl  0  0  0  0  0  0  0  0  0  0  0  0
   33.6130   31.5150   36.0670 C   0  0  0  0  0  0  0  0  0  0  0  0
   32.5830   29.4870   33.0430 H   0  0  0  0  0  0  0  0  0  0  0  0
   30.8650   30.5260   34.4130 H   0  0  0  0  0  0  0  0  0  0  0  0
   33.8690   32.1040   36.9410 H   0  0  0  0  0  0  0  0  0  0  0  0
   37.9320   24.2980   33.0460 C   0  0  0  0  0  0  0  0  0  0  0  0
   38.1840   24.0620   34.4020 C   0  0  0  0  0  0  0  0  0  0  0  0
   37.9410   25.1060   35.2810 C   0  0  0  0  0  0  0  0  0  0  0  0
   37.4790   26.2680   34.7690 N   0  0  0  0  0  0  0  0  0  0  0  0
   37.2420   26.4790   33.4680 C   0  0  0  0  0  0  0  0  0  0  0  0
   37.4750   25.4730   32.6090 N   0  0  0  0  0  0  0  0  0  0  0  0
   38.5490   23.1080   34.7130 H   0  0  0  0  0  0  0  0  0  0  0  0
   38.1510   23.2830   32.0390 N   0  0  0  0  0  0  0  0  0  0  0  0
   38.9500   23.5530   31.4410 H   0  0  0  0  0  0  0  0  0  0  0  0
   37.5540   22.4230   31.9750 H   0  0  0  0  0  0  0  0  0  0  0  0
   38.1780   24.9410   36.7030 C   0  0  0  0  0  3  0  0  0  0  0  0
   38.3110   23.7420   37.2440 C   0  0  0  0  0  3  0  0  0  0  0  0
   38.5580   23.5860   38.7210 C   0  0  0  0  0  2  0  0  0  0  0  0
   39.6160   23.7540   38.9920 H   0  0  0  0  0  0  0  0  0  0  0  0
  1 25  1  0  0  0  0
  1  6  1  0  0  0  0
  2  1  2  0  0  0  0
  3  2  1  0  0  0  0
  3  4  2  0  0  0  0
  4  5  1  0  0  0  0
  5  6  2  0  0  0  0
  5 12  1  0  0  0  0
  7  2  1  0  0  0  0
  8  3  1  0  0  0  0
  9  4  1  0  0  0  0
 11 10  1  0  0  0  0
 11 17  1  0  0  0  0
 12 11  2  0  0  0  0
 13 12  1  0  0  0  0
 13 14  2  0  0  0  0
 14 15  1  0  0  0  0
 15 17  2  0  0  0  0
 15 16  1  0  0  0  0
 17 20  1  0  0  0  0
 18 13  1  0  0  0  0
 19 14  1  0  0  0  0
 21 22  1  0  0  0  0
 22 27  1  0  0  0  0
 22 23  2  0  0  0  0
 23 31  1  0  0  0  0
 24 23  1  0  0  0  0
 25 24  2  0  0  0  0
 26 21  2  0  0  0  0
 26 25  1  0  0  0  0
 28 21  1  0  0  0  0
 29 28  1  0  0  0  0
 30 28  1  0  0  0  0
 31 32  2  0  0  0  0
 32 33  1  0  0  0  0
 33 34  1  0  0  0  0
M  END
>  <minimizedAffinity>
-5.87311602

$$$$

 OpenBabel03262523173D

 34 36  0  0  0  0  0  0  0  0999 V2000
   36.1140   28.6190   33.5810 C   0  0  0  0  0  0  0  0  0  0  0  0
   35.4720   28.5750   32.3580 C   0  0  0  0  0  0  0  0  0  0  0  0
   34.5580   29.5760   32.1680 C   0  0  0  0  0  0  0  0  0  0  0  0
   34.2910   30.5470   33.1080 C   0  0  0  0  0  0  0  0  0  0  0  0
   34.9750   30.5110   34.2930 C   0  0  0  0  0  0  0  0  0  0  0  0
   35.8850   29.5430   34.5200 N   0  0  0  0  0  0  0  0  0  0  0  0
   35.7140   27.8030   31.6650 H   0  0  0  0  0  0  0  0  0  0  0  0
   34.0200   29.5860   31.2090 H   0  0  0  0  0  0  0  0  0  0  0  0
   33.5630   31.2800   32.8460 H   0  0  0  0  0  0  0  0  0  0  0  0
   36.6250   33.0360   34.1570 Cl  0  0  0  0  0  0  0  0  0  0  0  0
   35.4320   32.6870   35.3640 C   0  0  0  0  0  0  0  0  0  0  0  0
   34.7400   31.5040   35.3280 C   0  0  0  0  0  0  0  0  0  0  0  0
   33.8170   31.3670   36.3580 C   0  0  0  0  0  0  0  0  0  0  0  0
   33.5770   32.2840   37.3370 C   0  0  0  0  0  0  0  0  0  0  0  0
   34.3070   33.4680   37.3270 C   0  0  0  0  0  0  0  0  0  0  0  0
   34.0430   34.6770   38.5560 Cl  0  0  0  0  0  0  0  0  0  0  0  0
   35.2350   33.6530   36.3280 C   0  0  0  0  0  0  0  0  0  0  0  0
   33.2280   30.4460   36.3910 H   0  0  0  0  0  0  0  0  0  0  0  0
   32.8430   32.1180   38.1130 H   0  0  0  0  0  0  0  0  0  0  0  0
   35.7900   34.5850   36.3430 H   0  0  0  0  0  0  0  0  0  0  0  0
   38.9290   26.2820   33.2590 C   0  0  0  0  0  0  0  0  0  0  0  0
   39.0070   25.6890   34.5250 C   0  0  0  0  0  0  0  0  0  0  0  0
   38.0850   26.1040   35.4740 C   0  0  0  0  0  0  0  0  0  0  0  0
   37.1840   27.0420   35.1110 N   0  0  0  0  0  0  0  0  0  0  0  0
   37.1220   27.6010   33.8960 C   0  0  0  0  0  0  0  0  0  0  0  0
   38.0110   27.2050   32.9700 N   0  0  0  0  0  0  0  0  0  0  0  0
   39.7560   24.9540   34.7180 H   0  0  0  0  0  0  0  0  0  0  0  0
   39.8400   25.9280   32.1920 N   0  0  0  0  0  0  0  0  0  0  0  0
   40.4700   26.7240   31.9950 H   0  0  0  0  0  0  0  0  0  0  0  0
   39.8150   24.9890   31.7270 H   0  0  0  0  0  0  0  0  0  0  0  0
   38.1000   25.5370   36.8090 C   0  0  0  0  0  3  0  0  0  0  0  0
   37.9970   24.2340   37.0060 C   0  0  0  0  0  3  0  0  0  0  0  0
   38.0150   23.6610   38.3980 C   0  0  0  0  0  2  0  0  0  0  0  0
   39.0390   23.5760   38.8060 H   0  0  0  0  0  0  0  0  0  0  0  0
  1 25  1  0  0  0  0
  1  6  1  0  0  0  0
  2  1  2  0  0  0  0
  3  2  1  0  0  0  0
  3  4  2  0  0  0  0
  4  5  1  0  0  0  0
  5  6  2  0  0  0  0
  5 12  1  0  0  0  0
  7  2  1  0  0  0  0
  8  3  1  0  0  0  0
  9  4  1  0  0  0  0
 10 11  1  0  0  0  0
 11 17  1  0  0  0  0
 12 11  2  0  0  0  0
 12 13  1  0  0  0  0
 13 18  1  0  0  0  0
 13 14  2  0  0  0  0
 14 19  1  0  0  0  0
 15 14  1  0  0  0  0
 15 16  1  0  0  0  0
 17 20  1  0  0  0  0
 17 15  2  0  0  0  0
 21 22  1  0  0  0  0
 22 27  1  0  0  0  0
 22 23  2  0  0  0  0
 23 31  1  0  0  0  0
 24 23  1  0  0  0  0
 25 24  2  0  0  0  0
 26 21  2  0  0  0  0
 26 25  1  0  0  0  0
 28 21  1  0  0  0  0
 29 28  1  0  0  0  0
 30 28  1  0  0  0  0
 31 32  2  0  0  0  0
 32 33  1  0  0  0  0
 33 34  1  0  0  0  0
M  END
>  <minimizedAffinity>
-5.83950901

$$$$

 OpenBabel03262523173D

 34 36  0  0  0  0  0  0  0  0999 V2000
   37.2660   26.4870   33.6840 C   0  0  0  0  0  0  0  0  0  0  0  0
   37.9640   26.4640   34.8760 C   0  0  0  0  0  0  0  0  0  0  0  0
   38.4620   25.2340   35.2100 C   0  0  0  0  0  0  0  0  0  0  0  0
   38.2890   24.1090   34.4330 C   0  0  0  0  0  0  0  0  0  0  0  0
   37.5820   24.2270   33.2670 C   0  0  0  0  0  0  0  0  0  0  0  0
   37.0750   25.4210   32.9000 N   0  0  0  0  0  0  0  0  0  0  0  0
   38.0700   27.3620   35.4400 H   0  0  0  0  0  0  0  0  0  0  0  0
   39.0270   25.1620   36.1500 H   0  0  0  0  0  0  0  0  0  0  0  0
   38.7280   23.2070   34.7920 H   0  0  0  0  0  0  0  0  0  0  0  0
   39.7590   23.5820   31.2770 Cl  0  0  0  0  0  0  0  0  0  0  0  0
   38.2820   22.6950   31.4620 C   0  0  0  0  0  0  0  0  0  0  0  0
   37.3610   23.0800   32.4030 C   0  0  0  0  0  0  0  0  0  0  0  0
   36.2300   22.2730   32.4360 C   0  0  0  0  0  0  0  0  0  0  0  0
   36.0010   21.1920   31.6390 C   0  0  0  0  0  0  0  0  0  0  0  0
   36.9670   20.8450   30.7020 C   0  0  0  0  0  0  0  0  0  0  0  0
   36.7280   19.4720   29.6540 Cl  0  0  0  0  0  0  0  0  0  0  0  0
   38.1080   21.6120   30.6270 C   0  0  0  0  0  0  0  0  0  0  0  0
   35.4520   22.5220   33.1640 H   0  0  0  0  0  0  0  0  0  0  0  0
   35.0970   20.6030   31.7140 H   0  0  0  0  0  0  0  0  0  0  0  0
   38.8460   21.3200   29.8880 H   0  0  0  0  0  0  0  0  0  0  0  0
   36.1610   29.2170   31.4880 C   0  0  0  0  0  0  0  0  0  0  0  0
   35.5940   30.1390   32.3760 C   0  0  0  0  0  0  0  0  0  0  0  0
   35.6010   29.8070   33.7220 C   0  0  0  0  0  0  0  0  0  0  0  0
   36.1520   28.6260   34.0770 N   0  0  0  0  0  0  0  0  0  0  0  0
   36.6910   27.7540   33.2170 C   0  0  0  0  0  0  0  0  0  0  0  0
   36.6880   28.0670   31.9100 N   0  0  0  0  0  0  0  0  0  0  0  0
   35.1810   31.0490   31.9990 H   0  0  0  0  0  0  0  0  0  0  0  0
   36.2070   29.4570   30.0620 N   0  0  0  0  0  0  0  0  0  0  0  0
   35.5700   28.8010   29.5790 H   0  0  0  0  0  0  0  0  0  0  0  0
   36.8160   30.1990   29.6420 H   0  0  0  0  0  0  0  0  0  0  0  0
   35.0330   30.7100   34.7050 C   0  0  0  0  0  3  0  0  0  0  0  0
   35.7660   31.2150   35.6820 C   0  0  0  0  0  3  0  0  0  0  0  0
   35.1620   32.1520   36.6940 C   0  0  0  0  0  2  0  0  0  0  0  0
   35.0760   33.1850   36.3130 H   0  0  0  0  0  0  0  0  0  0  0  0
  1  2  1  0  0  0  0
  2  3  2  0  0  0  0
  2  7  1  0  0  0  0
  3  8  1  0  0  0  0
  4  9  1  0  0  0  0
  4  3  1  0  0  0  0
  5  4  2  0  0  0  0
  6  5  1  0  0  0  0
  6  1  2  0  0  0  0
 10 11  1  0  0  0  0
 11 12  1  0  0  0  0
 12 13  2  0  0  0  0
 12  5  1  0  0  0  0
 13 18  1  0  0  0  0
 14 19  1  0  0  0  0
 14 13  1  0  0  0  0
 15 14  2  0  0  0  0
 16 15  1  0  0  0  0
 17 15  1  0  0  0  0
 17 11  2  0  0  0  0
 20 17  1  0  0  0  0
 21 26  2  0  0  0  0
 21 22  1  0  0  0  0
 22 23  2  0  0  0  0
 23 24  1  0  0  0  0
 23 31  1  0  0  0  0
 25  1  1  0  0  0  0
 25 24  2  0  0  0  0
 26 25  1  0  0  0  0
 27 22  1  0  0  0  0
 28 21  1  0  0  0  0
 29 28  1  0  0  0  0
 30 28  1  0  0  0  0
 31 32  2  0  0  0  0
 32 33  1  0  0  0  0
 34 33  1  0  0  0  0
M  END
>  <minimizedAffinity>
-5.79427767

$$$$

 OpenBabel03262523173D

 34 36  0  0  0  0  0  0  0  0999 V2000
   36.2570   27.9590   31.1740 C   0  0  0  0  0  0  0  0  0  0  0  0
   36.7720   28.9530   30.3650 C   0  0  0  0  0  0  0  0  0  0  0  0
   36.2280   30.1900   30.5820 C   0  0  0  0  0  0  0  0  0  0  0  0
   35.2500   30.4340   31.5220 C   0  0  0  0  0  0  0  0  0  0  0  0
   34.8000   29.3870   32.2780 C   0  0  0  0  0  0  0  0  0  0  0  0
   35.3090   28.1520   32.0970 N   0  0  0  0  0  0  0  0  0  0  0  0
   37.5270   28.7130   29.6530 H   0  0  0  0  0  0  0  0  0  0  0  0
   36.6050   31.0180   29.9640 H   0  0  0  0  0  0  0  0  0  0  0  0
   34.9070   31.4400   31.6060 H   0  0  0  0  0  0  0  0  0  0  0  0
   35.6960   30.4370   34.9630 Cl  0  0  0  0  0  0  0  0  0  0  0  0
   34.0620   30.0460   34.5390 C   0  0  0  0  0  0  0  0  0  0  0  0
   33.7690   29.5750   33.2860 C   0  0  0  0  0  0  0  0  0  0  0  0
   32.4180   29.3080   33.0930 C   0  0  0  0  0  0  0  0  0  0  0  0
   31.4350   29.4790   34.0190 C   0  0  0  0  0  0  0  0  0  0  0  0
   31.7860   29.9600   35.2760 C   0  0  0  0  0  0  0  0  0  0  0  0
   30.5680   30.1970   36.5010 Cl  0  0  0  0  0  0  0  0  0  0  0  0
   33.1110   30.2400   35.5190 C   0  0  0  0  0  0  0  0  0  0  0  0
   32.1120   28.9290   32.1140 H   0  0  0  0  0  0  0  0  0  0  0  0
   30.3990   29.2520   33.8070 H   0  0  0  0  0  0  0  0  0  0  0  0
   33.3580   30.6140   36.5070 H   0  0  0  0  0  0  0  0  0  0  0  0
   38.5010   25.1220   30.5350 C   0  0  0  0  0  0  0  0  0  0  0  0
   37.6970   24.0060   30.7970 C   0  0  0  0  0  0  0  0  0  0  0  0
   36.3900   24.2470   31.1910 C   0  0  0  0  0  0  0  0  0  0  0  0
   35.9880   25.5330   31.2910 N   0  0  0  0  0  0  0  0  0  0  0  0
   36.7680   26.5910   31.0370 C   0  0  0  0  0  0  0  0  0  0  0  0
   38.0370   26.3670   30.6550 N   0  0  0  0  0  0  0  0  0  0  0  0
   38.1050   23.0250   30.6900 H   0  0  0  0  0  0  0  0  0  0  0  0
   39.8800   24.9900   30.1190 N   0  0  0  0  0  0  0  0  0  0  0  0
   40.5030   25.3220   30.8740 H   0  0  0  0  0  0  0  0  0  0  0  0
   40.1440   24.6090   29.1790 H   0  0  0  0  0  0  0  0  0  0  0  0
   35.4940   23.1430   31.4820 C   0  0  0  0  0  3  0  0  0  0  0  0
   35.9470   21.9110   31.6350 C   0  0  0  0  0  3  0  0  0  0  0  0
   35.0050   20.7760   31.9370 C   0  0  0  0  0  2  0  0  0  0  0  0
   34.7230   20.7350   33.0040 H   0  0  0  0  0  0  0  0  0  0  0  0
  1  6  1  0  0  0  0
  2  3  1  0  0  0  0
  2  1  2  0  0  0  0
  3  4  2  0  0  0  0
  4  9  1  0  0  0  0
  4  5  1  0  0  0  0
  5 12  1  0  0  0  0
  6  5  2  0  0  0  0
  7  2  1  0  0  0  0
  8  3  1  0  0  0  0
 11 10  1  0  0  0  0
 11 17  1  0  0  0  0
 12 11  2  0  0  0  0
 13 12  1  0  0  0  0
 13 14  2  0  0  0  0
 14 15  1  0  0  0  0
 15 17  2  0  0  0  0
 15 16  1  0  0  0  0
 17 20  1  0  0  0  0
 18 13  1  0  0  0  0
 19 14  1  0  0  0  0
 21 26  2  0  0  0  0
 21 22  1  0  0  0  0
 22 23  2  0  0  0  0
 23 24  1  0  0  0  0
 23 31  1  0  0  0  0
 25  1  1  0  0  0  0
 25 24  2  0  0  0  0
 26 25  1  0  0  0  0
 27 22  1  0  0  0  0
 28 21  1  0  0  0  0
 28 29  1  0  0  0  0
 30 28  1  0  0  0  0
 31 32  2  0  0  0  0
 32 33  1  0  0  0  0
 33 34  1  0  0  0  0
M  END
>  <minimizedAffinity>
-5.79348183

$$$$

 OpenBabel03262523173D

 34 36  0  0  0  0  0  0  0  0999 V2000
   35.4310   29.3630   33.6240 C   0  0  0  0  0  0  0  0  0  0  0  0
   35.3910   29.8290   32.3240 C   0  0  0  0  0  0  0  0  0  0  0  0
   36.3080   29.2450   31.4910 C   0  0  0  0  0  0  0  0  0  0  0  0
   37.1980   28.2770   31.9030 C   0  0  0  0  0  0  0  0  0  0  0  0
   37.1650   27.8780   33.2110 C   0  0  0  0  0  0  0  0  0  0  0  0
   36.2770   28.4270   34.0650 N   0  0  0  0  0  0  0  0  0  0  0  0
   34.6840   30.5790   32.0560 H   0  0  0  0  0  0  0  0  0  0  0  0
   36.3170   29.5810   30.4440 H   0  0  0  0  0  0  0  0  0  0  0  0
   37.8620   27.8910   31.1630 H   0  0  0  0  0  0  0  0  0  0  0  0
   36.6100   25.0260   32.3930 Cl  0  0  0  0  0  0  0  0  0  0  0  0
   37.9210   25.5360   33.4040 C   0  0  0  0  0  0  0  0  0  0  0  0
   38.0780   26.8630   33.7120 C   0  0  0  0  0  0  0  0  0  0  0  0
   39.1740   27.1200   34.5270 C   0  0  0  0  0  0  0  0  0  0  0  0
   40.0430   26.1870   35.0060 C   0  0  0  0  0  0  0  0  0  0  0  0
   39.8390   24.8550   34.6630 C   0  0  0  0  0  0  0  0  0  0  0  0
   40.9210   23.6180   35.2480 Cl  0  0  0  0  0  0  0  0  0  0  0  0
   38.7670   24.5460   33.8560 C   0  0  0  0  0  0  0  0  0  0  0  0
   39.3590   28.1590   34.8130 H   0  0  0  0  0  0  0  0  0  0  0  0
   40.8800   26.4510   35.6390 H   0  0  0  0  0  0  0  0  0  0  0  0
   38.6310   23.5010   33.6040 H   0  0  0  0  0  0  0  0  0  0  0  0
   32.4090   29.8790   35.6470 C   0  0  0  0  0  0  0  0  0  0  0  0
   32.7490   30.9590   36.4710 C   0  0  0  0  0  0  0  0  0  0  0  0
   34.0180   31.4950   36.3160 C   0  0  0  0  0  0  0  0  0  0  0  0
   34.8280   30.9430   35.3880 N   0  0  0  0  0  0  0  0  0  0  0  0
   34.4900   29.9100   34.6070 C   0  0  0  0  0  0  0  0  0  0  0  0
   33.2620   29.3830   34.7500 N   0  0  0  0  0  0  0  0  0  0  0  0
   32.0390   31.3280   37.1770 H   0  0  0  0  0  0  0  0  0  0  0  0
   31.1140   29.2390   35.7210 N   0  0  0  0  0  0  0  0  0  0  0  0
   31.2190   28.2870   36.1100 H   0  0  0  0  0  0  0  0  0  0  0  0
   30.2360   29.7210   35.4110 H   0  0  0  0  0  0  0  0  0  0  0  0
   34.4460   32.6160   37.1330 C   0  0  0  0  0  3  0  0  0  0  0  0
   33.5960   33.5500   37.5210 C   0  0  0  0  0  3  0  0  0  0  0  0
   34.0540   34.7060   38.3690 C   0  0  0  0  0  2  0  0  0  0  0  0
   34.1440   34.4370   39.4370 H   0  0  0  0  0  0  0  0  0  0  0  0
  1  6  1  0  0  0  0
  1 25  1  0  0  0  0
  2  1  2  0  0  0  0
  3  4  2  0  0  0  0
  3  2  1  0  0  0  0
  4  5  1  0  0  0  0
  5 12  1  0  0  0  0
  5  6  2  0  0  0  0
  7  2  1  0  0  0  0
  8  3  1  0  0  0  0
  9  4  1  0  0  0  0
 10 11  1  0  0  0  0
 11 12  2  0  0  0  0
 11 17  1  0  0  0  0
 12 13  1  0  0  0  0
 13 18  1  0  0  0  0
 13 14  2  0  0  0  0
 14 19  1  0  0  0  0
 15 14  1  0  0  0  0
 15 16  1  0  0  0  0
 17 15  2  0  0  0  0
 20 17  1  0  0  0  0
 21 28  1  0  0  0  0
 21 22  1  0  0  0  0
 22 27  1  0  0  0  0
 23 22  2  0  0  0  0
 23 31  1  0  0  0  0
 24 23  1  0  0  0  0
 25 26  1  0  0  0  0
 25 24  2  0  0  0  0
 26 21  2  0  0  0  0
 28 29  1  0  0  0  0
 30 28  1  0  0  0  0
 31 32  2  0  0  0  0
 32 33  1  0  0  0  0
 33 34  1  0  0  0  0
M  END
>  <minimizedAffinity>
-5.77393198

$$$$
