
 OpenBabel03272502133D

 34 36  0  0  1  0  0  0  0  0999 V2000
   38.9350   22.8380   34.4150 C   0  0  0  0  0  0  0  0  0  0  0  0
   39.7830   21.9490   33.8120 C   0  0  0  0  0  0  0  0  0  0  0  0
   39.8430   21.7580   32.4270 C   0  0  0  0  0  0  0  0  0  0  0  0
   38.9990   22.5120   31.6510 N   0  0  0  0  0  0  0  0  0  0  0  0
   38.1740   23.3780   32.2440 C   0  0  0  0  0  0  0  0  0  0  0  0
   38.1400   23.5370   33.5660 N   0  0  0  0  0  0  0  0  0  0  0  0
   40.4360   21.3710   34.4670 H   0  0  0  0  0  0  0  0  0  0  0  0
   40.5170   21.0550   31.9740 H   0  0  0  0  0  0  0  0  0  0  0  0
   37.2550   24.1570   31.4090 C   0  0  2  0  0  0  0  0  0  0  0  0
   37.1490   25.6140   31.7860 C   0  0  0  0  0  0  0  0  0  0  0  0
   35.7770   26.0100   31.2700 C   0  0  0  0  0  0  0  0  0  0  0  0
   35.0810   24.7530   30.8630 C   0  0  0  0  0  0  0  0  0  0  0  0
   35.8390   23.6840   31.6750 C   0  0  1  0  0  0  0  0  0  0  0  0
   37.5540   24.0930   30.3540 H   0  0  0  0  0  0  0  0  0  0  0  0
   37.1830   25.7110   32.8840 H   0  0  0  0  0  0  0  0  0  0  0  0
   37.9420   26.2260   31.2970 H   0  0  0  0  0  0  0  0  0  0  0  0
   35.2020   26.5250   32.0740 H   0  0  0  0  0  0  0  0  0  0  0  0
   35.8960   26.7400   30.4380 H   0  0  0  0  0  0  0  0  0  0  0  0
   34.0080   24.7350   31.0630 H   0  0  0  0  0  0  0  0  0  0  0  0
   35.3110   24.4780   29.8000 H   0  0  0  0  0  0  0  0  0  0  0  0
   35.6250   23.8020   32.7530 H   0  0  0  0  0  0  0  0  0  0  0  0
   35.5500   22.3370   31.1850 C   0  0  0  0  0  3  0  0  0  0  0  0
   35.4220   21.1730   31.8020 C   0  0  0  0  0  3  0  0  0  0  0  0
   35.5570   20.9630   33.2660 C   0  0  0  0  0  2  0  0  0  0  0  0
   35.5740   21.9150   33.8240 H   0  0  0  0  0  0  0  0  0  0  0  0
   37.7830   23.5750   36.5150 C   0  0  0  0  0  0  0  0  0  0  0  0
   38.8740   23.0170   35.8460 C   0  0  0  0  0  0  0  0  0  0  0  0
   39.9520   22.6240   36.6170 C   0  0  0  0  0  0  0  0  0  0  0  0
   39.8960   22.7970   37.9620 N   0  0  0  0  0  0  0  0  0  0  0  0
   38.8200   23.3410   38.5730 C   0  0  0  0  0  0  0  0  0  0  0  0
   37.7680   23.7280   37.8430 N   0  0  0  0  0  0  0  0  0  0  0  0
   36.9290   23.8870   35.9020 H   0  0  0  0  0  0  0  0  0  0  0  0
   40.8360   22.1830   36.1730 H   0  0  0  0  0  0  0  0  0  0  0  0
   38.9020   23.4240   39.6510 H   0  0  0  0  0  0  0  0  0  0  0  0
  1 27  1  0  0  0  0
  2  1  1  0  0  0  0
  2  7  1  0  0  0  0
  3  2  2  0  0  0  0
  4  5  2  0  0  0  0
  4  3  1  0  0  0  0
  5  6  1  0  0  0  0
  6  1  2  0  0  0  0
  8  3  1  0  0  0  0
  9 14  1  6  0  0  0
  9 13  1  0  0  0  0
  9 10  1  0  0  0  0
  9  5  1  0  0  0  0
 10 15  1  0  0  0  0
 11 10  1  0  0  0  0
 11 17  1  0  0  0  0
 12 19  1  0  0  0  0
 12 11  1  0  0  0  0
 12 13  1  0  0  0  0
 13 21  1  1  0  0  0
 16 10  1  0  0  0  0
 18 11  1  0  0  0  0
 20 12  1  0  0  0  0
 22 13  1  0  0  0  0
 22 23  2  0  0  0  0
 23 24  1  0  0  0  0
 24 25  1  0  0  0  0
 26 31  1  0  0  0  0
 27 26  2  0  0  0  0
 27 28  1  0  0  0  0
 28 29  2  0  0  0  0
 29 30  1  0  0  0  0
 30 34  1  0  0  0  0
 31 30  2  0  0  0  0
 32 26  1  0  0  0  0
 33 28  1  0  0  0  0
M  END
>  <minimizedAffinity>
-5.21109295

$$$$

 OpenBabel03272502133D

 34 36  0  0  1  0  0  0  0  0999 V2000
   36.6560   27.9450   33.6960 C   0  0  0  0  0  0  0  0  0  0  0  0
   36.5230   28.0680   32.3410 C   0  0  0  0  0  0  0  0  0  0  0  0
   35.8880   29.1520   31.7230 C   0  0  0  0  0  0  0  0  0  0  0  0
   35.3800   30.1320   32.5390 N   0  0  0  0  0  0  0  0  0  0  0  0
   35.5130   30.0070   33.8610 C   0  0  0  0  0  0  0  0  0  0  0  0
   36.1230   28.9630   34.4200 N   0  0  0  0  0  0  0  0  0  0  0  0
   36.9410   27.2670   31.7310 H   0  0  0  0  0  0  0  0  0  0  0  0
   35.7950   29.2300   30.6560 H   0  0  0  0  0  0  0  0  0  0  0  0
   34.9410   31.0430   34.7250 C   0  0  2  0  0  0  0  0  0  0  0  0
   35.8840   31.5730   35.7770 C   0  0  0  0  0  0  0  0  0  0  0  0
   34.9500   32.0850   36.8590 C   0  0  0  0  0  0  0  0  0  0  0  0
   33.5760   31.6160   36.5110 C   0  0  0  0  0  0  0  0  0  0  0  0
   33.8660   30.4140   35.5900 C   0  0  1  0  0  0  0  0  0  0  0  0
   34.5860   31.8890   34.1200 H   0  0  0  0  0  0  0  0  0  0  0  0
   36.4990   30.7450   36.1680 H   0  0  0  0  0  0  0  0  0  0  0  0
   36.5170   32.4020   35.3840 H   0  0  0  0  0  0  0  0  0  0  0  0
   35.2570   31.6760   37.8500 H   0  0  0  0  0  0  0  0  0  0  0  0
   35.0370   33.1930   36.9240 H   0  0  0  0  0  0  0  0  0  0  0  0
   32.9540   31.3380   37.3640 H   0  0  0  0  0  0  0  0  0  0  0  0
   33.0510   32.3390   35.8310 H   0  0  0  0  0  0  0  0  0  0  0  0
   34.3180   29.5900   36.1700 H   0  0  0  0  0  0  0  0  0  0  0  0
   32.6680   30.0000   34.8590 C   0  0  0  0  0  3  0  0  0  0  0  0
   31.7380   29.0940   35.1140 C   0  0  0  0  0  3  0  0  0  0  0  0
   31.7050   28.2180   36.3120 C   0  0  0  0  0  2  0  0  0  0  0  0
   32.4280   28.5370   37.0830 H   0  0  0  0  0  0  0  0  0  0  0  0
   37.8010   26.8290   35.6270 C   0  0  0  0  0  0  0  0  0  0  0  0
   37.3020   26.8170   34.3220 C   0  0  0  0  0  0  0  0  0  0  0  0
   37.4500   25.6450   33.6040 C   0  0  0  0  0  0  0  0  0  0  0  0
   38.0610   24.5860   34.1910 N   0  0  0  0  0  0  0  0  0  0  0  0
   38.5310   24.6370   35.4580 C   0  0  0  0  0  0  0  0  0  0  0  0
   38.3980   25.7630   36.1680 N   0  0  0  0  0  0  0  0  0  0  0  0
   37.6840   27.7590   36.1960 H   0  0  0  0  0  0  0  0  0  0  0  0
   37.0900   25.5560   32.5860 H   0  0  0  0  0  0  0  0  0  0  0  0
   38.9990   23.7240   35.8070 H   0  0  0  0  0  0  0  0  0  0  0  0
  1 27  1  0  0  0  0
  1  6  1  0  0  0  0
  2  1  2  0  0  0  0
  3  2  1  0  0  0  0
  3  4  2  0  0  0  0
  4  5  1  0  0  0  0
  5  6  2  0  0  0  0
  5  9  1  0  0  0  0
  7  2  1  0  0  0  0
  8  3  1  0  0  0  0
  9 14  1  6  0  0  0
  9 13  1  0  0  0  0
  9 10  1  0  0  0  0
 10 15  1  0  0  0  0
 10 11  1  0  0  0  0
 11 18  1  0  0  0  0
 11 17  1  0  0  0  0
 12 11  1  0  0  0  0
 12 19  1  0  0  0  0
 13 21  1  1  0  0  0
 13 12  1  0  0  0  0
 16 10  1  0  0  0  0
 20 12  1  0  0  0  0
 22 23  2  0  0  0  0
 22 13  1  0  0  0  0
 23 24  1  0  0  0  0
 24 25  1  0  0  0  0
 26 31  1  0  0  0  0
 26 32  1  0  0  0  0
 27 26  2  0  0  0  0
 28 29  2  0  0  0  0
 28 27  1  0  0  0  0
 29 30  1  0  0  0  0
 30 34  1  0  0  0  0
 30 31  2  0  0  0  0
 33 28  1  0  0  0  0
M  END
>  <minimizedAffinity>
-5.20316076

$$$$

 OpenBabel03272502133D

 34 36  0  0  1  0  0  0  0  0999 V2000
   36.3700   23.4020   31.8310 C   0  0  0  0  0  0  0  0  0  0  0  0
   35.6730   24.3540   31.1390 C   0  0  0  0  0  0  0  0  0  0  0  0
   35.7880   25.7270   31.3850 C   0  0  0  0  0  0  0  0  0  0  0  0
   36.6510   26.1170   32.3800 N   0  0  0  0  0  0  0  0  0  0  0  0
   37.3280   25.1840   33.0520 C   0  0  0  0  0  0  0  0  0  0  0  0
   37.1970   23.8840   32.7930 N   0  0  0  0  0  0  0  0  0  0  0  0
   35.0000   23.9990   30.3580 H   0  0  0  0  0  0  0  0  0  0  0  0
   35.2320   26.4580   30.8290 H   0  0  0  0  0  0  0  0  0  0  0  0
   38.2240   25.6090   34.1320 C   0  0  2  0  0  0  0  0  0  0  0  0
   37.5340   26.2910   35.2870 C   0  0  0  0  0  0  0  0  0  0  0  0
   38.6290   27.1510   35.8920 C   0  0  0  0  0  0  0  0  0  0  0  0
   39.7830   27.1210   34.9440 C   0  0  0  0  0  0  0  0  0  0  0  0
   39.1050   26.7310   33.6170 C   0  0  1  0  0  0  0  0  0  0  0  0
   38.7840   24.7480   34.5220 H   0  0  0  0  0  0  0  0  0  0  0  0
   36.7210   26.9300   34.9020 H   0  0  0  0  0  0  0  0  0  0  0  0
   37.1560   25.5560   36.0350 H   0  0  0  0  0  0  0  0  0  0  0  0
   38.2640   28.1960   36.0210 H   0  0  0  0  0  0  0  0  0  0  0  0
   38.8790   26.7660   36.9060 H   0  0  0  0  0  0  0  0  0  0  0  0
   40.3360   28.0590   34.8620 H   0  0  0  0  0  0  0  0  0  0  0  0
   40.4650   26.2530   35.1490 H   0  0  0  0  0  0  0  0  0  0  0  0
   38.4570   27.5540   33.2630 H   0  0  0  0  0  0  0  0  0  0  0  0
   40.0880   26.3160   32.6160 C   0  0  0  0  0  3  0  0  0  0  0  0
   40.2840   26.6750   31.3580 C   0  0  0  0  0  3  0  0  0  0  0  0
   39.4710   27.6730   30.6180 C   0  0  0  0  0  2  0  0  0  0  0  0
   38.8040   28.2460   31.2860 H   0  0  0  0  0  0  0  0  0  0  0  0
   37.1400   21.2430   30.8160 C   0  0  0  0  0  0  0  0  0  0  0  0
   36.2340   21.9880   31.5750 C   0  0  0  0  0  0  0  0  0  0  0  0
   35.1490   21.3130   32.1000 C   0  0  0  0  0  0  0  0  0  0  0  0
   35.0180   19.9850   31.8560 N   0  0  0  0  0  0  0  0  0  0  0  0
   35.9180   19.2980   31.1160 C   0  0  0  0  0  0  0  0  0  0  0  0
   36.9750   19.9350   30.5990 N   0  0  0  0  0  0  0  0  0  0  0  0
   38.0010   21.7790   30.3990 H   0  0  0  0  0  0  0  0  0  0  0  0
   34.4020   21.8200   32.7000 H   0  0  0  0  0  0  0  0  0  0  0  0
   35.6980   18.2430   30.9950 H   0  0  0  0  0  0  0  0  0  0  0  0
  1  6  1  0  0  0  0
  2  3  1  0  0  0  0
  2  1  2  0  0  0  0
  3  4  2  0  0  0  0
  4  5  1  0  0  0  0
  5  9  1  0  0  0  0
  6  5  2  0  0  0  0
  7  2  1  0  0  0  0
  8  3  1  0  0  0  0
  9 14  1  1  0  0  0
  9 10  1  0  0  0  0
 10 11  1  0  0  0  0
 10 16  1  0  0  0  0
 11 17  1  0  0  0  0
 11 18  1  0  0  0  0
 12 20  1  0  0  0  0
 12 11  1  0  0  0  0
 13 21  1  6  0  0  0
 13  9  1  0  0  0  0
 13 12  1  0  0  0  0
 15 10  1  0  0  0  0
 19 12  1  0  0  0  0
 22 13  1  0  0  0  0
 23 22  2  0  0  0  0
 24 25  1  0  0  0  0
 24 23  1  0  0  0  0
 26 27  1  0  0  0  0
 27  1  1  0  0  0  0
 27 28  2  0  0  0  0
 28 33  1  0  0  0  0
 29 28  1  0  0  0  0
 30 29  2  0  0  0  0
 31 26  2  0  0  0  0
 31 30  1  0  0  0  0
 32 26  1  0  0  0  0
 34 30  1  0  0  0  0
M  END
>  <minimizedAffinity>
-5.17761183

$$$$

 OpenBabel03272502133D

 34 36  0  0  1  0  0  0  0  0999 V2000
   36.5840   24.5130   31.5800 C   0  0  0  0  0  0  0  0  0  0  0  0
   35.5630   25.3300   31.1790 C   0  0  0  0  0  0  0  0  0  0  0  0
   35.5240   26.7040   31.4430 C   0  0  0  0  0  0  0  0  0  0  0  0
   36.5760   27.2400   32.1430 N   0  0  0  0  0  0  0  0  0  0  0  0
   37.5700   26.4380   32.5320 C   0  0  0  0  0  0  0  0  0  0  0  0
   37.5790   25.1340   32.2650 N   0  0  0  0  0  0  0  0  0  0  0  0
   34.7480   24.8620   30.6260 H   0  0  0  0  0  0  0  0  0  0  0  0
   34.7120   27.3280   31.1180 H   0  0  0  0  0  0  0  0  0  0  0  0
   38.6740   27.0150   33.3050 C   0  0  2  0  0  0  0  0  0  0  0  0
   39.9760   27.1260   32.5500 C   0  0  0  0  0  0  0  0  0  0  0  0
   41.0210   27.1170   33.6510 C   0  0  0  0  0  0  0  0  0  0  0  0
   40.3190   26.7600   34.9200 C   0  0  0  0  0  0  0  0  0  0  0  0
   39.0570   26.0420   34.4030 C   0  0  1  0  0  0  0  0  0  0  0  0
   38.4000   28.0130   33.6720 H   0  0  0  0  0  0  0  0  0  0  0  0
   40.1000   26.2410   31.9030 H   0  0  0  0  0  0  0  0  0  0  0  0
   40.0340   28.0720   31.9640 H   0  0  0  0  0  0  0  0  0  0  0  0
   41.8090   26.3620   33.4220 H   0  0  0  0  0  0  0  0  0  0  0  0
   41.5240   28.1100   33.6870 H   0  0  0  0  0  0  0  0  0  0  0  0
   40.8950   26.1350   35.6050 H   0  0  0  0  0  0  0  0  0  0  0  0
   39.9050   27.6680   35.4340 H   0  0  0  0  0  0  0  0  0  0  0  0
   39.3310   25.0770   33.9380 H   0  0  0  0  0  0  0  0  0  0  0  0
   38.0550   25.8960   35.4580 C   0  0  0  0  0  3  0  0  0  0  0  0
   37.8390   24.9500   36.3580 C   0  0  0  0  0  3  0  0  0  0  0  0
   38.6480   23.7140   36.5070 C   0  0  0  0  0  2  0  0  0  0  0  0
   39.5820   23.7520   35.9200 H   0  0  0  0  0  0  0  0  0  0  0  0
   35.5080   22.2510   31.4860 C   0  0  0  0  0  0  0  0  0  0  0  0
   36.6080   23.0950   31.3120 C   0  0  0  0  0  0  0  0  0  0  0  0
   37.7790   22.5180   30.8600 C   0  0  0  0  0  0  0  0  0  0  0  0
   37.8030   21.1840   30.6120 N   0  0  0  0  0  0  0  0  0  0  0  0
   36.7160   20.4000   30.7920 C   0  0  0  0  0  0  0  0  0  0  0  0
   35.5730   20.9410   31.2300 N   0  0  0  0  0  0  0  0  0  0  0  0
   34.5800   22.7100   31.8450 H   0  0  0  0  0  0  0  0  0  0  0  0
   38.6750   23.1050   30.7000 H   0  0  0  0  0  0  0  0  0  0  0  0
   36.8670   19.3520   30.5590 H   0  0  0  0  0  0  0  0  0  0  0  0
  1  6  1  0  0  0  0
  2  3  1  0  0  0  0
  2  1  2  0  0  0  0
  3  4  2  0  0  0  0
  4  5  1  0  0  0  0
  5  9  1  0  0  0  0
  6  5  2  0  0  0  0
  7  2  1  0  0  0  0
  8  3  1  0  0  0  0
  9 14  1  1  0  0  0
  9 13  1  0  0  0  0
 10  9  1  0  0  0  0
 10 11  1  0  0  0  0
 11 18  1  0  0  0  0
 11 12  1  0  0  0  0
 12 20  1  0  0  0  0
 12 19  1  0  0  0  0
 13 21  1  6  0  0  0
 13 12  1  0  0  0  0
 13 22  1  0  0  0  0
 15 10  1  0  0  0  0
 16 10  1  0  0  0  0
 17 11  1  0  0  0  0
 22 23  2  0  0  0  0
 23 24  1  0  0  0  0
 25 24  1  0  0  0  0
 26 32  1  0  0  0  0
 27 26  1  0  0  0  0
 27  1  1  0  0  0  0
 28 27  2  0  0  0  0
 29 30  2  0  0  0  0
 29 28  1  0  0  0  0
 30 31  1  0  0  0  0
 31 26  2  0  0  0  0
 33 28  1  0  0  0  0
 34 30  1  0  0  0  0
M  END
>  <minimizedAffinity>
-5.12986279

$$$$

 OpenBabel03272502133D

 34 36  0  0  1  0  0  0  0  0999 V2000
   37.0780   22.9370   31.9660 C   0  0  0  0  0  0  0  0  0  0  0  0
   37.6120   23.4950   30.8370 C   0  0  0  0  0  0  0  0  0  0  0  0
   38.1410   24.7900   30.7920 C   0  0  0  0  0  0  0  0  0  0  0  0
   38.1120   25.5210   31.9530 N   0  0  0  0  0  0  0  0  0  0  0  0
   37.5900   24.9720   33.0510 C   0  0  0  0  0  0  0  0  0  0  0  0
   37.0940   23.7360   33.0630 N   0  0  0  0  0  0  0  0  0  0  0  0
   37.6150   22.8780   29.9380 H   0  0  0  0  0  0  0  0  0  0  0  0
   38.5570   25.2090   29.8950 H   0  0  0  0  0  0  0  0  0  0  0  0
   37.5360   25.7730   34.2780 C   0  0  2  0  0  0  0  0  0  0  0  0
   37.0810   27.1970   34.0780 C   0  0  0  0  0  0  0  0  0  0  0  0
   37.6960   27.9310   35.2560 C   0  0  0  0  0  0  0  0  0  0  0  0
   38.6480   26.9850   35.9140 C   0  0  0  0  0  0  0  0  0  0  0  0
   38.9510   25.9880   34.7790 C   0  0  1  0  0  0  0  0  0  0  0  0
   36.8730   25.2970   35.0140 H   0  0  0  0  0  0  0  0  0  0  0  0
   37.4970   27.5840   33.1320 H   0  0  0  0  0  0  0  0  0  0  0  0
   35.9700   27.2830   34.1020 H   0  0  0  0  0  0  0  0  0  0  0  0
   38.2400   28.8370   34.8990 H   0  0  0  0  0  0  0  0  0  0  0  0
   36.8850   28.2840   35.9320 H   0  0  0  0  0  0  0  0  0  0  0  0
   39.5560   27.4450   36.3090 H   0  0  0  0  0  0  0  0  0  0  0  0
   38.1340   26.3500   36.6830 H   0  0  0  0  0  0  0  0  0  0  0  0
   39.5350   26.4840   33.9810 H   0  0  0  0  0  0  0  0  0  0  0  0
   39.6030   24.7810   35.2880 C   0  0  0  0  0  3  0  0  0  0  0  0
   39.2480   23.8970   36.2070 C   0  0  0  0  0  3  0  0  0  0  0  0
   37.9900   23.9430   36.9940 C   0  0  0  0  0  2  0  0  0  0  0  0
   37.2730   24.6810   36.5940 H   0  0  0  0  0  0  0  0  0  0  0  0
   36.4340   20.7710   30.8790 C   0  0  0  0  0  0  0  0  0  0  0  0
   36.5240   21.6040   31.9970 C   0  0  0  0  0  0  0  0  0  0  0  0
   36.0460   21.1050   33.1930 C   0  0  0  0  0  0  0  0  0  0  0  0
   35.5220   19.8540   33.2220 N   0  0  0  0  0  0  0  0  0  0  0  0
   35.4520   19.0770   32.1170 C   0  0  0  0  0  0  0  0  0  0  0  0
   35.9100   19.5440   30.9500 N   0  0  0  0  0  0  0  0  0  0  0  0
   36.8140   21.1680   29.9300 H   0  0  0  0  0  0  0  0  0  0  0  0
   36.0800   21.6890   34.1050 H   0  0  0  0  0  0  0  0  0  0  0  0
   35.0120   18.0990   32.2750 H   0  0  0  0  0  0  0  0  0  0  0  0
  1 27  1  0  0  0  0
  1  6  1  0  0  0  0
  2  1  2  0  0  0  0
  3  2  1  0  0  0  0
  3  4  2  0  0  0  0
  4  5  1  0  0  0  0
  5  6  2  0  0  0  0
  5  9  1  0  0  0  0
  7  2  1  0  0  0  0
  8  3  1  0  0  0  0
  9 13  1  0  0  0  0
  9 14  1  1  0  0  0
 10 16  1  0  0  0  0
 10  9  1  0  0  0  0
 10 11  1  0  0  0  0
 11 12  1  0  0  0  0
 11 18  1  0  0  0  0
 12 19  1  0  0  0  0
 12 20  1  0  0  0  0
 13 21  1  6  0  0  0
 13 22  1  0  0  0  0
 13 12  1  0  0  0  0
 15 10  1  0  0  0  0
 17 11  1  0  0  0  0
 22 23  2  0  0  0  0
 23 24  1  0  0  0  0
 25 24  1  0  0  0  0
 26 31  2  0  0  0  0
 26 27  1  0  0  0  0
 27 28  2  0  0  0  0
 28 29  1  0  0  0  0
 28 33  1  0  0  0  0
 30 34  1  0  0  0  0
 30 29  2  0  0  0  0
 31 30  1  0  0  0  0
 32 26  1  0  0  0  0
M  END
>  <minimizedAffinity>
-5.03641653

$$$$

 OpenBabel03272502133D

 34 36  0  0  1  0  0  0  0  0999 V2000
   36.5880   29.4780   31.7480 C   0  0  0  0  0  0  0  0  0  0  0  0
   36.8400   28.2430   32.2800 C   0  0  0  0  0  0  0  0  0  0  0  0
   36.4980   27.8810   33.5880 C   0  0  0  0  0  0  0  0  0  0  0  0
   35.8780   28.8310   34.3610 N   0  0  0  0  0  0  0  0  0  0  0  0
   35.6350   30.0340   33.8370 C   0  0  0  0  0  0  0  0  0  0  0  0
   35.9720   30.3480   32.5880 N   0  0  0  0  0  0  0  0  0  0  0  0
   37.3340   27.5200   31.6310 H   0  0  0  0  0  0  0  0  0  0  0  0
   36.7050   26.9060   33.9860 H   0  0  0  0  0  0  0  0  0  0  0  0
   34.9990   31.0510   34.6800 C   0  0  2  0  0  0  0  0  0  0  0  0
   35.8190   31.4780   35.8730 C   0  0  0  0  0  0  0  0  0  0  0  0
   34.7740   31.9780   36.8550 C   0  0  0  0  0  0  0  0  0  0  0  0
   33.4380   31.5950   36.3080 C   0  0  0  0  0  0  0  0  0  0  0  0
   33.7950   30.4310   35.3630 C   0  0  1  0  0  0  0  0  0  0  0  0
   34.7610   31.9440   34.0860 H   0  0  0  0  0  0  0  0  0  0  0  0
   36.3420   30.6010   36.2900 H   0  0  0  0  0  0  0  0  0  0  0  0
   36.5320   32.2940   35.6130 H   0  0  0  0  0  0  0  0  0  0  0  0
   34.9320   31.5030   37.8520 H   0  0  0  0  0  0  0  0  0  0  0  0
   34.8980   33.0750   36.9950 H   0  0  0  0  0  0  0  0  0  0  0  0
   32.7000   31.3040   37.0570 H   0  0  0  0  0  0  0  0  0  0  0  0
   33.0370   32.3780   35.6100 H   0  0  0  0  0  0  0  0  0  0  0  0
   34.1340   29.5560   35.9470 H   0  0  0  0  0  0  0  0  0  0  0  0
   32.6860   30.1150   34.4630 C   0  0  0  0  0  3  0  0  0  0  0  0
   31.6660   29.2780   34.5650 C   0  0  0  0  0  3  0  0  0  0  0  0
   31.4010   28.3940   35.7280 C   0  0  0  0  0  2  0  0  0  0  0  0
   32.0290   28.6500   36.5990 H   0  0  0  0  0  0  0  0  0  0  0  0
   36.8270   31.1320   29.8800 C   0  0  0  0  0  0  0  0  0  0  0  0
   36.9560   29.8420   30.4010 C   0  0  0  0  0  0  0  0  0  0  0  0
   37.4660   28.8720   29.5590 C   0  0  0  0  0  0  0  0  0  0  0  0
   37.8080   29.2130   28.2920 N   0  0  0  0  0  0  0  0  0  0  0  0
   37.6670   30.4740   27.8240 C   0  0  0  0  0  0  0  0  0  0  0  0
   37.1760   31.4270   28.6240 N   0  0  0  0  0  0  0  0  0  0  0  0
   36.4230   31.9010   30.5480 H   0  0  0  0  0  0  0  0  0  0  0  0
   37.5970   27.8480   29.8890 H   0  0  0  0  0  0  0  0  0  0  0  0
   37.9770   30.6150   26.7940 H   0  0  0  0  0  0  0  0  0  0  0  0
  1  2  2  0  0  0  0
  1  6  1  0  0  0  0
  2  3  1  0  0  0  0
  3  8  1  0  0  0  0
  3  4  2  0  0  0  0
  5  4  1  0  0  0  0
  5  9  1  0  0  0  0
  6  5  2  0  0  0  0
  7  2  1  0  0  0  0
  9 14  1  6  0  0  0
  9 13  1  0  0  0  0
  9 10  1  0  0  0  0
 10 15  1  0  0  0  0
 10 11  1  0  0  0  0
 11 18  1  0  0  0  0
 11 17  1  0  0  0  0
 12 11  1  0  0  0  0
 12 19  1  0  0  0  0
 13 21  1  1  0  0  0
 13 12  1  0  0  0  0
 16 10  1  0  0  0  0
 20 12  1  0  0  0  0
 22 23  2  0  0  0  0
 22 13  1  0  0  0  0
 23 24  1  0  0  0  0
 24 25  1  0  0  0  0
 26 27  1  0  0  0  0
 26 32  1  0  0  0  0
 27  1  1  0  0  0  0
 28 33  1  0  0  0  0
 28 27  2  0  0  0  0
 29 28  1  0  0  0  0
 30 29  2  0  0  0  0
 30 31  1  0  0  0  0
 31 26  2  0  0  0  0
 34 30  1  0  0  0  0
M  END
>  <minimizedAffinity>
-4.94797039

$$$$

 OpenBabel03272502133D

 34 36  0  0  1  0  0  0  0  0999 V2000
   38.2320   22.9680   34.1600 C   0  0  0  0  0  0  0  0  0  0  0  0
   37.3580   22.0180   33.7060 C   0  0  0  0  0  0  0  0  0  0  0  0
   36.5520   22.1870   32.5750 C   0  0  0  0  0  0  0  0  0  0  0  0
   36.6590   23.3780   31.8990 N   0  0  0  0  0  0  0  0  0  0  0  0
   37.5130   24.3010   32.3460 C   0  0  0  0  0  0  0  0  0  0  0  0
   38.2670   24.1100   33.4270 N   0  0  0  0  0  0  0  0  0  0  0  0
   37.3060   21.0880   34.2730 H   0  0  0  0  0  0  0  0  0  0  0  0
   35.8740   21.4280   32.2350 H   0  0  0  0  0  0  0  0  0  0  0  0
   37.5980   25.5800   31.6350 C   0  0  2  0  0  0  0  0  0  0  0  0
   38.7040   25.6560   30.6110 C   0  0  0  0  0  0  0  0  0  0  0  0
   38.9860   27.1440   30.5100 C   0  0  0  0  0  0  0  0  0  0  0  0
   38.2390   27.8090   31.6180 C   0  0  0  0  0  0  0  0  0  0  0  0
   38.0360   26.6510   32.6150 C   0  0  1  0  0  0  0  0  0  0  0  0
   36.6460   25.8010   31.1340 H   0  0  0  0  0  0  0  0  0  0  0  0
   39.5930   25.1270   30.9940 H   0  0  0  0  0  0  0  0  0  0  0  0
   38.3810   25.2510   29.6240 H   0  0  0  0  0  0  0  0  0  0  0  0
   40.0800   27.3320   30.6160 H   0  0  0  0  0  0  0  0  0  0  0  0
   38.6920   27.5040   29.4980 H   0  0  0  0  0  0  0  0  0  0  0  0
   38.7520   28.6580   32.0750 H   0  0  0  0  0  0  0  0  0  0  0  0
   37.1910   28.0710   31.3130 H   0  0  0  0  0  0  0  0  0  0  0  0
   39.0060   26.3520   33.0540 H   0  0  0  0  0  0  0  0  0  0  0  0
   37.0380   26.9880   33.6290 C   0  0  0  0  0  3  0  0  0  0  0  0
   37.1330   27.2470   34.9230 C   0  0  0  0  0  3  0  0  0  0  0  0
   38.3990   27.2540   35.7010 C   0  0  0  0  0  2  0  0  0  0  0  0
   39.2900   27.2210   35.0490 H   0  0  0  0  0  0  0  0  0  0  0  0
   40.3140   22.1930   35.3210 C   0  0  0  0  0  0  0  0  0  0  0  0
   39.0490   22.7860   35.3350 C   0  0  0  0  0  0  0  0  0  0  0  0
   38.5690   23.2140   36.5590 C   0  0  0  0  0  0  0  0  0  0  0  0
   39.3360   23.0390   37.6640 N   0  0  0  0  0  0  0  0  0  0  0  0
   40.5560   22.4600   37.6090 C   0  0  0  0  0  0  0  0  0  0  0  0
   41.0380   22.0390   36.4340 N   0  0  0  0  0  0  0  0  0  0  0  0
   40.6940   21.8540   34.3500 H   0  0  0  0  0  0  0  0  0  0  0  0
   37.5980   23.6840   36.6530 H   0  0  0  0  0  0  0  0  0  0  0  0
   41.0660   22.3800   38.5630 H   0  0  0  0  0  0  0  0  0  0  0  0
  1 27  1  0  0  0  0
  2  1  1  0  0  0  0
  2  7  1  0  0  0  0
  3  2  2  0  0  0  0
  4  5  2  0  0  0  0
  4  3  1  0  0  0  0
  5  6  1  0  0  0  0
  6  1  2  0  0  0  0
  8  3  1  0  0  0  0
  9 14  1  6  0  0  0
  9  5  1  0  0  0  0
  9 13  1  0  0  0  0
 10 15  1  0  0  0  0
 10  9  1  0  0  0  0
 11 10  1  0  0  0  0
 11 17  1  0  0  0  0
 11 12  1  0  0  0  0
 12 19  1  0  0  0  0
 12 13  1  0  0  0  0
 13 21  1  1  0  0  0
 13 22  1  0  0  0  0
 16 10  1  0  0  0  0
 18 11  1  0  0  0  0
 20 12  1  0  0  0  0
 22 23  2  0  0  0  0
 23 24  1  0  0  0  0
 25 24  1  0  0  0  0
 26 27  2  0  0  0  0
 26 31  1  0  0  0  0
 27 28  1  0  0  0  0
 28 33  1  0  0  0  0
 28 29  2  0  0  0  0
 30 29  1  0  0  0  0
 30 34  1  0  0  0  0
 31 30  2  0  0  0  0
 32 26  1  0  0  0  0
M  END
>  <minimizedAffinity>
-4.93961477

$$$$

 OpenBabel03272502133D

 34 36  0  0  1  0  0  0  0  0999 V2000
   36.4280   22.7410   32.0790 C   0  0  0  0  0  0  0  0  0  0  0  0
   35.5980   23.6860   31.5410 C   0  0  0  0  0  0  0  0  0  0  0  0
   35.8880   25.0550   31.5350 C   0  0  0  0  0  0  0  0  0  0  0  0
   37.0730   25.4500   32.1040 N   0  0  0  0  0  0  0  0  0  0  0  0
   37.8790   24.5240   32.6280 C   0  0  0  0  0  0  0  0  0  0  0  0
   37.5760   23.2270   32.6180 N   0  0  0  0  0  0  0  0  0  0  0  0
   34.6680   23.3280   31.0990 H   0  0  0  0  0  0  0  0  0  0  0  0
   35.2220   25.7800   31.1060 H   0  0  0  0  0  0  0  0  0  0  0  0
   39.1280   24.9590   33.2600 C   0  0  2  0  0  0  0  0  0  0  0  0
   40.3790   24.4030   32.6240 C   0  0  0  0  0  0  0  0  0  0  0  0
   41.3940   24.4450   33.7520 C   0  0  0  0  0  0  0  0  0  0  0  0
   40.6470   24.7720   35.0030 C   0  0  0  0  0  0  0  0  0  0  0  0
   39.2100   24.3460   34.6440 C   0  0  1  0  0  0  0  0  0  0  0  0
   39.1950   26.0550   33.2550 H   0  0  0  0  0  0  0  0  0  0  0  0
   40.1990   23.3590   32.3160 H   0  0  0  0  0  0  0  0  0  0  0  0
   40.7200   25.0290   31.7680 H   0  0  0  0  0  0  0  0  0  0  0  0
   41.8950   23.4540   33.8510 H   0  0  0  0  0  0  0  0  0  0  0  0
   42.1870   25.1860   33.5040 H   0  0  0  0  0  0  0  0  0  0  0  0
   41.0110   24.2700   35.9020 H   0  0  0  0  0  0  0  0  0  0  0  0
   40.5560   25.8800   35.1540 H   0  0  0  0  0  0  0  0  0  0  0  0
   39.1510   23.2460   34.5470 H   0  0  0  0  0  0  0  0  0  0  0  0
   38.2400   24.8800   35.6000 C   0  0  0  0  0  3  0  0  0  0  0  0
   38.0060   26.1050   36.0420 C   0  0  0  0  0  3  0  0  0  0  0  0
   38.7490   27.3210   35.6210 C   0  0  0  0  0  2  0  0  0  0  0  0
   39.3890   27.1350   34.7410 H   0  0  0  0  0  0  0  0  0  0  0  0
   35.6790   20.6400   33.2230 C   0  0  0  0  0  0  0  0  0  0  0  0
   36.1130   21.3330   32.0900 C   0  0  0  0  0  0  0  0  0  0  0  0
   36.2470   20.6070   30.9210 C   0  0  0  0  0  0  0  0  0  0  0  0
   35.9550   19.2820   30.9320 N   0  0  0  0  0  0  0  0  0  0  0  0
   35.5360   18.6470   32.0500 C   0  0  0  0  0  0  0  0  0  0  0  0
   35.4010   19.3330   33.1910 N   0  0  0  0  0  0  0  0  0  0  0  0
   35.5730   21.2170   34.1490 H   0  0  0  0  0  0  0  0  0  0  0  0
   36.5790   21.0720   30.0010 H   0  0  0  0  0  0  0  0  0  0  0  0
   35.3370   17.5890   31.9250 H   0  0  0  0  0  0  0  0  0  0  0  0
  1 27  1  0  0  0  0
  1  6  1  0  0  0  0
  2  1  2  0  0  0  0
  3  2  1  0  0  0  0
  3  4  2  0  0  0  0
  4  5  1  0  0  0  0
  5  9  1  0  0  0  0
  6  5  2  0  0  0  0
  7  2  1  0  0  0  0
  8  3  1  0  0  0  0
  9 14  1  1  0  0  0
  9 13  1  0  0  0  0
 10  9  1  0  0  0  0
 10 11  1  0  0  0  0
 11 17  1  0  0  0  0
 11 12  1  0  0  0  0
 12 20  1  0  0  0  0
 12 19  1  0  0  0  0
 13 21  1  6  0  0  0
 13 12  1  0  0  0  0
 13 22  1  0  0  0  0
 15 10  1  0  0  0  0
 16 10  1  0  0  0  0
 18 11  1  0  0  0  0
 22 23  2  0  0  0  0
 24 23  1  0  0  0  0
 25 24  1  0  0  0  0
 26 32  1  0  0  0  0
 27 26  2  0  0  0  0
 28 29  2  0  0  0  0
 28 27  1  0  0  0  0
 29 30  1  0  0  0  0
 30 31  2  0  0  0  0
 31 26  1  0  0  0  0
 33 28  1  0  0  0  0
 34 30  1  0  0  0  0
M  END
>  <minimizedAffinity>
-4.93949223

$$$$

 OpenBabel03272502133D

 34 36  0  0  1  0  0  0  0  0999 V2000
   38.2000   21.7290   33.1710 C   0  0  0  0  0  0  0  0  0  0  0  0
   39.5330   21.4220   33.1460 C   0  0  0  0  0  0  0  0  0  0  0  0
   40.5350   22.2960   33.5850 C   0  0  0  0  0  0  0  0  0  0  0  0
   40.1360   23.5200   34.0620 N   0  0  0  0  0  0  0  0  0  0  0  0
   38.8350   23.8140   34.0840 C   0  0  0  0  0  0  0  0  0  0  0  0
   37.9040   22.9610   33.6590 N   0  0  0  0  0  0  0  0  0  0  0  0
   39.8030   20.4400   32.7590 H   0  0  0  0  0  0  0  0  0  0  0  0
   41.5760   22.0350   33.5570 H   0  0  0  0  0  0  0  0  0  0  0  0
   38.4220   25.1350   34.5680 C   0  0  2  0  0  0  0  0  0  0  0  0
   39.3230   26.2680   34.1420 C   0  0  0  0  0  0  0  0  0  0  0  0
   39.0970   27.3190   35.2140 C   0  0  0  0  0  0  0  0  0  0  0  0
   38.3020   26.6720   36.3010 C   0  0  0  0  0  0  0  0  0  0  0  0
   38.5960   25.1760   36.0730 C   0  0  1  0  0  0  0  0  0  0  0  0
   37.4010   25.3610   34.2330 H   0  0  0  0  0  0  0  0  0  0  0  0
   40.3730   25.9280   34.1610 H   0  0  0  0  0  0  0  0  0  0  0  0
   39.0420   26.6650   33.1390 H   0  0  0  0  0  0  0  0  0  0  0  0
   40.0760   27.6740   35.6120 H   0  0  0  0  0  0  0  0  0  0  0  0
   38.5920   28.2010   34.7610 H   0  0  0  0  0  0  0  0  0  0  0  0
   38.5600   26.9910   37.3120 H   0  0  0  0  0  0  0  0  0  0  0  0
   37.1990   26.7480   36.1080 H   0  0  0  0  0  0  0  0  0  0  0  0
   39.6530   24.9550   36.3120 H   0  0  0  0  0  0  0  0  0  0  0  0
   37.6610   24.3290   36.8130 C   0  0  0  0  0  3  0  0  0  0  0  0
   37.8180   23.5220   37.8500 C   0  0  0  0  0  3  0  0  0  0  0  0
   39.1020   23.2800   38.5560 C   0  0  0  0  0  2  0  0  0  0  0  0
   39.8850   24.0000   38.2590 H   0  0  0  0  0  0  0  0  0  0  0  0
   37.4310   19.7020   31.9120 C   0  0  0  0  0  0  0  0  0  0  0  0
   37.1770   20.8240   32.7040 C   0  0  0  0  0  0  0  0  0  0  0  0
   35.8600   21.0670   33.0480 C   0  0  0  0  0  0  0  0  0  0  0  0
   34.8980   20.2190   32.6060 N   0  0  0  0  0  0  0  0  0  0  0  0
   35.1840   19.1420   31.8400 C   0  0  0  0  0  0  0  0  0  0  0  0
   36.4530   18.8910   31.4970 N   0  0  0  0  0  0  0  0  0  0  0  0
   38.4760   19.5110   31.6400 H   0  0  0  0  0  0  0  0  0  0  0  0
   35.5820   21.9170   33.6590 H   0  0  0  0  0  0  0  0  0  0  0  0
   34.3260   18.5460   31.5530 H   0  0  0  0  0  0  0  0  0  0  0  0
  1  6  1  0  0  0  0
  2  1  2  0  0  0  0
  2  3  1  0  0  0  0
  3  4  2  0  0  0  0
  4  5  1  0  0  0  0
  5  9  1  0  0  0  0
  6  5  2  0  0  0  0
  7  2  1  0  0  0  0
  8  3  1  0  0  0  0
  9 14  1  6  0  0  0
  9 13  1  0  0  0  0
 10 15  1  0  0  0  0
 10  9  1  0  0  0  0
 10 11  1  0  0  0  0
 11 17  1  0  0  0  0
 11 12  1  0  0  0  0
 12 19  1  0  0  0  0
 13 12  1  0  0  0  0
 13 21  1  1  0  0  0
 13 22  1  0  0  0  0
 16 10  1  0  0  0  0
 18 11  1  0  0  0  0
 20 12  1  0  0  0  0
 22 23  2  0  0  0  0
 23 24  1  0  0  0  0
 25 24  1  0  0  0  0
 26 27  1  0  0  0  0
 27 28  2  0  0  0  0
 27  1  1  0  0  0  0
 28 33  1  0  0  0  0
 29 28  1  0  0  0  0
 30 29  2  0  0  0  0
 31 30  1  0  0  0  0
 31 26  2  0  0  0  0
 32 26  1  0  0  0  0
 34 30  1  0  0  0  0
M  END
>  <minimizedAffinity>
-4.92730379

$$$$
