
     RDKit          3D

 40 42  0  0  0  0  0  0  0  0999 V2000
   35.7850   29.8091   49.0586 C   0  0  0  0  0  0  0  0  0  0  0  0
   36.6762   29.2972   50.0096 C   0  0  0  0  0  0  0  0  0  0  0  0
   37.8157   30.0541   49.9496 C   0  0  0  0  0  0  0  0  0  0  0  0
   37.6208   30.9821   49.0037 N   0  0  0  0  0  0  0  0  0  0  0  0
   36.4181   30.8097   48.5007 N   0  0  0  0  0  0  0  0  0  0  0  0
   38.4506   32.0313   48.5095 C   0  0  0  0  0  0  0  0  0  0  0  0
   38.6793   33.0755   49.3695 C   0  0  0  0  0  0  0  0  0  0  0  0
   39.4605   34.1882   49.0689 C   0  0  0  0  0  0  0  0  0  0  0  0
   40.0225   34.1918   47.8012 C   0  0  0  0  0  0  0  0  0  0  0  0
   39.8062   33.1498   46.9159 C   0  0  0  0  0  0  0  0  0  0  0  0
   39.0220   32.0587   47.2517 C   0  0  0  0  0  0  0  0  0  0  0  0
   34.4498   29.2167   48.8633 C   0  0  0  0  0  0  0  0  0  0  0  0
   34.2939   28.5543   47.5434 C   0  0  0  0  0  0  0  0  0  0  0  0
   33.9368   29.3791   46.4114 C   0  0  0  0  0  0  0  0  0  0  0  0
   32.7453   30.0302   46.3526 C   0  0  0  0  0  0  0  0  0  0  0  0
   32.4211   30.8240   45.2413 C   0  0  0  0  0  0  0  0  0  0  0  0
   33.3754   30.8870   44.2506 N   0  0  0  0  0  0  0  0  0  0  0  0
   34.5508   30.2293   44.3361 C   0  0  0  0  0  0  0  0  0  0  0  0
   34.7940   29.4899   45.4254 N   0  0  0  0  0  0  0  0  0  0  0  0
   36.6298   28.4719   50.7306 H   0  0  0  0  0  0  0  0  0  0  0  0
   38.7600   30.0581   50.4633 H   0  0  0  0  0  0  0  0  0  0  0  0
   38.2467   33.0903   50.3687 H   0  0  0  0  0  0  0  0  0  0  0  0
   39.6250   34.9978   49.7648 H   0  0  0  0  0  0  0  0  0  0  0  0
   40.6551   35.0233   47.4660 H   0  0  0  0  0  0  0  0  0  0  0  0
   40.2409   33.1412   45.9202 H   0  0  0  0  0  0  0  0  0  0  0  0
   38.8203   31.2197   46.6013 H   0  0  0  0  0  0  0  0  0  0  0  0
   34.1204   28.6043   49.6971 H   0  0  0  0  0  0  0  0  0  0  0  0
   33.7407   30.0973   48.8510 H   0  0  0  0  0  0  0  0  0  0  0  0
   33.4800   27.7995   47.6578 H   0  0  0  0  0  0  0  0  0  0  0  0
   35.2062   27.9401   47.3840 H   0  0  0  0  0  0  0  0  0  0  0  0
   32.0330   29.9448   47.1602 H   0  0  0  0  0  0  0  0  0  0  0  0
   31.4843   31.3414   45.1852 H   0  0  0  0  0  0  0  0  0  0  0  0
   35.5413   30.3172   43.2681 C   0  0  0  0  0  0  0  0  0  0  0  0
   36.8269   30.5092   43.5073 C   0  0  0  0  0  0  0  0  0  0  0  0
   37.3701   30.6513   44.8797 C   0  0  0  0  0  0  0  0  0  0  0  0
   37.1956   29.7249   45.4704 H   0  0  0  0  0  0  0  0  0  0  0  0
   35.1964   30.2196   42.2397 H   0  0  0  0  0  0  0  0  0  0  0  0
   37.5078   30.5639   42.6538 H   0  0  0  0  0  0  0  0  0  0  0  0
   36.9611   31.5160   45.4369 H   0  0  0  0  0  0  0  0  0  0  0  0
   38.4689   30.8643   44.8061 H   0  0  0  0  0  0  0  0  0  0  0  0
  1  2  1  0
  3  2  2  0
  4  3  1  0
  5  4  1  0
  5  1  2  0
  6  4  1  0
  6  7  2  0
  8  7  1  0
  9  8  2  0
 10 11  2  0
 10  9  1  0
 11  6  1  0
 12  1  1  0
 13 12  1  0
 14 13  1  0
 15 14  2  0
 16 15  1  0
 17 18  1  0
 17 16  2  0
 18 19  2  0
 19 14  1  0
  2 20  1  0
  3 21  1  0
  7 22  1  0
  8 23  1  0
  9 24  1  0
 10 25  1  0
 11 26  1  0
 12 27  1  0
 12 28  1  0
 13 29  1  0
 13 30  1  0
 15 31  1  0
 16 32  1  0
 33 34  2  3
 34 35  1  0
 35 36  1  0
 33 37  1  0
 34 38  1  0
 35 39  1  0
 35 40  1  0
 18 33  1  0
M  ISO  8  20  14  21  14  22  14  23  14  24  14  25  14  26  14  27   8
M  ISO  6  28   8  29   8  30   8  31  14  32  14  36   8
M  END
>  <DihAtoms>  (1) 
16,17,32,33

>  <DihDeg>  (1) 
-0.01020914588360981

$$$$
