
     RDKit          3D

 34 35  0  0  0  0  0  0  0  0999 V2000
   38.1108   31.8835   47.4141 C   0  0  0  0  0  0  0  0  0  0  0  0
   38.5851   32.7890   48.3235 C   0  0  0  0  0  0  0  0  0  0  0  0
   38.0849   32.8675   49.6294 C   0  0  0  0  0  0  0  0  0  0  0  0
   37.0297   31.9389   49.9891 C   0  0  0  0  0  0  0  0  0  0  0  0
   36.6079   31.0693   49.0413 C   0  0  0  0  0  0  0  0  0  0  0  0
   37.0929   31.0032   47.7901 C   0  0  0  0  0  0  0  0  0  0  0  0
   39.9940   31.2664   45.9914 C   0  0  0  0  0  0  0  0  0  0  0  0
   38.7451   31.9123   46.1129 C   0  0  0  0  0  0  0  0  0  0  0  0
   38.2812   32.4906   44.9577 C   0  0  0  0  0  0  0  0  0  0  0  0
   38.9987   32.4204   43.8207 N   0  0  0  0  0  0  0  0  0  0  0  0
   40.1594   31.8149   43.7258 C   0  0  0  0  0  0  0  0  0  0  0  0
   40.6548   31.2395   44.8102 N   0  0  0  0  0  0  0  0  0  0  0  0
   35.1588   29.9691   46.9424 C   0  0  0  0  0  0  0  0  0  0  0  0
   34.5209   30.6291   47.8561 O   0  0  0  0  0  0  0  0  0  0  0  0
   36.6013   30.1122   46.8704 N   0  0  0  0  0  0  0  0  0  0  0  0
   34.4536   29.1666   46.0882 O   0  0  0  0  0  0  0  0  0  0  0  0
   33.3657   29.5757   45.3257 C   0  0  0  0  0  0  0  0  0  0  0  0
   33.3642   30.7227   44.6793 O   0  0  0  0  0  0  0  0  0  0  0  0
   39.3865   33.5022   48.0699 H   0  0  0  0  0  0  0  0  0  0  0  0
   38.5087   33.6129   50.2997 H   0  0  0  0  0  0  0  0  0  0  0  0
   36.7569   32.1176   50.9990 H   0  0  0  0  0  0  0  0  0  0  0  0
   35.8569   30.4745   49.5357 H   0  0  0  0  0  0  0  0  0  0  0  0
   40.4390   30.7818   46.8512 H   0  0  0  0  0  0  0  0  0  0  0  0
   37.3119   32.9918   45.0528 H   0  0  0  0  0  0  0  0  0  0  0  0
   40.7173   31.7718   42.8006 H   0  0  0  0  0  0  0  0  0  0  0  0
   37.1774   29.5971   46.2025 H   0  0  0  0  0  0  0  0  0  0  0  0
   32.1572   28.7301   45.1823 C   0  0  0  0  0  0  0  0  0  0  0  0
   32.1852   27.4219   45.2444 C   0  0  0  0  0  0  0  0  0  0  0  0
   31.0037   26.5293   45.1071 C   0  0  0  0  0  0  0  0  0  0  0  0
   30.0673   27.0625   44.8905 H   0  0  0  0  0  0  0  0  0  0  0  0
   31.1975   29.1900   45.0184 H   0  0  0  0  0  0  0  0  0  0  0  0
   33.1305   26.9171   45.4081 H   0  0  0  0  0  0  0  0  0  0  0  0
   30.9179   25.9165   46.0516 H   0  0  0  0  0  0  0  0  0  0  0  0
   31.2444   25.7482   44.3282 H   0  0  0  0  0  0  0  0  0  0  0  0
  1  6  1  0
  1  2  2  0
  2  3  1  0
  3  4  2  0
  5  4  1  0
  6  5  2  0
  7  8  2  0
  8  1  1  0
  9  8  1  0
 10  9  2  0
 11 10  1  0
 11 12  2  0
 12  7  1  0
 13 14  2  0
 15 13  1  0
 15  6  1  0
 16 13  1  0
 17 16  1  0
 18 17  2  0
  2 19  1  0
  3 20  1  0
  4 21  1  0
  5 22  1  0
  7 23  1  0
  9 24  1  0
 11 25  1  0
 15 26  1  0
 27 28  2  3
 28 29  1  0
 29 30  1  0
 27 31  1  0
 28 32  1  0
 29 33  1  0
 29 34  1  0
 17 27  1  0
M  ISO  8  19  14  20  14  21  14  22  14  23  14  24  14  25  14  30   8
M  END
>  <DihAtoms>  (1) 
15,16,26,27

>  <DihDeg>  (1) 
0.9768324209779086

$$$$
