
 OpenBabel03272500583D

 30 31  0  0  0  0  0  0  0  0999 V2000
   38.1600   31.8720   47.3980 C   0  0  0  0  0  0  0  0  0  0  0  0
   38.6840   32.7450   48.3120 C   0  0  0  0  0  0  0  0  0  0  0  0
   38.2190   32.8130   49.6310 C   0  0  0  0  0  0  0  0  0  0  0  0
   37.1450   31.9100   50.0000 C   0  0  0  0  0  0  0  0  0  0  0  0
   36.6730   31.0720   49.0460 C   0  0  0  0  0  0  0  0  0  0  0  0
   37.1250   31.0150   47.7830 C   0  0  0  0  0  0  0  0  0  0  0  0
   39.5000   33.4380   48.0510 H   0  0  0  0  0  0  0  0  0  0  0  0
   38.6820   33.5320   50.3040 H   0  0  0  0  0  0  0  0  0  0  0  0
   36.9020   32.0780   51.0190 H   0  0  0  0  0  0  0  0  0  0  0  0
   35.9170   30.4900   49.5490 H   0  0  0  0  0  0  0  0  0  0  0  0
   40.0030   31.2520   45.9240 C   0  0  0  0  0  0  0  0  0  0  0  0
   38.7630   31.9060   46.0820 C   0  0  0  0  0  0  0  0  0  0  0  0
   38.2750   32.4980   44.9430 C   0  0  0  0  0  0  0  0  0  0  0  0
   38.9650   32.4320   43.7890 N   0  0  0  0  0  0  0  0  0  0  0  0
   40.1180   31.8190   43.6610 C   0  0  0  0  0  0  0  0  0  0  0  0
   40.6350   31.2300   44.7280 N   0  0  0  0  0  0  0  0  0  0  0  0
   40.4650   30.7580   46.7690 H   0  0  0  0  0  0  0  0  0  0  0  0
   37.3130   33.0060   45.0660 H   0  0  0  0  0  0  0  0  0  0  0  0
   40.6530   31.7790   42.7220 H   0  0  0  0  0  0  0  0  0  0  0  0
   35.1440   30.0290   46.9870 C   0  0  0  0  0  0  0  0  0  0  0  0
   34.5540   30.6690   47.9460 O   0  0  0  0  0  0  0  0  0  0  0  0
   36.5840   30.1580   46.8590 N   0  0  0  0  0  0  0  0  0  0  0  0
   37.1250   29.6560   46.1530 H   0  0  0  0  0  0  0  0  0  0  0  0
   34.3940   29.2610   46.1410 O   0  0  0  0  0  0  0  0  0  0  0  0
   33.1570   29.6240   45.6210 C   0  0  0  0  0  0  0  0  0  0  0  0
   33.0500   30.4080   44.5680 O   0  0  0  0  0  0  0  0  0  0  0  0
   31.8910   29.1260   46.2100 C   0  0  0  0  0  3  0  0  0  0  0  0
   30.7330   29.7090   46.0200 C   0  0  0  0  0  3  0  0  0  0  0  0
   29.4370   29.2520   46.5880 C   0  0  0  0  0  2  0  0  0  0  0  0
   29.5260   28.3780   47.2490 H   0  0  0  0  0  0  0  0  0  0  0  0
  1  6  2  0  0  0  0
  1  2  1  0  0  0  0
  2  3  2  0  0  0  0
  3  4  1  0  0  0  0
  3  8  1  0  0  0  0
  4  9  1  0  0  0  0
  5 10  1  0  0  0  0
  5  4  2  0  0  0  0
  6  5  1  0  0  0  0
  7  2  1  0  0  0  0
 11 12  1  0  0  0  0
 11 17  1  0  0  0  0
 12  1  1  0  0  0  0
 13 18  1  0  0  0  0
 13 12  2  0  0  0  0
 14 13  1  0  0  0  0
 15 14  2  0  0  0  0
 15 16  1  0  0  0  0
 16 11  2  0  0  0  0
 19 15  1  0  0  0  0
 20 21  2  0  0  0  0
 22 20  1  0  0  0  0
 22  6  1  0  0  0  0
 23 22  1  0  0  0  0
 24 20  1  0  0  0  0
 25 24  1  0  0  0  0
 25 27  1  0  0  0  0
 26 25  2  0  0  0  0
 28 27  2  0  0  0  0
 28 29  1  0  0  0  0
 29 30  1  0  0  0  0
M  END
>  <minimizedAffinity>
-5.28248739

>  <minimizedRMSD>
0.809455037

$$$$
