
 OpenBabel03272508413D

 37 39  0  0  1  0  0  0  0  0999 V2000
   33.2790   29.3710   44.8740 N   0  0  0  0  0  0  0  0  0  0  0  0
   33.8950   29.7480   46.1420 C   0  0  0  0  0  0  0  0  0  0  0  0
   35.2770   30.2120   46.0300 C   0  0  2  0  0  0  0  0  0  0  0  0
   36.0840   29.3470   45.1270 N   0  0  0  0  0  0  0  0  0  0  0  0
   35.3760   29.2890   43.8350 C   0  0  0  0  0  0  0  0  0  0  0  0
   34.1330   28.4920   44.1580 C   0  0  0  0  0  0  0  0  0  0  0  0
   33.2240   30.4350   46.6440 H   0  0  0  0  0  0  0  0  0  0  0  0
   33.9370   28.7200   46.6410 H   0  0  0  0  0  0  0  0  0  0  0  0
   35.4230   31.1810   45.5190 H   0  0  0  0  0  0  0  0  0  0  0  0
   36.1180   28.3990   45.5310 H   0  0  0  0  0  0  0  0  0  0  0  0
   35.1580   30.2910   43.4630 H   0  0  0  0  0  0  0  0  0  0  0  0
   36.0030   28.6680   43.1760 H   0  0  0  0  0  0  0  0  0  0  0  0
   34.4470   27.6130   44.7560 H   0  0  0  0  0  0  0  0  0  0  0  0
   33.6790   28.1020   43.2300 H   0  0  0  0  0  0  0  0  0  0  0  0
   37.6180   32.0290   46.2800 Cl  0  0  0  0  0  0  0  0  0  0  0  0
   36.9760   31.0580   47.6050 C   0  0  0  0  0  0  0  0  0  0  0  0
   35.9100   30.2430   47.3350 C   0  0  0  0  0  0  0  0  0  0  0  0
   35.2970   29.4170   48.2880 C   0  0  0  0  0  0  0  0  0  0  0  0
   35.8440   29.4630   49.5760 C   0  0  0  0  0  0  0  0  0  0  0  0
   36.9370   30.2930   49.8580 C   0  0  0  0  0  0  0  0  0  0  0  0
   37.4860   31.0800   48.8680 C   0  0  0  0  0  0  0  0  0  0  0  0
   34.4910   28.7270   48.3500 H   0  0  0  0  0  0  0  0  0  0  0  0
   35.5450   28.9230   50.4620 H   0  0  0  0  0  0  0  0  0  0  0  0
   37.4120   30.3790   50.8230 H   0  0  0  0  0  0  0  0  0  0  0  0
   38.6200   31.9520   49.1300 C   0  0  0  0  0  3  0  0  0  0  0  0
   38.4860   33.2380   49.3670 C   0  0  0  0  0  3  0  0  0  0  0  0
   39.6040   34.1720   49.6400 C   0  0  0  0  0  2  0  0  0  0  0  0
   39.7920   34.8960   48.8260 H   0  0  0  0  0  0  0  0  0  0  0  0
   31.9990   29.8380   44.4770 C   0  0  0  0  0  0  0  0  0  0  0  0
   31.7720   30.3930   43.2140 C   0  0  0  0  0  0  0  0  0  0  0  0
   30.4870   30.8260   42.9000 C   0  0  0  0  0  0  0  0  0  0  0  0
   29.4990   30.6830   43.8650 N   0  0  0  0  0  0  0  0  0  0  0  0
   29.7730   30.1410   45.0670 C   0  0  0  0  0  0  0  0  0  0  0  0
   30.9890   29.7240   45.3820 N   0  0  0  0  0  0  0  0  0  0  0  0
   32.5800   30.4770   42.5100 H   0  0  0  0  0  0  0  0  0  0  0  0
   30.2530   31.2610   41.9430 H   0  0  0  0  0  0  0  0  0  0  0  0
   29.0000   30.0320   45.8120 H   0  0  0  0  0  0  0  0  0  0  0  0
  1  2  1  0  0  0  0
  2  8  1  0  0  0  0
  2  7  1  0  0  0  0
  3  9  1  6  0  0  0
  3  2  1  0  0  0  0
  3 17  1  0  0  0  0
  4 10  1  0  0  0  0
  4  3  1  0  0  0  0
  5  6  1  0  0  0  0
  5  4  1  0  0  0  0
  6 13  1  0  0  0  0
  6  1  1  0  0  0  0
 11  5  1  0  0  0  0
 12  5  1  0  0  0  0
 14  6  1  0  0  0  0
 15 16  1  0  0  0  0
 16 21  1  0  0  0  0
 17 16  2  0  0  0  0
 17 18  1  0  0  0  0
 18 22  1  0  0  0  0
 18 19  2  0  0  0  0
 19 20  1  0  0  0  0
 19 23  1  0  0  0  0
 20 24  1  0  0  0  0
 21 25  1  0  0  0  0
 21 20  2  0  0  0  0
 25 26  2  0  0  0  0
 26 27  1  0  0  0  0
 28 27  1  0  0  0  0
 29  1  1  0  0  0  0
 29 34  1  0  0  0  0
 30 29  2  0  0  0  0
 31 30  1  0  0  0  0
 31 32  2  0  0  0  0
 32 33  1  0  0  0  0
 33 34  2  0  0  0  0
 33 37  1  0  0  0  0
 35 30  1  0  0  0  0
 36 31  1  0  0  0  0
M  END
>  <minimizedAffinity>
-4.79982805

>  <minimizedRMSD>
1.76500058

$$$$
