
 OpenBabel03272502133D

 34 36  0  0  1  0  0  0  0  0999 V2000
   37.0340   31.3610   49.0080 C   0  0  0  0  0  0  0  0  0  0  0  0
   37.7960   32.3750   49.5190 C   0  0  0  0  0  0  0  0  0  0  0  0
   38.6610   33.1570   48.7440 C   0  0  0  0  0  0  0  0  0  0  0  0
   38.7310   32.8740   47.4020 N   0  0  0  0  0  0  0  0  0  0  0  0
   37.9850   31.8830   46.9100 C   0  0  0  0  0  0  0  0  0  0  0  0
   37.1710   31.1570   47.6730 N   0  0  0  0  0  0  0  0  0  0  0  0
   37.7090   32.5650   50.5890 H   0  0  0  0  0  0  0  0  0  0  0  0
   39.2500   33.9490   49.1650 H   0  0  0  0  0  0  0  0  0  0  0  0
   38.0900   31.5700   45.4810 C   0  0  2  0  0  0  0  0  0  0  0  0
   36.9640   30.7230   44.9410 C   0  0  0  0  0  0  0  0  0  0  0  0
   37.5860   30.0400   43.7370 C   0  0  0  0  0  0  0  0  0  0  0  0
   39.0530   30.3150   43.7850 C   0  0  0  0  0  0  0  0  0  0  0  0
   39.2740   30.6440   45.2740 C   0  0  1  0  0  0  0  0  0  0  0  0
   38.1420   32.4950   44.8920 H   0  0  0  0  0  0  0  0  0  0  0  0
   36.6760   29.9720   45.6960 H   0  0  0  0  0  0  0  0  0  0  0  0
   36.0930   31.3450   44.6300 H   0  0  0  0  0  0  0  0  0  0  0  0
   37.3990   28.9410   43.7840 H   0  0  0  0  0  0  0  0  0  0  0  0
   37.0960   30.4130   42.8100 H   0  0  0  0  0  0  0  0  0  0  0  0
   39.6880   29.4920   43.4490 H   0  0  0  0  0  0  0  0  0  0  0  0
   39.3110   31.2770   43.2680 H   0  0  0  0  0  0  0  0  0  0  0  0
   39.1250   29.7390   45.8910 H   0  0  0  0  0  0  0  0  0  0  0  0
   40.5770   31.2710   45.4950 C   0  0  0  0  0  0  0  0  0  0  0  0
   41.0740   32.4440   45.1380 C   0  0  0  0  0  0  0  0  0  0  0  0
   40.3450   33.4790   44.3620 C   0  0  0  0  0  0  0  0  0  0  0  0
   39.2660   33.2590   44.2830 H   0  0  0  0  0  0  0  0  0  0  0  0
   36.5620   29.8740   50.9700 C   0  0  0  0  0  0  0  0  0  0  0  0
   36.1550   30.5540   49.8200 C   0  0  0  0  0  0  0  0  0  0  0  0
   34.8280   30.4310   49.4530 C   0  0  0  0  0  0  0  0  0  0  0  0
   34.0020   29.6690   50.2130 N   0  0  0  0  0  0  0  0  0  0  0  0
   34.4350   29.0250   51.3210 C   0  0  0  0  0  0  0  0  0  0  0  0
   35.7160   29.1320   51.6920 N   0  0  0  0  0  0  0  0  0  0  0  0
   37.6140   29.9710   51.2610 H   0  0  0  0  0  0  0  0  0  0  0  0
   34.4350   30.9280   48.5740 H   0  0  0  0  0  0  0  0  0  0  0  0
   33.6760   28.4500   51.8390 H   0  0  0  0  0  0  0  0  0  0  0  0
  1  2  1  0  0  0  0
  1 27  1  0  0  0  0
  2  7  1  0  0  0  0
  3  8  1  0  0  0  0
  3  2  2  0  0  0  0
  4  3  1  0  0  0  0
  5  4  2  0  0  0  0
  5  6  1  0  0  0  0
  6  1  2  0  0  0  0
  9 14  1  6  0  0  0
  9  5  1  0  0  0  0
 10  9  1  0  0  0  0
 10 15  1  0  0  0  0
 11 17  1  0  0  0  0
 11 12  1  0  0  0  0
 11 10  1  0  0  0  0
 12 13  1  0  0  0  0
 13  9  1  0  0  0  0
 13 22  1  0  0  0  0
 13 21  1  1  0  0  0
 16 10  1  0  0  0  0
 18 11  1  0  0  0  0
 19 12  1  0  0  0  0
 20 12  1  0  0  0  0
 23 22  2  0  0  0  0
 24 23  1  0  0  0  0
 25 24  1  0  0  0  0
 26 32  1  0  0  0  0
 26 31  1  0  0  0  0
 27 26  2  0  0  0  0
 28 27  1  0  0  0  0
 28 29  2  0  0  0  0
 29 30  1  0  0  0  0
 30 31  2  0  0  0  0
 30 34  1  0  0  0  0
 33 28  1  0  0  0  0
M  END
>  <minimizedAffinity>
-5.55430555

>  <minimizedRMSD>
2.09843373

$$$$
