REMARK  Name = 
REMARK  6 active torsions:
REMARK  status: ('A' for Active; 'I' for Inactive)
REMARK    1  A    between atoms: C_1  and  C_12
REMARK    2  A    between atoms: N_4  and  C_6
REMARK    3  A    between atoms: C_12  and  C_13
REMARK    4  A    between atoms: C_13  and  C_14
REMARK    5  A    between atoms: C_18  and  C_33
REMARK    6  A    between atoms: C_34  and  C_35
REMARK                            x       y       z     vdW  Elec       q    Type
REMARK                         _______ _______ _______ _____ _____    ______ ____
ROOT
ATOM      1  C   UNL     1      35.785  29.809  49.059  0.00  0.00    +0.000 A 
ATOM      2  C   UNL     1      36.676  29.297  50.010  0.00  0.00    +0.000 A 
ATOM      3  C   UNL     1      37.816  30.054  49.950  0.00  0.00    +0.000 A 
ATOM      4  N   UNL     1      37.621  30.982  49.004  0.00  0.00    +0.000 N 
ATOM      5  N   UNL     1      36.418  30.810  48.501  0.00  0.00    +0.000 NA
ATOM      6  H   UNL     1      36.630  28.472  50.731  0.00  0.00    +0.000 HD
ATOM      7  H   UNL     1      38.760  30.058  50.463  0.00  0.00    +0.000 HD
ENDROOT
BRANCH   4   8
ATOM      8  C   UNL     1      38.451  32.031  48.510  0.00  0.00    +0.000 A 
ATOM      9  C   UNL     1      38.679  33.075  49.370  0.00  0.00    +0.000 A 
ATOM     10  C   UNL     1      39.461  34.188  49.069  0.00  0.00    +0.000 A 
ATOM     11  C   UNL     1      40.023  34.192  47.801  0.00  0.00    +0.000 A 
ATOM     12  C   UNL     1      39.806  33.150  46.916  0.00  0.00    +0.000 A 
ATOM     13  C   UNL     1      39.022  32.059  47.252  0.00  0.00    +0.000 A 
ATOM     14  H   UNL     1      38.247  33.090  50.369  0.00  0.00    +0.000 HD
ATOM     15  H   UNL     1      39.625  34.998  49.765  0.00  0.00    +0.000 HD
ATOM     16  H   UNL     1      40.655  35.023  47.466  0.00  0.00    +0.000 HD
ATOM     17  H   UNL     1      40.241  33.141  45.920  0.00  0.00    +0.000 HD
ATOM     18  H   UNL     1      38.820  31.220  46.601  0.00  0.00    +0.000 HD
ENDBRANCH   4   8
BRANCH   1  19
ATOM     19  C   UNL     1      34.450  29.217  48.863  0.00  0.00    +0.000 C 
ATOM     20  H   UNL     1      34.120  28.604  49.697  0.00  0.00    +0.000 HD
ATOM     21  H   UNL     1      33.741  30.097  48.851  0.00  0.00    +0.000 HD
BRANCH  19  22
ATOM     22  C   UNL     1      34.294  28.554  47.543  0.00  0.00    +0.000 C 
ATOM     23  H   UNL     1      33.480  27.799  47.658  0.00  0.00    +0.000 HD
ATOM     24  H   UNL     1      35.206  27.940  47.384  0.00  0.00    +0.000 HD
BRANCH  22  25
ATOM     25  C   UNL     1      33.937  29.379  46.411  0.00  0.00    +0.000 A 
ATOM     26  C   UNL     1      32.745  30.030  46.353  0.00  0.00    +0.000 A 
ATOM     27  C   UNL     1      32.421  30.824  45.241  0.00  0.00    +0.000 A 
ATOM     28  N   UNL     1      33.375  30.887  44.251  0.00  0.00    +0.000 NA
ATOM     29  C   UNL     1      34.551  30.229  44.336  0.00  0.00    +0.000 A 
ATOM     30  N   UNL     1      34.794  29.490  45.425  0.00  0.00    +0.000 NA
ATOM     31  H   UNL     1      32.033  29.945  47.160  0.00  0.00    +0.000 HD
ATOM     32  H   UNL     1      31.484  31.341  45.185  0.00  0.00    +0.000 HD
BRANCH  29  33
ATOM     33  C   UNL     1      35.541  30.317  43.268  0.00  0.00    +0.000 C 
ATOM     34  C   UNL     1      36.827  30.509  43.507  0.00  0.00    +0.000 C 
BRANCH  34  35
ATOM     35  C   UNL     1      37.370  30.651  44.880  0.00  0.00    +0.000 C 
ATOM     36  H   UNL     1      37.196  29.725  45.470  0.00  0.00    +0.000 HD
ENDBRANCH  34  35
ENDBRANCH  29  33
ENDBRANCH  22  25
ENDBRANCH  19  22
ENDBRANCH   1  19
TORSDOF 6
