
 OpenBabel03272508413D

 37 39  0  0  1  0  0  0  0  0999 V2000
   37.5840   31.1340   47.6750 N   0  0  0  0  0  0  0  0  0  0  0  0
   36.4530   30.2740   47.3440 C   0  0  0  0  0  0  0  0  0  0  0  0
   35.2760   30.4680   48.1910 C   0  0  2  0  0  0  0  0  0  0  0  0
   35.6360   30.5720   49.6310 N   0  0  0  0  0  0  0  0  0  0  0  0
   36.6330   31.6520   49.7520 C   0  0  0  0  0  0  0  0  0  0  0  0
   37.8510   31.0760   49.0680 C   0  0  0  0  0  0  0  0  0  0  0  0
   36.2680   30.3660   46.2800 H   0  0  0  0  0  0  0  0  0  0  0  0
   36.8980   29.2610   47.6330 H   0  0  0  0  0  0  0  0  0  0  0  0
   34.7480   31.4320   48.0720 H   0  0  0  0  0  0  0  0  0  0  0  0
   36.0710   29.6840   49.9210 H   0  0  0  0  0  0  0  0  0  0  0  0
   36.2740   32.5700   49.2840 H   0  0  0  0  0  0  0  0  0  0  0  0
   36.8640   31.7300   50.8250 H   0  0  0  0  0  0  0  0  0  0  0  0
   37.9820   30.0390   49.4390 H   0  0  0  0  0  0  0  0  0  0  0  0
   38.7550   31.6380   49.3630 H   0  0  0  0  0  0  0  0  0  0  0  0
   32.9920   30.9950   46.3600 Cl  0  0  0  0  0  0  0  0  0  0  0  0
   33.2640   29.4590   47.1830 C   0  0  0  0  0  0  0  0  0  0  0  0
   34.3420   29.3710   48.0210 C   0  0  0  0  0  0  0  0  0  0  0  0
   34.6810   28.2150   48.7400 C   0  0  0  0  0  0  0  0  0  0  0  0
   33.8340   27.1140   48.5580 C   0  0  0  0  0  0  0  0  0  0  0  0
   32.7270   27.2000   47.7040 C   0  0  0  0  0  0  0  0  0  0  0  0
   32.4590   28.3710   47.0280 C   0  0  0  0  0  0  0  0  0  0  0  0
   35.4290   27.8840   49.4190 H   0  0  0  0  0  0  0  0  0  0  0  0
   33.8930   26.1310   49.0000 H   0  0  0  0  0  0  0  0  0  0  0  0
   32.0320   26.3970   47.5150 H   0  0  0  0  0  0  0  0  0  0  0  0
   31.3180   28.4900   46.1340 C   0  0  0  0  0  3  0  0  0  0  0  0
   30.1280   28.8700   46.5470 C   0  0  0  0  0  3  0  0  0  0  0  0
   28.9340   29.0090   45.6820 C   0  0  0  0  0  2  0  0  0  0  0  0
   28.1550   28.2460   45.8690 H   0  0  0  0  0  0  0  0  0  0  0  0
   38.2860   31.8850   46.6970 C   0  0  0  0  0  0  0  0  0  0  0  0
   39.4770   32.5550   46.9900 C   0  0  0  0  0  0  0  0  0  0  0  0
   40.1060   33.2690   45.9740 C   0  0  0  0  0  0  0  0  0  0  0  0
   39.5090   33.2780   44.7210 N   0  0  0  0  0  0  0  0  0  0  0  0
   38.3590   32.6150   44.4930 C   0  0  0  0  0  0  0  0  0  0  0  0
   37.7490   31.9310   45.4470 N   0  0  0  0  0  0  0  0  0  0  0  0
   39.8890   32.5100   47.9830 H   0  0  0  0  0  0  0  0  0  0  0  0
   41.0260   33.8030   46.1420 H   0  0  0  0  0  0  0  0  0  0  0  0
   37.9010   32.6250   43.5160 H   0  0  0  0  0  0  0  0  0  0  0  0
  1  6  1  0  0  0  0
  2  8  1  0  0  0  0
  2  1  1  0  0  0  0
  2  3  1  0  0  0  0
  3  9  1  6  0  0  0
  3  4  1  0  0  0  0
  4  5  1  0  0  0  0
  4 10  1  0  0  0  0
  5 12  1  0  0  0  0
  6 14  1  0  0  0  0
  6 13  1  0  0  0  0
  6  5  1  0  0  0  0
  7  2  1  0  0  0  0
 11  5  1  0  0  0  0
 15 16  1  0  0  0  0
 16 17  1  0  0  0  0
 17  3  1  0  0  0  0
 17 18  2  0  0  0  0
 18 22  1  0  0  0  0
 19 18  1  0  0  0  0
 19 23  1  0  0  0  0
 20 19  2  0  0  0  0
 21 16  2  0  0  0  0
 21 20  1  0  0  0  0
 24 20  1  0  0  0  0
 25 26  2  0  0  0  0
 25 21  1  0  0  0  0
 27 28  1  0  0  0  0
 27 26  1  0  0  0  0
 29 30  1  0  0  0  0
 29  1  1  0  0  0  0
 30 35  1  0  0  0  0
 31 36  1  0  0  0  0
 31 30  2  0  0  0  0
 32 31  1  0  0  0  0
 33 32  2  0  0  0  0
 33 34  1  0  0  0  0
 34 29  2  0  0  0  0
 37 33  1  0  0  0  0
M  END
>  <minimizedAffinity>
-5.48009396

>  <minimizedRMSD>
6.72547531

$$$$
