
     RDKit          3D

 32 33  0  0  0  0  0  0  0  0999 V2000
   33.7311   28.5909   48.6985 C   0  0  0  0  0  0  0  0  0  0  0  0
   32.8130   27.4621   48.3518 C   0  0  0  0  0  0  0  0  0  0  0  0
   31.3823   27.8624   48.3470 C   0  0  0  0  0  0  0  0  0  0  0  0
   30.6955   27.7403   49.5291 C   0  0  0  0  0  0  0  0  0  0  0  0
   29.3639   28.0782   49.6553 C   0  0  0  0  0  0  0  0  0  0  0  0
   28.7183   28.5406   48.5912 N   0  0  0  0  0  0  0  0  0  0  0  0
   29.3958   28.6639   47.4147 C   0  0  0  0  0  0  0  0  0  0  0  0
   30.6959   28.3358   47.2848 N   0  0  0  0  0  0  0  0  0  0  0  0
   34.6111   28.2193   49.7539 O   0  0  0  0  0  0  0  0  0  0  0  0
   37.2334   30.1767   51.2936 C   0  0  0  0  0  0  0  0  0  0  0  0
   37.9059   30.6263   50.1523 C   0  0  0  0  0  0  0  0  0  0  0  0
   37.4270   30.2357   48.8981 C   0  0  0  0  0  0  0  0  0  0  0  0
   36.3143   29.4266   48.8746 N   0  0  0  0  0  0  0  0  0  0  0  0
   35.6958   29.0155   49.9959 C   0  0  0  0  0  0  0  0  0  0  0  0
   36.1668   29.3987   51.2023 N   0  0  0  0  0  0  0  0  0  0  0  0
   34.2653   28.9979   47.8327 H   0  0  0  0  0  0  0  0  0  0  0  0
   33.1023   29.4227   49.1155 H   0  0  0  0  0  0  0  0  0  0  0  0
   33.0454   27.0715   47.3228 H   0  0  0  0  0  0  0  0  0  0  0  0
   32.9457   26.5944   49.0409 H   0  0  0  0  0  0  0  0  0  0  0  0
   31.1799   27.3669   50.4272 H   0  0  0  0  0  0  0  0  0  0  0  0
   28.8464   27.9739   50.5922 H   0  0  0  0  0  0  0  0  0  0  0  0
   28.9352   29.0343   46.5029 H   0  0  0  0  0  0  0  0  0  0  0  0
   37.6492   30.5108   52.2359 H   0  0  0  0  0  0  0  0  0  0  0  0
   38.7818   31.2630   50.1660 H   0  0  0  0  0  0  0  0  0  0  0  0
   38.0484   30.6438   47.6278 C   0  0  0  0  0  0  0  0  0  0  0  0
   38.5281   29.7615   46.7662 C   0  0  0  0  0  0  0  0  0  0  0  0
   39.1345   30.2980   45.5128 C   0  0  0  0  0  0  0  0  0  0  0  0
   39.7082   31.2071   45.7619 H   0  0  0  0  0  0  0  0  0  0  0  0
   38.0776   31.7112   47.4638 H   0  0  0  0  0  0  0  0  0  0  0  0
   38.4491   28.7200   47.0262 H   0  0  0  0  0  0  0  0  0  0  0  0
   39.7461   29.5211   45.0507 H   0  0  0  0  0  0  0  0  0  0  0  0
   38.2917   30.5503   44.8399 H   0  0  0  0  0  0  0  0  0  0  0  0
  1  9  1  0
  2  1  1  0
  3  2  1  0
  3  4  2  0
  4  5  1  0
  6  5  2  0
  7  6  1  0
  8  7  2  0
  8  3  1  0
  9 14  1  0
 11 10  2  0
 12 11  1  0
 13 12  2  0
 13 14  1  0
 14 15  2  0
 15 10  1  0
  1 16  1  0
  1 17  1  0
  2 18  1  0
  2 19  1  0
  4 20  1  0
  5 21  1  0
  7 22  1  0
 10 23  1  0
 11 24  1  0
 25 26  2  3
 26 27  1  0
 27 28  1  0
 25 29  1  0
 26 30  1  0
 27 31  1  0
 27 32  1  0
 12 25  1  0
M  ISO  8  16   8  17   8  18   8  19   8  20  14  21  14  22  14  23  14
M  ISO  2  24  14  28   8
M  END
>  <DihAtoms>  (1) 
10,11,24,25

>  <DihDeg>  (1) 
179.99912685617025

$$$$
