
 OpenBabel03272504053D

 36 38  0  0  0  0  0  0  0  0999 V2000
   37.1750   26.1720   33.1760 C   0  0  0  0  0  0  0  0  0  0  0  0
   36.9990   27.2440   34.0590 C   0  0  0  0  0  0  0  0  0  0  0  0
   37.4690   26.8470   35.2820 C   0  0  0  0  0  0  0  0  0  0  0  0
   37.9090   25.5900   35.1440 N   0  0  0  0  0  0  0  0  0  0  0  0
   37.7220   25.2240   33.8950 N   0  0  0  0  0  0  0  0  0  0  0  0
   36.5890   28.2560   33.9560 H   0  0  0  0  0  0  0  0  0  0  0  0
   37.5520   27.2990   36.2540 H   0  0  0  0  0  0  0  0  0  0  0  0
   38.4970   24.6770   36.0680 C   0  0  0  0  0  0  0  0  0  0  0  0
   37.9090   24.6100   37.3060 C   0  0  0  0  0  0  0  0  0  0  0  0
   38.3390   23.7800   38.3390 C   0  0  0  0  0  0  0  0  0  0  0  0
   39.4400   22.9890   38.0440 C   0  0  0  0  0  0  0  0  0  0  0  0
   40.0500   23.0400   36.8030 C   0  0  0  0  0  0  0  0  0  0  0  0
   39.5930   23.8790   35.8000 C   0  0  0  0  0  0  0  0  0  0  0  0
   37.0450   25.2220   37.5550 H   0  0  0  0  0  0  0  0  0  0  0  0
   37.8580   23.7460   39.3060 H   0  0  0  0  0  0  0  0  0  0  0  0
   39.8560   22.3010   38.7900 H   0  0  0  0  0  0  0  0  0  0  0  0
   40.9120   22.4250   36.5600 H   0  0  0  0  0  0  0  0  0  0  0  0
   40.0300   23.9580   34.8150 H   0  0  0  0  0  0  0  0  0  0  0  0
   36.7690   26.2680   31.7630 C   0  0  0  0  0  0  0  0  0  0  0  0
   36.4320   27.2590   31.4740 H   0  0  0  0  0  0  0  0  0  0  0  0
   37.7200   26.1020   31.1760 H   0  0  0  0  0  0  0  0  0  0  0  0
   35.8430   25.1830   31.3470 C   0  0  0  0  0  0  0  0  0  0  0  0
   35.3990   25.4980   30.3730 H   0  0  0  0  0  0  0  0  0  0  0  0
   34.9840   25.2090   32.0510 H   0  0  0  0  0  0  0  0  0  0  0  0
   36.3970   23.8640   31.1430 C   0  0  0  0  0  0  0  0  0  0  0  0
   37.6550   23.6870   30.6600 C   0  0  0  0  0  0  0  0  0  0  0  0
   38.1690   22.3940   30.4700 C   0  0  0  0  0  0  0  0  0  0  0  0
   37.3250   21.3590   30.8000 N   0  0  0  0  0  0  0  0  0  0  0  0
   36.0790   21.5650   31.2780 C   0  0  0  0  0  0  0  0  0  0  0  0
   35.6540   22.8240   31.4350 N   0  0  0  0  0  0  0  0  0  0  0  0
   38.2750   24.5370   30.4180 H   0  0  0  0  0  0  0  0  0  0  0  0
   39.1600   22.2440   30.0890 H   0  0  0  0  0  0  0  0  0  0  0  0
   35.2090   20.4440   31.6180 C   0  0  0  0  0  3  0  0  0  0  0  0
   35.0600   20.0120   32.8580 C   0  0  0  0  0  3  0  0  0  0  0  0
   35.7640   20.6310   34.0070 C   0  0  0  0  0  2  0  0  0  0  0  0
   35.4590   21.6940   34.1300 H   0  0  0  0  0  0  0  0  0  0  0  0
  1  5  2  0  0  0  0
  1  2  1  0  0  0  0
  2  3  2  0  0  0  0
  3  7  1  0  0  0  0
  4  3  1  0  0  0  0
  4  8  1  0  0  0  0
  5  4  1  0  0  0  0
  6  2  1  0  0  0  0
  8  9  1  0  0  0  0
  9 14  1  0  0  0  0
  9 10  2  0  0  0  0
 10 15  1  0  0  0  0
 11 10  1  0  0  0  0
 11 16  1  0  0  0  0
 12 11  2  0  0  0  0
 13  8  2  0  0  0  0
 13 12  1  0  0  0  0
 17 12  1  0  0  0  0
 18 13  1  0  0  0  0
 19  1  1  0  0  0  0
 20 19  1  0  0  0  0
 21 19  1  0  0  0  0
 22 19  1  0  0  0  0
 22 24  1  0  0  0  0
 23 22  1  0  0  0  0
 25 22  1  0  0  0  0
 25 30  1  0  0  0  0
 26 25  2  0  0  0  0
 27 26  1  0  0  0  0
 27 28  2  0  0  0  0
 28 29  1  0  0  0  0
 29 30  2  0  0  0  0
 29 33  1  0  0  0  0
 31 26  1  0  0  0  0
 32 27  1  0  0  0  0
 33 34  2  0  0  0  0
 34 35  1  0  0  0  0
 35 36  1  0  0  0  0
M  END
>  <minimizedAffinity>
-5.82704449

$$$$

 OpenBabel03272504053D

 36 38  0  0  0  0  0  0  0  0999 V2000
   36.3680   28.3100   33.2430 C   0  0  0  0  0  0  0  0  0  0  0  0
   35.3920   28.6070   32.2840 C   0  0  0  0  0  0  0  0  0  0  0  0
   34.4990   29.4690   32.8650 C   0  0  0  0  0  0  0  0  0  0  0  0
   34.9190   29.6810   34.1190 N   0  0  0  0  0  0  0  0  0  0  0  0
   36.0190   28.9860   34.3080 N   0  0  0  0  0  0  0  0  0  0  0  0
   35.2270   28.3020   31.2440 H   0  0  0  0  0  0  0  0  0  0  0  0
   33.6030   29.9700   32.5490 H   0  0  0  0  0  0  0  0  0  0  0  0
   34.3950   30.4780   35.1790 C   0  0  0  0  0  0  0  0  0  0  0  0
   35.2710   31.3580   35.7620 C   0  0  0  0  0  0  0  0  0  0  0  0
   34.9460   32.2170   36.8090 C   0  0  0  0  0  0  0  0  0  0  0  0
   33.6350   32.1380   37.2560 C   0  0  0  0  0  0  0  0  0  0  0  0
   32.7340   31.2570   36.6830 C   0  0  0  0  0  0  0  0  0  0  0  0
   33.0950   30.4180   35.6430 C   0  0  0  0  0  0  0  0  0  0  0  0
   36.3030   31.4350   35.4260 H   0  0  0  0  0  0  0  0  0  0  0  0
   35.6560   32.9020   37.2510 H   0  0  0  0  0  0  0  0  0  0  0  0
   33.2790   32.7720   38.0760 H   0  0  0  0  0  0  0  0  0  0  0  0
   31.7040   31.1860   37.0240 H   0  0  0  0  0  0  0  0  0  0  0  0
   32.4320   29.7120   35.1600 H   0  0  0  0  0  0  0  0  0  0  0  0
   37.4880   27.4010   32.9390 C   0  0  0  0  0  0  0  0  0  0  0  0
   37.2100   26.5670   32.3000 H   0  0  0  0  0  0  0  0  0  0  0  0
   38.2020   28.0180   32.3180 H   0  0  0  0  0  0  0  0  0  0  0  0
   38.2510   26.9920   34.1460 C   0  0  0  0  0  0  0  0  0  0  0  0
   37.8760   27.6200   34.9900 H   0  0  0  0  0  0  0  0  0  0  0  0
   39.2950   27.3410   33.9980 H   0  0  0  0  0  0  0  0  0  0  0  0
   38.1480   25.6160   34.5770 C   0  0  0  0  0  0  0  0  0  0  0  0
   38.1510   24.5900   33.6850 C   0  0  0  0  0  0  0  0  0  0  0  0
   38.0480   23.2620   34.1290 C   0  0  0  0  0  0  0  0  0  0  0  0
   37.9460   23.0910   35.4910 N   0  0  0  0  0  0  0  0  0  0  0  0
   37.9450   24.1300   36.3530 C   0  0  0  0  0  0  0  0  0  0  0  0
   38.0470   25.3700   35.8610 N   0  0  0  0  0  0  0  0  0  0  0  0
   38.2340   24.7830   32.6260 H   0  0  0  0  0  0  0  0  0  0  0  0
   38.0490   22.4450   33.4350 H   0  0  0  0  0  0  0  0  0  0  0  0
   37.8360   23.9140   37.7920 C   0  0  0  0  0  3  0  0  0  0  0  0
   38.7910   23.3340   38.4970 C   0  0  0  0  0  3  0  0  0  0  0  0
   40.0540   22.8550   37.8850 C   0  0  0  0  0  2  0  0  0  0  0  0
   40.6230   23.7010   37.4410 H   0  0  0  0  0  0  0  0  0  0  0  0
  1  5  2  0  0  0  0
  2  3  2  0  0  0  0
  2  1  1  0  0  0  0
  3  4  1  0  0  0  0
  4  5  1  0  0  0  0
  4  8  1  0  0  0  0
  6  2  1  0  0  0  0
  7  3  1  0  0  0  0
  8 13  2  0  0  0  0
  8  9  1  0  0  0  0
  9 10  2  0  0  0  0
 10 15  1  0  0  0  0
 10 11  1  0  0  0  0
 11 16  1  0  0  0  0
 12 17  1  0  0  0  0
 12 11  2  0  0  0  0
 13 12  1  0  0  0  0
 14  9  1  0  0  0  0
 18 13  1  0  0  0  0
 19  1  1  0  0  0  0
 19 22  1  0  0  0  0
 20 19  1  0  0  0  0
 21 19  1  0  0  0  0
 22 25  1  0  0  0  0
 22 23  1  0  0  0  0
 24 22  1  0  0  0  0
 25 30  1  0  0  0  0
 26 27  1  0  0  0  0
 26 25  2  0  0  0  0
 27 28  2  0  0  0  0
 28 29  1  0  0  0  0
 29 33  1  0  0  0  0
 30 29  2  0  0  0  0
 31 26  1  0  0  0  0
 32 27  1  0  0  0  0
 33 34  2  0  0  0  0
 35 34  1  0  0  0  0
 36 35  1  0  0  0  0
M  END
>  <minimizedAffinity>
-5.78574848

$$$$

 OpenBabel03272504053D

 36 38  0  0  0  0  0  0  0  0999 V2000
   36.1870   27.5240   32.3720 C   0  0  0  0  0  0  0  0  0  0  0  0
   37.0200   27.1120   33.4190 C   0  0  0  0  0  0  0  0  0  0  0  0
   36.7840   27.9440   34.4810 C   0  0  0  0  0  0  0  0  0  0  0  0
   35.8480   28.8200   34.0910 N   0  0  0  0  0  0  0  0  0  0  0  0
   35.5190   28.5450   32.8480 N   0  0  0  0  0  0  0  0  0  0  0  0
   37.7630   26.3130   33.5330 H   0  0  0  0  0  0  0  0  0  0  0  0
   37.1620   28.0340   35.4820 H   0  0  0  0  0  0  0  0  0  0  0  0
   35.2160   29.9060   34.7660 C   0  0  0  0  0  0  0  0  0  0  0  0
   36.0480   30.7600   35.4440 C   0  0  0  0  0  0  0  0  0  0  0  0
   35.6190   31.8750   36.1620 C   0  0  0  0  0  0  0  0  0  0  0  0
   34.2480   32.0890   36.1590 C   0  0  0  0  0  0  0  0  0  0  0  0
   33.3900   31.2400   35.4830 C   0  0  0  0  0  0  0  0  0  0  0  0
   33.8550   30.1410   34.7800 C   0  0  0  0  0  0  0  0  0  0  0  0
   37.1260   30.6090   35.4580 H   0  0  0  0  0  0  0  0  0  0  0  0
   36.2950   32.5330   36.6880 H   0  0  0  0  0  0  0  0  0  0  0  0
   33.8090   32.9390   36.6940 H   0  0  0  0  0  0  0  0  0  0  0  0
   32.3140   31.3970   35.4730 H   0  0  0  0  0  0  0  0  0  0  0  0
   33.2300   29.4470   34.2350 H   0  0  0  0  0  0  0  0  0  0  0  0
   36.1920   26.8330   31.0710 C   0  0  0  0  0  0  0  0  0  0  0  0
   35.9670   27.4850   30.2320 H   0  0  0  0  0  0  0  0  0  0  0  0
   37.2660   26.5180   30.9140 H   0  0  0  0  0  0  0  0  0  0  0  0
   35.3990   25.5770   31.0750 C   0  0  0  0  0  0  0  0  0  0  0  0
   34.7550   25.6030   30.1630 H   0  0  0  0  0  0  0  0  0  0  0  0
   34.6760   25.6580   31.9140 H   0  0  0  0  0  0  0  0  0  0  0  0
   36.1190   24.3240   31.0380 C   0  0  0  0  0  0  0  0  0  0  0  0
   37.4480   24.2750   30.7580 C   0  0  0  0  0  0  0  0  0  0  0  0
   38.1240   23.0440   30.7260 C   0  0  0  0  0  0  0  0  0  0  0  0
   37.3580   21.9320   30.9930 N   0  0  0  0  0  0  0  0  0  0  0  0
   36.0380   22.0120   31.2680 C   0  0  0  0  0  0  0  0  0  0  0  0
   35.4580   23.2180   31.2810 N   0  0  0  0  0  0  0  0  0  0  0  0
   38.0010   25.1800   30.5560 H   0  0  0  0  0  0  0  0  0  0  0  0
   39.1720   22.9940   30.5060 H   0  0  0  0  0  0  0  0  0  0  0  0
   35.2550   20.8130   31.5460 C   0  0  0  0  0  3  0  0  0  0  0  0
   35.1780   20.2790   32.7520 C   0  0  0  0  0  3  0  0  0  0  0  0
   35.8830   20.8530   33.9240 C   0  0  0  0  0  2  0  0  0  0  0  0
   35.5160   21.8810   34.1390 H   0  0  0  0  0  0  0  0  0  0  0  0
  1  5  2  0  0  0  0
  1  2  1  0  0  0  0
  2  6  1  0  0  0  0
  2  3  2  0  0  0  0
  3  7  1  0  0  0  0
  4  3  1  0  0  0  0
  4  8  1  0  0  0  0
  5  4  1  0  0  0  0
  8 13  2  0  0  0  0
  8  9  1  0  0  0  0
  9 14  1  0  0  0  0
  9 10  2  0  0  0  0
 10 15  1  0  0  0  0
 11 10  1  0  0  0  0
 11 16  1  0  0  0  0
 12 11  2  0  0  0  0
 13 12  1  0  0  0  0
 17 12  1  0  0  0  0
 18 13  1  0  0  0  0
 19 22  1  0  0  0  0
 19  1  1  0  0  0  0
 20 19  1  0  0  0  0
 21 19  1  0  0  0  0
 22 24  1  0  0  0  0
 23 22  1  0  0  0  0
 25 22  1  0  0  0  0
 25 30  1  0  0  0  0
 26 25  2  0  0  0  0
 27 26  1  0  0  0  0
 27 28  2  0  0  0  0
 28 29  1  0  0  0  0
 29 30  2  0  0  0  0
 29 33  1  0  0  0  0
 31 26  1  0  0  0  0
 32 27  1  0  0  0  0
 33 34  2  0  0  0  0
 34 35  1  0  0  0  0
 35 36  1  0  0  0  0
M  END
>  <minimizedAffinity>
-5.61547041

$$$$

 OpenBabel03272504053D

 36 38  0  0  0  0  0  0  0  0999 V2000
   37.6590   26.3730   33.4350 C   0  0  0  0  0  0  0  0  0  0  0  0
   37.7090   25.1790   32.7060 C   0  0  0  0  0  0  0  0  0  0  0  0
   38.0410   24.1790   33.5820 C   0  0  0  0  0  0  0  0  0  0  0  0
   38.1850   24.7460   34.7870 N   0  0  0  0  0  0  0  0  0  0  0  0
   37.9540   26.0350   34.6650 N   0  0  0  0  0  0  0  0  0  0  0  0
   37.5440   24.9210   31.6530 H   0  0  0  0  0  0  0  0  0  0  0  0
   38.1970   23.1190   33.5100 H   0  0  0  0  0  0  0  0  0  0  0  0
   38.5220   24.2050   36.0630 C   0  0  0  0  0  0  0  0  0  0  0  0
   37.7680   24.6440   37.1210 C   0  0  0  0  0  0  0  0  0  0  0  0
   37.9450   24.2320   38.4400 C   0  0  0  0  0  0  0  0  0  0  0  0
   38.9660   23.3150   38.6420 C   0  0  0  0  0  0  0  0  0  0  0  0
   39.7400   22.8590   37.5890 C   0  0  0  0  0  0  0  0  0  0  0  0
   39.5340   23.2930   36.2900 C   0  0  0  0  0  0  0  0  0  0  0  0
   36.9620   25.3630   36.9830 H   0  0  0  0  0  0  0  0  0  0  0  0
   37.3370   24.5930   39.2570 H   0  0  0  0  0  0  0  0  0  0  0  0
   39.1870   22.9280   39.6440 H   0  0  0  0  0  0  0  0  0  0  0  0
   40.5430   22.1410   37.7340 H   0  0  0  0  0  0  0  0  0  0  0  0
   40.1070   22.9700   35.4330 H   0  0  0  0  0  0  0  0  0  0  0  0
   37.3270   27.6540   32.7860 C   0  0  0  0  0  0  0  0  0  0  0  0
   38.0980   28.4100   32.8990 H   0  0  0  0  0  0  0  0  0  0  0  0
   37.3060   27.4220   31.6800 H   0  0  0  0  0  0  0  0  0  0  0  0
   35.9650   28.1420   33.1230 C   0  0  0  0  0  0  0  0  0  0  0  0
   35.6740   27.6440   34.0790 H   0  0  0  0  0  0  0  0  0  0  0  0
   35.2740   27.7020   32.3730 H   0  0  0  0  0  0  0  0  0  0  0  0
   35.7870   29.5620   33.3240 C   0  0  0  0  0  0  0  0  0  0  0  0
   35.6270   30.4140   32.2770 C   0  0  0  0  0  0  0  0  0  0  0  0
   35.4580   31.7900   32.4980 C   0  0  0  0  0  0  0  0  0  0  0  0
   35.4670   32.1910   33.8150 N   0  0  0  0  0  0  0  0  0  0  0  0
   35.6290   31.3220   34.8350 C   0  0  0  0  0  0  0  0  0  0  0  0
   35.7840   30.0230   34.5510 N   0  0  0  0  0  0  0  0  0  0  0  0
   35.6280   30.0440   31.2620 H   0  0  0  0  0  0  0  0  0  0  0  0
   35.3310   32.4700   31.6800 H   0  0  0  0  0  0  0  0  0  0  0  0
   35.6340   31.7800   36.2200 C   0  0  0  0  0  3  0  0  0  0  0  0
   34.5250   31.9250   36.9240 C   0  0  0  0  0  3  0  0  0  0  0  0
   33.1820   31.6350   36.3650 C   0  0  0  0  0  2  0  0  0  0  0  0
   33.0970   30.5620   36.0810 H   0  0  0  0  0  0  0  0  0  0  0  0
  1  5  2  0  0  0  0
  2  1  1  0  0  0  0
  2  3  2  0  0  0  0
  3  4  1  0  0  0  0
  4  8  1  0  0  0  0
  5  4  1  0  0  0  0
  6  2  1  0  0  0  0
  7  3  1  0  0  0  0
  8 13  2  0  0  0  0
  8  9  1  0  0  0  0
  9 10  2  0  0  0  0
 10 11  1  0  0  0  0
 10 15  1  0  0  0  0
 11 16  1  0  0  0  0
 12 17  1  0  0  0  0
 12 11  2  0  0  0  0
 13 12  1  0  0  0  0
 14  9  1  0  0  0  0
 18 13  1  0  0  0  0
 19 20  1  0  0  0  0
 19 22  1  0  0  0  0
 19  1  1  0  0  0  0
 21 19  1  0  0  0  0
 22 25  1  0  0  0  0
 22 23  1  0  0  0  0
 24 22  1  0  0  0  0
 25 30  1  0  0  0  0
 26 27  1  0  0  0  0
 26 25  2  0  0  0  0
 27 28  2  0  0  0  0
 28 29  1  0  0  0  0
 29 33  1  0  0  0  0
 30 29  2  0  0  0  0
 31 26  1  0  0  0  0
 32 27  1  0  0  0  0
 33 34  2  0  0  0  0
 35 34  1  0  0  0  0
 36 35  1  0  0  0  0
M  END
>  <minimizedAffinity>
-5.5519309

$$$$

 OpenBabel03272504053D

 36 38  0  0  0  0  0  0  0  0999 V2000
   37.2230   23.0160   32.5620 C   0  0  0  0  0  0  0  0  0  0  0  0
   36.7170   21.7410   32.8410 C   0  0  0  0  0  0  0  0  0  0  0  0
   37.0790   21.4310   34.1250 C   0  0  0  0  0  0  0  0  0  0  0  0
   37.7740   22.4730   34.5990 N   0  0  0  0  0  0  0  0  0  0  0  0
   37.8390   23.3870   33.6550 N   0  0  0  0  0  0  0  0  0  0  0  0
   36.1340   21.0100   32.2680 H   0  0  0  0  0  0  0  0  0  0  0  0
   36.9350   20.5910   34.7790 H   0  0  0  0  0  0  0  0  0  0  0  0
   38.3940   22.7130   35.8600 C   0  0  0  0  0  0  0  0  0  0  0  0
   37.6710   23.4600   36.7550 C   0  0  0  0  0  0  0  0  0  0  0  0
   38.1080   23.7980   38.0340 C   0  0  0  0  0  0  0  0  0  0  0  0
   39.3660   23.3240   38.3760 C   0  0  0  0  0  0  0  0  0  0  0  0
   40.1140   22.5700   37.4880 C   0  0  0  0  0  0  0  0  0  0  0  0
   39.6450   22.2530   36.2240 C   0  0  0  0  0  0  0  0  0  0  0  0
   36.6820   23.8400   36.5060 H   0  0  0  0  0  0  0  0  0  0  0  0
   37.5180   24.3880   38.7210 H   0  0  0  0  0  0  0  0  0  0  0  0
   39.8010   23.5360   39.3590 H   0  0  0  0  0  0  0  0  0  0  0  0
   41.1010   22.1920   37.7440 H   0  0  0  0  0  0  0  0  0  0  0  0
   40.1870   21.6690   35.4940 H   0  0  0  0  0  0  0  0  0  0  0  0
   37.0090   23.6550   31.2510 C   0  0  0  0  0  0  0  0  0  0  0  0
   37.9300   23.9530   30.7580 H   0  0  0  0  0  0  0  0  0  0  0  0
   36.5800   22.8400   30.5970 H   0  0  0  0  0  0  0  0  0  0  0  0
   35.9820   24.7280   31.2860 C   0  0  0  0  0  0  0  0  0  0  0  0
   35.2100   24.4080   32.0260 H   0  0  0  0  0  0  0  0  0  0  0  0
   35.4490   24.6920   30.3120 H   0  0  0  0  0  0  0  0  0  0  0  0
   36.4040   26.0540   31.6760 C   0  0  0  0  0  0  0  0  0  0  0  0
   36.6770   27.0140   30.7520 C   0  0  0  0  0  0  0  0  0  0  0  0
   37.0880   28.2940   31.1560 C   0  0  0  0  0  0  0  0  0  0  0  0
   37.1870   28.4920   32.5140 N   0  0  0  0  0  0  0  0  0  0  0  0
   36.9080   27.5190   33.4090 C   0  0  0  0  0  0  0  0  0  0  0  0
   36.5220   26.3220   32.9540 N   0  0  0  0  0  0  0  0  0  0  0  0
   36.5830   26.8030   29.6970 H   0  0  0  0  0  0  0  0  0  0  0  0
   37.3060   29.0580   30.4360 H   0  0  0  0  0  0  0  0  0  0  0  0
   37.0230   27.7610   34.8430 C   0  0  0  0  0  3  0  0  0  0  0  0
   38.1130   27.4630   35.5280 C   0  0  0  0  0  3  0  0  0  0  0  0
   39.3100   26.8570   34.8970 C   0  0  0  0  0  2  0  0  0  0  0  0
   39.7400   27.5390   34.1300 H   0  0  0  0  0  0  0  0  0  0  0  0
  1  2  1  0  0  0  0
  1  5  2  0  0  0  0
  2  3  2  0  0  0  0
  3  4  1  0  0  0  0
  3  7  1  0  0  0  0
  4  8  1  0  0  0  0
  5  4  1  0  0  0  0
  6  2  1  0  0  0  0
  8 13  2  0  0  0  0
  8  9  1  0  0  0  0
  9 10  2  0  0  0  0
 10 11  1  0  0  0  0
 10 15  1  0  0  0  0
 11 16  1  0  0  0  0
 12 17  1  0  0  0  0
 12 11  2  0  0  0  0
 13 12  1  0  0  0  0
 14  9  1  0  0  0  0
 18 13  1  0  0  0  0
 19 22  1  0  0  0  0
 19  1  1  0  0  0  0
 20 19  1  0  0  0  0
 21 19  1  0  0  0  0
 22 25  1  0  0  0  0
 22 23  1  0  0  0  0
 24 22  1  0  0  0  0
 25 30  1  0  0  0  0
 26 27  1  0  0  0  0
 26 25  2  0  0  0  0
 27 28  2  0  0  0  0
 28 29  1  0  0  0  0
 29 33  1  0  0  0  0
 30 29  2  0  0  0  0
 31 26  1  0  0  0  0
 32 27  1  0  0  0  0
 33 34  2  0  0  0  0
 35 34  1  0  0  0  0
 36 35  1  0  0  0  0
M  END
>  <minimizedAffinity>
-5.53202677

$$$$

 OpenBabel03272504053D

 36 38  0  0  0  0  0  0  0  0999 V2000
   37.5470   24.8550   33.2090 C   0  0  0  0  0  0  0  0  0  0  0  0
   36.6730   25.4370   32.2820 C   0  0  0  0  0  0  0  0  0  0  0  0
   36.0800   24.4170   31.5850 C   0  0  0  0  0  0  0  0  0  0  0  0
   36.5740   23.2710   32.0710 N   0  0  0  0  0  0  0  0  0  0  0  0
   37.4320   23.5640   33.0230 N   0  0  0  0  0  0  0  0  0  0  0  0
   36.4020   26.4700   32.0340 H   0  0  0  0  0  0  0  0  0  0  0  0
   35.3580   24.3510   30.7920 H   0  0  0  0  0  0  0  0  0  0  0  0
   36.3270   21.9070   31.7370 C   0  0  0  0  0  0  0  0  0  0  0  0
   35.2410   21.3250   32.3410 C   0  0  0  0  0  0  0  0  0  0  0  0
   34.8400   20.0060   32.1410 C   0  0  0  0  0  0  0  0  0  0  0  0
   35.6260   19.2750   31.2630 C   0  0  0  0  0  0  0  0  0  0  0  0
   36.7270   19.8400   30.6420 C   0  0  0  0  0  0  0  0  0  0  0  0
   37.0940   21.1570   30.8660 C   0  0  0  0  0  0  0  0  0  0  0  0
   34.6120   21.8830   33.0330 H   0  0  0  0  0  0  0  0  0  0  0  0
   33.9810   19.5720   32.6300 H   0  0  0  0  0  0  0  0  0  0  0  0
   35.3960   18.2270   31.0370 H   0  0  0  0  0  0  0  0  0  0  0  0
   37.3500   19.2780   29.9520 H   0  0  0  0  0  0  0  0  0  0  0  0
   37.9420   21.6480   30.4090 H   0  0  0  0  0  0  0  0  0  0  0  0
   38.3510   25.6810   34.1260 C   0  0  0  0  0  0  0  0  0  0  0  0
   39.4220   25.5410   34.0110 H   0  0  0  0  0  0  0  0  0  0  0  0
   38.1610   26.7460   33.8010 H   0  0  0  0  0  0  0  0  0  0  0  0
   37.8920   25.6010   35.5370 C   0  0  0  0  0  0  0  0  0  0  0  0
   36.7980   25.3780   35.5060 H   0  0  0  0  0  0  0  0  0  0  0  0
   37.9410   26.6320   35.9480 H   0  0  0  0  0  0  0  0  0  0  0  0
   38.4940   24.6010   36.3880 C   0  0  0  0  0  0  0  0  0  0  0  0
   38.1180   24.4500   37.6850 C   0  0  0  0  0  0  0  0  0  0  0  0
   38.7200   23.4710   38.4920 C   0  0  0  0  0  0  0  0  0  0  0  0
   39.6880   22.7050   37.8840 N   0  0  0  0  0  0  0  0  0  0  0  0
   40.0420   22.8780   36.5920 C   0  0  0  0  0  0  0  0  0  0  0  0
   39.4260   23.8300   35.8810 N   0  0  0  0  0  0  0  0  0  0  0  0
   37.3510   25.0790   38.1120 H   0  0  0  0  0  0  0  0  0  0  0  0
   38.4310   23.3440   39.5160 H   0  0  0  0  0  0  0  0  0  0  0  0
   41.0730   22.0480   35.9770 C   0  0  0  0  0  3  0  0  0  0  0  0
   42.3480   22.3940   35.9640 C   0  0  0  0  0  3  0  0  0  0  0  0
   42.8380   23.6540   36.5730 C   0  0  0  0  0  2  0  0  0  0  0  0
   42.6420   23.6650   37.6680 H   0  0  0  0  0  0  0  0  0  0  0  0
  1 19  1  0  0  0  0
  2  1  1  0  0  0  0
  3  4  1  0  0  0  0
  3  2  2  0  0  0  0
  4  5  1  0  0  0  0
  5  1  2  0  0  0  0
  6  2  1  0  0  0  0
  7  3  1  0  0  0  0
  8  4  1  0  0  0  0
  8  9  1  0  0  0  0
  9 14  1  0  0  0  0
 10  9  2  0  0  0  0
 10 15  1  0  0  0  0
 11 10  1  0  0  0  0
 12 13  1  0  0  0  0
 12 11  2  0  0  0  0
 13  8  2  0  0  0  0
 16 11  1  0  0  0  0
 17 12  1  0  0  0  0
 18 13  1  0  0  0  0
 19 22  1  0  0  0  0
 20 19  1  0  0  0  0
 21 19  1  0  0  0  0
 22 24  1  0  0  0  0
 22 25  1  0  0  0  0
 23 22  1  0  0  0  0
 25 26  1  0  0  0  0
 26 31  1  0  0  0  0
 26 27  2  0  0  0  0
 27 32  1  0  0  0  0
 28 27  1  0  0  0  0
 29 28  2  0  0  0  0
 30 25  2  0  0  0  0
 30 29  1  0  0  0  0
 33 29  1  0  0  0  0
 34 33  2  0  0  0  0
 34 35  1  0  0  0  0
 35 36  1  0  0  0  0
M  END
>  <minimizedAffinity>
-5.42064428

$$$$

 OpenBabel03272504053D

 36 38  0  0  0  0  0  0  0  0999 V2000
   36.8130   27.5960   34.4020 C   0  0  0  0  0  0  0  0  0  0  0  0
   37.0170   26.8760   33.2180 C   0  0  0  0  0  0  0  0  0  0  0  0
   37.6450   25.7070   33.5560 C   0  0  0  0  0  0  0  0  0  0  0  0
   37.8130   25.7210   34.8840 N   0  0  0  0  0  0  0  0  0  0  0  0
   37.3130   26.8450   35.3500 N   0  0  0  0  0  0  0  0  0  0  0  0
   36.7850   27.0630   32.1630 H   0  0  0  0  0  0  0  0  0  0  0  0
   38.0040   24.8480   33.0190 H   0  0  0  0  0  0  0  0  0  0  0  0
   38.4000   24.7830   35.7830 C   0  0  0  0  0  0  0  0  0  0  0  0
   37.8430   24.7160   37.0350 C   0  0  0  0  0  0  0  0  0  0  0  0
   38.2770   23.8640   38.0470 C   0  0  0  0  0  0  0  0  0  0  0  0
   39.3490   23.0480   37.7160 C   0  0  0  0  0  0  0  0  0  0  0  0
   39.9280   23.0980   36.4590 C   0  0  0  0  0  0  0  0  0  0  0  0
   39.4670   23.9600   35.4780 C   0  0  0  0  0  0  0  0  0  0  0  0
   37.0010   25.3480   37.3140 H   0  0  0  0  0  0  0  0  0  0  0  0
   37.8210   23.8310   39.0260 H   0  0  0  0  0  0  0  0  0  0  0  0
   39.7670   22.3410   38.4420 H   0  0  0  0  0  0  0  0  0  0  0  0
   40.7680   22.4640   36.1870 H   0  0  0  0  0  0  0  0  0  0  0  0
   39.8810   24.0400   34.4820 H   0  0  0  0  0  0  0  0  0  0  0  0
   36.1530   28.9140   34.3930 C   0  0  0  0  0  0  0  0  0  0  0  0
   35.7610   29.2100   35.3610 H   0  0  0  0  0  0  0  0  0  0  0  0
   36.9820   29.6520   34.1770 H   0  0  0  0  0  0  0  0  0  0  0  0
   35.1750   29.0690   33.2850 C   0  0  0  0  0  0  0  0  0  0  0  0
   35.1230   28.0840   32.7640 H   0  0  0  0  0  0  0  0  0  0  0  0
   35.6450   29.7420   32.5360 H   0  0  0  0  0  0  0  0  0  0  0  0
   33.8180   29.4300   33.6290 C   0  0  0  0  0  0  0  0  0  0  0  0
   32.9080   29.7650   32.6760 C   0  0  0  0  0  0  0  0  0  0  0  0
   31.5960   30.1130   33.0360 C   0  0  0  0  0  0  0  0  0  0  0  0
   31.3170   30.0870   34.3830 N   0  0  0  0  0  0  0  0  0  0  0  0
   32.2420   29.7490   35.3080 C   0  0  0  0  0  0  0  0  0  0  0  0
   33.4740   29.4290   34.8940 N   0  0  0  0  0  0  0  0  0  0  0  0
   33.1830   29.7680   31.6320 H   0  0  0  0  0  0  0  0  0  0  0  0
   30.8720   30.3800   32.2930 H   0  0  0  0  0  0  0  0  0  0  0  0
   31.9130   29.7320   36.7290 C   0  0  0  0  0  3  0  0  0  0  0  0
   31.4550   28.6530   37.3380 C   0  0  0  0  0  3  0  0  0  0  0  0
   31.2360   27.3690   36.6290 C   0  0  0  0  0  2  0  0  0  0  0  0
   32.1940   26.9750   36.2230 H   0  0  0  0  0  0  0  0  0  0  0  0
  1  5  2  0  0  0  0
  2  3  2  0  0  0  0
  2  1  1  0  0  0  0
  3  4  1  0  0  0  0
  4  5  1  0  0  0  0
  4  8  1  0  0  0  0
  6  2  1  0  0  0  0
  7  3  1  0  0  0  0
  8  9  1  0  0  0  0
  9 14  1  0  0  0  0
  9 10  2  0  0  0  0
 10 15  1  0  0  0  0
 11 10  1  0  0  0  0
 11 16  1  0  0  0  0
 12 11  2  0  0  0  0
 13  8  2  0  0  0  0
 13 12  1  0  0  0  0
 17 12  1  0  0  0  0
 18 13  1  0  0  0  0
 19  1  1  0  0  0  0
 19 20  1  0  0  0  0
 21 19  1  0  0  0  0
 22 25  1  0  0  0  0
 22 19  1  0  0  0  0
 23 22  1  0  0  0  0
 24 22  1  0  0  0  0
 25 30  1  0  0  0  0
 26 27  1  0  0  0  0
 26 25  2  0  0  0  0
 27 28  2  0  0  0  0
 28 29  1  0  0  0  0
 29 33  1  0  0  0  0
 30 29  2  0  0  0  0
 31 26  1  0  0  0  0
 32 27  1  0  0  0  0
 33 34  2  0  0  0  0
 35 34  1  0  0  0  0
 36 35  1  0  0  0  0
M  END
>  <minimizedAffinity>
-5.42007971

$$$$

 OpenBabel03272504053D

 36 38  0  0  0  0  0  0  0  0999 V2000
   36.5870   26.1000   32.1520 C   0  0  0  0  0  0  0  0  0  0  0  0
   35.4780   26.1830   31.3020 C   0  0  0  0  0  0  0  0  0  0  0  0
   35.1470   24.9050   30.9360 C   0  0  0  0  0  0  0  0  0  0  0  0
   36.0190   24.0870   31.5400 N   0  0  0  0  0  0  0  0  0  0  0  0
   36.8510   24.8210   32.2460 N   0  0  0  0  0  0  0  0  0  0  0  0
   34.8790   27.0140   30.9100 H   0  0  0  0  0  0  0  0  0  0  0  0
   34.3930   24.4580   30.3150 H   0  0  0  0  0  0  0  0  0  0  0  0
   36.1620   22.6680   31.5290 C   0  0  0  0  0  0  0  0  0  0  0  0
   35.1130   21.9520   32.0470 C   0  0  0  0  0  0  0  0  0  0  0  0
   35.0680   20.5620   32.1230 C   0  0  0  0  0  0  0  0  0  0  0  0
   36.1840   19.9050   31.6280 C   0  0  0  0  0  0  0  0  0  0  0  0
   37.2550   20.6060   31.1010 C   0  0  0  0  0  0  0  0  0  0  0  0
   37.2630   21.9900   31.0420 C   0  0  0  0  0  0  0  0  0  0  0  0
   34.2280   22.4500   32.4410 H   0  0  0  0  0  0  0  0  0  0  0  0
   34.2290   20.0220   32.5370 H   0  0  0  0  0  0  0  0  0  0  0  0
   36.2480   18.8110   31.6410 H   0  0  0  0  0  0  0  0  0  0  0  0
   38.1360   20.1040   30.7090 H   0  0  0  0  0  0  0  0  0  0  0  0
   38.0710   22.5870   30.6420 H   0  0  0  0  0  0  0  0  0  0  0  0
   37.2020   27.3080   32.7300 C   0  0  0  0  0  0  0  0  0  0  0  0
   38.2710   27.2130   32.8990 H   0  0  0  0  0  0  0  0  0  0  0  0
   37.1030   28.0970   31.9280 H   0  0  0  0  0  0  0  0  0  0  0  0
   36.4610   27.8320   33.9070 C   0  0  0  0  0  0  0  0  0  0  0  0
   37.1710   27.8110   34.7680 H   0  0  0  0  0  0  0  0  0  0  0  0
   35.6990   27.0690   34.1710 H   0  0  0  0  0  0  0  0  0  0  0  0
   35.9420   29.1790   33.8310 C   0  0  0  0  0  0  0  0  0  0  0  0
   35.4040   29.6710   32.6840 C   0  0  0  0  0  0  0  0  0  0  0  0
   34.9080   30.9840   32.6360 C   0  0  0  0  0  0  0  0  0  0  0  0
   35.0070   31.7050   33.8040 N   0  0  0  0  0  0  0  0  0  0  0  0
   35.5460   31.1900   34.9300 C   0  0  0  0  0  0  0  0  0  0  0  0
   36.0000   29.9310   34.9040 N   0  0  0  0  0  0  0  0  0  0  0  0
   35.3520   29.0600   31.7960 H   0  0  0  0  0  0  0  0  0  0  0  0
   34.4830   31.3820   31.7370 H   0  0  0  0  0  0  0  0  0  0  0  0
   35.6360   31.9820   36.1520 C   0  0  0  0  0  3  0  0  0  0  0  0
   34.6320   32.0860   37.0050 C   0  0  0  0  0  3  0  0  0  0  0  0
   33.3310   31.4080   36.7920 C   0  0  0  0  0  2  0  0  0  0  0  0
   33.4600   30.3030   36.7740 H   0  0  0  0  0  0  0  0  0  0  0  0
  1  5  2  0  0  0  0
  1 19  1  0  0  0  0
  2  1  1  0  0  0  0
  3  2  2  0  0  0  0
  3  4  1  0  0  0  0
  4  5  1  0  0  0  0
  6  2  1  0  0  0  0
  7  3  1  0  0  0  0
  8  4  1  0  0  0  0
  8  9  1  0  0  0  0
  9 10  2  0  0  0  0
  9 14  1  0  0  0  0
 10 15  1  0  0  0  0
 11 16  1  0  0  0  0
 11 10  1  0  0  0  0
 12 11  2  0  0  0  0
 13 12  1  0  0  0  0
 13  8  2  0  0  0  0
 17 12  1  0  0  0  0
 18 13  1  0  0  0  0
 19 20  1  0  0  0  0
 19 22  1  0  0  0  0
 21 19  1  0  0  0  0
 22 24  1  0  0  0  0
 22 23  1  0  0  0  0
 25 22  1  0  0  0  0
 25 30  1  0  0  0  0
 26 25  2  0  0  0  0
 27 26  1  0  0  0  0
 27 28  2  0  0  0  0
 28 29  1  0  0  0  0
 29 33  1  0  0  0  0
 30 29  2  0  0  0  0
 31 26  1  0  0  0  0
 32 27  1  0  0  0  0
 33 34  2  0  0  0  0
 35 34  1  0  0  0  0
 36 35  1  0  0  0  0
M  END
>  <minimizedAffinity>
-5.40344381

$$$$

 OpenBabel03272504053D

 36 38  0  0  0  0  0  0  0  0999 V2000
   38.1830   25.2920   35.8160 C   0  0  0  0  0  0  0  0  0  0  0  0
   38.4300   26.5270   36.4270 C   0  0  0  0  0  0  0  0  0  0  0  0
   38.1610   27.5010   35.5020 C   0  0  0  0  0  0  0  0  0  0  0  0
   37.7690   26.8800   34.3820 N   0  0  0  0  0  0  0  0  0  0  0  0
   37.7930   25.5830   34.6000 N   0  0  0  0  0  0  0  0  0  0  0  0
   38.7690   26.8300   37.4250 H   0  0  0  0  0  0  0  0  0  0  0  0
   38.1960   28.5750   35.4890 H   0  0  0  0  0  0  0  0  0  0  0  0
   37.3670   27.3750   33.1060 C   0  0  0  0  0  0  0  0  0  0  0  0
   36.3520   28.2980   33.1100 C   0  0  0  0  0  0  0  0  0  0  0  0
   35.8240   28.8940   31.9670 C   0  0  0  0  0  0  0  0  0  0  0  0
   36.3980   28.4920   30.7700 C   0  0  0  0  0  0  0  0  0  0  0  0
   37.4230   27.5620   30.7420 C   0  0  0  0  0  0  0  0  0  0  0  0
   37.9220   26.9910   31.9000 C   0  0  0  0  0  0  0  0  0  0  0  0
   35.8890   28.6260   34.0390 H   0  0  0  0  0  0  0  0  0  0  0  0
   35.0230   29.6180   31.9970 H   0  0  0  0  0  0  0  0  0  0  0  0
   36.0540   28.9010   29.8130 H   0  0  0  0  0  0  0  0  0  0  0  0
   37.8820   27.2390   29.8110 H   0  0  0  0  0  0  0  0  0  0  0  0
   38.7190   26.2610   31.9360 H   0  0  0  0  0  0  0  0  0  0  0  0
   38.3760   24.0250   36.5430 C   0  0  0  0  0  0  0  0  0  0  0  0
   39.0550   24.1080   37.3870 H   0  0  0  0  0  0  0  0  0  0  0  0
   37.3690   23.7970   37.0010 H   0  0  0  0  0  0  0  0  0  0  0  0
   38.6830   22.8800   35.6480 C   0  0  0  0  0  0  0  0  0  0  0  0
   39.3550   22.1970   36.2210 H   0  0  0  0  0  0  0  0  0  0  0  0
   39.3310   23.2730   34.8370 H   0  0  0  0  0  0  0  0  0  0  0  0
   37.5770   22.0760   35.1780 C   0  0  0  0  0  0  0  0  0  0  0  0
   36.6670   21.5460   36.0380 C   0  0  0  0  0  0  0  0  0  0  0  0
   35.6030   20.7670   35.5570 C   0  0  0  0  0  0  0  0  0  0  0  0
   35.5580   20.5890   34.1930 N   0  0  0  0  0  0  0  0  0  0  0  0
   36.4770   21.1280   33.3630 C   0  0  0  0  0  0  0  0  0  0  0  0
   37.4650   21.8600   33.8900 N   0  0  0  0  0  0  0  0  0  0  0  0
   36.7500   21.7180   37.1010 H   0  0  0  0  0  0  0  0  0  0  0  0
   34.8800   20.3440   36.2260 H   0  0  0  0  0  0  0  0  0  0  0  0
   36.4010   20.9200   31.9210 C   0  0  0  0  0  3  0  0  0  0  0  0
   36.0030   21.8650   31.0870 C   0  0  0  0  0  3  0  0  0  0  0  0
   35.5980   23.2150   31.5480 C   0  0  0  0  0  2  0  0  0  0  0  0
   36.4500   23.7340   32.0420 H   0  0  0  0  0  0  0  0  0  0  0  0
  1  2  1  0  0  0  0
  1 19  1  0  0  0  0
  2  6  1  0  0  0  0
  3  2  2  0  0  0  0
  4  5  1  0  0  0  0
  4  3  1  0  0  0  0
  5  1  2  0  0  0  0
  7  3  1  0  0  0  0
  8  9  1  0  0  0  0
  8  4  1  0  0  0  0
  9 14  1  0  0  0  0
 10 15  1  0  0  0  0
 10  9  2  0  0  0  0
 11 10  1  0  0  0  0
 12 11  2  0  0  0  0
 12 13  1  0  0  0  0
 13 18  1  0  0  0  0
 13  8  2  0  0  0  0
 16 11  1  0  0  0  0
 17 12  1  0  0  0  0
 19 21  1  0  0  0  0
 19 20  1  0  0  0  0
 22 23  1  0  0  0  0
 22 19  1  0  0  0  0
 24 22  1  0  0  0  0
 25 22  1  0  0  0  0
 25 26  1  0  0  0  0
 26 31  1  0  0  0  0
 27 26  2  0  0  0  0
 27 32  1  0  0  0  0
 28 27  1  0  0  0  0
 29 30  1  0  0  0  0
 29 28  2  0  0  0  0
 30 25  2  0  0  0  0
 33 29  1  0  0  0  0
 34 35  1  0  0  0  0
 34 33  2  0  0  0  0
 35 36  1  0  0  0  0
M  END
>  <minimizedAffinity>
-5.38388586

$$$$
