
 OpenBabel03272504023D

 36 38  0  0  0  0  0  0  0  0999 V2000
   35.6970   29.8760   49.3030 C   0  0  0  0  0  0  0  0  0  0  0  0
   36.6440   29.2860   50.1480 C   0  0  0  0  0  0  0  0  0  0  0  0
   37.8090   29.9940   50.0140 C   0  0  0  0  0  0  0  0  0  0  0  0
   37.5750   30.9690   49.1260 N   0  0  0  0  0  0  0  0  0  0  0  0
   36.3250   30.8710   48.7280 N   0  0  0  0  0  0  0  0  0  0  0  0
   36.6230   28.4330   50.8380 H   0  0  0  0  0  0  0  0  0  0  0  0
   38.7940   29.9340   50.4390 H   0  0  0  0  0  0  0  0  0  0  0  0
   38.4060   32.0000   48.5990 C   0  0  0  0  0  0  0  0  0  0  0  0
   38.6390   33.0690   49.4280 C   0  0  0  0  0  0  0  0  0  0  0  0
   39.4240   34.1700   49.0920 C   0  0  0  0  0  0  0  0  0  0  0  0
   39.9820   34.1350   47.8230 C   0  0  0  0  0  0  0  0  0  0  0  0
   39.7600   33.0680   46.9700 C   0  0  0  0  0  0  0  0  0  0  0  0
   38.9740   31.9900   47.3400 C   0  0  0  0  0  0  0  0  0  0  0  0
   38.2100   33.1140   50.4270 H   0  0  0  0  0  0  0  0  0  0  0  0
   39.5920   35.0000   49.7630 H   0  0  0  0  0  0  0  0  0  0  0  0
   40.6160   34.9540   47.4620 H   0  0  0  0  0  0  0  0  0  0  0  0
   40.1930   33.0280   45.9730 H   0  0  0  0  0  0  0  0  0  0  0  0
   38.7680   31.1320   46.7140 H   0  0  0  0  0  0  0  0  0  0  0  0
   34.3230   29.3520   49.2060 C   0  0  0  0  0  0  0  0  0  0  0  0
   33.9760   28.8750   50.1180 H   0  0  0  0  0  0  0  0  0  0  0  0
   33.6710   30.2680   49.0910 H   0  0  0  0  0  0  0  0  0  0  0  0
   34.0940   28.5370   47.9860 C   0  0  0  0  0  0  0  0  0  0  0  0
   33.1690   27.9390   48.1690 H   0  0  0  0  0  0  0  0  0  0  0  0
   34.9020   27.7740   47.9550 H   0  0  0  0  0  0  0  0  0  0  0  0
   33.8960   29.2340   46.7350 C   0  0  0  0  0  0  0  0  0  0  0  0
   32.8470   30.0770   46.5490 C   0  0  0  0  0  0  0  0  0  0  0  0
   32.6760   30.7410   45.3240 C   0  0  0  0  0  0  0  0  0  0  0  0
   33.6240   30.4770   44.3620 N   0  0  0  0  0  0  0  0  0  0  0  0
   34.6560   29.6340   44.5750 C   0  0  0  0  0  0  0  0  0  0  0  0
   34.7580   29.0350   45.7670 N   0  0  0  0  0  0  0  0  0  0  0  0
   32.1320   30.2480   47.3410 H   0  0  0  0  0  0  0  0  0  0  0  0
   31.8520   31.4080   45.1670 H   0  0  0  0  0  0  0  0  0  0  0  0
   35.6440   29.3760   43.5330 C   0  0  0  0  0  3  0  0  0  0  0  0
   36.7450   30.0970   43.4050 C   0  0  0  0  0  3  0  0  0  0  0  0
   37.0660   31.2280   44.3090 C   0  0  0  0  0  2  0  0  0  0  0  0
   37.1840   30.8740   45.3560 H   0  0  0  0  0  0  0  0  0  0  0  0
  1  2  1  0  0  0  0
  2  6  1  0  0  0  0
  3  2  2  0  0  0  0
  3  7  1  0  0  0  0
  4  3  1  0  0  0  0
  5  4  1  0  0  0  0
  5  1  2  0  0  0  0
  8  4  1  0  0  0  0
  8  9  1  0  0  0  0
  9 14  1  0  0  0  0
 10  9  2  0  0  0  0
 10 15  1  0  0  0  0
 11 10  1  0  0  0  0
 12 13  1  0  0  0  0
 12 11  2  0  0  0  0
 13  8  2  0  0  0  0
 16 11  1  0  0  0  0
 17 12  1  0  0  0  0
 18 13  1  0  0  0  0
 19  1  1  0  0  0  0
 19 20  1  0  0  0  0
 21 19  1  0  0  0  0
 22 23  1  0  0  0  0
 22 19  1  0  0  0  0
 24 22  1  0  0  0  0
 25 22  1  0  0  0  0
 26 25  1  0  0  0  0
 26 31  1  0  0  0  0
 27 26  2  0  0  0  0
 28 29  2  0  0  0  0
 28 27  1  0  0  0  0
 29 30  1  0  0  0  0
 30 25  2  0  0  0  0
 32 27  1  0  0  0  0
 33 29  1  0  0  0  0
 34 33  2  0  0  0  0
 34 35  1  0  0  0  0
 35 36  1  0  0  0  0
M  END
>  <minimizedAffinity>
-5.36930847

>  <minimizedRMSD>
0.414164215

$$$$
