
 OpenBabel03272509473D

 20 20  0  0  0  0  0  0  0  0999 V2000
   34.7290   28.3020   49.7780 O   0  0  0  0  0  0  0  0  0  0  0  0
   37.3320   30.2200   51.4170 C   0  0  0  0  0  0  0  0  0  0  0  0
   38.0500   30.6590   50.3060 C   0  0  0  0  0  0  0  0  0  0  0  0
   37.6140   30.2800   49.0430 C   0  0  0  0  0  0  0  0  0  0  0  0
   36.4980   29.4940   48.9740 N   0  0  0  0  0  0  0  0  0  0  0  0
   35.8320   29.0910   50.0730 C   0  0  0  0  0  0  0  0  0  0  0  0
   36.2640   29.4650   51.2950 N   0  0  0  0  0  0  0  0  0  0  0  0
   37.6910   30.5280   52.4010 H   0  0  0  0  0  0  0  0  0  0  0  0
   38.9440   31.2880   50.3720 H   0  0  0  0  0  0  0  0  0  0  0  0
   38.1300   30.5890   48.1570 H   0  0  0  0  0  0  0  0  0  0  0  0
   34.2010   28.3830   48.4780 C   0  0  0  0  0  0  0  0  0  0  0  0
   34.9400   28.8420   47.7730 H   0  0  0  0  0  0  0  0  0  0  0  0
   33.2590   28.9780   48.5190 H   0  0  0  0  0  0  0  0  0  0  0  0
   33.8780   27.0180   47.9260 C   0  0  0  0  0  0  0  0  0  0  0  0
   34.7430   26.3370   48.0550 H   0  0  0  0  0  0  0  0  0  0  0  0
   32.9740   26.6530   48.4920 H   0  0  0  0  0  0  0  0  0  0  0  0
   33.4820   27.1510   46.4970 C   0  0  0  0  0  3  0  0  0  0  0  0
   32.2720   27.4970   46.0490 C   0  0  0  0  0  3  0  0  0  0  0  0
   31.8410   27.6410   44.6260 C   0  0  0  0  0  2  0  0  0  0  0  0
   32.7010   28.0390   44.0130 H   0  0  0  0  0  0  0  0  0  0  0  0
  1  6  1  0  0  0  0
  2  8  1  0  0  0  0
  3  9  1  0  0  0  0
  3  2  2  0  0  0  0
  4  3  1  0  0  0  0
  5  4  2  0  0  0  0
  5  6  1  0  0  0  0
  6  7  2  0  0  0  0
  7  2  1  0  0  0  0
 10  4  1  0  0  0  0
 11 13  1  0  0  0  0
 11  1  1  0  0  0  0
 12 11  1  0  0  0  0
 14 15  1  0  0  0  0
 14 11  1  0  0  0  0
 14 16  1  0  0  0  0
 17 14  1  0  0  0  0
 18 17  2  0  0  0  0
 19 18  1  0  0  0  0
 20 19  1  0  0  0  0
M  END
>  <minimizedAffinity>
-3.47773528

>  <minimizedRMSD>
0.186201364

$$$$
