
 OpenBabel03262520323D

 18 18  0  0  0  0  0  0  0  0999 V2000
   37.3810   30.2810   51.4660 C   0  0  0  0  0  0  0  0  0  0  0  0
   38.1480   30.8120   50.4150 C   0  0  0  0  0  0  0  0  0  0  0  0
   37.7880   30.4920   49.0800 C   0  0  0  0  0  0  0  0  0  0  0  0
   36.7030   29.6750   48.9110 N   0  0  0  0  0  0  0  0  0  0  0  0
   36.0030   29.1920   49.9620 C   0  0  0  0  0  0  0  0  0  0  0  0
   36.3380   29.4910   51.2120 N   0  0  0  0  0  0  0  0  0  0  0  0
   37.6070   30.4890   52.5030 H   0  0  0  0  0  0  0  0  0  0  0  0
   38.9850   31.4470   50.6220 H   0  0  0  0  0  0  0  0  0  0  0  0
   38.3540   30.8830   48.2470 H   0  0  0  0  0  0  0  0  0  0  0  0
   34.8750   28.3370   49.6470 C   0  0  0  0  0  3  0  0  0  0  0  0
   34.4970   28.2180   48.4130 C   0  0  0  0  0  3  0  0  0  0  0  0
   33.3960   27.4220   47.8430 C   0  0  0  0  0  0  0  0  0  0  0  0
   32.7630   28.1020   47.2280 H   0  0  0  0  0  0  0  0  0  0  0  0
   32.7970   27.0470   48.7200 H   0  0  0  0  0  0  0  0  0  0  0  0
   33.8770   26.2330   47.1030 C   0  0  0  0  0  3  0  0  0  0  0  0
   33.2360   25.0950   46.9980 C   0  0  0  0  0  3  0  0  0  0  0  0
   31.9180   24.9350   47.6550 C   0  0  0  0  0  2  0  0  0  0  0  0
   31.2480   25.8000   47.5630 H   0  0  0  0  0  0  0  0  0  0  0  0
  1  7  1  0  0  0  0
  2  8  1  0  0  0  0
  2  1  2  0  0  0  0
  3  2  1  0  0  0  0
  4  3  2  0  0  0  0
  4  5  1  0  0  0  0
  5  6  2  0  0  0  0
  6  1  1  0  0  0  0
  9  3  1  0  0  0  0
 10  5  1  0  0  0  0
 11 10  2  0  0  0  0
 12 11  1  0  0  0  0
 12 14  1  0  0  0  0
 13 12  1  0  0  0  0
 15 12  1  0  0  0  0
 16 15  2  0  0  0  0
 16 17  1  0  0  0  0
 18 17  1  0  0  0  0
M  END
>  <minimizedAffinity>
-4.13341856

>  <minimizedRMSD>
0.225067958

$$$$
