REMARK  Name = 
REMARK  6 active torsions:
REMARK  status: ('A' for Active; 'I' for Inactive)
REMARK    1  A    between atoms: C_1  and  S_17
REMARK    2  A    between atoms: C_2  and  C_9
REMARK    3  A    between atoms: C_11  and  C_13
REMARK    4  A    between atoms: S_17  and  C_20
REMARK    5  A    between atoms: C_20  and  C_29
REMARK    6  A    between atoms: C_30  and  C_31
REMARK                            x       y       z     vdW  Elec       q    Type
REMARK                         _______ _______ _______ _____ _____    ______ ____
ROOT
ATOM      1  C   UNL     1      38.164  31.240  44.928  0.00  0.00    +0.000 A 
ATOM      2  C   UNL     1      37.345  30.942  45.971  0.00  0.00    +0.000 A 
ATOM      3  C   UNL     1      36.109  30.353  45.729  0.00  0.00    +0.000 A 
ATOM      4  C   UNL     1      35.666  30.053  44.455  0.00  0.00    +0.000 A 
ATOM      5  C   UNL     1      36.464  30.343  43.381  0.00  0.00    +0.000 A 
ATOM      6  C   UNL     1      37.679  30.923  43.654  0.00  0.00    +0.000 A 
ATOM      7  H   UNL     1      35.468  30.120  46.593  0.00  0.00    +0.000 HD
ATOM      8  H   UNL     1      34.705  29.601  44.382  0.00  0.00    +0.000 HD
ATOM      9  H   UNL     1      36.085  30.096  42.402  0.00  0.00    +0.000 HD
ATOM     10  H   UNL     1      38.222  31.110  42.718  0.00  0.00    +0.000 HD
ENDROOT
BRANCH   2  13
ATOM     11  C   UNL     1      38.679  32.782  48.859  0.00  0.00    +0.000 A 
ATOM     12  C   UNL     1      38.307  32.444  47.566  0.00  0.00    +0.000 A 
ATOM     13  C   UNL     1      37.700  31.253  47.313  0.00  0.00    +0.000 A 
ATOM     14  N   UNL     1      37.479  30.431  48.376  0.00  0.00    +0.000 NA
ATOM     15  C   UNL     1      37.832  30.753  49.625  0.00  0.00    +0.000 A 
ATOM     16  N   UNL     1      38.431  31.924  49.857  0.00  0.00    +0.000 NA
ATOM     17  H   UNL     1      39.161  33.664  49.232  0.00  0.00    +0.000 HD
ATOM     18  H   UNL     1      38.578  33.296  46.989  0.00  0.00    +0.000 HD
BRANCH  15  19
ATOM     19  C   UNL     1      37.467  29.788  50.696  0.00  0.00    +0.000 C 
ATOM     20  F   UNL     1      37.723  30.292  51.956  0.00  0.00    +0.000 F 
ATOM     21  F   UNL     1      36.027  29.639  50.707  0.00  0.00    +0.000 F 
ATOM     22  F   UNL     1      37.900  28.554  50.571  0.00  0.00    +0.000 F 
ENDBRANCH  15  19
ENDBRANCH   2  13
BRANCH   1  23
ATOM     23  S   UNL     1      39.723  31.931  45.099  0.00  0.00    +0.000 S 
ATOM     24  O   UNL     1      39.694  33.401  44.888  0.00  0.00    +0.000 OA
ATOM     25  O   UNL     1      40.280  31.576  43.736  0.00  0.00    +0.000 OA
BRANCH  23  26
ATOM     26  C   UNL     1      41.129  31.236  45.743  0.00  0.00    +0.000 C 
ATOM     27  H   UNL     1      41.226  30.157  45.525  0.00  0.00    +0.000 HD
ATOM     28  H   UNL     1      40.905  31.163  46.882  0.00  0.00    +0.000 HD
BRANCH  26  29
ATOM     29  C   UNL     1      42.349  32.026  45.748  0.00  0.00    +0.000 C 
ATOM     30  C   UNL     1      42.781  33.135  45.157  0.00  0.00    +0.000 C 
BRANCH  30  31
ATOM     31  C   UNL     1      41.821  33.799  44.235  0.00  0.00    +0.000 C 
ATOM     32  H   UNL     1      41.818  33.210  43.274  0.00  0.00    +0.000 HD
ENDBRANCH  30  31
ENDBRANCH  26  29
ENDBRANCH  23  26
ENDBRANCH   1  23
TORSDOF 6
