
 OpenBabel03272509403D

 30 31  0  0  1  0  0  0  0  0999 V2000
   37.0700   30.9530   49.0580 C   0  0  0  0  0  0  0  0  0  0  0  0
   36.8330   31.9210   50.0430 C   0  0  0  0  0  0  0  0  0  0  0  0
   37.4440   33.1560   50.0550 C   0  0  0  0  0  0  0  0  0  0  0  0
   38.3450   33.4730   49.0420 C   0  0  0  0  0  0  0  0  0  0  0  0
   38.5760   32.5300   48.0810 C   0  0  0  0  0  0  0  0  0  0  0  0
   37.9550   31.3140   48.0970 C   0  0  0  0  0  0  0  0  0  0  0  0
   36.1540   31.7440   50.8510 H   0  0  0  0  0  0  0  0  0  0  0  0
   37.2430   33.8830   50.8280 H   0  0  0  0  0  0  0  0  0  0  0  0
   38.8100   34.4430   49.0700 H   0  0  0  0  0  0  0  0  0  0  0  0
   39.2910   32.8570   47.3290 H   0  0  0  0  0  0  0  0  0  0  0  0
   36.3740   29.6880   49.1420 C   0  0  2  0  0  3  0  0  0  0  0  0
   36.9030   28.8490   49.9700 O   0  0  0  0  0  1  0  0  0  0  0  0
   33.6040   30.1390   46.8520 C   0  0  0  0  0  0  0  0  0  0  0  0
   32.9500   28.9090   46.8710 C   0  0  0  0  0  0  0  0  0  0  0  0
   33.4620   27.9130   47.6780 C   0  0  0  0  0  0  0  0  0  0  0  0
   34.5720   28.1640   48.4140 N   0  0  0  0  0  0  0  0  0  0  0  0
   35.1870   29.3310   48.3920 C   0  0  0  0  0  0  0  0  0  0  0  0
   34.6860   30.3150   47.6000 N   0  0  0  0  0  0  0  0  0  0  0  0
   33.1670   30.8900   46.2060 H   0  0  0  0  0  0  0  0  0  0  0  0
   32.0690   28.7070   46.2870 H   0  0  0  0  0  0  0  0  0  0  0  0
   32.9910   26.9450   47.7250 H   0  0  0  0  0  0  0  0  0  0  0  0
   38.3040   30.4160   47.0060 C   0  0  0  0  0  3  0  0  0  0  0  0
   38.8910   30.7570   45.8740 C   0  0  0  0  0  3  0  0  0  0  0  0
   39.3040   29.9870   44.6990 C   0  0  0  0  0  0  0  0  0  0  0  0
   38.4650   29.2820   44.4280 H   0  0  0  0  0  0  0  0  0  0  0  0
   40.2460   29.4240   44.8100 H   0  0  0  0  0  0  0  0  0  0  0  0
   39.3960   30.9040   43.5130 C   0  0  0  0  0  3  0  0  0  0  0  0
   39.1410   32.2050   43.6070 C   0  0  0  0  0  3  0  0  0  0  0  0
   39.2200   33.1460   42.4630 C   0  0  0  0  0  2  0  0  0  0  0  0
   39.0230   32.6350   41.4870 H   0  0  0  0  0  0  0  0  0  0  0  0
  1 11  1  0  0  0  0
  1  2  1  0  0  0  0
  2  3  2  0  0  0  0
  2  7  1  0  0  0  0
  3  8  1  0  0  0  0
  4  9  1  0  0  0  0
  4  3  1  0  0  0  0
  5  6  1  0  0  0  0
  5  4  2  0  0  0  0
  6  1  2  0  0  0  0
 10  5  1  0  0  0  0
 11 12  1  6  0  0  0
 13 14  2  0  0  0  0
 13 18  1  0  0  0  0
 14 15  1  0  0  0  0
 15 21  1  0  0  0  0
 15 16  2  0  0  0  0
 17 16  1  0  0  0  0
 17 11  1  0  0  0  0
 18 17  2  0  0  0  0
 19 13  1  0  0  0  0
 20 14  1  0  0  0  0
 22  6  1  0  0  0  0
 23 22  2  0  0  0  0
 24 26  1  0  0  0  0
 24 23  1  0  0  0  0
 25 24  1  0  0  0  0
 27 28  2  0  0  0  0
 27 24  1  0  0  0  0
 29 28  1  0  0  0  0
 30 29  1  0  0  0  0
M  END
>  <minimizedAffinity>
-5.53303003

>  <minimizedRMSD>
0.992995143

$$$$
