
 OpenBabel03272509473D

 20 20  0  0  0  0  0  0  0  0999 V2000
   34.7300   28.3060   49.7720 O   0  0  0  0  0  0  0  0  0  0  0  0
   37.3320   30.2190   51.4180 C   0  0  0  0  0  0  0  0  0  0  0  0
   38.0520   30.6590   50.3090 C   0  0  0  0  0  0  0  0  0  0  0  0
   37.6180   30.2830   49.0450 C   0  0  0  0  0  0  0  0  0  0  0  0
   36.5010   29.4980   48.9730 N   0  0  0  0  0  0  0  0  0  0  0  0
   35.8330   29.0940   50.0700 C   0  0  0  0  0  0  0  0  0  0  0  0
   36.2640   29.4650   51.2930 N   0  0  0  0  0  0  0  0  0  0  0  0
   37.6900   30.5250   52.4030 H   0  0  0  0  0  0  0  0  0  0  0  0
   38.9460   31.2880   50.3780 H   0  0  0  0  0  0  0  0  0  0  0  0
   38.1350   30.5930   48.1600 H   0  0  0  0  0  0  0  0  0  0  0  0
   34.2150   28.3770   48.4650 C   0  0  0  0  0  0  0  0  0  0  0  0
   34.9750   28.7940   47.7570 H   0  0  0  0  0  0  0  0  0  0  0  0
   33.2940   29.0040   48.4850 H   0  0  0  0  0  0  0  0  0  0  0  0
   33.8510   27.0110   47.9410 C   0  0  0  0  0  0  0  0  0  0  0  0
   34.7480   26.3610   47.9060 H   0  0  0  0  0  0  0  0  0  0  0  0
   33.0680   26.6020   48.6400 H   0  0  0  0  0  0  0  0  0  0  0  0
   33.2170   27.1570   46.6020 C   0  0  0  0  0  3  0  0  0  0  0  0
   33.8610   27.2110   45.4310 C   0  0  0  0  0  3  0  0  0  0  0  0
   33.2560   27.3560   44.0740 C   0  0  0  0  0  2  0  0  0  0  0  0
   32.2690   26.8110   44.0420 H   0  0  0  0  0  0  0  0  0  0  0  0
  1  6  1  0  0  0  0
  2  8  1  0  0  0  0
  3  9  1  0  0  0  0
  3  2  2  0  0  0  0
  4  3  1  0  0  0  0
  5  4  2  0  0  0  0
  5  6  1  0  0  0  0
  6  7  2  0  0  0  0
  7  2  1  0  0  0  0
 10  4  1  0  0  0  0
 11 13  1  0  0  0  0
 11  1  1  0  0  0  0
 12 11  1  0  0  0  0
 14 11  1  0  0  0  0
 14 16  1  0  0  0  0
 15 14  1  0  0  0  0
 17 14  1  0  0  0  0
 18 17  2  0  0  0  0
 19 18  1  0  0  0  0
 20 19  1  0  0  0  0
M  END
>  <minimizedAffinity>
-3.51656461

>  <minimizedRMSD>
0.0817353874

$$$$
