
 OpenBabel03272509473D

 20 20  0  0  0  0  0  0  0  0999 V2000
   34.8280   28.2900   49.6760 O   0  0  0  0  0  0  0  0  0  0  0  0
   37.3440   30.2360   51.4160 C   0  0  0  0  0  0  0  0  0  0  0  0
   38.0780   30.7130   50.3310 C   0  0  0  0  0  0  0  0  0  0  0  0
   37.6820   30.3480   49.0520 C   0  0  0  0  0  0  0  0  0  0  0  0
   36.5870   29.5380   48.9390 N   0  0  0  0  0  0  0  0  0  0  0  0
   35.9040   29.0990   50.0130 C   0  0  0  0  0  0  0  0  0  0  0  0
   36.2970   29.4580   51.2530 N   0  0  0  0  0  0  0  0  0  0  0  0
   37.6710   30.5330   52.4140 H   0  0  0  0  0  0  0  0  0  0  0  0
   38.9540   31.3610   50.4320 H   0  0  0  0  0  0  0  0  0  0  0  0
   38.2120   30.6870   48.1840 H   0  0  0  0  0  0  0  0  0  0  0  0
   34.3910   28.3130   48.3400 C   0  0  0  0  0  0  0  0  0  0  0  0
   35.2590   28.3700   47.6350 H   0  0  0  0  0  0  0  0  0  0  0  0
   33.7080   29.1840   48.2100 H   0  0  0  0  0  0  0  0  0  0  0  0
   33.6370   27.0580   47.9840 C   0  0  0  0  0  0  0  0  0  0  0  0
   34.0270   26.1970   48.5620 H   0  0  0  0  0  0  0  0  0  0  0  0
   32.5540   27.2610   48.2220 H   0  0  0  0  0  0  0  0  0  0  0  0
   33.7330   26.8320   46.5150 C   0  0  0  0  0  3  0  0  0  0  0  0
   33.9060   27.7770   45.5870 C   0  0  0  0  0  3  0  0  0  0  0  0
   34.0060   27.5850   44.1080 C   0  0  0  0  0  2  0  0  0  0  0  0
   34.5360   26.6120   43.8930 H   0  0  0  0  0  0  0  0  0  0  0  0
  1  6  1  0  0  0  0
  2  8  1  0  0  0  0
  3  9  1  0  0  0  0
  3  2  2  0  0  0  0
  4  3  1  0  0  0  0
  5  4  2  0  0  0  0
  5  6  1  0  0  0  0
  6  7  2  0  0  0  0
  7  2  1  0  0  0  0
 10  4  1  0  0  0  0
 11  1  1  0  0  0  0
 12 11  1  0  0  0  0
 13 11  1  0  0  0  0
 14 16  1  0  0  0  0
 14 11  1  0  0  0  0
 14 15  1  0  0  0  0
 17 14  1  0  0  0  0
 18 17  2  0  0  0  0
 19 18  1  0  0  0  0
 20 19  1  0  0  0  0
M  END
>  <minimizedAffinity>
-3.57590508

>  <minimizedRMSD>
0.960305929

$$$$
