
 OpenBabel03272509403D

 30 31  0  0  1  0  0  0  0  0999 V2000
   37.0770   30.9540   49.0580 C   0  0  0  0  0  0  0  0  0  0  0  0
   36.8330   31.9240   50.0400 C   0  0  0  0  0  0  0  0  0  0  0  0
   37.4410   33.1600   50.0530 C   0  0  0  0  0  0  0  0  0  0  0  0
   38.3460   33.4770   49.0440 C   0  0  0  0  0  0  0  0  0  0  0  0
   38.5850   32.5330   48.0860 C   0  0  0  0  0  0  0  0  0  0  0  0
   37.9660   31.3160   48.1010 C   0  0  0  0  0  0  0  0  0  0  0  0
   36.1500   31.7470   50.8450 H   0  0  0  0  0  0  0  0  0  0  0  0
   37.2340   33.8890   50.8230 H   0  0  0  0  0  0  0  0  0  0  0  0
   38.8090   34.4490   49.0730 H   0  0  0  0  0  0  0  0  0  0  0  0
   39.3030   32.8600   47.3370 H   0  0  0  0  0  0  0  0  0  0  0  0
   36.3840   29.6880   49.1410 C   0  0  2  0  0  3  0  0  0  0  0  0
   36.9160   28.8480   49.9660 O   0  0  0  0  0  1  0  0  0  0  0  0
   33.6110   30.1370   46.8540 C   0  0  0  0  0  0  0  0  0  0  0  0
   32.9560   28.9080   46.8770 C   0  0  0  0  0  0  0  0  0  0  0  0
   33.4680   27.9130   47.6850 C   0  0  0  0  0  0  0  0  0  0  0  0
   34.5790   28.1640   48.4190 N   0  0  0  0  0  0  0  0  0  0  0  0
   35.1950   29.3310   48.3930 C   0  0  0  0  0  0  0  0  0  0  0  0
   34.6940   30.3140   47.6000 N   0  0  0  0  0  0  0  0  0  0  0  0
   33.1740   30.8880   46.2070 H   0  0  0  0  0  0  0  0  0  0  0  0
   32.0740   28.7060   46.2950 H   0  0  0  0  0  0  0  0  0  0  0  0
   32.9950   26.9460   47.7350 H   0  0  0  0  0  0  0  0  0  0  0  0
   38.3230   30.4170   47.0140 C   0  0  0  0  0  3  0  0  0  0  0  0
   38.8670   30.7640   45.8630 C   0  0  0  0  0  3  0  0  0  0  0  0
   39.2810   29.9930   44.6880 C   0  0  0  0  0  0  0  0  0  0  0  0
   38.8700   28.9470   44.7910 H   0  0  0  0  0  0  0  0  0  0  0  0
   40.3680   29.9530   44.5080 H   0  0  0  0  0  0  0  0  0  0  0  0
   38.5840   30.5320   43.4720 C   0  0  0  0  0  3  0  0  0  0  0  0
   37.2900   30.8360   43.4790 C   0  0  0  0  0  3  0  0  0  0  0  0
   36.5610   31.3710   42.3020 C   0  0  0  0  0  2  0  0  0  0  0  0
   37.0250   31.0410   41.3390 H   0  0  0  0  0  0  0  0  0  0  0  0
  1 11  1  0  0  0  0
  1  2  1  0  0  0  0
  2  3  2  0  0  0  0
  2  7  1  0  0  0  0
  3  8  1  0  0  0  0
  4  9  1  0  0  0  0
  4  3  1  0  0  0  0
  5  6  1  0  0  0  0
  5  4  2  0  0  0  0
  6  1  2  0  0  0  0
 10  5  1  0  0  0  0
 11 12  1  6  0  0  0
 13 14  2  0  0  0  0
 13 18  1  0  0  0  0
 14 15  1  0  0  0  0
 15 21  1  0  0  0  0
 15 16  2  0  0  0  0
 17 16  1  0  0  0  0
 17 11  1  0  0  0  0
 18 17  2  0  0  0  0
 19 13  1  0  0  0  0
 20 14  1  0  0  0  0
 22  6  1  0  0  0  0
 23 22  2  0  0  0  0
 24 25  1  0  0  0  0
 24 23  1  0  0  0  0
 26 24  1  0  0  0  0
 27 28  2  0  0  0  0
 27 24  1  0  0  0  0
 29 28  1  0  0  0  0
 30 29  1  0  0  0  0
M  END
>  <minimizedAffinity>
-5.33784628

>  <minimizedRMSD>
0.181284681

$$$$
