
 OpenBabel03262523503D

 16 16  0  0  0  0  0  0  0  0999 V2000
   36.1500   30.4370   49.5970 C   0  0  0  0  0  0  0  0  0  0  0  0
   37.1410   30.6410   50.5620 C   0  0  0  0  0  0  0  0  0  0  0  0
   38.3280   31.2740   50.1700 C   0  0  0  0  0  0  0  0  0  0  0  0
   38.4540   31.6610   48.8620 N   0  0  0  0  0  0  0  0  0  0  0  0
   37.4750   31.4460   47.9600 C   0  0  0  0  0  0  0  0  0  0  0  0
   36.3230   30.8350   48.3280 N   0  0  0  0  0  0  0  0  0  0  0  0
   37.0140   30.3260   51.5840 H   0  0  0  0  0  0  0  0  0  0  0  0
   39.0640   31.4130   50.9330 H   0  0  0  0  0  0  0  0  0  0  0  0
   37.7080   31.8020   46.9660 H   0  0  0  0  0  0  0  0  0  0  0  0
   34.8980   29.7680   50.0130 C   0  0  0  0  0  0  0  0  0  0  0  0
   34.0540   30.4310   49.6960 H   0  0  0  0  0  0  0  0  0  0  0  0
   34.8830   29.7510   51.1220 H   0  0  0  0  0  0  0  0  0  0  0  0
   34.7600   28.3980   49.4710 C   0  0  0  0  0  0  0  0  0  0  0  0
   33.9910   28.0190   48.4260 C   0  0  0  0  0  0  0  0  0  0  0  0
   33.7390   26.6950   47.7570 C   0  0  0  0  0  0  0  0  0  0  0  0
   34.5680   25.9860   48.0330 H   0  0  0  0  0  0  0  0  0  0  0  0
  1 10  1  0  0  0  0
  1  2  1  0  0  0  0
  2  7  1  0  0  0  0
  3  2  2  0  0  0  0
  3  8  1  0  0  0  0
  4  3  1  0  0  0  0
  5  6  1  0  0  0  0
  5  4  2  0  0  0  0
  6  1  2  0  0  0  0
  9  5  1  0  0  0  0
 10 12  1  0  0  0  0
 11 10  1  0  0  0  0
 13 10  1  0  0  0  0
 14 13  2  0  0  0  0
 15 16  1  0  0  0  0
 15 14  1  0  0  0  0
M  END
>  <minimizedAffinity>
-3.9952352

>  <minimizedRMSD>
4.06200361

$$$$
