
     RDKit          3D

 36 37  0  0  0  0  0  0  0  0999 V2000
   37.1287   30.9560   49.0131 C   0  0  0  0  0  0  0  0  0  0  0  0
   36.9213   31.9385   49.9898 C   0  0  0  0  0  0  0  0  0  0  0  0
   37.5544   33.1629   49.9810 C   0  0  0  0  0  0  0  0  0  0  0  0
   38.4487   33.4518   48.9547 C   0  0  0  0  0  0  0  0  0  0  0  0
   38.6523   32.4955   48.0015 C   0  0  0  0  0  0  0  0  0  0  0  0
   38.0089   31.2907   48.0383 C   0  0  0  0  0  0  0  0  0  0  0  0
   36.4114   29.7049   49.1187 C   0  0  0  0  0  0  0  0  0  0  0  0
   36.9284   28.8699   49.9579 O   0  0  0  0  0  0  0  0  0  0  0  0
   33.6274   30.1784   46.8500 C   0  0  0  0  0  0  0  0  0  0  0  0
   32.9634   28.9540   46.8752 C   0  0  0  0  0  0  0  0  0  0  0  0
   33.4729   27.9538   47.6778 C   0  0  0  0  0  0  0  0  0  0  0  0
   34.5906   28.1960   48.4061 N   0  0  0  0  0  0  0  0  0  0  0  0
   35.2152   29.3585   48.3779 C   0  0  0  0  0  0  0  0  0  0  0  0
   34.7162   30.3457   47.5886 N   0  0  0  0  0  0  0  0  0  0  0  0
   38.3290   30.3750   46.9534 C   0  0  0  0  0  0  0  0  0  0  0  0
   38.8104   30.7070   45.7702 C   0  0  0  0  0  0  0  0  0  0  0  0
   39.1798   29.9185   44.5918 C   0  0  0  0  0  0  0  0  0  0  0  0
   36.2475   31.7833   50.8072 H   0  0  0  0  0  0  0  0  0  0  0  0
   37.3749   33.9018   50.7481 H   0  0  0  0  0  0  0  0  0  0  0  0
   38.9320   34.4140   48.9672 H   0  0  0  0  0  0  0  0  0  0  0  0
   39.3638   32.7998   47.2377 H   0  0  0  0  0  0  0  0  0  0  0  0
   33.1921   30.9327   46.2067 H   0  0  0  0  0  0  0  0  0  0  0  0
   32.0760   28.7591   46.2979 H   0  0  0  0  0  0  0  0  0  0  0  0
   32.9938   26.9898   47.7301 H   0  0  0  0  0  0  0  0  0  0  0  0
   38.1994   29.2802   47.0075 H   0  0  0  0  0  0  0  0  0  0  0  0
   39.0047   31.7478   45.5303 H   0  0  0  0  0  0  0  0  0  0  0  0
   38.8553   28.8518   44.7666 H   0  0  0  0  0  0  0  0  0  0  0  0
   40.2487   29.9459   44.3221 H   0  0  0  0  0  0  0  0  0  0  0  0
   38.3488   30.3579   43.4212 C   0  0  0  0  0  0  0  0  0  0  0  0
   37.1765   29.7981   43.1392 C   0  0  0  0  0  0  0  0  0  0  0  0
   36.3236   30.2000   41.9946 C   0  0  0  0  0  0  0  0  0  0  0  0
   36.9269   30.6227   41.1523 H   0  0  0  0  0  0  0  0  0  0  0  0
   38.7089   31.1559   42.7810 H   0  0  0  0  0  0  0  0  0  0  0  0
   36.8372   28.9961   43.8003 H   0  0  0  0  0  0  0  0  0  0  0  0
   35.7686   29.2830   41.6660 H   0  0  0  0  0  0  0  0  0  0  0  0
   35.5772   30.9261   42.3852 H   0  0  0  0  0  0  0  0  0  0  0  0
  1  7  1  0
  1  2  2  0
  3  2  1  0
  4  3  2  0
  5  6  2  0
  5  4  1  0
  6  1  1  0
  7  8  2  0
  9 10  2  0
  9 14  1  0
 10 11  1  0
 11 12  2  0
 13 12  1  0
 13  7  1  0
 14 13  2  0
 15  6  1  0
 16 15  2  0
 17 16  1  0
  2 18  1  0
  3 19  1  0
  4 20  1  0
  5 21  1  0
  9 22  1  0
 10 23  1  0
 11 24  1  0
 15 25  1  0
 16 26  1  0
 17 27  1  0
 17 28  1  0
 29 30  2  3
 30 31  1  0
 31 32  1  0
 29 33  1  0
 30 34  1  0
 31 35  1  0
 31 36  1  0
 17 29  1  0
M  ISO  8  18  14  19  14  20  14  21  14  22  14  23  14  24  14  27   8
M  ISO  2  28   8  32   8
M  END
>  <DihAtoms>  (1) 
15,16,28,29

>  <DihDeg>  (1) 
120.00727012709378

$$$$
