
 OpenBabel03272502293D

 18 18  0  0  0  0  0  0  0  0999 V2000
   37.3950   30.2660   51.3550 C   0  0  0  0  0  0  0  0  0  0  0  0
   38.0630   30.7890   50.2470 C   0  0  0  0  0  0  0  0  0  0  0  0
   37.6380   30.4340   48.9820 C   0  0  0  0  0  0  0  0  0  0  0  0
   36.5780   29.5830   48.8610 N   0  0  0  0  0  0  0  0  0  0  0  0
   35.9480   29.0920   49.9460 C   0  0  0  0  0  0  0  0  0  0  0  0
   36.3570   29.4340   51.1810 N   0  0  0  0  0  0  0  0  0  0  0  0
   37.6930   30.5170   52.3690 H   0  0  0  0  0  0  0  0  0  0  0  0
   38.9030   31.4640   50.4180 H   0  0  0  0  0  0  0  0  0  0  0  0
   35.1060   28.4160   49.7910 H   0  0  0  0  0  0  0  0  0  0  0  0
   38.2890   30.9410   47.8120 C   0  0  0  0  0  3  0  0  0  0  0  0
   38.8420   32.1250   47.7700 C   0  0  0  0  0  3  0  0  0  0  0  0
   39.5270   32.6790   46.5610 C   0  0  0  0  0  0  0  0  0  0  0  0
   39.7320   33.7410   46.7720 H   0  0  0  0  0  0  0  0  0  0  0  0
   40.5210   32.1620   46.5150 H   0  0  0  0  0  0  0  0  0  0  0  0
   38.7620   32.4340   45.3300 C   0  0  0  0  0  3  0  0  0  0  0  0
   39.1710   31.7930   44.2400 C   0  0  0  0  0  3  0  0  0  0  0  0
   40.5530   31.2540   44.2380 C   0  0  0  0  0  2  0  0  0  0  0  0
   40.5700   30.2510   44.7510 H   0  0  0  0  0  0  0  0  0  0  0  0
  1  7  1  0  0  0  0
  2  8  1  0  0  0  0
  2  1  2  0  0  0  0
  3  2  1  0  0  0  0
  4  3  2  0  0  0  0
  4  5  1  0  0  0  0
  5  6  2  0  0  0  0
  6  1  1  0  0  0  0
  9  5  1  0  0  0  0
 10  3  1  0  0  0  0
 11 10  2  0  0  0  0
 12 13  1  0  0  0  0
 12 11  1  0  0  0  0
 14 12  1  0  0  0  0
 15 12  1  0  0  0  0
 16 15  2  0  0  0  0
 17 16  1  0  0  0  0
 17 18  1  0  0  0  0
M  END
>  <minimizedAffinity>
-4.48557568

>  <minimizedRMSD>
1.43531454

$$$$
