
 OpenBabel03272509403D

 30 31  0  0  1  0  0  0  0  0999 V2000
   37.0690   30.9530   49.0540 C   0  0  0  0  0  0  0  0  0  0  0  0
   36.8300   31.9060   50.0540 C   0  0  0  0  0  0  0  0  0  0  0  0
   37.4370   33.1420   50.0840 C   0  0  0  0  0  0  0  0  0  0  0  0
   38.3360   33.4770   49.0750 C   0  0  0  0  0  0  0  0  0  0  0  0
   38.5680   32.5500   48.0990 C   0  0  0  0  0  0  0  0  0  0  0  0
   37.9510   31.3320   48.0970 C   0  0  0  0  0  0  0  0  0  0  0  0
   36.1530   31.7140   50.8600 H   0  0  0  0  0  0  0  0  0  0  0  0
   37.2350   33.8570   50.8680 H   0  0  0  0  0  0  0  0  0  0  0  0
   38.7980   34.4480   49.1170 H   0  0  0  0  0  0  0  0  0  0  0  0
   39.2810   32.8900   47.3510 H   0  0  0  0  0  0  0  0  0  0  0  0
   36.3760   29.6850   49.1200 C   0  0  2  0  0  3  0  0  0  0  0  0
   36.9110   28.8340   49.9310 O   0  0  0  0  0  1  0  0  0  0  0  0
   33.6080   30.1600   46.8310 C   0  0  0  0  0  0  0  0  0  0  0  0
   32.9470   28.9350   46.8470 C   0  0  0  0  0  0  0  0  0  0  0  0
   33.4530   27.9330   47.6500 C   0  0  0  0  0  0  0  0  0  0  0  0
   34.5650   28.1750   48.3880 N   0  0  0  0  0  0  0  0  0  0  0  0
   35.1870   29.3380   48.3680 C   0  0  0  0  0  0  0  0  0  0  0  0
   34.6910   30.3280   47.5790 N   0  0  0  0  0  0  0  0  0  0  0  0
   33.1760   30.9170   46.1880 H   0  0  0  0  0  0  0  0  0  0  0  0
   32.0650   28.7400   46.2630 H   0  0  0  0  0  0  0  0  0  0  0  0
   32.9760   26.9680   47.6950 H   0  0  0  0  0  0  0  0  0  0  0  0
   38.3010   30.4520   46.9920 C   0  0  0  0  0  3  0  0  0  0  0  0
   38.9010   30.8090   45.8720 C   0  0  0  0  0  3  0  0  0  0  0  0
   39.3170   30.0580   44.6860 C   0  0  0  0  0  0  0  0  0  0  0  0
   38.6710   29.1350   44.6100 H   0  0  0  0  0  0  0  0  0  0  0  0
   40.3820   29.7740   44.6560 H   0  0  0  0  0  0  0  0  0  0  0  0
   38.9650   30.8420   43.4540 C   0  0  0  0  0  3  0  0  0  0  0  0
   38.4210   32.0520   43.5220 C   0  0  0  0  0  3  0  0  0  0  0  0
   38.0580   32.8620   42.3330 C   0  0  0  0  0  2  0  0  0  0  0  0
   37.8190   32.2210   41.4480 H   0  0  0  0  0  0  0  0  0  0  0  0
  1 11  1  0  0  0  0
  1  2  1  0  0  0  0
  2  3  2  0  0  0  0
  2  7  1  0  0  0  0
  3  8  1  0  0  0  0
  4  9  1  0  0  0  0
  4  3  1  0  0  0  0
  5  4  2  0  0  0  0
  6  5  1  0  0  0  0
  6  1  2  0  0  0  0
 10  5  1  0  0  0  0
 11 12  1  6  0  0  0
 13 14  2  0  0  0  0
 13 18  1  0  0  0  0
 14 15  1  0  0  0  0
 15 21  1  0  0  0  0
 15 16  2  0  0  0  0
 17 16  1  0  0  0  0
 17 11  1  0  0  0  0
 18 17  2  0  0  0  0
 19 13  1  0  0  0  0
 20 14  1  0  0  0  0
 22  6  1  0  0  0  0
 23 22  2  0  0  0  0
 24 23  1  0  0  0  0
 25 24  1  0  0  0  0
 26 24  1  0  0  0  0
 27 28  2  0  0  0  0
 27 24  1  0  0  0  0
 29 28  1  0  0  0  0
 30 29  1  0  0  0  0
M  END
>  <minimizedAffinity>
-5.44861031

>  <minimizedRMSD>
0.613993049

$$$$
