
 OpenBabel03272502293D

 18 18  0  0  0  0  0  0  0  0999 V2000
   37.3900   30.0290   51.3530 C   0  0  0  0  0  0  0  0  0  0  0  0
   37.6690   30.4230   50.0440 C   0  0  0  0  0  0  0  0  0  0  0  0
   36.7190   30.2100   49.0650 C   0  0  0  0  0  0  0  0  0  0  0  0
   35.5390   29.6200   49.4140 N   0  0  0  0  0  0  0  0  0  0  0  0
   35.2920   29.2480   50.6840 C   0  0  0  0  0  0  0  0  0  0  0  0
   36.2130   29.4540   51.6430 N   0  0  0  0  0  0  0  0  0  0  0  0
   38.1060   30.1770   52.1560 H   0  0  0  0  0  0  0  0  0  0  0  0
   38.6330   30.8890   49.8370 H   0  0  0  0  0  0  0  0  0  0  0  0
   34.3310   28.7810   50.9070 H   0  0  0  0  0  0  0  0  0  0  0  0
   36.9550   30.5940   47.7070 C   0  0  0  0  0  3  0  0  0  0  0  0
   38.1270   30.9870   47.2780 C   0  0  0  0  0  3  0  0  0  0  0  0
   38.4000   31.3950   45.8650 C   0  0  0  0  0  0  0  0  0  0  0  0
   38.8470   30.5200   45.3640 H   0  0  0  0  0  0  0  0  0  0  0  0
   37.3930   31.5530   45.3980 H   0  0  0  0  0  0  0  0  0  0  0  0
   39.2020   32.6230   45.7880 C   0  0  0  0  0  3  0  0  0  0  0  0
   40.4990   32.7270   45.5190 C   0  0  0  0  0  3  0  0  0  0  0  0
   41.2470   31.4720   45.2620 C   0  0  0  0  0  2  0  0  0  0  0  0
   41.1190   31.1650   44.1850 H   0  0  0  0  0  0  0  0  0  0  0  0
  1  6  1  0  0  0  0
  1  7  1  0  0  0  0
  2  1  2  0  0  0  0
  3  4  2  0  0  0  0
  3  2  1  0  0  0  0
  4  5  1  0  0  0  0
  5  9  1  0  0  0  0
  5  6  2  0  0  0  0
  8  2  1  0  0  0  0
 10  3  1  0  0  0  0
 11 10  2  0  0  0  0
 12 11  1  0  0  0  0
 13 12  1  0  0  0  0
 14 12  1  0  0  0  0
 15 12  1  0  0  0  0
 16 15  2  0  0  0  0
 17 16  1  0  0  0  0
 18 17  1  0  0  0  0
M  END
>  <minimizedAffinity>
-4.28704262

>  <minimizedRMSD>
1.72354686

$$$$
