
 OpenBabel03262520423D

 16 16  0  0  0  0  0  0  0  0999 V2000
   37.6430   23.5360   37.2520 C   0  0  0  0  0  0  0  0  0  0  0  0
   38.0570   24.8780   37.0850 C   0  0  0  0  0  0  0  0  0  0  0  0
   38.4940   25.2780   35.8290 C   0  0  0  0  0  0  0  0  0  0  0  0
   38.5090   24.3650   34.8080 N   0  0  0  0  0  0  0  0  0  0  0  0
   38.1010   23.0810   35.0150 C   0  0  0  0  0  0  0  0  0  0  0  0
   37.6760   22.6750   36.2160 N   0  0  0  0  0  0  0  0  0  0  0  0
   37.3190   23.3080   38.2530 H   0  0  0  0  0  0  0  0  0  0  0  0
   38.0520   25.6130   37.8780 H   0  0  0  0  0  0  0  0  0  0  0  0
   38.1160   22.3630   34.2000 H   0  0  0  0  0  0  0  0  0  0  0  0
   38.9320   26.6800   35.6320 C   0  0  0  0  0  0  0  0  0  0  0  0
   39.5690   26.7590   34.7240 H   0  0  0  0  0  0  0  0  0  0  0  0
   39.5330   27.0470   36.4890 H   0  0  0  0  0  0  0  0  0  0  0  0
   37.8030   27.6290   35.4140 C   0  0  0  0  0  3  0  0  0  0  0  0
   37.0640   27.7120   34.3120 C   0  0  0  0  0  3  0  0  0  0  0  0
   35.9630   28.7380   34.2810 C   0  0  0  0  0  2  0  0  0  0  0  0
   36.3690   29.6220   34.8230 H   0  0  0  0  0  0  0  0  0  0  0  0
  1  7  1  0  0  0  0
  2  1  1  0  0  0  0
  2  8  1  0  0  0  0
  3  2  2  0  0  0  0
  4  5  2  0  0  0  0
  4  3  1  0  0  0  0
  5  6  1  0  0  0  0
  6  1  2  0  0  0  0
  9  5  1  0  0  0  0
 10  3  1  0  0  0  0
 10 12  1  0  0  0  0
 11 10  1  0  0  0  0
 13 10  1  0  0  0  0
 14 13  2  0  0  0  0
 15 14  1  0  0  0  0
 15 16  1  0  0  0  0
M  END
>  <minimizedAffinity>
-3.3827014

$$$$

 OpenBabel03262520423D

 16 16  0  0  0  0  0  0  0  0999 V2000
   38.2050   23.6500   38.0160 C   0  0  0  0  0  0  0  0  0  0  0  0
   39.4910   23.0870   38.1900 C   0  0  0  0  0  0  0  0  0  0  0  0
   40.0120   22.3120   37.1620 C   0  0  0  0  0  0  0  0  0  0  0  0
   39.2670   22.1220   36.0290 N   0  0  0  0  0  0  0  0  0  0  0  0
   38.0310   22.6840   35.9050 C   0  0  0  0  0  0  0  0  0  0  0  0
   37.5110   23.4330   36.8820 N   0  0  0  0  0  0  0  0  0  0  0  0
   37.8760   24.2350   38.8570 H   0  0  0  0  0  0  0  0  0  0  0  0
   40.0950   23.2250   39.0760 H   0  0  0  0  0  0  0  0  0  0  0  0
   37.4460   22.5280   35.0030 H   0  0  0  0  0  0  0  0  0  0  0  0
   41.3580   21.7130   37.3230 C   0  0  0  0  0  0  0  0  0  0  0  0
   41.3280   20.6280   37.0810 H   0  0  0  0  0  0  0  0  0  0  0  0
   41.7290   21.8080   38.3650 H   0  0  0  0  0  0  0  0  0  0  0  0
   42.3810   22.2990   36.4100 C   0  0  0  0  0  3  0  0  0  0  0  0
   42.9820   23.4740   36.5750 C   0  0  0  0  0  3  0  0  0  0  0  0
   43.9920   23.8960   35.5420 C   0  0  0  0  0  2  0  0  0  0  0  0
   43.5860   23.5380   34.5680 H   0  0  0  0  0  0  0  0  0  0  0  0
  1  2  1  0  0  0  0
  1  7  1  0  0  0  0
  2  8  1  0  0  0  0
  3 10  1  0  0  0  0
  3  2  2  0  0  0  0
  4  3  1  0  0  0  0
  5  4  2  0  0  0  0
  5  6  1  0  0  0  0
  6  1  2  0  0  0  0
  9  5  1  0  0  0  0
 10 12  1  0  0  0  0
 11 10  1  0  0  0  0
 13 14  2  0  0  0  0
 13 10  1  0  0  0  0
 15 14  1  0  0  0  0
 16 15  1  0  0  0  0
M  END
>  <minimizedAffinity>
-3.32625103

$$$$

 OpenBabel03262520423D

 16 16  0  0  0  0  0  0  0  0999 V2000
   37.6850   23.4780   37.4390 C   0  0  0  0  0  0  0  0  0  0  0  0
   37.9740   24.8390   37.1880 C   0  0  0  0  0  0  0  0  0  0  0  0
   38.2930   25.2130   35.8880 C   0  0  0  0  0  0  0  0  0  0  0  0
   38.3160   24.2570   34.9080 N   0  0  0  0  0  0  0  0  0  0  0  0
   38.0310   22.9560   35.1970 C   0  0  0  0  0  0  0  0  0  0  0  0
   37.7210   22.5750   36.4400 N   0  0  0  0  0  0  0  0  0  0  0  0
   37.4480   23.2720   38.4680 H   0  0  0  0  0  0  0  0  0  0  0  0
   37.9600   25.6090   37.9470 H   0  0  0  0  0  0  0  0  0  0  0  0
   38.0520   22.2030   34.4130 H   0  0  0  0  0  0  0  0  0  0  0  0
   38.5990   26.6340   35.6020 C   0  0  0  0  0  0  0  0  0  0  0  0
   38.5540   27.2330   36.5390 H   0  0  0  0  0  0  0  0  0  0  0  0
   37.8690   27.0770   34.8930 H   0  0  0  0  0  0  0  0  0  0  0  0
   39.9690   26.8480   35.0550 C   0  0  0  0  0  3  0  0  0  0  0  0
   40.2610   27.1200   33.7860 C   0  0  0  0  0  3  0  0  0  0  0  0
   41.7100   27.3040   33.4240 C   0  0  0  0  0  2  0  0  0  0  0  0
   42.2650   26.5610   34.0420 H   0  0  0  0  0  0  0  0  0  0  0  0
  1  7  1  0  0  0  0
  2  1  1  0  0  0  0
  2  8  1  0  0  0  0
  3  2  2  0  0  0  0
  4  5  2  0  0  0  0
  4  3  1  0  0  0  0
  5  6  1  0  0  0  0
  6  1  2  0  0  0  0
  9  5  1  0  0  0  0
 10  3  1  0  0  0  0
 10 11  1  0  0  0  0
 12 10  1  0  0  0  0
 13 10  1  0  0  0  0
 14 13  2  0  0  0  0
 15 14  1  0  0  0  0
 15 16  1  0  0  0  0
M  END
>  <minimizedAffinity>
-3.31395316

$$$$

 OpenBabel03262520423D

 16 16  0  0  0  0  0  0  0  0999 V2000
   37.8220   22.5000   36.0190 C   0  0  0  0  0  0  0  0  0  0  0  0
   39.2270   22.3310   35.9960 C   0  0  0  0  0  0  0  0  0  0  0  0
   39.9490   22.7020   37.1230 C   0  0  0  0  0  0  0  0  0  0  0  0
   39.2810   23.2130   38.2030 N   0  0  0  0  0  0  0  0  0  0  0  0
   37.9260   23.3580   38.1800 C   0  0  0  0  0  0  0  0  0  0  0  0
   37.2110   23.0070   37.1060 N   0  0  0  0  0  0  0  0  0  0  0  0
   37.3380   22.1890   35.1090 H   0  0  0  0  0  0  0  0  0  0  0  0
   39.7720   21.9300   35.1540 H   0  0  0  0  0  0  0  0  0  0  0  0
   37.4030   23.7640   39.0410 H   0  0  0  0  0  0  0  0  0  0  0  0
   41.4220   22.5340   37.1210 C   0  0  0  0  0  0  0  0  0  0  0  0
   41.8730   23.0890   37.9730 H   0  0  0  0  0  0  0  0  0  0  0  0
   41.8790   22.9300   36.1910 H   0  0  0  0  0  0  0  0  0  0  0  0
   41.8570   21.1190   37.2880 C   0  0  0  0  0  3  0  0  0  0  0  0
   42.9350   20.5700   36.7340 C   0  0  0  0  0  3  0  0  0  0  0  0
   43.2100   19.1190   37.0220 C   0  0  0  0  0  2  0  0  0  0  0  0
   42.2100   18.6290   37.0510 H   0  0  0  0  0  0  0  0  0  0  0  0
  1  6  1  0  0  0  0
  2  1  2  0  0  0  0
  2  3  1  0  0  0  0
  3  4  2  0  0  0  0
  5  4  1  0  0  0  0
  5  9  1  0  0  0  0
  6  5  2  0  0  0  0
  7  1  1  0  0  0  0
  8  2  1  0  0  0  0
 10  3  1  0  0  0  0
 10 13  1  0  0  0  0
 10 11  1  0  0  0  0
 12 10  1  0  0  0  0
 14 15  1  0  0  0  0
 14 13  2  0  0  0  0
 15 16  1  0  0  0  0
M  END
>  <minimizedAffinity>
-3.30273485

$$$$

 OpenBabel03262520423D

 16 16  0  0  0  0  0  0  0  0999 V2000
   38.4110   26.8070   35.9760 C   0  0  0  0  0  0  0  0  0  0  0  0
   38.1930   25.4650   36.3660 C   0  0  0  0  0  0  0  0  0  0  0  0
   39.1000   24.5040   35.9380 C   0  0  0  0  0  0  0  0  0  0  0  0
   40.1600   24.8880   35.1620 N   0  0  0  0  0  0  0  0  0  0  0  0
   40.3300   26.1930   34.8100 C   0  0  0  0  0  0  0  0  0  0  0  0
   39.4690   27.1350   35.2110 N   0  0  0  0  0  0  0  0  0  0  0  0
   37.6640   27.4880   36.3480 H   0  0  0  0  0  0  0  0  0  0  0  0
   37.3630   25.1420   36.9780 H   0  0  0  0  0  0  0  0  0  0  0  0
   41.1740   26.4900   34.1940 H   0  0  0  0  0  0  0  0  0  0  0  0
   38.8910   23.0910   36.3350 C   0  0  0  0  0  0  0  0  0  0  0  0
   38.2260   22.5800   35.6040 H   0  0  0  0  0  0  0  0  0  0  0  0
   38.4090   23.0110   37.3320 H   0  0  0  0  0  0  0  0  0  0  0  0
   40.1480   22.2910   36.3610 C   0  0  0  0  0  3  0  0  0  0  0  0
   40.8180   21.9380   37.4550 C   0  0  0  0  0  3  0  0  0  0  0  0
   42.0720   21.1250   37.2780 C   0  0  0  0  0  2  0  0  0  0  0  0
   42.5550   21.5240   36.3570 H   0  0  0  0  0  0  0  0  0  0  0  0
  1  7  1  0  0  0  0
  1  2  1  0  0  0  0
  2  8  1  0  0  0  0
  3 10  1  0  0  0  0
  3  2  2  0  0  0  0
  4  3  1  0  0  0  0
  5  4  2  0  0  0  0
  5  6  1  0  0  0  0
  6  1  2  0  0  0  0
  9  5  1  0  0  0  0
 10 13  1  0  0  0  0
 10 12  1  0  0  0  0
 11 10  1  0  0  0  0
 13 14  2  0  0  0  0
 15 14  1  0  0  0  0
 16 15  1  0  0  0  0
M  END
>  <minimizedAffinity>
-3.28656983

$$$$

 OpenBabel03262520423D

 16 16  0  0  0  0  0  0  0  0999 V2000
   40.5870   22.1810   35.1270 C   0  0  0  0  0  0  0  0  0  0  0  0
   39.5110   23.0360   35.4630 C   0  0  0  0  0  0  0  0  0  0  0  0
   39.2640   23.2820   36.8080 C   0  0  0  0  0  0  0  0  0  0  0  0
   40.0640   22.6930   37.7490 N   0  0  0  0  0  0  0  0  0  0  0  0
   41.0900   21.8750   37.3790 C   0  0  0  0  0  0  0  0  0  0  0  0
   41.3450   21.6250   36.0910 N   0  0  0  0  0  0  0  0  0  0  0  0
   40.7100   22.0430   34.0670 H   0  0  0  0  0  0  0  0  0  0  0  0
   38.8680   23.5110   34.7350 H   0  0  0  0  0  0  0  0  0  0  0  0
   41.7200   21.4110   38.1330 H   0  0  0  0  0  0  0  0  0  0  0  0
   38.1420   24.1750   37.1820 C   0  0  0  0  0  0  0  0  0  0  0  0
   38.3420   24.6520   38.1660 H   0  0  0  0  0  0  0  0  0  0  0  0
   37.1860   23.6170   37.2740 H   0  0  0  0  0  0  0  0  0  0  0  0
   37.9340   25.2990   36.2250 C   0  0  0  0  0  3  0  0  0  0  0  0
   38.3440   26.5510   36.4020 C   0  0  0  0  0  3  0  0  0  0  0  0
   38.0390   27.5490   35.3180 C   0  0  0  0  0  2  0  0  0  0  0  0
   37.0260   27.2760   34.9410 H   0  0  0  0  0  0  0  0  0  0  0  0
  1  2  2  0  0  0  0
  1  6  1  0  0  0  0
  2  3  1  0  0  0  0
  3 10  1  0  0  0  0
  3  4  2  0  0  0  0
  5  4  1  0  0  0  0
  5  9  1  0  0  0  0
  6  5  2  0  0  0  0
  7  1  1  0  0  0  0
  8  2  1  0  0  0  0
 10 12  1  0  0  0  0
 10 11  1  0  0  0  0
 13 14  2  0  0  0  0
 13 10  1  0  0  0  0
 15 14  1  0  0  0  0
 16 15  1  0  0  0  0
M  END
>  <minimizedAffinity>
-3.28633881

$$$$

 OpenBabel03262520423D

 16 16  0  0  0  0  0  0  0  0999 V2000
   36.5840   23.9030   31.6890 C   0  0  0  0  0  0  0  0  0  0  0  0
   37.2320   25.0430   32.2190 C   0  0  0  0  0  0  0  0  0  0  0  0
   36.6460   26.2860   32.0110 C   0  0  0  0  0  0  0  0  0  0  0  0
   35.4750   26.3590   31.3050 N   0  0  0  0  0  0  0  0  0  0  0  0
   34.8870   25.2330   30.8120 C   0  0  0  0  0  0  0  0  0  0  0  0
   35.4330   24.0280   31.0010 N   0  0  0  0  0  0  0  0  0  0  0  0
   37.1020   22.9820   31.8940 H   0  0  0  0  0  0  0  0  0  0  0  0
   38.1560   25.0070   32.7790 H   0  0  0  0  0  0  0  0  0  0  0  0
   33.9580   25.3000   30.2530 H   0  0  0  0  0  0  0  0  0  0  0  0
   37.3070   27.4940   32.5580 C   0  0  0  0  0  0  0  0  0  0  0  0
   36.5490   28.2680   32.8060 H   0  0  0  0  0  0  0  0  0  0  0  0
   38.0110   27.9440   31.8270 H   0  0  0  0  0  0  0  0  0  0  0  0
   38.0520   27.2410   33.8240 C   0  0  0  0  0  3  0  0  0  0  0  0
   37.5870   27.4570   35.0510 C   0  0  0  0  0  3  0  0  0  0  0  0
   38.4920   27.1370   36.2110 C   0  0  0  0  0  2  0  0  0  0  0  0
   39.5140   27.4260   35.8750 H   0  0  0  0  0  0  0  0  0  0  0  0
  1  7  1  0  0  0  0
  1  2  1  0  0  0  0
  2  8  1  0  0  0  0
  3  2  2  0  0  0  0
  3 10  1  0  0  0  0
  4  3  1  0  0  0  0
  5  6  1  0  0  0  0
  5  4  2  0  0  0  0
  6  1  2  0  0  0  0
  9  5  1  0  0  0  0
 10 11  1  0  0  0  0
 10 13  1  0  0  0  0
 12 10  1  0  0  0  0
 13 14  2  0  0  0  0
 14 15  1  0  0  0  0
 16 15  1  0  0  0  0
M  END
>  <minimizedAffinity>
-3.23344278

$$$$

 OpenBabel03262520423D

 16 16  0  0  0  0  0  0  0  0999 V2000
   35.6310   26.0420   31.2040 C   0  0  0  0  0  0  0  0  0  0  0  0
   35.1540   24.7150   31.0910 C   0  0  0  0  0  0  0  0  0  0  0  0
   36.0840   23.6830   31.0950 C   0  0  0  0  0  0  0  0  0  0  0  0
   37.4140   23.9860   31.2080 N   0  0  0  0  0  0  0  0  0  0  0  0
   37.8270   25.2800   31.3140 C   0  0  0  0  0  0  0  0  0  0  0  0
   36.9510   26.2890   31.3120 N   0  0  0  0  0  0  0  0  0  0  0  0
   34.8480   26.7810   31.1930 H   0  0  0  0  0  0  0  0  0  0  0  0
   34.1090   24.4550   31.0010 H   0  0  0  0  0  0  0  0  0  0  0  0
   38.8850   25.5120   31.4030 H   0  0  0  0  0  0  0  0  0  0  0  0
   35.6060   22.2840   30.9770 C   0  0  0  0  0  0  0  0  0  0  0  0
   36.4010   21.6430   30.5370 H   0  0  0  0  0  0  0  0  0  0  0  0
   34.7170   22.2080   30.3170 H   0  0  0  0  0  0  0  0  0  0  0  0
   35.2680   21.6610   32.2880 C   0  0  0  0  0  3  0  0  0  0  0  0
   36.1450   21.2050   33.1770 C   0  0  0  0  0  3  0  0  0  0  0  0
   35.6070   20.6060   34.4500 C   0  0  0  0  0  2  0  0  0  0  0  0
   34.6850   20.0580   34.1510 H   0  0  0  0  0  0  0  0  0  0  0  0
  1  6  1  0  0  0  0
  2  3  1  0  0  0  0
  2  1  2  0  0  0  0
  3  4  2  0  0  0  0
  4  5  1  0  0  0  0
  5  9  1  0  0  0  0
  6  5  2  0  0  0  0
  7  1  1  0  0  0  0
  8  2  1  0  0  0  0
 10  3  1  0  0  0  0
 10 13  1  0  0  0  0
 11 10  1  0  0  0  0
 12 10  1  0  0  0  0
 13 14  2  0  0  0  0
 14 15  1  0  0  0  0
 16 15  1  0  0  0  0
M  END
>  <minimizedAffinity>
-3.17216969

$$$$

 OpenBabel03262520423D

 16 16  0  0  0  0  0  0  0  0999 V2000
   36.4480   29.7560   30.5660 C   0  0  0  0  0  0  0  0  0  0  0  0
   36.0950   29.9940   31.9150 C   0  0  0  0  0  0  0  0  0  0  0  0
   35.9520   28.8990   32.7570 C   0  0  0  0  0  0  0  0  0  0  0  0
   36.1560   27.6420   32.2550 N   0  0  0  0  0  0  0  0  0  0  0  0
   36.4950   27.4600   30.9470 C   0  0  0  0  0  0  0  0  0  0  0  0
   36.6370   28.5000   30.1190 N   0  0  0  0  0  0  0  0  0  0  0  0
   36.5390   30.6550   29.9810 H   0  0  0  0  0  0  0  0  0  0  0  0
   35.9300   30.9780   32.3300 H   0  0  0  0  0  0  0  0  0  0  0  0
   36.6540   26.4590   30.5560 H   0  0  0  0  0  0  0  0  0  0  0  0
   35.5830   29.1250   34.1750 C   0  0  0  0  0  0  0  0  0  0  0  0
   36.3410   28.6670   34.8470 H   0  0  0  0  0  0  0  0  0  0  0  0
   34.6030   28.6670   34.4220 H   0  0  0  0  0  0  0  0  0  0  0  0
   35.5310   30.5660   34.5510 C   0  0  0  0  0  3  0  0  0  0  0  0
   36.0320   31.0930   35.6650 C   0  0  0  0  0  3  0  0  0  0  0  0
   35.8810   32.5770   35.8680 C   0  0  0  0  0  2  0  0  0  0  0  0
   34.8760   32.8300   35.4600 H   0  0  0  0  0  0  0  0  0  0  0  0
  1  2  1  0  0  0  0
  2  8  1  0  0  0  0
  2  3  2  0  0  0  0
  3 10  1  0  0  0  0
  4  3  1  0  0  0  0
  5  4  2  0  0  0  0
  6  1  2  0  0  0  0
  6  5  1  0  0  0  0
  7  1  1  0  0  0  0
  9  5  1  0  0  0  0
 10 12  1  0  0  0  0
 10 13  1  0  0  0  0
 10 11  1  0  0  0  0
 13 14  2  0  0  0  0
 14 15  1  0  0  0  0
 16 15  1  0  0  0  0
M  END
>  <minimizedAffinity>
-3.10960245

$$$$
