
 OpenBabel03262520323D

 18 18  0  0  0  0  0  0  0  0999 V2000
   37.3610   30.2570   51.4570 C   0  0  0  0  0  0  0  0  0  0  0  0
   38.1290   30.7750   50.4010 C   0  0  0  0  0  0  0  0  0  0  0  0
   37.7610   30.4500   49.0690 C   0  0  0  0  0  0  0  0  0  0  0  0
   36.6680   29.6430   48.9090 N   0  0  0  0  0  0  0  0  0  0  0  0
   35.9670   29.1730   49.9660 C   0  0  0  0  0  0  0  0  0  0  0  0
   36.3100   29.4770   51.2120 N   0  0  0  0  0  0  0  0  0  0  0  0
   37.5930   30.4700   52.4920 H   0  0  0  0  0  0  0  0  0  0  0  0
   38.9740   31.4020   50.6010 H   0  0  0  0  0  0  0  0  0  0  0  0
   38.3290   30.8300   48.2320 H   0  0  0  0  0  0  0  0  0  0  0  0
   34.8290   28.3280   49.6590 C   0  0  0  0  0  3  0  0  0  0  0  0
   34.4800   28.1620   48.4230 C   0  0  0  0  0  3  0  0  0  0  0  0
   33.3760   27.3630   47.8600 C   0  0  0  0  0  0  0  0  0  0  0  0
   32.4540   27.9870   47.8840 H   0  0  0  0  0  0  0  0  0  0  0  0
   33.2480   26.4810   48.5480 H   0  0  0  0  0  0  0  0  0  0  0  0
   33.6910   26.8250   46.5160 C   0  0  0  0  0  3  0  0  0  0  0  0
   33.9400   25.5690   46.2420 C   0  0  0  0  0  3  0  0  0  0  0  0
   33.9170   24.5650   47.3310 C   0  0  0  0  0  2  0  0  0  0  0  0
   33.0920   24.6790   48.0480 H   0  0  0  0  0  0  0  0  0  0  0  0
  1  7  1  0  0  0  0
  2  8  1  0  0  0  0
  2  1  2  0  0  0  0
  3  2  1  0  0  0  0
  4  3  2  0  0  0  0
  4  5  1  0  0  0  0
  5  6  2  0  0  0  0
  6  1  1  0  0  0  0
  9  3  1  0  0  0  0
 10  5  1  0  0  0  0
 11 10  2  0  0  0  0
 12 13  1  0  0  0  0
 12 11  1  0  0  0  0
 12 14  1  0  0  0  0
 15 12  1  0  0  0  0
 16 15  2  0  0  0  0
 16 17  1  0  0  0  0
 17 18  1  0  0  0  0
M  END
>  <minimizedAffinity>
-4.18729544

>  <minimizedRMSD>
0.874702036

$$$$
