
 OpenBabel03272509403D

 30 31  0  0  1  0  0  0  0  0999 V2000
   37.0660   30.9530   49.0490 C   0  0  0  0  0  0  0  0  0  0  0  0
   36.8250   31.9080   50.0460 C   0  0  0  0  0  0  0  0  0  0  0  0
   37.4310   33.1450   50.0740 C   0  0  0  0  0  0  0  0  0  0  0  0
   38.3320   33.4770   49.0660 C   0  0  0  0  0  0  0  0  0  0  0  0
   38.5670   32.5480   48.0940 C   0  0  0  0  0  0  0  0  0  0  0  0
   37.9500   31.3300   48.0940 C   0  0  0  0  0  0  0  0  0  0  0  0
   36.1450   31.7180   50.8510 H   0  0  0  0  0  0  0  0  0  0  0  0
   37.2260   33.8620   50.8550 H   0  0  0  0  0  0  0  0  0  0  0  0
   38.7930   34.4490   49.1070 H   0  0  0  0  0  0  0  0  0  0  0  0
   39.2820   32.8860   47.3460 H   0  0  0  0  0  0  0  0  0  0  0  0
   36.3750   29.6840   49.1170 C   0  0  1  0  0  3  0  0  0  0  0  0
   36.9120   28.8340   49.9280 O   0  0  0  0  0  1  0  0  0  0  0  0
   33.6040   30.1560   46.8320 C   0  0  0  0  0  0  0  0  0  0  0  0
   32.9410   28.9310   46.8520 C   0  0  0  0  0  0  0  0  0  0  0  0
   33.4470   27.9310   47.6570 C   0  0  0  0  0  0  0  0  0  0  0  0
   34.5610   28.1740   48.3920 N   0  0  0  0  0  0  0  0  0  0  0  0
   35.1830   29.3360   48.3690 C   0  0  0  0  0  0  0  0  0  0  0  0
   34.6880   30.3250   47.5780 N   0  0  0  0  0  0  0  0  0  0  0  0
   33.1720   30.9110   46.1870 H   0  0  0  0  0  0  0  0  0  0  0  0
   32.0580   28.7350   46.2690 H   0  0  0  0  0  0  0  0  0  0  0  0
   32.9690   26.9660   47.7060 H   0  0  0  0  0  0  0  0  0  0  0  0
   38.3040   30.4460   46.9920 C   0  0  0  0  0  3  0  0  0  0  0  0
   38.9300   30.7960   45.8840 C   0  0  0  0  0  3  0  0  0  0  0  0
   39.3530   30.0400   44.7030 C   0  0  0  0  0  0  0  0  0  0  0  0
   39.3170   28.9410   44.9570 H   0  0  0  0  0  0  0  0  0  0  0  0
   40.3490   30.3010   44.3060 H   0  0  0  0  0  0  0  0  0  0  0  0
   38.3210   30.1910   43.6230 C   0  0  0  0  0  3  0  0  0  0  0  0
   37.3610   29.2900   43.4340 C   0  0  0  0  0  3  0  0  0  0  0  0
   36.3230   29.3980   42.3810 C   0  0  0  0  0  2  0  0  0  0  0  0
   36.6820   29.9850   41.4980 H   0  0  0  0  0  0  0  0  0  0  0  0
  1 11  1  0  0  0  0
  1  2  1  0  0  0  0
  2  3  2  0  0  0  0
  2  7  1  0  0  0  0
  3  8  1  0  0  0  0
  4  9  1  0  0  0  0
  4  3  1  0  0  0  0
  5  4  2  0  0  0  0
  6  5  1  0  0  0  0
  6  1  2  0  0  0  0
 10  5  1  0  0  0  0
 11 12  1  1  0  0  0
 13 14  2  0  0  0  0
 13 18  1  0  0  0  0
 14 15  1  0  0  0  0
 15 21  1  0  0  0  0
 15 16  2  0  0  0  0
 17 16  1  0  0  0  0
 17 11  1  0  0  0  0
 18 17  2  0  0  0  0
 19 13  1  0  0  0  0
 20 14  1  0  0  0  0
 22  6  1  0  0  0  0
 23 22  2  0  0  0  0
 24 25  1  0  0  0  0
 24 23  1  0  0  0  0
 26 24  1  0  0  0  0
 27 24  1  0  0  0  0
 28 27  2  0  0  0  0
 29 28  1  0  0  0  0
 30 29  1  0  0  0  0
M  END
>  <minimizedAffinity>
-5.38083315

>  <minimizedRMSD>
0.299043417

$$$$
