
 OpenBabel03262520323D

 18 18  0  0  0  0  0  0  0  0999 V2000
   37.3860   30.2860   51.4570 C   0  0  0  0  0  0  0  0  0  0  0  0
   38.1500   30.8160   50.4040 C   0  0  0  0  0  0  0  0  0  0  0  0
   37.7880   30.4940   49.0710 C   0  0  0  0  0  0  0  0  0  0  0  0
   36.7030   29.6760   48.9040 N   0  0  0  0  0  0  0  0  0  0  0  0
   36.0050   29.1940   49.9570 C   0  0  0  0  0  0  0  0  0  0  0  0
   36.3430   29.4960   51.2060 N   0  0  0  0  0  0  0  0  0  0  0  0
   37.6130   30.4950   52.4930 H   0  0  0  0  0  0  0  0  0  0  0  0
   38.9880   31.4510   50.6090 H   0  0  0  0  0  0  0  0  0  0  0  0
   38.3540   30.8840   48.2360 H   0  0  0  0  0  0  0  0  0  0  0  0
   34.8770   28.3390   49.6440 C   0  0  0  0  0  3  0  0  0  0  0  0
   34.4980   28.2180   48.4110 C   0  0  0  0  0  3  0  0  0  0  0  0
   33.3960   27.4200   47.8440 C   0  0  0  0  0  0  0  0  0  0  0  0
   32.8420   28.0640   47.1240 H   0  0  0  0  0  0  0  0  0  0  0  0
   32.7220   27.1610   48.7080 H   0  0  0  0  0  0  0  0  0  0  0  0
   33.8620   26.1430   47.2560 C   0  0  0  0  0  3  0  0  0  0  0  0
   33.1160   25.0850   47.0520 C   0  0  0  0  0  3  0  0  0  0  0  0
   31.6800   25.1210   47.4230 C   0  0  0  0  0  2  0  0  0  0  0  0
   31.1600   26.0540   47.1650 H   0  0  0  0  0  0  0  0  0  0  0  0
  1  7  1  0  0  0  0
  2  8  1  0  0  0  0
  2  1  2  0  0  0  0
  3  2  1  0  0  0  0
  4  3  2  0  0  0  0
  4  5  1  0  0  0  0
  5  6  2  0  0  0  0
  6  1  1  0  0  0  0
  9  3  1  0  0  0  0
 10  5  1  0  0  0  0
 11 10  2  0  0  0  0
 12 11  1  0  0  0  0
 12 14  1  0  0  0  0
 13 12  1  0  0  0  0
 15 12  1  0  0  0  0
 16 15  2  0  0  0  0
 16 17  1  0  0  0  0
 18 17  1  0  0  0  0
M  END
>  <minimizedAffinity>
-4.12690163

>  <minimizedRMSD>
0.267994225

$$$$
