
 OpenBabel03272502293D

 18 18  0  0  0  0  0  0  0  0999 V2000
   37.4090   30.2350   51.3280 C   0  0  0  0  0  0  0  0  0  0  0  0
   37.9490   30.5350   50.0760 C   0  0  0  0  0  0  0  0  0  0  0  0
   37.2700   30.1360   48.9420 C   0  0  0  0  0  0  0  0  0  0  0  0
   36.0930   29.4600   49.0870 N   0  0  0  0  0  0  0  0  0  0  0  0
   35.5910   29.1820   50.3060 C   0  0  0  0  0  0  0  0  0  0  0  0
   36.2480   29.5690   51.4140 N   0  0  0  0  0  0  0  0  0  0  0  0
   37.9080   30.5300   52.2460 H   0  0  0  0  0  0  0  0  0  0  0  0
   38.8940   31.0790   50.0350 H   0  0  0  0  0  0  0  0  0  0  0  0
   34.6460   28.6390   50.3630 H   0  0  0  0  0  0  0  0  0  0  0  0
   37.7790   30.4180   47.6350 C   0  0  0  0  0  3  0  0  0  0  0  0
   38.8160   31.1880   47.4320 C   0  0  0  0  0  3  0  0  0  0  0  0
   39.3680   31.4990   46.0780 C   0  0  0  0  0  0  0  0  0  0  0  0
   40.0860   30.6980   45.8370 H   0  0  0  0  0  0  0  0  0  0  0  0
   38.5070   31.3830   45.3690 H   0  0  0  0  0  0  0  0  0  0  0  0
   39.9170   32.8590   46.0020 C   0  0  0  0  0  3  0  0  0  0  0  0
   40.0480   33.6200   44.9200 C   0  0  0  0  0  3  0  0  0  0  0  0
   39.5960   33.0520   43.6250 C   0  0  0  0  0  2  0  0  0  0  0  0
   38.4850   33.2010   43.5120 H   0  0  0  0  0  0  0  0  0  0  0  0
  1  6  1  0  0  0  0
  1  7  1  0  0  0  0
  2  1  2  0  0  0  0
  3  4  2  0  0  0  0
  3  2  1  0  0  0  0
  4  5  1  0  0  0  0
  5  9  1  0  0  0  0
  5  6  2  0  0  0  0
  8  2  1  0  0  0  0
 10  3  1  0  0  0  0
 11 10  2  0  0  0  0
 12 11  1  0  0  0  0
 13 12  1  0  0  0  0
 14 12  1  0  0  0  0
 15 12  1  0  0  0  0
 16 15  2  0  0  0  0
 17 16  1  0  0  0  0
 18 17  1  0  0  0  0
M  END
>  <minimizedAffinity>
-4.6122489

>  <minimizedRMSD>
0.817618608

$$$$
