
 OpenBabel03272509403D

 30 31  0  0  1  0  0  0  0  0999 V2000
   37.0740   30.9660   49.0360 C   0  0  0  0  0  0  0  0  0  0  0  0
   36.8100   31.9040   50.0440 C   0  0  0  0  0  0  0  0  0  0  0  0
   37.3970   33.1490   50.0930 C   0  0  0  0  0  0  0  0  0  0  0  0
   38.3010   33.5090   49.0970 C   0  0  0  0  0  0  0  0  0  0  0  0
   38.5590   32.5960   48.1150 C   0  0  0  0  0  0  0  0  0  0  0  0
   37.9600   31.3690   48.0930 C   0  0  0  0  0  0  0  0  0  0  0  0
   36.1270   31.6930   50.8400 H   0  0  0  0  0  0  0  0  0  0  0  0
   37.1760   33.8520   50.8820 H   0  0  0  0  0  0  0  0  0  0  0  0
   38.7480   34.4860   49.1550 H   0  0  0  0  0  0  0  0  0  0  0  0
   39.2740   32.9550   47.3780 H   0  0  0  0  0  0  0  0  0  0  0  0
   36.4000   29.6870   49.0810 C   0  0  2  0  0  3  0  0  0  0  0  0
   36.9630   28.8220   49.8580 O   0  0  0  0  0  1  0  0  0  0  0  0
   33.6170   30.1630   46.8110 C   0  0  0  0  0  0  0  0  0  0  0  0
   32.9450   28.9440   46.8460 C   0  0  0  0  0  0  0  0  0  0  0  0
   33.4490   27.9460   47.6550 C   0  0  0  0  0  0  0  0  0  0  0  0
   34.5690   28.1860   48.3810 N   0  0  0  0  0  0  0  0  0  0  0  0
   35.2010   29.3430   48.3430 C   0  0  0  0  0  0  0  0  0  0  0  0
   34.7080   30.3290   47.5480 N   0  0  0  0  0  0  0  0  0  0  0  0
   33.1870   30.9160   46.1630 H   0  0  0  0  0  0  0  0  0  0  0  0
   32.0560   28.7510   46.2710 H   0  0  0  0  0  0  0  0  0  0  0  0
   32.9630   26.9860   47.7150 H   0  0  0  0  0  0  0  0  0  0  0  0
   38.3350   30.5060   46.9820 C   0  0  0  0  0  3  0  0  0  0  0  0
   39.0810   30.8480   45.9480 C   0  0  0  0  0  3  0  0  0  0  0  0
   39.5420   30.1100   44.7700 C   0  0  0  0  0  0  0  0  0  0  0  0
   40.0280   29.1530   45.1230 H   0  0  0  0  0  0  0  0  0  0  0  0
   40.2330   30.6590   44.1090 H   0  0  0  0  0  0  0  0  0  0  0  0
   38.3540   29.6380   43.9840 C   0  0  0  0  0  3  0  0  0  0  0  0
   37.6900   30.4410   43.1590 C   0  0  0  0  0  3  0  0  0  0  0  0
   36.5120   30.0180   42.3640 C   0  0  0  0  0  2  0  0  0  0  0  0
   35.9520   29.1840   42.8580 H   0  0  0  0  0  0  0  0  0  0  0  0
  1 11  1  0  0  0  0
  1  2  1  0  0  0  0
  2  3  2  0  0  0  0
  2  7  1  0  0  0  0
  3  8  1  0  0  0  0
  4  9  1  0  0  0  0
  4  3  1  0  0  0  0
  5  4  2  0  0  0  0
  6  5  1  0  0  0  0
  6  1  2  0  0  0  0
 10  5  1  0  0  0  0
 11 12  1  6  0  0  0
 13 14  2  0  0  0  0
 13 18  1  0  0  0  0
 14 15  1  0  0  0  0
 15 21  1  0  0  0  0
 15 16  2  0  0  0  0
 17 16  1  0  0  0  0
 17 11  1  0  0  0  0
 18 17  2  0  0  0  0
 19 13  1  0  0  0  0
 20 14  1  0  0  0  0
 22  6  1  0  0  0  0
 23 22  2  0  0  0  0
 24 25  1  0  0  0  0
 24 23  1  0  0  0  0
 26 24  1  0  0  0  0
 27 24  1  0  0  0  0
 28 27  2  0  0  0  0
 29 30  1  0  0  0  0
 29 28  1  0  0  0  0
M  END
>  <minimizedAffinity>
-5.33549833

>  <minimizedRMSD>
0.606627405

$$$$
