
     RDKit          3D

 24 24  0  0  0  0  0  0  0  0999 V2000
   37.3261   30.2138   51.4152 C   0  0  0  0  0  0  0  0  0  0  0  0
   38.0473   30.6598   50.3094 C   0  0  0  0  0  0  0  0  0  0  0  0
   37.6169   30.2871   49.0429 C   0  0  0  0  0  0  0  0  0  0  0  0
   36.5019   29.4988   48.9655 N   0  0  0  0  0  0  0  0  0  0  0  0
   35.8326   29.0887   50.0587 C   0  0  0  0  0  0  0  0  0  0  0  0
   36.2595   29.4566   51.2851 N   0  0  0  0  0  0  0  0  0  0  0  0
   34.7327   28.2985   49.7564 O   0  0  0  0  0  0  0  0  0  0  0  0
   34.2047   28.3919   48.4557 C   0  0  0  0  0  0  0  0  0  0  0  0
   33.8333   27.0356   47.9130 C   0  0  0  0  0  0  0  0  0  0  0  0
   37.6801   30.5174   52.4024 H   0  0  0  0  0  0  0  0  0  0  0  0
   38.9389   31.2907   50.3818 H   0  0  0  0  0  0  0  0  0  0  0  0
   38.1350   30.6025   48.1597 H   0  0  0  0  0  0  0  0  0  0  0  0
   34.9584   28.8205   47.7471 H   0  0  0  0  0  0  0  0  0  0  0  0
   33.2848   29.0205   48.4956 H   0  0  0  0  0  0  0  0  0  0  0  0
   34.7114   26.3597   47.9309 H   0  0  0  0  0  0  0  0  0  0  0  0
   32.9988   26.6510   48.5661 H   0  0  0  0  0  0  0  0  0  0  0  0
   33.2823   27.1961   46.5393 C   0  0  0  0  0  0  0  0  0  0  0  0
   33.9876   27.1728   45.4043 C   0  0  0  0  0  0  0  0  0  0  0  0
   33.4679   27.3302   44.0125 C   0  0  0  0  0  0  0  0  0  0  0  0
   32.4449   26.8595   43.9399 H   0  0  0  0  0  0  0  0  0  0  0  0
   32.1918   27.3420   46.5500 H   0  0  0  0  0  0  0  0  0  0  0  0
   35.0586   27.0180   45.5758 H   0  0  0  0  0  0  0  0  0  0  0  0
   33.3363   28.3953   43.7391 H   0  0  0  0  0  0  0  0  0  0  0  0
   34.1891   26.8158   43.3436 H   0  0  0  0  0  0  0  0  0  0  0  0
  2  1  2  0
  3  2  1  0
  4  3  2  0
  4  5  1  0
  5  6  2  0
  6  1  1  0
  7  5  1  0
  8  7  1  0
  9  8  1  0
  1 10  1  0
  2 11  1  0
  3 12  1  0
  8 13  1  0
  8 14  1  0
  9 15  1  0
  9 16  1  0
 17 18  2  3
 18 19  1  0
 19 20  1  0
 17 21  1  0
 18 22  1  0
 19 23  1  0
 19 24  1  0
  9 17  1  0
M  ISO  8  10  14  11  14  12  14  13   8  14   8  15   8  16   8  20   8
M  END
>  <DihAtoms>  (1) 
7,8,16,17

>  <DihDeg>  (1) 
120.00009976788954

$$$$
