REMARK  Name = 
REMARK  6 active torsions:
REMARK  status: ('A' for Active; 'I' for Inactive)
REMARK    1  A    between atoms: C_1  and  O_7
REMARK    2  A    between atoms: O_7  and  C_8
REMARK    3  A    between atoms: C_8  and  C_9
REMARK    4  A    between atoms: C_9  and  C_10
REMARK    5  A    between atoms: C_10  and  C_20
REMARK    6  A    between atoms: C_21  and  C_22
REMARK                            x       y       z     vdW  Elec       q    Type
REMARK                         _______ _______ _______ _____ _____    ______ ____
ROOT
ATOM      1  C   UNL     1      35.709  30.098  50.002  0.00  0.00    +0.000 C 
ATOM      2  H   UNL     1      35.693  29.598  48.993  0.00  0.00    +0.000 HD
ATOM      3  H   UNL     1      34.654  30.480  50.119  0.00  0.00    +0.000 HD
ENDROOT
BRANCH   1   4
ATOM      4  C   UNL     1      36.227  29.420  51.015  0.00  0.00    +0.000 C 
ATOM      5  H   UNL     1      35.441  29.141  51.788  0.00  0.00    +0.000 HD
ATOM      6  H   UNL     1      36.617  28.411  50.732  0.00  0.00    +0.000 HD
BRANCH   4   7
ATOM      7  C   UNL     1      37.335  29.962  51.884  0.00  0.00    +0.000 C 
ATOM      8  H   UNL     1      37.107  30.955  52.315  0.00  0.00    +0.000 HD
ATOM      9  H   UNL     1      38.205  30.094  51.206  0.00  0.00    +0.000 HD
BRANCH   7  10
ATOM     10  C   UNL     1      37.676  28.957  52.914  0.00  0.00    +0.000 C 
ATOM     11  C   UNL     1      38.113  27.724  52.713  0.00  0.00    +0.000 C 
BRANCH  11  12
ATOM     12  C   UNL     1      38.357  27.080  51.409  0.00  0.00    +0.000 C 
ATOM     13  H   UNL     1      37.487  26.408  51.173  0.00  0.00    +0.000 HD
ENDBRANCH  11  12
ENDBRANCH   7  10
ENDBRANCH   4   7
ENDBRANCH   1   4
BRANCH   1  14
ATOM     14  O   UNL     1      36.529  31.210  50.076  0.00  0.00    +0.000 OA
BRANCH  14  15
ATOM     15  C   UNL     1      37.236  31.554  48.932  0.00  0.00    +0.000 A 
ATOM     16  C   UNL     1      38.236  32.494  49.179  0.00  0.00    +0.000 A 
ATOM     17  C   UNL     1      39.022  32.928  48.120  0.00  0.00    +0.000 A 
ATOM     18  N   UNL     1      38.766  32.400  46.870  0.00  0.00    +0.000 NA
ATOM     19  C   UNL     1      37.790  31.493  46.668  0.00  0.00    +0.000 A 
ATOM     20  N   UNL     1      37.045  31.086  47.693  0.00  0.00    +0.000 NA
ATOM     21  H   UNL     1      38.444  32.917  50.166  0.00  0.00    +0.000 HD
ATOM     22  H   UNL     1      39.811  33.655  48.256  0.00  0.00    +0.000 HD
ATOM     23  H   UNL     1      37.607  31.090  45.674  0.00  0.00    +0.000 HD
ENDBRANCH  14  15
ENDBRANCH   1  14
TORSDOF 6
