
 OpenBabel03262520323D

 18 18  0  0  0  0  0  0  0  0999 V2000
   37.3630   30.2650   51.4600 C   0  0  0  0  0  0  0  0  0  0  0  0
   38.1270   30.7770   50.3980 C   0  0  0  0  0  0  0  0  0  0  0  0
   37.7530   30.4480   49.0690 C   0  0  0  0  0  0  0  0  0  0  0  0
   36.6570   29.6410   48.9170 N   0  0  0  0  0  0  0  0  0  0  0  0
   35.9600   29.1770   49.9780 C   0  0  0  0  0  0  0  0  0  0  0  0
   36.3090   29.4850   51.2220 N   0  0  0  0  0  0  0  0  0  0  0  0
   37.5990   30.4810   52.4930 H   0  0  0  0  0  0  0  0  0  0  0  0
   38.9740   31.4040   50.5920 H   0  0  0  0  0  0  0  0  0  0  0  0
   38.3180   30.8240   48.2280 H   0  0  0  0  0  0  0  0  0  0  0  0
   34.8200   28.3320   49.6800 C   0  0  0  0  0  3  0  0  0  0  0  0
   34.5070   28.1060   48.4430 C   0  0  0  0  0  3  0  0  0  0  0  0
   33.4100   27.2940   47.8880 C   0  0  0  0  0  0  0  0  0  0  0  0
   32.6500   27.9880   47.4630 H   0  0  0  0  0  0  0  0  0  0  0  0
   32.9620   26.7390   48.7590 H   0  0  0  0  0  0  0  0  0  0  0  0
   33.8870   26.2770   46.9220 C   0  0  0  0  0  3  0  0  0  0  0  0
   33.3830   25.0780   46.7720 C   0  0  0  0  0  3  0  0  0  0  0  0
   32.2390   24.6550   47.6170 C   0  0  0  0  0  2  0  0  0  0  0  0
   31.4620   25.4190   47.7590 H   0  0  0  0  0  0  0  0  0  0  0  0
  1  7  1  0  0  0  0
  2  8  1  0  0  0  0
  2  1  2  0  0  0  0
  3  2  1  0  0  0  0
  4  3  2  0  0  0  0
  4  5  1  0  0  0  0
  5  6  2  0  0  0  0
  6  1  1  0  0  0  0
  9  3  1  0  0  0  0
 10  5  1  0  0  0  0
 11 10  2  0  0  0  0
 12 11  1  0  0  0  0
 12 14  1  0  0  0  0
 13 12  1  0  0  0  0
 15 12  1  0  0  0  0
 16 15  2  0  0  0  0
 16 17  1  0  0  0  0
 17 18  1  0  0  0  0
M  END
>  <minimizedAffinity>
-4.14328766

>  <minimizedRMSD>
0.346723139

$$$$
