
 OpenBabel03262520333D

 18 18  0  0  0  0  0  0  0  0999 V2000
   39.9370   22.5990   37.1590 C   0  0  0  0  0  0  0  0  0  0  0  0
   39.1480   23.2080   38.1480 C   0  0  0  0  0  0  0  0  0  0  0  0
   37.7540   23.3390   37.9230 C   0  0  0  0  0  0  0  0  0  0  0  0
   37.2710   22.8540   36.7370 N   0  0  0  0  0  0  0  0  0  0  0  0
   38.0800   22.2780   35.8200 C   0  0  0  0  0  0  0  0  0  0  0  0
   39.3850   22.1550   36.0300 N   0  0  0  0  0  0  0  0  0  0  0  0
   41.0050   22.4720   37.2740 H   0  0  0  0  0  0  0  0  0  0  0  0
   39.5950   23.5650   39.0550 H   0  0  0  0  0  0  0  0  0  0  0  0
   37.1160   23.8020   38.6620 H   0  0  0  0  0  0  0  0  0  0  0  0
   37.4430   21.8060   34.6050 C   0  0  0  0  0  3  0  0  0  0  0  0
   36.3800   21.0710   34.6930 C   0  0  0  0  0  3  0  0  0  0  0  0
   35.5610   20.4770   33.6220 C   0  0  0  0  0  0  0  0  0  0  0  0
   34.6610   20.0180   34.0920 H   0  0  0  0  0  0  0  0  0  0  0  0
   36.1930   19.6680   33.1590 H   0  0  0  0  0  0  0  0  0  0  0  0
   35.2370   21.4460   32.5490 C   0  0  0  0  0  3  0  0  0  0  0  0
   35.5580   21.3120   31.2860 C   0  0  0  0  0  3  0  0  0  0  0  0
   36.3050   20.1090   30.8440 C   0  0  0  0  0  2  0  0  0  0  0  0
   35.9650   19.1640   31.2900 H   0  0  0  0  0  0  0  0  0  0  0  0
  1  7  1  0  0  0  0
  1  2  1  0  0  0  0
  2  8  1  0  0  0  0
  3  2  2  0  0  0  0
  3  9  1  0  0  0  0
  4  3  1  0  0  0  0
  5  6  1  0  0  0  0
  5  4  2  0  0  0  0
  6  1  2  0  0  0  0
 10 11  2  0  0  0  0
 10  5  1  0  0  0  0
 12 13  1  0  0  0  0
 12 11  1  0  0  0  0
 14 12  1  0  0  0  0
 15 12  1  0  0  0  0
 16 15  2  0  0  0  0
 17 16  1  0  0  0  0
 17 18  1  0  0  0  0
M  END
>  <minimizedAffinity>
-3.96416187

$$$$

 OpenBabel03262520333D

 18 18  0  0  0  0  0  0  0  0999 V2000
   40.1450   22.9930   36.5500 C   0  0  0  0  0  0  0  0  0  0  0  0
   39.7560   22.6980   37.8670 C   0  0  0  0  0  0  0  0  0  0  0  0
   38.6860   23.4330   38.4410 C   0  0  0  0  0  0  0  0  0  0  0  0
   38.1030   24.3920   37.6570 N   0  0  0  0  0  0  0  0  0  0  0  0
   38.5220   24.6320   36.3950 C   0  0  0  0  0  0  0  0  0  0  0  0
   39.5220   23.9450   35.8560 N   0  0  0  0  0  0  0  0  0  0  0  0
   40.9530   22.4680   36.0590 H   0  0  0  0  0  0  0  0  0  0  0  0
   40.2580   21.9330   38.4220 H   0  0  0  0  0  0  0  0  0  0  0  0
   38.3600   23.2320   39.4520 H   0  0  0  0  0  0  0  0  0  0  0  0
   37.8190   25.6750   35.6710 C   0  0  0  0  0  3  0  0  0  0  0  0
   38.1470   26.9120   35.8690 C   0  0  0  0  0  3  0  0  0  0  0  0
   37.5910   28.1370   35.2650 C   0  0  0  0  0  0  0  0  0  0  0  0
   38.4420   28.8040   34.9980 H   0  0  0  0  0  0  0  0  0  0  0  0
   36.9700   28.6260   36.0670 H   0  0  0  0  0  0  0  0  0  0  0  0
   36.6860   27.8490   34.1270 C   0  0  0  0  0  3  0  0  0  0  0  0
   35.7720   28.6630   33.6630 C   0  0  0  0  0  3  0  0  0  0  0  0
   35.5900   29.9940   34.2920 C   0  0  0  0  0  2  0  0  0  0  0  0
   36.5220   30.5170   34.5470 H   0  0  0  0  0  0  0  0  0  0  0  0
  1  2  1  0  0  0  0
  2  8  1  0  0  0  0
  2  3  2  0  0  0  0
  3  9  1  0  0  0  0
  4  3  1  0  0  0  0
  5  4  2  0  0  0  0
  6  5  1  0  0  0  0
  6  1  2  0  0  0  0
  7  1  1  0  0  0  0
 10 11  2  0  0  0  0
 10  5  1  0  0  0  0
 12 11  1  0  0  0  0
 12 14  1  0  0  0  0
 13 12  1  0  0  0  0
 15 12  1  0  0  0  0
 16 15  2  0  0  0  0
 16 17  1  0  0  0  0
 17 18  1  0  0  0  0
M  END
>  <minimizedAffinity>
-3.87278438

$$$$

 OpenBabel03262520333D

 18 18  0  0  0  0  0  0  0  0999 V2000
   37.8260   23.5500   37.7040 C   0  0  0  0  0  0  0  0  0  0  0  0
   39.0470   23.3090   38.3540 C   0  0  0  0  0  0  0  0  0  0  0  0
   40.0620   22.6050   37.6560 C   0  0  0  0  0  0  0  0  0  0  0  0
   39.7720   22.2050   36.3790 N   0  0  0  0  0  0  0  0  0  0  0  0
   38.5760   22.4650   35.8050 C   0  0  0  0  0  0  0  0  0  0  0  0
   37.6260   23.1250   36.4570 N   0  0  0  0  0  0  0  0  0  0  0  0
   37.0150   24.0810   38.1840 H   0  0  0  0  0  0  0  0  0  0  0  0
   39.2050   23.6520   39.3560 H   0  0  0  0  0  0  0  0  0  0  0  0
   41.0140   22.4010   38.1250 H   0  0  0  0  0  0  0  0  0  0  0  0
   38.3960   21.9870   34.4480 C   0  0  0  0  0  3  0  0  0  0  0  0
   37.2060   21.6850   34.0360 C   0  0  0  0  0  3  0  0  0  0  0  0
   36.7670   21.1860   32.7210 C   0  0  0  0  0  0  0  0  0  0  0  0
   36.5730   20.0930   32.8150 H   0  0  0  0  0  0  0  0  0  0  0  0
   37.6340   21.3520   32.0200 H   0  0  0  0  0  0  0  0  0  0  0  0
   35.6170   21.9450   32.1780 C   0  0  0  0  0  3  0  0  0  0  0  0
   35.7010   22.9690   31.3660 C   0  0  0  0  0  3  0  0  0  0  0  0
   37.0340   23.4440   30.9230 C   0  0  0  0  0  2  0  0  0  0  0  0
   37.7460   22.6490   30.6650 H   0  0  0  0  0  0  0  0  0  0  0  0
  1  7  1  0  0  0  0
  1  2  1  0  0  0  0
  2  8  1  0  0  0  0
  3  9  1  0  0  0  0
  3  2  2  0  0  0  0
  4  3  1  0  0  0  0
  5  4  2  0  0  0  0
  5  6  1  0  0  0  0
  6  1  2  0  0  0  0
 10  5  1  0  0  0  0
 11 10  2  0  0  0  0
 12 13  1  0  0  0  0
 12 11  1  0  0  0  0
 14 12  1  0  0  0  0
 15 12  1  0  0  0  0
 16 15  2  0  0  0  0
 17 16  1  0  0  0  0
 18 17  1  0  0  0  0
M  END
>  <minimizedAffinity>
-3.70824075

$$$$

 OpenBabel03262520333D

 18 18  0  0  0  0  0  0  0  0999 V2000
   35.9560   27.4220   31.6290 C   0  0  0  0  0  0  0  0  0  0  0  0
   36.8820   27.4430   32.6850 C   0  0  0  0  0  0  0  0  0  0  0  0
   37.3540   26.2090   33.2020 C   0  0  0  0  0  0  0  0  0  0  0  0
   36.8640   25.0690   32.6240 N   0  0  0  0  0  0  0  0  0  0  0  0
   35.9720   25.1100   31.6090 C   0  0  0  0  0  0  0  0  0  0  0  0
   35.5310   26.2650   31.1240 N   0  0  0  0  0  0  0  0  0  0  0  0
   35.5610   28.3300   31.1940 H   0  0  0  0  0  0  0  0  0  0  0  0
   37.2230   28.3750   33.0890 H   0  0  0  0  0  0  0  0  0  0  0  0
   38.0670   26.1880   34.0140 H   0  0  0  0  0  0  0  0  0  0  0  0
   35.5330   23.8310   31.0860 C   0  0  0  0  0  3  0  0  0  0  0  0
   36.0740   22.7440   31.5370 C   0  0  0  0  0  3  0  0  0  0  0  0
   35.8040   21.3420   31.1720 C   0  0  0  0  0  0  0  0  0  0  0  0
   36.7820   20.8370   31.0010 H   0  0  0  0  0  0  0  0  0  0  0  0
   35.2280   21.3770   30.2040 H   0  0  0  0  0  0  0  0  0  0  0  0
   34.9470   20.6500   32.1630 C   0  0  0  0  0  3  0  0  0  0  0  0
   35.1010   19.4140   32.5660 C   0  0  0  0  0  3  0  0  0  0  0  0
   36.2100   18.5980   32.0140 C   0  0  0  0  0  2  0  0  0  0  0  0
   37.1680   19.1260   31.9150 H   0  0  0  0  0  0  0  0  0  0  0  0
  1  2  1  0  0  0  0
  2  8  1  0  0  0  0
  2  3  2  0  0  0  0
  3  9  1  0  0  0  0
  4  3  1  0  0  0  0
  5  4  2  0  0  0  0
  6  5  1  0  0  0  0
  6  1  2  0  0  0  0
  7  1  1  0  0  0  0
 10 11  2  0  0  0  0
 10  5  1  0  0  0  0
 12 11  1  0  0  0  0
 12 15  1  0  0  0  0
 13 12  1  0  0  0  0
 14 12  1  0  0  0  0
 15 16  2  0  0  0  0
 17 16  1  0  0  0  0
 18 17  1  0  0  0  0
M  END
>  <minimizedAffinity>
-3.68531942

$$$$

 OpenBabel03262520333D

 18 18  0  0  0  0  0  0  0  0999 V2000
   39.9250   22.9980   36.9530 C   0  0  0  0  0  0  0  0  0  0  0  0
   39.3190   23.0560   38.2200 C   0  0  0  0  0  0  0  0  0  0  0  0
   38.2230   23.9360   38.4110 C   0  0  0  0  0  0  0  0  0  0  0  0
   37.8300   24.6790   37.3300 N   0  0  0  0  0  0  0  0  0  0  0  0
   38.4530   24.5820   36.1340 C   0  0  0  0  0  0  0  0  0  0  0  0
   39.4780   23.7570   35.9530 N   0  0  0  0  0  0  0  0  0  0  0  0
   40.7630   22.3470   36.7470 H   0  0  0  0  0  0  0  0  0  0  0  0
   39.6800   22.4440   39.0210 H   0  0  0  0  0  0  0  0  0  0  0  0
   37.7330   24.0060   39.3710 H   0  0  0  0  0  0  0  0  0  0  0  0
   37.9380   25.4230   35.0700 C   0  0  0  0  0  3  0  0  0  0  0  0
   37.5340   26.6210   35.3510 C   0  0  0  0  0  3  0  0  0  0  0  0
   36.9780   27.6550   34.4600 C   0  0  0  0  0  0  0  0  0  0  0  0
   37.2050   28.6510   34.9050 H   0  0  0  0  0  0  0  0  0  0  0  0
   35.8630   27.4950   34.4550 H   0  0  0  0  0  0  0  0  0  0  0  0
   37.4460   27.5130   33.0620 C   0  0  0  0  0  3  0  0  0  0  0  0
   37.0480   28.2450   32.0520 C   0  0  0  0  0  3  0  0  0  0  0  0
   36.0500   29.3190   32.2750 C   0  0  0  0  0  2  0  0  0  0  0  0
   36.2070   29.9140   33.1850 H   0  0  0  0  0  0  0  0  0  0  0  0
  1  2  1  0  0  0  0
  2  3  2  0  0  0  0
  2  8  1  0  0  0  0
  3  9  1  0  0  0  0
  4  3  1  0  0  0  0
  5  4  2  0  0  0  0
  6  5  1  0  0  0  0
  6  1  2  0  0  0  0
  7  1  1  0  0  0  0
 10 11  2  0  0  0  0
 10  5  1  0  0  0  0
 12 13  1  0  0  0  0
 12 11  1  0  0  0  0
 14 12  1  0  0  0  0
 15 12  1  0  0  0  0
 16 17  1  0  0  0  0
 16 15  2  0  0  0  0
 17 18  1  0  0  0  0
M  END
>  <minimizedAffinity>
-3.66755033

$$$$

 OpenBabel03262520333D

 18 18  0  0  0  0  0  0  0  0999 V2000
   35.8240   29.1840   33.4360 C   0  0  0  0  0  0  0  0  0  0  0  0
   36.3450   29.0380   32.1400 C   0  0  0  0  0  0  0  0  0  0  0  0
   37.2900   28.0080   31.8980 C   0  0  0  0  0  0  0  0  0  0  0  0
   37.6320   27.2200   32.9630 N   0  0  0  0  0  0  0  0  0  0  0  0
   37.0980   27.4090   34.1910 C   0  0  0  0  0  0  0  0  0  0  0  0
   36.2120   28.3710   34.4180 N   0  0  0  0  0  0  0  0  0  0  0  0
   35.1000   29.9500   33.6810 H   0  0  0  0  0  0  0  0  0  0  0  0
   36.0300   29.6930   31.3520 H   0  0  0  0  0  0  0  0  0  0  0  0
   37.7120   27.8670   30.9130 H   0  0  0  0  0  0  0  0  0  0  0  0
   37.5450   26.5050   35.2330 C   0  0  0  0  0  3  0  0  0  0  0  0
   38.4560   25.6260   34.9600 C   0  0  0  0  0  3  0  0  0  0  0  0
   39.0700   24.6090   35.8340 C   0  0  0  0  0  0  0  0  0  0  0  0
   39.5060   25.1320   36.7150 H   0  0  0  0  0  0  0  0  0  0  0  0
   39.8970   24.1390   35.2310 H   0  0  0  0  0  0  0  0  0  0  0  0
   38.1250   23.5270   36.1970 C   0  0  0  0  0  3  0  0  0  0  0  0
   37.6130   23.3360   37.3860 C   0  0  0  0  0  3  0  0  0  0  0  0
   37.9760   24.2530   38.4950 C   0  0  0  0  0  2  0  0  0  0  0  0
   38.0110   25.3160   38.2220 H   0  0  0  0  0  0  0  0  0  0  0  0
  1  7  1  0  0  0  0
  1  6  1  0  0  0  0
  2  1  2  0  0  0  0
  3  2  1  0  0  0  0
  3  4  2  0  0  0  0
  4  5  1  0  0  0  0
  5  6  2  0  0  0  0
  5 10  1  0  0  0  0
  8  2  1  0  0  0  0
  9  3  1  0  0  0  0
 11 10  2  0  0  0  0
 11 12  1  0  0  0  0
 12 15  1  0  0  0  0
 12 13  1  0  0  0  0
 14 12  1  0  0  0  0
 15 16  2  0  0  0  0
 16 17  1  0  0  0  0
 18 17  1  0  0  0  0
M  END
>  <minimizedAffinity>
-3.47972345

$$$$

 OpenBabel03262520333D

 18 18  0  0  0  0  0  0  0  0999 V2000
   37.9710   25.8460   32.4230 C   0  0  0  0  0  0  0  0  0  0  0  0
   37.2880   25.8300   31.1950 C   0  0  0  0  0  0  0  0  0  0  0  0
   36.2240   26.7470   30.9960 C   0  0  0  0  0  0  0  0  0  0  0  0
   35.9350   27.5940   32.0320 N   0  0  0  0  0  0  0  0  0  0  0  0
   36.6270   27.5630   33.1930 C   0  0  0  0  0  0  0  0  0  0  0  0
   37.6240   26.7060   33.3800 N   0  0  0  0  0  0  0  0  0  0  0  0
   38.7900   25.1710   32.6330 H   0  0  0  0  0  0  0  0  0  0  0  0
   37.5690   25.1380   30.4280 H   0  0  0  0  0  0  0  0  0  0  0  0
   35.6770   26.7620   30.0640 H   0  0  0  0  0  0  0  0  0  0  0  0
   36.2200   28.5130   34.2100 C   0  0  0  0  0  3  0  0  0  0  0  0
   35.2270   29.3100   33.9700 C   0  0  0  0  0  3  0  0  0  0  0  0
   34.6310   30.3490   34.8290 C   0  0  0  0  0  0  0  0  0  0  0  0
   33.9650   29.8450   35.5660 H   0  0  0  0  0  0  0  0  0  0  0  0
   34.0120   30.9980   34.1480 H   0  0  0  0  0  0  0  0  0  0  0  0
   35.6510   31.2230   35.4560 C   0  0  0  0  0  3  0  0  0  0  0  0
   35.4400   32.0280   36.4660 C   0  0  0  0  0  3  0  0  0  0  0  0
   34.0870   32.1080   37.0680 C   0  0  0  0  0  2  0  0  0  0  0  0
   33.5790   31.1420   37.1930 H   0  0  0  0  0  0  0  0  0  0  0  0
  1  7  1  0  0  0  0
  1  6  1  0  0  0  0
  2  1  2  0  0  0  0
  3  2  1  0  0  0  0
  3  4  2  0  0  0  0
  4  5  1  0  0  0  0
  5  6  2  0  0  0  0
  5 10  1  0  0  0  0
  8  2  1  0  0  0  0
  9  3  1  0  0  0  0
 11 10  2  0  0  0  0
 11 12  1  0  0  0  0
 12 15  1  0  0  0  0
 12 13  1  0  0  0  0
 14 12  1  0  0  0  0
 15 16  2  0  0  0  0
 16 17  1  0  0  0  0
 17 18  1  0  0  0  0
M  END
>  <minimizedAffinity>
-3.44564772

$$$$

 OpenBabel03262520333D

 18 18  0  0  0  0  0  0  0  0999 V2000
   35.7410   22.1990   31.6490 C   0  0  0  0  0  0  0  0  0  0  0  0
   35.0500   21.1240   32.2330 C   0  0  0  0  0  0  0  0  0  0  0  0
   35.5140   20.6100   33.4720 C   0  0  0  0  0  0  0  0  0  0  0  0
   36.6180   21.2090   34.0160 N   0  0  0  0  0  0  0  0  0  0  0  0
   37.2430   22.2410   33.4060 C   0  0  0  0  0  0  0  0  0  0  0  0
   36.8100   22.7240   32.2470 N   0  0  0  0  0  0  0  0  0  0  0  0
   35.4350   22.6330   30.7060 H   0  0  0  0  0  0  0  0  0  0  0  0
   34.1910   20.7050   31.7500 H   0  0  0  0  0  0  0  0  0  0  0  0
   35.0070   19.7840   33.9500 H   0  0  0  0  0  0  0  0  0  0  0  0
   38.4020   22.7850   34.0870 C   0  0  0  0  0  3  0  0  0  0  0  0
   38.2830   23.1880   35.3130 C   0  0  0  0  0  3  0  0  0  0  0  0
   39.2980   23.7700   36.2100 C   0  0  0  0  0  0  0  0  0  0  0  0
   38.9590   24.7920   36.4950 H   0  0  0  0  0  0  0  0  0  0  0  0
   40.2430   23.8460   35.6030 H   0  0  0  0  0  0  0  0  0  0  0  0
   39.5950   22.9010   37.3730 C   0  0  0  0  0  3  0  0  0  0  0  0
   40.7390   22.3060   37.6010 C   0  0  0  0  0  3  0  0  0  0  0  0
   41.8600   22.4860   36.6460 C   0  0  0  0  0  2  0  0  0  0  0  0
   41.9910   23.5110   36.2750 H   0  0  0  0  0  0  0  0  0  0  0  0
  1  2  2  0  0  0  0
  1  6  1  0  0  0  0
  2  3  1  0  0  0  0
  3  9  1  0  0  0  0
  3  4  2  0  0  0  0
  5  4  1  0  0  0  0
  5 10  1  0  0  0  0
  6  5  2  0  0  0  0
  7  1  1  0  0  0  0
  8  2  1  0  0  0  0
 10 11  2  0  0  0  0
 11 12  1  0  0  0  0
 12 13  1  0  0  0  0
 12 15  1  0  0  0  0
 14 12  1  0  0  0  0
 15 16  2  0  0  0  0
 17 16  1  0  0  0  0
 18 17  1  0  0  0  0
M  END
>  <minimizedAffinity>
-3.43186331

$$$$

 OpenBabel03262520333D

 18 18  0  0  0  0  0  0  0  0999 V2000
   33.5020   35.4230   38.6350 C   0  0  0  0  0  0  0  0  0  0  0  0
   32.1920   35.6620   38.1870 C   0  0  0  0  0  0  0  0  0  0  0  0
   31.5600   34.6830   37.3780 C   0  0  0  0  0  0  0  0  0  0  0  0
   32.2840   33.5580   37.0870 N   0  0  0  0  0  0  0  0  0  0  0  0
   33.5440   33.3830   37.5470 C   0  0  0  0  0  0  0  0  0  0  0  0
   34.1360   34.2980   38.3050 N   0  0  0  0  0  0  0  0  0  0  0  0
   34.0350   36.1320   39.2540 H   0  0  0  0  0  0  0  0  0  0  0  0
   31.6840   36.5660   38.4540 H   0  0  0  0  0  0  0  0  0  0  0  0
   30.5530   34.8330   37.0160 H   0  0  0  0  0  0  0  0  0  0  0  0
   34.2010   32.1480   37.1670 C   0  0  0  0  0  3  0  0  0  0  0  0
   35.0990   32.1710   36.2330 C   0  0  0  0  0  3  0  0  0  0  0  0
   35.8990   31.0650   35.6750 C   0  0  0  0  0  0  0  0  0  0  0  0
   35.8690   30.2200   36.3990 H   0  0  0  0  0  0  0  0  0  0  0  0
   36.9540   31.4530   35.5970 H   0  0  0  0  0  0  0  0  0  0  0  0
   35.4720   30.6880   34.3080 C   0  0  0  0  0  3  0  0  0  0  0  0
   35.6250   29.5060   33.7650 C   0  0  0  0  0  3  0  0  0  0  0  0
   36.2750   28.4230   34.5430 C   0  0  0  0  0  2  0  0  0  0  0  0
   35.9660   28.3610   35.5950 H   0  0  0  0  0  0  0  0  0  0  0  0
  1  7  1  0  0  0  0
  2  8  1  0  0  0  0
  2  1  2  0  0  0  0
  3  2  1  0  0  0  0
  4  3  2  0  0  0  0
  4  5  1  0  0  0  0
  5  6  2  0  0  0  0
  6  1  1  0  0  0  0
  9  3  1  0  0  0  0
 10  5  1  0  0  0  0
 11 10  2  0  0  0  0
 12 11  1  0  0  0  0
 12 13  1  0  0  0  0
 14 12  1  0  0  0  0
 15 12  1  0  0  0  0
 16 15  2  0  0  0  0
 16 17  1  0  0  0  0
 17 18  1  0  0  0  0
M  END
>  <minimizedAffinity>
-3.42445302

$$$$
