
 OpenBabel03272502253D

 25 26  0  0  0  0  0  0  0  0999 V2000
   37.6730   30.3580   51.1140 C   0  0  0  0  0  0  0  0  0  0  0  0
   38.0980   30.9230   49.8970 C   0  0  0  0  0  0  0  0  0  0  0  0
   37.4140   30.5690   48.7480 C   0  0  0  0  0  0  0  0  0  0  0  0
   36.3810   29.7080   48.8540 N   0  0  0  0  0  0  0  0  0  0  0  0
   35.9900   29.1780   50.0350 C   0  0  0  0  0  0  0  0  0  0  0  0
   36.6440   29.5100   51.1560 N   0  0  0  0  0  0  0  0  0  0  0  0
   38.2330   30.6590   51.9890 H   0  0  0  0  0  0  0  0  0  0  0  0
   38.9280   31.6180   49.8030 H   0  0  0  0  0  0  0  0  0  0  0  0
   37.7380   31.0660   47.4140 C   0  0  0  0  0  0  0  0  0  0  0  0
   36.9930   30.7250   46.3030 C   0  0  0  0  0  0  0  0  0  0  0  0
   37.2930   31.1850   45.0350 C   0  0  0  0  0  0  0  0  0  0  0  0
   38.3640   32.0070   44.8640 N   0  0  0  0  0  0  0  0  0  0  0  0
   39.0680   32.3230   45.9490 C   0  0  0  0  0  0  0  0  0  0  0  0
   38.7930   31.8860   47.1920 N   0  0  0  0  0  0  0  0  0  0  0  0
   36.1400   30.0690   46.4510 H   0  0  0  0  0  0  0  0  0  0  0  0
   36.6610   30.8730   44.2120 H   0  0  0  0  0  0  0  0  0  0  0  0
   40.2400   33.2170   45.7940 C   0  0  0  0  0  0  0  0  0  0  0  0
   40.3770   33.9600   46.9610 F   0  0  0  0  0  0  0  0  0  0  0  0
   41.4040   32.5000   45.5590 F   0  0  0  0  0  0  0  0  0  0  0  0
   40.0690   34.1220   44.7790 F   0  0  0  0  0  0  0  0  0  0  0  0
   34.9160   28.3080   50.0020 O   0  0  0  0  0  0  0  0  0  0  0  0
   33.7830   28.5040   49.2580 C   0  0  0  0  0  2  0  0  0  0  0  0
   33.1370   27.9600   48.2360 C   0  0  0  0  0  2  0  0  0  0  0  0
   33.7910   26.7510   47.6670 C   0  0  0  0  0  2  0  0  0  0  0  0
   33.4220   26.5220   46.6470 H   0  0  0  0  0  0  0  0  0  0  0  0
  1  6  1  0  0  0  0
  1  7  1  0  0  0  0
  2  1  2  0  0  0  0
  3  4  2  0  0  0  0
  3  2  1  0  0  0  0
  4  5  1  0  0  0  0
  5  6  2  0  0  0  0
  8  2  1  0  0  0  0
  9  3  1  0  0  0  0
 10 15  1  0  0  0  0
 10  9  2  0  0  0  0
 11 10  1  0  0  0  0
 12 11  2  0  0  0  0
 12 13  1  0  0  0  0
 13 14  2  0  0  0  0
 14  9  1  0  0  0  0
 16 11  1  0  0  0  0
 17 13  1  0  0  0  0
 17 18  1  0  0  0  0
 19 17  1  0  0  0  0
 20 17  1  0  0  0  0
 21  5  1  0  0  0  0
 22 21  1  0  0  0  0
 23 22  1  0  0  0  0
 24 23  1  0  0  0  0
 25 24  1  0  0  0  0
M  END
>  <minimizedAffinity>
-6.34508753

>  <minimizedRMSD>
0.502916574

$$$$
