REMARK  Name = 
REMARK  4 active torsions:
REMARK  status: ('A' for Active; 'I' for Inactive)
REMARK    1  A    between atoms: C_3  and  C_9
REMARK    2  A    between atoms: C_7  and  O_14
REMARK    3  A    between atoms: O_14  and  C_21
REMARK    4  A    between atoms: C_22  and  C_23
REMARK                            x       y       z     vdW  Elec       q    Type
REMARK                         _______ _______ _______ _____ _____    ______ ____
ROOT
ATOM      1 CL   UNL     1      38.413  30.608  46.790  0.00  0.00    +0.000 Cl
ATOM      2  C   UNL     1      38.837  32.056  47.697  0.00  0.00    +0.000 A 
ATOM      3  C   UNL     1      38.341  32.196  48.956  0.00  0.00    +0.000 A 
ATOM      4  C   UNL     1      38.719  33.359  49.603  0.00  0.00    +0.000 A 
ATOM      5  C   UNL     1      39.542  34.286  48.977  0.00  0.00    +0.000 A 
ATOM      6  C   UNL     1      40.006  34.092  47.720  0.00  0.00    +0.000 A 
ATOM      7  C   UNL     1      39.643  32.935  47.050  0.00  0.00    +0.000 A 
ATOM      8  H   UNL     1      38.361  33.542  50.615  0.00  0.00    +0.000 HD
ATOM      9  H   UNL     1      39.809  35.188  49.536  0.00  0.00    +0.000 HD
ATOM     10  H   UNL     1      40.643  34.858  47.299  0.00  0.00    +0.000 HD
ENDROOT
BRANCH   3  12
ATOM     11  C   UNL     1      37.943  30.426  50.659  0.00  0.00    +0.000 A 
ATOM     12  C   UNL     1      37.469  31.224  49.629  0.00  0.00    +0.000 A 
ATOM     13  C   UNL     1      36.133  31.092  49.231  0.00  0.00    +0.000 A 
ATOM     14  N   UNL     1      35.379  30.177  49.892  0.00  0.00    +0.000 NA
ATOM     15  C   UNL     1      35.845  29.418  50.877  0.00  0.00    +0.000 A 
ATOM     16  N   UNL     1      37.125  29.537  51.266  0.00  0.00    +0.000 NA
ATOM     17  H   UNL     1      38.982  30.566  50.930  0.00  0.00    +0.000 HD
ATOM     18  H   UNL     1      35.772  31.721  48.424  0.00  0.00    +0.000 HD
ATOM     19  H   UNL     1      35.235  28.692  51.397  0.00  0.00    +0.000 HD
ENDBRANCH   3  12
BRANCH   7  20
ATOM     20  O   UNL     1      40.125  32.744  45.755  0.00  0.00    +0.000 OA
BRANCH  20  21
ATOM     21  C   UNL     1      40.937  33.703  45.195  0.00  0.00    +0.000 C 
ATOM     22  C   UNL     1      40.484  34.932  45.046  0.00  0.00    +0.000 C 
BRANCH  22  23
ATOM     23  C   UNL     1      39.120  35.347  45.456  0.00  0.00    +0.000 C 
ATOM     24  H   UNL     1      38.713  36.143  44.780  0.00  0.00    +0.000 HD
ENDBRANCH  22  23
ENDBRANCH  20  21
ENDBRANCH   7  20
TORSDOF 4
