
 OpenBabel03272505023D

 24 25  0  0  0  0  0  0  0  0999 V2000
   38.5500   30.5810   46.8080 Cl  0  0  0  0  0  0  0  0  0  0  0  0
   38.9160   32.0530   47.7010 C   0  0  0  0  0  0  0  0  0  0  0  0
   38.3620   32.2130   48.9330 C   0  0  0  0  0  0  0  0  0  0  0  0
   38.6970   33.3950   49.5710 C   0  0  0  0  0  0  0  0  0  0  0  0
   39.5350   34.3190   48.9620 C   0  0  0  0  0  0  0  0  0  0  0  0
   40.0570   34.1050   47.7310 C   0  0  0  0  0  0  0  0  0  0  0  0
   39.7390   32.9290   47.0710 C   0  0  0  0  0  0  0  0  0  0  0  0
   38.2920   33.5940   50.5620 H   0  0  0  0  0  0  0  0  0  0  0  0
   39.7660   35.2360   49.5120 H   0  0  0  0  0  0  0  0  0  0  0  0
   40.7030   34.8700   47.3220 H   0  0  0  0  0  0  0  0  0  0  0  0
   37.9270   30.4330   50.6160 C   0  0  0  0  0  0  0  0  0  0  0  0
   37.4730   31.2440   49.5880 C   0  0  0  0  0  0  0  0  0  0  0  0
   36.1400   31.1290   49.1730 C   0  0  0  0  0  0  0  0  0  0  0  0
   35.3700   30.2160   49.8180 N   0  0  0  0  0  0  0  0  0  0  0  0
   35.8170   29.4440   50.8020 C   0  0  0  0  0  0  0  0  0  0  0  0
   37.0930   29.5470   51.2060 N   0  0  0  0  0  0  0  0  0  0  0  0
   38.9640   30.5610   50.9010 H   0  0  0  0  0  0  0  0  0  0  0  0
   35.7950   31.7680   48.3680 H   0  0  0  0  0  0  0  0  0  0  0  0
   35.1940   28.7200   51.3080 H   0  0  0  0  0  0  0  0  0  0  0  0
   40.2800   32.7170   45.8030 O   0  0  0  0  0  0  0  0  0  0  0  0
   39.7250   33.3610   44.7220 C   0  0  0  0  0  3  0  0  0  0  0  0
   39.6630   32.7440   43.5590 C   0  0  0  0  0  3  0  0  0  0  0  0
   40.1690   31.3660   43.3460 C   0  0  0  0  0  2  0  0  0  0  0  0
   40.5730   31.2330   42.3090 H   0  0  0  0  0  0  0  0  0  0  0  0
  1  2  1  0  0  0  0
  2  3  1  0  0  0  0
  3  4  2  0  0  0  0
  3 12  1  0  0  0  0
  4  8  1  0  0  0  0
  5  9  1  0  0  0  0
  5  4  1  0  0  0  0
  6  5  2  0  0  0  0
  7  2  2  0  0  0  0
  7  6  1  0  0  0  0
 10  6  1  0  0  0  0
 11 17  1  0  0  0  0
 11 16  1  0  0  0  0
 12 11  2  0  0  0  0
 13 12  1  0  0  0  0
 13 14  2  0  0  0  0
 14 15  1  0  0  0  0
 15 16  2  0  0  0  0
 15 19  1  0  0  0  0
 18 13  1  0  0  0  0
 20  7  1  0  0  0  0
 21 20  1  0  0  0  0
 22 21  2  0  0  0  0
 23 22  1  0  0  0  0
 24 23  1  0  0  0  0
M  END
>  <minimizedAffinity>
-5.8172636

>  <minimizedRMSD>
1.34999144

$$$$
