
 OpenBabel03272502243D

 25 26  0  0  0  0  0  0  0  0999 V2000
   37.6720   30.4060   51.0990 C   0  0  0  0  0  0  0  0  0  0  0  0
   38.1370   30.9300   49.8780 C   0  0  0  0  0  0  0  0  0  0  0  0
   37.3850   30.6830   48.7430 C   0  0  0  0  0  0  0  0  0  0  0  0
   36.2530   29.9590   48.8660 N   0  0  0  0  0  0  0  0  0  0  0  0
   35.8260   29.4660   50.0510 C   0  0  0  0  0  0  0  0  0  0  0  0
   36.5450   29.6960   51.1590 N   0  0  0  0  0  0  0  0  0  0  0  0
   38.2880   30.6210   51.9620 H   0  0  0  0  0  0  0  0  0  0  0  0
   39.0460   31.5140   49.7700 H   0  0  0  0  0  0  0  0  0  0  0  0
   37.7360   31.1530   47.4060 C   0  0  0  0  0  0  0  0  0  0  0  0
   37.0190   30.7850   46.2860 C   0  0  0  0  0  0  0  0  0  0  0  0
   37.3450   31.2190   45.0160 C   0  0  0  0  0  0  0  0  0  0  0  0
   38.4160   32.0440   44.8520 N   0  0  0  0  0  0  0  0  0  0  0  0
   39.0940   32.3860   45.9460 C   0  0  0  0  0  0  0  0  0  0  0  0
   38.7920   31.9740   47.1910 N   0  0  0  0  0  0  0  0  0  0  0  0
   36.1660   30.1270   46.4290 H   0  0  0  0  0  0  0  0  0  0  0  0
   36.7340   30.8870   44.1850 H   0  0  0  0  0  0  0  0  0  0  0  0
   40.2640   33.2830   45.7990 C   0  0  0  0  0  0  0  0  0  0  0  0
   40.4090   34.0060   46.9770 F   0  0  0  0  0  0  0  0  0  0  0  0
   41.4270   32.5700   45.5440 F   0  0  0  0  0  0  0  0  0  0  0  0
   40.0860   34.2060   44.8010 F   0  0  0  0  0  0  0  0  0  0  0  0
   34.6490   28.7410   50.0370 O   0  0  0  0  0  0  0  0  0  0  0  0
   34.3700   27.7360   49.1500 C   0  0  0  0  0  2  0  0  0  0  0  0
   33.7660   27.5550   47.9840 C   0  0  0  0  0  2  0  0  0  0  0  0
   33.1840   28.7890   47.3930 C   0  0  0  0  0  2  0  0  0  0  0  0
   32.4280   28.5590   46.6160 H   0  0  0  0  0  0  0  0  0  0  0  0
  1  6  1  0  0  0  0
  1  7  1  0  0  0  0
  2  1  2  0  0  0  0
  3  4  2  0  0  0  0
  3  2  1  0  0  0  0
  4  5  1  0  0  0  0
  5  6  2  0  0  0  0
  8  2  1  0  0  0  0
  9  3  1  0  0  0  0
 10 15  1  0  0  0  0
 10  9  2  0  0  0  0
 11 10  1  0  0  0  0
 12 11  2  0  0  0  0
 12 13  1  0  0  0  0
 13 14  2  0  0  0  0
 14  9  1  0  0  0  0
 16 11  1  0  0  0  0
 17 13  1  0  0  0  0
 17 18  1  0  0  0  0
 19 17  1  0  0  0  0
 20 17  1  0  0  0  0
 21  5  1  0  0  0  0
 22 21  1  0  0  0  0
 23 22  1  0  0  0  0
 24 23  1  0  0  0  0
 25 24  1  0  0  0  0
M  END
>  <minimizedAffinity>
-6.11691618

>  <minimizedRMSD>
0.447889924

$$$$
