
 OpenBabel03272505023D

 24 25  0  0  0  0  0  0  0  0999 V2000
   37.8900   30.6400   46.8330 Cl  0  0  0  0  0  0  0  0  0  0  0  0
   38.4890   32.0080   47.7660 C   0  0  0  0  0  0  0  0  0  0  0  0
   38.1290   32.1020   49.0740 C   0  0  0  0  0  0  0  0  0  0  0  0
   38.6390   33.2030   49.7390 C   0  0  0  0  0  0  0  0  0  0  0  0
   39.4510   34.1180   49.0810 C   0  0  0  0  0  0  0  0  0  0  0  0
   39.7760   33.9710   47.7750 C   0  0  0  0  0  0  0  0  0  0  0  0
   39.2790   32.8770   47.0860 C   0  0  0  0  0  0  0  0  0  0  0  0
   38.3940   33.3470   50.7900 H   0  0  0  0  0  0  0  0  0  0  0  0
   39.8260   34.9700   49.6560 H   0  0  0  0  0  0  0  0  0  0  0  0
   40.4140   34.7240   47.3320 H   0  0  0  0  0  0  0  0  0  0  0  0
   37.7550   30.3880   50.8380 C   0  0  0  0  0  0  0  0  0  0  0  0
   37.2700   31.1430   49.7810 C   0  0  0  0  0  0  0  0  0  0  0  0
   35.9360   30.9790   49.3890 C   0  0  0  0  0  0  0  0  0  0  0  0
   35.1940   30.0770   50.0820 N   0  0  0  0  0  0  0  0  0  0  0  0
   35.6710   29.3600   51.0920 C   0  0  0  0  0  0  0  0  0  0  0  0
   36.9490   29.5100   51.4770 N   0  0  0  0  0  0  0  0  0  0  0  0
   38.7920   30.5510   51.1040 H   0  0  0  0  0  0  0  0  0  0  0  0
   35.5670   31.5740   48.5600 H   0  0  0  0  0  0  0  0  0  0  0  0
   35.0700   28.6440   51.6380 H   0  0  0  0  0  0  0  0  0  0  0  0
   39.6180   32.7350   45.7410 O   0  0  0  0  0  0  0  0  0  0  0  0
   40.7940   32.1010   45.4110 C   0  0  0  0  0  3  0  0  0  0  0  0
   40.8030   31.2160   44.4330 C   0  0  0  0  0  3  0  0  0  0  0  0
   39.5920   30.8570   43.6560 C   0  0  0  0  0  2  0  0  0  0  0  0
   39.6130   29.7830   43.3360 H   0  0  0  0  0  0  0  0  0  0  0  0
  1  2  1  0  0  0  0
  2  3  1  0  0  0  0
  3  4  2  0  0  0  0
  3 12  1  0  0  0  0
  4  8  1  0  0  0  0
  5  9  1  0  0  0  0
  5  4  1  0  0  0  0
  6  5  2  0  0  0  0
  7  2  2  0  0  0  0
  7  6  1  0  0  0  0
 10  6  1  0  0  0  0
 11 17  1  0  0  0  0
 11 16  1  0  0  0  0
 12 11  2  0  0  0  0
 13 12  1  0  0  0  0
 13 14  2  0  0  0  0
 14 15  1  0  0  0  0
 15 16  2  0  0  0  0
 15 19  1  0  0  0  0
 18 13  1  0  0  0  0
 20  7  1  0  0  0  0
 21 20  1  0  0  0  0
 22 21  2  0  0  0  0
 23 22  1  0  0  0  0
 24 23  1  0  0  0  0
M  END
>  <minimizedAffinity>
-5.73020983

>  <minimizedRMSD>
1.28142512

$$$$
