
 OpenBabel03272505023D

 24 25  0  0  0  0  0  0  0  0999 V2000
   38.5500   30.5810   46.8060 Cl  0  0  0  0  0  0  0  0  0  0  0  0
   38.9150   32.0530   47.7000 C   0  0  0  0  0  0  0  0  0  0  0  0
   38.3610   32.2120   48.9320 C   0  0  0  0  0  0  0  0  0  0  0  0
   38.6960   33.3930   49.5710 C   0  0  0  0  0  0  0  0  0  0  0  0
   39.5350   34.3180   48.9630 C   0  0  0  0  0  0  0  0  0  0  0  0
   40.0570   34.1040   47.7320 C   0  0  0  0  0  0  0  0  0  0  0  0
   39.7390   32.9290   47.0710 C   0  0  0  0  0  0  0  0  0  0  0  0
   38.2900   33.5920   50.5620 H   0  0  0  0  0  0  0  0  0  0  0  0
   39.7650   35.2340   49.5140 H   0  0  0  0  0  0  0  0  0  0  0  0
   40.7030   34.8690   47.3240 H   0  0  0  0  0  0  0  0  0  0  0  0
   37.9260   30.4300   50.6130 C   0  0  0  0  0  0  0  0  0  0  0  0
   37.4720   31.2430   49.5860 C   0  0  0  0  0  0  0  0  0  0  0  0
   36.1390   31.1290   49.1730 C   0  0  0  0  0  0  0  0  0  0  0  0
   35.3680   30.2160   49.8160 N   0  0  0  0  0  0  0  0  0  0  0  0
   35.8150   29.4420   50.7980 C   0  0  0  0  0  0  0  0  0  0  0  0
   37.0920   29.5430   51.2020 N   0  0  0  0  0  0  0  0  0  0  0  0
   38.9640   30.5560   50.8960 H   0  0  0  0  0  0  0  0  0  0  0  0
   35.7930   31.7700   48.3680 H   0  0  0  0  0  0  0  0  0  0  0  0
   35.1920   28.7170   51.3040 H   0  0  0  0  0  0  0  0  0  0  0  0
   40.2810   32.7180   45.8030 O   0  0  0  0  0  0  0  0  0  0  0  0
   39.7240   33.3610   44.7220 C   0  0  0  0  0  3  0  0  0  0  0  0
   39.6630   32.7430   43.5590 C   0  0  0  0  0  3  0  0  0  0  0  0
   40.1690   31.3650   43.3480 C   0  0  0  0  0  2  0  0  0  0  0  0
   40.5740   31.2320   42.3110 H   0  0  0  0  0  0  0  0  0  0  0  0
  1  2  1  0  0  0  0
  2  3  1  0  0  0  0
  3  4  2  0  0  0  0
  3 12  1  0  0  0  0
  4  8  1  0  0  0  0
  5  9  1  0  0  0  0
  5  4  1  0  0  0  0
  6  5  2  0  0  0  0
  7  2  2  0  0  0  0
  7  6  1  0  0  0  0
 10  6  1  0  0  0  0
 11 17  1  0  0  0  0
 11 16  1  0  0  0  0
 12 11  2  0  0  0  0
 13 12  1  0  0  0  0
 13 14  2  0  0  0  0
 14 15  1  0  0  0  0
 15 16  2  0  0  0  0
 15 19  1  0  0  0  0
 18 13  1  0  0  0  0
 20  7  1  0  0  0  0
 21 20  1  0  0  0  0
 22 21  2  0  0  0  0
 23 22  1  0  0  0  0
 24 23  1  0  0  0  0
M  END
>  <minimizedAffinity>
-5.81692934

>  <minimizedRMSD>
0.771287501

$$$$
