
 OpenBabel03272504243D

 34 36  0  0  0  0  0  0  0  0999 V2000
   35.9330   30.0950   48.4800 C   0  0  0  0  0  0  0  0  0  0  0  0
   35.7940   29.2170   49.4750 C   0  0  0  0  0  0  0  0  0  0  0  0
   34.7380   28.4190   49.5770 C   0  0  0  0  0  0  0  0  0  0  0  0
   33.7830   28.5090   48.6290 N   0  0  0  0  0  0  0  0  0  0  0  0
   33.8980   29.3770   47.6140 C   0  0  0  0  0  0  0  0  0  0  0  0
   34.9690   30.1750   47.5320 N   0  0  0  0  0  0  0  0  0  0  0  0
   36.5350   29.1060   50.2540 H   0  0  0  0  0  0  0  0  0  0  0  0
   34.5770   27.6890   50.3710 H   0  0  0  0  0  0  0  0  0  0  0  0
   32.2340   28.2020   46.2680 C   0  0  0  0  0  0  0  0  0  0  0  0
   32.8310   29.4100   46.6320 C   0  0  0  0  0  0  0  0  0  0  0  0
   32.4470   30.6320   46.1380 C   0  0  0  0  0  0  0  0  0  0  0  0
   31.4070   30.7280   45.2190 C   0  0  0  0  0  0  0  0  0  0  0  0
   30.7610   29.5720   44.8070 C   0  0  0  0  0  0  0  0  0  0  0  0
   31.2140   28.4040   45.3530 C   0  0  0  0  0  0  0  0  0  0  0  0
   32.9590   31.5430   46.4660 H   0  0  0  0  0  0  0  0  0  0  0  0
   31.1420   31.7090   44.8600 H   0  0  0  0  0  0  0  0  0  0  0  0
   29.9630   29.6120   44.1070 H   0  0  0  0  0  0  0  0  0  0  0  0
   30.6780   27.5050   45.0040 H   0  0  0  0  0  0  0  0  0  0  0  0
   32.6890   26.6840   46.8980 S   0  0  0  0  0  0  0  0  0  0  0  0
   31.9870   25.7810   45.9330 O   0  0  0  0  0  0  0  0  0  0  0  0
   31.9810   26.3150   48.1400 O   0  0  0  0  0  0  0  0  0  0  0  0
   34.0000   25.7050   46.3910 C   0  0  0  0  0  3  0  0  0  0  0  0
   34.4260   24.5950   45.8830 C   0  0  0  0  0  3  0  0  0  0  0  0
   35.7530   24.0150   45.5480 C   0  0  0  0  0  2  0  0  0  0  0  0
   35.8260   23.0310   46.0540 H   0  0  0  0  0  0  0  0  0  0  0  0
   38.1160   32.9430   49.3100 C   0  0  0  0  0  0  0  0  0  0  0  0
   39.0610   32.9010   48.2480 C   0  0  0  0  0  0  0  0  0  0  0  0
   38.9190   31.8840   47.2730 C   0  0  0  0  0  0  0  0  0  0  0  0
   37.8880   30.9950   47.3950 N   0  0  0  0  0  0  0  0  0  0  0  0
   37.0250   31.0630   48.3980 C   0  0  0  0  0  0  0  0  0  0  0  0
   37.1380   32.0390   49.3580 N   0  0  0  0  0  0  0  0  0  0  0  0
   38.1560   33.6840   50.0910 H   0  0  0  0  0  0  0  0  0  0  0  0
   39.8450   33.6340   48.2190 H   0  0  0  0  0  0  0  0  0  0  0  0
   39.6300   31.8430   46.4610 H   0  0  0  0  0  0  0  0  0  0  0  0
  1  2  1  0  0  0  0
  2  3  2  0  0  0  0
  2  7  1  0  0  0  0
  3  8  1  0  0  0  0
  4  3  1  0  0  0  0
  5  4  2  0  0  0  0
  6  5  1  0  0  0  0
  6  1  2  0  0  0  0
  9 10  1  0  0  0  0
  9 19  1  0  0  0  0
 10  5  1  0  0  0  0
 11 15  1  0  0  0  0
 11 10  2  0  0  0  0
 12 11  1  0  0  0  0
 13 12  2  0  0  0  0
 13 14  1  0  0  0  0
 14  9  2  0  0  0  0
 16 12  1  0  0  0  0
 17 13  1  0  0  0  0
 18 14  1  0  0  0  0
 19 21  2  0  0  0  0
 20 19  2  0  0  0  0
 22 19  1  0  0  0  0
 23 22  2  0  0  0  0
 24 23  1  0  0  0  0
 24 25  1  0  0  0  0
 26 31  1  0  0  0  0
 26 32  1  0  0  0  0
 27 26  2  0  0  0  0
 28 29  2  0  0  0  0
 28 27  1  0  0  0  0
 29 30  1  0  0  0  0
 30  1  1  0  0  0  0
 30 31  2  0  0  0  0
 33 27  1  0  0  0  0
 34 28  1  0  0  0  0
M  END
>  <minimizedAffinity>
-5.27790594

>  <minimizedRMSD>
1.48485088

$$$$
