
 OpenBabel03272504243D

 34 36  0  0  0  0  0  0  0  0999 V2000
   35.9580   30.1110   48.4200 C   0  0  0  0  0  0  0  0  0  0  0  0
   35.8630   29.2250   49.4120 C   0  0  0  0  0  0  0  0  0  0  0  0
   34.7960   28.4520   49.5750 C   0  0  0  0  0  0  0  0  0  0  0  0
   33.7820   28.5780   48.6940 N   0  0  0  0  0  0  0  0  0  0  0  0
   33.8520   29.4560   47.6840 C   0  0  0  0  0  0  0  0  0  0  0  0
   34.9360   30.2270   47.5380 N   0  0  0  0  0  0  0  0  0  0  0  0
   36.6500   29.0860   50.1390 H   0  0  0  0  0  0  0  0  0  0  0  0
   34.6690   27.7160   50.3710 H   0  0  0  0  0  0  0  0  0  0  0  0
   31.9180   28.3960   46.6360 C   0  0  0  0  0  0  0  0  0  0  0  0
   32.7230   29.5270   46.7750 C   0  0  0  0  0  0  0  0  0  0  0  0
   32.4920   30.7150   46.1260 C   0  0  0  0  0  0  0  0  0  0  0  0
   31.4060   30.8520   45.2700 C   0  0  0  0  0  0  0  0  0  0  0  0
   30.5550   29.7740   45.0770 C   0  0  0  0  0  0  0  0  0  0  0  0
   30.8680   28.6340   45.7650 C   0  0  0  0  0  0  0  0  0  0  0  0
   33.1650   31.5660   46.2810 H   0  0  0  0  0  0  0  0  0  0  0  0
   31.2660   31.8040   44.7830 H   0  0  0  0  0  0  0  0  0  0  0  0
   29.7170   29.8470   44.4300 H   0  0  0  0  0  0  0  0  0  0  0  0
   30.1710   27.7970   45.5900 H   0  0  0  0  0  0  0  0  0  0  0  0
   32.1840   26.9270   47.4590 S   0  0  0  0  0  0  0  0  0  0  0  0
   31.3530   26.0060   46.6220 O   0  0  0  0  0  0  0  0  0  0  0  0
   31.4590   26.8180   48.7400 O   0  0  0  0  0  0  0  0  0  0  0  0
   33.3470   25.7270   47.0820 C   0  0  0  0  0  0  0  0  0  0  0  0
   34.1500   25.1890   46.2240 C   0  0  0  0  0  0  0  0  0  0  0  0
   35.1070   24.0510   46.2250 C   0  0  0  0  0  0  0  0  0  0  0  0
   34.8360   23.3860   45.3810 H   0  0  0  0  0  0  0  0  0  0  0  0
   38.2270   32.9320   49.0990 C   0  0  0  0  0  0  0  0  0  0  0  0
   39.1340   32.8410   48.0090 C   0  0  0  0  0  0  0  0  0  0  0  0
   38.9390   31.8020   47.0670 C   0  0  0  0  0  0  0  0  0  0  0  0
   37.8940   30.9390   47.2470 N   0  0  0  0  0  0  0  0  0  0  0  0
   37.0660   31.0520   48.2750 C   0  0  0  0  0  0  0  0  0  0  0  0
   37.2320   32.0510   49.2040 N   0  0  0  0  0  0  0  0  0  0  0  0
   38.3080   33.6930   49.8570 H   0  0  0  0  0  0  0  0  0  0  0  0
   39.9320   33.5560   47.9330 H   0  0  0  0  0  0  0  0  0  0  0  0
   39.6220   31.7230   46.2340 H   0  0  0  0  0  0  0  0  0  0  0  0
  1  2  1  0  0  0  0
  2  3  2  0  0  0  0
  2  7  1  0  0  0  0
  3  8  1  0  0  0  0
  4  3  1  0  0  0  0
  5  4  2  0  0  0  0
  6  5  1  0  0  0  0
  6  1  2  0  0  0  0
  9 10  1  0  0  0  0
  9 19  1  0  0  0  0
 10  5  1  0  0  0  0
 11 15  1  0  0  0  0
 11 10  2  0  0  0  0
 12 11  1  0  0  0  0
 13 12  2  0  0  0  0
 13 14  1  0  0  0  0
 14  9  2  0  0  0  0
 16 12  1  0  0  0  0
 17 13  1  0  0  0  0
 18 14  1  0  0  0  0
 19 21  2  0  0  0  0
 20 19  2  0  0  0  0
 22 19  1  0  0  0  0
 23 24  1  0  0  0  0
 23 22  2  0  0  0  0
 25 24  1  0  0  0  0
 26 31  1  0  0  0  0
 26 32  1  0  0  0  0
 27 26  2  0  0  0  0
 28 29  2  0  0  0  0
 28 27  1  0  0  0  0
 29 30  1  0  0  0  0
 30  1  1  0  0  0  0
 30 31  2  0  0  0  0
 33 27  1  0  0  0  0
 34 28  1  0  0  0  0
M  END
>  <minimizedAffinity>
-5.30327988

>  <minimizedRMSD>
1.01864922

$$$$
