
 OpenBabel03272507373D

 18 18  0  0  0  0  0  0  0  0999 V2000
   36.8140   30.4650   47.7980 C   0  0  0  0  0  0  0  0  0  0  0  0
   37.8410   31.1330   47.1630 C   0  0  0  0  0  0  0  0  0  0  0  0
   37.7660   31.3460   45.8000 C   0  0  0  0  0  0  0  0  0  0  0  0
   36.6620   30.8780   45.1410 N   0  0  0  0  0  0  0  0  0  0  0  0
   35.6620   30.2220   45.7860 C   0  0  0  0  0  0  0  0  0  0  0  0
   35.7500   30.0230   47.1090 N   0  0  0  0  0  0  0  0  0  0  0  0
   38.5390   31.8650   45.2380 H   0  0  0  0  0  0  0  0  0  0  0  0
   34.7930   29.8540   45.2590 H   0  0  0  0  0  0  0  0  0  0  0  0
   38.9080   32.7770   48.6020 C   0  0  0  0  0  0  0  0  0  0  0  0
   37.9740   33.5630   48.9930 O   0  0  0  0  0  0  0  0  0  0  0  0
   38.9920   31.6360   47.7810 N   0  0  0  0  0  0  0  0  0  0  0  0
   39.7620   33.2280   49.1030 H   0  0  0  0  0  0  0  0  0  0  0  0
   39.9370   31.2480   47.6960 H   0  0  0  0  0  0  0  0  0  0  0  0
   37.0290   30.3260   49.1640 O   0  0  0  0  0  0  0  0  0  0  0  0
   36.0660   29.6010   49.8510 C   0  0  0  0  0  3  0  0  0  0  0  0
   36.2080   29.4140   51.1450 C   0  0  0  0  0  3  0  0  0  0  0  0
   37.3330   29.9160   51.9710 C   0  0  0  0  0  2  0  0  0  0  0  0
   38.0440   30.5530   51.3890 H   0  0  0  0  0  0  0  0  0  0  0  0
  1 14  1  0  0  0  0
  2 11  1  0  0  0  0
  2  1  1  0  0  0  0
  3  2  2  0  0  0  0
  4  5  2  0  0  0  0
  4  3  1  0  0  0  0
  5  6  1  0  0  0  0
  6  1  2  0  0  0  0
  7  3  1  0  0  0  0
  8  5  1  0  0  0  0
  9 10  2  0  0  0  0
  9 12  1  0  0  0  0
 11  9  1  0  0  0  0
 13 11  1  0  0  0  0
 14 15  1  0  0  0  0
 15 16  2  0  0  0  0
 16 17  1  0  0  0  0
 18 17  1  0  0  0  0
M  END
>  <minimizedAffinity>
-4.09088516

>  <minimizedRMSD>
3.20146585

$$$$
