
 OpenBabel03272504243D

 34 36  0  0  0  0  0  0  0  0999 V2000
   35.8230   29.8980   48.3990 C   0  0  0  0  0  0  0  0  0  0  0  0
   35.6710   29.0630   49.4290 C   0  0  0  0  0  0  0  0  0  0  0  0
   34.6020   28.2880   49.5630 C   0  0  0  0  0  0  0  0  0  0  0  0
   33.6470   28.3550   48.6130 N   0  0  0  0  0  0  0  0  0  0  0  0
   33.7750   29.1800   47.5640 C   0  0  0  0  0  0  0  0  0  0  0  0
   34.8590   29.9550   47.4480 N   0  0  0  0  0  0  0  0  0  0  0  0
   36.4100   28.9720   50.2110 H   0  0  0  0  0  0  0  0  0  0  0  0
   34.4300   27.5930   50.3870 H   0  0  0  0  0  0  0  0  0  0  0  0
   32.1450   27.9680   46.2080 C   0  0  0  0  0  0  0  0  0  0  0  0
   32.7070   29.1900   46.5820 C   0  0  0  0  0  0  0  0  0  0  0  0
   32.2880   30.4050   46.0980 C   0  0  0  0  0  0  0  0  0  0  0  0
   31.2460   30.4780   45.1810 C   0  0  0  0  0  0  0  0  0  0  0  0
   30.6330   29.3090   44.7580 C   0  0  0  0  0  0  0  0  0  0  0  0
   31.1200   28.1490   45.2940 C   0  0  0  0  0  0  0  0  0  0  0  0
   32.7740   31.3270   46.4340 H   0  0  0  0  0  0  0  0  0  0  0  0
   30.9530   31.4550   44.8300 H   0  0  0  0  0  0  0  0  0  0  0  0
   29.8350   29.3310   44.0590 H   0  0  0  0  0  0  0  0  0  0  0  0
   30.6100   27.2390   44.9380 H   0  0  0  0  0  0  0  0  0  0  0  0
   32.6440   26.4590   46.8240 S   0  0  0  0  0  0  0  0  0  0  0  0
   32.0120   25.5470   45.8200 O   0  0  0  0  0  0  0  0  0  0  0  0
   31.9130   26.0360   48.0350 O   0  0  0  0  0  0  0  0  0  0  0  0
   34.0100   25.5460   46.3430 C   0  0  0  0  0  3  0  0  0  0  0  0
   34.5020   24.4490   45.8680 C   0  0  0  0  0  3  0  0  0  0  0  0
   35.8610   23.9400   45.5460 C   0  0  0  0  0  2  0  0  0  0  0  0
   35.9960   22.9800   46.0830 H   0  0  0  0  0  0  0  0  0  0  0  0
   38.0570   32.7360   49.1150 C   0  0  0  0  0  0  0  0  0  0  0  0
   38.9960   32.6400   48.0510 C   0  0  0  0  0  0  0  0  0  0  0  0
   38.8320   31.5910   47.1140 C   0  0  0  0  0  0  0  0  0  0  0  0
   37.7870   30.7250   47.2730 N   0  0  0  0  0  0  0  0  0  0  0  0
   36.9300   30.8440   48.2760 C   0  0  0  0  0  0  0  0  0  0  0  0
   37.0650   31.8520   49.2000 N   0  0  0  0  0  0  0  0  0  0  0  0
   38.1130   33.5050   49.8680 H   0  0  0  0  0  0  0  0  0  0  0  0
   39.7920   33.3580   47.9920 H   0  0  0  0  0  0  0  0  0  0  0  0
   39.5390   31.5080   46.3010 H   0  0  0  0  0  0  0  0  0  0  0  0
  1  2  1  0  0  0  0
  2  3  2  0  0  0  0
  2  7  1  0  0  0  0
  3  8  1  0  0  0  0
  4  3  1  0  0  0  0
  5  4  2  0  0  0  0
  6  5  1  0  0  0  0
  6  1  2  0  0  0  0
  9 10  1  0  0  0  0
  9 19  1  0  0  0  0
 10  5  1  0  0  0  0
 11 15  1  0  0  0  0
 11 10  2  0  0  0  0
 12 11  1  0  0  0  0
 13 12  2  0  0  0  0
 13 14  1  0  0  0  0
 14  9  2  0  0  0  0
 16 12  1  0  0  0  0
 17 13  1  0  0  0  0
 18 14  1  0  0  0  0
 19 21  2  0  0  0  0
 20 19  2  0  0  0  0
 22 19  1  0  0  0  0
 23 22  2  0  0  0  0
 24 23  1  0  0  0  0
 24 25  1  0  0  0  0
 26 31  1  0  0  0  0
 26 32  1  0  0  0  0
 27 26  2  0  0  0  0
 28 29  2  0  0  0  0
 28 27  1  0  0  0  0
 29 30  1  0  0  0  0
 30  1  1  0  0  0  0
 30 31  2  0  0  0  0
 33 27  1  0  0  0  0
 34 28  1  0  0  0  0
M  END
>  <minimizedAffinity>
-5.16976595

>  <minimizedRMSD>
1.53913951

$$$$
