
     RDKit          3D

 38 40  0  0  0  0  0  0  0  0999 V2000
   36.0713   30.2745   48.7082 C   0  0  0  0  0  0  0  0  0  0  0  0
   35.9704   29.4380   49.7435 C   0  0  0  0  0  0  0  0  0  0  0  0
   34.9501   28.5997   49.8831 C   0  0  0  0  0  0  0  0  0  0  0  0
   33.9917   28.6042   48.9326 N   0  0  0  0  0  0  0  0  0  0  0  0
   34.0697   29.4276   47.8786 C   0  0  0  0  0  0  0  0  0  0  0  0
   35.1051   30.2667   47.7582 N   0  0  0  0  0  0  0  0  0  0  0  0
   38.1460   33.2322   49.4200 C   0  0  0  0  0  0  0  0  0  0  0  0
   39.0720   33.2008   48.3423 C   0  0  0  0  0  0  0  0  0  0  0  0
   38.9558   32.1526   47.3967 C   0  0  0  0  0  0  0  0  0  0  0  0
   37.9663   31.2252   47.5619 N   0  0  0  0  0  0  0  0  0  0  0  0
   37.1193   31.2843   48.5791 C   0  0  0  0  0  0  0  0  0  0  0  0
   37.2080   32.2896   49.5109 N   0  0  0  0  0  0  0  0  0  0  0  0
   31.9951   28.4185   47.0786 C   0  0  0  0  0  0  0  0  0  0  0  0
   33.0029   29.3680   46.8984 C   0  0  0  0  0  0  0  0  0  0  0  0
   33.0277   30.2689   45.8625 C   0  0  0  0  0  0  0  0  0  0  0  0
   32.0142   30.2800   44.9111 C   0  0  0  0  0  0  0  0  0  0  0  0
   30.9742   29.3687   45.0200 C   0  0  0  0  0  0  0  0  0  0  0  0
   31.0368   28.5125   46.0834 C   0  0  0  0  0  0  0  0  0  0  0  0
   31.9454   27.3153   48.3772 S   0  0  0  0  0  0  0  0  0  0  0  0
   31.4386   26.1002   47.6647 O   0  0  0  0  0  0  0  0  0  0  0  0
   30.8235   27.5386   49.3103 O   0  0  0  0  0  0  0  0  0  0  0  0
   36.7144   29.3956   50.5253 H   0  0  0  0  0  0  0  0  0  0  0  0
   34.8213   27.9006   50.7112 H   0  0  0  0  0  0  0  0  0  0  0  0
   38.1680   33.9960   50.1796 H   0  0  0  0  0  0  0  0  0  0  0  0
   39.8236   33.9651   48.2783 H   0  0  0  0  0  0  0  0  0  0  0  0
   39.6542   32.1189   46.5732 H   0  0  0  0  0  0  0  0  0  0  0  0
   33.8505   30.9880   45.7789 H   0  0  0  0  0  0  0  0  0  0  0  0
   32.0783   31.0062   44.1164 H   0  0  0  0  0  0  0  0  0  0  0  0
   30.1848   29.3519   44.3100 H   0  0  0  0  0  0  0  0  0  0  0  0
   30.1953   27.8023   46.1403 H   0  0  0  0  0  0  0  0  0  0  0  0
   33.1510   26.1823   48.8181 C   0  0  0  0  0  0  0  0  0  0  0  0
   34.3813   25.9334   49.1282 C   0  0  0  0  0  0  0  0  0  0  0  0
   35.1674   24.7240   49.4883 C   0  0  0  0  0  0  0  0  0  0  0  0
   36.0333   24.6692   48.7989 H   0  0  0  0  0  0  0  0  0  0  0  0
   32.6727   25.1820   48.8688 H   0  0  0  0  0  0  0  0  0  0  0  0
   35.0114   26.8236   49.1303 H   0  0  0  0  0  0  0  0  0  0  0  0
   34.5613   23.7946   49.3031 H   0  0  0  0  0  0  0  0  0  0  0  0
   35.4885   24.7514   50.5640 H   0  0  0  0  0  0  0  0  0  0  0  0
  1  2  2  0
  2  3  1  0
  4  3  2  0
  5  4  1  0
  6  5  2  0
  6  1  1  0
  7 12  2  0
  8  7  1  0
  9 10  1  0
  9  8  2  0
 10 11  2  0
 11  1  1  0
 11 12  1  0
 13 19  1  0
 14 13  2  0
 14  5  1  0
 15 14  1  0
 16 17  1  0
 16 15  2  0
 17 18  2  0
 18 13  1  0
 19 21  2  0
 20 19  2  0
  2 22  1  0
  3 23  1  0
  7 24  1  0
  8 25  1  0
  9 26  1  0
 15 27  1  0
 16 28  1  0
 17 29  1  0
 18 30  1  0
 31 32  2  3
 32 33  1  0
 33 34  1  0
 31 35  1  0
 32 36  1  0
 33 37  1  0
 33 38  1  0
 19 31  1  0
M  ISO  8  22  14  23  14  24  14  25  14  26  14  27  14  28  14  29  14
M  ISO  2  30  14  34   8
M  END
>  <DihAtoms>  (1) 
12,18,30,31

>  <DihDeg>  (1) 
-35.9212956404849

$$$$
