REMARK  Name = 
REMARK  5 active torsions:
REMARK  status: ('A' for Active; 'I' for Inactive)
REMARK    1  A    between atoms: C_1  and  C_11
REMARK    2  A    between atoms: C_5  and  C_14
REMARK    3  A    between atoms: C_13  and  S_19
REMARK    4  A    between atoms: S_19  and  C_31
REMARK    5  A    between atoms: C_32  and  C_33
REMARK                            x       y       z     vdW  Elec       q    Type
REMARK                         _______ _______ _______ _____ _____    ______ ____
ROOT
ATOM      1  C   UNL     1      36.071  30.274  48.708  0.00  0.00    +0.000 A 
ATOM      2  C   UNL     1      35.970  29.438  49.743  0.00  0.00    +0.000 A 
ATOM      3  C   UNL     1      34.950  28.600  49.883  0.00  0.00    +0.000 A 
ATOM      4  N   UNL     1      33.992  28.604  48.933  0.00  0.00    +0.000 NA
ATOM      5  C   UNL     1      34.070  29.428  47.879  0.00  0.00    +0.000 A 
ATOM      6  N   UNL     1      35.105  30.267  47.758  0.00  0.00    +0.000 NA
ATOM      7  H   UNL     1      36.714  29.396  50.525  0.00  0.00    +0.000 HD
ATOM      8  H   UNL     1      34.821  27.901  50.711  0.00  0.00    +0.000 HD
ENDROOT
BRANCH   5  10
ATOM      9  C   UNL     1      31.995  28.419  47.079  0.00  0.00    +0.000 A 
ATOM     10  C   UNL     1      33.003  29.368  46.898  0.00  0.00    +0.000 A 
ATOM     11  C   UNL     1      33.028  30.269  45.862  0.00  0.00    +0.000 A 
ATOM     12  C   UNL     1      32.014  30.280  44.911  0.00  0.00    +0.000 A 
ATOM     13  C   UNL     1      30.974  29.369  45.020  0.00  0.00    +0.000 A 
ATOM     14  C   UNL     1      31.037  28.512  46.083  0.00  0.00    +0.000 A 
ATOM     15  H   UNL     1      33.850  30.988  45.779  0.00  0.00    +0.000 HD
ATOM     16  H   UNL     1      32.078  31.006  44.116  0.00  0.00    +0.000 HD
ATOM     17  H   UNL     1      30.185  29.352  44.310  0.00  0.00    +0.000 HD
ATOM     18  H   UNL     1      30.195  27.802  46.140  0.00  0.00    +0.000 HD
BRANCH   9  19
ATOM     19  S   UNL     1      31.945  27.315  48.377  0.00  0.00    +0.000 S 
ATOM     20  O   UNL     1      31.439  26.100  47.665  0.00  0.00    +0.000 OA
ATOM     21  O   UNL     1      30.823  27.539  49.310  0.00  0.00    +0.000 OA
BRANCH  19  22
ATOM     22  C   UNL     1      33.151  26.182  48.818  0.00  0.00    +0.000 C 
ATOM     23  C   UNL     1      34.279  25.605  48.563  0.00  0.00    +0.000 C 
BRANCH  23  24
ATOM     24  C   UNL     1      35.118  24.566  49.216  0.00  0.00    +0.000 C 
ATOM     25  H   UNL     1      35.309  23.770  48.469  0.00  0.00    +0.000 HD
ENDBRANCH  23  24
ENDBRANCH  19  22
ENDBRANCH   9  19
ENDBRANCH   5  10
BRANCH   1  30
ATOM     26  C   UNL     1      38.146  33.232  49.420  0.00  0.00    +0.000 A 
ATOM     27  C   UNL     1      39.072  33.201  48.342  0.00  0.00    +0.000 A 
ATOM     28  C   UNL     1      38.956  32.153  47.397  0.00  0.00    +0.000 A 
ATOM     29  N   UNL     1      37.966  31.225  47.562  0.00  0.00    +0.000 NA
ATOM     30  C   UNL     1      37.119  31.284  48.579  0.00  0.00    +0.000 A 
ATOM     31  N   UNL     1      37.208  32.290  49.511  0.00  0.00    +0.000 NA
ATOM     32  H   UNL     1      38.168  33.996  50.180  0.00  0.00    +0.000 HD
ATOM     33  H   UNL     1      39.824  33.965  48.278  0.00  0.00    +0.000 HD
ATOM     34  H   UNL     1      39.654  32.119  46.573  0.00  0.00    +0.000 HD
ENDBRANCH   1  30
TORSDOF 5
