
 OpenBabel03272504243D

 34 36  0  0  0  0  0  0  0  0999 V2000
   35.8250   29.9000   48.4010 C   0  0  0  0  0  0  0  0  0  0  0  0
   35.6720   29.0660   49.4320 C   0  0  0  0  0  0  0  0  0  0  0  0
   34.6030   28.2920   49.5680 C   0  0  0  0  0  0  0  0  0  0  0  0
   33.6470   28.3590   48.6180 N   0  0  0  0  0  0  0  0  0  0  0  0
   33.7760   29.1820   47.5680 C   0  0  0  0  0  0  0  0  0  0  0  0
   34.8600   29.9560   47.4510 N   0  0  0  0  0  0  0  0  0  0  0  0
   36.4120   28.9750   50.2140 H   0  0  0  0  0  0  0  0  0  0  0  0
   34.4310   27.5980   50.3930 H   0  0  0  0  0  0  0  0  0  0  0  0
   32.1440   27.9700   46.2140 C   0  0  0  0  0  0  0  0  0  0  0  0
   32.7080   29.1920   46.5860 C   0  0  0  0  0  0  0  0  0  0  0  0
   32.2890   30.4070   46.1010 C   0  0  0  0  0  0  0  0  0  0  0  0
   31.2470   30.4790   45.1840 C   0  0  0  0  0  0  0  0  0  0  0  0
   30.6330   29.3100   44.7630 C   0  0  0  0  0  0  0  0  0  0  0  0
   31.1190   28.1510   45.3000 C   0  0  0  0  0  0  0  0  0  0  0  0
   32.7760   31.3290   46.4360 H   0  0  0  0  0  0  0  0  0  0  0  0
   30.9550   31.4560   44.8310 H   0  0  0  0  0  0  0  0  0  0  0  0
   29.8340   29.3320   44.0640 H   0  0  0  0  0  0  0  0  0  0  0  0
   30.6080   27.2400   44.9450 H   0  0  0  0  0  0  0  0  0  0  0  0
   32.6420   26.4610   46.8320 S   0  0  0  0  0  0  0  0  0  0  0  0
   32.0100   25.5480   45.8290 O   0  0  0  0  0  0  0  0  0  0  0  0
   31.9110   26.0400   48.0430 O   0  0  0  0  0  0  0  0  0  0  0  0
   34.0080   25.5470   46.3520 C   0  0  0  0  0  3  0  0  0  0  0  0
   34.4980   24.4540   45.8630 C   0  0  0  0  0  3  0  0  0  0  0  0
   35.8570   23.9410   45.5500 C   0  0  0  0  0  2  0  0  0  0  0  0
   35.9770   22.9700   46.0700 H   0  0  0  0  0  0  0  0  0  0  0  0
   38.0610   32.7380   49.1120 C   0  0  0  0  0  0  0  0  0  0  0  0
   38.9990   32.6390   48.0490 C   0  0  0  0  0  0  0  0  0  0  0  0
   38.8350   31.5880   47.1140 C   0  0  0  0  0  0  0  0  0  0  0  0
   37.7890   30.7230   47.2740 N   0  0  0  0  0  0  0  0  0  0  0  0
   36.9330   30.8440   48.2770 C   0  0  0  0  0  0  0  0  0  0  0  0
   37.0680   31.8540   49.1990 N   0  0  0  0  0  0  0  0  0  0  0  0
   38.1180   33.5080   49.8640 H   0  0  0  0  0  0  0  0  0  0  0  0
   39.7960   33.3560   47.9880 H   0  0  0  0  0  0  0  0  0  0  0  0
   39.5420   31.5030   46.3010 H   0  0  0  0  0  0  0  0  0  0  0  0
  1  2  1  0  0  0  0
  2  3  2  0  0  0  0
  2  7  1  0  0  0  0
  3  8  1  0  0  0  0
  4  3  1  0  0  0  0
  5  4  2  0  0  0  0
  6  5  1  0  0  0  0
  6  1  2  0  0  0  0
  9 10  1  0  0  0  0
  9 19  1  0  0  0  0
 10  5  1  0  0  0  0
 11 15  1  0  0  0  0
 11 10  2  0  0  0  0
 12 11  1  0  0  0  0
 13 12  2  0  0  0  0
 13 14  1  0  0  0  0
 14  9  2  0  0  0  0
 16 12  1  0  0  0  0
 17 13  1  0  0  0  0
 18 14  1  0  0  0  0
 19 21  2  0  0  0  0
 20 19  2  0  0  0  0
 22 19  1  0  0  0  0
 23 22  2  0  0  0  0
 24 23  1  0  0  0  0
 24 25  1  0  0  0  0
 26 31  1  0  0  0  0
 26 32  1  0  0  0  0
 27 26  2  0  0  0  0
 28 29  2  0  0  0  0
 28 27  1  0  0  0  0
 29 30  1  0  0  0  0
 30  1  1  0  0  0  0
 30 31  2  0  0  0  0
 33 27  1  0  0  0  0
 34 28  1  0  0  0  0
M  END
>  <minimizedAffinity>
-5.17056608

>  <minimizedRMSD>
1.51066577

$$$$
