
 OpenBabel03272504243D

 34 36  0  0  0  0  0  0  0  0999 V2000
   35.8890   30.1470   48.5120 C   0  0  0  0  0  0  0  0  0  0  0  0
   35.7090   29.3210   49.5440 C   0  0  0  0  0  0  0  0  0  0  0  0
   34.6370   28.5470   49.6580 C   0  0  0  0  0  0  0  0  0  0  0  0
   33.7070   28.6070   48.6820 N   0  0  0  0  0  0  0  0  0  0  0  0
   33.8620   29.4220   47.6300 C   0  0  0  0  0  0  0  0  0  0  0  0
   34.9490   30.1960   47.5370 N   0  0  0  0  0  0  0  0  0  0  0  0
   36.4280   29.2350   50.3460 H   0  0  0  0  0  0  0  0  0  0  0  0
   34.4440   27.8590   50.4820 H   0  0  0  0  0  0  0  0  0  0  0  0
   32.2310   28.2060   46.2810 C   0  0  0  0  0  0  0  0  0  0  0  0
   32.8200   29.4250   46.6210 C   0  0  0  0  0  0  0  0  0  0  0  0
   32.4500   30.6320   46.0800 C   0  0  0  0  0  0  0  0  0  0  0  0
   31.4340   30.6990   45.1330 C   0  0  0  0  0  0  0  0  0  0  0  0
   30.7960   29.5320   44.7410 C   0  0  0  0  0  0  0  0  0  0  0  0
   31.2350   28.3810   45.3340 C   0  0  0  0  0  0  0  0  0  0  0  0
   32.9550   31.5520   46.3920 H   0  0  0  0  0  0  0  0  0  0  0  0
   31.1800   31.6690   44.7360 H   0  0  0  0  0  0  0  0  0  0  0  0
   30.0170   29.5500   44.0200 H   0  0  0  0  0  0  0  0  0  0  0  0
   30.7060   27.4720   45.0000 H   0  0  0  0  0  0  0  0  0  0  0  0
   32.6680   26.7090   46.9680 S   0  0  0  0  0  0  0  0  0  0  0  0
   31.9560   25.7780   46.0370 O   0  0  0  0  0  0  0  0  0  0  0  0
   31.9550   26.3960   48.2220 O   0  0  0  0  0  0  0  0  0  0  0  0
   33.9670   25.6960   46.5010 C   0  0  0  0  0  3  0  0  0  0  0  0
   34.3940   24.6690   45.8430 C   0  0  0  0  0  3  0  0  0  0  0  0
   35.7070   24.0060   45.6330 C   0  0  0  0  0  2  0  0  0  0  0  0
   35.5930   22.9390   45.9100 H   0  0  0  0  0  0  0  0  0  0  0  0
   38.1460   32.9470   49.3020 C   0  0  0  0  0  0  0  0  0  0  0  0
   39.0710   32.8850   48.2250 C   0  0  0  0  0  0  0  0  0  0  0  0
   38.8910   31.8710   47.2540 C   0  0  0  0  0  0  0  0  0  0  0  0
   37.8440   31.0040   47.3930 N   0  0  0  0  0  0  0  0  0  0  0  0
   36.9990   31.0910   48.4100 C   0  0  0  0  0  0  0  0  0  0  0  0
   37.1490   32.0650   49.3680 N   0  0  0  0  0  0  0  0  0  0  0  0
   38.2140   33.6890   50.0820 H   0  0  0  0  0  0  0  0  0  0  0  0
   39.8700   33.6010   48.1820 H   0  0  0  0  0  0  0  0  0  0  0  0
   39.5880   31.8130   46.4300 H   0  0  0  0  0  0  0  0  0  0  0  0
  1  2  1  0  0  0  0
  2  3  2  0  0  0  0
  2  7  1  0  0  0  0
  3  8  1  0  0  0  0
  4  3  1  0  0  0  0
  5  4  2  0  0  0  0
  6  5  1  0  0  0  0
  6  1  2  0  0  0  0
  9 10  1  0  0  0  0
  9 19  1  0  0  0  0
 10  5  1  0  0  0  0
 11 15  1  0  0  0  0
 11 10  2  0  0  0  0
 12 11  1  0  0  0  0
 13 12  2  0  0  0  0
 13 14  1  0  0  0  0
 14  9  2  0  0  0  0
 16 12  1  0  0  0  0
 17 13  1  0  0  0  0
 18 14  1  0  0  0  0
 19 21  2  0  0  0  0
 20 19  2  0  0  0  0
 22 19  1  0  0  0  0
 23 22  2  0  0  0  0
 24 23  1  0  0  0  0
 24 25  1  0  0  0  0
 26 31  1  0  0  0  0
 26 32  1  0  0  0  0
 27 26  2  0  0  0  0
 28 29  2  0  0  0  0
 28 27  1  0  0  0  0
 29 30  1  0  0  0  0
 30  1  1  0  0  0  0
 30 31  2  0  0  0  0
 33 27  1  0  0  0  0
 34 28  1  0  0  0  0
M  END
>  <minimizedAffinity>
-5.25721788

>  <minimizedRMSD>
1.31733537

$$$$
