
     RDKit          3D

 28 29  0  0  0  0  0  0  0  0999 V2000
   37.2706   29.4467   51.1217 Br  0  0  0  0  0  0  0  0  0  0  0  0
   35.9950   29.3209   49.7128 C   0  0  0  0  0  0  0  0  0  0  0  0
   36.0275   30.1963   48.6585 C   0  0  0  0  0  0  0  0  0  0  0  0
   35.0607   30.0425   47.6639 C   0  0  0  0  0  0  0  0  0  0  0  0
   34.0924   29.0548   47.7097 C   0  0  0  0  0  0  0  0  0  0  0  0
   34.1023   28.1993   48.7912 C   0  0  0  0  0  0  0  0  0  0  0  0
   35.0616   28.3437   49.7882 C   0  0  0  0  0  0  0  0  0  0  0  0
   37.8584   33.2419   49.4734 C   0  0  0  0  0  0  0  0  0  0  0  0
   38.8857   33.2772   48.5055 C   0  0  0  0  0  0  0  0  0  0  0  0
   38.9390   32.2365   47.5674 C   0  0  0  0  0  0  0  0  0  0  0  0
   38.0011   31.2527   47.6409 N   0  0  0  0  0  0  0  0  0  0  0  0
   37.0295   31.2449   48.5780 C   0  0  0  0  0  0  0  0  0  0  0  0
   36.9704   32.2454   49.4875 N   0  0  0  0  0  0  0  0  0  0  0  0
   39.7908   34.3211   48.5153 O   0  0  0  0  0  0  0  0  0  0  0  0
   35.0398   30.7077   46.8069 H   0  0  0  0  0  0  0  0  0  0  0  0
   33.3582   28.9614   46.9251 H   0  0  0  0  0  0  0  0  0  0  0  0
   33.3401   27.4287   48.8185 H   0  0  0  0  0  0  0  0  0  0  0  0
   35.0288   27.6483   50.6172 H   0  0  0  0  0  0  0  0  0  0  0  0
   37.8357   34.0546   50.1876 H   0  0  0  0  0  0  0  0  0  0  0  0
   39.7192   32.2580   46.8279 H   0  0  0  0  0  0  0  0  0  0  0  0
   40.7900   34.2991   47.5258 C   0  0  0  0  0  0  0  0  0  0  0  0
   41.4588   33.1649   47.3317 C   0  0  0  0  0  0  0  0  0  0  0  0
   42.5638   32.7504   46.4004 C   0  0  0  0  0  0  0  0  0  0  0  0
   42.8481   33.6322   45.7563 H   0  0  0  0  0  0  0  0  0  0  0  0
   41.2176   34.9950   46.8073 H   0  0  0  0  0  0  0  0  0  0  0  0
   41.2327   32.2708   47.9316 H   0  0  0  0  0  0  0  0  0  0  0  0
   43.4330   32.4300   46.9845 H   0  0  0  0  0  0  0  0  0  0  0  0
   42.2290   31.9710   45.7025 H   0  0  0  0  0  0  0  0  0  0  0  0
  2  7  2  0
  2  1  1  0
  3  2  1  0
  4  5  1  0
  4  3  2  0
  5  6  2  0
  6  7  1  0
  8 13  2  0
  9 14  1  0
  9  8  1  0
 10 11  1  0
 10  9  2  0
 11 12  2  0
 12  3  1  0
 12 13  1  0
  4 15  1  0
  5 16  1  0
  6 17  1  0
  7 18  1  0
  8 19  1  0
 10 20  1  0
 21 22  2  3
 22 23  1  0
 23 24  1  0
 21 25  1  0
 22 26  1  0
 23 27  1  0
 23 28  1  0
 14 21  1  0
M  ISO  7  15  14  16  14  17  14  18  14  19  14  20  14  24   8
M  END
>  <DihAtoms>  (1) 
8,13,20,21

>  <DihDeg>  (1) 
72.09592223027843

$$$$
