
 OpenBabel03272503123D

 41 44  0  0  0  0  0  0  0  0999 V2000
   39.2950   31.9030   44.9490 C   0  0  0  0  0  0  0  0  0  0  0  0
   38.2080   32.5550   45.0610 O   0  0  0  0  0  0  0  0  0  0  0  0
   39.9760   31.6400   46.1620 N   0  0  0  0  0  0  0  0  0  0  0  0
   40.8670   31.1100   46.0860 H   0  0  0  0  0  0  0  0  0  0  0  0
   39.2090   32.2160   42.5670 C   0  0  0  0  0  0  0  0  0  0  0  0
   39.7360   31.4930   43.6220 C   0  0  0  0  0  0  0  0  0  0  0  0
   40.6100   30.4630   43.4680 C   0  0  0  0  0  0  0  0  0  0  0  0
   41.0110   30.0960   42.1930 C   0  0  0  0  0  0  0  0  0  0  0  0
   41.8350   29.1490   41.7320 N   0  0  0  0  0  0  0  0  0  0  0  0
   41.8530   29.2420   40.3990 C   0  0  0  0  0  0  0  0  0  0  0  0
   41.0420   30.2480   40.0140 N   0  0  0  0  0  0  0  0  0  0  0  0
   40.4980   30.8040   41.1260 C   0  0  0  0  0  0  0  0  0  0  0  0
   39.6130   31.8480   41.2770 C   0  0  0  0  0  0  0  0  0  0  0  0
   38.5080   33.0470   42.6600 H   0  0  0  0  0  0  0  0  0  0  0  0
   41.0080   29.9120   44.3260 H   0  0  0  0  0  0  0  0  0  0  0  0
   42.3900   28.4360   42.2780 H   0  0  0  0  0  0  0  0  0  0  0  0
   42.4090   28.6380   39.6770 H   0  0  0  0  0  0  0  0  0  0  0  0
   39.0970   32.5600   40.1960 O   0  0  0  0  0  0  0  0  0  0  0  0
   38.3770   33.7070   40.3160 C   0  0  0  0  0  2  0  0  0  0  0  0
   37.1450   34.1340   40.1580 C   0  0  0  0  0  2  0  0  0  0  0  0
   35.6810   34.2990   39.8910 C   0  0  0  0  0  2  0  0  0  0  0  0
   35.5290   35.0330   39.0740 H   0  0  0  0  0  0  0  0  0  0  0  0
   38.1340   30.1520   47.5020 F   0  0  0  0  0  0  0  0  0  0  0  0
   38.3770   31.3890   47.9890 C   0  0  0  0  0  0  0  0  0  0  0  0
   37.7180   31.8380   49.0930 C   0  0  0  0  0  0  0  0  0  0  0  0
   38.0160   33.1040   49.5320 C   0  0  0  0  0  0  0  0  0  0  0  0
   38.9310   33.9050   48.9060 C   0  0  0  0  0  0  0  0  0  0  0  0
   39.5960   33.4350   47.7820 C   0  0  0  0  0  0  0  0  0  0  0  0
   39.3090   32.1590   47.3230 C   0  0  0  0  0  0  0  0  0  0  0  0
   37.4990   33.4730   50.4070 H   0  0  0  0  0  0  0  0  0  0  0  0
   39.1720   34.9050   49.2450 H   0  0  0  0  0  0  0  0  0  0  0  0
   40.3310   33.9840   47.2190 H   0  0  0  0  0  0  0  0  0  0  0  0
   36.0750   29.3580   51.4470 C   0  0  0  0  0  0  0  0  0  0  0  0
   37.0290   30.2170   50.8590 C   0  0  0  0  0  0  0  0  0  0  0  0
   36.7480   30.9400   49.7250 C   0  0  0  0  0  0  0  0  0  0  0  0
   35.4850   30.7800   49.1940 N   0  0  0  0  0  0  0  0  0  0  0  0
   34.5740   29.9660   49.7480 C   0  0  0  0  0  0  0  0  0  0  0  0
   34.8650   29.2740   50.8480 N   0  0  0  0  0  0  0  0  0  0  0  0
   36.3480   28.8130   52.3390 H   0  0  0  0  0  0  0  0  0  0  0  0
   38.0260   30.3290   51.2960 H   0  0  0  0  0  0  0  0  0  0  0  0
   33.6030   29.8780   49.2950 H   0  0  0  0  0  0  0  0  0  0  0  0
  1  2  2  0  0  0  0
  1  3  1  0  0  0  0
  3 29  1  0  0  0  0
  4  3  1  0  0  0  0
  5 14  1  0  0  0  0
  5  6  1  0  0  0  0
  6  1  1  0  0  0  0
  7  6  2  0  0  0  0
  7 15  1  0  0  0  0
  8  7  1  0  0  0  0
  9  8  1  0  0  0  0
  9 16  1  0  0  0  0
 10  9  1  0  0  0  0
 11 10  2  0  0  0  0
 11 12  1  0  0  0  0
 12 13  1  0  0  0  0
 12  8  2  0  0  0  0
 13  5  2  0  0  0  0
 17 10  1  0  0  0  0
 18 19  1  0  0  0  0
 18 13  1  0  0  0  0
 20 19  1  0  0  0  0
 21 20  1  0  0  0  0
 22 21  1  0  0  0  0
 23 24  1  0  0  0  0
 24 25  1  0  0  0  0
 25 26  2  0  0  0  0
 25 35  1  0  0  0  0
 26 30  1  0  0  0  0
 27 31  1  0  0  0  0
 27 26  1  0  0  0  0
 28 27  2  0  0  0  0
 29 28  1  0  0  0  0
 29 24  2  0  0  0  0
 32 28  1  0  0  0  0
 33 39  1  0  0  0  0
 34 40  1  0  0  0  0
 34 33  1  0  0  0  0
 35 34  2  0  0  0  0
 36 35  1  0  0  0  0
 36 37  2  0  0  0  0
 37 38  1  0  0  0  0
 38 33  2  0  0  0  0
 41 37  1  0  0  0  0
M  END
>  <minimizedAffinity>
-7.2143755

>  <minimizedRMSD>
0.619885266

$$$$
