
 OpenBabel03272503123D

 41 44  0  0  0  0  0  0  0  0999 V2000
   39.2860   31.9120   44.9630 C   0  0  0  0  0  0  0  0  0  0  0  0
   38.1940   32.5550   45.0800 O   0  0  0  0  0  0  0  0  0  0  0  0
   39.9750   31.6550   46.1730 N   0  0  0  0  0  0  0  0  0  0  0  0
   40.8700   31.1330   46.0920 H   0  0  0  0  0  0  0  0  0  0  0  0
   39.1910   32.2300   42.5820 C   0  0  0  0  0  0  0  0  0  0  0  0
   39.7250   31.5070   43.6330 C   0  0  0  0  0  0  0  0  0  0  0  0
   40.6030   30.4810   43.4740 C   0  0  0  0  0  0  0  0  0  0  0  0
   41.0010   30.1190   42.1980 C   0  0  0  0  0  0  0  0  0  0  0  0
   41.8280   29.1760   41.7330 N   0  0  0  0  0  0  0  0  0  0  0  0
   41.8410   29.2720   40.3990 C   0  0  0  0  0  0  0  0  0  0  0  0
   41.0240   30.2750   40.0190 N   0  0  0  0  0  0  0  0  0  0  0  0
   40.4810   30.8270   41.1340 C   0  0  0  0  0  0  0  0  0  0  0  0
   39.5920   31.8660   41.2900 C   0  0  0  0  0  0  0  0  0  0  0  0
   38.4860   33.0580   42.6780 H   0  0  0  0  0  0  0  0  0  0  0  0
   41.0060   29.9300   44.3310 H   0  0  0  0  0  0  0  0  0  0  0  0
   42.3880   28.4650   42.2750 H   0  0  0  0  0  0  0  0  0  0  0  0
   42.3970   28.6720   39.6740 H   0  0  0  0  0  0  0  0  0  0  0  0
   39.0700   32.5780   40.2110 O   0  0  0  0  0  0  0  0  0  0  0  0
   38.3590   33.7310   40.3360 C   0  0  0  0  0  0  0  0  0  0  0  0
   37.1600   34.1320   40.6910 C   0  0  0  0  0  0  0  0  0  0  0  0
   35.7390   34.2580   41.1450 C   0  0  0  0  0  0  0  0  0  0  0  0
   35.1260   34.7080   40.3390 H   0  0  0  0  0  0  0  0  0  0  0  0
   38.1300   30.1620   47.5020 F   0  0  0  0  0  0  0  0  0  0  0  0
   38.3750   31.3950   47.9980 C   0  0  0  0  0  0  0  0  0  0  0  0
   37.7170   31.8380   49.1050 C   0  0  0  0  0  0  0  0  0  0  0  0
   38.0170   33.1010   49.5520 C   0  0  0  0  0  0  0  0  0  0  0  0
   38.9340   33.9030   48.9320 C   0  0  0  0  0  0  0  0  0  0  0  0
   39.5990   33.4400   47.8040 C   0  0  0  0  0  0  0  0  0  0  0  0
   39.3090   32.1680   47.3370 C   0  0  0  0  0  0  0  0  0  0  0  0
   37.5010   33.4640   50.4290 H   0  0  0  0  0  0  0  0  0  0  0  0
   39.1780   34.9000   49.2780 H   0  0  0  0  0  0  0  0  0  0  0  0
   40.3350   33.9910   47.2460 H   0  0  0  0  0  0  0  0  0  0  0  0
   36.0660   29.3490   51.4440 C   0  0  0  0  0  0  0  0  0  0  0  0
   37.0220   30.2100   50.8620 C   0  0  0  0  0  0  0  0  0  0  0  0
   36.7450   30.9380   49.7300 C   0  0  0  0  0  0  0  0  0  0  0  0
   35.4830   30.7810   49.1950 N   0  0  0  0  0  0  0  0  0  0  0  0
   34.5700   29.9650   49.7430 C   0  0  0  0  0  0  0  0  0  0  0  0
   34.8570   29.2680   50.8400 N   0  0  0  0  0  0  0  0  0  0  0  0
   36.3360   28.8000   52.3340 H   0  0  0  0  0  0  0  0  0  0  0  0
   38.0180   30.3200   51.3020 H   0  0  0  0  0  0  0  0  0  0  0  0
   33.6000   29.8790   49.2870 H   0  0  0  0  0  0  0  0  0  0  0  0
  1  2  2  0  0  0  0
  1  3  1  0  0  0  0
  3 29  1  0  0  0  0
  4  3  1  0  0  0  0
  5 14  1  0  0  0  0
  5  6  1  0  0  0  0
  6  1  1  0  0  0  0
  7  6  2  0  0  0  0
  7 15  1  0  0  0  0
  8  7  1  0  0  0  0
  9  8  1  0  0  0  0
  9 16  1  0  0  0  0
 10  9  1  0  0  0  0
 11 10  2  0  0  0  0
 11 12  1  0  0  0  0
 12 13  1  0  0  0  0
 12  8  2  0  0  0  0
 13  5  2  0  0  0  0
 17 10  1  0  0  0  0
 18 19  1  0  0  0  0
 18 13  1  0  0  0  0
 19 20  1  0  0  0  0
 20 21  1  0  0  0  0
 22 21  1  0  0  0  0
 23 24  1  0  0  0  0
 24 25  1  0  0  0  0
 25 26  2  0  0  0  0
 25 35  1  0  0  0  0
 26 30  1  0  0  0  0
 27 31  1  0  0  0  0
 27 26  1  0  0  0  0
 28 27  2  0  0  0  0
 29 28  1  0  0  0  0
 29 24  2  0  0  0  0
 32 28  1  0  0  0  0
 33 39  1  0  0  0  0
 34 40  1  0  0  0  0
 34 33  1  0  0  0  0
 35 34  2  0  0  0  0
 36 35  1  0  0  0  0
 36 37  2  0  0  0  0
 37 38  1  0  0  0  0
 38 33  2  0  0  0  0
 41 37  1  0  0  0  0
M  END
>  <minimizedAffinity>
-7.29762316

>  <minimizedRMSD>
0.153028086

$$$$
