REMARK  Name = 
REMARK  6 active torsions:
REMARK  status: ('A' for Active; 'I' for Inactive)
REMARK    1  A    between atoms: C_1  and  O_14
REMARK    2  A    between atoms: C_2  and  C_8
REMARK    3  A    between atoms: C_6  and  O_15
REMARK    4  A    between atoms: C_9  and  C_13
REMARK    5  A    between atoms: O_15  and  C_25
REMARK    6  A    between atoms: C_26  and  C_27
REMARK                            x       y       z     vdW  Elec       q    Type
REMARK                         _______ _______ _______ _____ _____    ______ ____
ROOT
ATOM      1  C   UNL     1      37.998  31.401  47.636  0.00  0.00    +0.000 A 
ATOM      2  C   UNL     1      37.077  31.329  48.672  0.00  0.00    +0.000 A 
ATOM      3  C   UNL     1      37.198  32.351  49.622  0.00  0.00    +0.000 A 
ATOM      4  C   UNL     1      38.176  33.345  49.504  0.00  0.00    +0.000 A 
ATOM      5  C   UNL     1      39.061  33.326  48.413  0.00  0.00    +0.000 A 
ATOM      6  C   UNL     1      38.950  32.332  47.481  0.00  0.00    +0.000 A 
ATOM      7  H   UNL     1      36.518  32.347  50.441  0.00  0.00    +0.000 HD
ATOM      8  H   UNL     1      38.267  34.134  50.239  0.00  0.00    +0.000 HD
ATOM      9  H   UNL     1      39.829  34.081  48.293  0.00  0.00    +0.000 HD
ENDROOT
BRANCH   2  11
ATOM     10  C   UNL     1      34.940  30.348  47.981  0.00  0.00    +0.000 A 
ATOM     11  C   UNL     1      36.075  30.309  48.791  0.00  0.00    +0.000 A 
ATOM     12  C   UNL     1      36.195  29.257  49.706  0.00  0.00    +0.000 A 
ATOM     13  N   UNL     1      35.200  28.331  49.756  0.00  0.00    +0.000 NA
ATOM     14  C   UNL     1      34.108  28.411  48.943  0.00  0.00    +0.000 A 
ATOM     15  N   UNL     1      33.982  29.408  48.067  0.00  0.00    +0.000 NA
ATOM     16  H   UNL     1      34.856  31.163  47.279  0.00  0.00    +0.000 HD
ATOM     17  H   UNL     1      33.396  27.595  49.100  0.00  0.00    +0.000 HD
BRANCH  12  18
ATOM     18  C   UNL     1      37.376  29.163  50.589  0.00  0.00    +0.000 C 
ATOM     19  H   UNL     1      37.553  30.083  51.160  0.00  0.00    +0.000 HD
ATOM     20  H   UNL     1      38.269  28.959  49.956  0.00  0.00    +0.000 HD
ATOM     21  H   UNL     1      37.237  28.291  51.257  0.00  0.00    +0.000 HD
ENDBRANCH  12  18
ENDBRANCH   2  11
BRANCH   1  22
ATOM     22  O   UNL     1      37.939  30.398  46.631  0.00  0.00    +0.000 OA
ATOM     23  H   UNL     1      37.167  30.314  46.006  0.00  0.00    +0.000 HD
ENDBRANCH   1  22
BRANCH   6  24
ATOM     24  O   UNL     1      39.843  32.335  46.404  0.00  0.00    +0.000 OA
BRANCH  24  25
ATOM     25  C   UNL     1      40.818  33.274  46.232  0.00  0.00    +0.000 C 
ATOM     26  C   UNL     1      41.237  33.790  45.086  0.00  0.00    +0.000 C 
BRANCH  26  27
ATOM     27  C   UNL     1      40.612  33.331  43.820  0.00  0.00    +0.000 C 
ATOM     28  H   UNL     1      39.608  32.916  44.050  0.00  0.00    +0.000 HD
ENDBRANCH  26  27
ENDBRANCH  24  25
ENDBRANCH   6  24
TORSDOF 6
