
     RDKit          3D

 32 33  0  0  0  0  0  0  0  0999 V2000
   37.9975   31.4013   47.6364 C   0  0  0  0  0  0  0  0  0  0  0  0
   37.0773   31.3287   48.6720 C   0  0  0  0  0  0  0  0  0  0  0  0
   37.1976   32.3508   49.6223 C   0  0  0  0  0  0  0  0  0  0  0  0
   38.1763   33.3447   49.5036 C   0  0  0  0  0  0  0  0  0  0  0  0
   39.0611   33.3264   48.4133 C   0  0  0  0  0  0  0  0  0  0  0  0
   38.9505   32.3319   47.4808 C   0  0  0  0  0  0  0  0  0  0  0  0
   34.9396   30.3482   47.9808 C   0  0  0  0  0  0  0  0  0  0  0  0
   36.0752   30.3087   48.7914 C   0  0  0  0  0  0  0  0  0  0  0  0
   36.1949   29.2573   49.7056 C   0  0  0  0  0  0  0  0  0  0  0  0
   35.1995   28.3306   49.7559 N   0  0  0  0  0  0  0  0  0  0  0  0
   34.1077   28.4112   48.9428 C   0  0  0  0  0  0  0  0  0  0  0  0
   33.9816   29.4081   48.0674 N   0  0  0  0  0  0  0  0  0  0  0  0
   37.3755   29.1634   50.5893 C   0  0  0  0  0  0  0  0  0  0  0  0
   37.9390   30.3976   46.6310 O   0  0  0  0  0  0  0  0  0  0  0  0
   39.8429   32.3351   46.4044 O   0  0  0  0  0  0  0  0  0  0  0  0
   36.5176   32.3469   50.4410 H   0  0  0  0  0  0  0  0  0  0  0  0
   38.2675   34.1341   50.2395 H   0  0  0  0  0  0  0  0  0  0  0  0
   39.8286   34.0809   48.2933 H   0  0  0  0  0  0  0  0  0  0  0  0
   34.8556   31.1628   47.2785 H   0  0  0  0  0  0  0  0  0  0  0  0
   33.3962   27.5950   49.1005 H   0  0  0  0  0  0  0  0  0  0  0  0
   37.5525   30.0829   51.1597 H   0  0  0  0  0  0  0  0  0  0  0  0
   38.2689   28.9588   49.9565 H   0  0  0  0  0  0  0  0  0  0  0  0
   37.2371   28.2910   51.2574 H   0  0  0  0  0  0  0  0  0  0  0  0
   37.1673   30.3135   46.0056 H   0  0  0  0  0  0  0  0  0  0  0  0
   40.8177   33.2744   46.2316 C   0  0  0  0  0  0  0  0  0  0  0  0
   40.6654   34.5894   46.2099 C   0  0  0  0  0  0  0  0  0  0  0  0
   39.3054   35.1589   46.3883 C   0  0  0  0  0  0  0  0  0  0  0  0
   38.6747   34.4118   46.9135 H   0  0  0  0  0  0  0  0  0  0  0  0
   41.7420   32.7669   46.1143 H   0  0  0  0  0  0  0  0  0  0  0  0
   41.5685   35.1655   46.0596 H   0  0  0  0  0  0  0  0  0  0  0  0
   39.3711   36.0689   47.0332 H   0  0  0  0  0  0  0  0  0  0  0  0
   38.8743   35.4556   45.3963 H   0  0  0  0  0  0  0  0  0  0  0  0
  1  2  2  0
  2  8  1  0
  2  3  1  0
  4  3  2  0
  5  4  1  0
  6  1  1  0
  6  5  2  0
  7 12  2  0
  7  8  1  0
  8  9  2  0
  9 10  1  0
  9 13  1  0
 11 10  2  0
 12 11  1  0
 14  1  1  0
 15  6  1  0
  3 16  1  0
  4 17  1  0
  5 18  1  0
  7 19  1  0
 11 20  1  0
 13 21  1  0
 13 22  1  0
 13 23  1  0
 14 24  1  0
 25 26  2  3
 26 27  1  0
 27 28  1  0
 25 29  1  0
 26 30  1  0
 27 31  1  0
 27 32  1  0
 15 25  1  0
M  ISO  8  16  14  17  14  18  14  19  14  20  14  21   8  22   8  23   8
M  ISO  2  24   3  28   8
M  END
>  <DihAtoms>  (1) 
5,14,24,25

>  <DihDeg>  (1) 
-83.61903725933455

$$$$
