
 OpenBabel03272508423D

 19 20  0  0  0  0  0  0  0  0999 V2000
   34.0630   28.0620   48.1190 C   0  0  0  0  0  0  0  0  0  0  0  0
   34.0700   26.8100   48.1340 O   0  0  0  0  0  0  0  0  0  0  0  0
   30.9920   28.9830   46.4010 C   0  0  0  0  0  0  0  0  0  0  0  0
   31.3120   30.2050   45.8000 C   0  0  0  0  0  0  0  0  0  0  0  0
   32.5890   30.7280   45.9770 C   0  0  0  0  0  0  0  0  0  0  0  0
   33.4530   30.0090   46.7330 N   0  0  0  0  0  0  0  0  0  0  0  0
   33.1250   28.8300   47.3060 C   0  0  0  0  0  0  0  0  0  0  0  0
   31.8910   28.3180   47.1390 N   0  0  0  0  0  0  0  0  0  0  0  0
   29.9890   28.5580   46.2710 H   0  0  0  0  0  0  0  0  0  0  0  0
   30.5870   30.7500   45.2000 H   0  0  0  0  0  0  0  0  0  0  0  0
   32.9100   31.6640   45.5440 H   0  0  0  0  0  0  0  0  0  0  0  0
   35.0460   28.7620   48.9580 C   0  0  0  0  0  0  0  0  0  0  0  0
   34.8640   29.0340   50.3020 C   0  0  0  0  0  0  0  0  0  0  0  0
   34.0070   28.7830   50.9020 H   0  0  0  0  0  0  0  0  0  0  0  0
   36.0480   29.6970   50.6440 C   0  0  0  0  0  0  0  0  0  0  0  0
   36.2580   30.0650   51.6400 H   0  0  0  0  0  0  0  0  0  0  0  0
   36.8590   29.7900   49.5320 C   0  0  0  0  0  0  0  0  0  0  0  0
   37.8470   30.2450   49.4560 H   0  0  0  0  0  0  0  0  0  0  0  0
   36.2240   29.2180   48.5390 O   0  0  0  0  0  0  0  0  0  0  0  0
  1  2  2  0  0  0  0
  1 12  1  0  0  0  0
  3  8  1  0  0  0  0
  4  5  1  0  0  0  0
  4  3  2  0  0  0  0
  5  6  2  0  0  0  0
  6  7  1  0  0  0  0
  7  1  1  0  0  0  0
  8  7  2  0  0  0  0
  9  3  1  0  0  0  0
 10  4  1  0  0  0  0
 11  5  1  0  0  0  0
 12 13  2  0  0  0  0
 13 15  1  0  0  0  0
 13 14  1  0  0  0  0
 15 16  1  0  0  0  0
 17 15  2  0  0  0  0
 18 17  1  0  0  0  0
 19 12  1  0  0  0  0
 19 17  1  0  0  0  0
M  END
>  <minimizedAffinity>
-3.43769383

>  <minimizedRMSD>
4.97544098

$$$$
