
 OpenBabel03272509303D

 37 39  0  0  1  0  0  0  0  0999 V2000
   36.3680   30.7340   48.9570 C   0  0  2  0  0  0  0  0  0  0  0  0
   37.3550   31.6130   49.6640 C   0  0  0  0  0  0  0  0  0  0  0  0
   38.2560   30.8460   50.6070 C   0  0  0  0  0  0  0  0  0  0  0  0
   37.4230   30.0760   51.6310 C   0  0  0  0  0  0  0  0  0  0  0  0
   36.1540   29.4910   51.0720 C   0  0  0  0  0  0  0  0  0  0  0  0
   36.3110   29.3630   49.5450 C   0  0  1  0  0  0  0  0  0  0  0  0
   35.3080   31.1310   48.9960 H   0  0  0  0  0  0  0  0  0  0  0  0
   36.7160   32.2470   50.3670 H   0  0  0  0  0  0  0  0  0  0  0  0
   37.8980   32.3270   49.0740 H   0  0  0  0  0  0  0  0  0  0  0  0
   38.8520   31.5910   51.1500 H   0  0  0  0  0  0  0  0  0  0  0  0
   38.9120   30.1190   50.1190 H   0  0  0  0  0  0  0  0  0  0  0  0
   37.1630   30.7670   52.4530 H   0  0  0  0  0  0  0  0  0  0  0  0
   38.0340   29.2270   52.0420 H   0  0  0  0  0  0  0  0  0  0  0  0
   35.3020   30.1630   51.2100 H   0  0  0  0  0  0  0  0  0  0  0  0
   35.9550   28.4800   51.4910 H   0  0  0  0  0  0  0  0  0  0  0  0
   37.2590   28.8840   49.4930 H   0  0  0  0  0  0  0  0  0  0  0  0
   36.6920   30.6200   47.5100 C   0  0  0  0  0  0  0  0  0  0  0  0
   38.0470   30.7910   47.1780 C   0  0  0  0  0  0  0  0  0  0  0  0
   38.3790   30.6860   45.8220 C   0  0  0  0  0  0  0  0  0  0  0  0
   37.3760   30.4270   44.9130 N   0  0  0  0  0  0  0  0  0  0  0  0
   36.0730   30.2690   45.2910 C   0  0  0  0  0  0  0  0  0  0  0  0
   35.7490   30.3690   46.5960 N   0  0  0  0  0  0  0  0  0  0  0  0
   38.9140   30.9850   47.7800 H   0  0  0  0  0  0  0  0  0  0  0  0
   39.3740   30.7940   45.4190 H   0  0  0  0  0  0  0  0  0  0  0  0
   35.3770   30.0690   44.4920 H   0  0  0  0  0  0  0  0  0  0  0  0
   33.9910   28.4050   49.1460 C   0  0  0  0  0  0  0  0  0  0  0  0
   33.2170   29.1050   49.8650 O   0  0  0  0  0  0  0  0  0  0  0  0
   35.3920   28.4800   48.9230 N   0  0  0  0  0  0  0  0  0  0  0  0
   35.7350   27.7720   48.1950 H   0  0  0  0  0  0  0  0  0  0  0  0
   33.1920   27.3540   48.4640 C   0  0  0  0  0  0  0  0  0  0  0  0
   33.6270   26.3800   47.5950 C   0  0  0  0  0  0  0  0  0  0  0  0
   34.6190   26.1970   47.2510 H   0  0  0  0  0  0  0  0  0  0  0  0
   32.5370   25.5970   47.1860 C   0  0  0  0  0  0  0  0  0  0  0  0
   32.5800   24.7520   46.5000 H   0  0  0  0  0  0  0  0  0  0  0  0
   31.4720   26.1650   47.8550 C   0  0  0  0  0  0  0  0  0  0  0  0
   30.4610   25.7850   47.7520 H   0  0  0  0  0  0  0  0  0  0  0  0
   31.9000   27.1570   48.5640 O   0  0  0  0  0  0  0  0  0  0  0  0
  1  7  1  1  0  0  0
  1  6  1  0  0  0  0
  1  2  1  0  0  0  0
  2  8  1  0  0  0  0
  2  3  1  0  0  0  0
  3 10  1  0  0  0  0
  3  4  1  0  0  0  0
  4 13  1  0  0  0  0
  4 12  1  0  0  0  0
  5 14  1  0  0  0  0
  5 15  1  0  0  0  0
  5  4  1  0  0  0  0
  6 16  1  6  0  0  0
  6  5  1  0  0  0  0
  9  2  1  0  0  0  0
 11  3  1  0  0  0  0
 17  1  1  0  0  0  0
 18 17  1  0  0  0  0
 18 23  1  0  0  0  0
 19 18  2  0  0  0  0
 20 21  2  0  0  0  0
 20 19  1  0  0  0  0
 21 22  1  0  0  0  0
 22 17  2  0  0  0  0
 24 19  1  0  0  0  0
 25 21  1  0  0  0  0
 26 27  2  0  0  0  0
 28 26  1  0  0  0  0
 28  6  1  0  0  0  0
 29 28  1  0  0  0  0
 30 37  1  0  0  0  0
 30 26  1  0  0  0  0
 31 30  2  0  0  0  0
 32 31  1  0  0  0  0
 33 31  1  0  0  0  0
 33 35  2  0  0  0  0
 34 33  1  0  0  0  0
 35 37  1  0  0  0  0
 36 35  1  0  0  0  0
M  END
>  <minimizedAffinity>
-5.91198587

>  <minimizedRMSD>
0.424210429

$$$$
