
 OpenBabel03272504093D

 32 34  0  0  0  0  0  0  0  0999 V2000
   37.7980   30.5120   50.1880 C   0  0  0  0  0  0  0  0  0  0  0  0
   37.3340   30.7130   48.9060 C   0  0  0  0  0  0  0  0  0  0  0  0
   36.0200   30.3140   48.5630 C   0  0  0  0  0  0  0  0  0  0  0  0
   35.2680   29.7370   49.5410 N   0  0  0  0  0  0  0  0  0  0  0  0
   35.7680   29.5540   50.8010 C   0  0  0  0  0  0  0  0  0  0  0  0
   37.0290   29.9420   51.1210 N   0  0  0  0  0  0  0  0  0  0  0  0
   34.9370   28.9400   51.7800 N   0  0  0  0  0  0  0  0  0  0  0  0
   38.8220   30.8270   50.4480 H   0  0  0  0  0  0  0  0  0  0  0  0
   34.0730   28.4270   51.6140 H   0  0  0  0  0  0  0  0  0  0  0  0
   35.2060   28.9990   52.7820 H   0  0  0  0  0  0  0  0  0  0  0  0
   38.3080   33.5680   49.2730 Cl  0  0  0  0  0  0  0  0  0  0  0  0
   38.7790   32.6050   47.9130 C   0  0  0  0  0  0  0  0  0  0  0  0
   38.2490   31.3490   47.9220 C   0  0  0  0  0  0  0  0  0  0  0  0
   38.5710   30.4800   46.8620 C   0  0  0  0  0  0  0  0  0  0  0  0
   39.3840   30.8620   45.8470 C   0  0  0  0  0  0  0  0  0  0  0  0
   39.9110   32.1540   45.8630 C   0  0  0  0  0  0  0  0  0  0  0  0
   40.9660   32.6900   44.5820 Cl  0  0  0  0  0  0  0  0  0  0  0  0
   39.6000   33.0030   46.8960 C   0  0  0  0  0  0  0  0  0  0  0  0
   38.2400   29.4570   46.7550 H   0  0  0  0  0  0  0  0  0  0  0  0
   39.6750   30.2450   45.0000 H   0  0  0  0  0  0  0  0  0  0  0  0
   39.9860   34.0150   46.9510 H   0  0  0  0  0  0  0  0  0  0  0  0
   35.5410   30.5340   47.2080 C   0  0  0  0  0  0  0  0  0  0  0  0
   36.3460   30.3050   46.4820 H   0  0  0  0  0  0  0  0  0  0  0  0
   35.3230   31.6250   47.0850 H   0  0  0  0  0  0  0  0  0  0  0  0
   34.3160   29.7400   46.8920 C   0  0  0  0  0  0  0  0  0  0  0  0
   33.0760   30.2750   46.5690 C   0  0  0  0  0  0  0  0  0  0  0  0
   32.7540   31.2970   46.4830 H   0  0  0  0  0  0  0  0  0  0  0  0
   32.2780   29.1420   46.3660 C   0  0  0  0  0  0  0  0  0  0  0  0
   31.2110   29.1150   46.0890 H   0  0  0  0  0  0  0  0  0  0  0  0
   33.0600   28.0110   46.5740 C   0  0  0  0  0  0  0  0  0  0  0  0
   32.6950   27.0030   46.4830 H   0  0  0  0  0  0  0  0  0  0  0  0
   34.2580   28.4070   46.8830 O   0  0  0  0  0  0  0  0  0  0  0  0
  1  8  1  0  0  0  0
  1  6  1  0  0  0  0
  2  1  2  0  0  0  0
  3  2  1  0  0  0  0
  3  4  2  0  0  0  0
  4  5  1  0  0  0  0
  5  6  2  0  0  0  0
  5  7  1  0  0  0  0
  7 10  1  0  0  0  0
  9  7  1  0  0  0  0
 12 13  1  0  0  0  0
 12 11  1  0  0  0  0
 13  2  1  0  0  0  0
 14 13  2  0  0  0  0
 15 16  2  0  0  0  0
 15 14  1  0  0  0  0
 16 18  1  0  0  0  0
 17 16  1  0  0  0  0
 18 21  1  0  0  0  0
 18 12  2  0  0  0  0
 19 14  1  0  0  0  0
 20 15  1  0  0  0  0
 22  3  1  0  0  0  0
 23 22  1  0  0  0  0
 24 22  1  0  0  0  0
 25 22  1  0  0  0  0
 26 25  2  0  0  0  0
 27 26  1  0  0  0  0
 28 26  1  0  0  0  0
 28 30  2  0  0  0  0
 29 28  1  0  0  0  0
 30 32  1  0  0  0  0
 31 30  1  0  0  0  0
 32 25  1  0  0  0  0
M  END
>  <minimizedAffinity>
-5.72751808

>  <minimizedRMSD>
0.657643616

$$$$
