
 OpenBabel03272509583D

 45 48  0  0  0  0  0  0  0  0999 V2000
   34.4480   28.5010   48.2760 C   0  0  0  0  0  0  0  0  0  0  0  0
   35.4610   28.0320   48.1960 H   0  0  0  0  0  0  0  0  0  0  0  0
   34.3610   29.1870   47.4210 H   0  0  0  0  0  0  0  0  0  0  0  0
   33.4630   27.3670   48.2360 C   0  0  0  0  0  0  0  0  0  0  0  0
   33.3520   26.9310   49.2300 H   0  0  0  0  0  0  0  0  0  0  0  0
   33.8030   26.5450   47.5600 H   0  0  0  0  0  0  0  0  0  0  0  0
   32.1250   27.7860   47.7240 C   0  0  0  0  0  0  0  0  0  0  0  0
   31.0410   27.7100   48.6020 C   0  0  0  0  0  0  0  0  0  0  0  0
   29.7760   28.0760   48.2150 C   0  0  0  0  0  0  0  0  0  0  0  0
   29.5730   28.5150   46.9680 N   0  0  0  0  0  0  0  0  0  0  0  0
   30.6450   28.5790   46.1300 C   0  0  0  0  0  0  0  0  0  0  0  0
   31.8950   28.2300   46.4750 N   0  0  0  0  0  0  0  0  0  0  0  0
   31.1350   27.3650   49.6240 H   0  0  0  0  0  0  0  0  0  0  0  0
   28.9200   28.0260   48.8780 H   0  0  0  0  0  0  0  0  0  0  0  0
   30.3630   29.0780   44.7410 C   0  0  0  0  0  0  0  0  0  0  0  0
   30.8960   28.3800   44.0620 H   0  0  0  0  0  0  0  0  0  0  0  0
   29.2780   28.9440   44.5350 H   0  0  0  0  0  0  0  0  0  0  0  0
   30.7840   30.4940   44.5880 C   0  0  0  0  0  0  0  0  0  0  0  0
   32.0440   30.8780   44.1700 C   0  0  0  0  0  0  0  0  0  0  0  0
   32.8530   30.1830   43.9120 H   0  0  0  0  0  0  0  0  0  0  0  0
   32.0160   32.2600   44.1640 C   0  0  0  0  0  0  0  0  0  0  0  0
   32.9150   32.7970   43.8640 H   0  0  0  0  0  0  0  0  0  0  0  0
   30.7380   32.6490   44.5800 C   0  0  0  0  0  0  0  0  0  0  0  0
   30.5570   33.7140   44.6280 H   0  0  0  0  0  0  0  0  0  0  0  0
   30.0730   31.5570   44.8100 O   0  0  0  0  0  0  0  0  0  0  0  0
   34.4330   29.1640   49.5230 O   0  0  0  0  0  0  0  0  0  0  0  0
   37.2430   29.9520   51.6560 C   0  0  0  0  0  0  0  0  0  0  0  0
   38.0710   30.6420   50.7440 C   0  0  0  0  0  0  0  0  0  0  0  0
   37.5990   30.7900   49.4460 C   0  0  0  0  0  0  0  0  0  0  0  0
   36.3710   30.2480   49.1770 N   0  0  0  0  0  0  0  0  0  0  0  0
   35.6070   29.6020   50.0470 C   0  0  0  0  0  0  0  0  0  0  0  0
   36.0610   29.4560   51.3110 N   0  0  0  0  0  0  0  0  0  0  0  0
   37.6440   29.8560   52.6620 H   0  0  0  0  0  0  0  0  0  0  0  0
   39.0290   31.0620   50.9650 H   0  0  0  0  0  0  0  0  0  0  0  0
   38.7880   33.4330   49.4670 F   0  0  0  0  0  0  0  0  0  0  0  0
   38.8580   32.6870   48.3690 C   0  0  0  0  0  0  0  0  0  0  0  0
   38.3050   31.4660   48.3710 C   0  0  0  0  0  0  0  0  0  0  0  0
   38.4350   30.7740   47.1780 C   0  0  0  0  0  0  0  0  0  0  0  0
   39.0750   31.2900   46.0840 C   0  0  0  0  0  0  0  0  0  0  0  0
   39.6330   32.5550   46.1230 C   0  0  0  0  0  0  0  0  0  0  0  0
   39.5140   33.2460   47.2850 C   0  0  0  0  0  0  0  0  0  0  0  0
   38.0230   29.7650   47.0580 H   0  0  0  0  0  0  0  0  0  0  0  0
   39.1610   30.7240   45.1630 H   0  0  0  0  0  0  0  0  0  0  0  0
   40.1500   33.0040   45.2780 H   0  0  0  0  0  0  0  0  0  0  0  0
   39.9420   34.2380   47.3420 H   0  0  0  0  0  0  0  0  0  0  0  0
  1 26  1  0  0  0  0
  2  1  1  0  0  0  0
  3  1  1  0  0  0  0
  4  1  1  0  0  0  0
  4  5  1  0  0  0  0
  6  4  1  0  0  0  0
  7  4  1  0  0  0  0
  7  8  1  0  0  0  0
  8 13  1  0  0  0  0
  9  8  2  0  0  0  0
  9 14  1  0  0  0  0
 10  9  1  0  0  0  0
 11 12  1  0  0  0  0
 11 10  2  0  0  0  0
 12  7  2  0  0  0  0
 15 11  1  0  0  0  0
 16 15  1  0  0  0  0
 17 15  1  0  0  0  0
 18 15  1  0  0  0  0
 18 25  1  0  0  0  0
 19 18  2  0  0  0  0
 20 19  1  0  0  0  0
 21 19  1  0  0  0  0
 21 23  2  0  0  0  0
 22 21  1  0  0  0  0
 23 24  1  0  0  0  0
 23 25  1  0  0  0  0
 26 31  1  0  0  0  0
 27 33  1  0  0  0  0
 28 34  1  0  0  0  0
 28 27  2  0  0  0  0
 29 28  1  0  0  0  0
 30 29  2  0  0  0  0
 30 31  1  0  0  0  0
 31 32  2  0  0  0  0
 32 27  1  0  0  0  0
 36 37  1  0  0  0  0
 36 35  1  0  0  0  0
 37 29  1  0  0  0  0
 38 37  2  0  0  0  0
 39 40  2  0  0  0  0
 39 38  1  0  0  0  0
 40 41  1  0  0  0  0
 41 45  1  0  0  0  0
 41 36  2  0  0  0  0
 42 38  1  0  0  0  0
 43 39  1  0  0  0  0
 44 40  1  0  0  0  0
M  END
>  <minimizedAffinity>
-6.13577938

>  <minimizedRMSD>
1.23217583

$$$$
