
 OpenBabel03262523563D

 37 39  0  0  1  0  0  0  0  0999 V2000
   37.9200   30.3490   47.5600 C   0  0  1  0  0  0  0  0  0  0  0  0
   37.2210   30.5830   46.3050 C   0  0  0  0  0  0  0  0  0  0  0  0
   38.2140   30.5480   45.1850 C   0  0  0  0  0  0  0  0  0  0  0  0
   39.4690   31.2520   45.5550 C   0  0  0  0  0  0  0  0  0  0  0  0
   39.3570   32.2030   46.6780 C   0  0  0  0  0  0  0  0  0  0  0  0
   38.6760   31.6210   47.9190 C   0  0  1  0  0  0  0  0  0  0  0  0
   38.7020   29.5550   47.4450 H   0  0  0  0  0  0  0  0  0  0  0  0
   36.4500   29.7950   46.0980 H   0  0  0  0  0  0  0  0  0  0  0  0
   36.6470   31.5340   46.2930 H   0  0  0  0  0  0  0  0  0  0  0  0
   37.7340   31.1090   44.3320 H   0  0  0  0  0  0  0  0  0  0  0  0
   38.3450   29.5040   44.8220 H   0  0  0  0  0  0  0  0  0  0  0  0
   40.2320   30.4830   45.8230 H   0  0  0  0  0  0  0  0  0  0  0  0
   39.8460   31.8140   44.6800 H   0  0  0  0  0  0  0  0  0  0  0  0
   38.8290   33.1560   46.3960 H   0  0  0  0  0  0  0  0  0  0  0  0
   40.3680   32.5330   46.9900 H   0  0  0  0  0  0  0  0  0  0  0  0
   39.4680   31.3250   48.6550 H   0  0  0  0  0  0  0  0  0  0  0  0
   36.9540   29.3150   50.9950 C   0  0  0  0  0  0  0  0  0  0  0  0
   37.7770   29.6480   49.8800 C   0  0  0  0  0  0  0  0  0  0  0  0
   37.0880   30.0230   48.7330 C   0  0  0  0  0  0  0  0  0  0  0  0
   35.7000   30.0580   48.7090 N   0  0  0  0  0  0  0  0  0  0  0  0
   34.9740   29.7350   49.7850 C   0  0  0  0  0  0  0  0  0  0  0  0
   35.5900   29.3590   50.9410 N   0  0  0  0  0  0  0  0  0  0  0  0
   37.4000   29.0160   51.9190 H   0  0  0  0  0  0  0  0  0  0  0  0
   38.8370   29.6040   49.9520 H   0  0  0  0  0  0  0  0  0  0  0  0
   33.9200   29.8040   49.6400 H   0  0  0  0  0  0  0  0  0  0  0  0
   38.0880   33.6900   49.4750 C   0  0  0  0  0  0  0  0  0  0  0  0
   39.3210   33.7830   49.7340 O   0  0  0  0  0  0  0  0  0  0  0  0
   37.8650   32.6280   48.5470 N   0  0  0  0  0  0  0  0  0  0  0  0
   36.8790   32.4600   48.1650 H   0  0  0  0  0  0  0  0  0  0  0  0
   36.9490   34.4470   49.9440 C   0  0  0  0  0  0  0  0  0  0  0  0
   36.3360   35.6240   49.5180 C   0  0  0  0  0  0  0  0  0  0  0  0
   36.7190   36.1630   48.6620 H   0  0  0  0  0  0  0  0  0  0  0  0
   35.2850   35.7990   50.4120 C   0  0  0  0  0  0  0  0  0  0  0  0
   34.6310   36.6520   50.3120 H   0  0  0  0  0  0  0  0  0  0  0  0
   35.3060   34.7390   51.3220 C   0  0  0  0  0  0  0  0  0  0  0  0
   34.5680   34.6790   52.1110 H   0  0  0  0  0  0  0  0  0  0  0  0
   36.3210   33.9680   50.9910 O   0  0  0  0  0  0  0  0  0  0  0  0
  1  7  1  6  0  0  0
  1  6  1  0  0  0  0
  1 19  1  0  0  0  0
  2  1  1  0  0  0  0
  3  4  1  0  0  0  0
  3  2  1  0  0  0  0
  4 12  1  0  0  0  0
  4  5  1  0  0  0  0
  5 15  1  0  0  0  0
  5  6  1  0  0  0  0
  6 28  1  0  0  0  0
  6 16  1  1  0  0  0
  8  2  1  0  0  0  0
  9  2  1  0  0  0  0
 10  3  1  0  0  0  0
 11  3  1  0  0  0  0
 13  4  1  0  0  0  0
 14  5  1  0  0  0  0
 17 23  1  0  0  0  0
 18 24  1  0  0  0  0
 18 17  2  0  0  0  0
 19 18  1  0  0  0  0
 20 19  2  0  0  0  0
 20 21  1  0  0  0  0
 21 22  2  0  0  0  0
 22 17  1  0  0  0  0
 25 21  1  0  0  0  0
 26 27  2  0  0  0  0
 26 30  1  0  0  0  0
 28 26  1  0  0  0  0
 29 28  1  0  0  0  0
 30 37  1  0  0  0  0
 31 30  2  0  0  0  0
 31 33  1  0  0  0  0
 32 31  1  0  0  0  0
 33 35  2  0  0  0  0
 34 33  1  0  0  0  0
 35 36  1  0  0  0  0
 37 35  1  0  0  0  0
M  END
>  <minimizedAffinity>
3.37746167

>  <minimizedRMSD>
0.60328418

$$$$
