REMARK  Name = 
REMARK  1 active torsions:
REMARK  status: ('A' for Active; 'I' for Inactive)
REMARK    1  A    between atoms: N_12  and  C_20
REMARK                            x       y       z     vdW  Elec       q    Type
REMARK                         _______ _______ _______ _____ _____    ______ ____
ROOT
ATOM      1  C   UNL     1      37.489  30.262  51.330  0.00  0.00    +0.000 A 
ATOM      2  C   UNL     1      38.137  30.976  50.298  0.00  0.00    +0.000 A 
ATOM      3  C   UNL     1      37.820  30.730  48.977  0.00  0.00    +0.000 A 
ATOM      4  N   UNL     1      36.879  29.790  48.740  0.00  0.00    +0.000 NA
ATOM      5  C   UNL     1      36.248  29.097  49.705  0.00  0.00    +0.000 A 
ATOM      6  N   UNL     1      36.554  29.334  51.002  0.00  0.00    +0.000 NA
ATOM      7  N   UNL     1      38.441  31.419  47.914  0.00  0.00    +0.000 N 
ATOM      8  C   UNL     1      38.658  30.826  46.722  0.00  0.00    +0.000 A 
ATOM      9  C   UNL     1      39.284  31.512  45.681  0.00  0.00    +0.000 A 
ATOM     10  C   UNL     1      39.682  32.840  45.912  0.00  0.00    +0.000 A 
ATOM     11  O   UNL     1      40.243  33.499  45.028  0.00  0.00    +0.000 OA
ATOM     12  N   UNL     1      39.453  33.420  47.123  0.00  0.00    +0.000 N 
ATOM     13  C   UNL     1      38.843  32.677  48.062  0.00  0.00    +0.000 A 
ATOM     14  O   UNL     1      38.646  33.251  49.172  0.00  0.00    +0.000 OA
ATOM     15  H   UNL     1      37.680  30.398  52.367  0.00  0.00    +0.000 HD
ATOM     16  H   UNL     1      38.850  31.656  50.688  0.00  0.00    +0.000 HD
ATOM     17  H   UNL     1      35.525  28.384  49.341  0.00  0.00    +0.000 HD
ATOM     18  H   UNL     1      38.322  29.803  46.625  0.00  0.00    +0.000 HD
ATOM     19  H   UNL     1      39.451  31.026  44.732  0.00  0.00    +0.000 HD
ENDROOT
BRANCH  12  20
ATOM     20  C   UNL     1      39.867  34.766  47.327  0.00  0.00    +0.000 A 
ATOM     21  C   UNL     1      40.618  35.373  48.312  0.00  0.00    +0.000 A 
ATOM     22  H   UNL     1      41.027  34.826  49.143  0.00  0.00    +0.000 HD
ATOM     23  C   UNL     1      40.735  36.728  48.043  0.00  0.00    +0.000 A 
ATOM     24  H   UNL     1      41.257  37.473  48.620  0.00  0.00    +0.000 HD
ATOM     25  C   UNL     1      40.016  36.873  46.856  0.00  0.00    +0.000 A 
ATOM     26  H   UNL     1      39.923  37.853  46.381  0.00  0.00    +0.000 HD
ATOM     27  O   UNL     1      39.537  35.725  46.483  0.00  0.00    +0.000 OA
ENDBRANCH  12  20
TORSDOF 1
