REMARK  Name = 
REMARK  3 active torsions:
REMARK  status: ('A' for Active; 'I' for Inactive)
REMARK    1  A    between atoms: C_1  and  N_9
REMARK    2  A    between atoms: C_2  and  N_10
REMARK    3  A    between atoms: N_15  and  C_24
REMARK                            x       y       z     vdW  Elec       q    Type
REMARK                         _______ _______ _______ _____ _____    ______ ____
ROOT
ATOM      1  N   UNL     1      36.714  31.331  48.963  0.00  0.00    +0.000 N 
ATOM      2  C   UNL     1      36.552  32.331  49.822  0.00  0.00    +0.000 A 
ATOM      3  C   UNL     1      37.531  33.321  49.934  0.00  0.00    +0.000 A 
ATOM      4  C   UNL     1      38.607  33.147  49.108  0.00  0.00    +0.000 A 
ATOM      5  O   UNL     1      39.489  34.052  49.219  0.00  0.00    +0.000 OA
ATOM      6  N   UNL     1      38.814  32.160  48.230  0.00  0.00    +0.000 N 
ATOM      7  C   UNL     1      37.826  31.233  48.171  0.00  0.00    +0.000 A 
ATOM      8  O   UNL     1      37.992  30.290  47.353  0.00  0.00    +0.000 OA
ATOM      9  H   UNL     1      35.645  32.353  50.424  0.00  0.00    +0.000 HD
ATOM     10  H   UNL     1      37.419  34.133  50.619  0.00  0.00    +0.000 HD
ENDROOT
BRANCH   1  12
ATOM     11  C   UNL     1      35.642  29.344  49.831  0.00  0.00    +0.000 A 
ATOM     12  C   UNL     1      35.746  30.285  48.800  0.00  0.00    +0.000 A 
ATOM     13  C   UNL     1      34.914  30.157  47.685  0.00  0.00    +0.000 A 
ATOM     14  N   UNL     1      34.038  29.112  47.660  0.00  0.00    +0.000 NA
ATOM     15  C   UNL     1      33.945  28.225  48.638  0.00  0.00    +0.000 A 
ATOM     16  N   UNL     1      34.739  28.329  49.726  0.00  0.00    +0.000 NA
ATOM     17  H   UNL     1      35.074  30.923  46.964  0.00  0.00    +0.000 HD
ATOM     18  H   UNL     1      33.227  27.418  48.555  0.00  0.00    +0.000 HD
BRANCH  11  21
ATOM     19  C   UNL     1      37.662  30.032  51.328  0.00  0.00    +0.000 C 
ATOM     20  O   UNL     1      38.207  30.839  50.548  0.00  0.00    +0.000 OA
ATOM     21  N   UNL     1      36.420  29.384  51.017  0.00  0.00    +0.000 N 
ATOM     22  H   UNL     1      38.214  29.892  52.215  0.00  0.00    +0.000 HD
ATOM     23  H   UNL     1      36.077  28.863  51.871  0.00  0.00    +0.000 HD
ENDBRANCH  11  21
ENDBRANCH   1  12
BRANCH   6  24
ATOM     24  C   UNL     1      39.978  32.078  47.416  0.00  0.00    +0.000 A 
ATOM     25  C   UNL     1      40.922  32.950  46.905  0.00  0.00    +0.000 A 
ATOM     26  H   UNL     1      40.781  33.991  47.168  0.00  0.00    +0.000 HD
ATOM     27  C   UNL     1      41.790  32.166  46.182  0.00  0.00    +0.000 A 
ATOM     28  H   UNL     1      42.627  32.679  45.688  0.00  0.00    +0.000 HD
ATOM     29  C   UNL     1      41.358  30.868  46.273  0.00  0.00    +0.000 A 
ATOM     30  H   UNL     1      41.901  30.089  45.775  0.00  0.00    +0.000 HD
ATOM     31  O   UNL     1      40.273  30.847  47.017  0.00  0.00    +0.000 OA
ENDBRANCH   6  24
TORSDOF 3
