
 OpenBabel03272507553D

 22 23  0  0  0  0  0  0  0  0999 V2000
   34.9410   29.0950   50.1790 C   0  0  0  0  0  0  0  0  0  0  0  0
   36.1290   29.7520   49.7550 C   0  0  0  0  0  0  0  0  0  0  0  0
   36.1710   30.2490   48.4620 C   0  0  0  0  0  0  0  0  0  0  0  0
   35.0750   30.0820   47.6670 N   0  0  0  0  0  0  0  0  0  0  0  0
   33.9620   29.4550   48.0960 C   0  0  0  0  0  0  0  0  0  0  0  0
   33.8930   28.9590   49.3560 N   0  0  0  0  0  0  0  0  0  0  0  0
   32.9580   29.4050   47.0880 N   0  0  0  0  0  0  0  0  0  0  0  0
   34.9060   28.7150   51.1680 H   0  0  0  0  0  0  0  0  0  0  0  0
   32.6730   30.2640   46.5890 H   0  0  0  0  0  0  0  0  0  0  0  0
   32.5960   28.4310   46.9610 H   0  0  0  0  0  0  0  0  0  0  0  0
   37.3560   30.9110   47.9480 C   0  0  0  0  0  0  0  0  0  0  0  0
   37.6980   32.2090   48.2610 C   0  0  0  0  0  0  0  0  0  0  0  0
   37.1290   32.8770   48.9190 H   0  0  0  0  0  0  0  0  0  0  0  0
   38.8670   32.5980   47.6450 C   0  0  0  0  0  0  0  0  0  0  0  0
   39.4150   33.5290   47.6680 H   0  0  0  0  0  0  0  0  0  0  0  0
   39.2100   31.4620   46.9430 C   0  0  0  0  0  0  0  0  0  0  0  0
   40.0650   31.2810   46.2990 H   0  0  0  0  0  0  0  0  0  0  0  0
   38.3230   30.5560   47.1560 O   0  0  0  0  0  0  0  0  0  0  0  0
   37.2690   29.8760   50.7110 C   0  0  0  0  0  0  0  0  0  0  0  0
   38.4670   29.6130   50.0800 F   0  0  0  0  0  0  0  0  0  0  0  0
   37.2770   31.1440   51.2110 F   0  0  0  0  0  0  0  0  0  0  0  0
   37.1570   28.9940   51.7720 F   0  0  0  0  0  0  0  0  0  0  0  0
  1  8  1  0  0  0  0
  2  1  1  0  0  0  0
  2 19  1  0  0  0  0
  3  2  2  0  0  0  0
  4  5  2  0  0  0  0
  4  3  1  0  0  0  0
  5  6  1  0  0  0  0
  6  1  2  0  0  0  0
  7  5  1  0  0  0  0
  9  7  1  0  0  0  0
 10  7  1  0  0  0  0
 11 12  2  0  0  0  0
 11  3  1  0  0  0  0
 12 13  1  0  0  0  0
 14 15  1  0  0  0  0
 14 12  1  0  0  0  0
 16 18  1  0  0  0  0
 16 14  2  0  0  0  0
 17 16  1  0  0  0  0
 18 11  1  0  0  0  0
 19 21  1  0  0  0  0
 19 22  1  0  0  0  0
 20 19  1  0  0  0  0
M  END
>  <minimizedAffinity>
-5.3743186

>  <minimizedRMSD>
1.31693804

$$$$
