
 OpenBabel03272505493D

 39 43  0  0  0  0  0  0  0  0999 V2000
   36.3630   30.4200   46.0280 C   0  0  0  0  0  0  0  0  0  0  0  0
   36.8690   30.8380   47.2040 C   0  0  0  0  0  0  0  0  0  0  0  0
   36.2340   30.5200   48.3940 C   0  0  0  0  0  0  0  0  0  0  0  0
   35.0670   29.7620   48.3360 C   0  0  0  0  0  0  0  0  0  0  0  0
   34.5470   29.3300   47.1050 C   0  0  0  0  0  0  0  0  0  0  0  0
   35.2230   29.6810   45.9910 N   0  0  0  0  0  0  0  0  0  0  0  0
   37.7770   31.4300   47.2720 H   0  0  0  0  0  0  0  0  0  0  0  0
   36.5690   30.8130   49.3690 H   0  0  0  0  0  0  0  0  0  0  0  0
   34.5040   29.4680   49.2160 H   0  0  0  0  0  0  0  0  0  0  0  0
   37.0480   30.7610   44.7260 C   0  0  0  0  0  0  0  0  0  0  0  0
   36.7500   29.9210   43.5320 C   0  0  0  0  0  0  0  0  0  0  0  0
   36.2010   31.3120   43.6190 C   0  0  0  0  0  0  0  0  0  0  0  0
   36.0340   29.0850   43.7160 H   0  0  0  0  0  0  0  0  0  0  0  0
   37.5640   29.6610   42.8560 H   0  0  0  0  0  0  0  0  0  0  0  0
   36.7010   32.0370   42.9460 H   0  0  0  0  0  0  0  0  0  0  0  0
   35.1010   31.3920   43.7340 H   0  0  0  0  0  0  0  0  0  0  0  0
   39.7200   33.2830   45.0730 C   0  0  0  0  0  0  0  0  0  0  0  0
   40.8530   32.4810   45.3400 C   0  0  0  0  0  0  0  0  0  0  0  0
   40.6900   31.0690   45.3990 C   0  0  0  0  0  0  0  0  0  0  0  0
   39.4490   30.5870   45.1940 N   0  0  0  0  0  0  0  0  0  0  0  0
   38.3720   31.3680   44.9390 C   0  0  0  0  0  0  0  0  0  0  0  0
   38.5060   32.7040   44.8780 N   0  0  0  0  0  0  0  0  0  0  0  0
   39.8480   34.3570   45.0270 H   0  0  0  0  0  0  0  0  0  0  0  0
   41.8080   32.9710   45.4900 H   0  0  0  0  0  0  0  0  0  0  0  0
   41.5530   30.4780   45.6030 H   0  0  0  0  0  0  0  0  0  0  0  0
   33.3320   28.5370   46.9980 C   0  0  0  0  0  0  0  0  0  0  0  0
   32.9070   27.7090   46.0090 N   0  0  0  0  0  0  0  0  0  0  0  0
   31.7030   27.1780   46.3430 C   0  0  0  0  0  0  0  0  0  0  0  0
   31.3860   27.6990   47.5690 N   0  0  0  0  0  0  0  0  0  0  0  0
   32.3630   28.5130   47.9600 N   0  0  0  0  0  0  0  0  0  0  0  0
   31.0660   26.4910   45.8190 H   0  0  0  0  0  0  0  0  0  0  0  0
   30.2270   27.4830   48.3990 C   0  0  0  0  0  0  0  0  0  0  0  0
   28.9340   27.0350   48.2000 C   0  0  0  0  0  0  0  0  0  0  0  0
   28.6460   26.7570   47.1910 H   0  0  0  0  0  0  0  0  0  0  0  0
   28.3580   27.0830   49.4570 C   0  0  0  0  0  0  0  0  0  0  0  0
   27.3090   26.7660   49.5470 H   0  0  0  0  0  0  0  0  0  0  0  0
   29.3200   27.5540   50.3500 C   0  0  0  0  0  0  0  0  0  0  0  0
   28.9560   27.6250   51.3630 H   0  0  0  0  0  0  0  0  0  0  0  0
   30.4010   27.7730   49.6680 O   0  0  0  0  0  0  0  0  0  0  0  0
  1  2  1  0  0  0  0
  2  7  1  0  0  0  0
  2  3  2  0  0  0  0
  3  8  1  0  0  0  0
  4  3  1  0  0  0  0
  4  9  1  0  0  0  0
  5  4  2  0  0  0  0
  6  1  2  0  0  0  0
  6  5  1  0  0  0  0
 10 21  1  0  0  0  0
 10  1  1  0  0  0  0
 11 12  1  0  0  0  0
 11 13  1  0  0  0  0
 11 10  1  0  0  0  0
 12 16  1  0  0  0  0
 12 10  1  0  0  0  0
 14 11  1  0  0  0  0
 15 12  1  0  0  0  0
 17 18  1  0  0  0  0
 18 19  2  0  0  0  0
 18 24  1  0  0  0  0
 19 25  1  0  0  0  0
 20 19  1  0  0  0  0
 21 20  2  0  0  0  0
 22 21  1  0  0  0  0
 22 17  2  0  0  0  0
 23 17  1  0  0  0  0
 26  5  1  0  0  0  0
 26 30  2  0  0  0  0
 27 28  2  0  0  0  0
 27 26  1  0  0  0  0
 28 29  1  0  0  0  0
 29 30  1  0  0  0  0
 29 32  1  0  0  0  0
 31 28  1  0  0  0  0
 32 39  1  0  0  0  0
 33 32  2  0  0  0  0
 33 35  1  0  0  0  0
 34 33  1  0  0  0  0
 35 36  1  0  0  0  0
 35 37  2  0  0  0  0
 37 38  1  0  0  0  0
 39 37  1  0  0  0  0
M  END
>  <minimizedAffinity>
-5.64624882

>  <minimizedRMSD>
1.07374835

$$$$
