
 OpenBabel03272502233D

 28 30  0  0  0  0  0  0  0  0999 V2000
   37.2440   29.7170   50.2120 C   0  0  0  0  0  0  0  0  0  0  0  0
   37.7810   30.4280   49.1400 C   0  0  0  0  0  0  0  0  0  0  0  0
   37.1150   30.3940   47.9280 C   0  0  0  0  0  0  0  0  0  0  0  0
   35.9710   29.6660   47.8520 N   0  0  0  0  0  0  0  0  0  0  0  0
   35.4760   28.9900   48.9000 C   0  0  0  0  0  0  0  0  0  0  0  0
   36.1170   29.0180   50.0840 N   0  0  0  0  0  0  0  0  0  0  0  0
   37.7850   29.7610   51.1480 H   0  0  0  0  0  0  0  0  0  0  0  0
   38.6760   31.0070   49.1710 H   0  0  0  0  0  0  0  0  0  0  0  0
   37.5540   31.0870   46.7040 C   0  0  0  0  0  0  0  0  0  0  0  0
   36.8940   30.9800   45.5120 C   0  0  0  0  0  0  0  0  0  0  0  0
   37.3170   31.6330   44.3740 C   0  0  0  0  0  0  0  0  0  0  0  0
   38.4230   32.4150   44.4210 N   0  0  0  0  0  0  0  0  0  0  0  0
   39.0550   32.5080   45.5940 C   0  0  0  0  0  0  0  0  0  0  0  0
   38.6560   31.8770   46.7110 N   0  0  0  0  0  0  0  0  0  0  0  0
   36.0140   30.3450   45.5210 H   0  0  0  0  0  0  0  0  0  0  0  0
   36.7150   31.4670   43.5110 H   0  0  0  0  0  0  0  0  0  0  0  0
   40.2720   33.3570   45.6750 C   0  0  0  0  0  0  0  0  0  0  0  0
   40.2990   33.9370   46.9430 F   0  0  0  0  0  0  0  0  0  0  0  0
   41.4280   32.6050   45.4470 F   0  0  0  0  0  0  0  0  0  0  0  0
   40.2480   34.3780   44.7840 F   0  0  0  0  0  0  0  0  0  0  0  0
   34.2340   28.2490   48.6730 C   0  0  0  0  0  0  0  0  0  0  0  0
   33.9460   27.1760   47.8540 C   0  0  0  0  0  0  0  0  0  0  0  0
   34.6800   26.7070   47.2170 H   0  0  0  0  0  0  0  0  0  0  0  0
   32.6040   26.9070   48.0630 C   0  0  0  0  0  0  0  0  0  0  0  0
   32.0600   26.1120   47.5650 H   0  0  0  0  0  0  0  0  0  0  0  0
   32.1300   27.8140   48.9890 C   0  0  0  0  0  0  0  0  0  0  0  0
   31.1150   27.8820   49.3780 H   0  0  0  0  0  0  0  0  0  0  0  0
   33.1450   28.5930   49.3200 O   0  0  0  0  0  0  0  0  0  0  0  0
  1  7  1  0  0  0  0
  2  8  1  0  0  0  0
  2  1  2  0  0  0  0
  3  2  1  0  0  0  0
  4  3  2  0  0  0  0
  4  5  1  0  0  0  0
  5  6  2  0  0  0  0
  6  1  1  0  0  0  0
  9 14  1  0  0  0  0
  9  3  1  0  0  0  0
 10 15  1  0  0  0  0
 10  9  2  0  0  0  0
 11 12  2  0  0  0  0
 11 10  1  0  0  0  0
 12 13  1  0  0  0  0
 13 17  1  0  0  0  0
 13 14  2  0  0  0  0
 16 11  1  0  0  0  0
 17 18  1  0  0  0  0
 19 17  1  0  0  0  0
 20 17  1  0  0  0  0
 21  5  1  0  0  0  0
 21 28  1  0  0  0  0
 22 24  1  0  0  0  0
 22 21  2  0  0  0  0
 23 22  1  0  0  0  0
 24 26  2  0  0  0  0
 25 24  1  0  0  0  0
 26 28  1  0  0  0  0
 26 27  1  0  0  0  0
M  END
>  <minimizedAffinity>
-6.12274504

>  <minimizedRMSD>
1.1518091

$$$$
