
     RDKit          3D

 44 46  0  0  0  0  0  0  0  0999 V2000
   37.6103   30.4558   48.5177 Cl  0  0  0  0  0  0  0  0  0  0  0  0
   36.4470   30.3119   47.1893 C   0  0  0  0  0  0  0  0  0  0  0  0
   36.8223   30.6853   45.9481 C   0  0  0  0  0  0  0  0  0  0  0  0
   35.9315   30.5783   44.9062 C   0  0  0  0  0  0  0  0  0  0  0  0
   34.6624   30.0856   45.1700 C   0  0  0  0  0  0  0  0  0  0  0  0
   34.3403   29.7184   46.4814 C   0  0  0  0  0  0  0  0  0  0  0  0
   35.2057   29.8178   47.5102 C   0  0  0  0  0  0  0  0  0  0  0  0
   39.8109   32.8482   45.9829 C   0  0  0  0  0  0  0  0  0  0  0  0
   40.6776   32.1113   45.1043 C   0  0  0  0  0  0  0  0  0  0  0  0
   40.1971   30.9208   44.5509 C   0  0  0  0  0  0  0  0  0  0  0  0
   38.9417   30.5000   44.8554 N   0  0  0  0  0  0  0  0  0  0  0  0
   38.1497   31.2158   45.6858 C   0  0  0  0  0  0  0  0  0  0  0  0
   38.5900   32.3637   46.2299 N   0  0  0  0  0  0  0  0  0  0  0  0
   41.0675   30.2237   43.6913 N   0  0  0  0  0  0  0  0  0  0  0  0
   34.8349   29.4275   48.8410 C   0  0  0  0  0  0  0  0  0  0  0  0
   34.1795   28.1329   49.0656 C   0  0  0  0  0  0  0  0  0  0  0  0
   32.8594   28.2817   49.3991 O   0  0  0  0  0  0  0  0  0  0  0  0
   32.6514   26.7112   47.3064 O   0  0  0  0  0  0  0  0  0  0  0  0
   31.8695   27.5352   48.2829 P   0  0  2  0  0  0  0  0  0  0  0  0
   31.0279   28.7899   47.4488 O   0  0  0  0  0  0  0  0  0  0  0  0
   30.6950   26.5889   48.9834 O   0  0  0  0  0  0  0  0  0  0  0  0
   29.8455   27.3573   49.7609 C   0  0  0  0  0  0  0  0  0  0  0  0
   29.3083   26.6454   50.8338 F   0  0  0  0  0  0  0  0  0  0  0  0
   30.5082   28.4275   50.3234 F   0  0  0  0  0  0  0  0  0  0  0  0
   28.7893   27.8200   48.9845 F   0  0  0  0  0  0  0  0  0  0  0  0
   36.2605   30.8872   43.9085 H   0  0  0  0  0  0  0  0  0  0  0  0
   34.0402   30.0412   44.2858 H   0  0  0  0  0  0  0  0  0  0  0  0
   33.3352   29.3817   46.4482 H   0  0  0  0  0  0  0  0  0  0  0  0
   40.1905   33.7535   46.3972 H   0  0  0  0  0  0  0  0  0  0  0  0
   41.6495   32.4852   44.9000 H   0  0  0  0  0  0  0  0  0  0  0  0
   41.7107   30.7451   43.0492 H   0  0  0  0  0  0  0  0  0  0  0  0
   41.1454   29.1983   43.6208 H   0  0  0  0  0  0  0  0  0  0  0  0
   34.1681   30.2440   49.2503 H   0  0  0  0  0  0  0  0  0  0  0  0
   35.7316   29.4768   49.4913 H   0  0  0  0  0  0  0  0  0  0  0  0
   34.6532   27.5266   49.8617 H   0  0  0  0  0  0  0  0  0  0  0  0
   34.2576   27.5188   48.1300 H   0  0  0  0  0  0  0  0  0  0  0  0
   30.5307   28.5951   46.1813 C   0  0  0  0  0  0  0  0  0  0  0  0
   31.1365   28.8142   44.9582 C   0  0  0  0  0  0  0  0  0  0  0  0
   32.1209   29.1822   44.7899 H   0  0  0  0  0  0  0  0  0  0  0  0
   30.2062   28.4590   43.9991 C   0  0  0  0  0  0  0  0  0  0  0  0
   30.3496   28.5056   42.9259 H   0  0  0  0  0  0  0  0  0  0  0  0
   29.0914   28.0454   44.6789 C   0  0  0  0  0  0  0  0  0  0  0  0
   28.1505   27.6898   44.2550 H   0  0  0  0  0  0  0  0  0  0  0  0
   29.3245   28.1413   45.9662 O   0  0  0  0  0  0  0  0  0  0  0  0
  2  7  2  0
  2  1  1  0
  3  2  1  0
  4  5  1  0
  4  3  2  0
  5  6  2  0
  6  7  1  0
  7 15  1  0
  8 13  2  0
  9  8  1  0
 10 11  1  0
 10  9  2  0
 11 12  2  0
 12  3  1  0
 12 13  1  0
 14 10  1  0
 15 16  1  0
 16 17  1  0
 19 18  2  0
 19 21  1  1
 19 17  1  0
 20 19  1  0
 21 22  1  0
 22 24  1  0
 22 23  1  0
 25 22  1  0
  4 26  1  0
  5 27  1  0
  6 28  1  0
  8 29  1  0
  9 30  1  0
 14 31  1  0
 14 32  1  0
 15 33  1  0
 15 34  1  0
 16 35  1  0
 16 36  1  0
 37 38  2  0
 38 39  1  0
 38 40  1  0
 40 41  1  0
 40 42  2  0
 42 43  1  0
 42 44  1  0
 44 37  1  0
 20 37  1  0
M  ISO  8  26  14  27  14  28  14  29  14  30  14  33   8  34   8  35   8
M  ISO  4  36   8  39  16  41  16  43  14
M  END
>  <DihAtoms>  (1) 
18,19,36,37

>  <DihDeg>  (1) 
-0.0002812982564374068

$$$$
