REMARK  Name = 
REMARK  5 active torsions:
REMARK  status: ('A' for Active; 'I' for Inactive)
REMARK    1  A    between atoms: C_11  and  C_12
REMARK    2  A    between atoms: C_11  and  C_16
REMARK    3  A    between atoms: C_16  and  O_17
REMARK    4  A    between atoms: C_16  and  C_33
REMARK    5  A    between atoms: O_17  and  C_18
REMARK                            x       y       z     vdW  Elec       q    Type
REMARK                         _______ _______ _______ _____ _____    ______ ____
ROOT
ATOM      1  C   UNL     1      36.690  29.953  49.010  0.00  0.00    +0.000 A 
ATOM      2  C   UNL     1      37.721  30.622  48.322  0.00  0.00    +0.000 A 
ATOM      3  C   UNL     1      37.491  30.911  46.975  0.00  0.00    +0.000 A 
ATOM      4  N   UNL     1      36.328  30.549  46.414  0.00  0.00    +0.000 NA
ATOM      5  C   UNL     1      35.365  29.909  47.109  0.00  0.00    +0.000 A 
ATOM      6  N   UNL     1      35.547  29.616  48.394  0.00  0.00    +0.000 NA
ATOM      7  N   UNL     1      38.462  31.561  46.218  0.00  0.00    +0.000 N 
ATOM      8  C   UNL     1      39.438  32.562  46.727  0.00  0.00    +0.000 C 
ATOM      9  C   UNL     1      40.095  33.196  45.564  0.00  0.00    +0.000 C 
ATOM     10  C   UNL     1      39.215  32.859  44.448  0.00  0.00    +0.000 C 
ATOM     11  C   UNL     1      38.789  31.494  44.829  0.00  0.00    +0.000 C 
ATOM     12  H   UNL     1      36.898  29.743  50.050  0.00  0.00    +0.000 HD
ATOM     13  H   UNL     1      38.663  30.924  48.750  0.00  0.00    +0.000 HD
ATOM     14  H   UNL     1      34.407  29.587  46.727  0.00  0.00    +0.000 HD
ATOM     15  H   UNL     1      40.016  32.258  47.572  0.00  0.00    +0.000 HD
ATOM     16  H   UNL     1      38.695  33.310  47.198  0.00  0.00    +0.000 HD
ATOM     17  H   UNL     1      41.142  33.297  45.466  0.00  0.00    +0.000 HD
ATOM     18  H   UNL     1      39.831  34.349  45.715  0.00  0.00    +0.000 HD
ATOM     19  H   UNL     1      38.350  33.510  44.269  0.00  0.00    +0.000 HD
ATOM     20  H   UNL     1      39.797  32.834  43.482  0.00  0.00    +0.000 HD
ENDROOT
BRANCH  11  21
ATOM     21  C   UNL     1      37.637  31.033  43.933  0.00  0.00    +0.000 C 
ATOM     22  F   UNL     1      36.510  31.747  44.285  0.00  0.00    +0.000 F 
ATOM     23  F   UNL     1      37.310  29.715  44.024  0.00  0.00    +0.000 F 
ATOM     24  F   UNL     1      37.960  31.425  42.649  0.00  0.00    +0.000 F 
ENDBRANCH  11  21
BRANCH  11  25
ATOM     25  C   UNL     1      39.826  30.511  44.671  0.00  0.00    +0.000 C 
ATOM     26  H   UNL     1      39.513  29.534  44.988  0.00  0.00    +0.000 HD
BRANCH  25  27
ATOM     27  C   UNL     1      41.102  30.616  45.604  0.00  0.00    +0.000 A 
ATOM     28  C   UNL     1      41.501  29.535  46.443  0.00  0.00    +0.000 A 
ATOM     29  H   UNL     1      41.010  28.550  46.559  0.00  0.00    +0.000 HD
ATOM     30  C   UNL     1      42.637  29.846  47.152  0.00  0.00    +0.000 A 
ATOM     31  H   UNL     1      43.171  29.240  47.859  0.00  0.00    +0.000 HD
ATOM     32  C   UNL     1      42.878  31.121  46.703  0.00  0.00    +0.000 A 
ATOM     33  H   UNL     1      43.682  31.779  46.988  0.00  0.00    +0.000 HD
ATOM     34  O   UNL     1      42.007  31.530  45.838  0.00  0.00    +0.000 OA
ENDBRANCH  25  27
BRANCH  25  35
ATOM     35  O   UNL     1      40.352  30.680  43.542  0.00  0.00    +0.000 OA
BRANCH  35  36
ATOM     36  C   UNL     1      40.991  29.982  42.587  0.00  0.00    +0.000 C 
ATOM     37  O   UNL     1      40.761  30.418  41.457  0.00  0.00    +0.000 OA
ATOM     38  N   UNL     1      41.866  28.913  42.252  0.00  0.00    +0.000 N 
ATOM     39  H   UNL     1      42.873  29.179  42.363  0.00  0.00    +0.000 HD
ATOM     40  H   UNL     1      41.554  27.971  41.930  0.00  0.00    +0.000 HD
ENDBRANCH  35  36
ENDBRANCH  25  35
ENDBRANCH  11  25
TORSDOF 5
