
 OpenBabel03272506453D

 31 33  0  0  1  0  0  0  0  0999 V2000
   38.5900   23.1180   36.2370 C   0  0  2  0  0  0  0  0  0  0  0  0
   37.6610   24.2260   36.6660 C   0  0  1  0  0  0  0  0  0  0  0  0
   37.6270   24.2240   38.0440 O   0  0  0  0  0  0  0  0  0  0  0  0
   38.6140   23.3730   38.5190 C   0  0  0  0  0  0  0  0  0  0  0  0
   39.5990   23.1700   37.3690 C   0  0  1  0  0  0  0  0  0  0  0  0
   38.0910   22.1400   36.1350 H   0  0  0  0  0  0  0  0  0  0  0  0
   36.6570   24.1190   36.2080 H   0  0  0  0  0  0  0  0  0  0  0  0
   39.1570   23.8200   39.3660 H   0  0  0  0  0  0  0  0  0  0  0  0
   38.1490   22.3990   38.7300 H   0  0  0  0  0  0  0  0  0  0  0  0
   40.2360   24.0390   37.2000 H   0  0  0  0  0  0  0  0  0  0  0  0
   39.1860   23.4280   35.0050 O   0  0  0  0  0  0  0  0  0  0  0  0
   39.8570   22.7690   34.7650 H   0  0  0  0  0  0  0  0  0  0  0  0
   38.4210   25.8010   36.1380 S   0  0  0  0  0  0  0  0  0  0  0  0
   36.4720   28.0860   33.5470 C   0  0  0  0  0  0  0  0  0  0  0  0
   36.3090   27.2890   32.4210 C   0  0  0  0  0  0  0  0  0  0  0  0
   36.8170   25.9910   32.4480 C   0  0  0  0  0  0  0  0  0  0  0  0
   37.4540   25.5550   33.5800 N   0  0  0  0  0  0  0  0  0  0  0  0
   37.5880   26.3720   34.6560 C   0  0  0  0  0  0  0  0  0  0  0  0
   37.1050   27.6320   34.6530 N   0  0  0  0  0  0  0  0  0  0  0  0
   36.0590   29.0740   33.4640 H   0  0  0  0  0  0  0  0  0  0  0  0
   35.8090   27.6190   31.5200 H   0  0  0  0  0  0  0  0  0  0  0  0
   36.7440   25.2980   31.6320 H   0  0  0  0  0  0  0  0  0  0  0  0
   40.2840   21.9820   37.5410 O   0  0  0  0  0  0  0  0  0  0  0  0
   41.5410   21.6860   37.0610 C   0  0  0  0  0  0  0  0  0  0  0  0
   42.2920   22.7880   36.6490 C   0  0  0  0  0  0  0  0  0  0  0  0
   42.1140   23.8650   36.6170 H   0  0  0  0  0  0  0  0  0  0  0  0
   43.5220   22.2980   36.1980 C   0  0  0  0  0  0  0  0  0  0  0  0
   44.4080   22.7740   35.7920 H   0  0  0  0  0  0  0  0  0  0  0  0
   43.4010   20.9230   36.3810 C   0  0  0  0  0  0  0  0  0  0  0  0
   44.1900   20.2030   36.1300 H   0  0  0  0  0  0  0  0  0  0  0  0
   42.2320   20.6070   36.8850 O   0  0  0  0  0  0  0  0  0  0  0  0
  1  6  1  6  0  0  0
  1  2  1  0  0  0  0
  1  5  1  0  0  0  0
  2  7  1  6  0  0  0
  2  3  1  0  0  0  0
  3  4  1  0  0  0  0
  4  9  1  0  0  0  0
  4  8  1  0  0  0  0
  5 10  1  6  0  0  0
  5 23  1  0  0  0  0
  5  4  1  0  0  0  0
 11  1  1  0  0  0  0
 12 11  1  0  0  0  0
 13  2  1  0  0  0  0
 14 19  1  0  0  0  0
 15 16  1  0  0  0  0
 15 14  2  0  0  0  0
 16 17  2  0  0  0  0
 17 18  1  0  0  0  0
 18 13  1  0  0  0  0
 19 18  2  0  0  0  0
 20 14  1  0  0  0  0
 21 15  1  0  0  0  0
 22 16  1  0  0  0  0
 24 23  1  0  0  0  0
 25 24  2  0  0  0  0
 26 25  1  0  0  0  0
 27 29  2  0  0  0  0
 27 25  1  0  0  0  0
 28 27  1  0  0  0  0
 29 31  1  0  0  0  0
 30 29  1  0  0  0  0
 31 24  1  0  0  0  0
M  END
>  <minimizedAffinity>
-4.62734604

$$$$

 OpenBabel03272506453D

 31 33  0  0  1  0  0  0  0  0999 V2000
   37.9810   26.9760   33.5130 C   0  0  2  0  0  0  0  0  0  0  0  0
   39.0380   26.0200   34.0060 C   0  0  1  0  0  0  0  0  0  0  0  0
   39.4810   26.4880   35.2240 O   0  0  0  0  0  0  0  0  0  0  0  0
   38.6490   27.5150   35.6430 C   0  0  0  0  0  0  0  0  0  0  0  0
   37.3580   27.3820   34.8360 C   0  0  1  0  0  0  0  0  0  0  0  0
   38.3880   27.8240   32.9390 H   0  0  0  0  0  0  0  0  0  0  0  0
   39.8550   25.8950   33.2660 H   0  0  0  0  0  0  0  0  0  0  0  0
   38.4010   27.4210   36.7120 H   0  0  0  0  0  0  0  0  0  0  0  0
   39.1170   28.4690   35.3590 H   0  0  0  0  0  0  0  0  0  0  0  0
   36.7340   26.5530   35.1720 H   0  0  0  0  0  0  0  0  0  0  0  0
   37.0570   26.3060   32.6960 O   0  0  0  0  0  0  0  0  0  0  0  0
   36.3200   26.8880   32.4510 H   0  0  0  0  0  0  0  0  0  0  0  0
   38.2170   24.4150   34.3010 S   0  0  0  0  0  0  0  0  0  0  0  0
   37.7880   23.9170   38.2120 C   0  0  0  0  0  0  0  0  0  0  0  0
   38.9090   23.1980   38.6050 C   0  0  0  0  0  0  0  0  0  0  0  0
   39.8450   22.8450   37.6330 C   0  0  0  0  0  0  0  0  0  0  0  0
   39.6210   23.2200   36.3350 N   0  0  0  0  0  0  0  0  0  0  0  0
   38.5090   23.9230   36.0000 C   0  0  0  0  0  0  0  0  0  0  0  0
   37.5900   24.2760   36.9230 N   0  0  0  0  0  0  0  0  0  0  0  0
   37.1050   24.1580   39.0060 H   0  0  0  0  0  0  0  0  0  0  0  0
   39.0990   22.8940   39.6260 H   0  0  0  0  0  0  0  0  0  0  0  0
   40.7420   22.2910   37.8340 H   0  0  0  0  0  0  0  0  0  0  0  0
   36.7100   28.6010   34.7800 O   0  0  0  0  0  0  0  0  0  0  0  0
   35.5990   28.9020   34.0230 C   0  0  0  0  0  0  0  0  0  0  0  0
   34.6650   29.7300   34.6470 C   0  0  0  0  0  0  0  0  0  0  0  0
   34.6030   30.2120   35.6250 H   0  0  0  0  0  0  0  0  0  0  0  0
   33.6190   29.9230   33.7380 C   0  0  0  0  0  0  0  0  0  0  0  0
   32.6910   30.4820   33.7800 H   0  0  0  0  0  0  0  0  0  0  0  0
   34.0230   29.1840   32.6290 C   0  0  0  0  0  0  0  0  0  0  0  0
   33.4380   29.1020   31.7050 H   0  0  0  0  0  0  0  0  0  0  0  0
   35.1810   28.6040   32.8350 O   0  0  0  0  0  0  0  0  0  0  0  0
  1  6  1  6  0  0  0
  1  2  1  0  0  0  0
  1  5  1  0  0  0  0
  2  7  1  6  0  0  0
  2 13  1  0  0  0  0
  2  3  1  0  0  0  0
  3  4  1  0  0  0  0
  4  8  1  0  0  0  0
  5 10  1  1  0  0  0
  5  4  1  0  0  0  0
  9  4  1  0  0  0  0
 11  1  1  0  0  0  0
 12 11  1  0  0  0  0
 13 18  1  0  0  0  0
 14 15  1  0  0  0  0
 14 20  1  0  0  0  0
 15 21  1  0  0  0  0
 16 22  1  0  0  0  0
 16 15  2  0  0  0  0
 17 16  1  0  0  0  0
 18 17  2  0  0  0  0
 18 19  1  0  0  0  0
 19 14  2  0  0  0  0
 23  5  1  0  0  0  0
 24 25  2  0  0  0  0
 24 23  1  0  0  0  0
 25 26  1  0  0  0  0
 27 28  1  0  0  0  0
 27 25  1  0  0  0  0
 29 31  1  0  0  0  0
 29 27  2  0  0  0  0
 30 29  1  0  0  0  0
 31 24  1  0  0  0  0
M  END
>  <minimizedAffinity>
-4.58531141

$$$$

 OpenBabel03272506453D

 31 33  0  0  1  0  0  0  0  0999 V2000
   37.8520   24.8610   32.6210 C   0  0  2  0  0  0  0  0  0  0  0  0
   37.7060   23.8070   31.5510 C   0  0  1  0  0  0  0  0  0  0  0  0
   38.4330   22.7080   31.9530 O   0  0  0  0  0  0  0  0  0  0  0  0
   38.8330   22.8880   33.2680 C   0  0  0  0  0  0  0  0  0  0  0  0
   37.9300   23.9740   33.8500 C   0  0  1  0  0  0  0  0  0  0  0  0
   38.7350   25.5050   32.4850 H   0  0  0  0  0  0  0  0  0  0  0  0
   38.0120   24.1890   30.5560 H   0  0  0  0  0  0  0  0  0  0  0  0
   38.6960   21.9690   33.8600 H   0  0  0  0  0  0  0  0  0  0  0  0
   39.8600   23.2830   33.2600 H   0  0  0  0  0  0  0  0  0  0  0  0
   36.9220   23.6170   34.0610 H   0  0  0  0  0  0  0  0  0  0  0  0
   36.7170   25.6850   32.6550 O   0  0  0  0  0  0  0  0  0  0  0  0
   36.7560   26.3040   33.4000 H   0  0  0  0  0  0  0  0  0  0  0  0
   35.9460   23.3180   31.5130 S   0  0  0  0  0  0  0  0  0  0  0  0
   35.4820   19.8680   33.4150 C   0  0  0  0  0  0  0  0  0  0  0  0
   35.6450   18.8970   32.4350 C   0  0  0  0  0  0  0  0  0  0  0  0
   35.9090   19.3090   31.1300 C   0  0  0  0  0  0  0  0  0  0  0  0
   35.9970   20.6500   30.8670 N   0  0  0  0  0  0  0  0  0  0  0  0
   35.8310   21.5620   31.8580 C   0  0  0  0  0  0  0  0  0  0  0  0
   35.5740   21.1870   33.1290 N   0  0  0  0  0  0  0  0  0  0  0  0
   35.2800   19.4870   34.3990 H   0  0  0  0  0  0  0  0  0  0  0  0
   35.5780   17.8340   32.6280 H   0  0  0  0  0  0  0  0  0  0  0  0
   36.0510   18.6390   30.3030 H   0  0  0  0  0  0  0  0  0  0  0  0
   38.5570   24.5840   34.9200 O   0  0  0  0  0  0  0  0  0  0  0  0
   38.7750   24.0310   36.1630 C   0  0  0  0  0  0  0  0  0  0  0  0
   37.7800   24.2860   37.1070 C   0  0  0  0  0  0  0  0  0  0  0  0
   36.8370   24.8380   37.0940 H   0  0  0  0  0  0  0  0  0  0  0  0
   38.1690   23.6540   38.2930 C   0  0  0  0  0  0  0  0  0  0  0  0
   37.7210   23.5780   39.2770 H   0  0  0  0  0  0  0  0  0  0  0  0
   39.3840   23.0640   37.9530 C   0  0  0  0  0  0  0  0  0  0  0  0
   39.9910   22.4740   38.6490 H   0  0  0  0  0  0  0  0  0  0  0  0
   39.7020   23.3080   36.7040 O   0  0  0  0  0  0  0  0  0  0  0  0
  1  6  1  6  0  0  0
  1 11  1  0  0  0  0
  1  5  1  0  0  0  0
  2  7  1  6  0  0  0
  2  3  1  0  0  0  0
  2  1  1  0  0  0  0
  3  4  1  0  0  0  0
  4  5  1  0  0  0  0
  4  8  1  0  0  0  0
  5 10  1  1  0  0  0
  5 23  1  0  0  0  0
  9  4  1  0  0  0  0
 11 12  1  0  0  0  0
 13  2  1  0  0  0  0
 13 18  1  0  0  0  0
 14 20  1  0  0  0  0
 15 21  1  0  0  0  0
 15 14  2  0  0  0  0
 16 15  1  0  0  0  0
 17 16  2  0  0  0  0
 17 18  1  0  0  0  0
 18 19  2  0  0  0  0
 19 14  1  0  0  0  0
 22 16  1  0  0  0  0
 23 24  1  0  0  0  0
 24 31  1  0  0  0  0
 24 25  2  0  0  0  0
 25 27  1  0  0  0  0
 26 25  1  0  0  0  0
 27 28  1  0  0  0  0
 29 27  2  0  0  0  0
 29 30  1  0  0  0  0
 31 29  1  0  0  0  0
M  END
>  <minimizedAffinity>
-4.55585575

$$$$

 OpenBabel03272506453D

 31 33  0  0  1  0  0  0  0  0999 V2000
   35.6240   24.7530   31.5180 C   0  0  2  0  0  0  0  0  0  0  0  0
   36.7740   25.4390   32.2130 C   0  0  1  0  0  0  0  0  0  0  0  0
   37.4930   24.4680   32.8760 O   0  0  0  0  0  0  0  0  0  0  0  0
   37.0370   23.2200   32.4800 C   0  0  0  0  0  0  0  0  0  0  0  0
   36.2820   23.4310   31.1690 C   0  0  1  0  0  0  0  0  0  0  0  0
   34.7280   24.6460   32.1510 H   0  0  0  0  0  0  0  0  0  0  0  0
   36.4220   26.2500   32.8820 H   0  0  0  0  0  0  0  0  0  0  0  0
   37.8730   22.5280   32.2920 H   0  0  0  0  0  0  0  0  0  0  0  0
   36.3080   22.8720   33.2270 H   0  0  0  0  0  0  0  0  0  0  0  0
   36.9470   23.6090   30.3230 H   0  0  0  0  0  0  0  0  0  0  0  0
   35.2560   25.4620   30.3650 O   0  0  0  0  0  0  0  0  0  0  0  0
   34.5830   24.9810   29.8580 H   0  0  0  0  0  0  0  0  0  0  0  0
   37.8540   26.1310   30.9130 S   0  0  0  0  0  0  0  0  0  0  0  0
   37.9110   29.9000   29.6770 C   0  0  0  0  0  0  0  0  0  0  0  0
   36.7500   30.4610   30.1930 C   0  0  0  0  0  0  0  0  0  0  0  0
   35.9050   29.6540   30.9550 C   0  0  0  0  0  0  0  0  0  0  0  0
   36.2530   28.3470   31.1630 N   0  0  0  0  0  0  0  0  0  0  0  0
   37.3990   27.8430   30.6390 C   0  0  0  0  0  0  0  0  0  0  0  0
   38.2320   28.6040   29.8980 N   0  0  0  0  0  0  0  0  0  0  0  0
   38.5190   30.5710   29.1000 H   0  0  0  0  0  0  0  0  0  0  0  0
   36.4620   31.4920   30.0360 H   0  0  0  0  0  0  0  0  0  0  0  0
   34.9860   29.9920   31.3960 H   0  0  0  0  0  0  0  0  0  0  0  0
   35.3750   22.4060   30.9790 O   0  0  0  0  0  0  0  0  0  0  0  0
   35.6010   21.0630   31.1920 C   0  0  0  0  0  0  0  0  0  0  0  0
   34.7210   20.4500   32.0850 C   0  0  0  0  0  0  0  0  0  0  0  0
   33.8680   20.7930   32.6750 H   0  0  0  0  0  0  0  0  0  0  0  0
   35.1010   19.1070   32.1750 C   0  0  0  0  0  0  0  0  0  0  0  0
   34.7180   18.2620   32.7350 H   0  0  0  0  0  0  0  0  0  0  0  0
   36.1930   19.0290   31.3130 C   0  0  0  0  0  0  0  0  0  0  0  0
   36.7580   18.1070   31.1280 H   0  0  0  0  0  0  0  0  0  0  0  0
   36.4520   20.1900   30.7610 O   0  0  0  0  0  0  0  0  0  0  0  0
  1  6  1  1  0  0  0
  1  2  1  0  0  0  0
  2  3  1  0  0  0  0
  2  7  1  1  0  0  0
  4  3  1  0  0  0  0
  4  9  1  0  0  0  0
  5 10  1  6  0  0  0
  5  1  1  0  0  0  0
  5  4  1  0  0  0  0
  8  4  1  0  0  0  0
 11  1  1  0  0  0  0
 12 11  1  0  0  0  0
 13  2  1  0  0  0  0
 14 19  2  0  0  0  0
 14 15  1  0  0  0  0
 15 16  2  0  0  0  0
 16 17  1  0  0  0  0
 16 22  1  0  0  0  0
 18 13  1  0  0  0  0
 18 17  2  0  0  0  0
 19 18  1  0  0  0  0
 20 14  1  0  0  0  0
 21 15  1  0  0  0  0
 23  5  1  0  0  0  0
 23 24  1  0  0  0  0
 24 25  2  0  0  0  0
 25 27  1  0  0  0  0
 25 26  1  0  0  0  0
 27 28  1  0  0  0  0
 29 27  2  0  0  0  0
 30 29  1  0  0  0  0
 31 24  1  0  0  0  0
 31 29  1  0  0  0  0
M  END
>  <minimizedAffinity>
-4.49682856

$$$$

 OpenBabel03272506453D

 31 33  0  0  1  0  0  0  0  0999 V2000
   37.2580   25.4230   31.3110 C   0  0  2  0  0  0  0  0  0  0  0  0
   37.3600   23.9220   31.2080 C   0  0  1  0  0  0  0  0  0  0  0  0
   37.9740   23.4710   32.3560 O   0  0  0  0  0  0  0  0  0  0  0  0
   38.0600   24.5160   33.2630 C   0  0  0  0  0  0  0  0  0  0  0  0
   37.0490   25.5670   32.8080 C   0  0  1  0  0  0  0  0  0  0  0  0
   38.1500   25.9510   30.9380 H   0  0  0  0  0  0  0  0  0  0  0  0
   37.8880   23.6100   30.2830 H   0  0  0  0  0  0  0  0  0  0  0  0
   37.7890   24.1910   34.2790 H   0  0  0  0  0  0  0  0  0  0  0  0
   39.0620   24.9620   33.1710 H   0  0  0  0  0  0  0  0  0  0  0  0
   36.0190   25.2830   33.0240 H   0  0  0  0  0  0  0  0  0  0  0  0
   36.1470   25.8890   30.5920 O   0  0  0  0  0  0  0  0  0  0  0  0
   36.0150   26.8400   30.7300 H   0  0  0  0  0  0  0  0  0  0  0  0
   35.6550   23.2650   31.2010 S   0  0  0  0  0  0  0  0  0  0  0  0
   35.4730   19.9740   33.4080 C   0  0  0  0  0  0  0  0  0  0  0  0
   35.7570   18.9390   32.5270 C   0  0  0  0  0  0  0  0  0  0  0  0
   36.0180   19.2540   31.1940 C   0  0  0  0  0  0  0  0  0  0  0  0
   35.9830   20.5670   30.8080 N   0  0  0  0  0  0  0  0  0  0  0  0
   35.7010   21.5450   31.7060 C   0  0  0  0  0  0  0  0  0  0  0  0
   35.4450   21.2640   33.0010 N   0  0  0  0  0  0  0  0  0  0  0  0
   35.2800   19.6670   34.4190 H   0  0  0  0  0  0  0  0  0  0  0  0
   35.7880   17.8960   32.8170 H   0  0  0  0  0  0  0  0  0  0  0  0
   36.2480   18.5280   30.4370 H   0  0  0  0  0  0  0  0  0  0  0  0
   37.4140   26.8100   33.2890 O   0  0  0  0  0  0  0  0  0  0  0  0
   36.6870   27.9750   33.1800 C   0  0  0  0  0  0  0  0  0  0  0  0
   36.2600   28.5220   34.3910 C   0  0  0  0  0  0  0  0  0  0  0  0
   36.3690   28.2370   35.4390 H   0  0  0  0  0  0  0  0  0  0  0  0
   35.5450   29.6850   34.0840 C   0  0  0  0  0  0  0  0  0  0  0  0
   35.0370   30.4260   34.6900 H   0  0  0  0  0  0  0  0  0  0  0  0
   35.6070   29.7370   32.6940 C   0  0  0  0  0  0  0  0  0  0  0  0
   35.1460   30.5310   32.0930 H   0  0  0  0  0  0  0  0  0  0  0  0
   36.2800   28.7230   32.2060 O   0  0  0  0  0  0  0  0  0  0  0  0
  1  6  1  6  0  0  0
  1  5  1  0  0  0  0
  2  7  1  6  0  0  0
  2  1  1  0  0  0  0
  2  3  1  0  0  0  0
  3  4  1  0  0  0  0
  4  8  1  0  0  0  0
  5 10  1  1  0  0  0
  5  4  1  0  0  0  0
  5 23  1  0  0  0  0
  9  4  1  0  0  0  0
 11 12  1  0  0  0  0
 11  1  1  0  0  0  0
 13  2  1  0  0  0  0
 13 18  1  0  0  0  0
 14 20  1  0  0  0  0
 15 21  1  0  0  0  0
 15 14  2  0  0  0  0
 16 15  1  0  0  0  0
 17 16  2  0  0  0  0
 17 18  1  0  0  0  0
 18 19  2  0  0  0  0
 19 14  1  0  0  0  0
 22 16  1  0  0  0  0
 24 23  1  0  0  0  0
 24 25  2  0  0  0  0
 25 26  1  0  0  0  0
 27 25  1  0  0  0  0
 27 28  1  0  0  0  0
 29 27  2  0  0  0  0
 30 29  1  0  0  0  0
 31 29  1  0  0  0  0
 31 24  1  0  0  0  0
M  END
>  <minimizedAffinity>
-4.47165251

$$$$

 OpenBabel03272506453D

 31 33  0  0  1  0  0  0  0  0999 V2000
   38.2500   25.7920   34.6120 C   0  0  2  0  0  0  0  0  0  0  0  0
   38.4960   26.5780   33.3490 C   0  0  1  0  0  0  0  0  0  0  0  0
   39.2350   25.7790   32.5040 O   0  0  0  0  0  0  0  0  0  0  0  0
   39.2810   24.4950   33.0230 C   0  0  0  0  0  0  0  0  0  0  0  0
   38.1380   24.3940   34.0320 C   0  0  1  0  0  0  0  0  0  0  0  0
   39.0540   25.8960   35.3590 H   0  0  0  0  0  0  0  0  0  0  0  0
   38.9830   27.5520   33.5620 H   0  0  0  0  0  0  0  0  0  0  0  0
   39.1200   23.7380   32.2390 H   0  0  0  0  0  0  0  0  0  0  0  0
   40.2230   24.3880   33.5810 H   0  0  0  0  0  0  0  0  0  0  0  0
   37.1600   24.3150   33.5550 H   0  0  0  0  0  0  0  0  0  0  0  0
   37.0480   26.1940   35.2140 O   0  0  0  0  0  0  0  0  0  0  0  0
   36.8300   25.6310   35.9730 H   0  0  0  0  0  0  0  0  0  0  0  0
   36.8710   26.8570   32.5630 S   0  0  0  0  0  0  0  0  0  0  0  0
   35.9160   30.6890   32.1940 C   0  0  0  0  0  0  0  0  0  0  0  0
   35.5090   31.0780   33.4630 C   0  0  0  0  0  0  0  0  0  0  0  0
   35.5240   30.1290   34.4850 C   0  0  0  0  0  0  0  0  0  0  0  0
   35.9390   28.8560   34.1970 N   0  0  0  0  0  0  0  0  0  0  0  0
   36.3280   28.5230   32.9400 C   0  0  0  0  0  0  0  0  0  0  0  0
   36.3220   29.4240   31.9350 N   0  0  0  0  0  0  0  0  0  0  0  0
   35.8820   31.4640   31.4510 H   0  0  0  0  0  0  0  0  0  0  0  0
   35.1790   32.0800   33.7060 H   0  0  0  0  0  0  0  0  0  0  0  0
   35.2290   30.3290   35.4980 H   0  0  0  0  0  0  0  0  0  0  0  0
   38.4090   23.4000   34.9520 O   0  0  0  0  0  0  0  0  0  0  0  0
   38.3000   23.5030   36.3220 C   0  0  0  0  0  0  0  0  0  0  0  0
   39.4300   23.1040   37.0370 C   0  0  0  0  0  0  0  0  0  0  0  0
   40.4130   22.7180   36.7600 H   0  0  0  0  0  0  0  0  0  0  0  0
   39.1360   23.2760   38.3940 C   0  0  0  0  0  0  0  0  0  0  0  0
   39.6980   23.1020   39.3050 H   0  0  0  0  0  0  0  0  0  0  0  0
   37.8340   23.7710   38.3760 C   0  0  0  0  0  0  0  0  0  0  0  0
   37.2670   24.0260   39.2790 H   0  0  0  0  0  0  0  0  0  0  0  0
   37.3830   23.8880   37.1500 O   0  0  0  0  0  0  0  0  0  0  0  0
  1 11  1  0  0  0  0
  1  6  1  1  0  0  0
  2  7  1  1  0  0  0
  2  1  1  0  0  0  0
  3  4  1  0  0  0  0
  3  2  1  0  0  0  0
  4  9  1  0  0  0  0
  4  5  1  0  0  0  0
  5 10  1  6  0  0  0
  5  1  1  0  0  0  0
  5 23  1  0  0  0  0
  8  4  1  0  0  0  0
 11 12  1  0  0  0  0
 13 18  1  0  0  0  0
 13  2  1  0  0  0  0
 14 15  1  0  0  0  0
 15 21  1  0  0  0  0
 15 16  2  0  0  0  0
 16 22  1  0  0  0  0
 17 16  1  0  0  0  0
 18 17  2  0  0  0  0
 19 14  2  0  0  0  0
 19 18  1  0  0  0  0
 20 14  1  0  0  0  0
 23 24  1  0  0  0  0
 24 25  2  0  0  0  0
 24 31  1  0  0  0  0
 25 27  1  0  0  0  0
 26 25  1  0  0  0  0
 27 28  1  0  0  0  0
 29 27  2  0  0  0  0
 29 30  1  0  0  0  0
 31 29  1  0  0  0  0
M  END
>  <minimizedAffinity>
-4.3911562

$$$$

 OpenBabel03272506453D

 31 33  0  0  1  0  0  0  0  0999 V2000
   37.0090   25.2130   32.7320 C   0  0  2  0  0  0  0  0  0  0  0  0
   37.8650   24.0130   33.0520 C   0  0  1  0  0  0  0  0  0  0  0  0
   38.3390   23.5150   31.8580 O   0  0  0  0  0  0  0  0  0  0  0  0
   38.0480   24.4170   30.8460 C   0  0  0  0  0  0  0  0  0  0  0  0
   37.7570   25.7530   31.5270 C   0  0  1  0  0  0  0  0  0  0  0  0
   35.9570   24.9600   32.5210 H   0  0  0  0  0  0  0  0  0  0  0  0
   37.3070   23.2590   33.6450 H   0  0  0  0  0  0  0  0  0  0  0  0
   38.9060   24.5520   30.1690 H   0  0  0  0  0  0  0  0  0  0  0  0
   37.1190   24.0890   30.3550 H   0  0  0  0  0  0  0  0  0  0  0  0
   38.6590   26.2440   31.8950 H   0  0  0  0  0  0  0  0  0  0  0  0
   37.0280   26.1260   33.7980 O   0  0  0  0  0  0  0  0  0  0  0  0
   36.5600   26.9440   33.5660 H   0  0  0  0  0  0  0  0  0  0  0  0
   39.3010   24.6140   34.0060 S   0  0  0  0  0  0  0  0  0  0  0  0
   37.9010   24.1930   37.6940 C   0  0  0  0  0  0  0  0  0  0  0  0
   38.7910   23.3280   38.3160 C   0  0  0  0  0  0  0  0  0  0  0  0
   39.8740   22.8470   37.5790 C   0  0  0  0  0  0  0  0  0  0  0  0
   40.0140   23.2450   36.2770 N   0  0  0  0  0  0  0  0  0  0  0  0
   39.1170   24.0930   35.7120 C   0  0  0  0  0  0  0  0  0  0  0  0
   38.0620   24.5720   36.4050 N   0  0  0  0  0  0  0  0  0  0  0  0
   37.0900   24.5280   38.3130 H   0  0  0  0  0  0  0  0  0  0  0  0
   38.6940   23.0040   39.3440 H   0  0  0  0  0  0  0  0  0  0  0  0
   40.6160   22.1750   37.9680 H   0  0  0  0  0  0  0  0  0  0  0  0
   36.9700   26.5380   30.7070 O   0  0  0  0  0  0  0  0  0  0  0  0
   36.4830   27.7940   30.9980 C   0  0  0  0  0  0  0  0  0  0  0  0
   36.8610   28.7970   30.1040 C   0  0  0  0  0  0  0  0  0  0  0  0
   37.4700   28.8240   29.1990 H   0  0  0  0  0  0  0  0  0  0  0  0
   36.2800   29.9870   30.5570 C   0  0  0  0  0  0  0  0  0  0  0  0
   36.2950   31.0070   30.1910 H   0  0  0  0  0  0  0  0  0  0  0  0
   35.5930   29.5880   31.7020 C   0  0  0  0  0  0  0  0  0  0  0  0
   35.0100   30.2710   32.3300 H   0  0  0  0  0  0  0  0  0  0  0  0
   35.7370   28.3040   31.9240 O   0  0  0  0  0  0  0  0  0  0  0  0
  1  6  1  6  0  0  0
  1  2  1  0  0  0  0
  1 11  1  0  0  0  0
  2  7  1  1  0  0  0
  2 13  1  0  0  0  0
  3  2  1  0  0  0  0
  4  5  1  0  0  0  0
  4  3  1  0  0  0  0
  5 10  1  1  0  0  0
  5  1  1  0  0  0  0
  8  4  1  0  0  0  0
  9  4  1  0  0  0  0
 12 11  1  0  0  0  0
 13 18  1  0  0  0  0
 14 20  1  0  0  0  0
 14 15  1  0  0  0  0
 15 21  1  0  0  0  0
 16 22  1  0  0  0  0
 16 15  2  0  0  0  0
 17 16  1  0  0  0  0
 18 17  2  0  0  0  0
 18 19  1  0  0  0  0
 19 14  2  0  0  0  0
 23 24  1  0  0  0  0
 23  5  1  0  0  0  0
 24 31  1  0  0  0  0
 25 27  1  0  0  0  0
 25 24  2  0  0  0  0
 26 25  1  0  0  0  0
 27 29  2  0  0  0  0
 28 27  1  0  0  0  0
 29 31  1  0  0  0  0
 29 30  1  0  0  0  0
M  END
>  <minimizedAffinity>
-4.37368011

$$$$

 OpenBabel03272506453D

 31 33  0  0  1  0  0  0  0  0999 V2000
   37.8070   23.7310   30.4730 C   0  0  2  0  0  0  0  0  0  0  0  0
   38.3510   25.0260   31.0240 C   0  0  1  0  0  0  0  0  0  0  0  0
   37.3080   25.6810   31.6420 O   0  0  0  0  0  0  0  0  0  0  0  0
   36.2220   24.8220   31.7270 C   0  0  0  0  0  0  0  0  0  0  0  0
   36.7730   23.4090   31.5360 C   0  0  1  0  0  0  0  0  0  0  0  0
   37.3830   23.8280   29.4600 H   0  0  0  0  0  0  0  0  0  0  0  0
   38.8380   25.6350   30.2350 H   0  0  0  0  0  0  0  0  0  0  0  0
   35.7430   24.8760   32.7170 H   0  0  0  0  0  0  0  0  0  0  0  0
   35.5560   25.0330   30.8780 H   0  0  0  0  0  0  0  0  0  0  0  0
   37.3070   23.0430   32.4130 H   0  0  0  0  0  0  0  0  0  0  0  0
   38.8150   22.7570   30.4270 O   0  0  0  0  0  0  0  0  0  0  0  0
   38.4570   21.8940   30.1660 H   0  0  0  0  0  0  0  0  0  0  0  0
   39.5700   24.5930   32.3140 S   0  0  0  0  0  0  0  0  0  0  0  0
   39.0570   27.2180   35.2430 C   0  0  0  0  0  0  0  0  0  0  0  0
   38.3140   26.5420   36.2010 C   0  0  0  0  0  0  0  0  0  0  0  0
   37.9490   25.2200   35.9470 C   0  0  0  0  0  0  0  0  0  0  0  0
   38.3360   24.6440   34.7660 N   0  0  0  0  0  0  0  0  0  0  0  0
   39.0620   25.3470   33.8600 C   0  0  0  0  0  0  0  0  0  0  0  0
   39.4270   26.6260   34.0840 N   0  0  0  0  0  0  0  0  0  0  0  0
   39.3060   28.2310   35.4970 H   0  0  0  0  0  0  0  0  0  0  0  0
   38.0010   26.9830   37.1390 H   0  0  0  0  0  0  0  0  0  0  0  0
   37.3770   24.6120   36.6220 H   0  0  0  0  0  0  0  0  0  0  0  0
   35.7710   22.5720   31.0830 O   0  0  0  0  0  0  0  0  0  0  0  0
   35.7370   21.1990   31.2020 C   0  0  0  0  0  0  0  0  0  0  0  0
   34.8270   20.7090   32.1390 C   0  0  0  0  0  0  0  0  0  0  0  0
   34.1110   21.1700   32.8230 H   0  0  0  0  0  0  0  0  0  0  0  0
   34.9330   19.3140   32.1210 C   0  0  0  0  0  0  0  0  0  0  0  0
   34.4330   18.5240   32.6690 H   0  0  0  0  0  0  0  0  0  0  0  0
   35.9130   19.0840   31.1580 C   0  0  0  0  0  0  0  0  0  0  0  0
   36.2640   18.0850   30.8730 H   0  0  0  0  0  0  0  0  0  0  0  0
   36.3570   20.2080   30.6470 O   0  0  0  0  0  0  0  0  0  0  0  0
  1  6  1  6  0  0  0
  1  2  1  0  0  0  0
  1  5  1  0  0  0  0
  2  7  1  6  0  0  0
  2  3  1  0  0  0  0
  2 13  1  0  0  0  0
  3  4  1  0  0  0  0
  4  8  1  0  0  0  0
  5  4  1  0  0  0  0
  5 10  1  1  0  0  0
  9  4  1  0  0  0  0
 11  1  1  0  0  0  0
 12 11  1  0  0  0  0
 13 18  1  0  0  0  0
 14 20  1  0  0  0  0
 14 15  1  0  0  0  0
 15 21  1  0  0  0  0
 16 15  2  0  0  0  0
 16 22  1  0  0  0  0
 17 16  1  0  0  0  0
 18 19  1  0  0  0  0
 18 17  2  0  0  0  0
 19 14  2  0  0  0  0
 23 24  1  0  0  0  0
 23  5  1  0  0  0  0
 24 25  2  0  0  0  0
 25 26  1  0  0  0  0
 27 25  1  0  0  0  0
 27 28  1  0  0  0  0
 29 27  2  0  0  0  0
 30 29  1  0  0  0  0
 31 29  1  0  0  0  0
 31 24  1  0  0  0  0
M  END
>  <minimizedAffinity>
-4.34136057

$$$$

 OpenBabel03272506453D

 31 33  0  0  1  0  0  0  0  0999 V2000
   37.4360   25.5370   33.5790 C   0  0  2  0  0  0  0  0  0  0  0  0
   37.3190   26.7050   32.6330 C   0  0  1  0  0  0  0  0  0  0  0  0
   36.8280   27.7720   33.3540 O   0  0  0  0  0  0  0  0  0  0  0  0
   36.8410   27.4490   34.7020 C   0  0  0  0  0  0  0  0  0  0  0  0
   37.8020   26.2720   34.8560 C   0  0  1  0  0  0  0  0  0  0  0  0
   36.5120   24.9430   33.6620 H   0  0  0  0  0  0  0  0  0  0  0  0
   36.6960   26.4550   31.7500 H   0  0  0  0  0  0  0  0  0  0  0  0
   37.2170   28.2860   35.3120 H   0  0  0  0  0  0  0  0  0  0  0  0
   35.8370   27.0930   34.9750 H   0  0  0  0  0  0  0  0  0  0  0  0
   38.8480   26.5670   34.7760 H   0  0  0  0  0  0  0  0  0  0  0  0
   38.4670   24.6760   33.1710 O   0  0  0  0  0  0  0  0  0  0  0  0
   38.6160   23.9740   33.8230 H   0  0  0  0  0  0  0  0  0  0  0  0
   39.0110   27.1360   32.0960 S   0  0  0  0  0  0  0  0  0  0  0  0
   37.6670   28.8820   28.7980 C   0  0  0  0  0  0  0  0  0  0  0  0
   38.7550   28.9010   27.9360 C   0  0  0  0  0  0  0  0  0  0  0  0
   39.9610   28.3550   28.3770 C   0  0  0  0  0  0  0  0  0  0  0  0
   40.0220   27.8260   29.6380 N   0  0  0  0  0  0  0  0  0  0  0  0
   38.9300   27.8300   30.4450 C   0  0  0  0  0  0  0  0  0  0  0  0
   37.7540   28.3520   30.0400 N   0  0  0  0  0  0  0  0  0  0  0  0
   36.7690   29.3160   28.4000 H   0  0  0  0  0  0  0  0  0  0  0  0
   38.7220   29.3160   26.9370 H   0  0  0  0  0  0  0  0  0  0  0  0
   40.8580   28.3220   27.7890 H   0  0  0  0  0  0  0  0  0  0  0  0
   37.4940   25.5600   36.0000 O   0  0  0  0  0  0  0  0  0  0  0  0
   38.2530   24.5600   36.5700 C   0  0  0  0  0  0  0  0  0  0  0  0
   37.9910   24.3160   37.9190 C   0  0  0  0  0  0  0  0  0  0  0  0
   37.3050   24.7420   38.6540 H   0  0  0  0  0  0  0  0  0  0  0  0
   38.8460   23.2840   38.3200 C   0  0  0  0  0  0  0  0  0  0  0  0
   38.9990   22.7690   39.2610 H   0  0  0  0  0  0  0  0  0  0  0  0
   39.5580   22.9930   37.1580 C   0  0  0  0  0  0  0  0  0  0  0  0
   40.3330   22.2190   37.0960 H   0  0  0  0  0  0  0  0  0  0  0  0
   39.1830   23.7590   36.1620 O   0  0  0  0  0  0  0  0  0  0  0  0
  1  6  1  1  0  0  0
  1  5  1  0  0  0  0
  2  7  1  6  0  0  0
  2  3  1  0  0  0  0
  2  1  1  0  0  0  0
  3  4  1  0  0  0  0
  4  5  1  0  0  0  0
  4  9  1  0  0  0  0
  4  8  1  0  0  0  0
  5 10  1  6  0  0  0
  5 23  1  0  0  0  0
 11  1  1  0  0  0  0
 11 12  1  0  0  0  0
 13  2  1  0  0  0  0
 14 19  1  0  0  0  0
 15 16  1  0  0  0  0
 15 14  2  0  0  0  0
 16 17  2  0  0  0  0
 17 18  1  0  0  0  0
 18 13  1  0  0  0  0
 19 18  2  0  0  0  0
 20 14  1  0  0  0  0
 21 15  1  0  0  0  0
 22 16  1  0  0  0  0
 23 24  1  0  0  0  0
 24 25  2  0  0  0  0
 25 27  1  0  0  0  0
 25 26  1  0  0  0  0
 27 28  1  0  0  0  0
 29 27  2  0  0  0  0
 30 29  1  0  0  0  0
 31 24  1  0  0  0  0
 31 29  1  0  0  0  0
M  END
>  <minimizedAffinity>
-4.33695507

$$$$
