
 OpenBabel03262523563D

 37 39  0  0  1  0  0  0  0  0999 V2000
   37.9190   30.4000   47.6370 C   0  0  1  0  0  0  0  0  0  0  0  0
   37.2060   30.6150   46.3870 C   0  0  0  0  0  0  0  0  0  0  0  0
   38.1900   30.5920   45.2580 C   0  0  0  0  0  0  0  0  0  0  0  0
   39.4360   31.3200   45.6150 C   0  0  0  0  0  0  0  0  0  0  0  0
   39.3160   32.2750   46.7340 C   0  0  0  0  0  0  0  0  0  0  0  0
   38.6560   31.6870   47.9840 C   0  0  1  0  0  0  0  0  0  0  0  0
   38.7140   29.6200   47.5200 H   0  0  0  0  0  0  0  0  0  0  0  0
   36.4470   29.8130   46.1900 H   0  0  0  0  0  0  0  0  0  0  0  0
   36.6150   31.5560   46.3750 H   0  0  0  0  0  0  0  0  0  0  0  0
   37.6930   31.1400   44.4070 H   0  0  0  0  0  0  0  0  0  0  0  0
   38.3370   29.5490   44.9010 H   0  0  0  0  0  0  0  0  0  0  0  0
   40.2140   30.5660   45.8800 H   0  0  0  0  0  0  0  0  0  0  0  0
   39.7950   31.8840   44.7340 H   0  0  0  0  0  0  0  0  0  0  0  0
   38.7690   33.2170   46.4520 H   0  0  0  0  0  0  0  0  0  0  0  0
   40.3230   32.6240   47.0360 H   0  0  0  0  0  0  0  0  0  0  0  0
   39.4580   31.4090   48.7140 H   0  0  0  0  0  0  0  0  0  0  0  0
   36.9960   29.3050   51.0650 C   0  0  0  0  0  0  0  0  0  0  0  0
   37.8050   29.6460   49.9420 C   0  0  0  0  0  0  0  0  0  0  0  0
   37.1030   30.0650   48.8190 C   0  0  0  0  0  0  0  0  0  0  0  0
   35.7160   30.1360   48.8240 N   0  0  0  0  0  0  0  0  0  0  0  0
   35.0040   29.8040   49.9070 C   0  0  0  0  0  0  0  0  0  0  0  0
   35.6330   29.3840   51.0410 N   0  0  0  0  0  0  0  0  0  0  0  0
   37.4530   28.9730   51.9730 H   0  0  0  0  0  0  0  0  0  0  0  0
   38.8650   29.5740   49.9910 H   0  0  0  0  0  0  0  0  0  0  0  0
   33.9490   29.9010   49.7850 H   0  0  0  0  0  0  0  0  0  0  0  0
   38.0430   33.7500   49.5370 C   0  0  0  0  0  0  0  0  0  0  0  0
   39.2760   33.8630   49.7900 O   0  0  0  0  0  0  0  0  0  0  0  0
   37.8320   32.6830   48.6130 N   0  0  0  0  0  0  0  0  0  0  0  0
   36.8470   32.4980   48.2370 H   0  0  0  0  0  0  0  0  0  0  0  0
   36.8950   34.4910   50.0110 C   0  0  0  0  0  0  0  0  0  0  0  0
   36.1420   35.5370   49.4820 C   0  0  0  0  0  0  0  0  0  0  0  0
   36.3890   35.9580   48.5160 H   0  0  0  0  0  0  0  0  0  0  0  0
   35.1730   35.7790   50.4500 C   0  0  0  0  0  0  0  0  0  0  0  0
   34.4410   36.5570   50.2950 H   0  0  0  0  0  0  0  0  0  0  0  0
   35.3780   34.8850   51.5030 C   0  0  0  0  0  0  0  0  0  0  0  0
   34.7300   34.9000   52.3690 H   0  0  0  0  0  0  0  0  0  0  0  0
   36.4180   34.1430   51.1820 O   0  0  0  0  0  0  0  0  0  0  0  0
  1  7  1  6  0  0  0
  1  6  1  0  0  0  0
  1 19  1  0  0  0  0
  2  1  1  0  0  0  0
  3  4  1  0  0  0  0
  3  2  1  0  0  0  0
  4 12  1  0  0  0  0
  4  5  1  0  0  0  0
  5 15  1  0  0  0  0
  5  6  1  0  0  0  0
  6 28  1  0  0  0  0
  6 16  1  1  0  0  0
  8  2  1  0  0  0  0
  9  2  1  0  0  0  0
 10  3  1  0  0  0  0
 11  3  1  0  0  0  0
 13  4  1  0  0  0  0
 14  5  1  0  0  0  0
 17 23  1  0  0  0  0
 18 24  1  0  0  0  0
 18 17  2  0  0  0  0
 19 20  2  0  0  0  0
 19 18  1  0  0  0  0
 20 21  1  0  0  0  0
 21 22  2  0  0  0  0
 22 17  1  0  0  0  0
 25 21  1  0  0  0  0
 26 27  2  0  0  0  0
 26 30  1  0  0  0  0
 28 26  1  0  0  0  0
 29 28  1  0  0  0  0
 30 37  1  0  0  0  0
 31 30  2  0  0  0  0
 31 33  1  0  0  0  0
 32 31  1  0  0  0  0
 33 35  2  0  0  0  0
 34 33  1  0  0  0  0
 35 36  1  0  0  0  0
 37 35  1  0  0  0  0
M  END
>  <minimizedAffinity>
3.40987301

>  <minimizedRMSD>
0.690337241

$$$$
