
 OpenBabel03272506433D

 31 33  0  0  1  0  0  0  0  0999 V2000
   32.2260   28.2240   47.5290 C   0  0  2  0  0  0  0  0  0  0  0  0
   33.4980   28.1710   48.3370 C   0  0  1  0  0  0  0  0  0  0  0  0
   34.0290   26.9080   48.1880 O   0  0  0  0  0  0  0  0  0  0  0  0
   33.3350   26.2420   47.1900 C   0  0  0  0  0  0  0  0  0  0  0  0
   32.6120   27.3140   46.3770 C   0  0  1  0  0  0  0  0  0  0  0  0
   31.3380   27.8800   48.0840 H   0  0  0  0  0  0  0  0  0  0  0  0
   33.3210   28.4440   49.3980 H   0  0  0  0  0  0  0  0  0  0  0  0
   34.0190   25.6990   46.5180 H   0  0  0  0  0  0  0  0  0  0  0  0
   32.5660   25.6170   47.6690 H   0  0  0  0  0  0  0  0  0  0  0  0
   33.2830   27.8750   45.7270 H   0  0  0  0  0  0  0  0  0  0  0  0
   31.9800   29.5330   47.0880 O   0  0  0  0  0  0  0  0  0  0  0  0
   31.2180   29.5620   46.4870 H   0  0  0  0  0  0  0  0  0  0  0  0
   34.6680   29.3520   47.5790 S   0  0  0  0  0  0  0  0  0  0  0  0
   37.1860   29.3020   50.6430 C   0  0  0  0  0  0  0  0  0  0  0  0
   37.6520   30.6070   50.7420 C   0  0  0  0  0  0  0  0  0  0  0  0
   37.1780   31.5510   49.8320 C   0  0  0  0  0  0  0  0  0  0  0  0
   36.2760   31.1560   48.8810 N   0  0  0  0  0  0  0  0  0  0  0  0
   35.8500   29.8690   48.8250 C   0  0  0  0  0  0  0  0  0  0  0  0
   36.2940   28.9370   49.6940 N   0  0  0  0  0  0  0  0  0  0  0  0
   37.5880   28.6230   51.3720 H   0  0  0  0  0  0  0  0  0  0  0  0
   38.3650   30.9340   51.4880 H   0  0  0  0  0  0  0  0  0  0  0  0
   37.4760   32.5830   49.8250 H   0  0  0  0  0  0  0  0  0  0  0  0
   31.5210   26.7600   45.7340 O   0  0  0  0  0  0  0  0  0  0  0  0
   30.1940   27.0050   46.0160 C   0  0  0  0  0  0  0  0  0  0  0  0
   29.4910   25.9180   46.5380 C   0  0  0  0  0  0  0  0  0  0  0  0
   29.7520   24.8860   46.7840 H   0  0  0  0  0  0  0  0  0  0  0  0
   28.1790   26.3480   46.7600 C   0  0  0  0  0  0  0  0  0  0  0  0
   27.2920   25.8600   47.1480 H   0  0  0  0  0  0  0  0  0  0  0  0
   28.2080   27.6780   46.3460 C   0  0  0  0  0  0  0  0  0  0  0  0
   27.3380   28.3450   46.3770 H   0  0  0  0  0  0  0  0  0  0  0  0
   29.4000   28.0200   45.9200 O   0  0  0  0  0  0  0  0  0  0  0  0
  1  6  1  1  0  0  0
  1  2  1  0  0  0  0
  2  7  1  1  0  0  0
  3  2  1  0  0  0  0
  4  9  1  0  0  0  0
  4  3  1  0  0  0  0
  5 10  1  6  0  0  0
  5  4  1  0  0  0  0
  5  1  1  0  0  0  0
  8  4  1  0  0  0  0
 11  1  1  0  0  0  0
 12 11  1  0  0  0  0
 13  2  1  0  0  0  0
 13 18  1  0  0  0  0
 14 15  1  0  0  0  0
 14 20  1  0  0  0  0
 15 21  1  0  0  0  0
 16 15  2  0  0  0  0
 17 16  1  0  0  0  0
 18 17  2  0  0  0  0
 18 19  1  0  0  0  0
 19 14  2  0  0  0  0
 22 16  1  0  0  0  0
 23 24  1  0  0  0  0
 23  5  1  0  0  0  0
 24 25  2  0  0  0  0
 25 27  1  0  0  0  0
 25 26  1  0  0  0  0
 27 28  1  0  0  0  0
 29 30  1  0  0  0  0
 29 27  2  0  0  0  0
 31 24  1  0  0  0  0
 31 29  1  0  0  0  0
M  END
>  <minimizedAffinity>
-4.22842264

>  <minimizedRMSD>
2.11251903

$$$$
