
 OpenBabel03262521553D

 38 40  0  0  1  0  0  0  0  0999 V2000
   31.4190   26.6940   48.3460 C   0  0  1  0  0  0  0  0  0  0  0  0
   32.1860   27.9980   48.2120 C   0  0  2  0  0  0  0  0  0  0  0  0
   31.9140   28.5250   46.8310 C   0  0  0  0  0  0  0  0  0  0  0  0
   31.0900   27.7180   46.0770 O   0  0  0  0  0  0  0  0  0  0  0  0
   29.8460   27.5340   46.6850 C   0  0  0  0  0  0  0  0  0  0  0  0
   29.9660   27.0070   48.0940 C   0  0  2  0  0  0  0  0  0  0  0  0
   31.5420   26.3190   49.3850 H   0  0  0  0  0  0  0  0  0  0  0  0
   31.7880   28.6730   49.0120 H   0  0  0  0  0  0  0  0  0  0  0  0
   31.3930   29.5170   46.9220 H   0  0  0  0  0  0  0  0  0  0  0  0
   32.8510   28.6750   46.2790 H   0  0  0  0  0  0  0  0  0  0  0  0
   29.3270   28.5180   46.6690 H   0  0  0  0  0  0  0  0  0  0  0  0
   29.2970   26.7800   46.0690 H   0  0  0  0  0  0  0  0  0  0  0  0
   29.3250   26.1240   48.2370 H   0  0  0  0  0  0  0  0  0  0  0  0
   31.8090   25.7800   47.3760 O   0  0  0  0  0  0  0  0  0  0  0  0
   31.5700   24.8720   47.7260 H   0  0  0  0  0  0  0  0  0  0  0  0
   33.9470   27.7790   48.4900 S   0  0  0  0  0  0  0  0  0  0  0  0
   34.7290   29.3960   48.7910 C   0  0  0  0  0  0  0  0  0  0  0  0
   34.0540   29.9110   49.5190 H   0  0  0  0  0  0  0  0  0  0  0  0
   34.6830   30.0310   47.8630 H   0  0  0  0  0  0  0  0  0  0  0  0
   36.3430   29.2980   49.5330 S   0  0  0  0  0  0  0  0  0  0  0  0
   37.3270   30.6810   48.9780 C   0  0  0  0  0  0  0  0  0  0  0  0
   37.2040   31.8140   49.7560 C   0  0  0  0  0  0  0  0  0  0  0  0
   37.9470   32.9480   49.3880 C   0  0  0  0  0  0  0  0  0  0  0  0
   38.7530   32.8660   48.2750 N   0  0  0  0  0  0  0  0  0  0  0  0
   38.8200   31.7260   47.5680 C   0  0  0  0  0  0  0  0  0  0  0  0
   38.1260   30.6590   47.9080 N   0  0  0  0  0  0  0  0  0  0  0  0
   36.6030   31.9410   50.6220 H   0  0  0  0  0  0  0  0  0  0  0  0
   37.8870   33.8700   49.9670 H   0  0  0  0  0  0  0  0  0  0  0  0
   39.4360   31.6020   46.6830 H   0  0  0  0  0  0  0  0  0  0  0  0
   29.6290   28.0300   48.9870 O   0  0  0  0  0  0  0  0  0  0  0  0
   28.5960   27.8630   49.8990 C   0  0  0  0  0  0  0  0  0  0  0  0
   28.7380   26.9990   50.9660 C   0  0  0  0  0  0  0  0  0  0  0  0
   29.4940   26.3430   51.3440 H   0  0  0  0  0  0  0  0  0  0  0  0
   27.5580   27.0660   51.6610 C   0  0  0  0  0  0  0  0  0  0  0  0
   27.0820   26.6450   52.5440 H   0  0  0  0  0  0  0  0  0  0  0  0
   26.7350   27.9630   51.0030 C   0  0  0  0  0  0  0  0  0  0  0  0
   25.7510   28.4430   51.0120 H   0  0  0  0  0  0  0  0  0  0  0  0
   27.4040   28.4170   49.9480 O   0  0  0  0  0  0  0  0  0  0  0  0
  1  7  1  1  0  0  0
  2  1  1  0  0  0  0
  2 16  1  0  0  0  0
  2  8  1  1  0  0  0
  3  9  1  0  0  0  0
  3  2  1  0  0  0  0
  4  5  1  0  0  0  0
  4  3  1  0  0  0  0
  5  6  1  0  0  0  0
  6 13  1  1  0  0  0
  6  1  1  0  0  0  0
  6 30  1  0  0  0  0
 10  3  1  0  0  0  0
 11  5  1  0  0  0  0
 12  5  1  0  0  0  0
 14 15  1  0  0  0  0
 14  1  1  0  0  0  0
 16 17  1  0  0  0  0
 17 18  1  0  0  0  0
 17 20  1  0  0  0  0
 19 17  1  0  0  0  0
 21 20  1  0  0  0  0
 21 22  1  0  0  0  0
 22 27  1  0  0  0  0
 23 22  2  0  0  0  0
 23 28  1  0  0  0  0
 24 23  1  0  0  0  0
 25 26  1  0  0  0  0
 25 24  2  0  0  0  0
 26 21  2  0  0  0  0
 29 25  1  0  0  0  0
 30 31  1  0  0  0  0
 31 38  1  0  0  0  0
 31 32  2  0  0  0  0
 32 33  1  0  0  0  0
 32 34  1  0  0  0  0
 34 35  1  0  0  0  0
 36 37  1  0  0  0  0
 36 34  2  0  0  0  0
 38 36  1  0  0  0  0
M  END
>  <minimizedAffinity>
-5.52792978

>  <minimizedRMSD>
1.74310338

$$$$
