
 OpenBabel03272506433D

 31 33  0  0  1  0  0  0  0  0999 V2000
   32.2440   28.1620   47.5920 C   0  0  2  0  0  0  0  0  0  0  0  0
   33.5220   28.1610   48.3920 C   0  0  1  0  0  0  0  0  0  0  0  0
   34.0930   26.9150   48.2530 O   0  0  0  0  0  0  0  0  0  0  0  0
   33.4160   26.2150   47.2670 C   0  0  0  0  0  0  0  0  0  0  0  0
   32.6520   27.2530   46.4470 C   0  0  1  0  0  0  0  0  0  0  0  0
   31.3710   27.7960   48.1560 H   0  0  0  0  0  0  0  0  0  0  0  0
   33.3430   28.4400   49.4500 H   0  0  0  0  0  0  0  0  0  0  0  0
   34.1130   25.6880   46.5970 H   0  0  0  0  0  0  0  0  0  0  0  0
   32.6720   25.5710   47.7590 H   0  0  0  0  0  0  0  0  0  0  0  0
   33.3000   27.8290   45.7860 H   0  0  0  0  0  0  0  0  0  0  0  0
   31.9510   29.4570   47.1370 O   0  0  0  0  0  0  0  0  0  0  0  0
   31.1850   29.4550   46.5420 H   0  0  0  0  0  0  0  0  0  0  0  0
   34.6470   29.3710   47.6130 S   0  0  0  0  0  0  0  0  0  0  0  0
   37.2730   29.3010   50.5850 C   0  0  0  0  0  0  0  0  0  0  0  0
   37.7330   30.6080   50.6840 C   0  0  0  0  0  0  0  0  0  0  0  0
   37.2200   31.5610   49.8040 C   0  0  0  0  0  0  0  0  0  0  0  0
   36.2880   31.1710   48.8810 N   0  0  0  0  0  0  0  0  0  0  0  0
   35.8690   29.8810   48.8220 C   0  0  0  0  0  0  0  0  0  0  0  0
   36.3500   28.9420   49.6630 N   0  0  0  0  0  0  0  0  0  0  0  0
   37.7060   28.6160   51.2890 H   0  0  0  0  0  0  0  0  0  0  0  0
   38.4700   30.9310   51.4080 H   0  0  0  0  0  0  0  0  0  0  0  0
   37.5100   32.5940   49.8000 H   0  0  0  0  0  0  0  0  0  0  0  0
   31.5760   26.6560   45.8180 O   0  0  0  0  0  0  0  0  0  0  0  0
   30.6380   27.2860   45.0280 C   0  0  0  0  0  0  0  0  0  0  0  0
   29.6810   26.4420   44.4630 C   0  0  0  0  0  0  0  0  0  0  0  0
   29.4900   25.3670   44.5000 H   0  0  0  0  0  0  0  0  0  0  0  0
   28.8240   27.2470   43.7040 C   0  0  0  0  0  0  0  0  0  0  0  0
   27.9500   27.0380   43.0970 H   0  0  0  0  0  0  0  0  0  0  0  0
   29.3510   28.5250   43.8810 C   0  0  0  0  0  0  0  0  0  0  0  0
   28.9290   29.4270   43.4240 H   0  0  0  0  0  0  0  0  0  0  0  0
   30.4070   28.5030   44.6590 O   0  0  0  0  0  0  0  0  0  0  0  0
  1  6  1  1  0  0  0
  1  2  1  0  0  0  0
  2  7  1  1  0  0  0
  3  2  1  0  0  0  0
  4  9  1  0  0  0  0
  4  3  1  0  0  0  0
  5 10  1  6  0  0  0
  5  4  1  0  0  0  0
  5  1  1  0  0  0  0
  8  4  1  0  0  0  0
 11  1  1  0  0  0  0
 12 11  1  0  0  0  0
 13  2  1  0  0  0  0
 13 18  1  0  0  0  0
 14 15  1  0  0  0  0
 14 20  1  0  0  0  0
 15 21  1  0  0  0  0
 16 15  2  0  0  0  0
 17 16  1  0  0  0  0
 18 17  2  0  0  0  0
 18 19  1  0  0  0  0
 19 14  2  0  0  0  0
 22 16  1  0  0  0  0
 23  5  1  0  0  0  0
 24 23  1  0  0  0  0
 25 26  1  0  0  0  0
 25 24  2  0  0  0  0
 27 29  2  0  0  0  0
 27 25  1  0  0  0  0
 28 27  1  0  0  0  0
 29 31  1  0  0  0  0
 30 29  1  0  0  0  0
 31 24  1  0  0  0  0
M  END
>  <minimizedAffinity>
-3.82205319

>  <minimizedRMSD>
1.1646452

$$$$
