
 OpenBabel03272508423D

 19 20  0  0  0  0  0  0  0  0999 V2000
   34.0240   27.9810   48.0790 C   0  0  0  0  0  0  0  0  0  0  0  0
   34.1440   26.7430   47.9350 O   0  0  0  0  0  0  0  0  0  0  0  0
   30.9530   28.9900   46.4110 C   0  0  0  0  0  0  0  0  0  0  0  0
   31.2980   30.2030   45.8070 C   0  0  0  0  0  0  0  0  0  0  0  0
   32.5920   30.6900   45.9640 C   0  0  0  0  0  0  0  0  0  0  0  0
   33.4480   29.9460   46.7050 N   0  0  0  0  0  0  0  0  0  0  0  0
   33.0950   28.7760   47.2820 C   0  0  0  0  0  0  0  0  0  0  0  0
   31.8450   28.3000   47.1340 N   0  0  0  0  0  0  0  0  0  0  0  0
   29.9370   28.5940   46.2970 H   0  0  0  0  0  0  0  0  0  0  0  0
   30.5800   30.7690   45.2180 H   0  0  0  0  0  0  0  0  0  0  0  0
   32.9320   31.6170   45.5270 H   0  0  0  0  0  0  0  0  0  0  0  0
   34.8610   28.6350   49.0950 C   0  0  0  0  0  0  0  0  0  0  0  0
   36.0850   29.2210   48.8310 C   0  0  0  0  0  0  0  0  0  0  0  0
   36.5810   29.2810   47.8780 H   0  0  0  0  0  0  0  0  0  0  0  0
   36.4780   29.6940   50.0880 C   0  0  0  0  0  0  0  0  0  0  0  0
   37.4070   30.2190   50.2630 H   0  0  0  0  0  0  0  0  0  0  0  0
   35.5080   29.3800   51.0180 C   0  0  0  0  0  0  0  0  0  0  0  0
   35.5020   29.6030   52.0860 H   0  0  0  0  0  0  0  0  0  0  0  0
   34.5530   28.7460   50.3850 O   0  0  0  0  0  0  0  0  0  0  0  0
  1 12  1  0  0  0  0
  2  1  2  0  0  0  0
  3  8  1  0  0  0  0
  4  5  1  0  0  0  0
  4  3  2  0  0  0  0
  5  6  2  0  0  0  0
  6  7  1  0  0  0  0
  7  1  1  0  0  0  0
  8  7  2  0  0  0  0
  9  3  1  0  0  0  0
 10  4  1  0  0  0  0
 11  5  1  0  0  0  0
 12 19  1  0  0  0  0
 13 12  2  0  0  0  0
 13 15  1  0  0  0  0
 14 13  1  0  0  0  0
 15 16  1  0  0  0  0
 15 17  2  0  0  0  0
 17 18  1  0  0  0  0
 19 17  1  0  0  0  0
M  END
>  <minimizedAffinity>
-3.3869195

>  <minimizedRMSD>
4.94664192

$$$$
