REMARK  Name = 
REMARK  10 active torsions:
REMARK  status: ('A' for Active; 'I' for Inactive)
REMARK    1  A    between atoms: C_3  and  C_12
REMARK    2  A    between atoms: C_7  and  C_15
REMARK    3  A    between atoms: C_10  and  N_14
REMARK    4  A    between atoms: C_15  and  C_16
REMARK    5  A    between atoms: C_16  and  O_17
REMARK    6  A    between atoms: O_17  and  P_19
REMARK    7  A    between atoms: P_19  and  O_20
REMARK    8  A    between atoms: P_19  and  O_21
REMARK    9  A    between atoms: O_20  and  C_37
REMARK   10  A    between atoms: O_21  and  C_22
REMARK                            x       y       z     vdW  Elec       q    Type
REMARK                         _______ _______ _______ _____ _____    ______ ____
ROOT
ATOM      1  C   UNL     1      34.835  29.427  48.841  0.00  0.00    +0.000 C 
ATOM      2  H   UNL     1      34.168  30.244  49.250  0.00  0.00    +0.000 HD
ATOM      3  H   UNL     1      35.732  29.477  49.491  0.00  0.00    +0.000 HD
ENDROOT
BRANCH   1  10
ATOM      4 CL   UNL     1      37.610  30.456  48.518  0.00  0.00    +0.000 Cl
ATOM      5  C   UNL     1      36.447  30.312  47.189  0.00  0.00    +0.000 A 
ATOM      6  C   UNL     1      36.822  30.685  45.948  0.00  0.00    +0.000 A 
ATOM      7  C   UNL     1      35.931  30.578  44.906  0.00  0.00    +0.000 A 
ATOM      8  C   UNL     1      34.662  30.086  45.170  0.00  0.00    +0.000 A 
ATOM      9  C   UNL     1      34.340  29.718  46.481  0.00  0.00    +0.000 A 
ATOM     10  C   UNL     1      35.206  29.818  47.510  0.00  0.00    +0.000 A 
ATOM     11  H   UNL     1      36.261  30.887  43.908  0.00  0.00    +0.000 HD
ATOM     12  H   UNL     1      34.040  30.041  44.286  0.00  0.00    +0.000 HD
ATOM     13  H   UNL     1      33.335  29.382  46.448  0.00  0.00    +0.000 HD
BRANCH   6  18
ATOM     14  C   UNL     1      39.811  32.848  45.983  0.00  0.00    +0.000 A 
ATOM     15  C   UNL     1      40.678  32.111  45.104  0.00  0.00    +0.000 A 
ATOM     16  C   UNL     1      40.197  30.921  44.551  0.00  0.00    +0.000 A 
ATOM     17  N   UNL     1      38.942  30.500  44.855  0.00  0.00    +0.000 NA
ATOM     18  C   UNL     1      38.150  31.216  45.686  0.00  0.00    +0.000 A 
ATOM     19  N   UNL     1      38.590  32.364  46.230  0.00  0.00    +0.000 NA
ATOM     20  H   UNL     1      40.191  33.754  46.397  0.00  0.00    +0.000 HD
ATOM     21  H   UNL     1      41.650  32.485  44.900  0.00  0.00    +0.000 HD
BRANCH  16  22
ATOM     22  N   UNL     1      41.068  30.224  43.691  0.00  0.00    +0.000 N 
ATOM     23  H   UNL     1      41.711  30.745  43.049  0.00  0.00    +0.000 HD
ATOM     24  H   UNL     1      41.145  29.198  43.621  0.00  0.00    +0.000 HD
ENDBRANCH  16  22
ENDBRANCH   6  18
ENDBRANCH   1  10
BRANCH   1  25
ATOM     25  C   UNL     1      34.179  28.133  49.066  0.00  0.00    +0.000 C 
ATOM     26  H   UNL     1      34.653  27.527  49.862  0.00  0.00    +0.000 HD
ATOM     27  H   UNL     1      34.258  27.519  48.130  0.00  0.00    +0.000 HD
BRANCH  25  28
ATOM     28  O   UNL     1      32.859  28.282  49.399  0.00  0.00    +0.000 OA
BRANCH  28  30
ATOM     29  O   UNL     1      32.651  26.711  47.306  0.00  0.00    +0.000 OA
ATOM     30  P   UNL     1      31.869  27.535  48.283  0.00  0.00    +0.000 P 
BRANCH  30  31
ATOM     31  O   UNL     1      31.028  28.790  47.449  0.00  0.00    +0.000 OA
BRANCH  31  32
ATOM     32  C   UNL     1      30.531  28.595  46.181  0.00  0.00    +0.000 A 
ATOM     33  C   UNL     1      29.225  28.398  45.772  0.00  0.00    +0.000 A 
ATOM     34  H   UNL     1      28.360  28.364  46.391  0.00  0.00    +0.000 HD
ATOM     35  C   UNL     1      29.270  28.255  44.398  0.00  0.00    +0.000 A 
ATOM     36  H   UNL     1      28.420  28.086  43.747  0.00  0.00    +0.000 HD
ATOM     37  C   UNL     1      30.588  28.371  44.042  0.00  0.00    +0.000 A 
ATOM     38  H   UNL     1      31.011  28.312  43.037  0.00  0.00    +0.000 HD
ATOM     39  O   UNL     1      31.300  28.571  45.125  0.00  0.00    +0.000 OA
ENDBRANCH  31  32
ENDBRANCH  30  31
BRANCH  30  40
ATOM     40  O   UNL     1      30.695  26.589  48.983  0.00  0.00    +0.000 OA
BRANCH  40  41
ATOM     41  C   UNL     1      29.846  27.357  49.761  0.00  0.00    +0.000 C 
ATOM     42  F   UNL     1      29.308  26.645  50.834  0.00  0.00    +0.000 F 
ATOM     43  F   UNL     1      30.508  28.427  50.323  0.00  0.00    +0.000 F 
ATOM     44  F   UNL     1      28.789  27.820  48.984  0.00  0.00    +0.000 F 
ENDBRANCH  40  41
ENDBRANCH  30  40
ENDBRANCH  28  30
ENDBRANCH  25  28
ENDBRANCH   1  25
TORSDOF 10
