
 OpenBabel03272509303D

 37 39  0  0  1  0  0  0  0  0999 V2000
   36.3100   30.7140   48.9820 C   0  0  2  0  0  0  0  0  0  0  0  0
   37.2960   31.5850   49.6990 C   0  0  0  0  0  0  0  0  0  0  0  0
   38.1910   30.8110   50.6410 C   0  0  0  0  0  0  0  0  0  0  0  0
   37.3510   30.0370   51.6570 C   0  0  0  0  0  0  0  0  0  0  0  0
   36.0830   29.4590   51.0890 C   0  0  0  0  0  0  0  0  0  0  0  0
   36.2460   29.3390   49.5620 C   0  0  1  0  0  0  0  0  0  0  0  0
   35.2510   31.1130   49.0190 H   0  0  0  0  0  0  0  0  0  0  0  0
   36.6550   32.2170   50.4030 H   0  0  0  0  0  0  0  0  0  0  0  0
   37.8440   32.3010   49.1160 H   0  0  0  0  0  0  0  0  0  0  0  0
   38.7860   31.5500   51.1910 H   0  0  0  0  0  0  0  0  0  0  0  0
   38.8470   30.0850   50.1520 H   0  0  0  0  0  0  0  0  0  0  0  0
   37.0890   30.7240   52.4820 H   0  0  0  0  0  0  0  0  0  0  0  0
   37.9580   29.1840   52.0650 H   0  0  0  0  0  0  0  0  0  0  0  0
   35.2320   30.1330   51.2270 H   0  0  0  0  0  0  0  0  0  0  0  0
   35.8790   28.4460   51.5010 H   0  0  0  0  0  0  0  0  0  0  0  0
   37.1930   28.8580   49.5110 H   0  0  0  0  0  0  0  0  0  0  0  0
   36.6400   30.6070   47.5360 C   0  0  0  0  0  0  0  0  0  0  0  0
   37.9940   30.7940   47.2090 C   0  0  0  0  0  0  0  0  0  0  0  0
   38.3320   30.6970   45.8540 C   0  0  0  0  0  0  0  0  0  0  0  0
   37.3350   30.4280   44.9410 N   0  0  0  0  0  0  0  0  0  0  0  0
   36.0320   30.2550   45.3140 C   0  0  0  0  0  0  0  0  0  0  0  0
   35.7030   30.3470   46.6190 N   0  0  0  0  0  0  0  0  0  0  0  0
   38.8560   30.9970   47.8150 H   0  0  0  0  0  0  0  0  0  0  0  0
   39.3270   30.8170   45.4550 H   0  0  0  0  0  0  0  0  0  0  0  0
   35.3410   30.0490   44.5120 H   0  0  0  0  0  0  0  0  0  0  0  0
   33.9250   28.3890   49.1490 C   0  0  0  0  0  0  0  0  0  0  0  0
   33.1510   29.0840   49.8710 O   0  0  0  0  0  0  0  0  0  0  0  0
   35.3280   28.4620   48.9310 N   0  0  0  0  0  0  0  0  0  0  0  0
   35.6710   27.7600   48.1980 H   0  0  0  0  0  0  0  0  0  0  0  0
   33.1270   27.3440   48.4570 C   0  0  0  0  0  0  0  0  0  0  0  0
   31.7580   27.2120   48.4030 C   0  0  0  0  0  0  0  0  0  0  0  0
   31.0160   27.8350   48.8470 H   0  0  0  0  0  0  0  0  0  0  0  0
   31.4280   26.0820   47.6400 C   0  0  0  0  0  0  0  0  0  0  0  0
   30.4190   25.7300   47.4250 H   0  0  0  0  0  0  0  0  0  0  0  0
   32.6580   25.5820   47.2660 C   0  0  0  0  0  0  0  0  0  0  0  0
   32.7540   24.6910   46.6540 H   0  0  0  0  0  0  0  0  0  0  0  0
   33.5870   26.3360   47.7560 O   0  0  0  0  0  0  0  0  0  0  0  0
  1  7  1  1  0  0  0
  1  6  1  0  0  0  0
  1  2  1  0  0  0  0
  2  8  1  0  0  0  0
  2  3  1  0  0  0  0
  3 10  1  0  0  0  0
  3  4  1  0  0  0  0
  4 13  1  0  0  0  0
  4 12  1  0  0  0  0
  5 14  1  0  0  0  0
  5 15  1  0  0  0  0
  5  4  1  0  0  0  0
  6 16  1  6  0  0  0
  6  5  1  0  0  0  0
  9  2  1  0  0  0  0
 11  3  1  0  0  0  0
 17  1  1  0  0  0  0
 18 17  1  0  0  0  0
 18 23  1  0  0  0  0
 19 18  2  0  0  0  0
 20 21  2  0  0  0  0
 20 19  1  0  0  0  0
 21 22  1  0  0  0  0
 22 17  2  0  0  0  0
 24 19  1  0  0  0  0
 25 21  1  0  0  0  0
 26 27  2  0  0  0  0
 28 26  1  0  0  0  0
 28  6  1  0  0  0  0
 29 28  1  0  0  0  0
 30 26  1  0  0  0  0
 31 30  2  0  0  0  0
 31 32  1  0  0  0  0
 33 31  1  0  0  0  0
 34 33  1  0  0  0  0
 35 33  2  0  0  0  0
 35 37  1  0  0  0  0
 36 35  1  0  0  0  0
 37 30  1  0  0  0  0
M  END
>  <minimizedAffinity>
-5.8556962

>  <minimizedRMSD>
0.571961045

$$$$
