
 OpenBabel03272507533D

 31 33  0  0  0  0  0  0  0  0999 V2000
   38.1670   23.2900   34.6980 N   0  0  0  0  0  0  0  0  0  0  0  0
   38.6920   24.1280   33.8110 C   0  0  0  0  0  0  0  0  0  0  0  0
   38.4410   23.9510   32.4490 C   0  0  0  0  0  0  0  0  0  0  0  0
   37.6420   22.8810   32.1560 C   0  0  0  0  0  0  0  0  0  0  0  0
   37.4210   22.7310   30.9160 O   0  0  0  0  0  0  0  0  0  0  0  0
   37.0910   22.0120   33.0110 N   0  0  0  0  0  0  0  0  0  0  0  0
   37.3750   22.2400   34.3170 C   0  0  0  0  0  0  0  0  0  0  0  0
   36.8710   21.4380   35.1470 O   0  0  0  0  0  0  0  0  0  0  0  0
   39.3140   24.9440   34.1770 H   0  0  0  0  0  0  0  0  0  0  0  0
   38.8540   24.6150   31.7210 H   0  0  0  0  0  0  0  0  0  0  0  0
   39.5180   22.7880   36.6400 C   0  0  0  0  0  0  0  0  0  0  0  0
   38.3860   23.4170   36.1100 C   0  0  0  0  0  0  0  0  0  0  0  0
   37.5440   24.1260   36.9700 C   0  0  0  0  0  0  0  0  0  0  0  0
   37.8720   24.1650   38.2940 N   0  0  0  0  0  0  0  0  0  0  0  0
   38.9440   23.5670   38.7890 C   0  0  0  0  0  0  0  0  0  0  0  0
   39.7720   22.8760   37.9760 N   0  0  0  0  0  0  0  0  0  0  0  0
   36.7170   24.5650   36.4650 H   0  0  0  0  0  0  0  0  0  0  0  0
   39.1460   23.6370   39.8510 H   0  0  0  0  0  0  0  0  0  0  0  0
   41.7010   22.4330   35.2610 C   0  0  0  0  0  0  0  0  0  0  0  0
   42.2450   23.5330   35.4850 O   0  0  0  0  0  0  0  0  0  0  0  0
   40.4530   22.0580   35.8610 N   0  0  0  0  0  0  0  0  0  0  0  0
   42.2580   21.8350   34.5950 H   0  0  0  0  0  0  0  0  0  0  0  0
   40.2570   21.0410   35.6470 H   0  0  0  0  0  0  0  0  0  0  0  0
   36.2710   20.9280   32.5930 C   0  0  0  0  0  0  0  0  0  0  0  0
   34.9250   20.7000   32.3740 C   0  0  0  0  0  0  0  0  0  0  0  0
   34.2760   21.5480   32.5560 H   0  0  0  0  0  0  0  0  0  0  0  0
   34.8360   19.3890   31.9700 C   0  0  0  0  0  0  0  0  0  0  0  0
   33.8310   19.0060   31.7430 H   0  0  0  0  0  0  0  0  0  0  0  0
   36.1050   18.8690   31.9560 C   0  0  0  0  0  0  0  0  0  0  0  0
   36.2590   17.8470   31.6660 H   0  0  0  0  0  0  0  0  0  0  0  0
   36.9410   19.8120   32.3330 O   0  0  0  0  0  0  0  0  0  0  0  0
  1 12  1  0  0  0  0
  2  9  1  0  0  0  0
  2  1  1  0  0  0  0
  3  2  2  0  0  0  0
  4  3  1  0  0  0  0
  4  6  1  0  0  0  0
  5  4  2  0  0  0  0
  6  7  1  0  0  0  0
  7  1  1  0  0  0  0
  7  8  2  0  0  0  0
 10  3  1  0  0  0  0
 11 16  1  0  0  0  0
 12 11  2  0  0  0  0
 12 13  1  0  0  0  0
 13 14  2  0  0  0  0
 14 15  1  0  0  0  0
 15 18  1  0  0  0  0
 16 15  2  0  0  0  0
 17 13  1  0  0  0  0
 19 20  2  0  0  0  0
 19 21  1  0  0  0  0
 21 11  1  0  0  0  0
 22 19  1  0  0  0  0
 23 21  1  0  0  0  0
 24  6  1  0  0  0  0
 25 26  1  0  0  0  0
 25 24  2  0  0  0  0
 27 25  1  0  0  0  0
 28 27  1  0  0  0  0
 29 27  2  0  0  0  0
 29 31  1  0  0  0  0
 30 29  1  0  0  0  0
 31 24  1  0  0  0  0
M  END
>  <minimizedAffinity>
-5.11854029

$$$$

 OpenBabel03272507533D

 31 33  0  0  0  0  0  0  0  0999 V2000
   39.1540   23.7110   34.5160 N   0  0  0  0  0  0  0  0  0  0  0  0
   38.9020   25.0090   34.3970 C   0  0  0  0  0  0  0  0  0  0  0  0
   37.8970   25.4490   33.5310 C   0  0  0  0  0  0  0  0  0  0  0  0
   37.2480   24.4470   32.8640 C   0  0  0  0  0  0  0  0  0  0  0  0
   36.3390   24.8580   32.0810 O   0  0  0  0  0  0  0  0  0  0  0  0
   37.4660   23.1300   32.9510 N   0  0  0  0  0  0  0  0  0  0  0  0
   38.4540   22.7710   33.8080 C   0  0  0  0  0  0  0  0  0  0  0  0
   38.6830   21.5370   33.9120 O   0  0  0  0  0  0  0  0  0  0  0  0
   39.4930   25.7070   34.9870 H   0  0  0  0  0  0  0  0  0  0  0  0
   37.6800   26.4890   33.4210 H   0  0  0  0  0  0  0  0  0  0  0  0
   39.7550   22.6860   36.6230 C   0  0  0  0  0  0  0  0  0  0  0  0
   40.1700   23.1960   35.3880 C   0  0  0  0  0  0  0  0  0  0  0  0
   41.5310   23.1750   35.0740 C   0  0  0  0  0  0  0  0  0  0  0  0
   42.3900   22.6560   35.9980 N   0  0  0  0  0  0  0  0  0  0  0  0
   41.9910   22.1770   37.1650 C   0  0  0  0  0  0  0  0  0  0  0  0
   40.6800   22.1860   37.4900 N   0  0  0  0  0  0  0  0  0  0  0  0
   41.7370   23.5840   34.1130 H   0  0  0  0  0  0  0  0  0  0  0  0
   42.7260   21.7780   37.8540 H   0  0  0  0  0  0  0  0  0  0  0  0
   37.6710   23.3900   38.0220 C   0  0  0  0  0  0  0  0  0  0  0  0
   38.1600   24.3810   38.6010 O   0  0  0  0  0  0  0  0  0  0  0  0
   38.3990   22.6380   37.0410 N   0  0  0  0  0  0  0  0  0  0  0  0
   36.6860   23.1840   38.3360 H   0  0  0  0  0  0  0  0  0  0  0  0
   37.7480   21.9420   36.5830 H   0  0  0  0  0  0  0  0  0  0  0  0
   36.7260   22.1710   32.2050 C   0  0  0  0  0  0  0  0  0  0  0  0
   36.8380   21.5270   30.9880 C   0  0  0  0  0  0  0  0  0  0  0  0
   37.7120   21.7890   30.4030 H   0  0  0  0  0  0  0  0  0  0  0  0
   35.7370   20.7080   30.9030 C   0  0  0  0  0  0  0  0  0  0  0  0
   35.6390   20.1000   29.9930 H   0  0  0  0  0  0  0  0  0  0  0  0
   35.0020   20.8760   32.0500 C   0  0  0  0  0  0  0  0  0  0  0  0
   34.0930   20.3230   32.1850 H   0  0  0  0  0  0  0  0  0  0  0  0
   35.6190   21.7570   32.8080 O   0  0  0  0  0  0  0  0  0  0  0  0
  1 12  1  0  0  0  0
  2  1  1  0  0  0  0
  2  9  1  0  0  0  0
  3  2  2  0  0  0  0
  4  6  1  0  0  0  0
  4  3  1  0  0  0  0
  5  4  2  0  0  0  0
  6  7  1  0  0  0  0
  7  8  2  0  0  0  0
  7  1  1  0  0  0  0
 10  3  1  0  0  0  0
 11 21  1  0  0  0  0
 11 16  1  0  0  0  0
 12 11  2  0  0  0  0
 13 12  1  0  0  0  0
 13 14  2  0  0  0  0
 14 15  1  0  0  0  0
 15 16  2  0  0  0  0
 15 18  1  0  0  0  0
 17 13  1  0  0  0  0
 19 22  1  0  0  0  0
 19 20  2  0  0  0  0
 21 19  1  0  0  0  0
 23 21  1  0  0  0  0
 24 31  1  0  0  0  0
 24  6  1  0  0  0  0
 25 24  2  0  0  0  0
 26 25  1  0  0  0  0
 27 25  1  0  0  0  0
 27 29  2  0  0  0  0
 28 27  1  0  0  0  0
 29 30  1  0  0  0  0
 29 31  1  0  0  0  0
M  END
>  <minimizedAffinity>
-5.00341749

$$$$

 OpenBabel03272507533D

 31 33  0  0  0  0  0  0  0  0999 V2000
   38.7360   22.6370   33.9770 N   0  0  0  0  0  0  0  0  0  0  0  0
   37.8920   21.7470   33.4670 C   0  0  0  0  0  0  0  0  0  0  0  0
   36.9000   22.1560   32.5740 C   0  0  0  0  0  0  0  0  0  0  0  0
   36.9000   23.4970   32.3060 C   0  0  0  0  0  0  0  0  0  0  0  0
   35.9940   23.8570   31.4940 O   0  0  0  0  0  0  0  0  0  0  0  0
   37.7250   24.4300   32.7930 N   0  0  0  0  0  0  0  0  0  0  0  0
   38.6650   23.9650   33.6540 C   0  0  0  0  0  0  0  0  0  0  0  0
   39.4580   24.8200   34.1300 O   0  0  0  0  0  0  0  0  0  0  0  0
   38.0000   20.7040   33.7630 H   0  0  0  0  0  0  0  0  0  0  0  0
   36.2120   21.4550   32.1530 H   0  0  0  0  0  0  0  0  0  0  0  0
   39.4470   22.2590   36.2580 C   0  0  0  0  0  0  0  0  0  0  0  0
   39.7760   22.2810   34.8970 C   0  0  0  0  0  0  0  0  0  0  0  0
   41.0810   21.9580   34.5150 C   0  0  0  0  0  0  0  0  0  0  0  0
   41.9720   21.6380   35.4970 N   0  0  0  0  0  0  0  0  0  0  0  0
   41.6540   21.6200   36.7820 C   0  0  0  0  0  0  0  0  0  0  0  0
   40.3990   21.9280   37.1750 N   0  0  0  0  0  0  0  0  0  0  0  0
   41.2230   22.0040   33.4620 H   0  0  0  0  0  0  0  0  0  0  0  0
   42.4100   21.3570   37.5110 H   0  0  0  0  0  0  0  0  0  0  0  0
   37.5680   23.7600   37.2640 C   0  0  0  0  0  0  0  0  0  0  0  0
   38.1490   24.8610   37.1910 O   0  0  0  0  0  0  0  0  0  0  0  0
   38.1520   22.5500   36.7600 N   0  0  0  0  0  0  0  0  0  0  0  0
   36.6240   23.8300   37.7280 H   0  0  0  0  0  0  0  0  0  0  0  0
   37.4320   21.7760   36.7960 H   0  0  0  0  0  0  0  0  0  0  0  0
   37.6340   25.8060   32.4430 C   0  0  0  0  0  0  0  0  0  0  0  0
   38.1590   26.6430   31.4780 C   0  0  0  0  0  0  0  0  0  0  0  0
   38.8310   26.1720   30.7700 H   0  0  0  0  0  0  0  0  0  0  0  0
   37.6290   27.8840   31.7410 C   0  0  0  0  0  0  0  0  0  0  0  0
   37.9290   28.7050   31.0740 H   0  0  0  0  0  0  0  0  0  0  0  0
   36.8130   27.7660   32.8370 C   0  0  0  0  0  0  0  0  0  0  0  0
   36.2960   28.6290   33.2130 H   0  0  0  0  0  0  0  0  0  0  0  0
   36.8360   26.5120   33.2340 O   0  0  0  0  0  0  0  0  0  0  0  0
  1 12  1  0  0  0  0
  2  9  1  0  0  0  0
  2  1  1  0  0  0  0
  3  2  2  0  0  0  0
  4  3  1  0  0  0  0
  4  6  1  0  0  0  0
  5  4  2  0  0  0  0
  6  7  1  0  0  0  0
  7  1  1  0  0  0  0
  7  8  2  0  0  0  0
 10  3  1  0  0  0  0
 11 21  1  0  0  0  0
 11 16  1  0  0  0  0
 12 11  2  0  0  0  0
 13 12  1  0  0  0  0
 13 14  2  0  0  0  0
 14 15  1  0  0  0  0
 15 16  2  0  0  0  0
 15 18  1  0  0  0  0
 17 13  1  0  0  0  0
 19 22  1  0  0  0  0
 20 19  2  0  0  0  0
 21 23  1  0  0  0  0
 21 19  1  0  0  0  0
 24  6  1  0  0  0  0
 24 31  1  0  0  0  0
 25 27  1  0  0  0  0
 25 24  2  0  0  0  0
 26 25  1  0  0  0  0
 27 29  2  0  0  0  0
 28 27  1  0  0  0  0
 29 30  1  0  0  0  0
 29 31  1  0  0  0  0
M  END
>  <minimizedAffinity>
-4.93753576

$$$$

 OpenBabel03272507533D

 31 33  0  0  0  0  0  0  0  0999 V2000
   37.4580   22.5170   33.1770 N   0  0  0  0  0  0  0  0  0  0  0  0
   37.9530   23.4750   32.4010 C   0  0  0  0  0  0  0  0  0  0  0  0
   38.6820   24.5240   32.9650 C   0  0  0  0  0  0  0  0  0  0  0  0
   38.8160   24.4520   34.3250 C   0  0  0  0  0  0  0  0  0  0  0  0
   39.4800   25.4090   34.8250 O   0  0  0  0  0  0  0  0  0  0  0  0
   38.3370   23.5100   35.1450 N   0  0  0  0  0  0  0  0  0  0  0  0
   37.6390   22.5220   34.5330 C   0  0  0  0  0  0  0  0  0  0  0  0
   37.1750   21.6200   35.2800 O   0  0  0  0  0  0  0  0  0  0  0  0
   37.7750   23.4140   31.3280 H   0  0  0  0  0  0  0  0  0  0  0  0
   39.0880   25.3030   32.3580 H   0  0  0  0  0  0  0  0  0  0  0  0
   37.4230   20.3040   32.2010 C   0  0  0  0  0  0  0  0  0  0  0  0
   36.7020   21.4130   32.6590 C   0  0  0  0  0  0  0  0  0  0  0  0
   35.3070   21.3860   32.5880 C   0  0  0  0  0  0  0  0  0  0  0  0
   34.7170   20.2710   32.0710 N   0  0  0  0  0  0  0  0  0  0  0  0
   35.4040   19.2250   31.6390 C   0  0  0  0  0  0  0  0  0  0  0  0
   36.7530   19.2290   31.6980 N   0  0  0  0  0  0  0  0  0  0  0  0
   34.8610   22.2770   32.9620 H   0  0  0  0  0  0  0  0  0  0  0  0
   34.8720   18.3700   31.2390 H   0  0  0  0  0  0  0  0  0  0  0  0
   39.8470   20.5030   31.2630 C   0  0  0  0  0  0  0  0  0  0  0  0
   39.5830   21.0630   30.1800 O   0  0  0  0  0  0  0  0  0  0  0  0
   38.8380   20.2110   32.2410 N   0  0  0  0  0  0  0  0  0  0  0  0
   40.8720   20.2800   31.3630 H   0  0  0  0  0  0  0  0  0  0  0  0
   39.3030   19.8740   33.1290 H   0  0  0  0  0  0  0  0  0  0  0  0
   38.5380   23.5350   36.5540 C   0  0  0  0  0  0  0  0  0  0  0  0
   39.4400   23.0090   37.4580 C   0  0  0  0  0  0  0  0  0  0  0  0
   40.2300   22.4050   37.0280 H   0  0  0  0  0  0  0  0  0  0  0  0
   39.0200   23.4480   38.6920 C   0  0  0  0  0  0  0  0  0  0  0  0
   39.6150   23.1320   39.5610 H   0  0  0  0  0  0  0  0  0  0  0  0
   37.8970   24.2130   38.5040 C   0  0  0  0  0  0  0  0  0  0  0  0
   37.4060   24.6550   39.3490 H   0  0  0  0  0  0  0  0  0  0  0  0
   37.6340   24.2460   37.2150 O   0  0  0  0  0  0  0  0  0  0  0  0
  1  7  1  0  0  0  0
  2  3  2  0  0  0  0
  2  1  1  0  0  0  0
  3  4  1  0  0  0  0
  4  5  2  0  0  0  0
  4  6  1  0  0  0  0
  6 24  1  0  0  0  0
  7  6  1  0  0  0  0
  7  8  2  0  0  0  0
  9  2  1  0  0  0  0
 10  3  1  0  0  0  0
 11 21  1  0  0  0  0
 11 12  1  0  0  0  0
 12  1  1  0  0  0  0
 13 12  2  0  0  0  0
 13 17  1  0  0  0  0
 14 13  1  0  0  0  0
 15 16  1  0  0  0  0
 15 14  2  0  0  0  0
 16 11  2  0  0  0  0
 18 15  1  0  0  0  0
 19 22  1  0  0  0  0
 19 21  1  0  0  0  0
 20 19  2  0  0  0  0
 21 23  1  0  0  0  0
 24 31  1  0  0  0  0
 24 25  2  0  0  0  0
 25 27  1  0  0  0  0
 26 25  1  0  0  0  0
 27 28  1  0  0  0  0
 29 27  2  0  0  0  0
 29 30  1  0  0  0  0
 31 29  1  0  0  0  0
M  END
>  <minimizedAffinity>
-4.93152809

$$$$

 OpenBabel03272507533D

 31 33  0  0  0  0  0  0  0  0999 V2000
   36.1310   26.4840   31.7280 N   0  0  0  0  0  0  0  0  0  0  0  0
   35.4450   25.5510   31.0770 C   0  0  0  0  0  0  0  0  0  0  0  0
   35.7210   24.2000   31.2990 C   0  0  0  0  0  0  0  0  0  0  0  0
   36.7180   23.9680   32.2050 C   0  0  0  0  0  0  0  0  0  0  0  0
   36.9590   22.7370   32.3980 O   0  0  0  0  0  0  0  0  0  0  0  0
   37.4350   24.8710   32.8830 N   0  0  0  0  0  0  0  0  0  0  0  0
   37.1170   26.1630   32.6220 C   0  0  0  0  0  0  0  0  0  0  0  0
   37.7750   27.0380   33.2450 O   0  0  0  0  0  0  0  0  0  0  0  0
   34.6730   25.8700   30.3790 H   0  0  0  0  0  0  0  0  0  0  0  0
   35.1800   23.4350   30.7850 H   0  0  0  0  0  0  0  0  0  0  0  0
   36.5520   28.5130   30.4790 C   0  0  0  0  0  0  0  0  0  0  0  0
   35.8960   27.8870   31.5460 C   0  0  0  0  0  0  0  0  0  0  0  0
   35.0600   28.6520   32.3640 C   0  0  0  0  0  0  0  0  0  0  0  0
   34.9270   29.9780   32.0770 N   0  0  0  0  0  0  0  0  0  0  0  0
   35.5510   30.5640   31.0670 C   0  0  0  0  0  0  0  0  0  0  0  0
   36.3640   29.8450   30.2630 N   0  0  0  0  0  0  0  0  0  0  0  0
   34.6120   28.0800   33.1410 H   0  0  0  0  0  0  0  0  0  0  0  0
   35.4010   31.6230   30.8940 H   0  0  0  0  0  0  0  0  0  0  0  0
   38.8270   27.6190   29.5740 C   0  0  0  0  0  0  0  0  0  0  0  0
   39.5480   27.9220   30.5460 O   0  0  0  0  0  0  0  0  0  0  0  0
   37.4080   27.8350   29.5740 N   0  0  0  0  0  0  0  0  0  0  0  0
   39.3770   27.2000   28.7780 H   0  0  0  0  0  0  0  0  0  0  0  0
   36.9880   27.3760   28.7180 H   0  0  0  0  0  0  0  0  0  0  0  0
   38.4550   24.5150   33.8080 C   0  0  0  0  0  0  0  0  0  0  0  0
   39.8150   24.2720   33.7740 C   0  0  0  0  0  0  0  0  0  0  0  0
   40.2790   24.3650   32.7990 H   0  0  0  0  0  0  0  0  0  0  0  0
   40.1670   23.9710   35.0680 C   0  0  0  0  0  0  0  0  0  0  0  0
   41.2250   23.7420   35.2560 H   0  0  0  0  0  0  0  0  0  0  0  0
   39.0320   24.0380   35.8360 C   0  0  0  0  0  0  0  0  0  0  0  0
   39.0880   23.8350   36.8890 H   0  0  0  0  0  0  0  0  0  0  0  0
   38.0250   24.3650   35.0550 O   0  0  0  0  0  0  0  0  0  0  0  0
  1  7  1  0  0  0  0
  2  3  2  0  0  0  0
  2  1  1  0  0  0  0
  3  4  1  0  0  0  0
  4  5  2  0  0  0  0
  4  6  1  0  0  0  0
  6 24  1  0  0  0  0
  7  6  1  0  0  0  0
  7  8  2  0  0  0  0
  9  2  1  0  0  0  0
 10  3  1  0  0  0  0
 11 12  1  0  0  0  0
 12  1  1  0  0  0  0
 12 13  2  0  0  0  0
 13 17  1  0  0  0  0
 14 13  1  0  0  0  0
 15 14  2  0  0  0  0
 16 11  2  0  0  0  0
 16 15  1  0  0  0  0
 18 15  1  0  0  0  0
 19 20  2  0  0  0  0
 21 19  1  0  0  0  0
 21 11  1  0  0  0  0
 22 19  1  0  0  0  0
 23 21  1  0  0  0  0
 24 31  1  0  0  0  0
 25 24  2  0  0  0  0
 25 27  1  0  0  0  0
 26 25  1  0  0  0  0
 27 28  1  0  0  0  0
 27 29  2  0  0  0  0
 29 30  1  0  0  0  0
 31 29  1  0  0  0  0
M  END
>  <minimizedAffinity>
-4.90624475

$$$$

 OpenBabel03272507533D

 31 33  0  0  0  0  0  0  0  0999 V2000
   38.5330   24.6820   35.5620 N   0  0  0  0  0  0  0  0  0  0  0  0
   37.8750   24.0080   36.4990 C   0  0  0  0  0  0  0  0  0  0  0  0
   38.5480   23.0720   37.2880 C   0  0  0  0  0  0  0  0  0  0  0  0
   39.8780   22.9400   36.9970 C   0  0  0  0  0  0  0  0  0  0  0  0
   40.4780   22.0870   37.7190 O   0  0  0  0  0  0  0  0  0  0  0  0
   40.5810   23.5940   36.0660 N   0  0  0  0  0  0  0  0  0  0  0  0
   39.8680   24.4870   35.3360 C   0  0  0  0  0  0  0  0  0  0  0  0
   40.5030   25.1190   34.4500 O   0  0  0  0  0  0  0  0  0  0  0  0
   36.8130   24.2090   36.6300 H   0  0  0  0  0  0  0  0  0  0  0  0
   38.0370   22.5210   38.0470 H   0  0  0  0  0  0  0  0  0  0  0  0
   37.5980   25.2700   33.4100 C   0  0  0  0  0  0  0  0  0  0  0  0
   37.9000   25.6570   34.7210 C   0  0  0  0  0  0  0  0  0  0  0  0
   37.5740   26.9510   35.1330 C   0  0  0  0  0  0  0  0  0  0  0  0
   36.9740   27.7760   34.2280 N   0  0  0  0  0  0  0  0  0  0  0  0
   36.6920   27.4050   32.9890 C   0  0  0  0  0  0  0  0  0  0  0  0
   36.9980   26.1580   32.5680 N   0  0  0  0  0  0  0  0  0  0  0  0
   37.8450   27.1400   36.1450 H   0  0  0  0  0  0  0  0  0  0  0  0
   36.2140   28.1100   32.3200 H   0  0  0  0  0  0  0  0  0  0  0  0
   37.0180   23.0010   32.2640 C   0  0  0  0  0  0  0  0  0  0  0  0
   35.8360   23.2470   31.9510 O   0  0  0  0  0  0  0  0  0  0  0  0
   37.8650   23.9780   32.8870 N   0  0  0  0  0  0  0  0  0  0  0  0
   37.3040   22.0160   32.0210 H   0  0  0  0  0  0  0  0  0  0  0  0
   38.8530   23.6040   32.9290 H   0  0  0  0  0  0  0  0  0  0  0  0
   41.9700   23.3750   35.8480 C   0  0  0  0  0  0  0  0  0  0  0  0
   43.1630   23.8680   36.3420 C   0  0  0  0  0  0  0  0  0  0  0  0
   43.0700   24.6310   37.1050 H   0  0  0  0  0  0  0  0  0  0  0  0
   44.1480   23.1900   35.6630 C   0  0  0  0  0  0  0  0  0  0  0  0
   45.1880   23.4410   35.9150 H   0  0  0  0  0  0  0  0  0  0  0  0
   43.5360   22.3220   34.7950 C   0  0  0  0  0  0  0  0  0  0  0  0
   44.1320   21.6910   34.1640 H   0  0  0  0  0  0  0  0  0  0  0  0
   42.2340   22.4560   34.9290 O   0  0  0  0  0  0  0  0  0  0  0  0
  1  2  1  0  0  0  0
  2  9  1  0  0  0  0
  2  3  2  0  0  0  0
  3 10  1  0  0  0  0
  4  3  1  0  0  0  0
  4  5  2  0  0  0  0
  6  4  1  0  0  0  0
  7  1  1  0  0  0  0
  7  6  1  0  0  0  0
  8  7  2  0  0  0  0
 11 12  1  0  0  0  0
 12 13  2  0  0  0  0
 12  1  1  0  0  0  0
 13 17  1  0  0  0  0
 14 13  1  0  0  0  0
 15 14  2  0  0  0  0
 16 15  1  0  0  0  0
 16 11  2  0  0  0  0
 18 15  1  0  0  0  0
 19 21  1  0  0  0  0
 20 19  2  0  0  0  0
 21 23  1  0  0  0  0
 21 11  1  0  0  0  0
 22 19  1  0  0  0  0
 24  6  1  0  0  0  0
 24 25  2  0  0  0  0
 25 26  1  0  0  0  0
 27 28  1  0  0  0  0
 27 25  1  0  0  0  0
 29 31  1  0  0  0  0
 29 27  2  0  0  0  0
 30 29  1  0  0  0  0
 31 24  1  0  0  0  0
M  END
>  <minimizedAffinity>
-4.87158442

$$$$

 OpenBabel03272507533D

 31 33  0  0  0  0  0  0  0  0999 V2000
   38.6650   22.2630   32.9780 N   0  0  0  0  0  0  0  0  0  0  0  0
   39.6600   22.9190   32.3920 C   0  0  0  0  0  0  0  0  0  0  0  0
   40.3830   23.8750   33.1090 C   0  0  0  0  0  0  0  0  0  0  0  0
   39.9690   24.0450   34.4010 C   0  0  0  0  0  0  0  0  0  0  0  0
   40.6330   24.9150   35.0420 O   0  0  0  0  0  0  0  0  0  0  0  0
   38.9760   23.4100   35.0330 N   0  0  0  0  0  0  0  0  0  0  0  0
   38.3150   22.4950   34.2810 C   0  0  0  0  0  0  0  0  0  0  0  0
   37.3740   21.8800   34.8480 O   0  0  0  0  0  0  0  0  0  0  0  0
   39.8890   22.6890   31.3530 H   0  0  0  0  0  0  0  0  0  0  0  0
   41.1870   24.4140   32.6560 H   0  0  0  0  0  0  0  0  0  0  0  0
   36.6120   21.6480   31.8570 C   0  0  0  0  0  0  0  0  0  0  0  0
   37.8850   21.2690   32.2970 C   0  0  0  0  0  0  0  0  0  0  0  0
   38.3220   19.9650   32.0540 C   0  0  0  0  0  0  0  0  0  0  0  0
   37.4760   19.1220   31.3960 N   0  0  0  0  0  0  0  0  0  0  0  0
   36.2730   19.4850   30.9820 C   0  0  0  0  0  0  0  0  0  0  0  0
   35.8290   20.7420   31.2060 N   0  0  0  0  0  0  0  0  0  0  0  0
   39.3010   19.7840   32.4290 H   0  0  0  0  0  0  0  0  0  0  0  0
   35.6500   18.7650   30.4640 H   0  0  0  0  0  0  0  0  0  0  0  0
   36.3580   24.1990   31.3890 C   0  0  0  0  0  0  0  0  0  0  0  0
   37.1100   24.2840   30.3980 O   0  0  0  0  0  0  0  0  0  0  0  0
   36.0710   22.9480   32.0300 N   0  0  0  0  0  0  0  0  0  0  0  0
   35.9740   25.1350   31.6860 H   0  0  0  0  0  0  0  0  0  0  0  0
   35.3070   23.0920   32.7470 H   0  0  0  0  0  0  0  0  0  0  0  0
   38.6300   23.6670   36.3890 C   0  0  0  0  0  0  0  0  0  0  0  0
   37.7640   24.4980   37.0730 C   0  0  0  0  0  0  0  0  0  0  0  0
   37.1610   25.1520   36.4550 H   0  0  0  0  0  0  0  0  0  0  0  0
   37.9560   24.2110   38.4040 C   0  0  0  0  0  0  0  0  0  0  0  0
   37.3500   24.7750   39.1270 H   0  0  0  0  0  0  0  0  0  0  0  0
   38.9140   23.2330   38.4870 C   0  0  0  0  0  0  0  0  0  0  0  0
   39.2160   22.8620   39.4480 H   0  0  0  0  0  0  0  0  0  0  0  0
   39.2980   22.9290   37.2660 O   0  0  0  0  0  0  0  0  0  0  0  0
  1  7  1  0  0  0  0
  2  1  1  0  0  0  0
  2  3  2  0  0  0  0
  3  4  1  0  0  0  0
  4  6  1  0  0  0  0
  4  5  2  0  0  0  0
  6 24  1  0  0  0  0
  7  8  2  0  0  0  0
  7  6  1  0  0  0  0
  9  2  1  0  0  0  0
 10  3  1  0  0  0  0
 11 21  1  0  0  0  0
 11 12  1  0  0  0  0
 12  1  1  0  0  0  0
 13 12  2  0  0  0  0
 13 17  1  0  0  0  0
 14 13  1  0  0  0  0
 15 16  1  0  0  0  0
 15 14  2  0  0  0  0
 16 11  2  0  0  0  0
 18 15  1  0  0  0  0
 19 22  1  0  0  0  0
 19 21  1  0  0  0  0
 20 19  2  0  0  0  0
 21 23  1  0  0  0  0
 24 25  2  0  0  0  0
 24 31  1  0  0  0  0
 25 27  1  0  0  0  0
 26 25  1  0  0  0  0
 27 29  2  0  0  0  0
 27 28  1  0  0  0  0
 29 30  1  0  0  0  0
 31 29  1  0  0  0  0
M  END
>  <minimizedAffinity>
-4.85152292

$$$$

 OpenBabel03272507533D

 31 33  0  0  0  0  0  0  0  0999 V2000
   38.4830   23.8290   35.0630 N   0  0  0  0  0  0  0  0  0  0  0  0
   37.7870   23.5150   36.1490 C   0  0  0  0  0  0  0  0  0  0  0  0
   38.4410   23.0100   37.2760 C   0  0  0  0  0  0  0  0  0  0  0  0
   39.7950   22.8840   37.1330 C   0  0  0  0  0  0  0  0  0  0  0  0
   40.3780   22.4240   38.1620 O   0  0  0  0  0  0  0  0  0  0  0  0
   40.5370   23.1860   36.0630 N   0  0  0  0  0  0  0  0  0  0  0  0
   39.8410   23.6710   35.0050 C   0  0  0  0  0  0  0  0  0  0  0  0
   40.5130   23.9650   33.9810 O   0  0  0  0  0  0  0  0  0  0  0  0
   36.7090   23.6640   36.1330 H   0  0  0  0  0  0  0  0  0  0  0  0
   37.8990   22.7510   38.1590 H   0  0  0  0  0  0  0  0  0  0  0  0
   37.5000   25.7020   33.8900 C   0  0  0  0  0  0  0  0  0  0  0  0
   37.8710   24.3530   33.8750 C   0  0  0  0  0  0  0  0  0  0  0  0
   37.6310   23.6000   32.7230 C   0  0  0  0  0  0  0  0  0  0  0  0
   37.0400   24.2260   31.6650 N   0  0  0  0  0  0  0  0  0  0  0  0
   36.6900   25.5020   31.6850 C   0  0  0  0  0  0  0  0  0  0  0  0
   36.9140   26.2500   32.7880 N   0  0  0  0  0  0  0  0  0  0  0  0
   37.9520   22.5900   32.8190 H   0  0  0  0  0  0  0  0  0  0  0  0
   36.2250   25.9380   30.8090 H   0  0  0  0  0  0  0  0  0  0  0  0
   38.8980   27.1830   35.5170 C   0  0  0  0  0  0  0  0  0  0  0  0
   39.9930   27.1340   34.9210 O   0  0  0  0  0  0  0  0  0  0  0  0
   37.7110   26.5670   34.9950 N   0  0  0  0  0  0  0  0  0  0  0  0
   38.9550   27.7150   36.4250 H   0  0  0  0  0  0  0  0  0  0  0  0
   36.8820   26.8550   35.5840 H   0  0  0  0  0  0  0  0  0  0  0  0
   41.9490   23.0140   36.0250 C   0  0  0  0  0  0  0  0  0  0  0  0
   43.0700   23.7600   36.3380 C   0  0  0  0  0  0  0  0  0  0  0  0
   42.8740   24.7540   36.7200 H   0  0  0  0  0  0  0  0  0  0  0  0
   44.1420   22.9510   36.0450 C   0  0  0  0  0  0  0  0  0  0  0  0
   45.1430   23.3670   36.2260 H   0  0  0  0  0  0  0  0  0  0  0  0
   43.6510   21.7600   35.5720 C   0  0  0  0  0  0  0  0  0  0  0  0
   44.3290   20.9810   35.2820 H   0  0  0  0  0  0  0  0  0  0  0  0
   42.3370   21.8290   35.5710 O   0  0  0  0  0  0  0  0  0  0  0  0
  1  2  1  0  0  0  0
  2  3  2  0  0  0  0
  3 10  1  0  0  0  0
  4  3  1  0  0  0  0
  4  5  2  0  0  0  0
  6  4  1  0  0  0  0
  7  1  1  0  0  0  0
  7  6  1  0  0  0  0
  8  7  2  0  0  0  0
  9  2  1  0  0  0  0
 11 21  1  0  0  0  0
 12 11  1  0  0  0  0
 12  1  1  0  0  0  0
 13 17  1  0  0  0  0
 13 12  2  0  0  0  0
 14 15  2  0  0  0  0
 14 13  1  0  0  0  0
 15 16  1  0  0  0  0
 16 11  2  0  0  0  0
 18 15  1  0  0  0  0
 19 22  1  0  0  0  0
 20 19  2  0  0  0  0
 21 19  1  0  0  0  0
 21 23  1  0  0  0  0
 24  6  1  0  0  0  0
 24 25  2  0  0  0  0
 25 26  1  0  0  0  0
 27 28  1  0  0  0  0
 27 25  1  0  0  0  0
 29 27  2  0  0  0  0
 30 29  1  0  0  0  0
 31 29  1  0  0  0  0
 31 24  1  0  0  0  0
M  END
>  <minimizedAffinity>
-4.79497099

$$$$

 OpenBabel03272507533D

 31 33  0  0  0  0  0  0  0  0999 V2000
   37.9870   23.4400   34.6230 N   0  0  0  0  0  0  0  0  0  0  0  0
   37.7710   22.3680   33.8690 C   0  0  0  0  0  0  0  0  0  0  0  0
   37.4490   22.5180   32.5180 C   0  0  0  0  0  0  0  0  0  0  0  0
   37.3850   23.8160   32.0940 C   0  0  0  0  0  0  0  0  0  0  0  0
   37.0910   23.9390   30.8660 O   0  0  0  0  0  0  0  0  0  0  0  0
   37.5930   24.9240   32.8130 N   0  0  0  0  0  0  0  0  0  0  0  0
   37.9020   24.7080   34.1150 C   0  0  0  0  0  0  0  0  0  0  0  0
   38.1030   25.7330   34.8190 O   0  0  0  0  0  0  0  0  0  0  0  0
   37.8550   21.3860   34.3320 H   0  0  0  0  0  0  0  0  0  0  0  0
   37.2720   21.6680   31.8960 H   0  0  0  0  0  0  0  0  0  0  0  0
   39.6620   23.1030   36.3350 C   0  0  0  0  0  0  0  0  0  0  0  0
   38.3230   23.3540   36.0150 C   0  0  0  0  0  0  0  0  0  0  0  0
   37.3990   23.5050   37.0520 C   0  0  0  0  0  0  0  0  0  0  0  0
   37.8560   23.3980   38.3330 N   0  0  0  0  0  0  0  0  0  0  0  0
   39.1230   23.1590   38.6290 C   0  0  0  0  0  0  0  0  0  0  0  0
   40.0340   23.0100   37.6430 N   0  0  0  0  0  0  0  0  0  0  0  0
   36.4130   23.6930   36.6990 H   0  0  0  0  0  0  0  0  0  0  0  0
   39.4200   23.0860   39.6690 H   0  0  0  0  0  0  0  0  0  0  0  0
   41.4860   23.9090   34.6570 C   0  0  0  0  0  0  0  0  0  0  0  0
   41.4640   25.1270   34.9270 O   0  0  0  0  0  0  0  0  0  0  0  0
   40.6890   22.9510   35.3680 N   0  0  0  0  0  0  0  0  0  0  0  0
   42.1430   23.6820   33.8650 H   0  0  0  0  0  0  0  0  0  0  0  0
   40.9730   21.9760   35.0730 H   0  0  0  0  0  0  0  0  0  0  0  0
   37.4990   26.2330   32.2640 C   0  0  0  0  0  0  0  0  0  0  0  0
   38.3540   27.1550   31.6900 C   0  0  0  0  0  0  0  0  0  0  0  0
   39.3890   26.8450   31.6150 H   0  0  0  0  0  0  0  0  0  0  0  0
   37.5680   28.2400   31.3800 C   0  0  0  0  0  0  0  0  0  0  0  0
   38.0670   29.0970   30.9070 H   0  0  0  0  0  0  0  0  0  0  0  0
   36.2840   27.9500   31.7670 C   0  0  0  0  0  0  0  0  0  0  0  0
   35.5050   28.6720   31.6120 H   0  0  0  0  0  0  0  0  0  0  0  0
   36.2750   26.7440   32.2920 O   0  0  0  0  0  0  0  0  0  0  0  0
  1 12  1  0  0  0  0
  2  9  1  0  0  0  0
  2  1  1  0  0  0  0
  3  2  2  0  0  0  0
  4  3  1  0  0  0  0
  4  6  1  0  0  0  0
  5  4  2  0  0  0  0
  6  7  1  0  0  0  0
  7  1  1  0  0  0  0
  7  8  2  0  0  0  0
 10  3  1  0  0  0  0
 11 16  1  0  0  0  0
 12 11  2  0  0  0  0
 12 13  1  0  0  0  0
 13 14  2  0  0  0  0
 14 15  1  0  0  0  0
 15 18  1  0  0  0  0
 16 15  2  0  0  0  0
 17 13  1  0  0  0  0
 19 20  2  0  0  0  0
 19 21  1  0  0  0  0
 21 11  1  0  0  0  0
 22 19  1  0  0  0  0
 23 21  1  0  0  0  0
 24 31  1  0  0  0  0
 24  6  1  0  0  0  0
 25 24  2  0  0  0  0
 26 25  1  0  0  0  0
 27 25  1  0  0  0  0
 27 29  2  0  0  0  0
 28 27  1  0  0  0  0
 29 31  1  0  0  0  0
 30 29  1  0  0  0  0
M  END
>  <minimizedAffinity>
-4.78140068

$$$$
