REMARK  Name = 
REMARK  3 active torsions:
REMARK  status: ('A' for Active; 'I' for Inactive)
REMARK    1  A    between atoms: C_1  and  C_9
REMARK    2  A    between atoms: C_6  and  N_15
REMARK    3  A    between atoms: C_13  and  C_30
REMARK                            x       y       z     vdW  Elec       q    Type
REMARK                         _______ _______ _______ _____ _____    ______ ____
ROOT
ATOM      1  C   UNL     1      38.136  30.565  47.325  0.00  0.00    +0.000 C 
ATOM      2  C   UNL     1      37.506  30.742  46.025  0.00  0.00    +0.000 C 
ATOM      3  C   UNL     1      38.543  30.578  44.958  0.00  0.00    +0.000 C 
ATOM      4  C   UNL     1      39.816  31.245  45.337  0.00  0.00    +0.000 C 
ATOM      5  C   UNL     1      39.704  32.279  46.385  0.00  0.00    +0.000 C 
ATOM      6  C   UNL     1      38.941  31.821  47.630  0.00  0.00    +0.000 C 
ATOM      7  H   UNL     1      38.880  29.728  47.303  0.00  0.00    +0.000 HD
ATOM      8  H   UNL     1      36.704  29.980  45.837  0.00  0.00    +0.000 HD
ATOM      9  H   UNL     1      36.983  31.717  45.920  0.00  0.00    +0.000 HD
ATOM     10  H   UNL     1      38.131  31.099  44.047  0.00  0.00    +0.000 HD
ATOM     11  H   UNL     1      38.636  29.506  44.676  0.00  0.00    +0.000 HD
ATOM     12  H   UNL     1      40.525  30.462  45.694  0.00  0.00    +0.000 HD
ATOM     13  H   UNL     1      40.259  31.724  44.444  0.00  0.00    +0.000 HD
ATOM     14  H   UNL     1      39.239  33.234  46.013  0.00  0.00    +0.000 HD
ATOM     15  H   UNL     1      40.716  32.581  46.721  0.00  0.00    +0.000 HD
ATOM     16  H   UNL     1      39.683  31.541  48.421  0.00  0.00    +0.000 HD
ENDROOT
BRANCH   1  19
ATOM     17  C   UNL     1      36.936  29.630  50.714  0.00  0.00    +0.000 A 
ATOM     18  C   UNL     1      37.826  29.837  49.620  0.00  0.00    +0.000 A 
ATOM     19  C   UNL     1      37.238  30.365  48.477  0.00  0.00    +0.000 A 
ATOM     20  N   UNL     1      35.881  30.657  48.438  0.00  0.00    +0.000 NA
ATOM     21  C   UNL     1      35.089  30.443  49.495  0.00  0.00    +0.000 A 
ATOM     22  N   UNL     1      35.605  29.927  50.646  0.00  0.00    +0.000 NA
ATOM     23  H   UNL     1      37.303  29.228  51.634  0.00  0.00    +0.000 HD
ATOM     24  H   UNL     1      38.858  29.596  49.703  0.00  0.00    +0.000 HD
ATOM     25  H   UNL     1      34.068  30.709  49.339  0.00  0.00    +0.000 HD
ENDBRANCH   1  19
BRANCH   6  28
ATOM     26  C   UNL     1      38.258  33.811  49.249  0.00  0.00    +0.000 C 
ATOM     27  O   UNL     1      39.350  33.626  49.857  0.00  0.00    +0.000 OA
ATOM     28  N   UNL     1      38.156  32.909  48.147  0.00  0.00    +0.000 N 
ATOM     29  H   UNL     1      37.321  32.982  47.482  0.00  0.00    +0.000 HD
BRANCH  26  30
ATOM     30  C   UNL     1      37.173  34.737  49.486  0.00  0.00    +0.000 A 
ATOM     31  C   UNL     1      36.248  35.366  48.655  0.00  0.00    +0.000 A 
ATOM     32  H   UNL     1      36.262  35.191  47.587  0.00  0.00    +0.000 HD
ATOM     33  C   UNL     1      35.478  36.130  49.525  0.00  0.00    +0.000 A 
ATOM     34  H   UNL     1      34.670  36.733  49.139  0.00  0.00    +0.000 HD
ATOM     35  C   UNL     1      35.961  35.934  50.821  0.00  0.00    +0.000 A 
ATOM     36  H   UNL     1      35.501  36.439  51.660  0.00  0.00    +0.000 HD
ATOM     37  O   UNL     1      36.971  35.093  50.732  0.00  0.00    +0.000 OA
ENDBRANCH  26  30
ENDBRANCH   6  28
TORSDOF 3
