
 OpenBabel03272509303D

 37 39  0  0  1  0  0  0  0  0999 V2000
   36.2740   30.7200   48.9890 C   0  0  2  0  0  0  0  0  0  0  0  0
   37.2610   31.5940   49.7020 C   0  0  0  0  0  0  0  0  0  0  0  0
   38.1710   30.8200   50.6300 C   0  0  0  0  0  0  0  0  0  0  0  0
   37.3470   30.0330   51.6490 C   0  0  0  0  0  0  0  0  0  0  0  0
   36.0780   29.4490   51.0890 C   0  0  0  0  0  0  0  0  0  0  0  0
   36.2260   29.3410   49.5600 C   0  0  1  0  0  0  0  0  0  0  0  0
   35.2120   31.1110   49.0390 H   0  0  0  0  0  0  0  0  0  0  0  0
   36.6220   32.2160   50.4170 H   0  0  0  0  0  0  0  0  0  0  0  0
   37.7970   32.3180   49.1180 H   0  0  0  0  0  0  0  0  0  0  0  0
   38.7660   31.5610   51.1790 H   0  0  0  0  0  0  0  0  0  0  0  0
   38.8270   30.1020   50.1290 H   0  0  0  0  0  0  0  0  0  0  0  0
   37.0880   30.7120   52.4800 H   0  0  0  0  0  0  0  0  0  0  0  0
   37.9650   29.1820   52.0450 H   0  0  0  0  0  0  0  0  0  0  0  0
   35.2230   30.1150   51.2410 H   0  0  0  0  0  0  0  0  0  0  0  0
   35.8860   28.4320   51.4960 H   0  0  0  0  0  0  0  0  0  0  0  0
   37.1770   28.8670   49.4960 H   0  0  0  0  0  0  0  0  0  0  0  0
   36.5910   30.6260   47.5390 C   0  0  0  0  0  0  0  0  0  0  0  0
   37.9280   30.8860   47.1930 C   0  0  0  0  0  0  0  0  0  0  0  0
   38.2520   30.8010   45.8340 C   0  0  0  0  0  0  0  0  0  0  0  0
   37.2600   30.4750   44.9350 N   0  0  0  0  0  0  0  0  0  0  0  0
   35.9740   30.2320   45.3270 C   0  0  0  0  0  0  0  0  0  0  0  0
   35.6570   30.3110   46.6350 N   0  0  0  0  0  0  0  0  0  0  0  0
   38.7860   31.1380   47.7870 H   0  0  0  0  0  0  0  0  0  0  0  0
   39.2340   30.9750   45.4210 H   0  0  0  0  0  0  0  0  0  0  0  0
   35.2850   29.9850   44.5340 H   0  0  0  0  0  0  0  0  0  0  0  0
   33.9070   28.3850   49.1530 C   0  0  0  0  0  0  0  0  0  0  0  0
   33.1330   29.0800   49.8760 O   0  0  0  0  0  0  0  0  0  0  0  0
   35.3090   28.4610   48.9320 N   0  0  0  0  0  0  0  0  0  0  0  0
   35.6520   27.7590   48.1990 H   0  0  0  0  0  0  0  0  0  0  0  0
   33.1090   27.3380   48.4640 C   0  0  0  0  0  0  0  0  0  0  0  0
   31.7400   27.2070   48.4080 C   0  0  0  0  0  0  0  0  0  0  0  0
   30.9990   27.8320   48.8480 H   0  0  0  0  0  0  0  0  0  0  0  0
   31.4100   26.0740   47.6480 C   0  0  0  0  0  0  0  0  0  0  0  0
   30.4030   25.7220   47.4330 H   0  0  0  0  0  0  0  0  0  0  0  0
   32.6420   25.5710   47.2800 C   0  0  0  0  0  0  0  0  0  0  0  0
   32.7380   24.6770   46.6730 H   0  0  0  0  0  0  0  0  0  0  0  0
   33.5700   26.3260   47.7680 O   0  0  0  0  0  0  0  0  0  0  0  0
  1  7  1  1  0  0  0
  1  6  1  0  0  0  0
  1  2  1  0  0  0  0
  2  8  1  0  0  0  0
  2  3  1  0  0  0  0
  3 10  1  0  0  0  0
  3  4  1  0  0  0  0
  4 13  1  0  0  0  0
  4 12  1  0  0  0  0
  5 14  1  0  0  0  0
  5 15  1  0  0  0  0
  5  4  1  0  0  0  0
  6 16  1  6  0  0  0
  6  5  1  0  0  0  0
  9  2  1  0  0  0  0
 11  3  1  0  0  0  0
 17  1  1  0  0  0  0
 18 17  1  0  0  0  0
 18 23  1  0  0  0  0
 19 18  2  0  0  0  0
 20 21  2  0  0  0  0
 20 19  1  0  0  0  0
 21 22  1  0  0  0  0
 22 17  2  0  0  0  0
 24 19  1  0  0  0  0
 25 21  1  0  0  0  0
 26 27  2  0  0  0  0
 28 26  1  0  0  0  0
 28  6  1  0  0  0  0
 29 28  1  0  0  0  0
 30 26  1  0  0  0  0
 31 30  2  0  0  0  0
 31 32  1  0  0  0  0
 33 31  1  0  0  0  0
 34 33  1  0  0  0  0
 35 33  2  0  0  0  0
 35 37  1  0  0  0  0
 36 35  1  0  0  0  0
 37 30  1  0  0  0  0
M  END
>  <minimizedAffinity>
-5.84575558

>  <minimizedRMSD>
0.31709075

$$$$
