REMARK  Name = 
REMARK  2 active torsions:
REMARK  status: ('A' for Active; 'I' for Inactive)
REMARK    1  A    between atoms: C_5  and  C_7
REMARK    2  A    between atoms: C_7  and  C_12
REMARK                            x       y       z     vdW  Elec       q    Type
REMARK                         _______ _______ _______ _____ _____    ______ ____
ROOT
ATOM      1  C   UNL     1      34.820  28.312  49.480  0.00  0.00    +0.000 C 
ATOM      2  O   UNL     1      33.638  28.716  49.568  0.00  0.00    +0.000 OA
ENDROOT
BRANCH   1   7
ATOM      3  C   UNL     1      37.261  30.183  51.422  0.00  0.00    +0.000 A 
ATOM      4  C   UNL     1      38.085  30.750  50.445  0.00  0.00    +0.000 A 
ATOM      5  C   UNL     1      37.811  30.497  49.104  0.00  0.00    +0.000 A 
ATOM      6  N   UNL     1      36.748  29.704  48.828  0.00  0.00    +0.000 NA
ATOM      7  C   UNL     1      35.964  29.165  49.787  0.00  0.00    +0.000 A 
ATOM      8  N   UNL     1      36.223  29.406  51.086  0.00  0.00    +0.000 NA
ATOM      9  H   UNL     1      37.464  30.373  52.483  0.00  0.00    +0.000 HD
ATOM     10  H   UNL     1      38.929  31.382  50.710  0.00  0.00    +0.000 HD
ATOM     11  H   UNL     1      38.401  30.900  48.294  0.00  0.00    +0.000 HD
ENDBRANCH   1   7
BRANCH   1  12
ATOM     12  C   UNL     1      35.038  26.924  49.049  0.00  0.00    +0.000 A 
ATOM     13  C   UNL     1      34.378  26.328  47.990  0.00  0.00    +0.000 A 
ATOM     14  H   UNL     1      33.637  26.780  47.353  0.00  0.00    +0.000 HD
ATOM     15  C   UNL     1      34.916  25.037  47.980  0.00  0.00    +0.000 A 
ATOM     16  H   UNL     1      34.626  24.276  47.268  0.00  0.00    +0.000 HD
ATOM     17  C   UNL     1      35.842  24.918  48.996  0.00  0.00    +0.000 A 
ATOM     18  H   UNL     1      36.441  24.046  49.262  0.00  0.00    +0.000 HD
ATOM     19  O   UNL     1      35.888  26.071  49.616  0.00  0.00    +0.000 OA
ENDBRANCH   1  12
TORSDOF 2
