
 OpenBabel03272504413D

 44 46  0  0  0  0  0  0  0  0999 V2000
   34.8420   29.4100   48.8570 C   0  0  0  0  0  0  0  0  0  0  0  0
   34.1840   30.2310   49.2720 H   0  0  0  0  0  0  0  0  0  0  0  0
   35.7430   29.4510   49.5020 H   0  0  0  0  0  0  0  0  0  0  0  0
   37.6130   30.4480   48.5280 Cl  0  0  0  0  0  0  0  0  0  0  0  0
   36.4480   30.3000   47.2010 C   0  0  0  0  0  0  0  0  0  0  0  0
   36.8190   30.6750   45.9600 C   0  0  0  0  0  0  0  0  0  0  0  0
   35.9260   30.5650   44.9200 C   0  0  0  0  0  0  0  0  0  0  0  0
   34.6590   30.0690   45.1860 C   0  0  0  0  0  0  0  0  0  0  0  0
   34.3410   29.7000   46.4980 C   0  0  0  0  0  0  0  0  0  0  0  0
   35.2090   29.8030   47.5250 C   0  0  0  0  0  0  0  0  0  0  0  0
   36.2530   30.8760   43.9210 H   0  0  0  0  0  0  0  0  0  0  0  0
   34.0350   30.0230   44.3040 H   0  0  0  0  0  0  0  0  0  0  0  0
   33.3370   29.3610   46.4670 H   0  0  0  0  0  0  0  0  0  0  0  0
   39.8020   32.8460   45.9900 C   0  0  0  0  0  0  0  0  0  0  0  0
   40.6690   32.1130   45.1070 C   0  0  0  0  0  0  0  0  0  0  0  0
   40.1890   30.9230   44.5530 C   0  0  0  0  0  0  0  0  0  0  0  0
   38.9360   30.4980   44.8590 N   0  0  0  0  0  0  0  0  0  0  0  0
   38.1450   31.2100   45.6950 C   0  0  0  0  0  0  0  0  0  0  0  0
   38.5830   32.3580   46.2400 N   0  0  0  0  0  0  0  0  0  0  0  0
   40.1810   33.7520   46.4050 H   0  0  0  0  0  0  0  0  0  0  0  0
   41.6390   32.4900   44.9010 H   0  0  0  0  0  0  0  0  0  0  0  0
   41.0590   30.2300   43.6880 N   0  0  0  0  0  0  0  0  0  0  0  0
   41.6990   30.7550   43.0450 H   0  0  0  0  0  0  0  0  0  0  0  0
   41.1390   29.2050   43.6150 H   0  0  0  0  0  0  0  0  0  0  0  0
   34.1780   28.1200   49.0810 C   0  0  0  0  0  0  0  0  0  0  0  0
   34.6150   27.5330   49.9110 H   0  0  0  0  0  0  0  0  0  0  0  0
   34.2990   27.4860   48.1640 H   0  0  0  0  0  0  0  0  0  0  0  0
   32.8440   28.2750   49.3510 O   0  0  0  0  0  0  0  0  0  0  0  0
   32.7370   26.5430   47.3810 O   0  0  0  0  0  0  0  0  0  0  0  0
   31.9080   27.4320   48.2570 P   0  0  2  0  0  0  0  0  0  0  0  0
   31.0920   28.6080   47.2930 O   0  0  0  0  0  0  0  0  0  0  0  0
   30.6510   28.3090   46.0250 C   0  0  0  0  0  0  0  0  0  0  0  0
   31.2110   28.6290   44.8030 C   0  0  0  0  0  0  0  0  0  0  0  0
   32.1070   29.1800   44.6360 H   0  0  0  0  0  0  0  0  0  0  0  0
   30.3750   28.0920   43.8430 C   0  0  0  0  0  0  0  0  0  0  0  0
   30.5130   28.1560   42.7700 H   0  0  0  0  0  0  0  0  0  0  0  0
   29.3560   27.4770   44.5210 C   0  0  0  0  0  0  0  0  0  0  0  0
   28.5040   26.9420   44.0950 H   0  0  0  0  0  0  0  0  0  0  0  0
   29.5570   27.6280   45.8080 O   0  0  0  0  0  0  0  0  0  0  0  0
   30.7130   26.5300   48.9800 O   0  0  0  0  0  0  0  0  0  0  0  0
   29.8740   27.3370   49.7280 C   0  0  0  0  0  0  0  0  0  0  0  0
   29.3060   26.6660   50.8120 F   0  0  0  0  0  0  0  0  0  0  0  0
   30.5540   28.4060   50.2700 F   0  0  0  0  0  0  0  0  0  0  0  0
   28.8370   27.8040   48.9260 F   0  0  0  0  0  0  0  0  0  0  0  0
  1 25  1  0  0  0  0
  1  2  1  0  0  0  0
  1  3  1  0  0  0  0
  5 10  1  0  0  0  0
  5  4  1  0  0  0  0
  6  5  2  0  0  0  0
  7  8  2  0  0  0  0
  7  6  1  0  0  0  0
  8  9  1  0  0  0  0
  9 10  2  0  0  0  0
 10  1  1  0  0  0  0
 11  7  1  0  0  0  0
 12  8  1  0  0  0  0
 13  9  1  0  0  0  0
 14 19  1  0  0  0  0
 14 20  1  0  0  0  0
 15 14  2  0  0  0  0
 16 17  2  0  0  0  0
 16 15  1  0  0  0  0
 17 18  1  0  0  0  0
 18  6  1  0  0  0  0
 18 19  2  0  0  0  0
 21 15  1  0  0  0  0
 22 16  1  0  0  0  0
 23 22  1  0  0  0  0
 24 22  1  0  0  0  0
 25 28  1  0  0  0  0
 25 26  1  0  0  0  0
 27 25  1  0  0  0  0
 30 29  2  6  0  0  0
 30 40  1  0  0  0  0
 30 28  1  0  0  0  0
 31 30  1  0  0  0  0
 32 31  1  0  0  0  0
 33 32  2  0  0  0  0
 34 33  1  0  0  0  0
 35 37  2  0  0  0  0
 35 33  1  0  0  0  0
 36 35  1  0  0  0  0
 37 39  1  0  0  0  0
 38 37  1  0  0  0  0
 39 32  1  0  0  0  0
 40 41  1  0  0  0  0
 41 43  1  0  0  0  0
 41 42  1  0  0  0  0
 44 41  1  0  0  0  0
M  END
>  <minimizedAffinity>
-5.63963985

>  <minimizedRMSD>
0.374016494

$$$$
