REMARK  Name = 
REMARK  5 active torsions:
REMARK  status: ('A' for Active; 'I' for Inactive)
REMARK    1  A    between atoms: S_1  and  C_6
REMARK    2  A    between atoms: S_1  and  C_9
REMARK    3  A    between atoms: C_8  and  O_13
REMARK    4  A    between atoms: C_12  and  O_14
REMARK    5  A    between atoms: O_14  and  C_24
REMARK                            x       y       z     vdW  Elec       q    Type
REMARK                         _______ _______ _______ _____ _____    ______ ____
ROOT
ATOM      1  C   UNL     1      32.388  28.350  47.482  0.00  0.00    +0.000 C 
ATOM      2  C   UNL     1      33.623  28.418  48.345  0.00  0.00    +0.000 C 
ATOM      3  O   UNL     1      34.187  27.161  48.357  0.00  0.00    +0.000 OA
ATOM      4  C   UNL     1      33.554  26.373  47.408  0.00  0.00    +0.000 C 
ATOM      5  C   UNL     1      32.845  27.332  46.453  0.00  0.00    +0.000 C 
ATOM      6  H   UNL     1      31.483  28.045  48.032  0.00  0.00    +0.000 HD
ATOM      7  H   UNL     1      33.392  28.799  49.361  0.00  0.00    +0.000 HD
ATOM      8  H   UNL     1      34.279  25.780  46.829  0.00  0.00    +0.000 HD
ATOM      9  H   UNL     1      32.778  25.784  47.919  0.00  0.00    +0.000 HD
ATOM     10  H   UNL     1      33.533  27.838  45.775  0.00  0.00    +0.000 HD
ENDROOT
BRANCH   1  11
ATOM     11  O   UNL     1      32.134  29.597  46.891  0.00  0.00    +0.000 OA
ATOM     12  H   UNL     1      31.400  29.542  46.259  0.00  0.00    +0.000 HD
ENDBRANCH   1  11
BRANCH   2  13
ATOM     13  S   UNL     1      34.800  29.541  47.514  0.00  0.00    +0.000 S 
BRANCH  13  18
ATOM     14  C   UNL     1      37.372  29.473  50.533  0.00  0.00    +0.000 A 
ATOM     15  C   UNL     1      37.974  30.724  50.516  0.00  0.00    +0.000 A 
ATOM     16  C   UNL     1      37.580  31.637  49.538  0.00  0.00    +0.000 A 
ATOM     17  N   UNL     1      36.619  31.264  48.637  0.00  0.00    +0.000 NA
ATOM     18  C   UNL     1      36.059  30.029  48.694  0.00  0.00    +0.000 A 
ATOM     19  N   UNL     1      36.424  29.129  49.631  0.00  0.00    +0.000 NA
ATOM     20  H   UNL     1      37.718  28.816  51.309  0.00  0.00    +0.000 HD
ATOM     21  H   UNL     1      38.735  31.033  51.221  0.00  0.00    +0.000 HD
ATOM     22  H   UNL     1      37.984  32.627  49.440  0.00  0.00    +0.000 HD
ENDBRANCH  13  18
ENDBRANCH   2  13
BRANCH   5  23
ATOM     23  O   UNL     1      31.797  26.684  45.828  0.00  0.00    +0.000 OA
BRANCH  23  24
ATOM     24  C   UNL     1      31.561  26.631  44.471  0.00  0.00    +0.000 A 
ATOM     25  C   UNL     1      30.643  25.659  44.070  0.00  0.00    +0.000 A 
ATOM     26  H   UNL     1      30.047  24.907  44.591  0.00  0.00    +0.000 HD
ATOM     27  C   UNL     1      30.532  25.752  42.678  0.00  0.00    +0.000 A 
ATOM     28  H   UNL     1      29.950  25.211  41.940  0.00  0.00    +0.000 HD
ATOM     29  C   UNL     1      31.408  26.788  42.359  0.00  0.00    +0.000 A 
ATOM     30  H   UNL     1      31.584  27.145  41.338  0.00  0.00    +0.000 HD
ATOM     31  O   UNL     1      31.987  27.272  43.432  0.00  0.00    +0.000 OA
ENDBRANCH  23  24
ENDBRANCH   5  23
TORSDOF 5
