
 OpenBabel03272505243D

 27 29  0  0  0  0  0  0  0  0999 V2000
   37.9400   19.9520   31.9830 C   0  0  0  0  0  0  0  0  0  0  0  0
   37.8610   21.3570   32.0960 C   0  0  0  0  0  0  0  0  0  0  0  0
   36.6890   22.0160   31.7800 C   0  0  0  0  0  0  0  0  0  0  0  0
   35.6530   21.2530   31.3670 N   0  0  0  0  0  0  0  0  0  0  0  0
   35.7040   19.9140   31.2510 C   0  0  0  0  0  0  0  0  0  0  0  0
   36.8490   19.2630   31.5600 N   0  0  0  0  0  0  0  0  0  0  0  0
   36.5650   23.4180   31.8780 N   0  0  0  0  0  0  0  0  0  0  0  0
   35.7740   24.1150   31.0370 C   0  0  0  0  0  0  0  0  0  0  0  0
   35.6670   25.5020   31.1340 C   0  0  0  0  0  0  0  0  0  0  0  0
   36.4090   26.1520   32.1360 C   0  0  0  0  0  0  0  0  0  0  0  0
   36.3560   27.3800   32.2710 O   0  0  0  0  0  0  0  0  0  0  0  0
   37.2010   25.4290   32.9750 N   0  0  0  0  0  0  0  0  0  0  0  0
   37.2370   24.0970   32.8020 C   0  0  0  0  0  0  0  0  0  0  0  0
   37.9820   23.4600   33.6020 O   0  0  0  0  0  0  0  0  0  0  0  0
   38.8060   19.3780   32.2100 H   0  0  0  0  0  0  0  0  0  0  0  0
   38.7810   21.7710   32.4220 H   0  0  0  0  0  0  0  0  0  0  0  0
   34.7870   19.4620   30.9060 H   0  0  0  0  0  0  0  0  0  0  0  0
   35.2370   23.5410   30.2940 H   0  0  0  0  0  0  0  0  0  0  0  0
   35.0300   26.0480   30.4550 H   0  0  0  0  0  0  0  0  0  0  0  0
   37.9400   26.1140   33.9800 C   0  0  0  0  0  0  0  0  0  0  0  0
   37.6090   26.5570   35.2450 C   0  0  0  0  0  0  0  0  0  0  0  0
   36.6300   26.4150   35.6660 H   0  0  0  0  0  0  0  0  0  0  0  0
   38.7060   27.1760   35.8250 C   0  0  0  0  0  0  0  0  0  0  0  0
   38.7700   27.6250   36.8010 H   0  0  0  0  0  0  0  0  0  0  0  0
   39.6840   27.0690   34.8350 C   0  0  0  0  0  0  0  0  0  0  0  0
   40.6850   27.4750   35.0000 H   0  0  0  0  0  0  0  0  0  0  0  0
   39.2010   26.4550   33.7970 O   0  0  0  0  0  0  0  0  0  0  0  0
  1  2  1  0  0  0  0
  1 15  1  0  0  0  0
  2 16  1  0  0  0  0
  3  7  1  0  0  0  0
  3  2  2  0  0  0  0
  4  3  1  0  0  0  0
  5  4  2  0  0  0  0
  5  6  1  0  0  0  0
  6  1  2  0  0  0  0
  7 13  1  0  0  0  0
  8  9  2  0  0  0  0
  8  7  1  0  0  0  0
  9 10  1  0  0  0  0
 10 11  2  0  0  0  0
 10 12  1  0  0  0  0
 12 20  1  0  0  0  0
 13 12  1  0  0  0  0
 13 14  2  0  0  0  0
 17  5  1  0  0  0  0
 18  8  1  0  0  0  0
 19  9  1  0  0  0  0
 20 21  2  0  0  0  0
 21 22  1  0  0  0  0
 21 23  1  0  0  0  0
 23 24  1  0  0  0  0
 25 26  1  0  0  0  0
 25 23  2  0  0  0  0
 27 20  1  0  0  0  0
 27 25  1  0  0  0  0
M  END
>  <minimizedAffinity>
-4.93876076

$$$$

 OpenBabel03272505243D

 27 29  0  0  0  0  0  0  0  0999 V2000
   37.5280   25.1540   33.2180 C   0  0  0  0  0  0  0  0  0  0  0  0
   37.1820   26.5210   33.2800 C   0  0  0  0  0  0  0  0  0  0  0  0
   36.4970   27.1140   32.2380 C   0  0  0  0  0  0  0  0  0  0  0  0
   36.1870   26.3260   31.1850 N   0  0  0  0  0  0  0  0  0  0  0  0
   36.5050   25.0220   31.1020 C   0  0  0  0  0  0  0  0  0  0  0  0
   37.1760   24.4350   32.1210 N   0  0  0  0  0  0  0  0  0  0  0  0
   36.1300   28.4760   32.2570 N   0  0  0  0  0  0  0  0  0  0  0  0
   36.0740   29.2060   31.1240 C   0  0  0  0  0  0  0  0  0  0  0  0
   35.7220   30.5560   31.1550 C   0  0  0  0  0  0  0  0  0  0  0  0
   35.4300   31.1320   32.4030 C   0  0  0  0  0  0  0  0  0  0  0  0
   35.1130   32.3250   32.4940 O   0  0  0  0  0  0  0  0  0  0  0  0
   35.4930   30.3770   33.5350 N   0  0  0  0  0  0  0  0  0  0  0  0
   35.8400   29.0860   33.4020 C   0  0  0  0  0  0  0  0  0  0  0  0
   35.8860   28.4170   34.4750 O   0  0  0  0  0  0  0  0  0  0  0  0
   38.0520   24.6310   33.9800 H   0  0  0  0  0  0  0  0  0  0  0  0
   37.5250   26.9660   34.1790 H   0  0  0  0  0  0  0  0  0  0  0  0
   36.1830   24.5420   30.1910 H   0  0  0  0  0  0  0  0  0  0  0  0
   36.3130   28.6880   30.2060 H   0  0  0  0  0  0  0  0  0  0  0  0
   35.6800   31.1280   30.2410 H   0  0  0  0  0  0  0  0  0  0  0  0
   35.1900   30.9890   34.7840 C   0  0  0  0  0  0  0  0  0  0  0  0
   35.9720   31.6260   35.7260 C   0  0  0  0  0  0  0  0  0  0  0  0
   37.0340   31.7460   35.6050 H   0  0  0  0  0  0  0  0  0  0  0  0
   35.1790   32.0500   36.7820 C   0  0  0  0  0  0  0  0  0  0  0  0
   35.4890   32.5750   37.6690 H   0  0  0  0  0  0  0  0  0  0  0  0
   33.9050   31.6270   36.4040 C   0  0  0  0  0  0  0  0  0  0  0  0
   33.0440   31.8200   37.0480 H   0  0  0  0  0  0  0  0  0  0  0  0
   33.9580   31.0250   35.2540 O   0  0  0  0  0  0  0  0  0  0  0  0
  1  2  1  0  0  0  0
  1 15  1  0  0  0  0
  2 16  1  0  0  0  0
  3  7  1  0  0  0  0
  3  2  2  0  0  0  0
  4  3  1  0  0  0  0
  5  4  2  0  0  0  0
  5  6  1  0  0  0  0
  6  1  2  0  0  0  0
  7 13  1  0  0  0  0
  8  9  2  0  0  0  0
  8  7  1  0  0  0  0
  9 10  1  0  0  0  0
 10 11  2  0  0  0  0
 10 12  1  0  0  0  0
 12 20  1  0  0  0  0
 13 12  1  0  0  0  0
 13 14  2  0  0  0  0
 17  5  1  0  0  0  0
 18  8  1  0  0  0  0
 19  9  1  0  0  0  0
 20 27  1  0  0  0  0
 20 21  2  0  0  0  0
 21 23  1  0  0  0  0
 22 21  1  0  0  0  0
 23 24  1  0  0  0  0
 25 23  2  0  0  0  0
 25 26  1  0  0  0  0
 27 25  1  0  0  0  0
M  END
>  <minimizedAffinity>
-4.87504673

$$$$

 OpenBabel03272505243D

 27 29  0  0  0  0  0  0  0  0999 V2000
   37.7780   23.4570   38.2190 C   0  0  0  0  0  0  0  0  0  0  0  0
   37.6560   23.0530   36.8710 C   0  0  0  0  0  0  0  0  0  0  0  0
   38.7700   22.6450   36.1640 C   0  0  0  0  0  0  0  0  0  0  0  0
   39.9490   22.6560   36.8230 N   0  0  0  0  0  0  0  0  0  0  0  0
   40.0910   23.0360   38.1060 C   0  0  0  0  0  0  0  0  0  0  0  0
   39.0030   23.4370   38.8040 N   0  0  0  0  0  0  0  0  0  0  0  0
   38.6960   22.2330   34.8170 N   0  0  0  0  0  0  0  0  0  0  0  0
   39.7130   22.4480   33.9570 C   0  0  0  0  0  0  0  0  0  0  0  0
   39.6250   22.0480   32.6240 C   0  0  0  0  0  0  0  0  0  0  0  0
   38.4440   21.4130   32.2030 C   0  0  0  0  0  0  0  0  0  0  0  0
   38.3060   21.0370   31.0320 O   0  0  0  0  0  0  0  0  0  0  0  0
   37.4290   21.2050   33.0870 N   0  0  0  0  0  0  0  0  0  0  0  0
   37.6090   21.6260   34.3500 C   0  0  0  0  0  0  0  0  0  0  0  0
   36.6450   21.4130   35.1410 O   0  0  0  0  0  0  0  0  0  0  0  0
   36.9670   23.7820   38.8250 H   0  0  0  0  0  0  0  0  0  0  0  0
   36.6540   23.1290   36.5340 H   0  0  0  0  0  0  0  0  0  0  0  0
   41.1020   22.9850   38.4760 H   0  0  0  0  0  0  0  0  0  0  0  0
   40.5860   22.9430   34.3600 H   0  0  0  0  0  0  0  0  0  0  0  0
   40.4460   22.2260   31.9470 H   0  0  0  0  0  0  0  0  0  0  0  0
   36.2450   20.5590   32.6310 C   0  0  0  0  0  0  0  0  0  0  0  0
   35.0570   21.0390   32.1190 C   0  0  0  0  0  0  0  0  0  0  0  0
   34.8690   22.0900   31.9920 H   0  0  0  0  0  0  0  0  0  0  0  0
   34.2130   19.9790   31.8230 C   0  0  0  0  0  0  0  0  0  0  0  0
   33.2190   20.0220   31.4130 H   0  0  0  0  0  0  0  0  0  0  0  0
   34.9710   18.8660   32.1880 C   0  0  0  0  0  0  0  0  0  0  0  0
   34.5670   17.8580   32.0710 H   0  0  0  0  0  0  0  0  0  0  0  0
   36.1270   19.2450   32.6450 O   0  0  0  0  0  0  0  0  0  0  0  0
  1  6  1  0  0  0  0
  1 15  1  0  0  0  0
  2  1  2  0  0  0  0
  3  4  2  0  0  0  0
  3  2  1  0  0  0  0
  4  5  1  0  0  0  0
  5 17  1  0  0  0  0
  5  6  2  0  0  0  0
  7  3  1  0  0  0  0
  8 18  1  0  0  0  0
  8  7  1  0  0  0  0
  9  8  2  0  0  0  0
 10  9  1  0  0  0  0
 10 12  1  0  0  0  0
 11 10  2  0  0  0  0
 12 13  1  0  0  0  0
 13  7  1  0  0  0  0
 13 14  2  0  0  0  0
 16  2  1  0  0  0  0
 19  9  1  0  0  0  0
 20 27  1  0  0  0  0
 20 12  1  0  0  0  0
 21 20  2  0  0  0  0
 22 21  1  0  0  0  0
 23 21  1  0  0  0  0
 23 25  2  0  0  0  0
 24 23  1  0  0  0  0
 25 27  1  0  0  0  0
 26 25  1  0  0  0  0
M  END
>  <minimizedAffinity>
-4.8053503

$$$$

 OpenBabel03272505243D

 27 29  0  0  0  0  0  0  0  0999 V2000
   35.5480   24.1100   31.1700 C   0  0  0  0  0  0  0  0  0  0  0  0
   36.7410   24.1840   31.9220 C   0  0  0  0  0  0  0  0  0  0  0  0
   37.2550   25.4100   32.2910 C   0  0  0  0  0  0  0  0  0  0  0  0
   36.5660   26.5040   31.8980 N   0  0  0  0  0  0  0  0  0  0  0  0
   35.4280   26.4600   31.1820 C   0  0  0  0  0  0  0  0  0  0  0  0
   34.9190   25.2600   30.8170 N   0  0  0  0  0  0  0  0  0  0  0  0
   38.4430   25.5320   33.0420 N   0  0  0  0  0  0  0  0  0  0  0  0
   39.2770   26.5790   32.8750 C   0  0  0  0  0  0  0  0  0  0  0  0
   40.4560   26.6840   33.6150 C   0  0  0  0  0  0  0  0  0  0  0  0
   40.7470   25.6660   34.5390 C   0  0  0  0  0  0  0  0  0  0  0  0
   41.7780   25.7030   35.2220 O   0  0  0  0  0  0  0  0  0  0  0  0
   39.8910   24.6180   34.6920 N   0  0  0  0  0  0  0  0  0  0  0  0
   38.7810   24.6070   33.9340 C   0  0  0  0  0  0  0  0  0  0  0  0
   38.0100   23.6190   34.1060 O   0  0  0  0  0  0  0  0  0  0  0  0
   35.0930   23.2030   30.8510 H   0  0  0  0  0  0  0  0  0  0  0  0
   37.1340   23.2190   32.1170 H   0  0  0  0  0  0  0  0  0  0  0  0
   35.0090   27.4270   30.9520 H   0  0  0  0  0  0  0  0  0  0  0  0
   38.9810   27.3190   32.1450 H   0  0  0  0  0  0  0  0  0  0  0  0
   41.1140   27.5270   33.4720 H   0  0  0  0  0  0  0  0  0  0  0  0
   40.2130   23.6020   35.6350 C   0  0  0  0  0  0  0  0  0  0  0  0
   41.0370   22.4970   35.5730 C   0  0  0  0  0  0  0  0  0  0  0  0
   41.5980   22.2470   34.6910 H   0  0  0  0  0  0  0  0  0  0  0  0
   41.0000   21.8190   36.7820 C   0  0  0  0  0  0  0  0  0  0  0  0
   41.5300   20.9210   37.0510 H   0  0  0  0  0  0  0  0  0  0  0  0
   40.1180   22.5860   37.5440 C   0  0  0  0  0  0  0  0  0  0  0  0
   39.8790   22.2990   38.5710 H   0  0  0  0  0  0  0  0  0  0  0  0
   39.6920   23.5960   36.8470 O   0  0  0  0  0  0  0  0  0  0  0  0
  1  2  1  0  0  0  0
  2 16  1  0  0  0  0
  2  3  2  0  0  0  0
  3  7  1  0  0  0  0
  4  3  1  0  0  0  0
  5  4  2  0  0  0  0
  6  1  2  0  0  0  0
  6  5  1  0  0  0  0
  7 13  1  0  0  0  0
  8  7  1  0  0  0  0
  8  9  2  0  0  0  0
  9 10  1  0  0  0  0
 10 12  1  0  0  0  0
 10 11  2  0  0  0  0
 12 20  1  0  0  0  0
 13 14  2  0  0  0  0
 13 12  1  0  0  0  0
 15  1  1  0  0  0  0
 17  5  1  0  0  0  0
 18  8  1  0  0  0  0
 19  9  1  0  0  0  0
 20 27  1  0  0  0  0
 21 20  2  0  0  0  0
 21 23  1  0  0  0  0
 22 21  1  0  0  0  0
 23 24  1  0  0  0  0
 23 25  2  0  0  0  0
 25 26  1  0  0  0  0
 27 25  1  0  0  0  0
M  END
>  <minimizedAffinity>
-4.76352692

$$$$

 OpenBabel03272505243D

 27 29  0  0  0  0  0  0  0  0999 V2000
   36.4510   28.7770   32.5540 C   0  0  0  0  0  0  0  0  0  0  0  0
   36.6490   27.4800   33.0770 C   0  0  0  0  0  0  0  0  0  0  0  0
   37.1420   26.4730   32.2720 C   0  0  0  0  0  0  0  0  0  0  0  0
   37.4140   26.7960   30.9880 N   0  0  0  0  0  0  0  0  0  0  0  0
   37.2340   28.0220   30.4670 C   0  0  0  0  0  0  0  0  0  0  0  0
   36.7520   29.0140   31.2520 N   0  0  0  0  0  0  0  0  0  0  0  0
   37.3560   25.1630   32.7510 N   0  0  0  0  0  0  0  0  0  0  0  0
   37.2030   24.0870   31.9530 C   0  0  0  0  0  0  0  0  0  0  0  0
   37.4060   22.7960   32.4400 C   0  0  0  0  0  0  0  0  0  0  0  0
   37.7740   22.6500   33.7880 C   0  0  0  0  0  0  0  0  0  0  0  0
   37.9650   21.5300   34.2780 O   0  0  0  0  0  0  0  0  0  0  0  0
   37.9230   23.7500   34.5780 N   0  0  0  0  0  0  0  0  0  0  0  0
   37.7060   24.9510   34.0160 C   0  0  0  0  0  0  0  0  0  0  0  0
   37.8570   25.9480   34.7800 O   0  0  0  0  0  0  0  0  0  0  0  0
   36.0770   29.6000   33.1130 H   0  0  0  0  0  0  0  0  0  0  0  0
   36.3640   27.4270   34.0960 H   0  0  0  0  0  0  0  0  0  0  0  0
   37.5010   28.1070   29.4250 H   0  0  0  0  0  0  0  0  0  0  0  0
   36.9190   24.2840   30.9280 H   0  0  0  0  0  0  0  0  0  0  0  0
   37.2800   21.9430   31.7900 H   0  0  0  0  0  0  0  0  0  0  0  0
   38.2970   23.5710   35.9390 C   0  0  0  0  0  0  0  0  0  0  0  0
   39.5170   23.3840   36.5560 C   0  0  0  0  0  0  0  0  0  0  0  0
   40.4400   23.3480   36.0060 H   0  0  0  0  0  0  0  0  0  0  0  0
   39.3340   23.2600   37.9250 C   0  0  0  0  0  0  0  0  0  0  0  0
   40.0870   23.1060   38.6790 H   0  0  0  0  0  0  0  0  0  0  0  0
   37.9520   23.3840   38.0680 C   0  0  0  0  0  0  0  0  0  0  0  0
   37.4900   23.3280   39.0560 H   0  0  0  0  0  0  0  0  0  0  0  0
   37.3990   23.5610   36.9050 O   0  0  0  0  0  0  0  0  0  0  0  0
  1  2  1  0  0  0  0
  1 15  1  0  0  0  0
  2 16  1  0  0  0  0
  3  7  1  0  0  0  0
  3  2  2  0  0  0  0
  4  3  1  0  0  0  0
  5  4  2  0  0  0  0
  5  6  1  0  0  0  0
  6  1  2  0  0  0  0
  7 13  1  0  0  0  0
  8  9  2  0  0  0  0
  8  7  1  0  0  0  0
  9 10  1  0  0  0  0
 10 11  2  0  0  0  0
 10 12  1  0  0  0  0
 12 20  1  0  0  0  0
 13 12  1  0  0  0  0
 13 14  2  0  0  0  0
 17  5  1  0  0  0  0
 18  8  1  0  0  0  0
 19  9  1  0  0  0  0
 20 21  2  0  0  0  0
 20 27  1  0  0  0  0
 21 23  1  0  0  0  0
 22 21  1  0  0  0  0
 23 25  2  0  0  0  0
 23 24  1  0  0  0  0
 25 26  1  0  0  0  0
 27 25  1  0  0  0  0
M  END
>  <minimizedAffinity>
-4.71117115

$$$$

 OpenBabel03272505243D

 27 29  0  0  0  0  0  0  0  0999 V2000
   32.2570   30.3500   32.7040 C   0  0  0  0  0  0  0  0  0  0  0  0
   33.4340   29.5710   32.7420 C   0  0  0  0  0  0  0  0  0  0  0  0
   34.5190   29.9120   31.9590 C   0  0  0  0  0  0  0  0  0  0  0  0
   34.3880   31.0050   31.1760 N   0  0  0  0  0  0  0  0  0  0  0  0
   33.2780   31.7630   31.1230 C   0  0  0  0  0  0  0  0  0  0  0  0
   32.2110   31.4340   31.8890 N   0  0  0  0  0  0  0  0  0  0  0  0
   35.7150   29.1630   31.9640 N   0  0  0  0  0  0  0  0  0  0  0  0
   36.4760   29.0430   30.8570 C   0  0  0  0  0  0  0  0  0  0  0  0
   37.6500   28.2910   30.8700 C   0  0  0  0  0  0  0  0  0  0  0  0
   38.0170   27.6600   32.0710 C   0  0  0  0  0  0  0  0  0  0  0  0
   39.0460   26.9780   32.1440 O   0  0  0  0  0  0  0  0  0  0  0  0
   37.2340   27.7940   33.1780 N   0  0  0  0  0  0  0  0  0  0  0  0
   36.1220   28.5400   33.0660 C   0  0  0  0  0  0  0  0  0  0  0  0
   35.4230   28.6430   34.1150 O   0  0  0  0  0  0  0  0  0  0  0  0
   31.3850   30.1500   33.2780 H   0  0  0  0  0  0  0  0  0  0  0  0
   33.3330   28.7510   33.4050 H   0  0  0  0  0  0  0  0  0  0  0  0
   33.3420   32.5990   30.4450 H   0  0  0  0  0  0  0  0  0  0  0  0
   36.1250   29.5590   29.9740 H   0  0  0  0  0  0  0  0  0  0  0  0
   38.2500   28.2040   29.9770 H   0  0  0  0  0  0  0  0  0  0  0  0
   37.6310   27.1450   34.3800 C   0  0  0  0  0  0  0  0  0  0  0  0
   38.3480   27.5710   35.4800 C   0  0  0  0  0  0  0  0  0  0  0  0
   38.7370   28.5700   35.5600 H   0  0  0  0  0  0  0  0  0  0  0  0
   38.4620   26.5340   36.3940 C   0  0  0  0  0  0  0  0  0  0  0  0
   38.9610   26.5490   37.3480 H   0  0  0  0  0  0  0  0  0  0  0  0
   37.7760   25.4920   35.7700 C   0  0  0  0  0  0  0  0  0  0  0  0
   37.6900   24.5170   36.2560 H   0  0  0  0  0  0  0  0  0  0  0  0
   37.3180   25.8860   34.6200 O   0  0  0  0  0  0  0  0  0  0  0  0
  1  2  1  0  0  0  0
  1 15  1  0  0  0  0
  2 16  1  0  0  0  0
  3  7  1  0  0  0  0
  3  2  2  0  0  0  0
  4  3  1  0  0  0  0
  5  4  2  0  0  0  0
  5  6  1  0  0  0  0
  6  1  2  0  0  0  0
  7 13  1  0  0  0  0
  8  9  2  0  0  0  0
  8  7  1  0  0  0  0
  9 10  1  0  0  0  0
 10 11  2  0  0  0  0
 10 12  1  0  0  0  0
 12 20  1  0  0  0  0
 13 12  1  0  0  0  0
 13 14  2  0  0  0  0
 17  5  1  0  0  0  0
 18  8  1  0  0  0  0
 19  9  1  0  0  0  0
 20 27  1  0  0  0  0
 20 21  2  0  0  0  0
 21 22  1  0  0  0  0
 21 23  1  0  0  0  0
 23 24  1  0  0  0  0
 25 26  1  0  0  0  0
 25 23  2  0  0  0  0
 27 25  1  0  0  0  0
M  END
>  <minimizedAffinity>
-4.69940329

$$$$

 OpenBabel03272505243D

 27 29  0  0  0  0  0  0  0  0999 V2000
   35.6400   30.0520   34.4700 C   0  0  0  0  0  0  0  0  0  0  0  0
   36.0150   28.6960   34.3460 C   0  0  0  0  0  0  0  0  0  0  0  0
   36.3320   28.1720   33.1090 C   0  0  0  0  0  0  0  0  0  0  0  0
   36.2630   29.0130   32.0540 N   0  0  0  0  0  0  0  0  0  0  0  0
   35.9090   30.3080   32.1460 C   0  0  0  0  0  0  0  0  0  0  0  0
   35.5970   30.8270   33.3560 N   0  0  0  0  0  0  0  0  0  0  0  0
   36.7120   26.8240   32.9380 N   0  0  0  0  0  0  0  0  0  0  0  0
   36.4090   26.1440   31.8130 C   0  0  0  0  0  0  0  0  0  0  0  0
   36.7780   24.8080   31.6590 C   0  0  0  0  0  0  0  0  0  0  0  0
   37.4770   24.1910   32.7110 C   0  0  0  0  0  0  0  0  0  0  0  0
   37.8300   23.0080   32.6330 O   0  0  0  0  0  0  0  0  0  0  0  0
   37.7730   24.8960   33.8380 N   0  0  0  0  0  0  0  0  0  0  0  0
   37.3750   26.1780   33.8920 C   0  0  0  0  0  0  0  0  0  0  0  0
   37.6700   26.8000   34.9530 O   0  0  0  0  0  0  0  0  0  0  0  0
   35.3840   30.5240   35.3880 H   0  0  0  0  0  0  0  0  0  0  0  0
   35.9950   28.2030   35.2840 H   0  0  0  0  0  0  0  0  0  0  0  0
   35.9040   30.8360   31.2060 H   0  0  0  0  0  0  0  0  0  0  0  0
   35.8710   26.6910   31.0510 H   0  0  0  0  0  0  0  0  0  0  0  0
   36.5300   24.2760   30.7530 H   0  0  0  0  0  0  0  0  0  0  0  0
   38.4810   24.2450   34.8870 C   0  0  0  0  0  0  0  0  0  0  0  0
   39.8270   24.0960   35.1540 C   0  0  0  0  0  0  0  0  0  0  0  0
   40.5890   24.5080   34.5160 H   0  0  0  0  0  0  0  0  0  0  0  0
   39.9940   23.3630   36.3190 C   0  0  0  0  0  0  0  0  0  0  0  0
   40.9190   23.0780   36.7910 H   0  0  0  0  0  0  0  0  0  0  0  0
   38.6820   23.0980   36.7120 C   0  0  0  0  0  0  0  0  0  0  0  0
   38.4810   22.5230   37.6190 H   0  0  0  0  0  0  0  0  0  0  0  0
   37.8490   23.6210   35.8630 O   0  0  0  0  0  0  0  0  0  0  0  0
  1 15  1  0  0  0  0
  2  1  1  0  0  0  0
  2 16  1  0  0  0  0
  3  2  2  0  0  0  0
  4  5  2  0  0  0  0
  4  3  1  0  0  0  0
  5  6  1  0  0  0  0
  6  1  2  0  0  0  0
  7  3  1  0  0  0  0
  7 13  1  0  0  0  0
  8  7  1  0  0  0  0
  9  8  2  0  0  0  0
  9 10  1  0  0  0  0
 10 12  1  0  0  0  0
 11 10  2  0  0  0  0
 12 13  1  0  0  0  0
 12 20  1  0  0  0  0
 13 14  2  0  0  0  0
 17  5  1  0  0  0  0
 18  8  1  0  0  0  0
 19  9  1  0  0  0  0
 20 21  2  0  0  0  0
 20 27  1  0  0  0  0
 21 23  1  0  0  0  0
 22 21  1  0  0  0  0
 23 25  2  0  0  0  0
 23 24  1  0  0  0  0
 25 26  1  0  0  0  0
 27 25  1  0  0  0  0
M  END
>  <minimizedAffinity>
-4.66358328

$$$$

 OpenBabel03272505243D

 27 29  0  0  0  0  0  0  0  0999 V2000
   37.9090   24.0480   38.0120 C   0  0  0  0  0  0  0  0  0  0  0  0
   38.1630   24.8260   36.8610 C   0  0  0  0  0  0  0  0  0  0  0  0
   39.2530   24.5470   36.0600 C   0  0  0  0  0  0  0  0  0  0  0  0
   40.0390   23.5140   36.4370 N   0  0  0  0  0  0  0  0  0  0  0  0
   39.8170   22.7590   37.5280 C   0  0  0  0  0  0  0  0  0  0  0  0
   38.7500   23.0270   38.3170 N   0  0  0  0  0  0  0  0  0  0  0  0
   39.5460   25.2960   34.9020 N   0  0  0  0  0  0  0  0  0  0  0  0
   40.8160   25.5000   34.4970 C   0  0  0  0  0  0  0  0  0  0  0  0
   41.0960   26.2530   33.3560 C   0  0  0  0  0  0  0  0  0  0  0  0
   40.0130   26.7930   32.6410 C   0  0  0  0  0  0  0  0  0  0  0  0
   40.1980   27.4700   31.6230 O   0  0  0  0  0  0  0  0  0  0  0  0
   38.7380   26.5750   33.0670 N   0  0  0  0  0  0  0  0  0  0  0  0
   38.5710   25.8360   34.1770 C   0  0  0  0  0  0  0  0  0  0  0  0
   37.3730   25.6540   34.5390 O   0  0  0  0  0  0  0  0  0  0  0  0
   37.0910   24.2030   38.6740 H   0  0  0  0  0  0  0  0  0  0  0  0
   37.4430   25.5940   36.7470 H   0  0  0  0  0  0  0  0  0  0  0  0
   40.5430   21.9760   37.6820 H   0  0  0  0  0  0  0  0  0  0  0  0
   41.5920   25.0500   35.1010 H   0  0  0  0  0  0  0  0  0  0  0  0
   42.1170   26.4070   33.0430 H   0  0  0  0  0  0  0  0  0  0  0  0
   37.6620   27.1350   32.3220 C   0  0  0  0  0  0  0  0  0  0  0  0
   36.9850   28.3340   32.4160 C   0  0  0  0  0  0  0  0  0  0  0  0
   37.2250   29.0730   33.1590 H   0  0  0  0  0  0  0  0  0  0  0  0
   36.0040   28.3940   31.4380 C   0  0  0  0  0  0  0  0  0  0  0  0
   35.3090   29.1940   31.2490 H   0  0  0  0  0  0  0  0  0  0  0  0
   36.1480   27.1740   30.7760 C   0  0  0  0  0  0  0  0  0  0  0  0
   35.4990   26.9210   29.9340 H   0  0  0  0  0  0  0  0  0  0  0  0
   37.1090   26.4860   31.3160 O   0  0  0  0  0  0  0  0  0  0  0  0
  1  6  1  0  0  0  0
  1 15  1  0  0  0  0
  2  1  2  0  0  0  0
  3  4  2  0  0  0  0
  3  2  1  0  0  0  0
  4  5  1  0  0  0  0
  5 17  1  0  0  0  0
  5  6  2  0  0  0  0
  7  3  1  0  0  0  0
  8  7  1  0  0  0  0
  8 18  1  0  0  0  0
  9  8  2  0  0  0  0
 10 12  1  0  0  0  0
 10  9  1  0  0  0  0
 11 10  2  0  0  0  0
 12 13  1  0  0  0  0
 13 14  2  0  0  0  0
 13  7  1  0  0  0  0
 16  2  1  0  0  0  0
 19  9  1  0  0  0  0
 20 21  2  0  0  0  0
 20 12  1  0  0  0  0
 21 22  1  0  0  0  0
 23 21  1  0  0  0  0
 24 23  1  0  0  0  0
 25 27  1  0  0  0  0
 25 23  2  0  0  0  0
 26 25  1  0  0  0  0
 27 20  1  0  0  0  0
M  END
>  <minimizedAffinity>
-4.66288614

$$$$

 OpenBabel03272505243D

 27 29  0  0  0  0  0  0  0  0999 V2000
   38.9570   27.3860   32.0770 C   0  0  0  0  0  0  0  0  0  0  0  0
   39.3080   26.5700   33.1750 C   0  0  0  0  0  0  0  0  0  0  0  0
   38.3260   25.9450   33.9180 C   0  0  0  0  0  0  0  0  0  0  0  0
   37.0470   26.1580   33.5410 N   0  0  0  0  0  0  0  0  0  0  0  0
   36.6880   26.9300   32.4990 C   0  0  0  0  0  0  0  0  0  0  0  0
   37.6450   27.5450   31.7670 N   0  0  0  0  0  0  0  0  0  0  0  0
   38.6300   25.1220   35.0230 N   0  0  0  0  0  0  0  0  0  0  0  0
   37.8050   25.0390   36.0870 C   0  0  0  0  0  0  0  0  0  0  0  0
   38.1200   24.2310   37.1800 C   0  0  0  0  0  0  0  0  0  0  0  0
   39.3230   23.5050   37.1380 C   0  0  0  0  0  0  0  0  0  0  0  0
   39.6570   22.7730   38.0770 O   0  0  0  0  0  0  0  0  0  0  0  0
   40.1410   23.6030   36.0530 N   0  0  0  0  0  0  0  0  0  0  0  0
   39.7500   24.4070   35.0510 C   0  0  0  0  0  0  0  0  0  0  0  0
   40.5350   24.4700   34.0600 O   0  0  0  0  0  0  0  0  0  0  0  0
   39.6560   27.8970   31.4600 H   0  0  0  0  0  0  0  0  0  0  0  0
   40.3580   26.5430   33.3160 H   0  0  0  0  0  0  0  0  0  0  0  0
   35.6230   26.9920   32.3370 H   0  0  0  0  0  0  0  0  0  0  0  0
   36.9000   25.6290   36.0420 H   0  0  0  0  0  0  0  0  0  0  0  0
   37.4520   24.1740   38.0250 H   0  0  0  0  0  0  0  0  0  0  0  0
   41.3520   22.8560   36.0390 C   0  0  0  0  0  0  0  0  0  0  0  0
   42.6330   23.1430   36.4670 C   0  0  0  0  0  0  0  0  0  0  0  0
   42.8910   24.0860   36.9150 H   0  0  0  0  0  0  0  0  0  0  0  0
   43.4620   22.0590   36.2230 C   0  0  0  0  0  0  0  0  0  0  0  0
   44.5120   21.9700   36.4400 H   0  0  0  0  0  0  0  0  0  0  0  0
   42.5990   21.1330   35.6350 C   0  0  0  0  0  0  0  0  0  0  0  0
   42.9680   20.1530   35.3220 H   0  0  0  0  0  0  0  0  0  0  0  0
   41.4020   21.6310   35.5500 O   0  0  0  0  0  0  0  0  0  0  0  0
  1  2  1  0  0  0  0
  2 16  1  0  0  0  0
  2  3  2  0  0  0  0
  3  7  1  0  0  0  0
  4  3  1  0  0  0  0
  5  4  2  0  0  0  0
  6  1  2  0  0  0  0
  6  5  1  0  0  0  0
  7 13  1  0  0  0  0
  7  8  1  0  0  0  0
  8  9  2  0  0  0  0
  9 19  1  0  0  0  0
 10  9  1  0  0  0  0
 10 11  2  0  0  0  0
 12 10  1  0  0  0  0
 13 12  1  0  0  0  0
 14 13  2  0  0  0  0
 15  1  1  0  0  0  0
 17  5  1  0  0  0  0
 18  8  1  0  0  0  0
 20 12  1  0  0  0  0
 20 21  2  0  0  0  0
 21 22  1  0  0  0  0
 23 24  1  0  0  0  0
 23 21  1  0  0  0  0
 25 23  2  0  0  0  0
 26 25  1  0  0  0  0
 27 25  1  0  0  0  0
 27 20  1  0  0  0  0
M  END
>  <minimizedAffinity>
-4.61341858

$$$$
