
     RDKit          3D

 19 20  0  0  0  0  0  0  0  0999 V2000
   37.2614   30.1826   51.4220 C   0  0  0  0  0  0  0  0  0  0  0  0
   38.0848   30.7504   50.4447 C   0  0  0  0  0  0  0  0  0  0  0  0
   37.8109   30.4971   49.1043 C   0  0  0  0  0  0  0  0  0  0  0  0
   36.7476   29.7042   48.8276 N   0  0  0  0  0  0  0  0  0  0  0  0
   35.9641   29.1650   49.7869 C   0  0  0  0  0  0  0  0  0  0  0  0
   36.2231   29.4059   51.0855 N   0  0  0  0  0  0  0  0  0  0  0  0
   34.8202   28.3117   49.4798 C   0  0  0  0  0  0  0  0  0  0  0  0
   33.6378   28.7160   49.5681 O   0  0  0  0  0  0  0  0  0  0  0  0
   37.4641   30.3727   52.4830 H   0  0  0  0  0  0  0  0  0  0  0  0
   38.9289   31.3816   50.7103 H   0  0  0  0  0  0  0  0  0  0  0  0
   38.4011   30.8998   48.2937 H   0  0  0  0  0  0  0  0  0  0  0  0
   35.0376   26.9240   49.0493 C   0  0  0  0  0  0  0  0  0  0  0  0
   35.1163   25.8472   49.9134 C   0  0  0  0  0  0  0  0  0  0  0  0
   35.0325   25.8715   50.9858 H   0  0  0  0  0  0  0  0  0  0  0  0
   35.3251   24.7701   49.0447 C   0  0  0  0  0  0  0  0  0  0  0  0
   35.4363   23.7478   49.3792 H   0  0  0  0  0  0  0  0  0  0  0  0
   35.3614   25.2312   47.7442 C   0  0  0  0  0  0  0  0  0  0  0  0
   35.5070   24.6544   46.8302 H   0  0  0  0  0  0  0  0  0  0  0  0
   35.1852   26.5281   47.7869 O   0  0  0  0  0  0  0  0  0  0  0  0
  2  1  2  0
  3  2  1  0
  4  3  2  0
  4  5  1  0
  5  6  2  0
  6  1  1  0
  7  8  2  0
  7  5  1  0
  1  9  1  0
  2 10  1  0
  3 11  1  0
 12 13  2  0
 13 14  1  0
 13 15  1  0
 15 16  1  0
 15 17  2  0
 17 18  1  0
 17 19  1  0
 19 12  1  0
  7 12  1  0
M  ISO  6   9  14  10  14  11  14  14  16  16  16  18  14
M  END
>  <DihAtoms>  (1) 
7,6,11,12

>  <DihDeg>  (1) 
-0.005331665576935868

$$$$
