
 OpenBabel03272505493D

 39 43  0  0  0  0  0  0  0  0999 V2000
   36.3780   30.4060   45.9610 C   0  0  0  0  0  0  0  0  0  0  0  0
   36.9090   30.7580   47.1490 C   0  0  0  0  0  0  0  0  0  0  0  0
   36.2070   30.5390   48.3240 C   0  0  0  0  0  0  0  0  0  0  0  0
   34.9480   29.9490   48.2390 C   0  0  0  0  0  0  0  0  0  0  0  0
   34.4030   29.5860   46.9970 C   0  0  0  0  0  0  0  0  0  0  0  0
   35.1480   29.8320   45.8990 N   0  0  0  0  0  0  0  0  0  0  0  0
   37.8890   31.2180   47.2370 H   0  0  0  0  0  0  0  0  0  0  0  0
   36.5570   30.7880   49.3060 H   0  0  0  0  0  0  0  0  0  0  0  0
   34.3300   29.7410   49.1060 H   0  0  0  0  0  0  0  0  0  0  0  0
   37.1350   30.6420   44.6760 C   0  0  0  0  0  0  0  0  0  0  0  0
   36.9330   29.6810   43.5550 C   0  0  0  0  0  0  0  0  0  0  0  0
   36.3460   31.0560   43.4710 C   0  0  0  0  0  0  0  0  0  0  0  0
   36.2280   28.8450   43.7770 H   0  0  0  0  0  0  0  0  0  0  0  0
   37.7940   29.3830   42.9580 H   0  0  0  0  0  0  0  0  0  0  0  0
   36.8680   31.7280   42.7610 H   0  0  0  0  0  0  0  0  0  0  0  0
   35.2380   31.1130   43.5120 H   0  0  0  0  0  0  0  0  0  0  0  0
   39.6830   33.2810   45.0790 C   0  0  0  0  0  0  0  0  0  0  0  0
   40.8500   32.5300   45.3430 C   0  0  0  0  0  0  0  0  0  0  0  0
   40.7540   31.1110   45.3810 C   0  0  0  0  0  0  0  0  0  0  0  0
   39.5380   30.5740   45.1600 N   0  0  0  0  0  0  0  0  0  0  0  0
   38.4270   31.3070   44.9070 C   0  0  0  0  0  0  0  0  0  0  0  0
   38.4980   32.6480   44.8670 N   0  0  0  0  0  0  0  0  0  0  0  0
   39.7600   34.3610   45.0490 H   0  0  0  0  0  0  0  0  0  0  0  0
   41.7800   33.0620   45.5070 H   0  0  0  0  0  0  0  0  0  0  0  0
   41.6420   30.5580   45.5820 H   0  0  0  0  0  0  0  0  0  0  0  0
   33.0930   28.9680   46.8630 C   0  0  0  0  0  0  0  0  0  0  0  0
   32.4130   28.5830   45.7520 N   0  0  0  0  0  0  0  0  0  0  0  0
   31.2170   28.0500   46.1110 C   0  0  0  0  0  0  0  0  0  0  0  0
   31.1680   28.1130   47.4780 N   0  0  0  0  0  0  0  0  0  0  0  0
   32.2930   28.6630   47.9270 N   0  0  0  0  0  0  0  0  0  0  0  0
   30.4200   27.6420   45.5170 H   0  0  0  0  0  0  0  0  0  0  0  0
   30.1360   27.6910   48.3910 C   0  0  0  0  0  0  0  0  0  0  0  0
   30.0210   27.5450   49.7610 C   0  0  0  0  0  0  0  0  0  0  0  0
   30.8860   27.7920   50.3670 H   0  0  0  0  0  0  0  0  0  0  0  0
   28.7290   27.0910   49.9510 C   0  0  0  0  0  0  0  0  0  0  0  0
   28.4040   26.9000   50.9840 H   0  0  0  0  0  0  0  0  0  0  0  0
   28.1250   26.9830   48.6990 C   0  0  0  0  0  0  0  0  0  0  0  0
   27.1070   26.6330   48.7490 H   0  0  0  0  0  0  0  0  0  0  0  0
   29.0030   27.3510   47.8170 O   0  0  0  0  0  0  0  0  0  0  0  0
  1  2  1  0  0  0  0
  2  7  1  0  0  0  0
  2  3  2  0  0  0  0
  3  8  1  0  0  0  0
  4  3  1  0  0  0  0
  4  9  1  0  0  0  0
  5  4  2  0  0  0  0
  6  1  2  0  0  0  0
  6  5  1  0  0  0  0
 10 21  1  0  0  0  0
 10  1  1  0  0  0  0
 11 13  1  0  0  0  0
 11 10  1  0  0  0  0
 12 16  1  0  0  0  0
 12 11  1  0  0  0  0
 12 10  1  0  0  0  0
 14 11  1  0  0  0  0
 15 12  1  0  0  0  0
 17 18  1  0  0  0  0
 18 19  2  0  0  0  0
 18 24  1  0  0  0  0
 19 25  1  0  0  0  0
 20 19  1  0  0  0  0
 21 20  2  0  0  0  0
 22 21  1  0  0  0  0
 22 17  2  0  0  0  0
 23 17  1  0  0  0  0
 26  5  1  0  0  0  0
 26 30  2  0  0  0  0
 27 28  2  0  0  0  0
 27 26  1  0  0  0  0
 28 29  1  0  0  0  0
 29 30  1  0  0  0  0
 29 32  1  0  0  0  0
 31 28  1  0  0  0  0
 32 33  2  0  0  0  0
 33 35  1  0  0  0  0
 33 34  1  0  0  0  0
 35 36  1  0  0  0  0
 37 38  1  0  0  0  0
 37 35  2  0  0  0  0
 39 32  1  0  0  0  0
 39 37  1  0  0  0  0
M  END
>  <minimizedAffinity>
-5.63753128

>  <minimizedRMSD>
0.884320021

$$$$
