
 OpenBabel03272504413D

 44 46  0  0  0  0  0  0  0  0999 V2000
   34.8390   29.4140   48.8550 C   0  0  0  0  0  0  0  0  0  0  0  0
   34.1760   30.2330   49.2660 H   0  0  0  0  0  0  0  0  0  0  0  0
   35.7380   29.4610   49.5020 H   0  0  0  0  0  0  0  0  0  0  0  0
   37.6110   30.4520   48.5270 Cl  0  0  0  0  0  0  0  0  0  0  0  0
   36.4470   30.3020   47.2000 C   0  0  0  0  0  0  0  0  0  0  0  0
   36.8190   30.6750   45.9580 C   0  0  0  0  0  0  0  0  0  0  0  0
   35.9270   30.5640   44.9170 C   0  0  0  0  0  0  0  0  0  0  0  0
   34.6600   30.0690   45.1830 C   0  0  0  0  0  0  0  0  0  0  0  0
   34.3410   29.7010   46.4950 C   0  0  0  0  0  0  0  0  0  0  0  0
   35.2070   29.8050   47.5230 C   0  0  0  0  0  0  0  0  0  0  0  0
   36.2550   30.8730   43.9180 H   0  0  0  0  0  0  0  0  0  0  0  0
   34.0370   30.0210   44.3000 H   0  0  0  0  0  0  0  0  0  0  0  0
   33.3370   29.3620   46.4640 H   0  0  0  0  0  0  0  0  0  0  0  0
   39.8030   32.8450   45.9910 C   0  0  0  0  0  0  0  0  0  0  0  0
   40.6690   32.1120   45.1080 C   0  0  0  0  0  0  0  0  0  0  0  0
   40.1890   30.9230   44.5520 C   0  0  0  0  0  0  0  0  0  0  0  0
   38.9360   30.4980   44.8590 N   0  0  0  0  0  0  0  0  0  0  0  0
   38.1450   31.2100   45.6940 C   0  0  0  0  0  0  0  0  0  0  0  0
   38.5840   32.3570   46.2400 N   0  0  0  0  0  0  0  0  0  0  0  0
   40.1820   33.7510   46.4070 H   0  0  0  0  0  0  0  0  0  0  0  0
   41.6400   32.4890   44.9020 H   0  0  0  0  0  0  0  0  0  0  0  0
   41.0600   30.2310   43.6880 N   0  0  0  0  0  0  0  0  0  0  0  0
   41.7000   30.7550   43.0460 H   0  0  0  0  0  0  0  0  0  0  0  0
   41.1390   29.2050   43.6150 H   0  0  0  0  0  0  0  0  0  0  0  0
   34.1790   28.1230   49.0810 C   0  0  0  0  0  0  0  0  0  0  0  0
   34.6200   27.5380   49.9110 H   0  0  0  0  0  0  0  0  0  0  0  0
   34.3020   27.4880   48.1640 H   0  0  0  0  0  0  0  0  0  0  0  0
   32.8450   28.2720   49.3520 O   0  0  0  0  0  0  0  0  0  0  0  0
   32.7400   26.5410   47.3810 O   0  0  0  0  0  0  0  0  0  0  0  0
   31.9100   27.4310   48.2560 P   0  0  2  0  0  0  0  0  0  0  0  0
   31.0990   28.6090   47.2900 O   0  0  0  0  0  0  0  0  0  0  0  0
   30.6540   28.3090   46.0240 C   0  0  0  0  0  0  0  0  0  0  0  0
   31.2110   28.6270   44.8000 C   0  0  0  0  0  0  0  0  0  0  0  0
   32.1080   29.1750   44.6290 H   0  0  0  0  0  0  0  0  0  0  0  0
   30.3710   28.0900   43.8430 C   0  0  0  0  0  0  0  0  0  0  0  0
   30.5070   28.1510   42.7690 H   0  0  0  0  0  0  0  0  0  0  0  0
   29.3530   27.4780   44.5240 C   0  0  0  0  0  0  0  0  0  0  0  0
   28.4980   26.9450   44.1030 H   0  0  0  0  0  0  0  0  0  0  0  0
   29.5580   27.6310   45.8120 O   0  0  0  0  0  0  0  0  0  0  0  0
   30.7120   26.5310   48.9760 O   0  0  0  0  0  0  0  0  0  0  0  0
   29.8760   27.3400   49.7260 C   0  0  0  0  0  0  0  0  0  0  0  0
   29.3080   26.6680   50.8100 F   0  0  0  0  0  0  0  0  0  0  0  0
   30.5600   28.4050   50.2710 F   0  0  0  0  0  0  0  0  0  0  0  0
   28.8400   27.8120   48.9270 F   0  0  0  0  0  0  0  0  0  0  0  0
  1 25  1  0  0  0  0
  1  2  1  0  0  0  0
  1  3  1  0  0  0  0
  5 10  1  0  0  0  0
  5  4  1  0  0  0  0
  6  5  2  0  0  0  0
  7  8  2  0  0  0  0
  7  6  1  0  0  0  0
  8  9  1  0  0  0  0
  9 10  2  0  0  0  0
 10  1  1  0  0  0  0
 11  7  1  0  0  0  0
 12  8  1  0  0  0  0
 13  9  1  0  0  0  0
 14 19  1  0  0  0  0
 14 20  1  0  0  0  0
 15 14  2  0  0  0  0
 16 17  2  0  0  0  0
 16 15  1  0  0  0  0
 17 18  1  0  0  0  0
 18  6  1  0  0  0  0
 18 19  2  0  0  0  0
 21 15  1  0  0  0  0
 22 16  1  0  0  0  0
 23 22  1  0  0  0  0
 24 22  1  0  0  0  0
 25 28  1  0  0  0  0
 25 26  1  0  0  0  0
 27 25  1  0  0  0  0
 30 29  2  6  0  0  0
 30 40  1  0  0  0  0
 30 28  1  0  0  0  0
 31 30  1  0  0  0  0
 32 31  1  0  0  0  0
 33 32  2  0  0  0  0
 34 33  1  0  0  0  0
 35 37  2  0  0  0  0
 35 33  1  0  0  0  0
 36 35  1  0  0  0  0
 37 39  1  0  0  0  0
 38 37  1  0  0  0  0
 39 32  1  0  0  0  0
 40 41  1  0  0  0  0
 41 43  1  0  0  0  0
 41 42  1  0  0  0  0
 44 41  1  0  0  0  0
M  END
>  <minimizedAffinity>
-5.64285994

>  <minimizedRMSD>
0.248997763

$$$$
