
     RDKit          3D

 31 33  0  0  0  0  0  0  0  0999 V2000
   35.6425   29.3440   49.8313 C   0  0  0  0  0  0  0  0  0  0  0  0
   35.7459   30.2855   48.8001 C   0  0  0  0  0  0  0  0  0  0  0  0
   34.9139   30.1574   47.6849 C   0  0  0  0  0  0  0  0  0  0  0  0
   34.0379   29.1123   47.6602 N   0  0  0  0  0  0  0  0  0  0  0  0
   33.9453   28.2251   48.6383 C   0  0  0  0  0  0  0  0  0  0  0  0
   34.7395   28.3292   49.7259 N   0  0  0  0  0  0  0  0  0  0  0  0
   37.6619   30.0319   51.3275 C   0  0  0  0  0  0  0  0  0  0  0  0
   38.2072   30.8388   50.5481 O   0  0  0  0  0  0  0  0  0  0  0  0
   36.4203   29.3844   51.0174 N   0  0  0  0  0  0  0  0  0  0  0  0
   36.7137   31.3308   48.9632 N   0  0  0  0  0  0  0  0  0  0  0  0
   36.5521   32.3315   49.8218 C   0  0  0  0  0  0  0  0  0  0  0  0
   37.5313   33.3205   49.9341 C   0  0  0  0  0  0  0  0  0  0  0  0
   38.6071   33.1467   49.1077 C   0  0  0  0  0  0  0  0  0  0  0  0
   39.4895   34.0517   49.2193 O   0  0  0  0  0  0  0  0  0  0  0  0
   38.8139   32.1601   48.2305 N   0  0  0  0  0  0  0  0  0  0  0  0
   37.8256   31.2332   48.1710 C   0  0  0  0  0  0  0  0  0  0  0  0
   37.9923   30.2899   47.3527 O   0  0  0  0  0  0  0  0  0  0  0  0
   35.0740   30.9230   46.9635 H   0  0  0  0  0  0  0  0  0  0  0  0
   33.2275   27.4181   48.5552 H   0  0  0  0  0  0  0  0  0  0  0  0
   38.2141   29.8917   52.2154 H   0  0  0  0  0  0  0  0  0  0  0  0
   36.0773   28.8633   51.8709 H   0  0  0  0  0  0  0  0  0  0  0  0
   35.6453   32.3530   50.4243 H   0  0  0  0  0  0  0  0  0  0  0  0
   37.4192   34.1327   50.6188 H   0  0  0  0  0  0  0  0  0  0  0  0
   39.9785   32.0778   47.4156 C   0  0  0  0  0  0  0  0  0  0  0  0
   40.6928   31.0890   46.7663 C   0  0  0  0  0  0  0  0  0  0  0  0
   40.3010   30.0852   46.8762 H   0  0  0  0  0  0  0  0  0  0  0  0
   41.7376   31.7368   46.1502 C   0  0  0  0  0  0  0  0  0  0  0  0
   42.4348   31.1156   45.5713 H   0  0  0  0  0  0  0  0  0  0  0  0
   41.6287   33.0738   46.4382 C   0  0  0  0  0  0  0  0  0  0  0  0
   42.3529   33.7634   46.0495 H   0  0  0  0  0  0  0  0  0  0  0  0
   40.5675   33.2462   47.1963 O   0  0  0  0  0  0  0  0  0  0  0  0
  1  9  1  0
  2 10  1  0
  2  1  2  0
  3  2  1  0
  4  3  2  0
  4  5  1  0
  5  6  2  0
  6  1  1  0
  8  7  2  0
  9  7  1  0
 10 11  1  0
 11 12  2  0
 13 14  2  0
 13 12  1  0
 15 13  1  0
 16 15  1  0
 16 10  1  0
 17 16  2  0
  3 18  1  0
  5 19  1  0
  7 20  1  0
  9 21  1  0
 11 22  1  0
 12 23  1  0
 24 25  2  0
 25 26  1  0
 25 27  1  0
 27 28  1  0
 27 29  2  0
 29 30  1  0
 29 31  1  0
 31 24  1  0
 15 24  1  0
M  ISO  8  18  14  19  14  20   6  22  14  23  14  26  16  28  16  30  14
M  END
>  <DihAtoms>  (1) 
12,14,23,24

>  <DihDeg>  (1) 
80.0979277176355

$$$$
