REMARK  Name = 
REMARK  5 active torsions:
REMARK  status: ('A' for Active; 'I' for Inactive)
REMARK    1  A    between atoms: C_1  and  C_16
REMARK    2  A    between atoms: C_3  and  C_4
REMARK    3  A    between atoms: C_18  and  C_20
REMARK    4  A    between atoms: C_20  and  C_21
REMARK    5  A    between atoms: C_21  and  C_39
REMARK                            x       y       z     vdW  Elec       q    Type
REMARK                         _______ _______ _______ _____ _____    ______ ____
ROOT
ATOM      1  C   UNL     1      36.943  31.379  47.387  0.00  0.00    +0.000 C 
ATOM      2  C   UNL     1      38.120  32.004  48.040  0.00  0.00    +0.000 C 
ATOM      3  C   UNL     1      38.444  30.897  47.165  0.00  0.00    +0.000 C 
ATOM      4  H   UNL     1      36.513  31.666  46.435  0.00  0.00    +0.000 HD
ATOM      5  H   UNL     1      38.163  31.847  49.169  0.00  0.00    +0.000 HD
ATOM      6  H   UNL     1      38.093  33.086  47.843  0.00  0.00    +0.000 HD
ATOM      7  H   UNL     1      38.480  29.837  47.382  0.00  0.00    +0.000 HD
ENDROOT
BRANCH   3   8
ATOM      8  C   UNL     1      39.116  31.368  45.910  0.00  0.00    +0.000 A 
ATOM      9  C   UNL     1      39.614  32.666  46.095  0.00  0.00    +0.000 A 
ATOM     10  C   UNL     1      40.372  33.262  45.118  0.00  0.00    +0.000 A 
ATOM     11  C   UNL     1      40.665  32.597  43.922  0.00  0.00    +0.000 A 
ATOM     12  C   UNL     1      40.157  31.316  43.772  0.00  0.00    +0.000 A 
ATOM     13  C   UNL     1      40.358  30.570  42.647  0.00  0.00    +0.000 A 
ATOM     14  C   UNL     1      39.846  29.302  42.471  0.00  0.00    +0.000 A 
ATOM     15  C   UNL     1      39.087  28.753  43.492  0.00  0.00    +0.000 A 
ATOM     16  C   UNL     1      38.884  29.501  44.626  0.00  0.00    +0.000 A 
ATOM     17  C   UNL     1      39.417  30.768  44.758  0.00  0.00    +0.000 A 
ATOM     18  H   UNL     1      39.587  33.409  46.867  0.00  0.00    +0.000 HD
ATOM     19  H   UNL     1      40.831  34.241  45.089  0.00  0.00    +0.000 HD
ATOM     20  H   UNL     1      41.247  32.944  43.072  0.00  0.00    +0.000 HD
ATOM     21  H   UNL     1      40.946  30.962  41.826  0.00  0.00    +0.000 HD
ATOM     22  H   UNL     1      39.989  28.689  41.590  0.00  0.00    +0.000 HD
ATOM     23  H   UNL     1      38.654  27.764  43.422  0.00  0.00    +0.000 HD
ATOM     24  H   UNL     1      38.277  29.044  45.429  0.00  0.00    +0.000 HD
ENDBRANCH   3   8
BRANCH   1  27
ATOM     25  C   UNL     1      34.431  28.755  48.380  0.00  0.00    +0.000 A 
ATOM     26  C   UNL     1      35.180  29.673  47.591  0.00  0.00    +0.000 A 
ATOM     27  C   UNL     1      36.164  30.405  48.193  0.00  0.00    +0.000 A 
ATOM     28  N   UNL     1      36.351  30.189  49.529  0.00  0.00    +0.000 NA
ATOM     29  C   UNL     1      35.658  29.333  50.276  0.00  0.00    +0.000 A 
ATOM     30  N   UNL     1      34.673  28.593  49.704  0.00  0.00    +0.000 NA
ATOM     31  H   UNL     1      33.676  28.210  47.864  0.00  0.00    +0.000 HD
ATOM     32  H   UNL     1      34.989  29.799  46.554  0.00  0.00    +0.000 HD
BRANCH  29  33
ATOM     33  C   UNL     1      36.019  29.180  51.736  0.00  0.00    +0.000 C 
ATOM     34  H   UNL     1      35.202  29.677  52.296  0.00  0.00    +0.000 HD
ATOM     35  H   UNL     1      36.122  28.123  51.976  0.00  0.00    +0.000 HD
BRANCH  33  36
ATOM     36  C   UNL     1      37.322  29.947  51.940  0.00  0.00    +0.000 C 
ATOM     37  H   UNL     1      37.600  29.793  53.014  0.00  0.00    +0.000 HD
ATOM     38  H   UNL     1      38.126  29.518  51.293  0.00  0.00    +0.000 HD
BRANCH  36  39
ATOM     39  C   UNL     1      37.131  31.395  51.725  0.00  0.00    +0.000 A 
ATOM     40  C   UNL     1      37.856  32.547  51.506  0.00  0.00    +0.000 A 
ATOM     41  H   UNL     1      38.917  32.462  51.453  0.00  0.00    +0.000 HD
ATOM     42  C   UNL     1      36.988  33.613  51.386  0.00  0.00    +0.000 A 
ATOM     43  H   UNL     1      37.309  34.630  51.210  0.00  0.00    +0.000 HD
ATOM     44  C   UNL     1      35.755  33.038  51.543  0.00  0.00    +0.000 A 
ATOM     45  H   UNL     1      34.842  33.648  51.497  0.00  0.00    +0.000 HD
ATOM     46  O   UNL     1      35.862  31.735  51.741  0.00  0.00    +0.000 OA
ENDBRANCH  36  39
ENDBRANCH  33  36
ENDBRANCH  29  33
ENDBRANCH   1  27
TORSDOF 5
