
 OpenBabel03272507293D

 40 42  0  0  1  0  0  0  0  0999 V2000
   37.9320   30.4980   48.7950 C   0  0  0  0  0  0  0  0  0  0  0  0
   38.0140   30.9210   47.4540 C   0  0  0  0  0  0  0  0  0  0  0  0
   36.8810   30.7200   46.6630 C   0  0  0  0  0  0  0  0  0  0  0  0
   35.7940   30.1500   47.2040 N   0  0  0  0  0  0  0  0  0  0  0  0
   35.7560   29.7600   48.4940 C   0  0  0  0  0  0  0  0  0  0  0  0
   36.8150   29.9340   49.2800 N   0  0  0  0  0  0  0  0  0  0  0  0
   36.8800   31.0990   45.3230 N   0  0  0  0  0  0  0  0  0  0  0  0
   37.6310   32.2440   44.7410 C   0  0  0  0  0  0  0  0  0  0  0  0
   37.1460   32.4580   43.3610 C   0  0  0  0  0  0  0  0  0  0  0  0
   35.8810   31.7290   43.3260 C   0  0  0  0  0  0  0  0  0  0  0  0
   36.2020   30.5670   44.1840 C   0  0  2  0  0  0  0  0  0  0  0  0
   38.8250   30.6660   49.3810 H   0  0  0  0  0  0  0  0  0  0  0  0
   38.8750   31.3810   46.9970 H   0  0  0  0  0  0  0  0  0  0  0  0
   34.9200   29.2960   48.9980 H   0  0  0  0  0  0  0  0  0  0  0  0
   38.6770   32.2680   44.9540 H   0  0  0  0  0  0  0  0  0  0  0  0
   37.2260   33.0850   45.4210 H   0  0  0  0  0  0  0  0  0  0  0  0
   37.7840   32.5520   42.5240 H   0  0  0  0  0  0  0  0  0  0  0  0
   36.7540   33.5840   43.3970 H   0  0  0  0  0  0  0  0  0  0  0  0
   34.9840   32.2510   43.6840 H   0  0  0  0  0  0  0  0  0  0  0  0
   35.6510   31.3910   42.2750 H   0  0  0  0  0  0  0  0  0  0  0  0
   34.9270   29.7900   44.5160 C   0  0  0  0  0  0  0  0  0  0  0  0
   34.2370   30.4930   45.4820 F   0  0  0  0  0  0  0  0  0  0  0  0
   35.1130   28.5330   45.0050 F   0  0  0  0  0  0  0  0  0  0  0  0
   34.1430   29.8200   43.3800 F   0  0  0  0  0  0  0  0  0  0  0  0
   37.0840   29.6230   43.5520 C   0  0  2  0  0  0  0  0  0  0  0  0
   37.2260   28.7390   44.1450 H   0  0  0  0  0  0  0  0  0  0  0  0
   38.6140   30.0080   43.4120 C   0  0  0  0  0  0  0  0  0  0  0  0
   39.1850   30.3380   42.1480 C   0  0  0  0  0  0  0  0  0  0  0  0
   38.6840   30.3620   41.1630 H   0  0  0  0  0  0  0  0  0  0  0  0
   40.5200   30.6480   42.2710 C   0  0  0  0  0  0  0  0  0  0  0  0
   41.2130   30.9330   41.5020 H   0  0  0  0  0  0  0  0  0  0  0  0
   40.6980   30.4900   43.6230 C   0  0  0  0  0  0  0  0  0  0  0  0
   41.6040   30.6280   44.1880 H   0  0  0  0  0  0  0  0  0  0  0  0
   39.6180   30.1310   44.2410 O   0  0  0  0  0  0  0  0  0  0  0  0
   36.7570   29.5360   42.3420 O   0  0  0  0  0  0  0  0  0  0  0  0
   36.4470   28.6070   41.4210 C   0  0  0  0  0  0  0  0  0  0  0  0
   35.5510   28.9820   40.6620 O   0  0  0  0  0  0  0  0  0  0  0  0
   36.6900   27.3160   40.8770 N   0  0  0  0  0  0  0  0  0  0  0  0
   37.5090   27.3120   40.2240 H   0  0  0  0  0  0  0  0  0  0  0  0
   36.1240   26.4670   41.0930 H   0  0  0  0  0  0  0  0  0  0  0  0
  1  6  1  0  0  0  0
  1 12  1  0  0  0  0
  2  1  2  0  0  0  0
  3  4  2  0  0  0  0
  3  2  1  0  0  0  0
  4  5  1  0  0  0  0
  5 14  1  0  0  0  0
  5  6  2  0  0  0  0
  7  3  1  0  0  0  0
  8 15  1  0  0  0  0
  8  7  1  0  0  0  0
  8 16  1  0  0  0  0
  9 18  1  0  0  0  0
  9  8  1  0  0  0  0
 10  9  1  0  0  0  0
 10 19  1  0  0  0  0
 10 11  1  0  0  0  0
 11 21  1  1  0  0  0
 11  7  1  0  0  0  0
 13  2  1  0  0  0  0
 17  9  1  0  0  0  0
 20 10  1  0  0  0  0
 21 23  1  0  0  0  0
 21 22  1  0  0  0  0
 24 21  1  0  0  0  0
 25 26  1  1  0  0  0
 25 11  1  0  0  0  0
 27 25  1  0  0  0  0
 27 34  1  0  0  0  0
 28 30  1  0  0  0  0
 28 27  2  0  0  0  0
 29 28  1  0  0  0  0
 30 32  2  0  0  0  0
 31 30  1  0  0  0  0
 32 33  1  0  0  0  0
 32 34  1  0  0  0  0
 35 25  1  0  0  0  0
 36 35  1  0  0  0  0
 37 36  2  0  0  0  0
 38 40  1  0  0  0  0
 38 36  1  0  0  0  0
 39 38  1  0  0  0  0
M  END
>  <minimizedAffinity>
-4.0000577

>  <minimizedRMSD>
3.40018201

$$$$
