
 OpenBabel03272509353D

 46 50  0  0  1  0  0  0  0  0999 V2000
   36.3080   30.6300   44.8120 C   0  0  1  0  0  0  0  0  0  0  0  0
   37.3190   31.6300   45.2360 C   0  0  0  0  0  0  0  0  0  0  0  0
   37.8510   30.3010   45.0200 C   0  0  2  0  0  0  0  0  0  0  0  0
   36.0250   30.4000   43.7920 H   0  0  0  0  0  0  0  0  0  0  0  0
   37.1830   32.0040   46.3050 H   0  0  0  0  0  0  0  0  0  0  0  0
   37.2590   32.4940   44.5580 H   0  0  0  0  0  0  0  0  0  0  0  0
   37.9150   29.4660   45.7070 H   0  0  0  0  0  0  0  0  0  0  0  0
   38.6920   30.2410   43.7810 C   0  0  0  0  0  0  0  0  0  0  0  0
   39.1550   31.5250   43.4570 C   0  0  0  0  0  0  0  0  0  0  0  0
   40.0420   31.7010   42.4240 C   0  0  0  0  0  0  0  0  0  0  0  0
   40.5030   30.6140   41.6730 C   0  0  0  0  0  0  0  0  0  0  0  0
   40.0260   29.3590   42.0190 C   0  0  0  0  0  0  0  0  0  0  0  0
   40.3860   28.2230   41.3540 C   0  0  0  0  0  0  0  0  0  0  0  0
   39.9080   26.9700   41.6710 C   0  0  0  0  0  0  0  0  0  0  0  0
   39.0140   26.8550   42.7240 C   0  0  0  0  0  0  0  0  0  0  0  0
   38.6500   27.9960   43.3960 C   0  0  0  0  0  0  0  0  0  0  0  0
   39.1550   29.2320   43.0420 C   0  0  0  0  0  0  0  0  0  0  0  0
   39.0170   32.5200   43.8290 H   0  0  0  0  0  0  0  0  0  0  0  0
   40.4970   32.6030   42.0390 H   0  0  0  0  0  0  0  0  0  0  0  0
   41.1990   30.6070   40.8370 H   0  0  0  0  0  0  0  0  0  0  0  0
   41.0830   28.2700   40.5260 H   0  0  0  0  0  0  0  0  0  0  0  0
   40.1760   26.0530   41.1610 H   0  0  0  0  0  0  0  0  0  0  0  0
   38.5980   25.9030   43.0270 H   0  0  0  0  0  0  0  0  0  0  0  0
   37.9370   27.8830   44.2330 H   0  0  0  0  0  0  0  0  0  0  0  0
   33.7930   28.4630   46.5910 C   0  0  0  0  0  0  0  0  0  0  0  0
   34.6050   29.0180   45.5620 C   0  0  0  0  0  0  0  0  0  0  0  0
   35.4660   30.0300   45.8790 C   0  0  0  0  0  0  0  0  0  0  0  0
   35.4780   30.4320   47.1840 N   0  0  0  0  0  0  0  0  0  0  0  0
   34.7250   29.9200   48.1550 C   0  0  0  0  0  0  0  0  0  0  0  0
   33.8580   28.9140   47.8680 N   0  0  0  0  0  0  0  0  0  0  0  0
   33.1390   27.6790   46.2930 H   0  0  0  0  0  0  0  0  0  0  0  0
   34.5520   28.6640   44.5620 H   0  0  0  0  0  0  0  0  0  0  0  0
   34.8890   30.4490   49.5620 C   0  0  0  0  0  0  0  0  0  0  0  0
   34.7640   31.5470   49.4810 H   0  0  0  0  0  0  0  0  0  0  0  0
   34.1530   29.9800   50.2140 H   0  0  0  0  0  0  0  0  0  0  0  0
   36.3200   30.1230   49.9800 C   0  0  0  0  0  0  0  0  0  0  0  0
   36.3190   30.1350   51.1000 H   0  0  0  0  0  0  0  0  0  0  0  0
   36.6000   29.1000   49.6290 H   0  0  0  0  0  0  0  0  0  0  0  0
   37.2620   31.1610   49.5170 C   0  0  0  0  0  0  0  0  0  0  0  0
   38.4310   31.2990   48.8010 C   0  0  0  0  0  0  0  0  0  0  0  0
   38.8760   30.4160   48.4020 H   0  0  0  0  0  0  0  0  0  0  0  0
   38.7770   32.6330   48.7490 C   0  0  0  0  0  0  0  0  0  0  0  0
   39.6570   33.0060   48.2420 H   0  0  0  0  0  0  0  0  0  0  0  0
   37.7760   33.2490   49.4530 C   0  0  0  0  0  0  0  0  0  0  0  0
   37.7750   34.3390   49.5880 H   0  0  0  0  0  0  0  0  0  0  0  0
   36.8980   32.3660   49.8960 O   0  0  0  0  0  0  0  0  0  0  0  0
  1  4  1  6  0  0  0
  1  3  1  0  0  0  0
  1  2  1  0  0  0  0
  1 27  1  0  0  0  0
  2  5  1  0  0  0  0
  3  2  1  0  0  0  0
  3  7  1  1  0  0  0
  6  2  1  0  0  0  0
  8  3  1  0  0  0  0
  9  8  1  0  0  0  0
  9 18  1  0  0  0  0
 10  9  2  0  0  0  0
 11 12  2  0  0  0  0
 11 10  1  0  0  0  0
 12 17  1  0  0  0  0
 13 14  2  0  0  0  0
 13 12  1  0  0  0  0
 14 15  1  0  0  0  0
 15 23  1  0  0  0  0
 15 16  2  0  0  0  0
 16 24  1  0  0  0  0
 17 16  1  0  0  0  0
 17  8  2  0  0  0  0
 19 10  1  0  0  0  0
 20 11  1  0  0  0  0
 21 13  1  0  0  0  0
 22 14  1  0  0  0  0
 25 30  1  0  0  0  0
 26 27  1  0  0  0  0
 26 25  2  0  0  0  0
 27 28  2  0  0  0  0
 28 29  1  0  0  0  0
 29 33  1  0  0  0  0
 30 29  2  0  0  0  0
 31 25  1  0  0  0  0
 32 26  1  0  0  0  0
 33 36  1  0  0  0  0
 33 35  1  0  0  0  0
 34 33  1  0  0  0  0
 36 37  1  0  0  0  0
 38 36  1  0  0  0  0
 39 46  1  0  0  0  0
 39 36  1  0  0  0  0
 40 39  2  0  0  0  0
 41 40  1  0  0  0  0
 42 40  1  0  0  0  0
 42 44  2  0  0  0  0
 43 42  1  0  0  0  0
 44 45  1  0  0  0  0
 44 46  1  0  0  0  0
M  END
>  <minimizedAffinity>
-5.82232189

>  <minimizedRMSD>
2.57027292

$$$$
