
 OpenBabel03272505493D

 39 43  0  0  0  0  0  0  0  0999 V2000
   36.3860   30.4100   45.9470 C   0  0  0  0  0  0  0  0  0  0  0  0
   36.9080   30.7630   47.1380 C   0  0  0  0  0  0  0  0  0  0  0  0
   36.2010   30.5360   48.3080 C   0  0  0  0  0  0  0  0  0  0  0  0
   34.9460   29.9380   48.2150 C   0  0  0  0  0  0  0  0  0  0  0  0
   34.4110   29.5730   46.9690 C   0  0  0  0  0  0  0  0  0  0  0  0
   35.1610   29.8270   45.8760 N   0  0  0  0  0  0  0  0  0  0  0  0
   37.8830   31.2300   47.2330 H   0  0  0  0  0  0  0  0  0  0  0  0
   36.5430   30.7860   49.2930 H   0  0  0  0  0  0  0  0  0  0  0  0
   34.3240   29.7240   49.0780 H   0  0  0  0  0  0  0  0  0  0  0  0
   37.1480   30.6530   44.6660 C   0  0  0  0  0  0  0  0  0  0  0  0
   36.9530   29.6990   43.5380 C   0  0  0  0  0  0  0  0  0  0  0  0
   36.3650   31.0740   43.4600 C   0  0  0  0  0  0  0  0  0  0  0  0
   36.2470   28.8610   43.7520 H   0  0  0  0  0  0  0  0  0  0  0  0
   37.8160   29.4040   42.9440 H   0  0  0  0  0  0  0  0  0  0  0  0
   36.8910   31.7510   42.7560 H   0  0  0  0  0  0  0  0  0  0  0  0
   35.2570   31.1300   43.4960 H   0  0  0  0  0  0  0  0  0  0  0  0
   39.6950   33.2900   45.0900 C   0  0  0  0  0  0  0  0  0  0  0  0
   40.8600   32.5380   45.3610 C   0  0  0  0  0  0  0  0  0  0  0  0
   40.7630   31.1190   45.3970 C   0  0  0  0  0  0  0  0  0  0  0  0
   39.5480   30.5840   45.1670 N   0  0  0  0  0  0  0  0  0  0  0  0
   38.4400   31.3180   44.9070 C   0  0  0  0  0  0  0  0  0  0  0  0
   38.5120   32.6580   44.8690 N   0  0  0  0  0  0  0  0  0  0  0  0
   39.7730   34.3700   45.0620 H   0  0  0  0  0  0  0  0  0  0  0  0
   41.7890   33.0700   45.5330 H   0  0  0  0  0  0  0  0  0  0  0  0
   41.6500   30.5660   45.6040 H   0  0  0  0  0  0  0  0  0  0  0  0
   33.1060   28.9460   46.8260 C   0  0  0  0  0  0  0  0  0  0  0  0
   32.4410   28.5470   45.7110 N   0  0  0  0  0  0  0  0  0  0  0  0
   31.2450   28.0100   46.0620 C   0  0  0  0  0  0  0  0  0  0  0  0
   31.1790   28.0850   47.4270 N   0  0  0  0  0  0  0  0  0  0  0  0
   32.2960   28.6470   47.8830 N   0  0  0  0  0  0  0  0  0  0  0  0
   30.4570   27.5910   45.4630 H   0  0  0  0  0  0  0  0  0  0  0  0
   30.1400   27.6650   48.3320 C   0  0  0  0  0  0  0  0  0  0  0  0
   28.8790   27.1120   48.2070 C   0  0  0  0  0  0  0  0  0  0  0  0
   28.5110   26.9170   47.2060 H   0  0  0  0  0  0  0  0  0  0  0  0
   28.4360   26.9670   49.5110 C   0  0  0  0  0  0  0  0  0  0  0  0
   27.4370   26.5370   49.6630 H   0  0  0  0  0  0  0  0  0  0  0  0
   29.4420   27.4340   50.3570 C   0  0  0  0  0  0  0  0  0  0  0  0
   29.1830   27.3590   51.4010 H   0  0  0  0  0  0  0  0  0  0  0  0
   30.4210   27.8330   49.6050 O   0  0  0  0  0  0  0  0  0  0  0  0
  1  2  1  0  0  0  0
  2  7  1  0  0  0  0
  2  3  2  0  0  0  0
  3  8  1  0  0  0  0
  4  3  1  0  0  0  0
  4  9  1  0  0  0  0
  5  4  2  0  0  0  0
  6  1  2  0  0  0  0
  6  5  1  0  0  0  0
 10 21  1  0  0  0  0
 10  1  1  0  0  0  0
 11 13  1  0  0  0  0
 11 10  1  0  0  0  0
 12 16  1  0  0  0  0
 12 11  1  0  0  0  0
 12 10  1  0  0  0  0
 14 11  1  0  0  0  0
 15 12  1  0  0  0  0
 17 18  1  0  0  0  0
 18 19  2  0  0  0  0
 18 24  1  0  0  0  0
 19 25  1  0  0  0  0
 20 19  1  0  0  0  0
 21 20  2  0  0  0  0
 22 21  1  0  0  0  0
 22 17  2  0  0  0  0
 23 17  1  0  0  0  0
 26  5  1  0  0  0  0
 26 30  2  0  0  0  0
 27 28  2  0  0  0  0
 27 26  1  0  0  0  0
 28 29  1  0  0  0  0
 29 30  1  0  0  0  0
 29 32  1  0  0  0  0
 31 28  1  0  0  0  0
 32 39  1  0  0  0  0
 33 32  2  0  0  0  0
 33 35  1  0  0  0  0
 34 33  1  0  0  0  0
 35 36  1  0  0  0  0
 35 37  2  0  0  0  0
 37 38  1  0  0  0  0
 39 37  1  0  0  0  0
M  END
>  <minimizedAffinity>
-5.61748219

>  <minimizedRMSD>
0.946162164

$$$$
