
 OpenBabel03272508423D

 19 20  0  0  0  0  0  0  0  0999 V2000
   33.9040   28.7920   48.7270 C   0  0  0  0  0  0  0  0  0  0  0  0
   32.9710   28.2760   49.3830 O   0  0  0  0  0  0  0  0  0  0  0  0
   33.2760   30.5170   45.5870 C   0  0  0  0  0  0  0  0  0  0  0  0
   33.6110   29.5630   44.6210 C   0  0  0  0  0  0  0  0  0  0  0  0
   34.0570   28.3120   45.0380 C   0  0  0  0  0  0  0  0  0  0  0  0
   34.1410   28.0970   46.3730 N   0  0  0  0  0  0  0  0  0  0  0  0
   33.8120   29.0330   47.2900 C   0  0  0  0  0  0  0  0  0  0  0  0
   33.3790   30.2450   46.8940 N   0  0  0  0  0  0  0  0  0  0  0  0
   32.9230   31.5080   45.2740 H   0  0  0  0  0  0  0  0  0  0  0  0
   33.5300   29.7770   43.5590 H   0  0  0  0  0  0  0  0  0  0  0  0
   34.3340   27.5250   44.3520 H   0  0  0  0  0  0  0  0  0  0  0  0
   35.1280   29.1600   49.4530 C   0  0  0  0  0  0  0  0  0  0  0  0
   36.3030   29.5560   48.8410 C   0  0  0  0  0  0  0  0  0  0  0  0
   36.4830   29.6490   47.7850 H   0  0  0  0  0  0  0  0  0  0  0  0
   37.1520   29.7920   49.9280 C   0  0  0  0  0  0  0  0  0  0  0  0
   38.1760   30.1230   49.8250 H   0  0  0  0  0  0  0  0  0  0  0  0
   36.4730   29.5340   51.1040 C   0  0  0  0  0  0  0  0  0  0  0  0
   36.8430   29.6180   52.1260 H   0  0  0  0  0  0  0  0  0  0  0  0
   35.2620   29.1570   50.7770 O   0  0  0  0  0  0  0  0  0  0  0  0
  1  2  2  0  0  0  0
  1 12  1  0  0  0  0
  3  8  1  0  0  0  0
  4  5  1  0  0  0  0
  4  3  2  0  0  0  0
  5  6  2  0  0  0  0
  6  7  1  0  0  0  0
  7  1  1  0  0  0  0
  8  7  2  0  0  0  0
  9  3  1  0  0  0  0
 10  4  1  0  0  0  0
 11  5  1  0  0  0  0
 12 19  1  0  0  0  0
 13 12  2  0  0  0  0
 13 15  1  0  0  0  0
 14 13  1  0  0  0  0
 15 17  2  0  0  0  0
 16 15  1  0  0  0  0
 17 18  1  0  0  0  0
 19 17  1  0  0  0  0
M  END
>  <minimizedAffinity>
-3.31344414

>  <minimizedRMSD>
4.64857054

$$$$
