
 OpenBabel03272508423D

 19 20  0  0  0  0  0  0  0  0999 V2000
   33.6910   27.7120   47.9280 C   0  0  0  0  0  0  0  0  0  0  0  0
   34.0620   26.5420   47.6790 O   0  0  0  0  0  0  0  0  0  0  0  0
   30.1190   28.2470   47.4940 C   0  0  0  0  0  0  0  0  0  0  0  0
   30.0590   29.2380   46.5090 C   0  0  0  0  0  0  0  0  0  0  0  0
   31.2460   29.7350   45.9800 C   0  0  0  0  0  0  0  0  0  0  0  0
   32.4020   29.2190   46.4620 N   0  0  0  0  0  0  0  0  0  0  0  0
   32.4400   28.2620   47.4150 C   0  0  0  0  0  0  0  0  0  0  0  0
   31.2950   27.7770   47.9300 N   0  0  0  0  0  0  0  0  0  0  0  0
   29.1920   27.8460   47.9200 H   0  0  0  0  0  0  0  0  0  0  0  0
   29.1080   29.6250   46.1490 H   0  0  0  0  0  0  0  0  0  0  0  0
   31.2790   30.4990   45.2170 H   0  0  0  0  0  0  0  0  0  0  0  0
   34.5640   28.5420   48.7690 C   0  0  0  0  0  0  0  0  0  0  0  0
   35.4600   29.4720   48.2750 C   0  0  0  0  0  0  0  0  0  0  0  0
   35.6390   29.7130   47.2420 H   0  0  0  0  0  0  0  0  0  0  0  0
   36.0400   29.9880   49.4400 C   0  0  0  0  0  0  0  0  0  0  0  0
   36.8030   30.7560   49.4370 H   0  0  0  0  0  0  0  0  0  0  0  0
   35.4870   29.3670   50.5410 C   0  0  0  0  0  0  0  0  0  0  0  0
   35.7160   29.5360   51.5940 H   0  0  0  0  0  0  0  0  0  0  0  0
   34.6050   28.5060   50.0990 O   0  0  0  0  0  0  0  0  0  0  0  0
  1 12  1  0  0  0  0
  2  1  2  0  0  0  0
  3  9  1  0  0  0  0
  3  8  1  0  0  0  0
  4  3  2  0  0  0  0
  5  6  2  0  0  0  0
  5  4  1  0  0  0  0
  6  7  1  0  0  0  0
  7  1  1  0  0  0  0
  7  8  2  0  0  0  0
 10  4  1  0  0  0  0
 11  5  1  0  0  0  0
 12 19  1  0  0  0  0
 13 12  2  0  0  0  0
 13 15  1  0  0  0  0
 14 13  1  0  0  0  0
 15 17  2  0  0  0  0
 16 15  1  0  0  0  0
 17 18  1  0  0  0  0
 19 17  1  0  0  0  0
M  END
>  <minimizedAffinity>
-3.28137612

>  <minimizedRMSD>
5.31578255

$$$$
