
 OpenBabel03272502323D

 26 27  0  0  1  0  0  0  0  0999 V2000
   38.7610   23.5980   35.5070 C   0  0  2  0  0  0  0  0  0  0  0  0
   39.7710   23.1400   35.7350 H   0  0  0  0  0  0  0  0  0  0  0  0
   38.9060   25.0500   35.4460 C   0  0  0  0  0  0  0  0  0  0  0  0
   38.1850   26.1440   35.8160 C   0  0  0  0  0  0  0  0  0  0  0  0
   37.2380   26.0690   36.2830 H   0  0  0  0  0  0  0  0  0  0  0  0
   38.9150   27.2520   35.4600 C   0  0  0  0  0  0  0  0  0  0  0  0
   38.6750   28.3010   35.5860 H   0  0  0  0  0  0  0  0  0  0  0  0
   40.0710   26.8140   34.8790 C   0  0  0  0  0  0  0  0  0  0  0  0
   40.9410   27.3400   34.4490 H   0  0  0  0  0  0  0  0  0  0  0  0
   40.0050   25.5300   34.9010 O   0  0  0  0  0  0  0  0  0  0  0  0
   37.5080   21.9230   34.3540 C   0  0  0  0  0  3  0  0  0  0  0  0
   38.1920   23.0270   34.2690 C   0  0  0  0  0  3  0  0  0  0  0  0
   35.0880   19.9490   32.3320 C   0  0  0  0  0  0  0  0  0  0  0  0
   35.6960   20.5950   33.3990 C   0  0  0  0  0  0  0  0  0  0  0  0
   36.9060   21.2770   33.2090 C   0  0  0  0  0  0  0  0  0  0  0  0
   37.4410   21.2830   31.9750 N   0  0  0  0  0  0  0  0  0  0  0  0
   36.8350   20.6530   30.9580 C   0  0  0  0  0  0  0  0  0  0  0  0
   35.6860   19.9990   31.1200 N   0  0  0  0  0  0  0  0  0  0  0  0
   34.1560   19.4200   32.4440 H   0  0  0  0  0  0  0  0  0  0  0  0
   35.1420   20.5000   34.3170 H   0  0  0  0  0  0  0  0  0  0  0  0
   37.2530   20.6410   29.9610 H   0  0  0  0  0  0  0  0  0  0  0  0
   37.6240   23.1510   36.8790 S   0  0  0  0  0  0  0  0  0  0  0  0
   38.4080   23.4850   38.4620 C   0  0  0  0  0  0  0  0  0  0  0  0
   39.7750   23.2140   38.4650 F   0  0  0  0  0  0  0  0  0  0  0  0
   38.1360   24.7630   38.9100 F   0  0  0  0  0  0  0  0  0  0  0  0
   37.8080   22.6150   39.4000 F   0  0  0  0  0  0  0  0  0  0  0  0
  1  2  1  1  0  0  0
  1 22  1  0  0  0  0
  3  1  1  0  0  0  0
  3  4  2  0  0  0  0
  4  5  1  0  0  0  0
  6  7  1  0  0  0  0
  6  4  1  0  0  0  0
  8 10  1  0  0  0  0
  8  6  2  0  0  0  0
  9  8  1  0  0  0  0
 10  3  1  0  0  0  0
 12 11  2  0  0  0  0
 12  1  1  0  0  0  0
 13 19  1  0  0  0  0
 13 14  1  0  0  0  0
 14 20  1  0  0  0  0
 15 14  2  0  0  0  0
 15 11  1  0  0  0  0
 16 15  1  0  0  0  0
 17 18  1  0  0  0  0
 17 16  2  0  0  0  0
 18 13  2  0  0  0  0
 21 17  1  0  0  0  0
 22 23  1  0  0  0  0
 23 24  1  0  0  0  0
 23 25  1  0  0  0  0
 23 26  1  0  0  0  0
M  END
>  <minimizedAffinity>
-5.1446209

$$$$

 OpenBabel03272502323D

 26 27  0  0  1  0  0  0  0  0999 V2000
   39.2520   22.4110   36.2100 C   0  0  2  0  0  0  0  0  0  0  0  0
   39.0210   21.5620   36.9220 H   0  0  0  0  0  0  0  0  0  0  0  0
   40.6960   22.6300   36.1940 C   0  0  0  0  0  0  0  0  0  0  0  0
   41.8010   22.0590   36.7490 C   0  0  0  0  0  0  0  0  0  0  0  0
   41.7440   21.2210   37.3940 H   0  0  0  0  0  0  0  0  0  0  0  0
   42.8910   22.7740   36.3150 C   0  0  0  0  0  0  0  0  0  0  0  0
   43.9400   22.6290   36.5400 H   0  0  0  0  0  0  0  0  0  0  0  0
   42.4310   23.7700   35.5000 C   0  0  0  0  0  0  0  0  0  0  0  0
   42.9380   24.5720   34.9360 H   0  0  0  0  0  0  0  0  0  0  0  0
   41.1530   23.6310   35.4710 O   0  0  0  0  0  0  0  0  0  0  0  0
   37.4480   21.7990   34.7700 C   0  0  0  0  0  3  0  0  0  0  0  0
   38.7000   22.1380   34.8670 C   0  0  0  0  0  3  0  0  0  0  0  0
   35.0620   20.3240   32.3260 C   0  0  0  0  0  0  0  0  0  0  0  0
   35.7050   20.6390   33.5140 C   0  0  0  0  0  0  0  0  0  0  0  0
   36.8030   21.5100   33.5080 C   0  0  0  0  0  0  0  0  0  0  0  0
   37.2000   22.0200   32.3280 N   0  0  0  0  0  0  0  0  0  0  0  0
   36.5630   21.7010   31.1920 C   0  0  0  0  0  0  0  0  0  0  0  0
   35.5180   20.8750   31.1780 N   0  0  0  0  0  0  0  0  0  0  0  0
   34.2120   19.6610   32.2970 H   0  0  0  0  0  0  0  0  0  0  0  0
   35.2660   20.1550   34.3690 H   0  0  0  0  0  0  0  0  0  0  0  0
   36.8710   22.0950   30.2330 H   0  0  0  0  0  0  0  0  0  0  0  0
   38.4100   23.9160   36.8440 S   0  0  0  0  0  0  0  0  0  0  0  0
   38.2120   23.8050   38.6280 C   0  0  0  0  0  0  0  0  0  0  0  0
   37.2950   22.8310   39.0190 F   0  0  0  0  0  0  0  0  0  0  0  0
   39.4260   23.6580   39.2700 F   0  0  0  0  0  0  0  0  0  0  0  0
   37.7020   25.0520   39.0540 F   0  0  0  0  0  0  0  0  0  0  0  0
  1 22  1  0  0  0  0
  1  2  1  1  0  0  0
  3  1  1  0  0  0  0
  3  4  2  0  0  0  0
  4  5  1  0  0  0  0
  6  7  1  0  0  0  0
  6  4  1  0  0  0  0
  8  6  2  0  0  0  0
  9  8  1  0  0  0  0
 10  8  1  0  0  0  0
 10  3  1  0  0  0  0
 11 12  2  0  0  0  0
 12  1  1  0  0  0  0
 13 14  1  0  0  0  0
 14 20  1  0  0  0  0
 15 14  2  0  0  0  0
 15 11  1  0  0  0  0
 16 15  1  0  0  0  0
 17 16  2  0  0  0  0
 18 17  1  0  0  0  0
 18 13  2  0  0  0  0
 19 13  1  0  0  0  0
 21 17  1  0  0  0  0
 22 23  1  0  0  0  0
 23 24  1  0  0  0  0
 23 26  1  0  0  0  0
 23 25  1  0  0  0  0
M  END
>  <minimizedAffinity>
-4.95716953

$$$$

 OpenBabel03272502323D

 26 27  0  0  1  0  0  0  0  0999 V2000
   38.8880   23.3350   35.6500 C   0  0  2  0  0  0  0  0  0  0  0  0
   38.0500   23.4250   36.4060 H   0  0  0  0  0  0  0  0  0  0  0  0
   39.9990   22.6130   36.2630 C   0  0  0  0  0  0  0  0  0  0  0  0
   40.3910   22.2590   37.5190 C   0  0  0  0  0  0  0  0  0  0  0  0
   39.8360   22.5200   38.3810 H   0  0  0  0  0  0  0  0  0  0  0  0
   41.5700   21.5650   37.3960 C   0  0  0  0  0  0  0  0  0  0  0  0
   42.1900   21.1240   38.1670 H   0  0  0  0  0  0  0  0  0  0  0  0
   41.8760   21.5040   36.0660 C   0  0  0  0  0  0  0  0  0  0  0  0
   42.7140   21.0520   35.5080 H   0  0  0  0  0  0  0  0  0  0  0  0
   40.9260   22.1280   35.4640 O   0  0  0  0  0  0  0  0  0  0  0  0
   37.3990   21.8840   34.4750 C   0  0  0  0  0  3  0  0  0  0  0  0
   38.4090   22.7000   34.4050 C   0  0  0  0  0  3  0  0  0  0  0  0
   35.1340   19.7600   32.4260 C   0  0  0  0  0  0  0  0  0  0  0  0
   35.6910   20.4360   33.5020 C   0  0  0  0  0  0  0  0  0  0  0  0
   36.8470   21.2090   33.3220 C   0  0  0  0  0  0  0  0  0  0  0  0
   37.3820   21.2680   32.0890 N   0  0  0  0  0  0  0  0  0  0  0  0
   36.8250   20.6070   31.0640 C   0  0  0  0  0  0  0  0  0  0  0  0
   35.7280   19.8680   31.2160 N   0  0  0  0  0  0  0  0  0  0  0  0
   34.2430   19.1620   32.5310 H   0  0  0  0  0  0  0  0  0  0  0  0
   35.1440   20.2900   34.4180 H   0  0  0  0  0  0  0  0  0  0  0  0
   37.2450   20.6370   30.0680 H   0  0  0  0  0  0  0  0  0  0  0  0
   39.4280   25.0370   35.2140 S   0  0  0  0  0  0  0  0  0  0  0  0
   38.3440   26.2440   35.9880 C   0  0  0  0  0  0  0  0  0  0  0  0
   38.8970   27.5220   36.0450 F   0  0  0  0  0  0  0  0  0  0  0  0
   37.0890   26.2520   35.4100 F   0  0  0  0  0  0  0  0  0  0  0  0
   38.1490   25.8140   37.3200 F   0  0  0  0  0  0  0  0  0  0  0  0
  1  3  1  0  0  0  0
  1  2  1  1  0  0  0
  3  4  2  0  0  0  0
  4  5  1  0  0  0  0
  6  4  1  0  0  0  0
  6  7  1  0  0  0  0
  8  6  2  0  0  0  0
  9  8  1  0  0  0  0
 10  8  1  0  0  0  0
 10  3  1  0  0  0  0
 12 11  2  0  0  0  0
 12  1  1  0  0  0  0
 13 19  1  0  0  0  0
 13 14  1  0  0  0  0
 14 20  1  0  0  0  0
 15 14  2  0  0  0  0
 15 11  1  0  0  0  0
 16 15  1  0  0  0  0
 17 18  1  0  0  0  0
 17 16  2  0  0  0  0
 18 13  2  0  0  0  0
 21 17  1  0  0  0  0
 22  1  1  0  0  0  0
 22 23  1  0  0  0  0
 23 24  1  0  0  0  0
 23 26  1  0  0  0  0
 25 23  1  0  0  0  0
M  END
>  <minimizedAffinity>
-4.70374537

$$$$

 OpenBabel03272502323D

 26 27  0  0  1  0  0  0  0  0999 V2000
   39.5610   23.4360   35.4300 C   0  0  2  0  0  0  0  0  0  0  0  0
   40.4790   23.4210   34.7670 H   0  0  0  0  0  0  0  0  0  0  0  0
   39.1490   24.8230   35.6290 C   0  0  0  0  0  0  0  0  0  0  0  0
   38.1850   25.4910   36.3210 C   0  0  0  0  0  0  0  0  0  0  0  0
   37.4640   24.9930   36.9150 H   0  0  0  0  0  0  0  0  0  0  0  0
   38.3580   26.8310   36.0700 C   0  0  0  0  0  0  0  0  0  0  0  0
   37.7880   27.6760   36.4360 H   0  0  0  0  0  0  0  0  0  0  0  0
   39.4270   26.9570   35.2300 C   0  0  0  0  0  0  0  0  0  0  0  0
   39.9230   27.8310   34.7710 H   0  0  0  0  0  0  0  0  0  0  0  0
   39.8410   25.7590   35.0130 O   0  0  0  0  0  0  0  0  0  0  0  0
   38.0320   22.8900   33.6780 C   0  0  0  0  0  3  0  0  0  0  0  0
   38.4870   22.5960   34.8610 C   0  0  0  0  0  3  0  0  0  0  0  0
   35.3750   20.3390   33.1530 C   0  0  0  0  0  0  0  0  0  0  0  0
   36.3760   21.0960   33.7430 C   0  0  0  0  0  0  0  0  0  0  0  0
   36.9840   22.1360   33.0250 C   0  0  0  0  0  0  0  0  0  0  0  0
   36.5650   22.3670   31.7680 N   0  0  0  0  0  0  0  0  0  0  0  0
   35.5940   21.6210   31.2190 C   0  0  0  0  0  0  0  0  0  0  0  0
   35.0060   20.6290   31.8840 N   0  0  0  0  0  0  0  0  0  0  0  0
   34.8850   19.5350   33.6790 H   0  0  0  0  0  0  0  0  0  0  0  0
   36.5950   20.7900   34.7510 H   0  0  0  0  0  0  0  0  0  0  0  0
   35.2490   21.7870   30.2070 H   0  0  0  0  0  0  0  0  0  0  0  0
   40.0270   22.6950   37.0450 S   0  0  0  0  0  0  0  0  0  0  0  0
   41.6290   21.8900   36.9140 C   0  0  0  0  0  0  0  0  0  0  0  0
   41.7470   21.0820   35.7840 F   0  0  0  0  0  0  0  0  0  0  0  0
   42.6680   22.7970   37.0090 F   0  0  0  0  0  0  0  0  0  0  0  0
   41.7500   21.0500   38.0430 F   0  0  0  0  0  0  0  0  0  0  0  0
  1  2  1  6  0  0  0
  1  3  1  0  0  0  0
  1 22  1  0  0  0  0
  3  4  2  0  0  0  0
  4  5  1  0  0  0  0
  6  4  1  0  0  0  0
  6  7  1  0  0  0  0
  8  6  2  0  0  0  0
  9  8  1  0  0  0  0
 10  8  1  0  0  0  0
 10  3  1  0  0  0  0
 11 12  2  0  0  0  0
 12  1  1  0  0  0  0
 13 19  1  0  0  0  0
 13 14  1  0  0  0  0
 14 20  1  0  0  0  0
 15 11  1  0  0  0  0
 15 14  2  0  0  0  0
 16 15  1  0  0  0  0
 17 16  2  0  0  0  0
 17 18  1  0  0  0  0
 18 13  2  0  0  0  0
 21 17  1  0  0  0  0
 23 25  1  0  0  0  0
 23 22  1  0  0  0  0
 23 26  1  0  0  0  0
 24 23  1  0  0  0  0
M  END
>  <minimizedAffinity>
-4.62912464

$$$$

 OpenBabel03272502323D

 26 27  0  0  1  0  0  0  0  0999 V2000
   36.6190   28.1920   32.4230 C   0  0  2  0  0  0  0  0  0  0  0  0
   37.7300   28.2680   32.6270 H   0  0  0  0  0  0  0  0  0  0  0  0
   36.3030   26.8140   32.0560 C   0  0  0  0  0  0  0  0  0  0  0  0
   36.7650   25.5680   32.3530 C   0  0  0  0  0  0  0  0  0  0  0  0
   37.5760   25.4050   33.0130 H   0  0  0  0  0  0  0  0  0  0  0  0
   36.0010   24.6710   31.6470 C   0  0  0  0  0  0  0  0  0  0  0  0
   36.0640   23.5900   31.6170 H   0  0  0  0  0  0  0  0  0  0  0  0
   35.0830   25.3860   30.9310 C   0  0  0  0  0  0  0  0  0  0  0  0
   34.2770   25.0920   30.2360 H   0  0  0  0  0  0  0  0  0  0  0  0
   35.3100   26.6210   31.2130 O   0  0  0  0  0  0  0  0  0  0  0  0
   35.7230   29.9530   33.7630 C   0  0  0  0  0  3  0  0  0  0  0  0
   35.8370   28.6700   33.5810 C   0  0  0  0  0  3  0  0  0  0  0  0
   34.9870   31.9790   36.7960 C   0  0  0  0  0  0  0  0  0  0  0  0
   35.6550   31.4090   35.7220 C   0  0  0  0  0  0  0  0  0  0  0  0
   34.9800   30.5320   34.8610 C   0  0  0  0  0  0  0  0  0  0  0  0
   33.6850   30.2730   35.1110 N   0  0  0  0  0  0  0  0  0  0  0  0
   33.0590   30.8370   36.1550 C   0  0  0  0  0  0  0  0  0  0  0  0
   33.6840   31.6710   36.9840 N   0  0  0  0  0  0  0  0  0  0  0  0
   35.4760   32.6600   37.4730 H   0  0  0  0  0  0  0  0  0  0  0  0
   36.6840   31.7190   35.6560 H   0  0  0  0  0  0  0  0  0  0  0  0
   32.0190   30.6350   36.3760 H   0  0  0  0  0  0  0  0  0  0  0  0
   36.2340   29.3060   31.0140 S   0  0  0  0  0  0  0  0  0  0  0  0
   37.5910   29.2990   29.8340 C   0  0  0  0  0  0  0  0  0  0  0  0
   37.2510   28.7270   28.6100 F   0  0  0  0  0  0  0  0  0  0  0  0
   38.1430   30.5560   29.6800 F   0  0  0  0  0  0  0  0  0  0  0  0
   38.6100   28.5000   30.3990 F   0  0  0  0  0  0  0  0  0  0  0  0
  1  2  1  1  0  0  0
  1 12  1  0  0  0  0
  3  4  2  0  0  0  0
  3  1  1  0  0  0  0
  4  5  1  0  0  0  0
  6  4  1  0  0  0  0
  7  6  1  0  0  0  0
  8 10  1  0  0  0  0
  8  6  2  0  0  0  0
  9  8  1  0  0  0  0
 10  3  1  0  0  0  0
 11 15  1  0  0  0  0
 12 11  2  0  0  0  0
 13 18  1  0  0  0  0
 13 19  1  0  0  0  0
 14 13  2  0  0  0  0
 15 16  2  0  0  0  0
 15 14  1  0  0  0  0
 16 17  1  0  0  0  0
 17 21  1  0  0  0  0
 17 18  2  0  0  0  0
 20 14  1  0  0  0  0
 22  1  1  0  0  0  0
 23 26  1  0  0  0  0
 23 22  1  0  0  0  0
 24 23  1  0  0  0  0
 25 23  1  0  0  0  0
M  END
>  <minimizedAffinity>
-4.51940584

$$$$

 OpenBabel03272502323D

 26 27  0  0  1  0  0  0  0  0999 V2000
   39.1870   23.9220   35.2110 C   0  0  2  0  0  0  0  0  0  0  0  0
   38.9580   22.8180   35.3090 H   0  0  0  0  0  0  0  0  0  0  0  0
   40.6290   24.1150   35.3320 C   0  0  0  0  0  0  0  0  0  0  0  0
   41.6930   23.4270   35.8320 C   0  0  0  0  0  0  0  0  0  0  0  0
   41.5900   22.4800   36.2930 H   0  0  0  0  0  0  0  0  0  0  0  0
   42.8110   24.1950   35.6180 C   0  0  0  0  0  0  0  0  0  0  0  0
   43.8430   23.9910   35.8770 H   0  0  0  0  0  0  0  0  0  0  0  0
   42.4110   25.3400   34.9890 C   0  0  0  0  0  0  0  0  0  0  0  0
   42.9570   26.2290   34.6280 H   0  0  0  0  0  0  0  0  0  0  0  0
   41.1370   25.2320   34.8510 O   0  0  0  0  0  0  0  0  0  0  0  0
   37.8500   25.4950   34.0100 C   0  0  0  0  0  3  0  0  0  0  0  0
   38.6400   24.4630   33.9500 C   0  0  0  0  0  3  0  0  0  0  0  0
   37.1310   28.0300   31.3840 C   0  0  0  0  0  0  0  0  0  0  0  0
   37.6790   27.3980   32.4910 C   0  0  0  0  0  0  0  0  0  0  0  0
   37.2600   26.1070   32.8410 C   0  0  0  0  0  0  0  0  0  0  0  0
   36.3250   25.5160   32.0750 N   0  0  0  0  0  0  0  0  0  0  0  0
   35.8100   26.1470   31.0090 C   0  0  0  0  0  0  0  0  0  0  0  0
   36.1950   27.3730   30.6610 N   0  0  0  0  0  0  0  0  0  0  0  0
   37.4350   29.0200   31.0860 H   0  0  0  0  0  0  0  0  0  0  0  0
   38.4150   28.0010   32.9960 H   0  0  0  0  0  0  0  0  0  0  0  0
   35.0530   25.6900   30.3850 H   0  0  0  0  0  0  0  0  0  0  0  0
   38.3330   24.7920   36.5860 S   0  0  0  0  0  0  0  0  0  0  0  0
   38.2510   23.7260   38.0320 C   0  0  0  0  0  0  0  0  0  0  0  0
   38.2530   24.4310   39.2340 F   0  0  0  0  0  0  0  0  0  0  0  0
   37.1930   22.8410   37.9560 F   0  0  0  0  0  0  0  0  0  0  0  0
   39.4180   22.9310   38.0120 F   0  0  0  0  0  0  0  0  0  0  0  0
  1  2  1  1  0  0  0
  1  3  1  0  0  0  0
  1 22  1  0  0  0  0
  3  4  2  0  0  0  0
  4  5  1  0  0  0  0
  6  4  1  0  0  0  0
  6  7  1  0  0  0  0
  8  6  2  0  0  0  0
  9  8  1  0  0  0  0
 10  8  1  0  0  0  0
 10  3  1  0  0  0  0
 12 11  2  0  0  0  0
 12  1  1  0  0  0  0
 13 14  1  0  0  0  0
 14 15  2  0  0  0  0
 14 20  1  0  0  0  0
 15 11  1  0  0  0  0
 16 15  1  0  0  0  0
 17 16  2  0  0  0  0
 18 17  1  0  0  0  0
 18 13  2  0  0  0  0
 19 13  1  0  0  0  0
 21 17  1  0  0  0  0
 22 23  1  0  0  0  0
 23 24  1  0  0  0  0
 25 23  1  0  0  0  0
 26 23  1  0  0  0  0
M  END
>  <minimizedAffinity>
-4.45997286

$$$$

 OpenBabel03272502323D

 26 27  0  0  1  0  0  0  0  0999 V2000
   34.8560   29.5630   34.3160 C   0  0  2  0  0  0  0  0  0  0  0  0
   34.2360   29.1170   35.1520 H   0  0  0  0  0  0  0  0  0  0  0  0
   35.3940   30.8450   34.7630 C   0  0  0  0  0  0  0  0  0  0  0  0
   35.6650   31.4580   35.9490 C   0  0  0  0  0  0  0  0  0  0  0  0
   35.4780   30.9950   36.8830 H   0  0  0  0  0  0  0  0  0  0  0  0
   36.1770   32.6990   35.6590 C   0  0  0  0  0  0  0  0  0  0  0  0
   36.5080   33.4790   36.3330 H   0  0  0  0  0  0  0  0  0  0  0  0
   36.2110   32.8220   34.2980 C   0  0  0  0  0  0  0  0  0  0  0  0
   36.5410   33.6320   33.6260 H   0  0  0  0  0  0  0  0  0  0  0  0
   35.7460   31.7150   33.8390 O   0  0  0  0  0  0  0  0  0  0  0  0
   36.6570   28.0680   34.7860 C   0  0  0  0  0  3  0  0  0  0  0  0
   35.9070   28.6220   33.8790 C   0  0  0  0  0  3  0  0  0  0  0  0
   39.9680   26.3750   34.9010 C   0  0  0  0  0  0  0  0  0  0  0  0
   38.9220   27.2440   35.1760 C   0  0  0  0  0  0  0  0  0  0  0  0
   37.7140   27.1320   34.4730 C   0  0  0  0  0  0  0  0  0  0  0  0
   37.6120   26.1670   33.5410 N   0  0  0  0  0  0  0  0  0  0  0  0
   38.6370   25.3390   33.2920 C   0  0  0  0  0  0  0  0  0  0  0  0
   39.7910   25.4300   33.9490 N   0  0  0  0  0  0  0  0  0  0  0  0
   40.9080   26.4320   35.4260 H   0  0  0  0  0  0  0  0  0  0  0  0
   39.1600   27.9550   35.9480 H   0  0  0  0  0  0  0  0  0  0  0  0
   38.5760   24.5620   32.5420 H   0  0  0  0  0  0  0  0  0  0  0  0
   33.7420   29.8330   32.8790 S   0  0  0  0  0  0  0  0  0  0  0  0
   32.1260   29.1170   33.2100 C   0  0  0  0  0  0  0  0  0  0  0  0
   31.0730   29.9870   32.9330 F   0  0  0  0  0  0  0  0  0  0  0  0
   31.9660   27.8980   32.5790 F   0  0  0  0  0  0  0  0  0  0  0  0
   32.0850   28.8390   34.5940 F   0  0  0  0  0  0  0  0  0  0  0  0
  1  3  1  0  0  0  0
  1  2  1  1  0  0  0
  3  4  2  0  0  0  0
  4  5  1  0  0  0  0
  6  4  1  0  0  0  0
  6  7  1  0  0  0  0
  8  6  2  0  0  0  0
  9  8  1  0  0  0  0
 10  8  1  0  0  0  0
 10  3  1  0  0  0  0
 12  1  1  0  0  0  0
 12 11  2  0  0  0  0
 13 14  1  0  0  0  0
 13 19  1  0  0  0  0
 14 20  1  0  0  0  0
 15 11  1  0  0  0  0
 15 14  2  0  0  0  0
 16 15  1  0  0  0  0
 17 16  2  0  0  0  0
 17 18  1  0  0  0  0
 18 13  2  0  0  0  0
 21 17  1  0  0  0  0
 22 23  1  0  0  0  0
 22  1  1  0  0  0  0
 23 26  1  0  0  0  0
 24 23  1  0  0  0  0
 25 23  1  0  0  0  0
M  END
>  <minimizedAffinity>
-4.41620445

$$$$

 OpenBabel03272502323D

 26 27  0  0  1  0  0  0  0  0999 V2000
   37.1020   26.7170   33.4670 C   0  0  2  0  0  0  0  0  0  0  0  0
   36.8360   26.3540   34.5060 H   0  0  0  0  0  0  0  0  0  0  0  0
   36.6170   25.7450   32.4920 C   0  0  0  0  0  0  0  0  0  0  0  0
   35.7820   25.7370   31.4160 C   0  0  0  0  0  0  0  0  0  0  0  0
   35.2720   26.6040   31.0870 H   0  0  0  0  0  0  0  0  0  0  0  0
   35.7620   24.4550   30.9250 C   0  0  0  0  0  0  0  0  0  0  0  0
   35.2160   24.0520   30.0810 H   0  0  0  0  0  0  0  0  0  0  0  0
   36.5880   23.7010   31.7090 C   0  0  0  0  0  0  0  0  0  0  0  0
   36.8760   22.6350   31.6900 H   0  0  0  0  0  0  0  0  0  0  0  0
   37.0530   24.5060   32.5970 O   0  0  0  0  0  0  0  0  0  0  0  0
   36.0320   28.7110   34.2310 C   0  0  0  0  0  3  0  0  0  0  0  0
   36.5730   28.0770   33.2320 C   0  0  0  0  0  3  0  0  0  0  0  0
   35.1380   32.0010   32.7430 C   0  0  0  0  0  0  0  0  0  0  0  0
   35.6370   30.7160   32.8960 C   0  0  0  0  0  0  0  0  0  0  0  0
   35.4830   30.0440   34.1160 C   0  0  0  0  0  0  0  0  0  0  0  0
   34.8430   30.6810   35.1130 N   0  0  0  0  0  0  0  0  0  0  0  0
   34.3680   31.9240   34.9420 C   0  0  0  0  0  0  0  0  0  0  0  0
   34.5050   32.5780   33.7910 N   0  0  0  0  0  0  0  0  0  0  0  0
   35.2360   32.5430   31.8170 H   0  0  0  0  0  0  0  0  0  0  0  0
   36.1180   30.3450   32.0070 H   0  0  0  0  0  0  0  0  0  0  0  0
   33.8570   32.4550   35.7340 H   0  0  0  0  0  0  0  0  0  0  0  0
   38.9340   26.8270   33.3670 S   0  0  0  0  0  0  0  0  0  0  0  0
   39.6460   26.7590   35.0160 C   0  0  0  0  0  0  0  0  0  0  0  0
   41.0290   26.9310   35.0240 F   0  0  0  0  0  0  0  0  0  0  0  0
   39.0140   27.6290   35.8840 F   0  0  0  0  0  0  0  0  0  0  0  0
   39.3830   25.4630   35.5140 F   0  0  0  0  0  0  0  0  0  0  0  0
  1  2  1  1  0  0  0
  3 10  1  0  0  0  0
  3  1  1  0  0  0  0
  4  3  2  0  0  0  0
  5  4  1  0  0  0  0
  6  4  1  0  0  0  0
  6  8  2  0  0  0  0
  7  6  1  0  0  0  0
  8 10  1  0  0  0  0
  9  8  1  0  0  0  0
 12  1  1  0  0  0  0
 12 11  2  0  0  0  0
 13 14  2  0  0  0  0
 13 18  1  0  0  0  0
 14 15  1  0  0  0  0
 15 11  1  0  0  0  0
 15 16  2  0  0  0  0
 17 16  1  0  0  0  0
 17 21  1  0  0  0  0
 18 17  2  0  0  0  0
 19 13  1  0  0  0  0
 20 14  1  0  0  0  0
 22  1  1  0  0  0  0
 22 23  1  0  0  0  0
 23 24  1  0  0  0  0
 23 26  1  0  0  0  0
 23 25  1  0  0  0  0
M  END
>  <minimizedAffinity>
-4.38626099

$$$$

 OpenBabel03272502323D

 26 27  0  0  1  0  0  0  0  0999 V2000
   38.8090   23.3090   35.6540 C   0  0  2  0  0  0  0  0  0  0  0  0
   38.1080   22.4280   35.7710 H   0  0  0  0  0  0  0  0  0  0  0  0
   40.1530   22.8970   36.0500 C   0  0  0  0  0  0  0  0  0  0  0  0
   41.4250   23.3620   35.9090 C   0  0  0  0  0  0  0  0  0  0  0  0
   41.6480   24.2540   35.3860 H   0  0  0  0  0  0  0  0  0  0  0  0
   42.2570   22.4690   36.5390 C   0  0  0  0  0  0  0  0  0  0  0  0
   43.3350   22.4910   36.6410 H   0  0  0  0  0  0  0  0  0  0  0  0
   41.4770   21.4740   37.0570 C   0  0  0  0  0  0  0  0  0  0  0  0
   41.7080   20.5630   37.6350 H   0  0  0  0  0  0  0  0  0  0  0  0
   40.2690   21.7810   36.7400 O   0  0  0  0  0  0  0  0  0  0  0  0
   38.4100   25.0880   34.1120 C   0  0  0  0  0  3  0  0  0  0  0  0
   38.7570   23.8460   34.2780 C   0  0  0  0  0  3  0  0  0  0  0  0
   37.0360   27.0500   31.2650 C   0  0  0  0  0  0  0  0  0  0  0  0
   37.1650   26.4400   32.5040 C   0  0  0  0  0  0  0  0  0  0  0  0
   38.3270   25.7170   32.8120 C   0  0  0  0  0  0  0  0  0  0  0  0
   39.2910   25.6420   31.8780 N   0  0  0  0  0  0  0  0  0  0  0  0
   39.1440   26.2410   30.6870 C   0  0  0  0  0  0  0  0  0  0  0  0
   38.0480   26.9310   30.3760 N   0  0  0  0  0  0  0  0  0  0  0  0
   36.1580   27.6160   30.9990 H   0  0  0  0  0  0  0  0  0  0  0  0
   36.3100   26.5950   33.1390 H   0  0  0  0  0  0  0  0  0  0  0  0
   39.9060   26.1860   29.9210 H   0  0  0  0  0  0  0  0  0  0  0  0
   38.2200   24.6410   36.7750 S   0  0  0  0  0  0  0  0  0  0  0  0
   37.9530   23.9830   38.4270 C   0  0  0  0  0  0  0  0  0  0  0  0
   37.3530   24.8970   39.2910 F   0  0  0  0  0  0  0  0  0  0  0  0
   37.2740   22.7810   38.3960 F   0  0  0  0  0  0  0  0  0  0  0  0
   39.2310   23.6870   38.9520 F   0  0  0  0  0  0  0  0  0  0  0  0
  1  2  1  1  0  0  0
  1  3  1  0  0  0  0
  1 22  1  0  0  0  0
  3 10  1  0  0  0  0
  4  3  2  0  0  0  0
  4  6  1  0  0  0  0
  5  4  1  0  0  0  0
  6  7  1  0  0  0  0
  6  8  2  0  0  0  0
  8  9  1  0  0  0  0
 10  8  1  0  0  0  0
 11 12  2  0  0  0  0
 12  1  1  0  0  0  0
 13 14  1  0  0  0  0
 14 15  2  0  0  0  0
 14 20  1  0  0  0  0
 15 11  1  0  0  0  0
 16 15  1  0  0  0  0
 17 16  2  0  0  0  0
 18 17  1  0  0  0  0
 18 13  2  0  0  0  0
 19 13  1  0  0  0  0
 21 17  1  0  0  0  0
 22 23  1  0  0  0  0
 23 26  1  0  0  0  0
 23 24  1  0  0  0  0
 25 23  1  0  0  0  0
M  END
>  <minimizedAffinity>
-4.37325382

$$$$
