
 OpenBabel03272505493D

 39 43  0  0  0  0  0  0  0  0999 V2000
   36.4290   30.4330   45.9180 C   0  0  0  0  0  0  0  0  0  0  0  0
   36.9570   30.7820   47.1080 C   0  0  0  0  0  0  0  0  0  0  0  0
   36.2510   30.5610   48.2800 C   0  0  0  0  0  0  0  0  0  0  0  0
   34.9910   29.9740   48.1900 C   0  0  0  0  0  0  0  0  0  0  0  0
   34.4500   29.6140   46.9450 C   0  0  0  0  0  0  0  0  0  0  0  0
   35.1990   29.8610   45.8500 N   0  0  0  0  0  0  0  0  0  0  0  0
   37.9370   31.2400   47.2000 H   0  0  0  0  0  0  0  0  0  0  0  0
   36.5980   30.8080   49.2640 H   0  0  0  0  0  0  0  0  0  0  0  0
   34.3690   29.7650   49.0540 H   0  0  0  0  0  0  0  0  0  0  0  0
   37.1910   30.6690   44.6360 C   0  0  0  0  0  0  0  0  0  0  0  0
   36.9940   29.7100   43.5120 C   0  0  0  0  0  0  0  0  0  0  0  0
   36.4060   31.0850   43.4280 C   0  0  0  0  0  0  0  0  0  0  0  0
   36.2880   28.8730   43.7310 H   0  0  0  0  0  0  0  0  0  0  0  0
   37.8570   29.4120   42.9190 H   0  0  0  0  0  0  0  0  0  0  0  0
   36.9320   31.7580   42.7210 H   0  0  0  0  0  0  0  0  0  0  0  0
   35.2990   31.1410   43.4650 H   0  0  0  0  0  0  0  0  0  0  0  0
   39.7310   33.3100   45.0810 C   0  0  0  0  0  0  0  0  0  0  0  0
   40.9040   32.5580   45.3180 C   0  0  0  0  0  0  0  0  0  0  0  0
   40.8130   31.1380   45.3210 C   0  0  0  0  0  0  0  0  0  0  0  0
   39.5980   30.6010   45.0970 N   0  0  0  0  0  0  0  0  0  0  0  0
   38.4820   31.3350   44.8720 C   0  0  0  0  0  0  0  0  0  0  0  0
   38.5470   32.6770   44.8640 N   0  0  0  0  0  0  0  0  0  0  0  0
   39.8030   34.3900   45.0780 H   0  0  0  0  0  0  0  0  0  0  0  0
   41.8320   33.0900   45.4870 H   0  0  0  0  0  0  0  0  0  0  0  0
   41.7060   30.5840   45.5020 H   0  0  0  0  0  0  0  0  0  0  0  0
   33.1390   28.9980   46.8050 C   0  0  0  0  0  0  0  0  0  0  0  0
   32.4760   28.5860   45.6930 N   0  0  0  0  0  0  0  0  0  0  0  0
   31.2720   28.0680   46.0460 C   0  0  0  0  0  0  0  0  0  0  0  0
   31.1990   28.1690   47.4100 N   0  0  0  0  0  0  0  0  0  0  0  0
   32.3190   28.7260   47.8630 N   0  0  0  0  0  0  0  0  0  0  0  0
   30.4830   27.6470   45.4500 H   0  0  0  0  0  0  0  0  0  0  0  0
   30.1500   27.7760   48.3160 C   0  0  0  0  0  0  0  0  0  0  0  0
   30.0800   27.1090   49.5250 C   0  0  0  0  0  0  0  0  0  0  0  0
   31.0100   26.7640   49.9630 H   0  0  0  0  0  0  0  0  0  0  0  0
   28.7300   27.0860   49.8270 C   0  0  0  0  0  0  0  0  0  0  0  0
   28.4280   26.5970   50.7630 H   0  0  0  0  0  0  0  0  0  0  0  0
   28.0510   27.7360   48.7970 C   0  0  0  0  0  0  0  0  0  0  0  0
   26.9840   27.7660   48.9490 H   0  0  0  0  0  0  0  0  0  0  0  0
   28.9400   28.1210   47.9350 O   0  0  0  0  0  0  0  0  0  0  0  0
  1  2  1  0  0  0  0
  2  7  1  0  0  0  0
  2  3  2  0  0  0  0
  3  8  1  0  0  0  0
  4  3  1  0  0  0  0
  4  9  1  0  0  0  0
  5  4  2  0  0  0  0
  6  1  2  0  0  0  0
  6  5  1  0  0  0  0
 10 21  1  0  0  0  0
 10  1  1  0  0  0  0
 11 13  1  0  0  0  0
 11 10  1  0  0  0  0
 12 16  1  0  0  0  0
 12 11  1  0  0  0  0
 12 10  1  0  0  0  0
 14 11  1  0  0  0  0
 15 12  1  0  0  0  0
 17 18  1  0  0  0  0
 18 19  2  0  0  0  0
 18 24  1  0  0  0  0
 19 25  1  0  0  0  0
 20 19  1  0  0  0  0
 21 20  2  0  0  0  0
 22 21  1  0  0  0  0
 22 17  2  0  0  0  0
 23 17  1  0  0  0  0
 26  5  1  0  0  0  0
 26 30  2  0  0  0  0
 27 28  2  0  0  0  0
 27 26  1  0  0  0  0
 28 29  1  0  0  0  0
 29 30  1  0  0  0  0
 29 32  1  0  0  0  0
 31 28  1  0  0  0  0
 32 33  2  0  0  0  0
 33 35  1  0  0  0  0
 33 34  1  0  0  0  0
 35 36  1  0  0  0  0
 37 38  1  0  0  0  0
 37 35  2  0  0  0  0
 39 32  1  0  0  0  0
 39 37  1  0  0  0  0
M  END
>  <minimizedAffinity>
-5.54662848

>  <minimizedRMSD>
0.958253264

$$$$
