
 OpenBabel03272507063D

 30 33  0  0  0  0  0  0  0  0999 V2000
   36.0460   29.4440   31.9130 C   0  0  0  0  0  0  0  0  0  0  0  0
   35.5390   30.3280   32.8880 C   0  0  0  0  0  0  0  0  0  0  0  0
   35.6120   29.9000   34.2230 C   0  0  0  0  0  0  0  0  0  0  0  0
   36.1490   28.6890   34.5230 N   0  0  0  0  0  0  0  0  0  0  0  0
   36.6240   27.8730   33.5540 C   0  0  0  0  0  0  0  0  0  0  0  0
   36.5670   28.2580   32.2640 N   0  0  0  0  0  0  0  0  0  0  0  0
   36.0080   29.7330   30.8890 H   0  0  0  0  0  0  0  0  0  0  0  0
   35.1240   31.2710   32.6220 H   0  0  0  0  0  0  0  0  0  0  0  0
   37.4730   25.6610   32.9330 C   0  0  0  0  0  0  0  0  0  0  0  0
   37.1890   26.5870   33.9320 C   0  0  0  0  0  0  0  0  0  0  0  0
   37.4350   26.3000   35.2490 C   0  0  0  0  0  0  0  0  0  0  0  0
   37.9700   25.0880   35.6250 C   0  0  0  0  0  0  0  0  0  0  0  0
   38.3030   24.5590   36.8220 N   0  0  0  0  0  0  0  0  0  0  0  0
   38.7820   23.3220   36.5150 C   0  0  0  0  0  0  0  0  0  0  0  0
   38.7460   23.0960   35.1910 N   0  0  0  0  0  0  0  0  0  0  0  0
   38.2400   24.1940   34.6180 C   0  0  0  0  0  0  0  0  0  0  0  0
   38.0140   24.4280   33.2810 C   0  0  0  0  0  0  0  0  0  0  0  0
   37.2750   25.8970   31.8940 H   0  0  0  0  0  0  0  0  0  0  0  0
   37.1860   27.0770   35.9770 H   0  0  0  0  0  0  0  0  0  0  0  0
   38.1790   25.0690   37.7020 H   0  0  0  0  0  0  0  0  0  0  0  0
   39.1290   22.6700   37.3220 H   0  0  0  0  0  0  0  0  0  0  0  0
   38.2380   23.7000   32.5010 H   0  0  0  0  0  0  0  0  0  0  0  0
   35.1010   30.7820   35.2670 C   0  0  0  0  0  0  0  0  0  0  0  0
   35.8710   31.6890   35.9660 C   0  0  0  0  0  0  0  0  0  0  0  0
   36.9200   31.9330   35.9100 H   0  0  0  0  0  0  0  0  0  0  0  0
   34.9810   32.2880   36.8340 C   0  0  0  0  0  0  0  0  0  0  0  0
   35.1230   33.0710   37.5890 H   0  0  0  0  0  0  0  0  0  0  0  0
   33.7220   31.7240   36.6250 C   0  0  0  0  0  0  0  0  0  0  0  0
   32.7360   31.8970   37.0880 H   0  0  0  0  0  0  0  0  0  0  0  0
   33.8660   30.8160   35.6610 O   0  0  0  0  0  0  0  0  0  0  0  0
  1  6  2  0  0  0  0
  1  2  1  0  0  0  0
  2  3  2  0  0  0  0
  3  4  1  0  0  0  0
  3 23  1  0  0  0  0
  5 10  1  0  0  0  0
  5  4  2  0  0  0  0
  6  5  1  0  0  0  0
  7  1  1  0  0  0  0
  8  2  1  0  0  0  0
  9 17  2  0  0  0  0
  9 10  1  0  0  0  0
 10 11  2  0  0  0  0
 11 12  1  0  0  0  0
 11 19  1  0  0  0  0
 12 13  1  0  0  0  0
 13 20  1  0  0  0  0
 14 13  1  0  0  0  0
 14 21  1  0  0  0  0
 15 14  2  0  0  0  0
 16 15  1  0  0  0  0
 16 12  2  0  0  0  0
 17 16  1  0  0  0  0
 18  9  1  0  0  0  0
 22 17  1  0  0  0  0
 23 30  1  0  0  0  0
 23 24  2  0  0  0  0
 24 26  1  0  0  0  0
 25 24  1  0  0  0  0
 26 27  1  0  0  0  0
 28 26  2  0  0  0  0
 28 29  1  0  0  0  0
 30 28  1  0  0  0  0
M  END
>  <minimizedAffinity>
-5.46949005

$$$$

 OpenBabel03272507063D

 30 33  0  0  0  0  0  0  0  0999 V2000
   38.0570   27.4310   35.2760 C   0  0  0  0  0  0  0  0  0  0  0  0
   37.2060   27.1380   34.1890 C   0  0  0  0  0  0  0  0  0  0  0  0
   37.3960   25.8990   33.5590 C   0  0  0  0  0  0  0  0  0  0  0  0
   38.3620   25.0500   33.9980 N   0  0  0  0  0  0  0  0  0  0  0  0
   39.1570   25.3730   35.0440 C   0  0  0  0  0  0  0  0  0  0  0  0
   38.9960   26.5560   35.6700 N   0  0  0  0  0  0  0  0  0  0  0  0
   37.9440   28.3610   35.7800 H   0  0  0  0  0  0  0  0  0  0  0  0
   36.4580   27.8230   33.8690 H   0  0  0  0  0  0  0  0  0  0  0  0
   41.4540   24.5300   34.9390 C   0  0  0  0  0  0  0  0  0  0  0  0
   40.1740   24.4270   35.4740 C   0  0  0  0  0  0  0  0  0  0  0  0
   39.8700   23.4540   36.3900 C   0  0  0  0  0  0  0  0  0  0  0  0
   40.8210   22.5490   36.8080 C   0  0  0  0  0  0  0  0  0  0  0  0
   40.7910   21.5170   37.6780 N   0  0  0  0  0  0  0  0  0  0  0  0
   42.0580   21.0200   37.6450 C   0  0  0  0  0  0  0  0  0  0  0  0
   42.8350   21.7130   36.7960 N   0  0  0  0  0  0  0  0  0  0  0  0
   42.0750   22.6750   36.2620 C   0  0  0  0  0  0  0  0  0  0  0  0
   42.4350   23.6320   35.3410 C   0  0  0  0  0  0  0  0  0  0  0  0
   41.6850   25.3030   34.2140 H   0  0  0  0  0  0  0  0  0  0  0  0
   38.8440   23.4350   36.7670 H   0  0  0  0  0  0  0  0  0  0  0  0
   39.9440   21.2560   38.1920 H   0  0  0  0  0  0  0  0  0  0  0  0
   42.3100   20.1600   38.2720 H   0  0  0  0  0  0  0  0  0  0  0  0
   43.4400   23.7090   34.9230 H   0  0  0  0  0  0  0  0  0  0  0  0
   36.5390   25.5510   32.4300 C   0  0  0  0  0  0  0  0  0  0  0  0
   36.3890   24.2730   31.9330 C   0  0  0  0  0  0  0  0  0  0  0  0
   36.8240   23.3310   32.2290 H   0  0  0  0  0  0  0  0  0  0  0  0
   35.4990   24.4210   30.8870 C   0  0  0  0  0  0  0  0  0  0  0  0
   35.0740   23.6890   30.1900 H   0  0  0  0  0  0  0  0  0  0  0  0
   35.1520   25.7700   30.7980 C   0  0  0  0  0  0  0  0  0  0  0  0
   34.4840   26.3290   30.1240 H   0  0  0  0  0  0  0  0  0  0  0  0
   35.8200   26.4000   31.7650 O   0  0  0  0  0  0  0  0  0  0  0  0
  1  6  1  0  0  0  0
  1  7  1  0  0  0  0
  2  1  2  0  0  0  0
  3  4  2  0  0  0  0
  3  2  1  0  0  0  0
  4  5  1  0  0  0  0
  5 10  1  0  0  0  0
  5  6  2  0  0  0  0
  8  2  1  0  0  0  0
  9 17  2  0  0  0  0
  9 10  1  0  0  0  0
 10 11  2  0  0  0  0
 11 19  1  0  0  0  0
 11 12  1  0  0  0  0
 12 13  1  0  0  0  0
 13 20  1  0  0  0  0
 14 13  1  0  0  0  0
 14 21  1  0  0  0  0
 15 14  2  0  0  0  0
 16 15  1  0  0  0  0
 16 12  2  0  0  0  0
 17 16  1  0  0  0  0
 18  9  1  0  0  0  0
 22 17  1  0  0  0  0
 23  3  1  0  0  0  0
 24 25  1  0  0  0  0
 24 23  2  0  0  0  0
 26 24  1  0  0  0  0
 27 26  1  0  0  0  0
 28 26  2  0  0  0  0
 28 30  1  0  0  0  0
 29 28  1  0  0  0  0
 30 23  1  0  0  0  0
M  END
>  <minimizedAffinity>
-5.46452045

$$$$

 OpenBabel03272507063D

 30 33  0  0  0  0  0  0  0  0999 V2000
   38.3050   23.8640   38.2910 C   0  0  0  0  0  0  0  0  0  0  0  0
   39.3770   22.9830   38.0340 C   0  0  0  0  0  0  0  0  0  0  0  0
   39.9100   23.0040   36.7360 C   0  0  0  0  0  0  0  0  0  0  0  0
   39.3960   23.8440   35.7990 N   0  0  0  0  0  0  0  0  0  0  0  0
   38.3670   24.6730   36.0900 C   0  0  0  0  0  0  0  0  0  0  0  0
   37.8350   24.6740   37.3290 N   0  0  0  0  0  0  0  0  0  0  0  0
   37.8740   23.8780   39.2630 H   0  0  0  0  0  0  0  0  0  0  0  0
   39.7580   22.3380   38.7880 H   0  0  0  0  0  0  0  0  0  0  0  0
   37.5310   26.8630   35.3810 C   0  0  0  0  0  0  0  0  0  0  0  0
   37.8550   25.5520   35.0500 C   0  0  0  0  0  0  0  0  0  0  0  0
   37.6980   25.0880   33.7700 C   0  0  0  0  0  0  0  0  0  0  0  0
   37.2140   25.9060   32.7730 C   0  0  0  0  0  0  0  0  0  0  0  0
   36.9670   25.7100   31.4600 N   0  0  0  0  0  0  0  0  0  0  0  0
   36.4970   26.9130   31.0290 C   0  0  0  0  0  0  0  0  0  0  0  0
   36.4560   27.8110   32.0280 N   0  0  0  0  0  0  0  0  0  0  0  0
   36.9020   27.1950   33.1290 C   0  0  0  0  0  0  0  0  0  0  0  0
   37.0400   27.7130   34.3970 C   0  0  0  0  0  0  0  0  0  0  0  0
   37.6580   27.2200   36.3970 H   0  0  0  0  0  0  0  0  0  0  0  0
   37.9740   24.0460   33.5860 H   0  0  0  0  0  0  0  0  0  0  0  0
   37.1340   24.8110   30.9970 H   0  0  0  0  0  0  0  0  0  0  0  0
   36.2160   27.0310   29.9780 H   0  0  0  0  0  0  0  0  0  0  0  0
   36.7840   28.7410   34.6520 H   0  0  0  0  0  0  0  0  0  0  0  0
   41.0200   22.1110   36.4230 C   0  0  0  0  0  0  0  0  0  0  0  0
   41.7230   21.3840   37.3620 C   0  0  0  0  0  0  0  0  0  0  0  0
   41.6270   21.3140   38.4340 H   0  0  0  0  0  0  0  0  0  0  0  0
   42.6620   20.6950   36.6210 C   0  0  0  0  0  0  0  0  0  0  0  0
   43.4470   19.9900   36.9240 H   0  0  0  0  0  0  0  0  0  0  0  0
   42.4900   21.0310   35.2780 C   0  0  0  0  0  0  0  0  0  0  0  0
   43.0080   20.7230   34.3560 H   0  0  0  0  0  0  0  0  0  0  0  0
   41.4760   21.8950   35.2280 O   0  0  0  0  0  0  0  0  0  0  0  0
  1  7  1  0  0  0  0
  2  1  1  0  0  0  0
  2  8  1  0  0  0  0
  3  2  2  0  0  0  0
  4  5  2  0  0  0  0
  4  3  1  0  0  0  0
  5  6  1  0  0  0  0
  6  1  2  0  0  0  0
  9 18  1  0  0  0  0
 10  9  1  0  0  0  0
 10  5  1  0  0  0  0
 11 10  2  0  0  0  0
 12 16  2  0  0  0  0
 12 11  1  0  0  0  0
 13 12  1  0  0  0  0
 14 13  1  0  0  0  0
 14 15  2  0  0  0  0
 15 16  1  0  0  0  0
 16 17  1  0  0  0  0
 17 22  1  0  0  0  0
 17  9  2  0  0  0  0
 19 11  1  0  0  0  0
 20 13  1  0  0  0  0
 21 14  1  0  0  0  0
 23  3  1  0  0  0  0
 23 24  2  0  0  0  0
 24 25  1  0  0  0  0
 26 27  1  0  0  0  0
 26 24  1  0  0  0  0
 28 26  2  0  0  0  0
 29 28  1  0  0  0  0
 30 28  1  0  0  0  0
 30 23  1  0  0  0  0
M  END
>  <minimizedAffinity>
-5.45871496

$$$$

 OpenBabel03272507063D

 30 33  0  0  0  0  0  0  0  0999 V2000
   36.1490   27.8500   32.0680 C   0  0  0  0  0  0  0  0  0  0  0  0
   35.6600   28.9730   32.7690 C   0  0  0  0  0  0  0  0  0  0  0  0
   35.9100   29.0080   34.1500 C   0  0  0  0  0  0  0  0  0  0  0  0
   36.5910   27.9950   34.7470 N   0  0  0  0  0  0  0  0  0  0  0  0
   37.0410   26.9370   34.0350 C   0  0  0  0  0  0  0  0  0  0  0  0
   36.8160   26.8760   32.7070 N   0  0  0  0  0  0  0  0  0  0  0  0
   35.9790   27.7870   31.0200 H   0  0  0  0  0  0  0  0  0  0  0  0
   35.1310   29.7500   32.2730 H   0  0  0  0  0  0  0  0  0  0  0  0
   38.7160   25.1500   34.0190 C   0  0  0  0  0  0  0  0  0  0  0  0
   37.7650   25.8800   34.7240 C   0  0  0  0  0  0  0  0  0  0  0  0
   37.5090   25.6160   36.0440 C   0  0  0  0  0  0  0  0  0  0  0  0
   38.1840   24.6180   36.7130 C   0  0  0  0  0  0  0  0  0  0  0  0
   38.1290   24.1590   37.9820 N   0  0  0  0  0  0  0  0  0  0  0  0
   39.0510   23.1590   38.0110 C   0  0  0  0  0  0  0  0  0  0  0  0
   39.6490   23.0060   36.8170 N   0  0  0  0  0  0  0  0  0  0  0  0
   39.1160   23.9140   35.9920 C   0  0  0  0  0  0  0  0  0  0  0  0
   39.4140   24.1370   34.6670 C   0  0  0  0  0  0  0  0  0  0  0  0
   38.9120   25.3660   32.9750 H   0  0  0  0  0  0  0  0  0  0  0  0
   36.7480   26.2320   36.5320 H   0  0  0  0  0  0  0  0  0  0  0  0
   37.4930   24.5540   38.6820 H   0  0  0  0  0  0  0  0  0  0  0  0
   39.2110   22.6080   38.9430 H   0  0  0  0  0  0  0  0  0  0  0  0
   40.1600   23.5620   34.1180 H   0  0  0  0  0  0  0  0  0  0  0  0
   35.4250   30.1500   34.9180 C   0  0  0  0  0  0  0  0  0  0  0  0
   36.2300   30.9810   35.6700 C   0  0  0  0  0  0  0  0  0  0  0  0
   37.2940   30.9810   35.8480 H   0  0  0  0  0  0  0  0  0  0  0  0
   35.3530   31.9010   36.2080 C   0  0  0  0  0  0  0  0  0  0  0  0
   35.5220   32.7580   36.8730 H   0  0  0  0  0  0  0  0  0  0  0  0
   34.0680   31.5920   35.7640 C   0  0  0  0  0  0  0  0  0  0  0  0
   33.0820   32.0510   35.9410 H   0  0  0  0  0  0  0  0  0  0  0  0
   34.1830   30.5170   34.9840 O   0  0  0  0  0  0  0  0  0  0  0  0
  1  6  2  0  0  0  0
  1  2  1  0  0  0  0
  2  3  2  0  0  0  0
  3  4  1  0  0  0  0
  3 23  1  0  0  0  0
  5 10  1  0  0  0  0
  5  4  2  0  0  0  0
  6  5  1  0  0  0  0
  7  1  1  0  0  0  0
  8  2  1  0  0  0  0
  9 17  2  0  0  0  0
  9 10  1  0  0  0  0
 10 11  2  0  0  0  0
 11 19  1  0  0  0  0
 11 12  1  0  0  0  0
 12 13  1  0  0  0  0
 13 14  1  0  0  0  0
 13 20  1  0  0  0  0
 14 21  1  0  0  0  0
 15 14  2  0  0  0  0
 16 12  2  0  0  0  0
 16 15  1  0  0  0  0
 17 16  1  0  0  0  0
 18  9  1  0  0  0  0
 22 17  1  0  0  0  0
 23 30  1  0  0  0  0
 23 24  2  0  0  0  0
 24 25  1  0  0  0  0
 24 26  1  0  0  0  0
 26 27  1  0  0  0  0
 28 29  1  0  0  0  0
 28 26  2  0  0  0  0
 30 28  1  0  0  0  0
M  END
>  <minimizedAffinity>
-5.38966799

$$$$

 OpenBabel03272507063D

 30 33  0  0  0  0  0  0  0  0999 V2000
   38.1920   24.2730   32.5270 C   0  0  0  0  0  0  0  0  0  0  0  0
   38.5000   23.7630   33.8050 C   0  0  0  0  0  0  0  0  0  0  0  0
   38.1710   24.5740   34.9020 C   0  0  0  0  0  0  0  0  0  0  0  0
   37.5870   25.7850   34.7050 N   0  0  0  0  0  0  0  0  0  0  0  0
   37.3100   26.2360   33.4600 C   0  0  0  0  0  0  0  0  0  0  0  0
   37.6140   25.4770   32.3870 N   0  0  0  0  0  0  0  0  0  0  0  0
   38.4260   23.6880   31.6700 H   0  0  0  0  0  0  0  0  0  0  0  0
   38.9570   22.8100   33.9280 H   0  0  0  0  0  0  0  0  0  0  0  0
   36.3270   28.2500   34.4470 C   0  0  0  0  0  0  0  0  0  0  0  0
   36.6830   27.5400   33.3060 C   0  0  0  0  0  0  0  0  0  0  0  0
   36.4520   28.0510   32.0560 C   0  0  0  0  0  0  0  0  0  0  0  0
   35.8590   29.2840   31.8910 C   0  0  0  0  0  0  0  0  0  0  0  0
   35.5240   30.0060   30.8010 N   0  0  0  0  0  0  0  0  0  0  0  0
   34.9710   31.1390   31.3130 C   0  0  0  0  0  0  0  0  0  0  0  0
   34.9640   31.1190   32.6570 N   0  0  0  0  0  0  0  0  0  0  0  0
   35.5180   29.9620   33.0350 C   0  0  0  0  0  0  0  0  0  0  0  0
   35.7270   29.4970   34.3140 C   0  0  0  0  0  0  0  0  0  0  0  0
   36.5140   27.8370   35.4320 H   0  0  0  0  0  0  0  0  0  0  0  0
   36.7590   27.4350   31.2070 H   0  0  0  0  0  0  0  0  0  0  0  0
   35.6950   29.6730   29.8470 H   0  0  0  0  0  0  0  0  0  0  0  0
   34.6070   31.9120   30.6290 H   0  0  0  0  0  0  0  0  0  0  0  0
   35.4460   30.0580   35.2060 H   0  0  0  0  0  0  0  0  0  0  0  0
   38.4700   24.0880   36.2450 C   0  0  0  0  0  0  0  0  0  0  0  0
   37.7740   24.4550   37.3780 C   0  0  0  0  0  0  0  0  0  0  0  0
   36.9360   25.1190   37.5230 H   0  0  0  0  0  0  0  0  0  0  0  0
   38.3980   23.7610   38.3960 C   0  0  0  0  0  0  0  0  0  0  0  0
   38.2020   23.7280   39.4750 H   0  0  0  0  0  0  0  0  0  0  0  0
   39.4330   23.0090   37.8400 C   0  0  0  0  0  0  0  0  0  0  0  0
   40.1770   22.3210   38.2740 H   0  0  0  0  0  0  0  0  0  0  0  0
   39.4220   23.2550   36.5300 O   0  0  0  0  0  0  0  0  0  0  0  0
  1  2  1  0  0  0  0
  2  8  1  0  0  0  0
  2  3  2  0  0  0  0
  3 23  1  0  0  0  0
  4  3  1  0  0  0  0
  5  4  2  0  0  0  0
  6  1  2  0  0  0  0
  6  5  1  0  0  0  0
  7  1  1  0  0  0  0
  9 18  1  0  0  0  0
 10  5  1  0  0  0  0
 10  9  2  0  0  0  0
 11 10  1  0  0  0  0
 12 11  2  0  0  0  0
 12 16  1  0  0  0  0
 13 14  1  0  0  0  0
 13 12  1  0  0  0  0
 14 15  2  0  0  0  0
 15 16  1  0  0  0  0
 16 17  2  0  0  0  0
 17  9  1  0  0  0  0
 17 22  1  0  0  0  0
 19 11  1  0  0  0  0
 20 13  1  0  0  0  0
 21 14  1  0  0  0  0
 23 30  1  0  0  0  0
 23 24  2  0  0  0  0
 24 25  1  0  0  0  0
 24 26  1  0  0  0  0
 26 27  1  0  0  0  0
 28 29  1  0  0  0  0
 28 26  2  0  0  0  0
 30 28  1  0  0  0  0
M  END
>  <minimizedAffinity>
-5.34681368

$$$$

 OpenBabel03272507063D

 30 33  0  0  0  0  0  0  0  0999 V2000
   35.5050   25.8950   31.0280 C   0  0  0  0  0  0  0  0  0  0  0  0
   36.3010   26.5130   32.0160 C   0  0  0  0  0  0  0  0  0  0  0  0
   37.0280   25.6610   32.8610 C   0  0  0  0  0  0  0  0  0  0  0  0
   36.9450   24.3130   32.7080 N   0  0  0  0  0  0  0  0  0  0  0  0
   36.1680   23.7630   31.7470 C   0  0  0  0  0  0  0  0  0  0  0  0
   35.4590   24.5570   30.9200 N   0  0  0  0  0  0  0  0  0  0  0  0
   34.9390   26.5070   30.3680 H   0  0  0  0  0  0  0  0  0  0  0  0
   36.3460   27.5710   32.1100 H   0  0  0  0  0  0  0  0  0  0  0  0
   35.1030   21.6240   32.2840 C   0  0  0  0  0  0  0  0  0  0  0  0
   36.1160   22.3140   31.6270 C   0  0  0  0  0  0  0  0  0  0  0  0
   37.0520   21.6490   30.8790 C   0  0  0  0  0  0  0  0  0  0  0  0
   37.0190   20.2780   30.7540 C   0  0  0  0  0  0  0  0  0  0  0  0
   37.7980   19.3940   30.0950 N   0  0  0  0  0  0  0  0  0  0  0  0
   37.2340   18.1860   30.3720 C   0  0  0  0  0  0  0  0  0  0  0  0
   36.1560   18.3170   31.1650 N   0  0  0  0  0  0  0  0  0  0  0  0
   36.0080   19.6230   31.4130 C   0  0  0  0  0  0  0  0  0  0  0  0
   35.0430   20.2390   32.1770 C   0  0  0  0  0  0  0  0  0  0  0  0
   34.3670   22.1580   32.8730 H   0  0  0  0  0  0  0  0  0  0  0  0
   37.8180   22.2600   30.3910 H   0  0  0  0  0  0  0  0  0  0  0  0
   38.6100   19.6830   29.5400 H   0  0  0  0  0  0  0  0  0  0  0  0
   37.6800   17.2800   29.9510 H   0  0  0  0  0  0  0  0  0  0  0  0
   34.2500   19.6930   32.6900 H   0  0  0  0  0  0  0  0  0  0  0  0
   37.8660   26.2550   33.8970 C   0  0  0  0  0  0  0  0  0  0  0  0
   39.2130   26.5160   33.7530 C   0  0  0  0  0  0  0  0  0  0  0  0
   39.8910   26.3600   32.9280 H   0  0  0  0  0  0  0  0  0  0  0  0
   39.5810   27.0660   34.9650 C   0  0  0  0  0  0  0  0  0  0  0  0
   40.5490   27.4330   35.3290 H   0  0  0  0  0  0  0  0  0  0  0  0
   38.4520   27.1140   35.7820 C   0  0  0  0  0  0  0  0  0  0  0  0
   38.2860   27.4690   36.8130 H   0  0  0  0  0  0  0  0  0  0  0  0
   37.4450   26.6050   35.0720 O   0  0  0  0  0  0  0  0  0  0  0  0
  1  2  1  0  0  0  0
  2  8  1  0  0  0  0
  2  3  2  0  0  0  0
  3 23  1  0  0  0  0
  4  3  1  0  0  0  0
  5  4  2  0  0  0  0
  6  1  2  0  0  0  0
  6  5  1  0  0  0  0
  7  1  1  0  0  0  0
  9 18  1  0  0  0  0
 10  5  1  0  0  0  0
 10  9  2  0  0  0  0
 11 10  1  0  0  0  0
 12 11  2  0  0  0  0
 12 16  1  0  0  0  0
 13 14  1  0  0  0  0
 13 12  1  0  0  0  0
 14 15  2  0  0  0  0
 15 16  1  0  0  0  0
 16 17  2  0  0  0  0
 17  9  1  0  0  0  0
 17 22  1  0  0  0  0
 19 11  1  0  0  0  0
 20 13  1  0  0  0  0
 21 14  1  0  0  0  0
 23 30  1  0  0  0  0
 24 23  2  0  0  0  0
 24 26  1  0  0  0  0
 25 24  1  0  0  0  0
 26 27  1  0  0  0  0
 26 28  2  0  0  0  0
 28 29  1  0  0  0  0
 30 28  1  0  0  0  0
M  END
>  <minimizedAffinity>
-5.33771515

$$$$

 OpenBabel03272507063D

 30 33  0  0  0  0  0  0  0  0999 V2000
   36.9700   28.4220   31.9370 C   0  0  0  0  0  0  0  0  0  0  0  0
   37.5080   27.2780   32.5630 C   0  0  0  0  0  0  0  0  0  0  0  0
   37.1770   27.0860   33.9130 C   0  0  0  0  0  0  0  0  0  0  0  0
   36.3760   27.9780   34.5530 N   0  0  0  0  0  0  0  0  0  0  0  0
   35.8820   29.0630   33.9130 C   0  0  0  0  0  0  0  0  0  0  0  0
   36.1840   29.2720   32.6160 N   0  0  0  0  0  0  0  0  0  0  0  0
   37.1990   28.6030   30.9140 H   0  0  0  0  0  0  0  0  0  0  0  0
   38.1320   26.5980   32.0340 H   0  0  0  0  0  0  0  0  0  0  0  0
   33.6670   30.0030   34.3680 C   0  0  0  0  0  0  0  0  0  0  0  0
   35.0300   29.9850   34.6470 C   0  0  0  0  0  0  0  0  0  0  0  0
   35.5670   30.8180   35.5930 C   0  0  0  0  0  0  0  0  0  0  0  0
   34.7740   31.6980   36.2960 C   0  0  0  0  0  0  0  0  0  0  0  0
   35.0380   32.6080   37.2590 N   0  0  0  0  0  0  0  0  0  0  0  0
   33.8230   33.1550   37.5380 C   0  0  0  0  0  0  0  0  0  0  0  0
   32.8530   32.6090   36.7840 N   0  0  0  0  0  0  0  0  0  0  0  0
   33.4340   31.6940   36.0000 C   0  0  0  0  0  0  0  0  0  0  0  0
   32.8410   30.8800   35.0610 C   0  0  0  0  0  0  0  0  0  0  0  0
   33.2510   29.3400   33.6170 H   0  0  0  0  0  0  0  0  0  0  0  0
   36.6450   30.7470   35.7570 H   0  0  0  0  0  0  0  0  0  0  0  0
   35.9830   32.7660   37.6220 H   0  0  0  0  0  0  0  0  0  0  0  0
   33.7520   33.9360   38.3010 H   0  0  0  0  0  0  0  0  0  0  0  0
   31.7730   30.8980   34.8460 H   0  0  0  0  0  0  0  0  0  0  0  0
   37.7090   25.9150   34.6020 C   0  0  0  0  0  0  0  0  0  0  0  0
   38.0280   25.8810   35.9440 C   0  0  0  0  0  0  0  0  0  0  0  0
   37.9650   26.6320   36.7170 H   0  0  0  0  0  0  0  0  0  0  0  0
   38.4860   24.5950   36.1490 C   0  0  0  0  0  0  0  0  0  0  0  0
   38.8540   24.0930   37.0520 H   0  0  0  0  0  0  0  0  0  0  0  0
   38.4250   23.9120   34.9340 C   0  0  0  0  0  0  0  0  0  0  0  0
   38.6870   22.8840   34.6370 H   0  0  0  0  0  0  0  0  0  0  0  0
   37.9450   24.7730   34.0360 O   0  0  0  0  0  0  0  0  0  0  0  0
  1  2  2  0  0  0  0
  1  6  1  0  0  0  0
  2  3  1  0  0  0  0
  3  4  2  0  0  0  0
  3 23  1  0  0  0  0
  5  4  1  0  0  0  0
  5 10  1  0  0  0  0
  6  5  2  0  0  0  0
  7  1  1  0  0  0  0
  8  2  1  0  0  0  0
  9 10  2  0  0  0  0
  9 17  1  0  0  0  0
 10 11  1  0  0  0  0
 11 19  1  0  0  0  0
 11 12  2  0  0  0  0
 12 13  1  0  0  0  0
 13 14  1  0  0  0  0
 13 20  1  0  0  0  0
 14 21  1  0  0  0  0
 15 14  2  0  0  0  0
 16 12  1  0  0  0  0
 16 15  1  0  0  0  0
 17 16  2  0  0  0  0
 18  9  1  0  0  0  0
 22 17  1  0  0  0  0
 23 24  2  0  0  0  0
 24 26  1  0  0  0  0
 24 25  1  0  0  0  0
 26 27  1  0  0  0  0
 28 26  2  0  0  0  0
 29 28  1  0  0  0  0
 30 23  1  0  0  0  0
 30 28  1  0  0  0  0
M  END
>  <minimizedAffinity>
-5.33092356

$$$$

 OpenBabel03272507063D

 30 33  0  0  0  0  0  0  0  0999 V2000
   35.5750   28.1400   32.0890 C   0  0  0  0  0  0  0  0  0  0  0  0
   35.0830   29.1590   32.9310 C   0  0  0  0  0  0  0  0  0  0  0  0
   35.6990   29.2910   34.1850 C   0  0  0  0  0  0  0  0  0  0  0  0
   36.7150   28.4600   34.5380 N   0  0  0  0  0  0  0  0  0  0  0  0
   37.1540   27.4940   33.6980 C   0  0  0  0  0  0  0  0  0  0  0  0
   36.5820   27.3450   32.4870 N   0  0  0  0  0  0  0  0  0  0  0  0
   35.1340   28.0080   31.1300 H   0  0  0  0  0  0  0  0  0  0  0  0
   34.2870   29.7950   32.6260 H   0  0  0  0  0  0  0  0  0  0  0  0
   37.9600   25.3180   34.4820 C   0  0  0  0  0  0  0  0  0  0  0  0
   38.2450   26.6320   34.1260 C   0  0  0  0  0  0  0  0  0  0  0  0
   39.5270   27.1130   34.1740 C   0  0  0  0  0  0  0  0  0  0  0  0
   40.5720   26.3110   34.5770 C   0  0  0  0  0  0  0  0  0  0  0  0
   41.8990   26.5260   34.7130 N   0  0  0  0  0  0  0  0  0  0  0  0
   42.3830   25.3310   35.1510 C   0  0  0  0  0  0  0  0  0  0  0  0
   41.4030   24.4210   35.2790 N   0  0  0  0  0  0  0  0  0  0  0  0
   40.2610   25.0200   34.9230 C   0  0  0  0  0  0  0  0  0  0  0  0
   38.9930   24.4840   34.8930 C   0  0  0  0  0  0  0  0  0  0  0  0
   36.9430   24.9470   34.4410 H   0  0  0  0  0  0  0  0  0  0  0  0
   39.6740   28.1560   33.8790 H   0  0  0  0  0  0  0  0  0  0  0  0
   42.3330   27.4300   34.5050 H   0  0  0  0  0  0  0  0  0  0  0  0
   43.4550   25.2300   35.3440 H   0  0  0  0  0  0  0  0  0  0  0  0
   38.7750   23.4540   35.1740 H   0  0  0  0  0  0  0  0  0  0  0  0
   35.2250   30.3330   35.0900 C   0  0  0  0  0  0  0  0  0  0  0  0
   36.0470   31.2180   35.7560 C   0  0  0  0  0  0  0  0  0  0  0  0
   37.1200   31.3350   35.7640 H   0  0  0  0  0  0  0  0  0  0  0  0
   35.1770   32.0050   36.4830 C   0  0  0  0  0  0  0  0  0  0  0  0
   35.3580   32.8450   37.1650 H   0  0  0  0  0  0  0  0  0  0  0  0
   33.8770   31.5670   36.2270 C   0  0  0  0  0  0  0  0  0  0  0  0
   32.8890   31.8990   36.5860 H   0  0  0  0  0  0  0  0  0  0  0  0
   33.9790   30.5480   35.3730 O   0  0  0  0  0  0  0  0  0  0  0  0
  1  6  2  0  0  0  0
  1  2  1  0  0  0  0
  2  3  2  0  0  0  0
  3  4  1  0  0  0  0
  3 23  1  0  0  0  0
  5 10  1  0  0  0  0
  5  4  2  0  0  0  0
  6  5  1  0  0  0  0
  7  1  1  0  0  0  0
  8  2  1  0  0  0  0
  9 17  1  0  0  0  0
 10 11  1  0  0  0  0
 10  9  2  0  0  0  0
 11 12  2  0  0  0  0
 12 13  1  0  0  0  0
 12 16  1  0  0  0  0
 13 14  1  0  0  0  0
 14 15  2  0  0  0  0
 14 21  1  0  0  0  0
 16 15  1  0  0  0  0
 17 16  2  0  0  0  0
 17 22  1  0  0  0  0
 18  9  1  0  0  0  0
 19 11  1  0  0  0  0
 20 13  1  0  0  0  0
 23 30  1  0  0  0  0
 23 24  2  0  0  0  0
 24 25  1  0  0  0  0
 24 26  1  0  0  0  0
 26 27  1  0  0  0  0
 28 26  2  0  0  0  0
 28 29  1  0  0  0  0
 30 28  1  0  0  0  0
M  END
>  <minimizedAffinity>
-5.2730732

$$$$

 OpenBabel03272507063D

 30 33  0  0  0  0  0  0  0  0999 V2000
   36.1090   29.5410   31.9640 C   0  0  0  0  0  0  0  0  0  0  0  0
   35.5700   30.4100   32.9360 C   0  0  0  0  0  0  0  0  0  0  0  0
   35.5990   29.9620   34.2660 C   0  0  0  0  0  0  0  0  0  0  0  0
   36.1270   28.7470   34.5650 N   0  0  0  0  0  0  0  0  0  0  0  0
   36.6330   27.9450   33.6010 C   0  0  0  0  0  0  0  0  0  0  0  0
   36.6190   28.3490   32.3150 N   0  0  0  0  0  0  0  0  0  0  0  0
   36.1050   29.8440   30.9450 H   0  0  0  0  0  0  0  0  0  0  0  0
   35.1640   31.3570   32.6700 H   0  0  0  0  0  0  0  0  0  0  0  0
   37.5850   26.4540   35.2950 C   0  0  0  0  0  0  0  0  0  0  0  0
   37.1870   26.6530   33.9770 C   0  0  0  0  0  0  0  0  0  0  0  0
   37.3100   25.6570   33.0450 C   0  0  0  0  0  0  0  0  0  0  0  0
   37.8320   24.4280   33.3840 C   0  0  0  0  0  0  0  0  0  0  0  0
   38.0600   23.2980   32.6800 N   0  0  0  0  0  0  0  0  0  0  0  0
   38.5930   22.4410   33.5940 C   0  0  0  0  0  0  0  0  0  0  0  0
   38.6900   23.0140   34.8060 N   0  0  0  0  0  0  0  0  0  0  0  0
   38.2170   24.2600   34.6910 C   0  0  0  0  0  0  0  0  0  0  0  0
   38.1160   25.2250   35.6680 C   0  0  0  0  0  0  0  0  0  0  0  0
   37.4830   27.2480   36.0260 H   0  0  0  0  0  0  0  0  0  0  0  0
   36.9750   25.8870   32.0300 H   0  0  0  0  0  0  0  0  0  0  0  0
   37.8410   23.2180   31.6820 H   0  0  0  0  0  0  0  0  0  0  0  0
   38.8740   21.4320   33.2780 H   0  0  0  0  0  0  0  0  0  0  0  0
   38.4300   25.0640   36.6990 H   0  0  0  0  0  0  0  0  0  0  0  0
   35.0540   30.8280   35.3060 C   0  0  0  0  0  0  0  0  0  0  0  0
   35.7990   31.7270   36.0400 C   0  0  0  0  0  0  0  0  0  0  0  0
   36.8490   31.9740   36.0200 H   0  0  0  0  0  0  0  0  0  0  0  0
   34.8810   32.3120   36.8890 C   0  0  0  0  0  0  0  0  0  0  0  0
   34.9980   33.0850   37.6590 H   0  0  0  0  0  0  0  0  0  0  0  0
   33.6310   31.7490   36.6340 C   0  0  0  0  0  0  0  0  0  0  0  0
   32.6310   31.9130   37.0680 H   0  0  0  0  0  0  0  0  0  0  0  0
   33.8070   30.8540   35.6610 O   0  0  0  0  0  0  0  0  0  0  0  0
  1  6  2  0  0  0  0
  1  2  1  0  0  0  0
  2  3  2  0  0  0  0
  3  4  1  0  0  0  0
  3 23  1  0  0  0  0
  5 10  1  0  0  0  0
  5  4  2  0  0  0  0
  6  5  1  0  0  0  0
  7  1  1  0  0  0  0
  8  2  1  0  0  0  0
  9 17  1  0  0  0  0
  9 18  1  0  0  0  0
 10  9  2  0  0  0  0
 11 12  2  0  0  0  0
 11 10  1  0  0  0  0
 12 16  1  0  0  0  0
 13 12  1  0  0  0  0
 13 14  1  0  0  0  0
 14 15  2  0  0  0  0
 16 15  1  0  0  0  0
 16 17  2  0  0  0  0
 17 22  1  0  0  0  0
 19 11  1  0  0  0  0
 20 13  1  0  0  0  0
 21 14  1  0  0  0  0
 23 30  1  0  0  0  0
 23 24  2  0  0  0  0
 24 26  1  0  0  0  0
 25 24  1  0  0  0  0
 26 27  1  0  0  0  0
 28 26  2  0  0  0  0
 28 29  1  0  0  0  0
 30 28  1  0  0  0  0
M  END
>  <minimizedAffinity>
-5.23832273

$$$$
