
 OpenBabel03272510263D

 44 48  0  0  1  0  0  0  0  0999 V2000
   36.2500   30.2860   46.4000 C   0  0  0  0  0  0  0  0  0  0  0  0
   37.1770   30.8240   47.2590 C   0  0  0  0  0  0  0  0  0  0  0  0
   38.1840   31.6860   46.7930 C   0  0  0  0  0  0  0  0  0  0  0  0
   38.1810   31.9570   45.4230 C   0  0  0  0  0  0  0  0  0  0  0  0
   39.0400   32.7560   44.7250 N   0  0  0  0  0  0  0  0  0  0  0  0
   38.6460   32.7130   43.4460 C   0  0  0  0  0  0  0  0  0  0  0  0
   37.5930   31.9270   43.3360 N   0  0  0  0  0  0  0  0  0  0  0  0
   37.2690   31.4330   44.5430 C   0  0  0  0  0  0  0  0  0  0  0  0
   36.2830   30.5790   45.0520 C   0  0  0  0  0  0  0  0  0  0  0  0
   35.4760   29.6210   46.7690 H   0  0  0  0  0  0  0  0  0  0  0  0
   38.9320   32.1290   47.4450 H   0  0  0  0  0  0  0  0  0  0  0  0
   39.8340   33.2850   45.1290 H   0  0  0  0  0  0  0  0  0  0  0  0
   35.5640   30.1660   44.3580 H   0  0  0  0  0  0  0  0  0  0  0  0
   37.7140   30.5530   50.9770 C   0  0  0  0  0  0  0  0  0  0  0  0
   37.9320   30.9770   49.6650 C   0  0  0  0  0  0  0  0  0  0  0  0
   37.1160   30.5050   48.6730 C   0  0  0  0  0  0  0  0  0  0  0  0
   36.1180   29.6290   49.0490 N   0  0  0  0  0  0  0  0  0  0  0  0
   35.9130   29.2250   50.3140 C   0  0  0  0  0  0  0  0  0  0  0  0
   36.7070   29.6870   51.2620 N   0  0  0  0  0  0  0  0  0  0  0  0
   38.3700   30.9370   51.7450 H   0  0  0  0  0  0  0  0  0  0  0  0
   38.7050   31.6580   49.3570 H   0  0  0  0  0  0  0  0  0  0  0  0
   35.1080   28.5360   50.5290 H   0  0  0  0  0  0  0  0  0  0  0  0
   39.3020   33.4230   42.4380 O   0  0  0  0  0  0  0  0  0  0  0  0
   38.5280   31.8790   40.9120 N   0  0  0  0  0  0  0  0  0  0  0  0
   38.7370   33.2940   41.1370 C   0  0  1  0  0  0  0  0  0  0  0  0
   37.4830   34.0240   41.0440 C   0  0  0  0  0  0  0  0  0  0  0  0
   36.9830   33.8960   39.7370 O   0  0  0  0  0  0  0  0  0  0  0  0
   36.8420   32.6130   39.2890 C   0  0  0  0  0  0  0  0  0  0  0  0
   38.0720   31.7760   39.5370 C   0  0  1  0  0  0  0  0  0  0  0  0
   37.8410   31.3950   41.4600 H   0  0  0  0  0  0  0  0  0  0  0  0
   39.4450   33.6230   40.3580 H   0  0  0  0  0  0  0  0  0  0  0  0
   37.7230   35.1280   41.1230 H   0  0  0  0  0  0  0  0  0  0  0  0
   36.6300   33.8600   41.6460 H   0  0  0  0  0  0  0  0  0  0  0  0
   36.6560   32.6450   38.2150 H   0  0  0  0  0  0  0  0  0  0  0  0
   35.9890   32.1320   39.8400 H   0  0  0  0  0  0  0  0  0  0  0  0
   37.8080   30.7240   39.2700 H   0  0  0  0  0  0  0  0  0  0  0  0
   39.1610   32.2980   38.6720 C   0  0  0  0  0  0  0  0  0  0  0  0
   40.3150   31.5240   38.5060 C   0  0  0  0  0  0  0  0  0  0  0  0
   40.5700   30.5580   38.9220 H   0  0  0  0  0  0  0  0  0  0  0  0
   41.1780   32.2090   37.6660 C   0  0  0  0  0  0  0  0  0  0  0  0
   42.1550   31.8710   37.3470 H   0  0  0  0  0  0  0  0  0  0  0  0
   40.4960   33.3720   37.3640 C   0  0  0  0  0  0  0  0  0  0  0  0
   40.9150   34.1300   36.7160 H   0  0  0  0  0  0  0  0  0  0  0  0
   39.3180   33.3960   37.9660 O   0  0  0  0  0  0  0  0  0  0  0  0
  1 10  1  0  0  0  0
  1  2  1  0  0  0  0
  2 16  1  0  0  0  0
  3  2  2  0  0  0  0
  3 11  1  0  0  0  0
  4  3  1  0  0  0  0
  5 12  1  0  0  0  0
  5  4  1  0  0  0  0
  6  5  1  0  0  0  0
  7  6  2  0  0  0  0
  7  8  1  0  0  0  0
  8  9  1  0  0  0  0
  8  4  2  0  0  0  0
  9  1  2  0  0  0  0
 13  9  1  0  0  0  0
 14 19  1  0  0  0  0
 14 20  1  0  0  0  0
 15 14  2  0  0  0  0
 16 17  2  0  0  0  0
 16 15  1  0  0  0  0
 17 18  1  0  0  0  0
 18 22  1  0  0  0  0
 18 19  2  0  0  0  0
 21 15  1  0  0  0  0
 23  6  1  0  0  0  0
 24 25  1  0  0  0  0
 24 30  1  0  0  0  0
 25 31  1  6  0  0  0
 25 23  1  0  0  0  0
 26 32  1  0  0  0  0
 26 25  1  0  0  0  0
 26 33  1  0  0  0  0
 27 26  1  0  0  0  0
 28 29  1  0  0  0  0
 28 27  1  0  0  0  0
 28 35  1  0  0  0  0
 29 36  1  6  0  0  0
 29 24  1  0  0  0  0
 34 28  1  0  0  0  0
 37 29  1  0  0  0  0
 38 37  2  0  0  0  0
 38 39  1  0  0  0  0
 40 38  1  0  0  0  0
 41 40  1  0  0  0  0
 42 40  2  0  0  0  0
 42 44  1  0  0  0  0
 43 42  1  0  0  0  0
 44 37  1  0  0  0  0
M  END
>  <minimizedAffinity>
-5.3192625

>  <minimizedRMSD>
1.05413568

$$$$
