
 OpenBabel03272502013D

 41 45  0  0  0  0  0  0  0  0999 V2000
   34.4500   28.1030   48.0720 C   0  0  0  0  0  0  0  0  0  0  0  0
   34.9500   28.9340   47.5780 H   0  0  0  0  0  0  0  0  0  0  0  0
   34.7690   27.0990   47.7330 H   0  0  0  0  0  0  0  0  0  0  0  0
   32.9760   28.2100   47.7750 C   0  0  0  0  0  0  0  0  0  0  0  0
   31.9550   27.4350   48.3250 C   0  0  0  0  0  0  0  0  0  0  0  0
   30.7510   27.8580   47.7840 C   0  0  0  0  0  0  0  0  0  0  0  0
   31.0750   28.8710   46.9300 N   0  0  0  0  0  0  0  0  0  0  0  0
   32.3830   29.0720   46.9310 N   0  0  0  0  0  0  0  0  0  0  0  0
   28.6810   29.3070   46.3080 N   0  0  0  0  0  0  0  0  0  0  0  0
   30.0130   29.5010   46.2250 C   0  0  0  0  0  0  0  0  0  0  0  0
   30.2070   30.4720   45.2840 N   0  0  0  0  0  0  0  0  0  0  0  0
   29.0360   30.8700   44.7980 C   0  0  0  0  0  0  0  0  0  0  0  0
   28.7230   31.8080   43.8460 C   0  0  0  0  0  0  0  0  0  0  0  0
   27.4290   32.0180   43.5330 N   0  0  0  0  0  0  0  0  0  0  0  0
   26.4630   31.3050   44.1560 C   0  0  0  0  0  0  0  0  0  0  0  0
   26.7750   30.3810   45.0930 N   0  0  0  0  0  0  0  0  0  0  0  0
   28.0650   30.1440   45.4330 C   0  0  0  0  0  0  0  0  0  0  0  0
   32.1090   26.6430   49.0470 H   0  0  0  0  0  0  0  0  0  0  0  0
   29.8200   27.4020   48.0610 H   0  0  0  0  0  0  0  0  0  0  0  0
   28.2140   28.6310   46.9360 H   0  0  0  0  0  0  0  0  0  0  0  0
   29.4690   32.3970   43.3270 H   0  0  0  0  0  0  0  0  0  0  0  0
   25.3880   31.3520   44.0210 H   0  0  0  0  0  0  0  0  0  0  0  0
   34.5720   28.2820   49.5620 C   0  0  0  0  0  0  0  0  0  0  0  0
   33.6960   28.8530   49.9790 H   0  0  0  0  0  0  0  0  0  0  0  0
   34.5960   27.3390   50.1250 H   0  0  0  0  0  0  0  0  0  0  0  0
   37.2010   30.1170   51.4000 C   0  0  0  0  0  0  0  0  0  0  0  0
   37.9400   30.6870   50.3520 C   0  0  0  0  0  0  0  0  0  0  0  0
   37.5370   30.4410   49.0260 C   0  0  0  0  0  0  0  0  0  0  0  0
   36.4500   29.6630   48.8270 N   0  0  0  0  0  0  0  0  0  0  0  0
   35.7600   29.1290   49.8750 C   0  0  0  0  0  0  0  0  0  0  0  0
   36.1420   29.3630   51.1160 N   0  0  0  0  0  0  0  0  0  0  0  0
   37.5550   30.3390   52.3980 H   0  0  0  0  0  0  0  0  0  0  0  0
   38.8020   31.3030   50.5410 H   0  0  0  0  0  0  0  0  0  0  0  0
   38.2590   31.0010   47.8900 C   0  0  0  0  0  0  0  0  0  0  0  0
   38.7680   32.2910   47.8710 C   0  0  0  0  0  0  0  0  0  0  0  0
   38.7010   33.0260   48.6670 H   0  0  0  0  0  0  0  0  0  0  0  0
   39.4030   32.5310   46.6520 C   0  0  0  0  0  0  0  0  0  0  0  0
   39.8950   33.4620   46.3610 H   0  0  0  0  0  0  0  0  0  0  0  0
   39.2360   31.3340   45.9830 C   0  0  0  0  0  0  0  0  0  0  0  0
   39.6080   31.1490   44.9820 H   0  0  0  0  0  0  0  0  0  0  0  0
   38.5810   30.5090   46.7350 O   0  0  0  0  0  0  0  0  0  0  0  0
  1 23  1  0  0  0  0
  2  1  1  0  0  0  0
  3  1  1  0  0  0  0
  4  1  1  0  0  0  0
  4  5  1  0  0  0  0
  5 18  1  0  0  0  0
  6 19  1  0  0  0  0
  6  5  2  0  0  0  0
  7  8  1  0  0  0  0
  7  6  1  0  0  0  0
  8  4  2  0  0  0  0
  9 20  1  0  0  0  0
 10  9  1  0  0  0  0
 10  7  1  0  0  0  0
 11 10  2  0  0  0  0
 12 11  1  0  0  0  0
 12 17  1  0  0  0  0
 13 12  2  0  0  0  0
 14 13  1  0  0  0  0
 14 15  2  0  0  0  0
 15 16  1  0  0  0  0
 16 17  2  0  0  0  0
 17  9  1  0  0  0  0
 21 13  1  0  0  0  0
 22 15  1  0  0  0  0
 23 30  1  0  0  0  0
 23 24  1  0  0  0  0
 23 25  1  0  0  0  0
 26 32  1  0  0  0  0
 27 33  1  0  0  0  0
 27 26  2  0  0  0  0
 28 27  1  0  0  0  0
 29 28  2  0  0  0  0
 29 30  1  0  0  0  0
 30 31  2  0  0  0  0
 31 26  1  0  0  0  0
 34 28  1  0  0  0  0
 35 34  2  0  0  0  0
 35 36  1  0  0  0  0
 37 35  1  0  0  0  0
 38 37  1  0  0  0  0
 39 37  2  0  0  0  0
 39 41  1  0  0  0  0
 40 39  1  0  0  0  0
 41 34  1  0  0  0  0
M  END
>  <minimizedAffinity>
-6.71233416

>  <minimizedRMSD>
0.150173217

$$$$
