
 OpenBabel03272510013D

 20 21  0  0  0  0  0  0  0  0999 V2000
   38.2790   31.3240   50.1870 C   0  0  0  0  0  0  0  0  0  0  0  0
   38.4620   31.4270   48.7870 C   0  0  0  0  0  0  0  0  0  0  0  0
   37.5250   30.8190   47.9630 C   0  0  0  0  0  0  0  0  0  0  0  0
   36.4800   30.1580   48.5320 N   0  0  0  0  0  0  0  0  0  0  0  0
   36.3420   30.0850   49.8730 C   0  0  0  0  0  0  0  0  0  0  0  0
   37.2310   30.6600   50.6940 N   0  0  0  0  0  0  0  0  0  0  0  0
   38.9910   31.7860   50.8570 H   0  0  0  0  0  0  0  0  0  0  0  0
   39.3090   31.9640   48.3760 H   0  0  0  0  0  0  0  0  0  0  0  0
   37.6630   30.8910   46.5130 C   0  0  0  0  0  0  0  0  0  0  0  0
   36.6680   30.5730   45.6120 C   0  0  0  0  0  0  0  0  0  0  0  0
   35.6600   30.2300   45.8400 H   0  0  0  0  0  0  0  0  0  0  0  0
   37.3000   30.8070   44.3850 C   0  0  0  0  0  0  0  0  0  0  0  0
   36.7930   30.6540   43.4260 H   0  0  0  0  0  0  0  0  0  0  0  0
   38.5920   31.2370   44.6020 C   0  0  0  0  0  0  0  0  0  0  0  0
   39.3170   31.4960   43.8180 H   0  0  0  0  0  0  0  0  0  0  0  0
   38.7660   31.2730   45.9150 O   0  0  0  0  0  0  0  0  0  0  0  0
   35.1690   29.3470   50.3980 C   0  0  0  0  0  0  0  0  0  0  0  0
   35.2460   29.1050   51.7600 F   0  0  0  0  0  0  0  0  0  0  0  0
   33.9890   30.0850   50.2120 F   0  0  0  0  0  0  0  0  0  0  0  0
   34.9520   28.1510   49.7840 F   0  0  0  0  0  0  0  0  0  0  0  0
  1  6  1  0  0  0  0
  1  7  1  0  0  0  0
  2  1  2  0  0  0  0
  3  4  2  0  0  0  0
  3  2  1  0  0  0  0
  4  5  1  0  0  0  0
  5 17  1  0  0  0  0
  5  6  2  0  0  0  0
  8  2  1  0  0  0  0
  9  3  1  0  0  0  0
 10 11  1  0  0  0  0
 10  9  2  0  0  0  0
 12 14  2  0  0  0  0
 12 10  1  0  0  0  0
 13 12  1  0  0  0  0
 14 16  1  0  0  0  0
 15 14  1  0  0  0  0
 16  9  1  0  0  0  0
 17 18  1  0  0  0  0
 19 17  1  0  0  0  0
 20 17  1  0  0  0  0
M  END
>  <minimizedAffinity>
-4.94047976

>  <minimizedRMSD>
0.707857847

$$$$
