
 OpenBabel03272508543D

 37 40  0  0  1  0  0  0  0  0999 V2000
   38.3800   31.8530   44.5450 C   0  0  0  0  0  0  0  0  0  0  0  0
   37.2480   32.4110   44.4270 O   0  0  0  0  0  0  0  0  0  0  0  0
   38.9340   31.5880   45.8380 N   0  0  0  0  0  0  0  0  0  0  0  0
   39.9170   31.2840   46.0050 H   0  0  0  0  0  0  0  0  0  0  0  0
   39.1500   31.4680   43.3540 C   0  0  0  0  0  0  0  0  0  0  0  0
   40.1220   30.5120   43.4940 C   0  0  0  0  0  0  0  0  0  0  0  0
   40.8520   30.1310   42.3840 C   0  0  0  0  0  0  0  0  0  0  0  0
   40.5550   30.7420   41.1840 C   0  0  0  0  0  0  0  0  0  0  0  0
   39.5760   31.7070   41.0330 C   0  0  0  0  0  0  0  0  0  0  0  0
   38.9210   32.0160   42.1540 N   0  0  0  0  0  0  0  0  0  0  0  0
   40.3910   30.0040   44.4110 H   0  0  0  0  0  0  0  0  0  0  0  0
   41.6300   29.3830   42.4290 H   0  0  0  0  0  0  0  0  0  0  0  0
   41.1340   30.4360   40.3190 H   0  0  0  0  0  0  0  0  0  0  0  0
   39.2820   32.3400   39.7540 C   0  0  0  0  0  0  0  0  0  0  0  0
   39.4570   31.7050   38.5350 C   0  0  0  0  0  0  0  0  0  0  0  0
   39.8180   30.7020   38.3770 H   0  0  0  0  0  0  0  0  0  0  0  0
   39.0520   32.6820   37.6200 C   0  0  0  0  0  0  0  0  0  0  0  0
   39.0520   32.5430   36.5470 H   0  0  0  0  0  0  0  0  0  0  0  0
   38.6680   33.8160   38.3080 C   0  0  0  0  0  0  0  0  0  0  0  0
   38.3030   34.7570   37.9210 H   0  0  0  0  0  0  0  0  0  0  0  0
   38.8190   33.5750   39.5950 O   0  0  0  0  0  0  0  0  0  0  0  0
   38.4320   31.1340   48.2340 C   0  0  2  0  0  0  0  0  0  0  0  0
   38.7020   32.5750   48.1350 C   0  0  0  0  0  0  0  0  0  0  0  0
   38.0570   31.7590   46.9870 C   0  0  1  0  0  0  0  0  0  0  0  0
   39.3500   30.5150   48.3140 H   0  0  0  0  0  0  0  0  0  0  0  0
   38.0840   33.3310   48.6470 H   0  0  0  0  0  0  0  0  0  0  0  0
   39.7400   32.9280   47.9800 H   0  0  0  0  0  0  0  0  0  0  0  0
   37.0030   32.0880   46.7820 H   0  0  0  0  0  0  0  0  0  0  0  0
   35.0860   30.2260   49.5360 C   0  0  0  0  0  0  0  0  0  0  0  0
   35.4080   29.5510   50.7580 C   0  0  0  0  0  0  0  0  0  0  0  0
   36.8070   29.4370   51.1030 C   0  0  0  0  0  0  0  0  0  0  0  0
   37.7500   29.9630   50.2690 N   0  0  0  0  0  0  0  0  0  0  0  0
   37.3540   30.5910   49.1210 C   0  0  0  0  0  0  0  0  0  0  0  0
   36.0390   30.7390   48.7270 N   0  0  0  0  0  0  0  0  0  0  0  0
   34.0350   30.2750   49.3420 H   0  0  0  0  0  0  0  0  0  0  0  0
   34.6460   29.1510   51.3880 H   0  0  0  0  0  0  0  0  0  0  0  0
   37.0530   28.9310   52.0210 H   0  0  0  0  0  0  0  0  0  0  0  0
  1  3  1  0  0  0  0
  2  1  2  0  0  0  0
  3  4  1  0  0  0  0
  3 24  1  0  0  0  0
  5  6  1  0  0  0  0
  5  1  1  0  0  0  0
  6 11  1  0  0  0  0
  7 12  1  0  0  0  0
  7  6  2  0  0  0  0
  8  7  1  0  0  0  0
  9  8  2  0  0  0  0
  9 10  1  0  0  0  0
 10  5  2  0  0  0  0
 13  8  1  0  0  0  0
 14  9  1  0  0  0  0
 15 14  2  0  0  0  0
 16 15  1  0  0  0  0
 17 19  2  0  0  0  0
 17 15  1  0  0  0  0
 18 17  1  0  0  0  0
 19 21  1  0  0  0  0
 20 19  1  0  0  0  0
 21 14  1  0  0  0  0
 22 25  1  6  0  0  0
 22 33  1  0  0  0  0
 23 22  1  0  0  0  0
 23 26  1  0  0  0  0
 24 28  1  6  0  0  0
 24 23  1  0  0  0  0
 24 22  1  0  0  0  0
 27 23  1  0  0  0  0
 29 30  1  0  0  0  0
 30 31  2  0  0  0  0
 30 36  1  0  0  0  0
 31 37  1  0  0  0  0
 32 31  1  0  0  0  0
 33 32  2  0  0  0  0
 34 33  1  0  0  0  0
 34 29  2  0  0  0  0
 35 29  1  0  0  0  0
M  END
>  <minimizedAffinity>
-5.15634251

>  <minimizedRMSD>
0.116305433

$$$$
