
     RDKit          3D

 42 45  0  0  0  0  0  0  0  0999 V2000
   37.3295   30.1752   51.5156 C   0  0  0  0  0  0  0  0  0  0  0  0
   38.0709   30.8676   50.5074 C   0  0  0  0  0  0  0  0  0  0  0  0
   37.7111   30.6537   49.1986 C   0  0  0  0  0  0  0  0  0  0  0  0
   36.6699   29.7925   48.9783 N   0  0  0  0  0  0  0  0  0  0  0  0
   35.9924   29.1584   49.9188 C   0  0  0  0  0  0  0  0  0  0  0  0
   36.3354   29.3591   51.2145 N   0  0  0  0  0  0  0  0  0  0  0  0
   38.9367   33.2641   49.0066 F   0  0  0  0  0  0  0  0  0  0  0  0
   38.9176   32.4818   47.9409 C   0  0  0  0  0  0  0  0  0  0  0  0
   38.3379   31.2592   48.0491 C   0  0  0  0  0  0  0  0  0  0  0  0
   38.3737   30.5186   46.8662 C   0  0  0  0  0  0  0  0  0  0  0  0
   38.9402   30.9787   45.7017 C   0  0  0  0  0  0  0  0  0  0  0  0
   39.5167   32.2268   45.6406 C   0  0  0  0  0  0  0  0  0  0  0  0
   39.4956   32.9817   46.7967 C   0  0  0  0  0  0  0  0  0  0  0  0
   34.9971   28.3536   49.4359 O   0  0  0  0  0  0  0  0  0  0  0  0
   34.4419   28.6568   48.1688 C   0  0  0  0  0  0  0  0  0  0  0  0
   33.5643   27.5366   47.7085 C   0  0  0  0  0  0  0  0  0  0  0  0
   32.1309   27.9034   47.6999 C   0  0  0  0  0  0  0  0  0  0  0  0
   31.3421   27.5269   48.7780 C   0  0  0  0  0  0  0  0  0  0  0  0
   30.0142   27.8083   48.8792 C   0  0  0  0  0  0  0  0  0  0  0  0
   29.4499   28.4768   47.8944 N   0  0  0  0  0  0  0  0  0  0  0  0
   30.1993   28.8632   46.8163 C   0  0  0  0  0  0  0  0  0  0  0  0
   31.5205   28.5910   46.7011 N   0  0  0  0  0  0  0  0  0  0  0  0
   37.6379   30.3652   52.5397 H   0  0  0  0  0  0  0  0  0  0  0  0
   38.8877   31.5417   50.7027 H   0  0  0  0  0  0  0  0  0  0  0  0
   37.9536   29.5168   46.7778 H   0  0  0  0  0  0  0  0  0  0  0  0
   38.9661   30.4041   44.7899 H   0  0  0  0  0  0  0  0  0  0  0  0
   39.9635   32.6075   44.7481 H   0  0  0  0  0  0  0  0  0  0  0  0
   39.9423   33.9652   46.7730 H   0  0  0  0  0  0  0  0  0  0  0  0
   33.7910   29.5559   48.3135 H   0  0  0  0  0  0  0  0  0  0  0  0
   35.2186   28.9420   47.4407 H   0  0  0  0  0  0  0  0  0  0  0  0
   33.7335   26.5778   48.2278 H   0  0  0  0  0  0  0  0  0  0  0  0
   33.8275   27.3331   46.6363 H   0  0  0  0  0  0  0  0  0  0  0  0
   31.8223   26.9682   49.5969 H   0  0  0  0  0  0  0  0  0  0  0  0
   29.3835   27.5258   49.7067 H   0  0  0  0  0  0  0  0  0  0  0  0
   29.5226   29.6060   45.7455 C   0  0  0  0  0  0  0  0  0  0  0  0
   29.6524   29.4018   44.3889 C   0  0  0  0  0  0  0  0  0  0  0  0
   30.2617   28.6745   43.8751 H   0  0  0  0  0  0  0  0  0  0  0  0
   28.8336   30.3261   43.7390 C   0  0  0  0  0  0  0  0  0  0  0  0
   28.6444   30.5045   42.6991 H   0  0  0  0  0  0  0  0  0  0  0  0
   28.2426   31.0517   44.7479 C   0  0  0  0  0  0  0  0  0  0  0  0
   27.5324   31.8702   44.6092 H   0  0  0  0  0  0  0  0  0  0  0  0
   28.6756   30.5947   45.8989 O   0  0  0  0  0  0  0  0  0  0  0  0
  2  1  2  0
  3  2  1  0
  4  3  2  0
  4  5  1  0
  5  6  2  0
  6  1  1  0
  8  9  2  0
  8  7  1  0
  9  3  1  0
 10  9  1  0
 11 10  2  0
 12 11  1  0
 12 13  2  0
 13  8  1  0
 14  5  1  0
 15 14  1  0
 16 15  1  0
 17 16  1  0
 17 18  2  0
 18 19  1  0
 20 19  2  0
 21 20  1  0
 22 21  2  0
 22 17  1  0
  1 23  1  0
  2 24  1  0
 10 25  1  0
 11 26  1  0
 12 27  1  0
 13 28  1  0
 15 29  1  0
 15 30  1  0
 16 31  1  0
 16 32  1  0
 18 33  1  0
 19 34  1  0
 35 36  2  0
 36 37  1  0
 36 38  1  0
 38 39  1  0
 38 40  2  0
 40 41  1  0
 40 42  1  0
 42 35  1  0
 21 35  1  0
M  ISO  8  23  14  24  14  25  14  26  14  27  14  28  14  29   8  30   8
M  ISO  7  31   8  32   8  33  14  34  14  37  16  39  16  41  14
M  END
>  <DihAtoms>  (1) 
19,20,34,35

>  <DihDeg>  (1) 
164.3775557464346

$$$$
