
 OpenBabel03272505313D

 39 42  0  0  0  0  0  0  0  0999 V2000
   37.3650   31.1030   47.1410 N   0  0  0  0  0  0  0  0  0  0  0  0
   36.7410   30.8260   45.9680 C   0  0  0  0  0  0  0  0  0  0  0  0
   37.1940   31.3410   44.7590 C   0  0  0  0  0  0  0  0  0  0  0  0
   38.3270   32.1650   44.7870 C   0  0  0  0  0  0  0  0  0  0  0  0
   38.7690   32.6480   43.7290 O   0  0  0  0  0  0  0  0  0  0  0  0
   38.9570   32.4410   45.9820 N   0  0  0  0  0  0  0  0  0  0  0  0
   38.4240   31.8860   47.0660 C   0  0  0  0  0  0  0  0  0  0  0  0
   39.0240   32.1620   48.1300 O   0  0  0  0  0  0  0  0  0  0  0  0
   35.8650   30.1870   45.9670 H   0  0  0  0  0  0  0  0  0  0  0  0
   37.2720   29.4410   50.4690 C   0  0  0  0  0  0  0  0  0  0  0  0
   37.7460   29.9580   49.2540 C   0  0  0  0  0  0  0  0  0  0  0  0
   36.9070   30.5810   48.3570 C   0  0  0  0  0  0  0  0  0  0  0  0
   35.5960   30.6750   48.7000 N   0  0  0  0  0  0  0  0  0  0  0  0
   35.1140   30.1790   49.8740 C   0  0  0  0  0  0  0  0  0  0  0  0
   35.9660   29.5670   50.7450 N   0  0  0  0  0  0  0  0  0  0  0  0
   37.9720   28.9690   51.1210 H   0  0  0  0  0  0  0  0  0  0  0  0
   38.7930   29.8510   49.0440 H   0  0  0  0  0  0  0  0  0  0  0  0
   34.0550   30.3070   50.0470 H   0  0  0  0  0  0  0  0  0  0  0  0
   36.5650   31.0760   43.4840 C   0  0  0  0  0  0  0  0  0  0  0  0
   36.9150   30.0160   42.6730 C   0  0  0  0  0  0  0  0  0  0  0  0
   36.3400   29.7350   41.4590 C   0  0  0  0  0  0  0  0  0  0  0  0
   35.3290   30.5700   40.9960 C   0  0  0  0  0  0  0  0  0  0  0  0
   35.0030   31.6290   41.8420 C   0  0  0  0  0  0  0  0  0  0  0  0
   35.5900   31.8570   43.0070 N   0  0  0  0  0  0  0  0  0  0  0  0
   37.6990   29.3450   43.0010 H   0  0  0  0  0  0  0  0  0  0  0  0
   36.6260   28.9000   40.8350 H   0  0  0  0  0  0  0  0  0  0  0  0
   34.8380   30.4030   40.0510 H   0  0  0  0  0  0  0  0  0  0  0  0
   33.9410   32.5020   41.3480 C   0  0  0  0  0  0  0  0  0  0  0  0
   32.5860   32.3490   41.5820 C   0  0  0  0  0  0  0  0  0  0  0  0
   32.0730   31.5760   42.1570 H   0  0  0  0  0  0  0  0  0  0  0  0
   31.9010   33.3690   40.9520 C   0  0  0  0  0  0  0  0  0  0  0  0
   30.8500   33.6270   40.8770 H   0  0  0  0  0  0  0  0  0  0  0  0
   32.9110   34.1210   40.3440 C   0  0  0  0  0  0  0  0  0  0  0  0
   32.7810   35.0130   39.7490 H   0  0  0  0  0  0  0  0  0  0  0  0
   34.0770   33.5740   40.6060 O   0  0  0  0  0  0  0  0  0  0  0  0
   40.1180   33.2860   45.9970 C   0  0  0  0  0  0  0  0  0  0  0  0
   40.0110   34.2650   45.0670 F   0  0  0  0  0  0  0  0  0  0  0  0
   41.3010   32.6070   45.7260 F   0  0  0  0  0  0  0  0  0  0  0  0
   40.2040   33.8930   47.2520 F   0  0  0  0  0  0  0  0  0  0  0  0
  1 12  1  0  0  0  0
  2  1  1  0  0  0  0
  3  4  1  0  0  0  0
  3  2  2  0  0  0  0
  4  6  1  0  0  0  0
  5  4  2  0  0  0  0
  6 36  1  0  0  0  0
  6  7  1  0  0  0  0
  7  1  1  0  0  0  0
  7  8  2  0  0  0  0
  9  2  1  0  0  0  0
 10 15  1  0  0  0  0
 10 16  1  0  0  0  0
 11 10  2  0  0  0  0
 12 13  2  0  0  0  0
 12 11  1  0  0  0  0
 13 14  1  0  0  0  0
 14 18  1  0  0  0  0
 14 15  2  0  0  0  0
 17 11  1  0  0  0  0
 19  3  1  0  0  0  0
 20 25  1  0  0  0  0
 20 19  2  0  0  0  0
 21 20  1  0  0  0  0
 22 21  2  0  0  0  0
 22 23  1  0  0  0  0
 23 24  2  0  0  0  0
 24 19  1  0  0  0  0
 26 21  1  0  0  0  0
 27 22  1  0  0  0  0
 28 29  2  0  0  0  0
 28 23  1  0  0  0  0
 29 30  1  0  0  0  0
 31 29  1  0  0  0  0
 32 31  1  0  0  0  0
 33 35  1  0  0  0  0
 33 31  2  0  0  0  0
 34 33  1  0  0  0  0
 35 28  1  0  0  0  0
 36 39  1  0  0  0  0
 37 36  1  0  0  0  0
 38 36  1  0  0  0  0
M  END
>  <minimizedAffinity>
-6.30126953

>  <minimizedRMSD>
0.233833015

$$$$
