REMARK  Name = 
REMARK  6 active torsions:
REMARK  status: ('A' for Active; 'I' for Inactive)
REMARK    1  A    between atoms: P_2  and  O_3
REMARK    2  A    between atoms: P_2  and  O_4
REMARK    3  A    between atoms: P_2  and  O_11
REMARK    4  A    between atoms: O_4  and  C_7
REMARK    5  A    between atoms: O_11  and  C_14
REMARK    6  A    between atoms: C_18  and  C_26
REMARK                            x       y       z     vdW  Elec       q    Type
REMARK                         _______ _______ _______ _____ _____    ______ ____
ROOT
ATOM      1 CL   UNL     1      36.622  29.442  44.046  0.00  0.00    +0.000 Cl
ATOM      2  C   UNL     1      38.260  29.829  43.489  0.00  0.00    +0.000 A 
ATOM      3  C   UNL     1      39.277  30.315  44.311  0.00  0.00    +0.000 A 
ATOM      4  C   UNL     1      40.510  30.577  43.737  0.00  0.00    +0.000 A 
ATOM      5  C   UNL     1      40.714  30.362  42.399  0.00  0.00    +0.000 A 
ATOM      6  C   UNL     1      39.741  29.890  41.582  0.00  0.00    +0.000 A 
ATOM      7  C   UNL     1      38.504  29.619  42.118  0.00  0.00    +0.000 A 
ATOM      8  H   UNL     1      41.217  30.948  44.468  0.00  0.00    +0.000 HD
ATOM      9  H   UNL     1      41.704  30.592  42.032  0.00  0.00    +0.000 HD
ATOM     10  H   UNL     1      39.911  29.723  40.525  0.00  0.00    +0.000 HD
ENDROOT
BRANCH   7  11
ATOM     11  C   UNL     1      37.434  29.109  41.261  0.00  0.00    +0.000 A 
ATOM     12  C   UNL     1      37.344  27.822  40.776  0.00  0.00    +0.000 A 
ATOM     13  H   UNL     1      37.996  26.981  40.916  0.00  0.00    +0.000 HD
ATOM     14  C   UNL     1      36.193  27.729  40.004  0.00  0.00    +0.000 A 
ATOM     15  H   UNL     1      35.723  26.945  39.442  0.00  0.00    +0.000 HD
ATOM     16  C   UNL     1      35.629  29.009  40.066  0.00  0.00    +0.000 A 
ATOM     17  H   UNL     1      34.713  29.337  39.586  0.00  0.00    +0.000 HD
ATOM     18  O   UNL     1      36.395  29.770  40.812  0.00  0.00    +0.000 OA
ENDBRANCH   7  11
BRANCH   3  19
ATOM     19  O   UNL     1      38.856  30.454  45.605  0.00  0.00    +0.000 OA
BRANCH  19  21
ATOM     20  O   UNL     1      39.454  32.472  47.105  0.00  0.00    +0.000 OA
ATOM     21  P   UNL     1      38.309  31.814  46.403  0.00  0.00    +0.000 P 
BRANCH  21  22
ATOM     22  O   UNL     1      37.730  32.847  45.166  0.00  0.00    +0.000 OA
ATOM     23  H   UNL     1      38.366  33.601  45.051  0.00  0.00    +0.000 HD
ENDBRANCH  21  22
BRANCH  21  24
ATOM     24  O   UNL     1      37.029  31.400  47.433  0.00  0.00    +0.000 OA
BRANCH  24  27
ATOM     25  C   UNL     1      37.606  30.540  50.974  0.00  0.00    +0.000 A 
ATOM     26  C   UNL     1      37.695  31.302  49.806  0.00  0.00    +0.000 A 
ATOM     27  C   UNL     1      37.071  30.835  48.654  0.00  0.00    +0.000 A 
ATOM     28  N   UNL     1      36.398  29.647  48.729  0.00  0.00    +0.000 NA
ATOM     29  C   UNL     1      36.332  28.936  49.875  0.00  0.00    +0.000 A 
ATOM     30  N   UNL     1      36.932  29.380  50.990  0.00  0.00    +0.000 NA
ATOM     31  H   UNL     1      38.116  30.966  51.829  0.00  0.00    +0.000 HD
ATOM     32  H   UNL     1      38.197  32.229  49.671  0.00  0.00    +0.000 HD
ATOM     33  H   UNL     1      35.790  27.988  49.920  0.00  0.00    +0.000 HD
ENDBRANCH  24  27
ENDBRANCH  21  24
ENDBRANCH  19  21
ENDBRANCH   3  19
TORSDOF 6
