
 OpenBabel03272504133D

 20 21  0  0  0  0  0  0  0  0999 V2000
   38.3860   23.7570   37.0030 C   0  0  0  0  0  0  0  0  0  0  0  0
   37.8650   24.8820   36.3610 C   0  0  0  0  0  0  0  0  0  0  0  0
   37.9290   24.9270   34.9590 C   0  0  0  0  0  0  0  0  0  0  0  0
   38.4950   23.8730   34.3130 N   0  0  0  0  0  0  0  0  0  0  0  0
   38.9880   22.8010   34.9760 C   0  0  0  0  0  0  0  0  0  0  0  0
   38.9260   22.7600   36.3130 N   0  0  0  0  0  0  0  0  0  0  0  0
   37.4410   25.6630   36.9440 H   0  0  0  0  0  0  0  0  0  0  0  0
   39.4080   22.0340   34.3520 H   0  0  0  0  0  0  0  0  0  0  0  0
   37.4040   26.0690   34.2490 C   0  0  0  0  0  0  0  0  0  0  0  0
   37.0910   27.2750   34.8400 C   0  0  0  0  0  0  0  0  0  0  0  0
   37.1820   27.5490   35.8800 H   0  0  0  0  0  0  0  0  0  0  0  0
   36.6270   28.0660   33.7850 C   0  0  0  0  0  0  0  0  0  0  0  0
   36.3050   29.0820   33.9660 H   0  0  0  0  0  0  0  0  0  0  0  0
   36.6880   27.2890   32.6260 C   0  0  0  0  0  0  0  0  0  0  0  0
   36.3750   27.6800   31.6470 H   0  0  0  0  0  0  0  0  0  0  0  0
   37.1600   26.1120   32.9760 O   0  0  0  0  0  0  0  0  0  0  0  0
   38.3220   23.7030   38.4910 C   0  0  0  0  0  0  0  0  0  0  0  0
   37.3700   22.7710   38.8900 F   0  0  0  0  0  0  0  0  0  0  0  0
   39.5670   23.4580   38.9790 F   0  0  0  0  0  0  0  0  0  0  0  0
   37.8670   24.9530   38.9310 F   0  0  0  0  0  0  0  0  0  0  0  0
  1 17  1  0  0  0  0
  2  7  1  0  0  0  0
  2  1  1  0  0  0  0
  3  2  2  0  0  0  0
  4  3  1  0  0  0  0
  4  5  2  0  0  0  0
  5  6  1  0  0  0  0
  6  1  2  0  0  0  0
  8  5  1  0  0  0  0
  9 10  2  0  0  0  0
  9  3  1  0  0  0  0
 10 11  1  0  0  0  0
 12 13  1  0  0  0  0
 12 10  1  0  0  0  0
 14 16  1  0  0  0  0
 14 12  2  0  0  0  0
 15 14  1  0  0  0  0
 16  9  1  0  0  0  0
 17 18  1  0  0  0  0
 17 20  1  0  0  0  0
 17 19  1  0  0  0  0
M  END
>  <minimizedAffinity>
-4.91452551

$$$$

 OpenBabel03272504133D

 20 21  0  0  0  0  0  0  0  0999 V2000
   38.4590   23.5460   36.6990 C   0  0  0  0  0  0  0  0  0  0  0  0
   37.6950   22.5650   36.0640 C   0  0  0  0  0  0  0  0  0  0  0  0
   37.8150   22.4370   34.6710 C   0  0  0  0  0  0  0  0  0  0  0  0
   38.6680   23.2770   34.0260 N   0  0  0  0  0  0  0  0  0  0  0  0
   39.3910   24.2150   34.6820 C   0  0  0  0  0  0  0  0  0  0  0  0
   39.2740   24.3350   36.0100 N   0  0  0  0  0  0  0  0  0  0  0  0
   37.0510   21.9510   36.6470 H   0  0  0  0  0  0  0  0  0  0  0  0
   40.0290   24.8150   34.0590 H   0  0  0  0  0  0  0  0  0  0  0  0
   37.0460   21.4370   33.9690 C   0  0  0  0  0  0  0  0  0  0  0  0
   35.8930   20.8610   34.4570 C   0  0  0  0  0  0  0  0  0  0  0  0
   35.4000   21.0510   35.3990 H   0  0  0  0  0  0  0  0  0  0  0  0
   35.5030   19.9680   33.4540 C   0  0  0  0  0  0  0  0  0  0  0  0
   34.6120   19.3680   33.5750 H   0  0  0  0  0  0  0  0  0  0  0  0
   36.4430   20.0630   32.4270 C   0  0  0  0  0  0  0  0  0  0  0  0
   36.3660   19.4580   31.5110 H   0  0  0  0  0  0  0  0  0  0  0  0
   37.3330   20.9560   32.8000 O   0  0  0  0  0  0  0  0  0  0  0  0
   38.3360   23.6880   38.1780 C   0  0  0  0  0  0  0  0  0  0  0  0
   39.5060   23.2560   38.7930 F   0  0  0  0  0  0  0  0  0  0  0  0
   38.0020   24.9720   38.4720 F   0  0  0  0  0  0  0  0  0  0  0  0
   37.3210   22.8160   38.5930 F   0  0  0  0  0  0  0  0  0  0  0  0
  1 17  1  0  0  0  0
  2  7  1  0  0  0  0
  2  1  1  0  0  0  0
  3  2  2  0  0  0  0
  4  3  1  0  0  0  0
  4  5  2  0  0  0  0
  5  6  1  0  0  0  0
  6  1  2  0  0  0  0
  8  5  1  0  0  0  0
  9 10  2  0  0  0  0
  9  3  1  0  0  0  0
 10 11  1  0  0  0  0
 12 13  1  0  0  0  0
 12 10  1  0  0  0  0
 14 16  1  0  0  0  0
 14 12  2  0  0  0  0
 15 14  1  0  0  0  0
 16  9  1  0  0  0  0
 17 19  1  0  0  0  0
 17 20  1  0  0  0  0
 17 18  1  0  0  0  0
M  END
>  <minimizedAffinity>
-4.65761185

$$$$

 OpenBabel03272504133D

 20 21  0  0  0  0  0  0  0  0999 V2000
   39.9710   23.0310   37.0900 C   0  0  0  0  0  0  0  0  0  0  0  0
   39.5410   23.8230   36.0230 C   0  0  0  0  0  0  0  0  0  0  0  0
   38.3870   24.6020   36.2070 C   0  0  0  0  0  0  0  0  0  0  0  0
   37.7600   24.5370   37.4120 N   0  0  0  0  0  0  0  0  0  0  0  0
   38.2130   23.7550   38.4190 C   0  0  0  0  0  0  0  0  0  0  0  0
   39.3130   23.0120   38.2420 N   0  0  0  0  0  0  0  0  0  0  0  0
   40.0910   23.8120   35.1140 H   0  0  0  0  0  0  0  0  0  0  0  0
   37.6300   23.7920   39.3210 H   0  0  0  0  0  0  0  0  0  0  0  0
   37.9020   25.4370   35.1340 C   0  0  0  0  0  0  0  0  0  0  0  0
   37.5740   26.7690   35.2750 C   0  0  0  0  0  0  0  0  0  0  0  0
   37.6220   27.3760   36.1660 H   0  0  0  0  0  0  0  0  0  0  0  0
   37.1610   27.1590   33.9970 C   0  0  0  0  0  0  0  0  0  0  0  0
   36.8400   28.1750   33.8140 H   0  0  0  0  0  0  0  0  0  0  0  0
   37.2660   26.0400   33.1680 C   0  0  0  0  0  0  0  0  0  0  0  0
   36.9990   26.0790   32.1020 H   0  0  0  0  0  0  0  0  0  0  0  0
   37.7140   25.0510   33.9110 O   0  0  0  0  0  0  0  0  0  0  0  0
   41.1960   22.2010   36.9020 C   0  0  0  0  0  0  0  0  0  0  0  0
   41.3420   21.3250   37.9710 F   0  0  0  0  0  0  0  0  0  0  0  0
   41.1300   21.5850   35.6910 F   0  0  0  0  0  0  0  0  0  0  0  0
   42.2940   23.0700   36.9440 F   0  0  0  0  0  0  0  0  0  0  0  0
  1  6  1  0  0  0  0
  2  3  1  0  0  0  0
  2  1  2  0  0  0  0
  3  4  2  0  0  0  0
  4  5  1  0  0  0  0
  5  8  1  0  0  0  0
  6  5  2  0  0  0  0
  7  2  1  0  0  0  0
  9 10  2  0  0  0  0
  9  3  1  0  0  0  0
 10 11  1  0  0  0  0
 12 10  1  0  0  0  0
 13 12  1  0  0  0  0
 14 16  1  0  0  0  0
 14 12  2  0  0  0  0
 15 14  1  0  0  0  0
 16  9  1  0  0  0  0
 17 20  1  0  0  0  0
 17  1  1  0  0  0  0
 17 18  1  0  0  0  0
 19 17  1  0  0  0  0
M  END
>  <minimizedAffinity>
-4.5174551

$$$$

 OpenBabel03272504133D

 20 21  0  0  0  0  0  0  0  0999 V2000
   38.1570   24.0760   36.9630 C   0  0  0  0  0  0  0  0  0  0  0  0
   38.1310   22.9870   36.0900 C   0  0  0  0  0  0  0  0  0  0  0  0
   38.0940   23.2510   34.7110 C   0  0  0  0  0  0  0  0  0  0  0  0
   38.0850   24.5510   34.3120 N   0  0  0  0  0  0  0  0  0  0  0  0
   38.1120   25.5770   35.1940 C   0  0  0  0  0  0  0  0  0  0  0  0
   38.1470   25.3230   36.5090 N   0  0  0  0  0  0  0  0  0  0  0  0
   38.1380   22.0020   36.4890 H   0  0  0  0  0  0  0  0  0  0  0  0
   38.1020   26.5570   34.7530 H   0  0  0  0  0  0  0  0  0  0  0  0
   38.0650   22.1590   33.7680 C   0  0  0  0  0  0  0  0  0  0  0  0
   39.1860   21.6050   33.1870 C   0  0  0  0  0  0  0  0  0  0  0  0
   40.2190   21.8850   33.3330 H   0  0  0  0  0  0  0  0  0  0  0  0
   38.6830   20.5970   32.3600 C   0  0  0  0  0  0  0  0  0  0  0  0
   39.3560   19.9880   31.7710 H   0  0  0  0  0  0  0  0  0  0  0  0
   37.2930   20.6050   32.4940 C   0  0  0  0  0  0  0  0  0  0  0  0
   36.6520   19.9010   31.9430 H   0  0  0  0  0  0  0  0  0  0  0  0
   36.9950   21.5600   33.3480 O   0  0  0  0  0  0  0  0  0  0  0  0
   38.1960   23.8030   38.4290 C   0  0  0  0  0  0  0  0  0  0  0  0
   38.0090   24.9860   39.1350 F   0  0  0  0  0  0  0  0  0  0  0  0
   37.2860   22.8370   38.7220 F   0  0  0  0  0  0  0  0  0  0  0  0
   39.4900   23.3580   38.7310 F   0  0  0  0  0  0  0  0  0  0  0  0
  1 17  1  0  0  0  0
  2  7  1  0  0  0  0
  2  1  2  0  0  0  0
  3  2  1  0  0  0  0
  4  3  2  0  0  0  0
  4  5  1  0  0  0  0
  5  6  2  0  0  0  0
  6  1  1  0  0  0  0
  8  5  1  0  0  0  0
  9  3  1  0  0  0  0
 10 11  1  0  0  0  0
 10  9  2  0  0  0  0
 12 14  2  0  0  0  0
 12 10  1  0  0  0  0
 13 12  1  0  0  0  0
 14 16  1  0  0  0  0
 15 14  1  0  0  0  0
 16  9  1  0  0  0  0
 17 19  1  0  0  0  0
 17 20  1  0  0  0  0
 17 18  1  0  0  0  0
M  END
>  <minimizedAffinity>
-4.45827579

$$$$

 OpenBabel03272504133D

 20 21  0  0  0  0  0  0  0  0999 V2000
   38.2690   23.5110   36.8470 C   0  0  0  0  0  0  0  0  0  0  0  0
   38.7560   24.6000   36.1210 C   0  0  0  0  0  0  0  0  0  0  0  0
   38.7560   24.5100   34.7200 C   0  0  0  0  0  0  0  0  0  0  0  0
   38.2810   23.3670   34.1560 N   0  0  0  0  0  0  0  0  0  0  0  0
   37.8180   22.3350   34.8980 C   0  0  0  0  0  0  0  0  0  0  0  0
   37.8200   22.4230   36.2340 N   0  0  0  0  0  0  0  0  0  0  0  0
   39.1100   25.4550   36.6450 H   0  0  0  0  0  0  0  0  0  0  0  0
   37.4700   21.4890   34.3330 H   0  0  0  0  0  0  0  0  0  0  0  0
   39.2490   25.6100   33.9260 C   0  0  0  0  0  0  0  0  0  0  0  0
   38.5950   26.1310   32.8300 C   0  0  0  0  0  0  0  0  0  0  0  0
   37.6540   25.8170   32.4050 H   0  0  0  0  0  0  0  0  0  0  0  0
   39.4300   27.1620   32.3880 C   0  0  0  0  0  0  0  0  0  0  0  0
   39.1570   27.7520   31.5240 H   0  0  0  0  0  0  0  0  0  0  0  0
   40.5320   27.1980   33.2450 C   0  0  0  0  0  0  0  0  0  0  0  0
   41.3460   27.9260   33.1140 H   0  0  0  0  0  0  0  0  0  0  0  0
   40.3580   26.2470   34.1370 O   0  0  0  0  0  0  0  0  0  0  0  0
   38.2670   23.6000   38.3350 C   0  0  0  0  0  0  0  0  0  0  0  0
   37.2730   22.7790   38.8560 F   0  0  0  0  0  0  0  0  0  0  0  0
   39.5140   23.3140   38.7960 F   0  0  0  0  0  0  0  0  0  0  0  0
   37.9160   24.9140   38.6690 F   0  0  0  0  0  0  0  0  0  0  0  0
  1 17  1  0  0  0  0
  2  7  1  0  0  0  0
  2  1  2  0  0  0  0
  3  2  1  0  0  0  0
  4  3  2  0  0  0  0
  4  5  1  0  0  0  0
  5  6  2  0  0  0  0
  6  1  1  0  0  0  0
  8  5  1  0  0  0  0
  9 16  1  0  0  0  0
  9  3  1  0  0  0  0
 10  9  2  0  0  0  0
 11 10  1  0  0  0  0
 12 10  1  0  0  0  0
 12 14  2  0  0  0  0
 13 12  1  0  0  0  0
 14 16  1  0  0  0  0
 15 14  1  0  0  0  0
 17 20  1  0  0  0  0
 17 19  1  0  0  0  0
 17 18  1  0  0  0  0
M  END
>  <minimizedAffinity>
-4.38329172

$$$$

 OpenBabel03272504133D

 20 21  0  0  0  0  0  0  0  0999 V2000
   37.1090   26.8090   34.3480 C   0  0  0  0  0  0  0  0  0  0  0  0
   37.5760   26.1680   35.4970 C   0  0  0  0  0  0  0  0  0  0  0  0
   38.0580   24.8550   35.3670 C   0  0  0  0  0  0  0  0  0  0  0  0
   38.0390   24.2890   34.1310 N   0  0  0  0  0  0  0  0  0  0  0  0
   37.5760   24.9490   33.0430 C   0  0  0  0  0  0  0  0  0  0  0  0
   37.1170   26.2000   33.1690 N   0  0  0  0  0  0  0  0  0  0  0  0
   37.5540   26.6850   36.4260 H   0  0  0  0  0  0  0  0  0  0  0  0
   37.6150   24.3930   32.1230 H   0  0  0  0  0  0  0  0  0  0  0  0
   38.5520   24.1490   36.5250 C   0  0  0  0  0  0  0  0  0  0  0  0
   38.0180   24.2650   37.7910 C   0  0  0  0  0  0  0  0  0  0  0  0
   37.1850   24.8730   38.1090 H   0  0  0  0  0  0  0  0  0  0  0  0
   38.8030   23.4140   38.5750 C   0  0  0  0  0  0  0  0  0  0  0  0
   38.6030   23.3080   39.6330 H   0  0  0  0  0  0  0  0  0  0  0  0
   39.7590   22.8400   37.7340 C   0  0  0  0  0  0  0  0  0  0  0  0
   40.5070   22.1260   38.1080 H   0  0  0  0  0  0  0  0  0  0  0  0
   39.5500   23.3220   36.5290 O   0  0  0  0  0  0  0  0  0  0  0  0
   36.5960   28.2030   34.4790 C   0  0  0  0  0  0  0  0  0  0  0  0
   35.2150   28.1860   34.6370 F   0  0  0  0  0  0  0  0  0  0  0  0
   37.2570   28.8230   35.4930 F   0  0  0  0  0  0  0  0  0  0  0  0
   36.8520   28.8530   33.2650 F   0  0  0  0  0  0  0  0  0  0  0  0
  1 17  1  0  0  0  0
  1  2  1  0  0  0  0
  2  7  1  0  0  0  0
  3  2  2  0  0  0  0
  3  9  1  0  0  0  0
  4  3  1  0  0  0  0
  5  6  1  0  0  0  0
  5  4  2  0  0  0  0
  6  1  2  0  0  0  0
  8  5  1  0  0  0  0
  9 16  1  0  0  0  0
  9 10  2  0  0  0  0
 10 11  1  0  0  0  0
 10 12  1  0  0  0  0
 12 13  1  0  0  0  0
 14 15  1  0  0  0  0
 14 12  2  0  0  0  0
 16 14  1  0  0  0  0
 17 18  1  0  0  0  0
 17 19  1  0  0  0  0
 20 17  1  0  0  0  0
M  END
>  <minimizedAffinity>
-4.35780811

$$$$

 OpenBabel03272504133D

 20 21  0  0  0  0  0  0  0  0999 V2000
   36.6310   21.5950   33.3160 C   0  0  0  0  0  0  0  0  0  0  0  0
   37.2560   21.6240   34.5640 C   0  0  0  0  0  0  0  0  0  0  0  0
   38.1000   22.7080   34.8510 C   0  0  0  0  0  0  0  0  0  0  0  0
   38.2570   23.6640   33.8960 N   0  0  0  0  0  0  0  0  0  0  0  0
   37.6300   23.5960   32.6980 C   0  0  0  0  0  0  0  0  0  0  0  0
   36.8260   22.5600   32.4260 N   0  0  0  0  0  0  0  0  0  0  0  0
   37.0780   20.8330   35.2520 H   0  0  0  0  0  0  0  0  0  0  0  0
   37.8360   24.4120   32.0300 H   0  0  0  0  0  0  0  0  0  0  0  0
   38.7700   22.7840   36.1280 C   0  0  0  0  0  0  0  0  0  0  0  0
   38.2560   23.4190   37.2380 C   0  0  0  0  0  0  0  0  0  0  0  0
   37.3150   23.9400   37.3310 H   0  0  0  0  0  0  0  0  0  0  0  0
   39.2320   23.2370   38.2220 C   0  0  0  0  0  0  0  0  0  0  0  0
   39.0880   23.6420   39.2140 H   0  0  0  0  0  0  0  0  0  0  0  0
   40.2710   22.5050   37.6440 C   0  0  0  0  0  0  0  0  0  0  0  0
   41.1710   22.2250   38.2120 H   0  0  0  0  0  0  0  0  0  0  0  0
   39.9290   22.2690   36.3970 O   0  0  0  0  0  0  0  0  0  0  0  0
   35.7330   20.4460   33.0040 C   0  0  0  0  0  0  0  0  0  0  0  0
   35.4510   19.7370   34.1660 F   0  0  0  0  0  0  0  0  0  0  0  0
   34.6280   20.9110   32.3620 F   0  0  0  0  0  0  0  0  0  0  0  0
   36.4480   19.5770   32.1700 F   0  0  0  0  0  0  0  0  0  0  0  0
  1  2  1  0  0  0  0
  2  3  2  0  0  0  0
  2  7  1  0  0  0  0
  3  9  1  0  0  0  0
  4  3  1  0  0  0  0
  5  4  2  0  0  0  0
  6  5  1  0  0  0  0
  6  1  2  0  0  0  0
  8  5  1  0  0  0  0
  9 16  1  0  0  0  0
  9 10  2  0  0  0  0
 10 11  1  0  0  0  0
 10 12  1  0  0  0  0
 12 13  1  0  0  0  0
 14 15  1  0  0  0  0
 14 12  2  0  0  0  0
 16 14  1  0  0  0  0
 17  1  1  0  0  0  0
 17 18  1  0  0  0  0
 19 17  1  0  0  0  0
 20 17  1  0  0  0  0
M  END
>  <minimizedAffinity>
-4.32514238

$$$$

 OpenBabel03272504133D

 20 21  0  0  0  0  0  0  0  0999 V2000
   36.1700   23.8190   31.7150 C   0  0  0  0  0  0  0  0  0  0  0  0
   37.0150   24.3240   32.7060 C   0  0  0  0  0  0  0  0  0  0  0  0
   37.0780   25.7170   32.8680 C   0  0  0  0  0  0  0  0  0  0  0  0
   36.3130   26.4890   32.0510 N   0  0  0  0  0  0  0  0  0  0  0  0
   35.5070   25.9570   31.1030 C   0  0  0  0  0  0  0  0  0  0  0  0
   35.4490   24.6280   30.9490 N   0  0  0  0  0  0  0  0  0  0  0  0
   37.5800   23.6470   33.3000 H   0  0  0  0  0  0  0  0  0  0  0  0
   34.9530   26.6730   30.5220 H   0  0  0  0  0  0  0  0  0  0  0  0
   37.9370   26.2880   33.8790 C   0  0  0  0  0  0  0  0  0  0  0  0
   37.4830   26.9560   34.9960 C   0  0  0  0  0  0  0  0  0  0  0  0
   36.4620   27.1550   35.2840 H   0  0  0  0  0  0  0  0  0  0  0  0
   38.6490   27.3230   35.6750 C   0  0  0  0  0  0  0  0  0  0  0  0
   38.5890   27.8720   36.6050 H   0  0  0  0  0  0  0  0  0  0  0  0
   39.7300   26.8530   34.9260 C   0  0  0  0  0  0  0  0  0  0  0  0
   40.7700   27.0120   35.2450 H   0  0  0  0  0  0  0  0  0  0  0  0
   39.2320   26.2460   33.8700 O   0  0  0  0  0  0  0  0  0  0  0  0
   36.0980   22.3410   31.5360 C   0  0  0  0  0  0  0  0  0  0  0  0
   35.1650   22.0280   30.5550 F   0  0  0  0  0  0  0  0  0  0  0  0
   37.3460   21.8660   31.2800 F   0  0  0  0  0  0  0  0  0  0  0  0
   35.6130   21.8040   32.7360 F   0  0  0  0  0  0  0  0  0  0  0  0
  1  2  1  0  0  0  0
  2  3  2  0  0  0  0
  2  7  1  0  0  0  0
  3  9  1  0  0  0  0
  4  3  1  0  0  0  0
  5  4  2  0  0  0  0
  6  5  1  0  0  0  0
  6  1  2  0  0  0  0
  8  5  1  0  0  0  0
  9 10  2  0  0  0  0
 10 11  1  0  0  0  0
 10 12  1  0  0  0  0
 12 13  1  0  0  0  0
 14 15  1  0  0  0  0
 14 12  2  0  0  0  0
 16  9  1  0  0  0  0
 16 14  1  0  0  0  0
 17  1  1  0  0  0  0
 17 20  1  0  0  0  0
 18 17  1  0  0  0  0
 19 17  1  0  0  0  0
M  END
>  <minimizedAffinity>
-4.30264854

$$$$

 OpenBabel03272504133D

 20 21  0  0  0  0  0  0  0  0999 V2000
   37.4410   25.9570   33.5660 C   0  0  0  0  0  0  0  0  0  0  0  0
   37.8670   25.5890   34.8440 C   0  0  0  0  0  0  0  0  0  0  0  0
   38.1420   24.2330   35.0800 C   0  0  0  0  0  0  0  0  0  0  0  0
   37.9760   23.3610   34.0500 N   0  0  0  0  0  0  0  0  0  0  0  0
   37.5610   23.7610   32.8250 C   0  0  0  0  0  0  0  0  0  0  0  0
   37.2990   25.0560   32.6030 N   0  0  0  0  0  0  0  0  0  0  0  0
   37.9690   26.3370   35.5920 H   0  0  0  0  0  0  0  0  0  0  0  0
   37.4690   22.9770   32.0970 H   0  0  0  0  0  0  0  0  0  0  0  0
   38.5850   23.8020   36.3840 C   0  0  0  0  0  0  0  0  0  0  0  0
   37.9310   24.0950   37.5620 C   0  0  0  0  0  0  0  0  0  0  0  0
   37.0260   24.6670   37.6960 H   0  0  0  0  0  0  0  0  0  0  0  0
   38.7090   23.4830   38.5500 C   0  0  0  0  0  0  0  0  0  0  0  0
   38.4240   23.5530   39.5900 H   0  0  0  0  0  0  0  0  0  0  0  0
   39.7810   22.8600   37.9060 C   0  0  0  0  0  0  0  0  0  0  0  0
   40.5480   22.3030   38.4630 H   0  0  0  0  0  0  0  0  0  0  0  0
   39.6430   23.0910   36.6190 O   0  0  0  0  0  0  0  0  0  0  0  0
   37.1470   27.3960   33.3090 C   0  0  0  0  0  0  0  0  0  0  0  0
   38.1700   27.9600   32.5550 F   0  0  0  0  0  0  0  0  0  0  0  0
   35.9200   27.5000   32.7330 F   0  0  0  0  0  0  0  0  0  0  0  0
   37.1570   28.0480   34.5490 F   0  0  0  0  0  0  0  0  0  0  0  0
  1  2  1  0  0  0  0
  2  3  2  0  0  0  0
  2  7  1  0  0  0  0
  3  9  1  0  0  0  0
  4  3  1  0  0  0  0
  5  4  2  0  0  0  0
  6  5  1  0  0  0  0
  6  1  2  0  0  0  0
  8  5  1  0  0  0  0
  9 16  1  0  0  0  0
  9 10  2  0  0  0  0
 10 11  1  0  0  0  0
 10 12  1  0  0  0  0
 12 13  1  0  0  0  0
 14 15  1  0  0  0  0
 14 12  2  0  0  0  0
 16 14  1  0  0  0  0
 17  1  1  0  0  0  0
 17 20  1  0  0  0  0
 18 17  1  0  0  0  0
 19 17  1  0  0  0  0
M  END
>  <minimizedAffinity>
-4.25985956

$$$$
