
 OpenBabel03272505123D

 38 41  0  0  0  0  0  0  0  0999 V2000
   36.4040   30.9180   45.7160 Cl  0  0  0  0  0  0  0  0  0  0  0  0
   36.6980   30.7750   47.4230 C   0  0  0  0  0  0  0  0  0  0  0  0
   37.9510   31.0920   47.8870 C   0  0  0  0  0  0  0  0  0  0  0  0
   38.1890   30.9790   49.2440 C   0  0  0  0  0  0  0  0  0  0  0  0
   37.1920   30.5640   50.0840 C   0  0  0  0  0  0  0  0  0  0  0  0
   35.9470   30.2590   49.5500 C   0  0  0  0  0  0  0  0  0  0  0  0
   35.6340   30.3450   48.2200 C   0  0  0  0  0  0  0  0  0  0  0  0
   39.1850   31.2340   49.5880 H   0  0  0  0  0  0  0  0  0  0  0  0
   37.3640   30.4710   51.1460 H   0  0  0  0  0  0  0  0  0  0  0  0
   35.1710   29.9310   50.2370 H   0  0  0  0  0  0  0  0  0  0  0  0
   40.2110   33.3190   46.0820 C   0  0  0  0  0  0  0  0  0  0  0  0
   40.9230   32.4610   45.2060 C   0  0  0  0  0  0  0  0  0  0  0  0
   40.6020   31.1000   45.2550 C   0  0  0  0  0  0  0  0  0  0  0  0
   39.6390   30.6810   46.1290 N   0  0  0  0  0  0  0  0  0  0  0  0
   38.9960   31.5370   46.9360 C   0  0  0  0  0  0  0  0  0  0  0  0
   39.2830   32.8430   46.9100 N   0  0  0  0  0  0  0  0  0  0  0  0
   40.4380   34.3570   46.0630 H   0  0  0  0  0  0  0  0  0  0  0  0
   41.6670   32.8190   44.5380 H   0  0  0  0  0  0  0  0  0  0  0  0
   41.0900   30.3670   44.6270 H   0  0  0  0  0  0  0  0  0  0  0  0
   34.0490   29.9590   47.5260 S   0  0  0  0  0  0  0  0  0  0  0  0
   33.7880   29.1880   44.4950 Cl  0  0  0  0  0  0  0  0  0  0  0  0
   33.8100   27.9660   45.7320 C   0  0  0  0  0  0  0  0  0  0  0  0
   33.9200   28.2230   47.0990 C   0  0  0  0  0  0  0  0  0  0  0  0
   33.9250   27.1720   47.9970 C   0  0  0  0  0  0  0  0  0  0  0  0
   33.8210   25.8780   47.5520 C   0  0  0  0  0  0  0  0  0  0  0  0
   33.7090   25.5620   46.2070 C   0  0  0  0  0  0  0  0  0  0  0  0
   33.7090   26.6430   45.3380 C   0  0  0  0  0  0  0  0  0  0  0  0
   34.0130   27.4580   49.0400 H   0  0  0  0  0  0  0  0  0  0  0  0
   33.8290   25.0970   48.3030 H   0  0  0  0  0  0  0  0  0  0  0  0
   33.6290   24.5570   45.8640 H   0  0  0  0  0  0  0  0  0  0  0  0
   33.5920   26.3280   43.9100 C   0  0  0  0  0  0  0  0  0  0  0  0
   32.4860   26.0940   43.1620 C   0  0  0  0  0  0  0  0  0  0  0  0
   31.4740   26.1220   43.5950 H   0  0  0  0  0  0  0  0  0  0  0  0
   32.7850   25.8290   41.8420 C   0  0  0  0  0  0  0  0  0  0  0  0
   32.1270   25.6070   41.0150 H   0  0  0  0  0  0  0  0  0  0  0  0
   34.1720   25.9210   41.8550 C   0  0  0  0  0  0  0  0  0  0  0  0
   34.8320   25.7760   40.9860 H   0  0  0  0  0  0  0  0  0  0  0  0
   34.5860   26.2090   43.0620 O   0  0  0  0  0  0  0  0  0  0  0  0
  1  2  1  0  0  0  0
  2  3  2  0  0  0  0
  2  7  1  0  0  0  0
  3  4  1  0  0  0  0
  4  8  1  0  0  0  0
  4  5  2  0  0  0  0
  5  9  1  0  0  0  0
  6  5  1  0  0  0  0
  6 10  1  0  0  0  0
  7  6  2  0  0  0  0
 11 16  1  0  0  0  0
 12 13  1  0  0  0  0
 12 11  2  0  0  0  0
 13 14  2  0  0  0  0
 14 15  1  0  0  0  0
 15  3  1  0  0  0  0
 16 15  2  0  0  0  0
 17 11  1  0  0  0  0
 18 12  1  0  0  0  0
 19 13  1  0  0  0  0
 20  7  1  0  0  0  0
 21 22  1  0  0  0  0
 22 23  1  0  0  0  0
 23 20  1  0  0  0  0
 23 24  2  0  0  0  0
 24 28  1  0  0  0  0
 25 24  1  0  0  0  0
 25 29  1  0  0  0  0
 26 25  2  0  0  0  0
 27 22  2  0  0  0  0
 27 26  1  0  0  0  0
 30 26  1  0  0  0  0
 31 27  1  0  0  0  0
 32 33  1  0  0  0  0
 32 31  2  0  0  0  0
 34 36  2  0  0  0  0
 34 32  1  0  0  0  0
 35 34  1  0  0  0  0
 36 38  1  0  0  0  0
 37 36  1  0  0  0  0
 38 31  1  0  0  0  0
M  END
>  <minimizedAffinity>
-5.60386467

>  <minimizedRMSD>
0.129952446

$$$$
