
 OpenBabel03272506483D

 41 44  0  0  1  0  0  0  0  0999 V2000
   32.0020   28.3760   47.4980 C   0  0  2  0  0  0  0  0  0  0  0  0
   33.2590   28.1680   48.2890 C   0  0  1  0  0  0  0  0  0  0  0  0
   33.6110   26.8580   48.1870 O   0  0  0  0  0  0  0  0  0  0  0  0
   32.8580   26.2560   47.1840 C   0  0  0  0  0  0  0  0  0  0  0  0
   32.2720   27.3650   46.3390 C   0  0  1  0  0  0  0  0  0  0  0  0
   31.0840   28.0600   47.9810 H   0  0  0  0  0  0  0  0  0  0  0  0
   33.0530   28.5190   49.3190 H   0  0  0  0  0  0  0  0  0  0  0  0
   32.1430   25.6120   47.6790 H   0  0  0  0  0  0  0  0  0  0  0  0
   33.6020   25.6520   46.5740 H   0  0  0  0  0  0  0  0  0  0  0  0
   33.0070   27.8230   45.6800 H   0  0  0  0  0  0  0  0  0  0  0  0
   31.9590   29.6810   46.9650 O   0  0  0  0  0  0  0  0  0  0  0  0
   32.4710   29.6540   46.1210 H   0  0  0  0  0  0  0  0  0  0  0  0
   34.5810   29.1730   47.4990 S   0  0  0  0  0  0  0  0  0  0  0  0
   37.0100   29.2510   50.6290 C   0  0  0  0  0  0  0  0  0  0  0  0
   37.4140   30.5810   50.7390 C   0  0  0  0  0  0  0  0  0  0  0  0
   36.9180   31.4890   49.8110 C   0  0  0  0  0  0  0  0  0  0  0  0
   36.0650   31.0420   48.8430 N   0  0  0  0  0  0  0  0  0  0  0  0
   35.7000   29.7430   48.7740 C   0  0  0  0  0  0  0  0  0  0  0  0
   36.1650   28.8300   49.6640 N   0  0  0  0  0  0  0  0  0  0  0  0
   37.3450   28.4760   51.3070 H   0  0  0  0  0  0  0  0  0  0  0  0
   38.0840   30.8630   51.5220 H   0  0  0  0  0  0  0  0  0  0  0  0
   37.2040   32.5330   49.8560 H   0  0  0  0  0  0  0  0  0  0  0  0
   31.0950   26.9280   45.7820 O   0  0  0  0  0  0  0  0  0  0  0  0
   29.9220   29.1730   44.2790 Cl  0  0  0  0  0  0  0  0  0  0  0  0
   29.2210   28.2550   45.5900 C   0  0  0  0  0  0  0  0  0  0  0  0
   29.8690   27.2120   46.2110 C   0  0  0  0  0  0  0  0  0  0  0  0
   29.1940   26.5340   47.2280 C   0  0  0  0  0  0  0  0  0  0  0  0
   27.9180   26.9050   47.5950 C   0  0  0  0  0  0  0  0  0  0  0  0
   27.2590   27.9530   46.9780 C   0  0  0  0  0  0  0  0  0  0  0  0
   27.9310   28.6210   45.9700 C   0  0  0  0  0  0  0  0  0  0  0  0
   29.6030   25.7030   47.7730 H   0  0  0  0  0  0  0  0  0  0  0  0
   27.3560   26.4190   48.3710 H   0  0  0  0  0  0  0  0  0  0  0  0
   26.2590   28.2520   47.2600 H   0  0  0  0  0  0  0  0  0  0  0  0
   27.2540   29.7320   45.3040 C   0  0  0  0  0  0  0  0  0  0  0  0
   27.1490   31.0130   45.7320 C   0  0  0  0  0  0  0  0  0  0  0  0
   27.5760   31.3920   46.6720 H   0  0  0  0  0  0  0  0  0  0  0  0
   26.4320   31.7870   44.8300 C   0  0  0  0  0  0  0  0  0  0  0  0
   26.1650   32.8240   44.8540 H   0  0  0  0  0  0  0  0  0  0  0  0
   26.1270   30.8660   43.8480 C   0  0  0  0  0  0  0  0  0  0  0  0
   25.5600   31.0270   42.9170 H   0  0  0  0  0  0  0  0  0  0  0  0
   26.6170   29.6890   44.1510 O   0  0  0  0  0  0  0  0  0  0  0  0
  1  6  1  1  0  0  0
  1  2  1  0  0  0  0
  2  7  1  1  0  0  0
  3  2  1  0  0  0  0
  4  8  1  0  0  0  0
  4  3  1  0  0  0  0
  5 10  1  6  0  0  0
  5  4  1  0  0  0  0
  5  1  1  0  0  0  0
  9  4  1  0  0  0  0
 11  1  1  0  0  0  0
 12 11  1  0  0  0  0
 13  2  1  0  0  0  0
 13 18  1  0  0  0  0
 14 15  1  0  0  0  0
 14 20  1  0  0  0  0
 15 21  1  0  0  0  0
 16 22  1  0  0  0  0
 16 15  2  0  0  0  0
 17 16  1  0  0  0  0
 18 17  2  0  0  0  0
 18 19  1  0  0  0  0
 19 14  2  0  0  0  0
 23 26  1  0  0  0  0
 23  5  1  0  0  0  0
 24 25  1  0  0  0  0
 25 30  2  0  0  0  0
 25 26  1  0  0  0  0
 26 27  2  0  0  0  0
 27 28  1  0  0  0  0
 27 31  1  0  0  0  0
 28 32  1  0  0  0  0
 29 33  1  0  0  0  0
 29 28  2  0  0  0  0
 30 29  1  0  0  0  0
 34 35  2  0  0  0  0
 34 30  1  0  0  0  0
 35 36  1  0  0  0  0
 37 38  1  0  0  0  0
 37 35  1  0  0  0  0
 39 41  1  0  0  0  0
 39 37  2  0  0  0  0
 40 39  1  0  0  0  0
 41 34  1  0  0  0  0
M  END
>  <minimizedAffinity>
-5.15369081

>  <minimizedRMSD>
0.622455299

$$$$
