
 OpenBabel03272500333D

 43 46  0  0  1  0  0  0  0  0999 V2000
   41.2930   24.5760   34.7020 C   0  0  1  0  0  0  0  0  0  0  0  0
   42.4250   25.4310   35.0190 C   0  0  0  0  0  0  0  0  0  0  0  0
   43.6050   24.4540   35.0350 C   0  0  0  0  0  0  0  0  0  0  0  0
   43.4450   23.7740   36.4080 C   0  0  0  0  0  0  0  0  0  0  0  0
   42.1400   23.1320   36.5970 C   0  0  0  0  0  0  0  0  0  0  0  0
   41.1570   23.3070   35.5130 C   0  0  1  0  0  0  0  0  0  0  0  0
   41.3270   24.2090   33.6360 H   0  0  0  0  0  0  0  0  0  0  0  0
   42.6750   25.7330   36.0330 H   0  0  0  0  0  0  0  0  0  0  0  0
   42.7100   26.1600   34.2390 H   0  0  0  0  0  0  0  0  0  0  0  0
   43.5070   23.7080   34.2230 H   0  0  0  0  0  0  0  0  0  0  0  0
   44.5450   25.0030   35.0710 H   0  0  0  0  0  0  0  0  0  0  0  0
   44.3340   23.1660   36.5220 H   0  0  0  0  0  0  0  0  0  0  0  0
   43.6000   24.6370   37.1230 H   0  0  0  0  0  0  0  0  0  0  0  0
   41.6590   23.5710   37.5230 H   0  0  0  0  0  0  0  0  0  0  0  0
   42.2050   22.0410   36.8600 H   0  0  0  0  0  0  0  0  0  0  0  0
   41.3320   22.4520   34.8320 H   0  0  0  0  0  0  0  0  0  0  0  0
   39.2250   23.9600   32.5650 Cl  0  0  0  0  0  0  0  0  0  0  0  0
   39.0600   25.2170   33.7610 C   0  0  0  0  0  0  0  0  0  0  0  0
   37.8960   25.9340   33.6680 C   0  0  0  0  0  0  0  0  0  0  0  0
   37.6600   26.9060   34.6290 C   0  0  0  0  0  0  0  0  0  0  0  0
   38.6070   27.0900   35.6220 C   0  0  0  0  0  0  0  0  0  0  0  0
   39.7520   26.3250   35.6450 C   0  0  0  0  0  0  0  0  0  0  0  0
   40.0270   25.3560   34.7140 C   0  0  0  0  0  0  0  0  0  0  0  0
   36.7640   27.5090   34.6160 H   0  0  0  0  0  0  0  0  0  0  0  0
   38.4240   27.8480   36.3740 H   0  0  0  0  0  0  0  0  0  0  0  0
   40.4530   26.5220   36.4520 H   0  0  0  0  0  0  0  0  0  0  0  0
   35.5230   26.4940   30.9450 C   0  0  0  0  0  0  0  0  0  0  0  0
   35.0040   25.2230   30.6620 C   0  0  0  0  0  0  0  0  0  0  0  0
   35.4990   24.1700   31.4280 C   0  0  0  0  0  0  0  0  0  0  0  0
   36.4390   24.4220   32.3890 N   0  0  0  0  0  0  0  0  0  0  0  0
   36.9000   25.6570   32.6170 C   0  0  0  0  0  0  0  0  0  0  0  0
   36.4380   26.6930   31.8900 N   0  0  0  0  0  0  0  0  0  0  0  0
   35.1830   27.3600   30.3880 H   0  0  0  0  0  0  0  0  0  0  0  0
   34.2620   25.0850   29.8930 H   0  0  0  0  0  0  0  0  0  0  0  0
   35.1460   23.1760   31.2670 H   0  0  0  0  0  0  0  0  0  0  0  0
   39.7630   23.1250   36.0140 C   0  0  0  0  0  0  0  0  0  0  0  0
   39.1030   23.5840   37.1360 C   0  0  0  0  0  0  0  0  0  0  0  0
   39.6190   24.2200   37.8710 H   0  0  0  0  0  0  0  0  0  0  0  0
   37.8080   23.1040   37.0970 C   0  0  0  0  0  0  0  0  0  0  0  0
   37.0690   23.3070   37.8490 H   0  0  0  0  0  0  0  0  0  0  0  0
   37.7460   22.3600   35.9290 C   0  0  0  0  0  0  0  0  0  0  0  0
   36.8440   21.8320   35.5890 H   0  0  0  0  0  0  0  0  0  0  0  0
   38.9150   22.3870   35.3040 O   0  0  0  0  0  0  0  0  0  0  0  0
  1  7  1  6  0  0  0
  1 23  1  0  0  0  0
  1  2  1  0  0  0  0
  1  6  1  0  0  0  0
  2  3  1  0  0  0  0
  2  8  1  0  0  0  0
  3 11  1  0  0  0  0
  3  4  1  0  0  0  0
  4 12  1  0  0  0  0
  4  5  1  0  0  0  0
  4 13  1  0  0  0  0
  5 15  1  0  0  0  0
  5 14  1  0  0  0  0
  6 16  1  6  0  0  0
  6 36  1  0  0  0  0
  6  5  1  0  0  0  0
  9  2  1  0  0  0  0
 10  3  1  0  0  0  0
 17 18  1  0  0  0  0
 18 23  1  0  0  0  0
 19 18  2  0  0  0  0
 19 20  1  0  0  0  0
 20 21  2  0  0  0  0
 21 22  1  0  0  0  0
 21 25  1  0  0  0  0
 22 26  1  0  0  0  0
 23 22  2  0  0  0  0
 24 20  1  0  0  0  0
 27 32  1  0  0  0  0
 28 27  2  0  0  0  0
 28 29  1  0  0  0  0
 29 30  2  0  0  0  0
 30 31  1  0  0  0  0
 31 19  1  0  0  0  0
 32 31  2  0  0  0  0
 33 27  1  0  0  0  0
 34 28  1  0  0  0  0
 35 29  1  0  0  0  0
 36 37  2  0  0  0  0
 37 38  1  0  0  0  0
 39 37  1  0  0  0  0
 39 40  1  0  0  0  0
 41 39  2  0  0  0  0
 42 41  1  0  0  0  0
 43 41  1  0  0  0  0
 43 36  1  0  0  0  0
M  END
>  <minimizedAffinity>
-5.92418957

$$$$

 OpenBabel03272500333D

 43 46  0  0  1  0  0  0  0  0999 V2000
   37.6750   26.9300   33.5710 C   0  0  1  0  0  0  0  0  0  0  0  0
   37.6200   26.4050   34.9250 C   0  0  0  0  0  0  0  0  0  0  0  0
   38.5550   27.3400   35.7000 C   0  0  0  0  0  0  0  0  0  0  0  0
   39.9460   26.8060   35.3070 C   0  0  0  0  0  0  0  0  0  0  0  0
   40.1840   26.7920   33.8600 C   0  0  0  0  0  0  0  0  0  0  0  0
   39.0520   27.1900   33.0030 C   0  0  1  0  0  0  0  0  0  0  0  0
   37.1570   27.9280   33.4840 H   0  0  0  0  0  0  0  0  0  0  0  0
   38.2120   25.5550   35.2580 H   0  0  0  0  0  0  0  0  0  0  0  0
   36.6540   26.5240   35.4490 H   0  0  0  0  0  0  0  0  0  0  0  0
   38.4350   28.3860   35.3560 H   0  0  0  0  0  0  0  0  0  0  0  0
   38.4510   27.1720   36.7700 H   0  0  0  0  0  0  0  0  0  0  0  0
   40.6400   27.3530   35.9340 H   0  0  0  0  0  0  0  0  0  0  0  0
   39.9340   25.7620   35.7440 H   0  0  0  0  0  0  0  0  0  0  0  0
   40.4450   25.7350   33.5530 H   0  0  0  0  0  0  0  0  0  0  0  0
   41.1000   27.3620   33.5450 H   0  0  0  0  0  0  0  0  0  0  0  0
   39.1640   28.2840   32.8780 H   0  0  0  0  0  0  0  0  0  0  0  0
   37.9530   23.9140   33.7970 Cl  0  0  0  0  0  0  0  0  0  0  0  0
   36.9660   24.7250   32.6120 C   0  0  0  0  0  0  0  0  0  0  0  0
   36.3030   23.8830   31.7590 C   0  0  0  0  0  0  0  0  0  0  0  0
   35.4420   24.4510   30.8320 C   0  0  0  0  0  0  0  0  0  0  0  0
   35.3010   25.8280   30.8260 C   0  0  0  0  0  0  0  0  0  0  0  0
   36.0040   26.6060   31.7200 C   0  0  0  0  0  0  0  0  0  0  0  0
   36.8680   26.0870   32.6500 C   0  0  0  0  0  0  0  0  0  0  0  0
   34.8880   23.8470   30.1290 H   0  0  0  0  0  0  0  0  0  0  0  0
   34.6290   26.2740   30.1040 H   0  0  0  0  0  0  0  0  0  0  0  0
   35.8470   27.6790   31.6600 H   0  0  0  0  0  0  0  0  0  0  0  0
   37.6030   20.5170   31.1700 C   0  0  0  0  0  0  0  0  0  0  0  0
   36.7720   19.6800   31.9270 C   0  0  0  0  0  0  0  0  0  0  0  0
   35.7590   20.3070   32.6510 C   0  0  0  0  0  0  0  0  0  0  0  0
   35.6310   21.6670   32.5880 N   0  0  0  0  0  0  0  0  0  0  0  0
   36.4540   22.4190   31.8470 C   0  0  0  0  0  0  0  0  0  0  0  0
   37.4410   21.8370   31.1380 N   0  0  0  0  0  0  0  0  0  0  0  0
   38.4120   20.0980   30.5820 H   0  0  0  0  0  0  0  0  0  0  0  0
   36.9200   18.6130   31.9380 H   0  0  0  0  0  0  0  0  0  0  0  0
   35.0890   19.7300   33.2480 H   0  0  0  0  0  0  0  0  0  0  0  0
   39.1930   26.6270   31.6290 C   0  0  0  0  0  0  0  0  0  0  0  0
   39.6450   25.4110   31.1550 C   0  0  0  0  0  0  0  0  0  0  0  0
   39.9920   24.6320   31.8500 H   0  0  0  0  0  0  0  0  0  0  0  0
   39.5550   25.4280   29.7770 C   0  0  0  0  0  0  0  0  0  0  0  0
   39.8410   24.6090   29.1450 H   0  0  0  0  0  0  0  0  0  0  0  0
   39.0440   26.6810   29.4750 C   0  0  0  0  0  0  0  0  0  0  0  0
   38.8460   27.0300   28.4520 H   0  0  0  0  0  0  0  0  0  0  0  0
   38.8370   27.3740   30.5870 O   0  0  0  0  0  0  0  0  0  0  0  0
  1  7  1  1  0  0  0
  1  2  1  0  0  0  0
  2  8  1  0  0  0  0
  2  9  1  0  0  0  0
  2  3  1  0  0  0  0
  3 11  1  0  0  0  0
  4  3  1  0  0  0  0
  4 13  1  0  0  0  0
  4 12  1  0  0  0  0
  5  4  1  0  0  0  0
  6 16  1  6  0  0  0
  6  1  1  0  0  0  0
  6  5  1  0  0  0  0
 10  3  1  0  0  0  0
 14  5  1  0  0  0  0
 15  5  1  0  0  0  0
 18 23  1  0  0  0  0
 18 17  1  0  0  0  0
 19 31  1  0  0  0  0
 19 18  2  0  0  0  0
 20 19  1  0  0  0  0
 21 20  2  0  0  0  0
 21 22  1  0  0  0  0
 22 23  2  0  0  0  0
 23  1  1  0  0  0  0
 24 20  1  0  0  0  0
 25 21  1  0  0  0  0
 26 22  1  0  0  0  0
 27 28  1  0  0  0  0
 28 34  1  0  0  0  0
 28 29  2  0  0  0  0
 29 35  1  0  0  0  0
 30 29  1  0  0  0  0
 31 30  2  0  0  0  0
 32 27  2  0  0  0  0
 32 31  1  0  0  0  0
 33 27  1  0  0  0  0
 36  6  1  0  0  0  0
 37 36  2  0  0  0  0
 37 38  1  0  0  0  0
 39 37  1  0  0  0  0
 40 39  1  0  0  0  0
 41 39  2  0  0  0  0
 41 43  1  0  0  0  0
 42 41  1  0  0  0  0
 43 36  1  0  0  0  0
M  END
>  <minimizedAffinity>
-5.68033457

$$$$

 OpenBabel03272500333D

 43 46  0  0  1  0  0  0  0  0999 V2000
   39.7670   24.0050   34.9520 C   0  0  1  0  0  0  0  0  0  0  0  0
   40.8020   23.3320   35.7200 C   0  0  0  0  0  0  0  0  0  0  0  0
   40.0370   22.2050   36.4220 C   0  0  0  0  0  0  0  0  0  0  0  0
   39.3480   22.9530   37.5790 C   0  0  0  0  0  0  0  0  0  0  0  0
   38.4970   24.0630   37.1380 C   0  0  0  0  0  0  0  0  0  0  0  0
   38.4980   24.3600   35.6940 C   0  0  1  0  0  0  0  0  0  0  0  0
   39.4050   23.3750   34.0900 H   0  0  0  0  0  0  0  0  0  0  0  0
   41.1480   23.6850   36.6890 H   0  0  0  0  0  0  0  0  0  0  0  0
   41.5630   22.7900   35.1300 H   0  0  0  0  0  0  0  0  0  0  0  0
   39.2800   21.7650   35.7440 H   0  0  0  0  0  0  0  0  0  0  0  0
   40.7350   21.5070   36.8790 H   0  0  0  0  0  0  0  0  0  0  0  0
   38.8980   22.1750   38.1840 H   0  0  0  0  0  0  0  0  0  0  0  0
   40.2290   23.3120   38.1920 H   0  0  0  0  0  0  0  0  0  0  0  0
   38.8550   25.0090   37.6470 H   0  0  0  0  0  0  0  0  0  0  0  0
   37.4340   23.9910   37.4960 H   0  0  0  0  0  0  0  0  0  0  0  0
   37.6800   23.7410   35.2780 H   0  0  0  0  0  0  0  0  0  0  0  0
   38.9060   24.4870   32.0800 Cl  0  0  0  0  0  0  0  0  0  0  0  0
   40.0670   25.4660   32.9370 C   0  0  0  0  0  0  0  0  0  0  0  0
   40.5840   26.5000   32.2030 C   0  0  0  0  0  0  0  0  0  0  0  0
   41.4610   27.3660   32.8380 C   0  0  0  0  0  0  0  0  0  0  0  0
   41.7590   27.1370   34.1710 C   0  0  0  0  0  0  0  0  0  0  0  0
   41.1950   26.0720   34.8380 C   0  0  0  0  0  0  0  0  0  0  0  0
   40.3250   25.1910   34.2490 C   0  0  0  0  0  0  0  0  0  0  0  0
   41.9070   28.2020   32.3190 H   0  0  0  0  0  0  0  0  0  0  0  0
   42.4430   27.8120   34.6690 H   0  0  0  0  0  0  0  0  0  0  0  0
   41.4710   25.9510   35.8820 H   0  0  0  0  0  0  0  0  0  0  0  0
   40.5480   26.2430   28.5560 C   0  0  0  0  0  0  0  0  0  0  0  0
   39.5370   27.1240   28.1500 C   0  0  0  0  0  0  0  0  0  0  0  0
   38.8630   27.8010   29.1650 C   0  0  0  0  0  0  0  0  0  0  0  0
   39.2130   27.5780   30.4680 N   0  0  0  0  0  0  0  0  0  0  0  0
   40.1890   26.7240   30.8000 C   0  0  0  0  0  0  0  0  0  0  0  0
   40.8550   26.0570   29.8370 N   0  0  0  0  0  0  0  0  0  0  0  0
   41.1140   25.6820   27.8200 H   0  0  0  0  0  0  0  0  0  0  0  0
   39.3050   27.2600   27.1060 H   0  0  0  0  0  0  0  0  0  0  0  0
   38.0830   28.4870   28.9270 H   0  0  0  0  0  0  0  0  0  0  0  0
   38.0890   25.7710   35.4330 C   0  0  0  0  0  0  0  0  0  0  0  0
   38.4100   26.9690   36.0400 C   0  0  0  0  0  0  0  0  0  0  0  0
   39.1000   26.9960   36.8970 H   0  0  0  0  0  0  0  0  0  0  0  0
   37.7360   27.9770   35.3810 C   0  0  0  0  0  0  0  0  0  0  0  0
   37.8020   29.0170   35.6440 H   0  0  0  0  0  0  0  0  0  0  0  0
   37.0210   27.3290   34.3860 C   0  0  0  0  0  0  0  0  0  0  0  0
   36.3680   27.8440   33.6680 H   0  0  0  0  0  0  0  0  0  0  0  0
   37.2460   26.0220   34.4350 O   0  0  0  0  0  0  0  0  0  0  0  0
  1  7  1  6  0  0  0
  1  6  1  0  0  0  0
  1  2  1  0  0  0  0
  2  3  1  0  0  0  0
  2  8  1  0  0  0  0
  3 11  1  0  0  0  0
  3  4  1  0  0  0  0
  4 12  1  0  0  0  0
  4 13  1  0  0  0  0
  5 15  1  0  0  0  0
  5  4  1  0  0  0  0
  5 14  1  0  0  0  0
  6 16  1  6  0  0  0
  6  5  1  0  0  0  0
  9  2  1  0  0  0  0
 10  3  1  0  0  0  0
 17 18  1  0  0  0  0
 18 23  1  0  0  0  0
 19 20  1  0  0  0  0
 19 18  2  0  0  0  0
 20 21  2  0  0  0  0
 21 25  1  0  0  0  0
 21 22  1  0  0  0  0
 22 26  1  0  0  0  0
 23 22  2  0  0  0  0
 23  1  1  0  0  0  0
 24 20  1  0  0  0  0
 27 32  1  0  0  0  0
 28 27  2  0  0  0  0
 28 29  1  0  0  0  0
 29 30  2  0  0  0  0
 30 31  1  0  0  0  0
 31 19  1  0  0  0  0
 32 31  2  0  0  0  0
 33 27  1  0  0  0  0
 34 28  1  0  0  0  0
 35 29  1  0  0  0  0
 36  6  1  0  0  0  0
 36 37  2  0  0  0  0
 37 38  1  0  0  0  0
 39 40  1  0  0  0  0
 39 37  1  0  0  0  0
 41 43  1  0  0  0  0
 41 39  2  0  0  0  0
 42 41  1  0  0  0  0
 43 36  1  0  0  0  0
M  END
>  <minimizedAffinity>
-5.36297226

$$$$

 OpenBabel03272500333D

 43 46  0  0  1  0  0  0  0  0999 V2000
   38.6850   24.4460   35.9430 C   0  0  1  0  0  0  0  0  0  0  0  0
   37.5720   24.1350   36.8240 C   0  0  0  0  0  0  0  0  0  0  0  0
   38.1550   24.3750   38.2200 C   0  0  0  0  0  0  0  0  0  0  0  0
   38.9870   23.0980   38.4480 C   0  0  0  0  0  0  0  0  0  0  0  0
   39.9990   22.8630   37.4130 C   0  0  0  0  0  0  0  0  0  0  0  0
   40.0130   23.8060   36.2800 C   0  0  1  0  0  0  0  0  0  0  0  0
   38.9170   25.5500   35.9300 H   0  0  0  0  0  0  0  0  0  0  0  0
   37.3130   23.1200   37.1180 H   0  0  0  0  0  0  0  0  0  0  0  0
   36.7170   24.8340   36.7840 H   0  0  0  0  0  0  0  0  0  0  0  0
   38.8120   25.2660   38.2220 H   0  0  0  0  0  0  0  0  0  0  0  0
   37.3610   24.3620   38.9650 H   0  0  0  0  0  0  0  0  0  0  0  0
   39.3150   23.1610   39.4780 H   0  0  0  0  0  0  0  0  0  0  0  0
   38.1930   22.2920   38.4540 H   0  0  0  0  0  0  0  0  0  0  0  0
   39.8170   21.8420   36.9620 H   0  0  0  0  0  0  0  0  0  0  0  0
   41.0440   22.7600   37.8150 H   0  0  0  0  0  0  0  0  0  0  0  0
   40.7060   24.6110   36.5900 H   0  0  0  0  0  0  0  0  0  0  0  0
   37.2290   21.8630   35.2900 Cl  0  0  0  0  0  0  0  0  0  0  0  0
   37.7260   23.0390   34.1040 C   0  0  0  0  0  0  0  0  0  0  0  0
   37.4060   22.7080   32.8130 C   0  0  0  0  0  0  0  0  0  0  0  0
   37.7060   23.6270   31.8190 C   0  0  0  0  0  0  0  0  0  0  0  0
   38.3040   24.8200   32.1870 C   0  0  0  0  0  0  0  0  0  0  0  0
   38.5920   25.0770   33.5100 C   0  0  0  0  0  0  0  0  0  0  0  0
   38.3160   24.1960   34.5240 C   0  0  0  0  0  0  0  0  0  0  0  0
   37.4830   23.4310   30.7810 H   0  0  0  0  0  0  0  0  0  0  0  0
   38.5380   25.5400   31.4130 H   0  0  0  0  0  0  0  0  0  0  0  0
   39.0610   26.0330   33.7290 H   0  0  0  0  0  0  0  0  0  0  0  0
   34.7160   20.3210   32.1600 C   0  0  0  0  0  0  0  0  0  0  0  0
   35.3720   19.1050   31.9270 C   0  0  0  0  0  0  0  0  0  0  0  0
   36.7630   19.1320   31.9920 C   0  0  0  0  0  0  0  0  0  0  0  0
   37.4000   20.3090   32.2720 N   0  0  0  0  0  0  0  0  0  0  0  0
   36.7220   21.4430   32.4870 C   0  0  0  0  0  0  0  0  0  0  0  0
   35.3760   21.4440   32.4300 N   0  0  0  0  0  0  0  0  0  0  0  0
   33.6330   20.3740   32.1260 H   0  0  0  0  0  0  0  0  0  0  0  0
   34.8160   18.2060   31.7120 H   0  0  0  0  0  0  0  0  0  0  0  0
   37.3260   18.2410   31.8260 H   0  0  0  0  0  0  0  0  0  0  0  0
   40.6450   23.1920   35.0760 C   0  0  0  0  0  0  0  0  0  0  0  0
   40.6370   21.9100   34.5620 C   0  0  0  0  0  0  0  0  0  0  0  0
   40.0800   21.1070   35.0670 H   0  0  0  0  0  0  0  0  0  0  0  0
   41.4000   21.9050   33.4110 C   0  0  0  0  0  0  0  0  0  0  0  0
   41.5660   21.0360   32.8040 H   0  0  0  0  0  0  0  0  0  0  0  0
   41.8460   23.2120   33.2810 C   0  0  0  0  0  0  0  0  0  0  0  0
   42.4870   23.5590   32.4590 H   0  0  0  0  0  0  0  0  0  0  0  0
   41.3860   23.9560   34.2780 O   0  0  0  0  0  0  0  0  0  0  0  0
  1  7  1  1  0  0  0
  1  6  1  0  0  0  0
  1  2  1  0  0  0  0
  2  8  1  0  0  0  0
  2  3  1  0  0  0  0
  3 10  1  0  0  0  0
  3  4  1  0  0  0  0
  3 11  1  0  0  0  0
  4 13  1  0  0  0  0
  4 12  1  0  0  0  0
  5 15  1  0  0  0  0
  5  4  1  0  0  0  0
  6 16  1  1  0  0  0
  6  5  1  0  0  0  0
  9  2  1  0  0  0  0
 14  5  1  0  0  0  0
 18 23  1  0  0  0  0
 18 17  1  0  0  0  0
 19 18  2  0  0  0  0
 20 21  2  0  0  0  0
 20 19  1  0  0  0  0
 21 22  1  0  0  0  0
 22 26  1  0  0  0  0
 22 23  2  0  0  0  0
 23  1  1  0  0  0  0
 24 20  1  0  0  0  0
 25 21  1  0  0  0  0
 27 32  1  0  0  0  0
 28 29  1  0  0  0  0
 28 27  2  0  0  0  0
 29 30  2  0  0  0  0
 30 31  1  0  0  0  0
 31 19  1  0  0  0  0
 32 31  2  0  0  0  0
 33 27  1  0  0  0  0
 34 28  1  0  0  0  0
 35 29  1  0  0  0  0
 36  6  1  0  0  0  0
 37 38  1  0  0  0  0
 37 36  2  0  0  0  0
 39 37  1  0  0  0  0
 40 39  1  0  0  0  0
 41 39  2  0  0  0  0
 41 43  1  0  0  0  0
 42 41  1  0  0  0  0
 43 36  1  0  0  0  0
M  END
>  <minimizedAffinity>
-5.2784996

$$$$

 OpenBabel03272500333D

 43 46  0  0  1  0  0  0  0  0999 V2000
   39.0150   24.4130   35.8610 C   0  0  1  0  0  0  0  0  0  0  0  0
   38.3670   23.3660   36.6330 C   0  0  0  0  0  0  0  0  0  0  0  0
   39.2840   23.2120   37.8510 C   0  0  0  0  0  0  0  0  0  0  0  0
   40.4480   22.3810   37.2770 C   0  0  0  0  0  0  0  0  0  0  0  0
   41.0980   23.0010   36.1190 C   0  0  0  0  0  0  0  0  0  0  0  0
   40.5000   24.2530   35.6190 C   0  0  1  0  0  0  0  0  0  0  0  0
   38.9330   25.4190   36.3630 H   0  0  0  0  0  0  0  0  0  0  0  0
   38.4910   22.3060   36.4200 H   0  0  0  0  0  0  0  0  0  0  0  0
   37.3930   23.6330   37.0830 H   0  0  0  0  0  0  0  0  0  0  0  0
   39.6490   24.2000   38.1930 H   0  0  0  0  0  0  0  0  0  0  0  0
   38.8040   22.5900   38.6050 H   0  0  0  0  0  0  0  0  0  0  0  0
   41.0610   22.1340   38.1360 H   0  0  0  0  0  0  0  0  0  0  0  0
   39.9370   21.4080   37.0060 H   0  0  0  0  0  0  0  0  0  0  0  0
   41.0530   22.2730   35.2540 H   0  0  0  0  0  0  0  0  0  0  0  0
   42.2050   23.1500   36.2440 H   0  0  0  0  0  0  0  0  0  0  0  0
   41.0200   25.0560   36.1750 H   0  0  0  0  0  0  0  0  0  0  0  0
   38.2900   27.2740   35.1510 Cl  0  0  0  0  0  0  0  0  0  0  0  0
   37.8480   25.8830   34.2000 C   0  0  0  0  0  0  0  0  0  0  0  0
   37.1250   26.1750   33.0730 C   0  0  0  0  0  0  0  0  0  0  0  0
   36.7960   25.1260   32.2280 C   0  0  0  0  0  0  0  0  0  0  0  0
   37.2190   23.8530   32.5680 C   0  0  0  0  0  0  0  0  0  0  0  0
   37.9440   23.6430   33.7200 C   0  0  0  0  0  0  0  0  0  0  0  0
   38.2890   24.6490   34.5860 C   0  0  0  0  0  0  0  0  0  0  0  0
   36.2270   25.2850   31.3240 H   0  0  0  0  0  0  0  0  0  0  0  0
   36.9640   23.0320   31.9090 H   0  0  0  0  0  0  0  0  0  0  0  0
   38.2440   22.6190   33.9260 H   0  0  0  0  0  0  0  0  0  0  0  0
   36.9510   29.3540   31.2760 C   0  0  0  0  0  0  0  0  0  0  0  0
   36.1200   30.1600   32.0650 C   0  0  0  0  0  0  0  0  0  0  0  0
   35.6160   29.5780   33.2260 C   0  0  0  0  0  0  0  0  0  0  0  0
   35.9470   28.2860   33.5280 N   0  0  0  0  0  0  0  0  0  0  0  0
   36.7470   27.5600   32.7370 C   0  0  0  0  0  0  0  0  0  0  0  0
   37.2470   28.1000   31.6090 N   0  0  0  0  0  0  0  0  0  0  0  0
   37.3790   29.7420   30.3580 H   0  0  0  0  0  0  0  0  0  0  0  0
   35.8930   31.1740   31.7770 H   0  0  0  0  0  0  0  0  0  0  0  0
   34.9770   30.1360   33.8740 H   0  0  0  0  0  0  0  0  0  0  0  0
   40.8490   24.4840   34.1880 C   0  0  0  0  0  0  0  0  0  0  0  0
   41.0830   25.6290   33.4520 C   0  0  0  0  0  0  0  0  0  0  0  0
   41.0270   26.6210   33.9250 H   0  0  0  0  0  0  0  0  0  0  0  0
   41.3680   25.2540   32.1540 C   0  0  0  0  0  0  0  0  0  0  0  0
   41.5910   25.9450   31.3630 H   0  0  0  0  0  0  0  0  0  0  0  0
   41.2890   23.8700   32.1650 C   0  0  0  0  0  0  0  0  0  0  0  0
   41.4630   23.2410   31.2800 H   0  0  0  0  0  0  0  0  0  0  0  0
   40.9810   23.4360   33.3800 O   0  0  0  0  0  0  0  0  0  0  0  0
  1  7  1  1  0  0  0
  1  2  1  0  0  0  0
  2  9  1  0  0  0  0
  2  3  1  0  0  0  0
  3 10  1  0  0  0  0
  3 11  1  0  0  0  0
  4  3  1  0  0  0  0
  4 12  1  0  0  0  0
  5 15  1  0  0  0  0
  5  4  1  0  0  0  0
  6  1  1  0  0  0  0
  6  5  1  0  0  0  0
  6 16  1  1  0  0  0
  8  2  1  0  0  0  0
 13  4  1  0  0  0  0
 14  5  1  0  0  0  0
 18 23  1  0  0  0  0
 18 17  1  0  0  0  0
 19 18  2  0  0  0  0
 20 21  2  0  0  0  0
 20 19  1  0  0  0  0
 21 22  1  0  0  0  0
 22 26  1  0  0  0  0
 22 23  2  0  0  0  0
 23  1  1  0  0  0  0
 24 20  1  0  0  0  0
 25 21  1  0  0  0  0
 27 32  2  0  0  0  0
 27 28  1  0  0  0  0
 28 29  2  0  0  0  0
 29 30  1  0  0  0  0
 29 35  1  0  0  0  0
 31 19  1  0  0  0  0
 31 30  2  0  0  0  0
 32 31  1  0  0  0  0
 33 27  1  0  0  0  0
 34 28  1  0  0  0  0
 36  6  1  0  0  0  0
 37 38  1  0  0  0  0
 37 36  2  0  0  0  0
 39 41  2  0  0  0  0
 39 37  1  0  0  0  0
 40 39  1  0  0  0  0
 41 43  1  0  0  0  0
 42 41  1  0  0  0  0
 43 36  1  0  0  0  0
M  END
>  <minimizedAffinity>
-5.22147179

$$$$

 OpenBabel03272500333D

 43 46  0  0  1  0  0  0  0  0999 V2000
   34.6710   31.2310   35.3630 C   0  0  1  0  0  0  0  0  0  0  0  0
   35.2210   32.5290   35.7160 C   0  0  0  0  0  0  0  0  0  0  0  0
   34.8810   32.6600   37.2040 C   0  0  0  0  0  0  0  0  0  0  0  0
   33.3910   33.0490   37.1630 C   0  0  0  0  0  0  0  0  0  0  0  0
   32.5510   32.0860   36.4440 C   0  0  0  0  0  0  0  0  0  0  0  0
   33.2480   30.9600   35.7950 C   0  0  1  0  0  0  0  0  0  0  0  0
   35.2560   30.3860   35.8270 H   0  0  0  0  0  0  0  0  0  0  0  0
   34.7010   33.4660   35.5260 H   0  0  0  0  0  0  0  0  0  0  0  0
   36.3240   32.6050   35.7010 H   0  0  0  0  0  0  0  0  0  0  0  0
   35.0100   31.6890   37.7210 H   0  0  0  0  0  0  0  0  0  0  0  0
   35.4090   33.5080   37.6360 H   0  0  0  0  0  0  0  0  0  0  0  0
   33.1370   33.2810   38.1900 H   0  0  0  0  0  0  0  0  0  0  0  0
   33.4200   34.0550   36.6460 H   0  0  0  0  0  0  0  0  0  0  0  0
   32.0130   32.6350   35.6130 H   0  0  0  0  0  0  0  0  0  0  0  0
   31.6960   31.6850   37.0530 H   0  0  0  0  0  0  0  0  0  0  0  0
   33.2740   30.1640   36.5630 H   0  0  0  0  0  0  0  0  0  0  0  0
   35.9530   28.6000   34.5520 Cl  0  0  0  0  0  0  0  0  0  0  0  0
   35.4790   29.8490   33.4330 C   0  0  0  0  0  0  0  0  0  0  0  0
   35.7330   29.5560   32.1190 C   0  0  0  0  0  0  0  0  0  0  0  0
   35.3200   30.4720   31.1630 C   0  0  0  0  0  0  0  0  0  0  0  0
   34.6750   31.6200   31.5900 C   0  0  0  0  0  0  0  0  0  0  0  0
   34.4560   31.8390   32.9330 C   0  0  0  0  0  0  0  0  0  0  0  0
   34.8500   30.9630   33.9110 C   0  0  0  0  0  0  0  0  0  0  0  0
   35.4890   30.3050   30.1100 H   0  0  0  0  0  0  0  0  0  0  0  0
   34.3510   32.3360   30.8460 H   0  0  0  0  0  0  0  0  0  0  0  0
   33.9440   32.7610   33.1980 H   0  0  0  0  0  0  0  0  0  0  0  0
   36.1390   26.0430   31.1950 C   0  0  0  0  0  0  0  0  0  0  0  0
   37.5200   25.8810   31.0190 C   0  0  0  0  0  0  0  0  0  0  0  0
   38.3050   27.0150   31.2200 C   0  0  0  0  0  0  0  0  0  0  0  0
   37.7050   28.1940   31.5670 N   0  0  0  0  0  0  0  0  0  0  0  0
   36.3790   28.2920   31.7220 C   0  0  0  0  0  0  0  0  0  0  0  0
   35.5980   27.2100   31.5330 N   0  0  0  0  0  0  0  0  0  0  0  0
   35.4680   25.2030   31.0550 H   0  0  0  0  0  0  0  0  0  0  0  0
   37.9370   24.9260   30.7460 H   0  0  0  0  0  0  0  0  0  0  0  0
   39.3640   26.9630   31.1040 H   0  0  0  0  0  0  0  0  0  0  0  0
   32.4360   30.3950   34.6780 C   0  0  0  0  0  0  0  0  0  0  0  0
   31.5380   30.9580   33.7930 C   0  0  0  0  0  0  0  0  0  0  0  0
   31.3060   32.0330   33.8360 H   0  0  0  0  0  0  0  0  0  0  0  0
   31.0760   29.9600   32.9580 C   0  0  0  0  0  0  0  0  0  0  0  0
   30.3630   30.1150   32.1700 H   0  0  0  0  0  0  0  0  0  0  0  0
   31.7290   28.8140   33.3880 C   0  0  0  0  0  0  0  0  0  0  0  0
   31.5880   27.8240   32.9330 H   0  0  0  0  0  0  0  0  0  0  0  0
   32.5290   29.0960   34.4070 O   0  0  0  0  0  0  0  0  0  0  0  0
  1  2  1  0  0  0  0
  1  6  1  0  0  0  0
  1  7  1  1  0  0  0
  2  3  1  0  0  0  0
  3 11  1  0  0  0  0
  3 10  1  0  0  0  0
  4  3  1  0  0  0  0
  4 12  1  0  0  0  0
  5 15  1  0  0  0  0
  5  4  1  0  0  0  0
  6  5  1  0  0  0  0
  6 16  1  1  0  0  0
  8  2  1  0  0  0  0
  9  2  1  0  0  0  0
 13  4  1  0  0  0  0
 14  5  1  0  0  0  0
 18 23  1  0  0  0  0
 18 17  1  0  0  0  0
 19 18  2  0  0  0  0
 20 21  2  0  0  0  0
 20 19  1  0  0  0  0
 21 22  1  0  0  0  0
 22 26  1  0  0  0  0
 22 23  2  0  0  0  0
 23  1  1  0  0  0  0
 24 20  1  0  0  0  0
 25 21  1  0  0  0  0
 27 32  1  0  0  0  0
 28 27  2  0  0  0  0
 28 29  1  0  0  0  0
 29 30  2  0  0  0  0
 30 31  1  0  0  0  0
 31 19  1  0  0  0  0
 32 31  2  0  0  0  0
 33 27  1  0  0  0  0
 34 28  1  0  0  0  0
 35 29  1  0  0  0  0
 36  6  1  0  0  0  0
 37 38  1  0  0  0  0
 37 36  2  0  0  0  0
 39 41  2  0  0  0  0
 39 37  1  0  0  0  0
 40 39  1  0  0  0  0
 41 43  1  0  0  0  0
 42 41  1  0  0  0  0
 43 36  1  0  0  0  0
M  END
>  <minimizedAffinity>
-5.19695759

$$$$

 OpenBabel03272500333D

 43 46  0  0  1  0  0  0  0  0999 V2000
   41.2000   25.3190   34.9670 C   0  0  1  0  0  0  0  0  0  0  0  0
   42.2040   24.7150   34.1070 C   0  0  0  0  0  0  0  0  0  0  0  0
   43.2440   25.8290   33.9500 C   0  0  0  0  0  0  0  0  0  0  0  0
   42.5790   26.7490   32.9090 C   0  0  0  0  0  0  0  0  0  0  0  0
   41.2520   27.2280   33.3090 C   0  0  0  0  0  0  0  0  0  0  0  0
   40.7150   26.6960   34.5750 C   0  0  1  0  0  0  0  0  0  0  0  0
   41.5760   25.4580   36.0210 H   0  0  0  0  0  0  0  0  0  0  0  0
   42.1080   24.6670   33.0240 H   0  0  0  0  0  0  0  0  0  0  0  0
   42.7850   23.8870   34.5530 H   0  0  0  0  0  0  0  0  0  0  0  0
   43.3850   26.3690   34.9060 H   0  0  0  0  0  0  0  0  0  0  0  0
   44.1460   25.4360   33.4830 H   0  0  0  0  0  0  0  0  0  0  0  0
   43.3360   27.4860   32.6670 H   0  0  0  0  0  0  0  0  0  0  0  0
   42.5320   26.0840   31.9950 H   0  0  0  0  0  0  0  0  0  0  0  0
   40.5100   26.9270   32.5100 H   0  0  0  0  0  0  0  0  0  0  0  0
   41.1550   28.3480   33.3120 H   0  0  0  0  0  0  0  0  0  0  0  0
   41.0600   27.4080   35.3490 H   0  0  0  0  0  0  0  0  0  0  0  0
   40.0910   23.8760   32.5350 Cl  0  0  0  0  0  0  0  0  0  0  0  0
   39.4330   23.7420   34.1440 C   0  0  0  0  0  0  0  0  0  0  0  0
   38.3440   22.9170   34.2410 C   0  0  0  0  0  0  0  0  0  0  0  0
   37.8070   22.7040   35.5020 C   0  0  0  0  0  0  0  0  0  0  0  0
   38.4020   23.3320   36.5820 C   0  0  0  0  0  0  0  0  0  0  0  0
   39.4970   24.1470   36.3990 C   0  0  0  0  0  0  0  0  0  0  0  0
   40.0590   24.3880   35.1720 C   0  0  0  0  0  0  0  0  0  0  0  0
   36.9480   22.0660   35.6510 H   0  0  0  0  0  0  0  0  0  0  0  0
   37.9850   23.1670   37.5680 H   0  0  0  0  0  0  0  0  0  0  0  0
   39.9140   24.6090   37.2910 H   0  0  0  0  0  0  0  0  0  0  0  0
   36.2660   22.2720   31.3040 C   0  0  0  0  0  0  0  0  0  0  0  0
   36.6610   21.0010   30.8640 C   0  0  0  0  0  0  0  0  0  0  0  0
   37.6670   20.3780   31.6000 C   0  0  0  0  0  0  0  0  0  0  0  0
   38.2020   21.0190   32.6830 N   0  0  0  0  0  0  0  0  0  0  0  0
   37.7850   22.2340   33.0590 C   0  0  0  0  0  0  0  0  0  0  0  0
   36.8140   22.8580   32.3640 N   0  0  0  0  0  0  0  0  0  0  0  0
   35.4880   22.8150   30.7790 H   0  0  0  0  0  0  0  0  0  0  0  0
   36.2020   20.5440   30.0020 H   0  0  0  0  0  0  0  0  0  0  0  0
   38.0150   19.4090   31.3210 H   0  0  0  0  0  0  0  0  0  0  0  0
   39.2260   26.7810   34.6070 C   0  0  0  0  0  0  0  0  0  0  0  0
   38.3210   27.0130   35.6240 C   0  0  0  0  0  0  0  0  0  0  0  0
   38.6660   27.1820   36.6550 H   0  0  0  0  0  0  0  0  0  0  0  0
   37.0510   26.9830   35.0830 C   0  0  0  0  0  0  0  0  0  0  0  0
   36.1510   27.1330   35.6490 H   0  0  0  0  0  0  0  0  0  0  0  0
   37.2510   26.7270   33.7350 C   0  0  0  0  0  0  0  0  0  0  0  0
   36.4360   26.6380   33.0020 H   0  0  0  0  0  0  0  0  0  0  0  0
   38.5470   26.6120   33.4760 O   0  0  0  0  0  0  0  0  0  0  0  0
  1 23  1  0  0  0  0
  1  7  1  1  0  0  0
  2  9  1  0  0  0  0
  2  1  1  0  0  0  0
  3  2  1  0  0  0  0
  3 10  1  0  0  0  0
  4  5  1  0  0  0  0
  4  3  1  0  0  0  0
  5 15  1  0  0  0  0
  5  6  1  0  0  0  0
  6 36  1  0  0  0  0
  6  1  1  0  0  0  0
  6 16  1  1  0  0  0
  8  2  1  0  0  0  0
 11  3  1  0  0  0  0
 12  4  1  0  0  0  0
 13  4  1  0  0  0  0
 14  5  1  0  0  0  0
 17 18  1  0  0  0  0
 18 19  2  0  0  0  0
 18 23  1  0  0  0  0
 19 20  1  0  0  0  0
 20 24  1  0  0  0  0
 20 21  2  0  0  0  0
 21 25  1  0  0  0  0
 22 21  1  0  0  0  0
 22 26  1  0  0  0  0
 23 22  2  0  0  0  0
 27 32  1  0  0  0  0
 28 27  2  0  0  0  0
 28 29  1  0  0  0  0
 29 30  2  0  0  0  0
 30 31  1  0  0  0  0
 31 19  1  0  0  0  0
 32 31  2  0  0  0  0
 33 27  1  0  0  0  0
 34 28  1  0  0  0  0
 35 29  1  0  0  0  0
 36 37  2  0  0  0  0
 37 38  1  0  0  0  0
 39 37  1  0  0  0  0
 39 40  1  0  0  0  0
 41 39  2  0  0  0  0
 42 41  1  0  0  0  0
 43 41  1  0  0  0  0
 43 36  1  0  0  0  0
M  END
>  <minimizedAffinity>
-5.17874432

$$$$

 OpenBabel03272500333D

 43 46  0  0  1  0  0  0  0  0999 V2000
   38.6100   26.8910   33.7720 C   0  0  1  0  0  0  0  0  0  0  0  0
   38.0830   27.5380   34.9630 C   0  0  0  0  0  0  0  0  0  0  0  0
   38.8200   26.8240   36.1020 C   0  0  0  0  0  0  0  0  0  0  0  0
   38.0470   25.4960   36.2060 C   0  0  0  0  0  0  0  0  0  0  0  0
   38.0120   24.7360   34.9530 C   0  0  0  0  0  0  0  0  0  0  0  0
   38.6230   25.3790   33.7750 C   0  0  1  0  0  0  0  0  0  0  0  0
   39.6860   27.1680   33.5840 H   0  0  0  0  0  0  0  0  0  0  0  0
   37.1350   27.2620   35.4190 H   0  0  0  0  0  0  0  0  0  0  0  0
   38.3690   28.5970   35.1020 H   0  0  0  0  0  0  0  0  0  0  0  0
   39.8750   26.6340   35.8260 H   0  0  0  0  0  0  0  0  0  0  0  0
   38.6570   27.3500   37.0410 H   0  0  0  0  0  0  0  0  0  0  0  0
   38.4480   25.0100   37.0870 H   0  0  0  0  0  0  0  0  0  0  0  0
   37.0160   25.8420   36.5200 H   0  0  0  0  0  0  0  0  0  0  0  0
   36.9300   24.5540   34.6770 H   0  0  0  0  0  0  0  0  0  0  0  0
   38.4100   23.6880   35.0450 H   0  0  0  0  0  0  0  0  0  0  0  0
   39.6800   25.0520   33.7910 H   0  0  0  0  0  0  0  0  0  0  0  0
   40.3380   27.4510   31.3390 Cl  0  0  0  0  0  0  0  0  0  0  0  0
   38.6270   27.7740   31.4270 C   0  0  0  0  0  0  0  0  0  0  0  0
   38.0970   28.3180   30.2860 C   0  0  0  0  0  0  0  0  0  0  0  0
   36.7280   28.5380   30.2540 C   0  0  0  0  0  0  0  0  0  0  0  0
   35.9820   28.1940   31.3680 C   0  0  0  0  0  0  0  0  0  0  0  0
   36.5930   27.6500   32.4760 C   0  0  0  0  0  0  0  0  0  0  0  0
   37.9420   27.4180   32.5530 C   0  0  0  0  0  0  0  0  0  0  0  0
   36.2440   28.9650   29.3870 H   0  0  0  0  0  0  0  0  0  0  0  0
   34.9130   28.3650   31.3440 H   0  0  0  0  0  0  0  0  0  0  0  0
   35.9480   27.4030   33.3150 H   0  0  0  0  0  0  0  0  0  0  0  0
   40.2080   30.1730   27.9480 C   0  0  0  0  0  0  0  0  0  0  0  0
   40.4790   29.2610   26.9180 C   0  0  0  0  0  0  0  0  0  0  0  0
   39.9230   27.9910   27.0560 C   0  0  0  0  0  0  0  0  0  0  0  0
   39.1630   27.7060   28.1560 N   0  0  0  0  0  0  0  0  0  0  0  0
   38.9360   28.6160   29.1110 C   0  0  0  0  0  0  0  0  0  0  0  0
   39.4620   29.8510   29.0020 N   0  0  0  0  0  0  0  0  0  0  0  0
   40.6080   31.1800   27.9070 H   0  0  0  0  0  0  0  0  0  0  0  0
   41.0850   29.5430   26.0730 H   0  0  0  0  0  0  0  0  0  0  0  0
   40.0890   27.2480   26.3080 H   0  0  0  0  0  0  0  0  0  0  0  0
   38.0650   24.8250   32.5070 C   0  0  0  0  0  0  0  0  0  0  0  0
   36.7800   24.5180   32.1030 C   0  0  0  0  0  0  0  0  0  0  0  0
   35.9260   24.6780   32.7780 H   0  0  0  0  0  0  0  0  0  0  0  0
   36.8430   24.0290   30.8130 C   0  0  0  0  0  0  0  0  0  0  0  0
   35.9870   23.7110   30.2490 H   0  0  0  0  0  0  0  0  0  0  0  0
   38.1910   24.0620   30.4910 C   0  0  0  0  0  0  0  0  0  0  0  0
   38.5960   23.7370   29.5230 H   0  0  0  0  0  0  0  0  0  0  0  0
   38.8950   24.5380   31.5090 O   0  0  0  0  0  0  0  0  0  0  0  0
  1  7  1  6  0  0  0
  1  6  1  0  0  0  0
  1  2  1  0  0  0  0
  2  9  1  0  0  0  0
  2  8  1  0  0  0  0
  2  3  1  0  0  0  0
  3  4  1  0  0  0  0
  3 11  1  0  0  0  0
  4 13  1  0  0  0  0
  4 12  1  0  0  0  0
  5 15  1  0  0  0  0
  5  4  1  0  0  0  0
  6 16  1  1  0  0  0
  6  5  1  0  0  0  0
 10  3  1  0  0  0  0
 14  5  1  0  0  0  0
 17 18  1  0  0  0  0
 18 23  1  0  0  0  0
 19 18  2  0  0  0  0
 20 19  1  0  0  0  0
 20 21  2  0  0  0  0
 21 22  1  0  0  0  0
 22 23  2  0  0  0  0
 22 26  1  0  0  0  0
 23  1  1  0  0  0  0
 24 20  1  0  0  0  0
 25 21  1  0  0  0  0
 27 32  1  0  0  0  0
 28 29  1  0  0  0  0
 28 27  2  0  0  0  0
 29 30  2  0  0  0  0
 30 31  1  0  0  0  0
 31 19  1  0  0  0  0
 32 31  2  0  0  0  0
 33 27  1  0  0  0  0
 34 28  1  0  0  0  0
 35 29  1  0  0  0  0
 36  6  1  0  0  0  0
 37 36  2  0  0  0  0
 37 38  1  0  0  0  0
 39 37  1  0  0  0  0
 40 39  1  0  0  0  0
 41 39  2  0  0  0  0
 41 43  1  0  0  0  0
 42 41  1  0  0  0  0
 43 36  1  0  0  0  0
M  END
>  <minimizedAffinity>
-5.1439743

$$$$

 OpenBabel03272500333D

 43 46  0  0  1  0  0  0  0  0999 V2000
   39.3510   25.3610   30.8340 C   0  0  1  0  0  0  0  0  0  0  0  0
   39.4710   26.1490   29.6180 C   0  0  0  0  0  0  0  0  0  0  0  0
   40.9560   26.5230   29.5900 C   0  0  0  0  0  0  0  0  0  0  0  0
   41.0210   27.6730   30.6120 C   0  0  0  0  0  0  0  0  0  0  0  0
   40.5270   27.3070   31.9430 C   0  0  0  0  0  0  0  0  0  0  0  0
   39.9620   25.9520   32.0850 C   0  0  1  0  0  0  0  0  0  0  0  0
   39.8580   24.3580   30.7370 H   0  0  0  0  0  0  0  0  0  0  0  0
   39.2160   27.2060   29.5670 H   0  0  0  0  0  0  0  0  0  0  0  0
   39.3310   25.5970   28.6710 H   0  0  0  0  0  0  0  0  0  0  0  0
   41.5800   25.6730   29.9280 H   0  0  0  0  0  0  0  0  0  0  0  0
   41.2160   26.9540   28.6240 H   0  0  0  0  0  0  0  0  0  0  0  0
   42.0300   28.0600   30.5310 H   0  0  0  0  0  0  0  0  0  0  0  0
   40.3770   28.4650   30.1240 H   0  0  0  0  0  0  0  0  0  0  0  0
   39.6920   28.0190   32.2210 H   0  0  0  0  0  0  0  0  0  0  0  0
   41.2700   27.4810   32.7680 H   0  0  0  0  0  0  0  0  0  0  0  0
   40.8210   25.3160   32.3730 H   0  0  0  0  0  0  0  0  0  0  0  0
   38.7920   22.4790   31.6080 Cl  0  0  0  0  0  0  0  0  0  0  0  0
   37.5600   23.6830   31.3450 C   0  0  0  0  0  0  0  0  0  0  0  0
   36.2790   23.2270   31.5140 C   0  0  0  0  0  0  0  0  0  0  0  0
   35.2470   24.1450   31.3910 C   0  0  0  0  0  0  0  0  0  0  0  0
   35.5700   25.4620   31.1090 C   0  0  0  0  0  0  0  0  0  0  0  0
   36.8860   25.8400   30.9540 C   0  0  0  0  0  0  0  0  0  0  0  0
   37.9370   24.9660   31.0650 C   0  0  0  0  0  0  0  0  0  0  0  0
   34.2140   23.8540   31.5110 H   0  0  0  0  0  0  0  0  0  0  0  0
   34.7660   26.1800   31.0130 H   0  0  0  0  0  0  0  0  0  0  0  0
   37.0680   26.8880   30.7350 H   0  0  0  0  0  0  0  0  0  0  0  0
   35.5930   20.2550   33.5290 C   0  0  0  0  0  0  0  0  0  0  0  0
   35.5180   19.2090   32.5990 C   0  0  0  0  0  0  0  0  0  0  0  0
   35.7010   19.5560   31.2630 C   0  0  0  0  0  0  0  0  0  0  0  0
   35.9380   20.8620   30.9340 N   0  0  0  0  0  0  0  0  0  0  0  0
   36.0000   21.8230   31.8640 C   0  0  0  0  0  0  0  0  0  0  0  0
   35.8260   21.5130   33.1630 N   0  0  0  0  0  0  0  0  0  0  0  0
   35.4600   20.0580   34.5870 H   0  0  0  0  0  0  0  0  0  0  0  0
   35.3290   18.1960   32.9170 H   0  0  0  0  0  0  0  0  0  0  0  0
   35.6580   18.8090   30.5020 H   0  0  0  0  0  0  0  0  0  0  0  0
   39.0210   25.8790   33.2400 C   0  0  0  0  0  0  0  0  0  0  0  0
   38.0810   26.7580   33.7420 C   0  0  0  0  0  0  0  0  0  0  0  0
   37.9160   27.7360   33.2650 H   0  0  0  0  0  0  0  0  0  0  0  0
   37.4880   26.1690   34.8400 C   0  0  0  0  0  0  0  0  0  0  0  0
   36.7170   26.6320   35.4290 H   0  0  0  0  0  0  0  0  0  0  0  0
   38.1100   24.9360   34.9560 C   0  0  0  0  0  0  0  0  0  0  0  0
   37.8710   24.2020   35.7380 H   0  0  0  0  0  0  0  0  0  0  0  0
   39.0140   24.7850   33.9970 O   0  0  0  0  0  0  0  0  0  0  0  0
  1  7  1  6  0  0  0
  1 23  1  0  0  0  0
  1  6  1  0  0  0  0
  2  1  1  0  0  0  0
  3  2  1  0  0  0  0
  3 10  1  0  0  0  0
  3  4  1  0  0  0  0
  4  5  1  0  0  0  0
  5  6  1  0  0  0  0
  5 14  1  0  0  0  0
  5 15  1  0  0  0  0
  6 16  1  1  0  0  0
  6 36  1  0  0  0  0
  8  2  1  0  0  0  0
  9  2  1  0  0  0  0
 11  3  1  0  0  0  0
 12  4  1  0  0  0  0
 13  4  1  0  0  0  0
 18 19  1  0  0  0  0
 18 17  1  0  0  0  0
 19 31  1  0  0  0  0
 20 24  1  0  0  0  0
 20 19  2  0  0  0  0
 21 20  1  0  0  0  0
 22 23  1  0  0  0  0
 22 21  2  0  0  0  0
 23 18  2  0  0  0  0
 25 21  1  0  0  0  0
 26 22  1  0  0  0  0
 27 33  1  0  0  0  0
 28 34  1  0  0  0  0
 28 27  2  0  0  0  0
 29 28  1  0  0  0  0
 30 29  2  0  0  0  0
 30 31  1  0  0  0  0
 31 32  2  0  0  0  0
 32 27  1  0  0  0  0
 35 29  1  0  0  0  0
 36 37  2  0  0  0  0
 36 43  1  0  0  0  0
 37 39  1  0  0  0  0
 38 37  1  0  0  0  0
 39 41  2  0  0  0  0
 39 40  1  0  0  0  0
 41 42  1  0  0  0  0
 43 41  1  0  0  0  0
M  END
>  <minimizedAffinity>
-5.11652851

$$$$
