
     RDKit          3D

 41 44  0  0  0  0  0  0  0  0999 V2000
   32.1679   28.5271   47.4211 C   0  0  2  0  0  0  0  0  0  0  0  0
   33.4074   28.3654   48.2508 C   0  0  1  0  0  0  0  0  0  0  0  0
   33.8063   27.0669   48.1660 O   0  0  0  0  0  0  0  0  0  0  0  0
   33.1046   26.4361   47.1437 C   0  0  0  0  0  0  0  0  0  0  0  0
   32.5080   27.5214   46.2762 C   0  0  1  0  0  0  0  0  0  0  0  0
   32.0971   29.8267   46.8811 O   0  0  0  0  0  0  0  0  0  0  0  0
   34.7170   29.4109   47.4967 S   0  0  0  0  0  0  0  0  0  0  0  0
   37.1333   29.2930   50.6365 C   0  0  0  0  0  0  0  0  0  0  0  0
   37.6331   30.5898   50.7547 C   0  0  0  0  0  0  0  0  0  0  0  0
   37.2093   31.5365   49.8314 C   0  0  0  0  0  0  0  0  0  0  0  0
   36.3292   31.1585   48.8567 N   0  0  0  0  0  0  0  0  0  0  0  0
   35.8703   29.8908   48.7791 C   0  0  0  0  0  0  0  0  0  0  0  0
   36.2634   28.9405   49.6646 N   0  0  0  0  0  0  0  0  0  0  0  0
   31.3639   27.0423   45.6864 O   0  0  0  0  0  0  0  0  0  0  0  0
   29.8801   29.1165   44.2132 Cl  0  0  0  0  0  0  0  0  0  0  0  0
   29.3349   28.1256   45.5452 C   0  0  0  0  0  0  0  0  0  0  0  0
   30.1245   27.1735   46.1486 C   0  0  0  0  0  0  0  0  0  0  0  0
   29.5678   26.4244   47.1868 C   0  0  0  0  0  0  0  0  0  0  0  0
   28.2665   26.6375   47.5903 C   0  0  0  0  0  0  0  0  0  0  0  0
   27.4665   27.5923   46.9898 C   0  0  0  0  0  0  0  0  0  0  0  0
   28.0209   28.3323   45.9619 C   0  0  0  0  0  0  0  0  0  0  0  0
   31.2468   28.1815   47.8784 H   0  0  0  0  0  0  0  0  0  0  0  0
   33.1578   28.7125   49.2725 H   0  0  0  0  0  0  0  0  0  0  0  0
   32.3984   25.7699   47.6205 H   0  0  0  0  0  0  0  0  0  0  0  0
   33.8876   25.8553   46.5597 H   0  0  0  0  0  0  0  0  0  0  0  0
   33.2472   28.0007   45.6379 H   0  0  0  0  0  0  0  0  0  0  0  0
   32.6347   29.8150   46.0529 H   0  0  0  0  0  0  0  0  0  0  0  0
   37.4076   28.4921   51.3097 H   0  0  0  0  0  0  0  0  0  0  0  0
   38.3194   30.8172   51.5419 H   0  0  0  0  0  0  0  0  0  0  0  0
   37.5702   32.5575   49.8828 H   0  0  0  0  0  0  0  0  0  0  0  0
   30.0922   25.6531   47.7216 H   0  0  0  0  0  0  0  0  0  0  0  0
   27.7923   26.0889   48.3826 H   0  0  0  0  0  0  0  0  0  0  0  0
   26.4450   27.7656   47.3004 H   0  0  0  0  0  0  0  0  0  0  0  0
   27.1941   29.3468   45.3131 C   0  0  0  0  0  0  0  0  0  0  0  0
   27.0629   29.5823   43.9853 C   0  0  0  0  0  0  0  0  0  0  0  0
   27.5834   29.0164   43.1987 H   0  0  0  0  0  0  0  0  0  0  0  0
   26.1858   30.6312   43.7451 C   0  0  0  0  0  0  0  0  0  0  0  0
   25.8582   31.0735   42.8257 H   0  0  0  0  0  0  0  0  0  0  0  0
   25.8165   30.9888   45.0256 C   0  0  0  0  0  0  0  0  0  0  0  0
   25.1235   31.7872   45.3353 H   0  0  0  0  0  0  0  0  0  0  0  0
   26.4160   30.2281   45.9085 O   0  0  0  0  0  0  0  0  0  0  0  0
  1  2  1  0
  3  2  1  0
  4  3  1  0
  5  4  1  0
  5  1  1  0
  6  1  1  0
  7  2  1  0
  7 12  1  0
  8  9  2  0
 10  9  1  0
 11 10  2  0
 12 11  1  0
 12 13  2  0
 13  8  1  0
 14 17  1  0
 14  5  1  0
 15 16  1  0
 16 21  2  0
 16 17  1  0
 17 18  2  0
 18 19  1  0
 20 19  2  0
 21 20  1  0
  1 22  1  1
  2 23  1  1
  4 24  1  0
  4 25  1  0
  5 26  1  6
  6 27  1  0
  8 28  1  0
  9 29  1  0
 10 30  1  0
 18 31  1  0
 19 32  1  0
 20 33  1  0
 34 35  2  0
 35 36  1  0
 35 37  1  0
 37 38  1  0
 37 39  2  0
 39 40  1  0
 39 41  1  0
 41 34  1  0
 21 34  1  0
M  ISO  8  22  13  23  13  24  13  25  13  26  13  27   3  28  14  29  14
M  ISO  7  30  14  31  14  32  14  33  14  36  16  38  16  40  14
M  END
>  <DihAtoms>  (1) 
15,20,33,34

>  <DihDeg>  (1) 
-179.998247747313

$$$$
