REMARK  Name = 
REMARK  4 active torsions:
REMARK  status: ('A' for Active; 'I' for Inactive)
REMARK    1  A    between atoms: C_1  and  C_8
REMARK    2  A    between atoms: C_3  and  N_12
REMARK    3  A    between atoms: C_10  and  C_13
REMARK    4  A    between atoms: C_17  and  C_30
REMARK                            x       y       z     vdW  Elec       q    Type
REMARK                         _______ _______ _______ _____ _____    ______ ____
ROOT
ATOM      1  C   UNL     1      38.410  31.845  44.526  0.00  0.00    +0.000 C 
ATOM      2  O   UNL     1      37.304  32.454  44.408  0.00  0.00    +0.000 OA
ATOM      3  N   UNL     1      38.935  31.527  45.819  0.00  0.00    +0.000 N 
ATOM      4  H   UNL     1      39.902  31.176  45.990  0.00  0.00    +0.000 HD
ENDROOT
BRANCH   1   5
ATOM      5  C   UNL     1      39.177  31.453  43.335  0.00  0.00    +0.000 A 
ATOM      6  C   UNL     1      40.164  30.514  43.482  0.00  0.00    +0.000 A 
ATOM      7  C   UNL     1      40.891  30.127  42.373  0.00  0.00    +0.000 A 
ATOM      8  C   UNL     1      40.577  30.715  41.166  0.00  0.00    +0.000 A 
ATOM      9  C   UNL     1      39.583  31.664  41.008  0.00  0.00    +0.000 A 
ATOM     10  N   UNL     1      38.931  31.980  42.129  0.00  0.00    +0.000 NA
ATOM     11  H   UNL     1      40.447  30.024  44.405  0.00  0.00    +0.000 HD
ATOM     12  H   UNL     1      41.681  29.391  42.423  0.00  0.00    +0.000 HD
ATOM     13  H   UNL     1      41.154  30.405  40.301  0.00  0.00    +0.000 HD
BRANCH   9  14
ATOM     14  C   UNL     1      39.270  32.273  39.722  0.00  0.00    +0.000 A 
ATOM     15  C   UNL     1      40.239  32.737  38.845  0.00  0.00    +0.000 A 
ATOM     16  H   UNL     1      41.305  32.710  38.991  0.00  0.00    +0.000 HD
ATOM     17  C   UNL     1      39.476  33.221  37.777  0.00  0.00    +0.000 A 
ATOM     18  H   UNL     1      39.898  33.669  36.887  0.00  0.00    +0.000 HD
ATOM     19  C   UNL     1      38.137  33.032  38.053  0.00  0.00    +0.000 A 
ATOM     20  H   UNL     1      37.275  33.287  37.452  0.00  0.00    +0.000 HD
ATOM     21  O   UNL     1      38.047  32.457  39.235  0.00  0.00    +0.000 OA
ENDBRANCH   9  14
ENDBRANCH   1   5
BRANCH   3  24
ATOM     22  C   UNL     1      38.430  31.113  48.221  0.00  0.00    +0.000 C 
ATOM     23  C   UNL     1      38.684  32.555  48.095  0.00  0.00    +0.000 C 
ATOM     24  C   UNL     1      38.053  31.710  46.961  0.00  0.00    +0.000 C 
ATOM     25  H   UNL     1      39.355  30.507  48.316  0.00  0.00    +0.000 HD
ATOM     26  H   UNL     1      38.056  33.314  48.590  0.00  0.00    +0.000 HD
ATOM     27  H   UNL     1      39.719  32.917  47.937  0.00  0.00    +0.000 HD
ATOM     28  H   UNL     1      36.996  32.023  46.746  0.00  0.00    +0.000 HD
BRANCH  22  33
ATOM     29  C   UNL     1      35.088  30.231  49.550  0.00  0.00    +0.000 A 
ATOM     30  C   UNL     1      35.415  29.545  50.764  0.00  0.00    +0.000 A 
ATOM     31  C   UNL     1      36.816  29.413  51.094  0.00  0.00    +0.000 A 
ATOM     32  N   UNL     1      37.756  29.935  50.255  0.00  0.00    +0.000 NA
ATOM     33  C   UNL     1      37.355  30.576  49.115  0.00  0.00    +0.000 A 
ATOM     34  N   UNL     1      36.038  30.740  48.735  0.00  0.00    +0.000 NA
ATOM     35  H   UNL     1      34.036  30.293  49.367  0.00  0.00    +0.000 HD
ATOM     36  H   UNL     1      34.655  29.148  51.399  0.00  0.00    +0.000 HD
ATOM     37  H   UNL     1      37.065  28.898  52.006  0.00  0.00    +0.000 HD
ENDBRANCH  22  33
ENDBRANCH   3  24
TORSDOF 4
