
 OpenBabel03272510023D

 20 21  0  0  0  0  0  0  0  0999 V2000
   38.3220   31.2830   50.2090 C   0  0  0  0  0  0  0  0  0  0  0  0
   38.4150   31.5660   48.8250 C   0  0  0  0  0  0  0  0  0  0  0  0
   37.4050   31.0970   47.9970 C   0  0  0  0  0  0  0  0  0  0  0  0
   36.3780   30.3930   48.5470 N   0  0  0  0  0  0  0  0  0  0  0  0
   36.3280   30.1450   49.8730 C   0  0  0  0  0  0  0  0  0  0  0  0
   37.2890   30.5840   50.6980 N   0  0  0  0  0  0  0  0  0  0  0  0
   39.0930   31.6340   50.8820 H   0  0  0  0  0  0  0  0  0  0  0  0
   39.2500   32.1320   48.4290 H   0  0  0  0  0  0  0  0  0  0  0  0
   37.4470   31.3580   46.5630 C   0  0  0  0  0  0  0  0  0  0  0  0
   36.8230   30.5890   45.6040 C   0  0  0  0  0  0  0  0  0  0  0  0
   36.2200   29.6970   45.7680 H   0  0  0  0  0  0  0  0  0  0  0  0
   37.1690   31.2540   44.4230 C   0  0  0  0  0  0  0  0  0  0  0  0
   36.8360   30.9100   43.4370 H   0  0  0  0  0  0  0  0  0  0  0  0
   37.9550   32.3470   44.7190 C   0  0  0  0  0  0  0  0  0  0  0  0
   38.3710   33.0510   43.9840 H   0  0  0  0  0  0  0  0  0  0  0  0
   38.0960   32.3690   46.0360 O   0  0  0  0  0  0  0  0  0  0  0  0
   35.1690   29.3730   50.3790 C   0  0  0  0  0  0  0  0  0  0  0  0
   35.2420   29.1120   51.7380 F   0  0  0  0  0  0  0  0  0  0  0  0
   33.9730   30.0860   50.1950 F   0  0  0  0  0  0  0  0  0  0  0  0
   34.9830   28.1820   49.7460 F   0  0  0  0  0  0  0  0  0  0  0  0
  1  6  1  0  0  0  0
  1  7  1  0  0  0  0
  2  1  2  0  0  0  0
  3  4  2  0  0  0  0
  3  2  1  0  0  0  0
  4  5  1  0  0  0  0
  5 17  1  0  0  0  0
  5  6  2  0  0  0  0
  8  2  1  0  0  0  0
  9  3  1  0  0  0  0
 10 11  1  0  0  0  0
 10  9  2  0  0  0  0
 12 14  2  0  0  0  0
 12 10  1  0  0  0  0
 13 12  1  0  0  0  0
 14 16  1  0  0  0  0
 15 14  1  0  0  0  0
 16  9  1  0  0  0  0
 17 18  1  0  0  0  0
 19 17  1  0  0  0  0
 20 17  1  0  0  0  0
M  END
>  <minimizedAffinity>
-5.25575304

>  <minimizedRMSD>
0.381635725

$$$$
