
 OpenBabel03262521053D

 27 29  0  0  0  0  0  0  0  0999 V2000
   38.1790   23.0460   33.8560 Br  0  0  0  0  0  0  0  0  0  0  0  0
   37.1270   24.1640   32.7570 C   0  0  0  0  0  0  0  0  0  0  0  0
   36.2960   23.5190   31.8560 C   0  0  0  0  0  0  0  0  0  0  0  0
   35.4940   24.2910   31.0150 C   0  0  0  0  0  0  0  0  0  0  0  0
   35.5280   25.6800   31.0810 C   0  0  0  0  0  0  0  0  0  0  0  0
   36.3710   26.2430   31.9930 C   0  0  0  0  0  0  0  0  0  0  0  0
   37.1740   25.5280   32.8350 C   0  0  0  0  0  0  0  0  0  0  0  0
   34.8230   23.8640   30.2900 H   0  0  0  0  0  0  0  0  0  0  0  0
   34.9140   26.2980   30.4390 H   0  0  0  0  0  0  0  0  0  0  0  0
   36.4140   27.3220   32.0610 H   0  0  0  0  0  0  0  0  0  0  0  0
   36.9840   21.3070   30.8490 C   0  0  0  0  0  0  0  0  0  0  0  0
   36.1420   22.0800   31.6610 C   0  0  0  0  0  0  0  0  0  0  0  0
   35.0880   21.4330   32.3250 C   0  0  0  0  0  0  0  0  0  0  0  0
   34.9510   20.0750   32.1350 N   0  0  0  0  0  0  0  0  0  0  0  0
   35.7880   19.3830   31.3440 C   0  0  0  0  0  0  0  0  0  0  0  0
   36.8100   19.9920   30.6960 N   0  0  0  0  0  0  0  0  0  0  0  0
   37.7930   21.8470   30.3490 H   0  0  0  0  0  0  0  0  0  0  0  0
   34.3830   21.9360   32.9740 H   0  0  0  0  0  0  0  0  0  0  0  0
   35.6490   18.3180   31.2180 H   0  0  0  0  0  0  0  0  0  0  0  0
   38.0650   26.1580   33.7990 C   0  0  0  0  0  0  0  0  0  0  0  0
   37.7040   26.6420   35.0600 C   0  0  0  0  0  0  0  0  0  0  0  0
   36.7100   26.6240   35.5160 H   0  0  0  0  0  0  0  0  0  0  0  0
   38.8810   27.1460   35.6020 C   0  0  0  0  0  0  0  0  0  0  0  0
   38.9950   27.6100   36.5800 H   0  0  0  0  0  0  0  0  0  0  0  0
   39.8820   26.9460   34.6560 C   0  0  0  0  0  0  0  0  0  0  0  0
   40.9060   27.2580   34.8430 H   0  0  0  0  0  0  0  0  0  0  0  0
   39.3470   26.3560   33.6030 O   0  0  0  0  0  0  0  0  0  0  0  0
  2  7  1  0  0  0  0
  2  1  1  0  0  0  0
  3  2  2  0  0  0  0
  4  5  2  0  0  0  0
  4  3  1  0  0  0  0
  5  6  1  0  0  0  0
  6 10  1  0  0  0  0
  6  7  2  0  0  0  0
  7 20  1  0  0  0  0
  8  4  1  0  0  0  0
  9  5  1  0  0  0  0
 11 12  1  0  0  0  0
 12  3  1  0  0  0  0
 12 13  2  0  0  0  0
 13 18  1  0  0  0  0
 14 13  1  0  0  0  0
 15 14  2  0  0  0  0
 16 11  2  0  0  0  0
 16 15  1  0  0  0  0
 17 11  1  0  0  0  0
 19 15  1  0  0  0  0
 20 21  2  0  0  0  0
 21 22  1  0  0  0  0
 21 23  1  0  0  0  0
 23 24  1  0  0  0  0
 25 26  1  0  0  0  0
 25 23  2  0  0  0  0
 27 20  1  0  0  0  0
 27 25  1  0  0  0  0
M  END
>  <minimizedAffinity>
-4.99366999

$$$$

 OpenBabel03262521053D

 27 29  0  0  0  0  0  0  0  0999 V2000
   39.6640   25.0510   31.9130 Br  0  0  0  0  0  0  0  0  0  0  0  0
   38.8970   25.9890   33.3610 C   0  0  0  0  0  0  0  0  0  0  0  0
   39.7840   26.4710   34.3080 C   0  0  0  0  0  0  0  0  0  0  0  0
   39.2780   27.1730   35.4030 C   0  0  0  0  0  0  0  0  0  0  0  0
   37.9100   27.3820   35.5400 C   0  0  0  0  0  0  0  0  0  0  0  0
   37.0980   26.8780   34.5670 C   0  0  0  0  0  0  0  0  0  0  0  0
   37.5500   26.1850   33.4790 C   0  0  0  0  0  0  0  0  0  0  0  0
   39.9030   27.5780   36.1800 H   0  0  0  0  0  0  0  0  0  0  0  0
   37.4960   27.9240   36.3800 H   0  0  0  0  0  0  0  0  0  0  0  0
   36.0310   27.0290   34.6540 H   0  0  0  0  0  0  0  0  0  0  0  0
   42.1090   27.2490   33.6960 C   0  0  0  0  0  0  0  0  0  0  0  0
   41.2390   26.3380   34.3140 C   0  0  0  0  0  0  0  0  0  0  0  0
   41.7980   25.2340   34.9760 C   0  0  0  0  0  0  0  0  0  0  0  0
   43.1720   25.1180   34.9760 N   0  0  0  0  0  0  0  0  0  0  0  0
   43.9580   26.0210   34.3670 C   0  0  0  0  0  0  0  0  0  0  0  0
   43.4340   27.0920   33.7230 N   0  0  0  0  0  0  0  0  0  0  0  0
   41.6340   28.0950   33.1920 H   0  0  0  0  0  0  0  0  0  0  0  0
   41.2170   24.4760   35.4830 H   0  0  0  0  0  0  0  0  0  0  0  0
   45.0330   25.8970   34.3870 H   0  0  0  0  0  0  0  0  0  0  0  0
   36.6580   25.6570   32.4560 C   0  0  0  0  0  0  0  0  0  0  0  0
   35.9360   26.4100   31.5260 C   0  0  0  0  0  0  0  0  0  0  0  0
   35.9260   27.4980   31.4190 H   0  0  0  0  0  0  0  0  0  0  0  0
   35.2390   25.4730   30.7700 C   0  0  0  0  0  0  0  0  0  0  0  0
   34.5630   25.6850   29.9430 H   0  0  0  0  0  0  0  0  0  0  0  0
   35.5670   24.2190   31.2740 C   0  0  0  0  0  0  0  0  0  0  0  0
   35.1480   23.3120   30.8480 H   0  0  0  0  0  0  0  0  0  0  0  0
   36.4140   24.3810   32.2740 O   0  0  0  0  0  0  0  0  0  0  0  0
  1  2  1  0  0  0  0
  2  7  2  0  0  0  0
  2  3  1  0  0  0  0
  3 12  1  0  0  0  0
  3  4  2  0  0  0  0
  4  5  1  0  0  0  0
  4  8  1  0  0  0  0
  5  9  1  0  0  0  0
  6 10  1  0  0  0  0
  6  5  2  0  0  0  0
  7  6  1  0  0  0  0
 11 16  2  0  0  0  0
 11 12  1  0  0  0  0
 12 13  2  0  0  0  0
 13 14  1  0  0  0  0
 13 18  1  0  0  0  0
 15 19  1  0  0  0  0
 15 14  2  0  0  0  0
 16 15  1  0  0  0  0
 17 11  1  0  0  0  0
 20  7  1  0  0  0  0
 21 20  2  0  0  0  0
 22 21  1  0  0  0  0
 23 25  2  0  0  0  0
 23 21  1  0  0  0  0
 24 23  1  0  0  0  0
 25 27  1  0  0  0  0
 26 25  1  0  0  0  0
 27 20  1  0  0  0  0
M  END
>  <minimizedAffinity>
-4.85222387

$$$$

 OpenBabel03262521053D

 27 29  0  0  0  0  0  0  0  0999 V2000
   38.4370   22.7170   33.1870 Br  0  0  0  0  0  0  0  0  0  0  0  0
   37.2040   23.8670   32.3370 C   0  0  0  0  0  0  0  0  0  0  0  0
   37.4860   25.2200   32.4130 C   0  0  0  0  0  0  0  0  0  0  0  0
   36.6120   26.1220   31.8050 C   0  0  0  0  0  0  0  0  0  0  0  0
   35.4790   25.6690   31.1360 C   0  0  0  0  0  0  0  0  0  0  0  0
   35.2670   24.3220   31.1040 C   0  0  0  0  0  0  0  0  0  0  0  0
   36.0960   23.4040   31.6850 C   0  0  0  0  0  0  0  0  0  0  0  0
   36.7630   27.1870   31.8190 H   0  0  0  0  0  0  0  0  0  0  0  0
   34.7880   26.3490   30.6570 H   0  0  0  0  0  0  0  0  0  0  0  0
   34.3920   23.9480   30.5900 H   0  0  0  0  0  0  0  0  0  0  0  0
   39.8570   26.0940   32.4440 C   0  0  0  0  0  0  0  0  0  0  0  0
   38.6250   25.8560   33.0710 C   0  0  0  0  0  0  0  0  0  0  0  0
   38.4770   26.2510   34.4100 C   0  0  0  0  0  0  0  0  0  0  0  0
   39.5560   26.8500   35.0220 N   0  0  0  0  0  0  0  0  0  0  0  0
   40.7150   27.0540   34.3730 C   0  0  0  0  0  0  0  0  0  0  0  0
   40.8740   26.6790   33.0810 N   0  0  0  0  0  0  0  0  0  0  0  0
   39.9310   25.7730   31.4020 H   0  0  0  0  0  0  0  0  0  0  0  0
   37.5700   26.1140   34.9840 H   0  0  0  0  0  0  0  0  0  0  0  0
   41.5410   27.5270   34.8860 H   0  0  0  0  0  0  0  0  0  0  0  0
   35.8430   21.9710   31.6340 C   0  0  0  0  0  0  0  0  0  0  0  0
   34.9760   21.2580   32.4670 C   0  0  0  0  0  0  0  0  0  0  0  0
   34.3600   21.6560   33.2770 H   0  0  0  0  0  0  0  0  0  0  0  0
   35.0710   19.9380   32.0390 C   0  0  0  0  0  0  0  0  0  0  0  0
   34.5370   19.0850   32.4540 H   0  0  0  0  0  0  0  0  0  0  0  0
   35.9780   19.9180   30.9840 C   0  0  0  0  0  0  0  0  0  0  0  0
   36.2270   18.9930   30.4720 H   0  0  0  0  0  0  0  0  0  0  0  0
   36.4080   21.1490   30.7810 O   0  0  0  0  0  0  0  0  0  0  0  0
  2  3  1  0  0  0  0
  2  1  1  0  0  0  0
  3 12  1  0  0  0  0
  4  8  1  0  0  0  0
  4  3  2  0  0  0  0
  5  4  1  0  0  0  0
  6  5  2  0  0  0  0
  6  7  1  0  0  0  0
  7  2  2  0  0  0  0
  9  5  1  0  0  0  0
 10  6  1  0  0  0  0
 11 12  2  0  0  0  0
 11 16  1  0  0  0  0
 12 13  1  0  0  0  0
 13 18  1  0  0  0  0
 13 14  2  0  0  0  0
 15 19  1  0  0  0  0
 15 14  1  0  0  0  0
 16 15  2  0  0  0  0
 17 11  1  0  0  0  0
 20  7  1  0  0  0  0
 20 21  2  0  0  0  0
 21 22  1  0  0  0  0
 23 24  1  0  0  0  0
 23 21  1  0  0  0  0
 25 23  2  0  0  0  0
 26 25  1  0  0  0  0
 27 25  1  0  0  0  0
 27 20  1  0  0  0  0
M  END
>  <minimizedAffinity>
-4.62483978

$$$$

 OpenBabel03262521053D

 27 29  0  0  0  0  0  0  0  0999 V2000
   40.8640   24.7510   34.1730 Br  0  0  0  0  0  0  0  0  0  0  0  0
   39.9220   24.1650   35.7010 C   0  0  0  0  0  0  0  0  0  0  0  0
   38.6690   24.7220   35.8900 C   0  0  0  0  0  0  0  0  0  0  0  0
   37.9230   24.3300   37.0020 C   0  0  0  0  0  0  0  0  0  0  0  0
   38.4290   23.3980   37.9020 C   0  0  0  0  0  0  0  0  0  0  0  0
   39.6710   22.8940   37.6500 C   0  0  0  0  0  0  0  0  0  0  0  0
   40.4360   23.2490   36.5750 C   0  0  0  0  0  0  0  0  0  0  0  0
   36.9420   24.7170   37.2170 H   0  0  0  0  0  0  0  0  0  0  0  0
   37.8680   23.0790   38.7700 H   0  0  0  0  0  0  0  0  0  0  0  0
   40.0840   22.1680   38.3370 H   0  0  0  0  0  0  0  0  0  0  0  0
   37.4910   25.4240   33.7680 C   0  0  0  0  0  0  0  0  0  0  0  0
   37.9960   25.7060   35.0450 C   0  0  0  0  0  0  0  0  0  0  0  0
   37.8460   27.0100   35.5420 C   0  0  0  0  0  0  0  0  0  0  0  0
   37.2100   27.9310   34.7380 N   0  0  0  0  0  0  0  0  0  0  0  0
   36.7450   27.6050   33.5200 C   0  0  0  0  0  0  0  0  0  0  0  0
   36.8810   26.3510   33.0260 N   0  0  0  0  0  0  0  0  0  0  0  0
   37.6270   24.3960   33.4170 H   0  0  0  0  0  0  0  0  0  0  0  0
   38.1990   27.3310   36.5130 H   0  0  0  0  0  0  0  0  0  0  0  0
   36.2510   28.3550   32.9160 H   0  0  0  0  0  0  0  0  0  0  0  0
   41.7590   22.6920   36.3320 C   0  0  0  0  0  0  0  0  0  0  0  0
   42.0370   21.4280   35.8070 C   0  0  0  0  0  0  0  0  0  0  0  0
   41.3150   20.6660   35.4990 H   0  0  0  0  0  0  0  0  0  0  0  0
   43.4250   21.3540   35.7610 C   0  0  0  0  0  0  0  0  0  0  0  0
   44.0160   20.5110   35.4080 H   0  0  0  0  0  0  0  0  0  0  0  0
   43.9120   22.5600   36.2560 C   0  0  0  0  0  0  0  0  0  0  0  0
   44.9790   22.7520   36.3240 H   0  0  0  0  0  0  0  0  0  0  0  0
   42.8840   23.3220   36.5810 O   0  0  0  0  0  0  0  0  0  0  0  0
  1  2  1  0  0  0  0
  2  3  2  0  0  0  0
  2  7  1  0  0  0  0
  3  4  1  0  0  0  0
  4  8  1  0  0  0  0
  4  5  2  0  0  0  0
  5  9  1  0  0  0  0
  6  5  1  0  0  0  0
  6 10  1  0  0  0  0
  7  6  2  0  0  0  0
 11 12  1  0  0  0  0
 12 13  2  0  0  0  0
 12  3  1  0  0  0  0
 13 18  1  0  0  0  0
 14 13  1  0  0  0  0
 15 14  2  0  0  0  0
 16 15  1  0  0  0  0
 16 11  2  0  0  0  0
 17 11  1  0  0  0  0
 19 15  1  0  0  0  0
 20  7  1  0  0  0  0
 20 27  1  0  0  0  0
 21 20  2  0  0  0  0
 22 21  1  0  0  0  0
 23 21  1  0  0  0  0
 23 25  2  0  0  0  0
 24 23  1  0  0  0  0
 25 26  1  0  0  0  0
 25 27  1  0  0  0  0
M  END
>  <minimizedAffinity>
-4.62409735

$$$$

 OpenBabel03262521053D

 27 29  0  0  0  0  0  0  0  0999 V2000
   38.2910   26.8110   35.1210 Br  0  0  0  0  0  0  0  0  0  0  0  0
   37.7700   25.4690   33.8990 C   0  0  0  0  0  0  0  0  0  0  0  0
   38.0650   24.1670   34.2670 C   0  0  0  0  0  0  0  0  0  0  0  0
   37.7050   23.1310   33.4050 C   0  0  0  0  0  0  0  0  0  0  0  0
   37.0620   23.4010   32.2010 C   0  0  0  0  0  0  0  0  0  0  0  0
   36.8050   24.7070   31.9070 C   0  0  0  0  0  0  0  0  0  0  0  0
   37.1390   25.7530   32.7200 C   0  0  0  0  0  0  0  0  0  0  0  0
   37.8990   22.0940   33.6200 H   0  0  0  0  0  0  0  0  0  0  0  0
   36.7730   22.6130   31.5180 H   0  0  0  0  0  0  0  0  0  0  0  0
   36.3070   24.9400   30.9760 H   0  0  0  0  0  0  0  0  0  0  0  0
   38.0820   23.5730   36.7220 C   0  0  0  0  0  0  0  0  0  0  0  0
   38.7300   23.7160   35.4860 C   0  0  0  0  0  0  0  0  0  0  0  0
   40.0970   23.4090   35.4170 C   0  0  0  0  0  0  0  0  0  0  0  0
   40.7150   22.9840   36.5730 N   0  0  0  0  0  0  0  0  0  0  0  0
   40.0460   22.8650   37.7320 C   0  0  0  0  0  0  0  0  0  0  0  0
   38.7250   23.1580   37.8150 N   0  0  0  0  0  0  0  0  0  0  0  0
   37.0170   23.8220   36.7340 H   0  0  0  0  0  0  0  0  0  0  0  0
   40.6890   23.4850   34.5150 H   0  0  0  0  0  0  0  0  0  0  0  0
   40.5640   22.5290   38.6200 H   0  0  0  0  0  0  0  0  0  0  0  0
   36.8510   27.1390   32.3790 C   0  0  0  0  0  0  0  0  0  0  0  0
   37.5920   27.9440   31.5090 C   0  0  0  0  0  0  0  0  0  0  0  0
   38.4920   27.6650   30.9540 H   0  0  0  0  0  0  0  0  0  0  0  0
   36.9340   29.1690   31.5050 C   0  0  0  0  0  0  0  0  0  0  0  0
   37.2220   30.0540   30.9390 H   0  0  0  0  0  0  0  0  0  0  0  0
   35.8440   29.0480   32.3610 C   0  0  0  0  0  0  0  0  0  0  0  0
   35.1650   29.8780   32.5310 H   0  0  0  0  0  0  0  0  0  0  0  0
   35.8380   27.8240   32.8560 O   0  0  0  0  0  0  0  0  0  0  0  0
  2  3  1  0  0  0  0
  2  1  1  0  0  0  0
  3 12  1  0  0  0  0
  4  8  1  0  0  0  0
  4  3  2  0  0  0  0
  5  4  1  0  0  0  0
  6  5  2  0  0  0  0
  6  7  1  0  0  0  0
  7  2  2  0  0  0  0
  9  5  1  0  0  0  0
 10  6  1  0  0  0  0
 11 17  1  0  0  0  0
 11 16  1  0  0  0  0
 12 11  2  0  0  0  0
 13 12  1  0  0  0  0
 13 14  2  0  0  0  0
 14 15  1  0  0  0  0
 15 16  2  0  0  0  0
 15 19  1  0  0  0  0
 18 13  1  0  0  0  0
 20  7  1  0  0  0  0
 20 27  1  0  0  0  0
 21 20  2  0  0  0  0
 22 21  1  0  0  0  0
 23 21  1  0  0  0  0
 23 25  2  0  0  0  0
 24 23  1  0  0  0  0
 25 26  1  0  0  0  0
 25 27  1  0  0  0  0
M  END
>  <minimizedAffinity>
-4.51988697

$$$$

 OpenBabel03262521053D

 27 29  0  0  0  0  0  0  0  0999 V2000
   38.5410   26.3740   35.2810 Br  0  0  0  0  0  0  0  0  0  0  0  0
   38.0970   24.8150   34.3130 C   0  0  0  0  0  0  0  0  0  0  0  0
   37.7360   25.0060   32.9900 C   0  0  0  0  0  0  0  0  0  0  0  0
   37.3970   23.8920   32.2210 C   0  0  0  0  0  0  0  0  0  0  0  0
   37.4210   22.6160   32.7740 C   0  0  0  0  0  0  0  0  0  0  0  0
   37.7860   22.5070   34.0840 C   0  0  0  0  0  0  0  0  0  0  0  0
   38.1260   23.5690   34.8730 C   0  0  0  0  0  0  0  0  0  0  0  0
   37.1060   23.9580   31.1870 H   0  0  0  0  0  0  0  0  0  0  0  0
   37.1620   21.7380   32.1970 H   0  0  0  0  0  0  0  0  0  0  0  0
   37.8110   21.5240   34.5340 H   0  0  0  0  0  0  0  0  0  0  0  0
   38.7460   26.8480   31.5850 C   0  0  0  0  0  0  0  0  0  0  0  0
   37.6610   26.2700   32.2620 C   0  0  0  0  0  0  0  0  0  0  0  0
   36.4310   26.9460   32.2380 C   0  0  0  0  0  0  0  0  0  0  0  0
   36.3700   28.1370   31.5480 N   0  0  0  0  0  0  0  0  0  0  0  0
   37.4420   28.6460   30.9180 C   0  0  0  0  0  0  0  0  0  0  0  0
   38.6360   28.0060   30.9310 N   0  0  0  0  0  0  0  0  0  0  0  0
   39.6860   26.2900   31.6270 H   0  0  0  0  0  0  0  0  0  0  0  0
   35.5350   26.5870   32.7260 H   0  0  0  0  0  0  0  0  0  0  0  0
   37.3570   29.5840   30.3860 H   0  0  0  0  0  0  0  0  0  0  0  0
   38.5120   23.4210   36.2690 C   0  0  0  0  0  0  0  0  0  0  0  0
   39.7760   23.0570   36.7390 C   0  0  0  0  0  0  0  0  0  0  0  0
   40.6640   22.8290   36.1430 H   0  0  0  0  0  0  0  0  0  0  0  0
   39.6570   23.0510   38.1250 C   0  0  0  0  0  0  0  0  0  0  0  0
   40.4420   22.8110   38.8400 H   0  0  0  0  0  0  0  0  0  0  0  0
   38.3440   23.4040   38.4200 C   0  0  0  0  0  0  0  0  0  0  0  0
   37.9950   23.4720   39.4470 H   0  0  0  0  0  0  0  0  0  0  0  0
   37.7040   23.6150   37.2850 O   0  0  0  0  0  0  0  0  0  0  0  0
  2  7  1  0  0  0  0
  2  1  1  0  0  0  0
  3  2  2  0  0  0  0
  4  5  2  0  0  0  0
  4  3  1  0  0  0  0
  5  6  1  0  0  0  0
  6 10  1  0  0  0  0
  6  7  2  0  0  0  0
  7 20  1  0  0  0  0
  8  4  1  0  0  0  0
  9  5  1  0  0  0  0
 11 17  1  0  0  0  0
 11 12  1  0  0  0  0
 12  3  1  0  0  0  0
 13 12  2  0  0  0  0
 13 18  1  0  0  0  0
 14 13  1  0  0  0  0
 15 16  1  0  0  0  0
 15 14  2  0  0  0  0
 16 11  2  0  0  0  0
 19 15  1  0  0  0  0
 20 21  2  0  0  0  0
 20 27  1  0  0  0  0
 21 23  1  0  0  0  0
 22 21  1  0  0  0  0
 23 25  2  0  0  0  0
 23 24  1  0  0  0  0
 25 26  1  0  0  0  0
 27 25  1  0  0  0  0
M  END
>  <minimizedAffinity>
-4.51162148

$$$$

 OpenBabel03262521053D

 27 29  0  0  0  0  0  0  0  0999 V2000
   40.7150   25.0390   34.2230 Br  0  0  0  0  0  0  0  0  0  0  0  0
   39.8710   24.3420   35.7610 C   0  0  0  0  0  0  0  0  0  0  0  0
   40.4920   23.2550   36.3530 C   0  0  0  0  0  0  0  0  0  0  0  0
   39.9160   22.6940   37.4940 C   0  0  0  0  0  0  0  0  0  0  0  0
   38.7420   23.2180   38.0250 C   0  0  0  0  0  0  0  0  0  0  0  0
   38.1880   24.2890   37.3870 C   0  0  0  0  0  0  0  0  0  0  0  0
   38.7170   24.8690   36.2690 C   0  0  0  0  0  0  0  0  0  0  0  0
   40.3380   21.8500   38.0100 H   0  0  0  0  0  0  0  0  0  0  0  0
   38.2780   22.8000   38.9080 H   0  0  0  0  0  0  0  0  0  0  0  0
   37.2740   24.7110   37.7830 H   0  0  0  0  0  0  0  0  0  0  0  0
   41.7570   21.5480   34.9870 C   0  0  0  0  0  0  0  0  0  0  0  0
   41.7200   22.5900   35.9250 C   0  0  0  0  0  0  0  0  0  0  0  0
   42.9330   23.0190   36.4860 C   0  0  0  0  0  0  0  0  0  0  0  0
   44.0850   22.3850   36.0750 N   0  0  0  0  0  0  0  0  0  0  0  0
   44.0640   21.3910   35.1720 C   0  0  0  0  0  0  0  0  0  0  0  0
   42.9010   20.9650   34.6210 N   0  0  0  0  0  0  0  0  0  0  0  0
   40.7920   21.2440   34.5720 H   0  0  0  0  0  0  0  0  0  0  0  0
   43.0130   23.8130   37.2160 H   0  0  0  0  0  0  0  0  0  0  0  0
   44.9890   20.9160   34.8740 H   0  0  0  0  0  0  0  0  0  0  0  0
   38.1020   26.0130   35.6100 C   0  0  0  0  0  0  0  0  0  0  0  0
   37.2910   25.9690   34.4720 C   0  0  0  0  0  0  0  0  0  0  0  0
   36.9940   25.0830   33.9050 H   0  0  0  0  0  0  0  0  0  0  0  0
   36.9480   27.2940   34.2240 C   0  0  0  0  0  0  0  0  0  0  0  0
   36.3210   27.6580   33.4120 H   0  0  0  0  0  0  0  0  0  0  0  0
   37.5610   28.0630   35.2090 C   0  0  0  0  0  0  0  0  0  0  0  0
   37.4450   29.1430   35.2360 H   0  0  0  0  0  0  0  0  0  0  0  0
   38.2340   27.2560   36.0080 O   0  0  0  0  0  0  0  0  0  0  0  0
  1  2  1  0  0  0  0
  2  7  2  0  0  0  0
  2  3  1  0  0  0  0
  3  4  2  0  0  0  0
  4  8  1  0  0  0  0
  4  5  1  0  0  0  0
  5  9  1  0  0  0  0
  6 10  1  0  0  0  0
  6  5  2  0  0  0  0
  7  6  1  0  0  0  0
 11 12  1  0  0  0  0
 12  3  1  0  0  0  0
 12 13  2  0  0  0  0
 13 18  1  0  0  0  0
 14 13  1  0  0  0  0
 15 14  2  0  0  0  0
 16 11  2  0  0  0  0
 16 15  1  0  0  0  0
 17 11  1  0  0  0  0
 19 15  1  0  0  0  0
 20 27  1  0  0  0  0
 20  7  1  0  0  0  0
 21 20  2  0  0  0  0
 22 21  1  0  0  0  0
 23 21  1  0  0  0  0
 23 25  2  0  0  0  0
 24 23  1  0  0  0  0
 25 26  1  0  0  0  0
 25 27  1  0  0  0  0
M  END
>  <minimizedAffinity>
-4.43284798

$$$$

 OpenBabel03262521053D

 27 29  0  0  0  0  0  0  0  0999 V2000
   34.9050   25.1040   30.8580 Br  0  0  0  0  0  0  0  0  0  0  0  0
   36.4640   25.0700   31.9220 C   0  0  0  0  0  0  0  0  0  0  0  0
   37.0050   26.3030   32.2440 C   0  0  0  0  0  0  0  0  0  0  0  0
   38.1590   26.3430   33.0280 C   0  0  0  0  0  0  0  0  0  0  0  0
   38.7530   25.1680   33.4760 C   0  0  0  0  0  0  0  0  0  0  0  0
   38.1630   23.9910   33.1180 C   0  0  0  0  0  0  0  0  0  0  0  0
   37.0340   23.9050   32.3530 C   0  0  0  0  0  0  0  0  0  0  0  0
   38.6380   27.2610   33.3210 H   0  0  0  0  0  0  0  0  0  0  0  0
   39.6470   25.1760   34.0850 H   0  0  0  0  0  0  0  0  0  0  0  0
   38.6080   23.0660   33.4550 H   0  0  0  0  0  0  0  0  0  0  0  0
   35.6350   28.3880   32.6430 C   0  0  0  0  0  0  0  0  0  0  0  0
   36.5080   27.6210   31.8580 C   0  0  0  0  0  0  0  0  0  0  0  0
   36.9290   28.1500   30.6280 C   0  0  0  0  0  0  0  0  0  0  0  0
   36.4550   29.3940   30.2730 N   0  0  0  0  0  0  0  0  0  0  0  0
   35.6190   30.0860   31.0640 C   0  0  0  0  0  0  0  0  0  0  0  0
   35.2030   29.5890   32.2540 N   0  0  0  0  0  0  0  0  0  0  0  0
   35.3310   27.9410   33.5940 H   0  0  0  0  0  0  0  0  0  0  0  0
   37.6000   27.6410   29.9490 H   0  0  0  0  0  0  0  0  0  0  0  0
   35.2670   31.0600   30.7520 H   0  0  0  0  0  0  0  0  0  0  0  0
   36.4270   22.6330   31.9860 C   0  0  0  0  0  0  0  0  0  0  0  0
   36.8570   21.7790   30.9660 C   0  0  0  0  0  0  0  0  0  0  0  0
   37.7040   21.9280   30.2920 H   0  0  0  0  0  0  0  0  0  0  0  0
   35.9740   20.7060   31.0010 C   0  0  0  0  0  0  0  0  0  0  0  0
   35.9910   19.8340   30.3480 H   0  0  0  0  0  0  0  0  0  0  0  0
   35.0650   20.9590   32.0240 C   0  0  0  0  0  0  0  0  0  0  0  0
   34.2660   20.2610   32.2550 H   0  0  0  0  0  0  0  0  0  0  0  0
   35.3770   22.1160   32.5800 O   0  0  0  0  0  0  0  0  0  0  0  0
  1  2  1  0  0  0  0
  2  3  2  0  0  0  0
  2  7  1  0  0  0  0
  3  4  1  0  0  0  0
  4  8  1  0  0  0  0
  4  5  2  0  0  0  0
  5  9  1  0  0  0  0
  6 10  1  0  0  0  0
  6  5  1  0  0  0  0
  7  6  2  0  0  0  0
 11 17  1  0  0  0  0
 12  3  1  0  0  0  0
 12 11  2  0  0  0  0
 13 12  1  0  0  0  0
 14 13  2  0  0  0  0
 14 15  1  0  0  0  0
 15 16  2  0  0  0  0
 16 11  1  0  0  0  0
 18 13  1  0  0  0  0
 19 15  1  0  0  0  0
 20  7  1  0  0  0  0
 20 27  1  0  0  0  0
 21 23  1  0  0  0  0
 21 20  2  0  0  0  0
 22 21  1  0  0  0  0
 23 25  2  0  0  0  0
 24 23  1  0  0  0  0
 25 26  1  0  0  0  0
 25 27  1  0  0  0  0
M  END
>  <minimizedAffinity>
-4.42071676

$$$$

 OpenBabel03262521053D

 27 29  0  0  0  0  0  0  0  0999 V2000
   36.3190   28.2210   34.5230 Br  0  0  0  0  0  0  0  0  0  0  0  0
   36.0260   29.4020   33.0800 C   0  0  0  0  0  0  0  0  0  0  0  0
   36.3750   28.9260   31.8270 C   0  0  0  0  0  0  0  0  0  0  0  0
   36.1830   29.7530   30.7200 C   0  0  0  0  0  0  0  0  0  0  0  0
   35.6510   31.0290   30.8720 C   0  0  0  0  0  0  0  0  0  0  0  0
   35.3310   31.4280   32.1360 C   0  0  0  0  0  0  0  0  0  0  0  0
   35.5020   30.6530   33.2480 C   0  0  0  0  0  0  0  0  0  0  0  0
   36.4290   29.4550   29.7150 H   0  0  0  0  0  0  0  0  0  0  0  0
   35.4930   31.6860   30.0270 H   0  0  0  0  0  0  0  0  0  0  0  0
   34.9160   32.4170   32.2770 H   0  0  0  0  0  0  0  0  0  0  0  0
   36.1710   26.4720   31.2630 C   0  0  0  0  0  0  0  0  0  0  0  0
   36.9410   27.6200   31.4980 C   0  0  0  0  0  0  0  0  0  0  0  0
   38.3380   27.5090   31.4120 C   0  0  0  0  0  0  0  0  0  0  0  0
   38.8620   26.2730   31.1010 N   0  0  0  0  0  0  0  0  0  0  0  0
   38.0760   25.2050   30.8850 C   0  0  0  0  0  0  0  0  0  0  0  0
   36.7260   25.2960   30.9640 N   0  0  0  0  0  0  0  0  0  0  0  0
   35.0870   26.6010   31.3380 H   0  0  0  0  0  0  0  0  0  0  0  0
   39.0200   28.3320   31.5750 H   0  0  0  0  0  0  0  0  0  0  0  0
   38.5230   24.2500   30.6430 H   0  0  0  0  0  0  0  0  0  0  0  0
   35.1510   31.1070   34.5860 C   0  0  0  0  0  0  0  0  0  0  0  0
   35.9910   31.7890   35.4710 C   0  0  0  0  0  0  0  0  0  0  0  0
   37.0300   32.0850   35.3020 H   0  0  0  0  0  0  0  0  0  0  0  0
   35.2170   32.0060   36.6060 C   0  0  0  0  0  0  0  0  0  0  0  0
   35.5340   32.5120   37.5170 H   0  0  0  0  0  0  0  0  0  0  0  0
   33.9650   31.4520   36.3560 C   0  0  0  0  0  0  0  0  0  0  0  0
   33.1720   31.4920   37.0970 H   0  0  0  0  0  0  0  0  0  0  0  0
   33.9760   30.9310   35.1430 O   0  0  0  0  0  0  0  0  0  0  0  0
  2  7  1  0  0  0  0
  2  1  1  0  0  0  0
  3  2  2  0  0  0  0
  4  5  2  0  0  0  0
  4  3  1  0  0  0  0
  5  6  1  0  0  0  0
  6 10  1  0  0  0  0
  6  7  2  0  0  0  0
  7 20  1  0  0  0  0
  8  4  1  0  0  0  0
  9  5  1  0  0  0  0
 11 17  1  0  0  0  0
 11 12  1  0  0  0  0
 12  3  1  0  0  0  0
 13 12  2  0  0  0  0
 13 18  1  0  0  0  0
 14 13  1  0  0  0  0
 15 16  1  0  0  0  0
 15 14  2  0  0  0  0
 16 11  2  0  0  0  0
 19 15  1  0  0  0  0
 20 27  1  0  0  0  0
 20 21  2  0  0  0  0
 21 23  1  0  0  0  0
 22 21  1  0  0  0  0
 23 24  1  0  0  0  0
 25 23  2  0  0  0  0
 25 26  1  0  0  0  0
 27 25  1  0  0  0  0
M  END
>  <minimizedAffinity>
-4.40751743

$$$$
