REMARK  Name = 
REMARK  4 active torsions:
REMARK  status: ('A' for Active; 'I' for Inactive)
REMARK    1  A    between atoms: C_3  and  C_13
REMARK    2  A    between atoms: C_8  and  C_15
REMARK    3  A    between atoms: C_15  and  C_18
REMARK    4  A    between atoms: C_22  and  C_33
REMARK                            x       y       z     vdW  Elec       q    Type
REMARK                         _______ _______ _______ _____ _____    ______ ____
ROOT
ATOM      1  C   UNL     1      34.903  30.713  48.635  0.00  0.00    +0.000 C 
ATOM      2  H   UNL     1      34.538  31.732  48.794  0.00  0.00    +0.000 HD
ATOM      3  H   UNL     1      33.995  30.058  48.757  0.00  0.00    +0.000 HD
ENDROOT
BRANCH   1  11
ATOM      4 CL   UNL     1      37.554  32.056  48.127  0.00  0.00    +0.000 Cl
ATOM      5  C   UNL     1      36.678  31.089  47.002  0.00  0.00    +0.000 A 
ATOM      6  C   UNL     1      37.206  30.881  45.733  0.00  0.00    +0.000 A 
ATOM      7  C   UNL     1      36.547  30.123  44.797  0.00  0.00    +0.000 A 
ATOM      8  C   UNL     1      35.335  29.544  45.095  0.00  0.00    +0.000 A 
ATOM      9  C   UNL     1      34.780  29.728  46.348  0.00  0.00    +0.000 A 
ATOM     10 CL   UNL     1      33.241  29.052  46.857  0.00  0.00    +0.000 Cl
ATOM     11  C   UNL     1      35.487  30.506  47.263  0.00  0.00    +0.000 A 
ATOM     12  H   UNL     1      36.966  29.975  43.830  0.00  0.00    +0.000 HD
ATOM     13  H   UNL     1      34.788  28.949  44.404  0.00  0.00    +0.000 HD
BRANCH   6  18
ATOM     14  C   UNL     1      39.762  33.223  44.544  0.00  0.00    +0.000 A 
ATOM     15  C   UNL     1      40.962  32.556  44.815  0.00  0.00    +0.000 A 
ATOM     16  C   UNL     1      40.871  31.271  45.420  0.00  0.00    +0.000 A 
ATOM     17  N   UNL     1      39.632  30.791  45.687  0.00  0.00    +0.000 NA
ATOM     18  C   UNL     1      38.486  31.483  45.402  0.00  0.00    +0.000 A 
ATOM     19  N   UNL     1      38.574  32.683  44.838  0.00  0.00    +0.000 NA
ATOM     20  H   UNL     1      39.783  34.203  44.085  0.00  0.00    +0.000 HD
ATOM     21  H   UNL     1      41.919  32.989  44.580  0.00  0.00    +0.000 HD
ATOM     22  H   UNL     1      41.752  30.715  45.650  0.00  0.00    +0.000 HD
ENDBRANCH   6  18
ENDBRANCH   1  11
BRANCH   1  25
ATOM     23  F   UNL     1      35.281  27.966  49.106  0.00  0.00    +0.000 F 
ATOM     24  C   UNL     1      36.000  28.870  49.857  0.00  0.00    +0.000 A 
ATOM     25  C   UNL     1      35.842  30.253  49.679  0.00  0.00    +0.000 A 
ATOM     26  C   UNL     1      36.571  31.100  50.480  0.00  0.00    +0.000 A 
ATOM     27  C   UNL     1      37.443  30.607  51.435  0.00  0.00    +0.000 A 
ATOM     28  C   UNL     1      37.585  29.233  51.593  0.00  0.00    +0.000 A 
ATOM     29  C   UNL     1      36.855  28.338  50.796  0.00  0.00    +0.000 A 
ATOM     30  H   UNL     1      36.471  32.174  50.482  0.00  0.00    +0.000 HD
ATOM     31  H   UNL     1      38.032  31.229  52.077  0.00  0.00    +0.000 HD
ATOM     32  H   UNL     1      38.269  28.854  52.343  0.00  0.00    +0.000 HD
BRANCH  29  33
ATOM     33  C   UNL     1      37.053  26.916  51.019  0.00  0.00    +0.000 A 
ATOM     34  C   UNL     1      36.712  25.829  50.246  0.00  0.00    +0.000 A 
ATOM     35  H   UNL     1      36.211  25.851  49.292  0.00  0.00    +0.000 HD
ATOM     36  C   UNL     1      37.095  24.648  50.848  0.00  0.00    +0.000 A 
ATOM     37  H   UNL     1      36.991  23.619  50.537  0.00  0.00    +0.000 HD
ATOM     38  C   UNL     1      37.678  25.101  52.013  0.00  0.00    +0.000 A 
ATOM     39  H   UNL     1      38.131  24.509  52.813  0.00  0.00    +0.000 HD
ATOM     40  O   UNL     1      37.633  26.391  52.068  0.00  0.00    +0.000 OA
ENDBRANCH  29  33
ENDBRANCH   1  25
TORSDOF 4
