
 OpenBabel03262521593D

 35 37  0  0  1  0  0  0  0  0999 V2000
   36.7540   30.4330   48.7670 N   0  0  0  0  0  0  0  0  0  0  0  0
   36.2750   29.1690   48.3080 C   0  0  0  0  0  0  0  0  0  0  0  0
   34.8390   28.8840   48.4500 C   0  0  0  0  0  0  0  0  0  0  0  0
   34.0720   29.6210   49.4860 C   0  0  0  0  0  0  0  0  0  0  0  0
   34.7240   30.8650   50.0040 C   0  0  0  0  0  0  0  0  0  0  0  0
   36.2480   30.6780   50.0730 C   0  0  1  0  0  0  0  0  0  0  0  0
   36.8960   28.2900   48.6640 H   0  0  0  0  0  0  0  0  0  0  0  0
   36.5460   29.1630   47.2120 H   0  0  0  0  0  0  0  0  0  0  0  0
   34.7010   27.7890   48.7110 H   0  0  0  0  0  0  0  0  0  0  0  0
   34.3260   28.9150   47.4400 H   0  0  0  0  0  0  0  0  0  0  0  0
   33.6000   28.9740   50.2770 H   0  0  0  0  0  0  0  0  0  0  0  0
   33.1380   30.0210   48.9920 H   0  0  0  0  0  0  0  0  0  0  0  0
   34.5890   31.7110   49.2990 H   0  0  0  0  0  0  0  0  0  0  0  0
   34.3040   31.1380   50.9850 H   0  0  0  0  0  0  0  0  0  0  0  0
   36.6100   31.6980   50.3390 H   0  0  0  0  0  0  0  0  0  0  0  0
   37.6130   31.3160   48.0230 C   0  0  0  0  0  0  0  0  0  0  0  0
   38.5340   32.1910   48.5960 C   0  0  0  0  0  0  0  0  0  0  0  0
   39.2970   32.9850   47.7470 C   0  0  0  0  0  0  0  0  0  0  0  0
   39.0960   32.8590   46.4010 N   0  0  0  0  0  0  0  0  0  0  0  0
   38.2100   32.0160   45.8860 C   0  0  0  0  0  0  0  0  0  0  0  0
   37.4770   31.2520   46.6970 N   0  0  0  0  0  0  0  0  0  0  0  0
   38.6020   32.2020   49.6570 H   0  0  0  0  0  0  0  0  0  0  0  0
   40.0100   33.6630   48.1860 H   0  0  0  0  0  0  0  0  0  0  0  0
   38.0250   31.9090   44.4350 C   0  0  0  0  0  0  0  0  0  0  0  0
   37.0100   32.3570   43.5870 C   0  0  0  0  0  0  0  0  0  0  0  0
   36.1700   32.8860   43.9840 H   0  0  0  0  0  0  0  0  0  0  0  0
   37.4370   31.9350   42.3350 C   0  0  0  0  0  0  0  0  0  0  0  0
   36.8180   32.1560   41.4600 H   0  0  0  0  0  0  0  0  0  0  0  0
   38.6570   31.2690   42.4800 C   0  0  0  0  0  0  0  0  0  0  0  0
   39.1650   30.8600   41.6300 H   0  0  0  0  0  0  0  0  0  0  0  0
   38.9670   31.2820   43.7700 O   0  0  0  0  0  0  0  0  0  0  0  0
   36.5460   29.6460   51.1120 C   0  0  0  0  0  0  0  0  0  0  0  0
   37.2680   30.3060   52.1180 F   0  0  0  0  0  0  0  0  0  0  0  0
   37.4490   28.7340   50.6210 F   0  0  0  0  0  0  0  0  0  0  0  0
   35.4900   29.0910   51.7310 F   0  0  0  0  0  0  0  0  0  0  0  0
  1  6  1  0  0  0  0
  2  3  1  0  0  0  0
  2  7  1  0  0  0  0
  2  1  1  0  0  0  0
  3  9  1  0  0  0  0
  3  4  1  0  0  0  0
  4  5  1  0  0  0  0
  4 11  1  0  0  0  0
  5  6  1  0  0  0  0
  5 14  1  0  0  0  0
  6 15  1  1  0  0  0
  6 32  1  0  0  0  0
  8  2  1  0  0  0  0
 10  3  1  0  0  0  0
 12  4  1  0  0  0  0
 13  5  1  0  0  0  0
 16 17  1  0  0  0  0
 16  1  1  0  0  0  0
 17 22  1  0  0  0  0
 18 23  1  0  0  0  0
 18 17  2  0  0  0  0
 19 18  1  0  0  0  0
 20 19  2  0  0  0  0
 20 21  1  0  0  0  0
 21 16  2  0  0  0  0
 24 20  1  0  0  0  0
 25 26  1  0  0  0  0
 25 24  2  0  0  0  0
 27 29  2  0  0  0  0
 27 25  1  0  0  0  0
 28 27  1  0  0  0  0
 29 31  1  0  0  0  0
 30 29  1  0  0  0  0
 31 24  1  0  0  0  0
 32 35  1  0  0  0  0
 32 33  1  0  0  0  0
 34 32  1  0  0  0  0
M  END
>  <minimizedAffinity>
-5.73431587

>  <minimizedRMSD>
6.66036367

$$$$
