
 OpenBabel03272500383D

 35 37  0  0  1  0  0  0  0  0999 V2000
   38.9620   23.2250   37.3470 C   0  0  0  0  0  0  0  0  0  0  0  0
   40.1750   22.5370   37.3970 C   0  0  0  0  0  0  0  0  0  0  0  0
   40.7740   22.1760   36.1960 C   0  0  0  0  0  0  0  0  0  0  0  0
   40.1290   22.5220   35.0430 N   0  0  0  0  0  0  0  0  0  0  0  0
   38.9630   23.1840   35.0230 C   0  0  0  0  0  0  0  0  0  0  0  0
   38.4070   23.5190   36.1850 N   0  0  0  0  0  0  0  0  0  0  0  0
   38.3800   23.4970   33.7710 N   0  0  0  0  0  0  0  0  0  0  0  0
   37.4360   22.5680   33.1810 C   0  0  0  0  0  0  0  0  0  0  0  0
   37.8700   22.4530   31.7090 C   0  0  0  0  0  0  0  0  0  0  0  0
   37.4610   23.7970   31.1290 C   0  0  0  0  0  0  0  0  0  0  0  0
   38.4040   24.8170   31.6850 C   0  0  0  0  0  0  0  0  0  0  0  0
   38.7320   24.7040   33.1220 C   0  0  1  0  0  0  0  0  0  0  0  0
   40.6720   22.2720   38.3260 H   0  0  0  0  0  0  0  0  0  0  0  0
   41.7180   21.6410   36.1830 H   0  0  0  0  0  0  0  0  0  0  0  0
   36.4280   22.9970   33.2450 H   0  0  0  0  0  0  0  0  0  0  0  0
   37.4470   21.5720   33.6740 H   0  0  0  0  0  0  0  0  0  0  0  0
   37.3970   21.6060   31.2040 H   0  0  0  0  0  0  0  0  0  0  0  0
   38.9710   22.3700   31.6510 H   0  0  0  0  0  0  0  0  0  0  0  0
   37.5470   23.7800   30.0240 H   0  0  0  0  0  0  0  0  0  0  0  0
   36.4120   23.9670   31.3810 H   0  0  0  0  0  0  0  0  0  0  0  0
   39.3130   24.7760   31.0090 H   0  0  0  0  0  0  0  0  0  0  0  0
   37.9690   25.8110   31.4790 H   0  0  0  0  0  0  0  0  0  0  0  0
   39.8680   24.7280   33.1760 H   0  0  0  0  0  0  0  0  0  0  0  0
   38.3110   25.8750   33.9300 C   0  0  0  0  0  0  0  0  0  0  0  0
   38.9960   26.7440   34.7530 C   0  0  0  0  0  0  0  0  0  0  0  0
   40.0560   26.6940   34.9490 H   0  0  0  0  0  0  0  0  0  0  0  0
   38.1560   27.6910   35.2990 C   0  0  0  0  0  0  0  0  0  0  0  0
   38.3890   28.4900   35.9680 H   0  0  0  0  0  0  0  0  0  0  0  0
   36.9350   27.3410   34.7580 C   0  0  0  0  0  0  0  0  0  0  0  0
   35.9740   27.8330   34.9260 H   0  0  0  0  0  0  0  0  0  0  0  0
   37.0710   26.3000   33.9850 O   0  0  0  0  0  0  0  0  0  0  0  0
   38.3060   23.6210   38.6400 C   0  0  0  0  0  0  0  0  0  0  0  0
   37.7350   24.8970   38.5000 F   0  0  0  0  0  0  0  0  0  0  0  0
   37.4160   22.6700   38.9840 F   0  0  0  0  0  0  0  0  0  0  0  0
   39.3060   23.7590   39.5890 F   0  0  0  0  0  0  0  0  0  0  0  0
  1  2  1  0  0  0  0
  1 32  1  0  0  0  0
  2 13  1  0  0  0  0
  3  2  2  0  0  0  0
  4  3  1  0  0  0  0
  5  4  2  0  0  0  0
  5  6  1  0  0  0  0
  6  1  2  0  0  0  0
  7  5  1  0  0  0  0
  8 15  1  0  0  0  0
  8 16  1  0  0  0  0
  8  7  1  0  0  0  0
  9  8  1  0  0  0  0
 10 20  1  0  0  0  0
 10 11  1  0  0  0  0
 10  9  1  0  0  0  0
 11 12  1  0  0  0  0
 12 23  1  1  0  0  0
 12  7  1  0  0  0  0
 12 24  1  0  0  0  0
 14  3  1  0  0  0  0
 17  9  1  0  0  0  0
 18  9  1  0  0  0  0
 19 10  1  0  0  0  0
 21 11  1  0  0  0  0
 22 11  1  0  0  0  0
 24 31  1  0  0  0  0
 24 25  2  0  0  0  0
 25 26  1  0  0  0  0
 25 27  1  0  0  0  0
 27 28  1  0  0  0  0
 29 30  1  0  0  0  0
 29 27  2  0  0  0  0
 31 29  1  0  0  0  0
 32 34  1  0  0  0  0
 32 35  1  0  0  0  0
 33 32  1  0  0  0  0
M  END
>  <minimizedAffinity>
-5.90047693

$$$$

 OpenBabel03272500383D

 35 37  0  0  1  0  0  0  0  0999 V2000
   38.5800   24.1490   35.2420 C   0  0  0  0  0  0  0  0  0  0  0  0
   39.8130   23.5210   35.4120 C   0  0  0  0  0  0  0  0  0  0  0  0
   39.9990   22.2710   34.8320 C   0  0  0  0  0  0  0  0  0  0  0  0
   38.9520   21.7420   34.1320 N   0  0  0  0  0  0  0  0  0  0  0  0
   37.7740   22.3680   33.9840 C   0  0  0  0  0  0  0  0  0  0  0  0
   37.6190   23.5630   34.5490 N   0  0  0  0  0  0  0  0  0  0  0  0
   36.7550   21.7310   33.2350 N   0  0  0  0  0  0  0  0  0  0  0  0
   35.7980   20.8870   33.9230 C   0  0  0  0  0  0  0  0  0  0  0  0
   35.7030   19.6190   33.0570 C   0  0  0  0  0  0  0  0  0  0  0  0
   34.9410   20.1010   31.8330 C   0  0  0  0  0  0  0  0  0  0  0  0
   35.8740   20.9760   31.0560 C   0  0  0  0  0  0  0  0  0  0  0  0
   36.6950   21.9270   31.8360 C   0  0  1  0  0  0  0  0  0  0  0  0
   40.6340   23.9600   35.9720 H   0  0  0  0  0  0  0  0  0  0  0  0
   40.9410   21.7440   34.9350 H   0  0  0  0  0  0  0  0  0  0  0  0
   34.8280   21.4000   33.9510 H   0  0  0  0  0  0  0  0  0  0  0  0
   36.1130   20.6340   34.9590 H   0  0  0  0  0  0  0  0  0  0  0  0
   35.2000   18.7990   33.5790 H   0  0  0  0  0  0  0  0  0  0  0  0
   36.7150   19.3090   32.7370 H   0  0  0  0  0  0  0  0  0  0  0  0
   34.6380   19.2400   31.2060 H   0  0  0  0  0  0  0  0  0  0  0  0
   34.0340   20.6020   32.1770 H   0  0  0  0  0  0  0  0  0  0  0  0
   36.4870   20.2630   30.4230 H   0  0  0  0  0  0  0  0  0  0  0  0
   35.2660   21.5270   30.3170 H   0  0  0  0  0  0  0  0  0  0  0  0
   37.7640   21.7620   31.4850 H   0  0  0  0  0  0  0  0  0  0  0  0
   36.4300   23.3520   31.5190 C   0  0  0  0  0  0  0  0  0  0  0  0
   35.2750   24.1050   31.4720 C   0  0  0  0  0  0  0  0  0  0  0  0
   34.2880   23.7250   31.6840 H   0  0  0  0  0  0  0  0  0  0  0  0
   35.5390   25.4120   31.1190 C   0  0  0  0  0  0  0  0  0  0  0  0
   34.8580   26.2260   31.0000 H   0  0  0  0  0  0  0  0  0  0  0  0
   36.9090   25.3980   30.9580 C   0  0  0  0  0  0  0  0  0  0  0  0
   37.5480   26.2380   30.6740 H   0  0  0  0  0  0  0  0  0  0  0  0
   37.3740   24.2030   31.1950 O   0  0  0  0  0  0  0  0  0  0  0  0
   38.3690   25.5010   35.8640 C   0  0  0  0  0  0  0  0  0  0  0  0
   38.1780   25.3520   37.2490 F   0  0  0  0  0  0  0  0  0  0  0  0
   39.4130   26.2910   35.5480 F   0  0  0  0  0  0  0  0  0  0  0  0
   37.1750   26.0040   35.3720 F   0  0  0  0  0  0  0  0  0  0  0  0
  1  2  1  0  0  0  0
  1 32  1  0  0  0  0
  2 13  1  0  0  0  0
  3 14  1  0  0  0  0
  3  2  2  0  0  0  0
  4  3  1  0  0  0  0
  5  4  2  0  0  0  0
  5  6  1  0  0  0  0
  6  1  2  0  0  0  0
  7  8  1  0  0  0  0
  7  5  1  0  0  0  0
  8 15  1  0  0  0  0
  8 16  1  0  0  0  0
  9 17  1  0  0  0  0
  9  8  1  0  0  0  0
 10 20  1  0  0  0  0
 10  9  1  0  0  0  0
 11 10  1  0  0  0  0
 11 12  1  0  0  0  0
 12 23  1  6  0  0  0
 12  7  1  0  0  0  0
 18  9  1  0  0  0  0
 19 10  1  0  0  0  0
 21 11  1  0  0  0  0
 22 11  1  0  0  0  0
 24 12  1  0  0  0  0
 25 24  2  0  0  0  0
 25 26  1  0  0  0  0
 27 25  1  0  0  0  0
 28 27  1  0  0  0  0
 29 27  2  0  0  0  0
 29 31  1  0  0  0  0
 30 29  1  0  0  0  0
 31 24  1  0  0  0  0
 32 33  1  0  0  0  0
 34 32  1  0  0  0  0
 35 32  1  0  0  0  0
M  END
>  <minimizedAffinity>
-5.60263157

$$$$

 OpenBabel03272500383D

 35 37  0  0  1  0  0  0  0  0999 V2000
   37.1530   21.3900   33.2440 C   0  0  0  0  0  0  0  0  0  0  0  0
   37.9720   20.6130   32.4240 C   0  0  0  0  0  0  0  0  0  0  0  0
   39.1600   21.1710   31.9660 C   0  0  0  0  0  0  0  0  0  0  0  0
   39.4440   22.4500   32.3530 N   0  0  0  0  0  0  0  0  0  0  0  0
   38.6380   23.1750   33.1430 C   0  0  0  0  0  0  0  0  0  0  0  0
   37.5050   22.6210   33.5690 N   0  0  0  0  0  0  0  0  0  0  0  0
   39.0290   24.4920   33.4870 N   0  0  0  0  0  0  0  0  0  0  0  0
   38.5920   25.5970   32.6560 C   0  0  0  0  0  0  0  0  0  0  0  0
   39.8540   26.4550   32.4540 C   0  0  0  0  0  0  0  0  0  0  0  0
   40.0540   27.0910   33.8200 C   0  0  0  0  0  0  0  0  0  0  0  0
   40.5210   26.0070   34.7410 C   0  0  0  0  0  0  0  0  0  0  0  0
   39.8390   24.7010   34.6280 C   0  0  1  0  0  0  0  0  0  0  0  0
   37.7270   19.5970   32.1280 H   0  0  0  0  0  0  0  0  0  0  0  0
   39.8300   20.6060   31.3270 H   0  0  0  0  0  0  0  0  0  0  0  0
   37.8290   26.1690   33.1980 H   0  0  0  0  0  0  0  0  0  0  0  0
   38.1820   25.2640   31.6780 H   0  0  0  0  0  0  0  0  0  0  0  0
   39.7300   27.1900   31.6530 H   0  0  0  0  0  0  0  0  0  0  0  0
   40.7200   25.8000   32.2450 H   0  0  0  0  0  0  0  0  0  0  0  0
   40.8250   27.8840   33.7650 H   0  0  0  0  0  0  0  0  0  0  0  0
   39.1120   27.5580   34.1150 H   0  0  0  0  0  0  0  0  0  0  0  0
   41.6410   25.9480   34.5790 H   0  0  0  0  0  0  0  0  0  0  0  0
   40.4250   26.3910   35.7720 H   0  0  0  0  0  0  0  0  0  0  0  0
   40.6710   23.9330   34.5250 H   0  0  0  0  0  0  0  0  0  0  0  0
   39.1210   24.2880   35.8600 C   0  0  0  0  0  0  0  0  0  0  0  0
   37.9840   24.7540   36.4860 C   0  0  0  0  0  0  0  0  0  0  0  0
   37.3830   25.5770   36.1310 H   0  0  0  0  0  0  0  0  0  0  0  0
   37.7070   24.0350   37.6290 C   0  0  0  0  0  0  0  0  0  0  0  0
   36.9010   24.1560   38.3210 H   0  0  0  0  0  0  0  0  0  0  0  0
   38.7360   23.1170   37.6520 C   0  0  0  0  0  0  0  0  0  0  0  0
   38.9100   22.3380   38.3990 H   0  0  0  0  0  0  0  0  0  0  0  0
   39.5190   23.2990   36.6250 O   0  0  0  0  0  0  0  0  0  0  0  0
   35.8670   20.7960   33.7450 C   0  0  0  0  0  0  0  0  0  0  0  0
   35.8190   19.4330   33.4040 F   0  0  0  0  0  0  0  0  0  0  0  0
   35.7730   21.0210   35.0700 F   0  0  0  0  0  0  0  0  0  0  0  0
   34.8310   21.3960   33.0460 F   0  0  0  0  0  0  0  0  0  0  0  0
  1  6  1  0  0  0  0
  1 32  1  0  0  0  0
  2  1  2  0  0  0  0
  3  4  2  0  0  0  0
  3  2  1  0  0  0  0
  4  5  1  0  0  0  0
  5  7  1  0  0  0  0
  5  6  2  0  0  0  0
  7 12  1  0  0  0  0
  8 15  1  0  0  0  0
  8  7  1  0  0  0  0
  9  8  1  0  0  0  0
  9 10  1  0  0  0  0
 10 20  1  0  0  0  0
 10 11  1  0  0  0  0
 11 22  1  0  0  0  0
 12 23  1  6  0  0  0
 12 11  1  0  0  0  0
 12 24  1  0  0  0  0
 13  2  1  0  0  0  0
 14  3  1  0  0  0  0
 16  8  1  0  0  0  0
 17  9  1  0  0  0  0
 18  9  1  0  0  0  0
 19 10  1  0  0  0  0
 21 11  1  0  0  0  0
 24 25  2  0  0  0  0
 24 31  1  0  0  0  0
 25 27  1  0  0  0  0
 26 25  1  0  0  0  0
 27 29  2  0  0  0  0
 27 28  1  0  0  0  0
 29 30  1  0  0  0  0
 31 29  1  0  0  0  0
 32 34  1  0  0  0  0
 33 32  1  0  0  0  0
 35 32  1  0  0  0  0
M  END
>  <minimizedAffinity>
-5.2596674

$$$$

 OpenBabel03272500383D

 35 37  0  0  1  0  0  0  0  0999 V2000
   38.6590   26.1520   34.0430 C   0  0  0  0  0  0  0  0  0  0  0  0
   38.6160   25.8610   32.6800 C   0  0  0  0  0  0  0  0  0  0  0  0
   39.4200   24.8310   32.2040 C   0  0  0  0  0  0  0  0  0  0  0  0
   40.2010   24.1720   33.1110 N   0  0  0  0  0  0  0  0  0  0  0  0
   40.2230   24.4740   34.4180 C   0  0  0  0  0  0  0  0  0  0  0  0
   39.4460   25.4640   34.8510 N   0  0  0  0  0  0  0  0  0  0  0  0
   41.0680   23.7260   35.2740 N   0  0  0  0  0  0  0  0  0  0  0  0
   42.4160   24.1980   35.5230 C   0  0  0  0  0  0  0  0  0  0  0  0
   43.3010   22.9480   35.3720 C   0  0  0  0  0  0  0  0  0  0  0  0
   42.9670   22.1450   36.6180 C   0  0  0  0  0  0  0  0  0  0  0  0
   41.5830   21.6070   36.4320 C   0  0  0  0  0  0  0  0  0  0  0  0
   40.5820   22.5350   35.8630 C   0  0  1  0  0  0  0  0  0  0  0  0
   37.9870   26.3970   31.9750 H   0  0  0  0  0  0  0  0  0  0  0  0
   39.4200   24.5660   31.1520 H   0  0  0  0  0  0  0  0  0  0  0  0
   42.4740   24.5810   36.5490 H   0  0  0  0  0  0  0  0  0  0  0  0
   42.7320   24.9930   34.8120 H   0  0  0  0  0  0  0  0  0  0  0  0
   44.3630   23.2010   35.2970 H   0  0  0  0  0  0  0  0  0  0  0  0
   42.9790   22.3690   34.4880 H   0  0  0  0  0  0  0  0  0  0  0  0
   43.6760   21.3010   36.7320 H   0  0  0  0  0  0  0  0  0  0  0  0
   43.0840   22.8000   37.4840 H   0  0  0  0  0  0  0  0  0  0  0  0
   41.7150   20.6580   35.8270 H   0  0  0  0  0  0  0  0  0  0  0  0
   41.2380   21.2440   37.4170 H   0  0  0  0  0  0  0  0  0  0  0  0
   40.1040   21.9710   34.9990 H   0  0  0  0  0  0  0  0  0  0  0  0
   39.4460   22.8270   36.7720 C   0  0  0  0  0  0  0  0  0  0  0  0
   39.3770   23.2390   38.0860 C   0  0  0  0  0  0  0  0  0  0  0  0
   40.2330   23.4320   38.7140 H   0  0  0  0  0  0  0  0  0  0  0  0
   38.0700   23.3760   38.5040 C   0  0  0  0  0  0  0  0  0  0  0  0
   37.6980   23.6780   39.4590 H   0  0  0  0  0  0  0  0  0  0  0  0
   37.3650   23.0250   37.3710 C   0  0  0  0  0  0  0  0  0  0  0  0
   36.2790   22.9930   37.2530 H   0  0  0  0  0  0  0  0  0  0  0  0
   38.1910   22.7190   36.4090 O   0  0  0  0  0  0  0  0  0  0  0  0
   37.7930   27.2630   34.5690 C   0  0  0  0  0  0  0  0  0  0  0  0
   38.4760   27.9380   35.5960 F   0  0  0  0  0  0  0  0  0  0  0  0
   37.4420   28.0610   33.5430 F   0  0  0  0  0  0  0  0  0  0  0  0
   36.6890   26.6800   35.1710 F   0  0  0  0  0  0  0  0  0  0  0  0
  1 32  1  0  0  0  0
  1  6  1  0  0  0  0
  2  1  2  0  0  0  0
  3  2  1  0  0  0  0
  3  4  2  0  0  0  0
  4  5  1  0  0  0  0
  5  6  2  0  0  0  0
  5  7  1  0  0  0  0
  7  8  1  0  0  0  0
  7 12  1  0  0  0  0
  8 15  1  0  0  0  0
  9  8  1  0  0  0  0
  9 10  1  0  0  0  0
 10 19  1  0  0  0  0
 10 20  1  0  0  0  0
 11 10  1  0  0  0  0
 11 22  1  0  0  0  0
 12 23  1  6  0  0  0
 12 11  1  0  0  0  0
 12 24  1  0  0  0  0
 13  2  1  0  0  0  0
 14  3  1  0  0  0  0
 16  8  1  0  0  0  0
 17  9  1  0  0  0  0
 18  9  1  0  0  0  0
 21 11  1  0  0  0  0
 24 25  2  0  0  0  0
 25 27  1  0  0  0  0
 25 26  1  0  0  0  0
 27 28  1  0  0  0  0
 29 27  2  0  0  0  0
 30 29  1  0  0  0  0
 31 24  1  0  0  0  0
 31 29  1  0  0  0  0
 32 35  1  0  0  0  0
 32 33  1  0  0  0  0
 34 32  1  0  0  0  0
M  END
>  <minimizedAffinity>
-5.23230076

$$$$

 OpenBabel03272500383D

 35 37  0  0  1  0  0  0  0  0999 V2000
   36.1170   21.0490   33.2150 C   0  0  0  0  0  0  0  0  0  0  0  0
   35.5040   20.6120   34.3890 C   0  0  0  0  0  0  0  0  0  0  0  0
   36.0790   20.9760   35.6020 C   0  0  0  0  0  0  0  0  0  0  0  0
   37.2100   21.7390   35.5580 N   0  0  0  0  0  0  0  0  0  0  0  0
   37.7790   22.1460   34.4130 C   0  0  0  0  0  0  0  0  0  0  0  0
   37.2130   21.7850   33.2640 N   0  0  0  0  0  0  0  0  0  0  0  0
   38.9510   22.9380   34.4800 N   0  0  0  0  0  0  0  0  0  0  0  0
   40.2450   22.2850   34.4570 C   0  0  0  0  0  0  0  0  0  0  0  0
   41.0460   22.9670   35.5810 C   0  0  0  0  0  0  0  0  0  0  0  0
   41.3290   24.3450   35.0070 C   0  0  0  0  0  0  0  0  0  0  0  0
   40.0330   25.0930   35.0090 C   0  0  0  0  0  0  0  0  0  0  0  0
   38.8350   24.3450   34.5720 C   0  0  1  0  0  0  0  0  0  0  0  0
   34.6040   20.0050   34.4020 H   0  0  0  0  0  0  0  0  0  0  0  0
   35.6390   20.6610   36.5430 H   0  0  0  0  0  0  0  0  0  0  0  0
   40.7210   22.4730   33.4870 H   0  0  0  0  0  0  0  0  0  0  0  0
   40.1780   21.1890   34.6310 H   0  0  0  0  0  0  0  0  0  0  0  0
   41.9550   22.4130   35.8350 H   0  0  0  0  0  0  0  0  0  0  0  0
   40.4060   23.0870   36.4740 H   0  0  0  0  0  0  0  0  0  0  0  0
   42.0630   24.8810   35.6390 H   0  0  0  0  0  0  0  0  0  0  0  0
   41.7730   24.2130   34.0170 H   0  0  0  0  0  0  0  0  0  0  0  0
   39.9430   25.5220   36.0540 H   0  0  0  0  0  0  0  0  0  0  0  0
   40.1690   25.9850   34.3700 H   0  0  0  0  0  0  0  0  0  0  0  0
   38.0620   24.5080   35.3900 H   0  0  0  0  0  0  0  0  0  0  0  0
   38.1900   24.8960   33.3550 C   0  0  0  0  0  0  0  0  0  0  0  0
   38.5550   24.9160   32.0250 C   0  0  0  0  0  0  0  0  0  0  0  0
   39.4620   24.4830   31.6330 H   0  0  0  0  0  0  0  0  0  0  0  0
   37.6120   25.5600   31.2520 C   0  0  0  0  0  0  0  0  0  0  0  0
   37.6120   25.7330   30.1980 H   0  0  0  0  0  0  0  0  0  0  0  0
   36.6670   25.9220   32.1900 C   0  0  0  0  0  0  0  0  0  0  0  0
   35.7340   26.4630   32.0120 H   0  0  0  0  0  0  0  0  0  0  0  0
   37.0390   25.5240   33.3750 O   0  0  0  0  0  0  0  0  0  0  0  0
   35.5040   20.6630   31.8980 C   0  0  0  0  0  0  0  0  0  0  0  0
   36.2970   19.6770   31.2860 F   0  0  0  0  0  0  0  0  0  0  0  0
   34.2310   20.2740   32.1090 F   0  0  0  0  0  0  0  0  0  0  0  0
   35.5730   21.7700   31.0660 F   0  0  0  0  0  0  0  0  0  0  0  0
  1  6  2  0  0  0  0
  1  2  1  0  0  0  0
  2 13  1  0  0  0  0
  2  3  2  0  0  0  0
  3 14  1  0  0  0  0
  4  3  1  0  0  0  0
  5  7  1  0  0  0  0
  5  4  2  0  0  0  0
  6  5  1  0  0  0  0
  7 12  1  0  0  0  0
  8  7  1  0  0  0  0
  8 16  1  0  0  0  0
  8  9  1  0  0  0  0
  9 17  1  0  0  0  0
  9 18  1  0  0  0  0
 10 11  1  0  0  0  0
 10  9  1  0  0  0  0
 10 19  1  0  0  0  0
 11 21  1  0  0  0  0
 12 11  1  0  0  0  0
 12 23  1  1  0  0  0
 15  8  1  0  0  0  0
 20 10  1  0  0  0  0
 22 11  1  0  0  0  0
 24 31  1  0  0  0  0
 24 12  1  0  0  0  0
 25 24  2  0  0  0  0
 26 25  1  0  0  0  0
 27 25  1  0  0  0  0
 27 29  2  0  0  0  0
 28 27  1  0  0  0  0
 29 31  1  0  0  0  0
 30 29  1  0  0  0  0
 32 34  1  0  0  0  0
 32  1  1  0  0  0  0
 33 32  1  0  0  0  0
 35 32  1  0  0  0  0
M  END
>  <minimizedAffinity>
-5.09929276

$$$$

 OpenBabel03272500383D

 35 37  0  0  1  0  0  0  0  0999 V2000
   40.0920   23.0330   36.9060 C   0  0  0  0  0  0  0  0  0  0  0  0
   39.2430   23.0500   38.0120 C   0  0  0  0  0  0  0  0  0  0  0  0
   38.0920   23.8270   37.9440 C   0  0  0  0  0  0  0  0  0  0  0  0
   37.8710   24.5230   36.7900 N   0  0  0  0  0  0  0  0  0  0  0  0
   38.7050   24.4890   35.7390 C   0  0  0  0  0  0  0  0  0  0  0  0
   39.8010   23.7400   35.8270 N   0  0  0  0  0  0  0  0  0  0  0  0
   38.3800   25.2470   34.5890 N   0  0  0  0  0  0  0  0  0  0  0  0
   38.8850   26.6010   34.4710 C   0  0  0  0  0  0  0  0  0  0  0  0
   37.6730   27.4310   34.0100 C   0  0  0  0  0  0  0  0  0  0  0  0
   37.4900   26.9900   32.5670 C   0  0  0  0  0  0  0  0  0  0  0  0
   36.9550   25.5930   32.6020 C   0  0  0  0  0  0  0  0  0  0  0  0
   37.5690   24.6720   33.5820 C   0  0  1  0  0  0  0  0  0  0  0  0
   39.4370   22.4880   38.9210 H   0  0  0  0  0  0  0  0  0  0  0  0
   37.4000   23.8720   38.7780 H   0  0  0  0  0  0  0  0  0  0  0  0
   39.6700   26.6230   33.7060 H   0  0  0  0  0  0  0  0  0  0  0  0
   39.2890   26.9950   35.4290 H   0  0  0  0  0  0  0  0  0  0  0  0
   37.8460   28.5060   34.1110 H   0  0  0  0  0  0  0  0  0  0  0  0
   36.7760   27.1290   34.5820 H   0  0  0  0  0  0  0  0  0  0  0  0
   36.7630   27.6490   32.0530 H   0  0  0  0  0  0  0  0  0  0  0  0
   38.4520   27.0920   32.0590 H   0  0  0  0  0  0  0  0  0  0  0  0
   35.8350   25.7100   32.7320 H   0  0  0  0  0  0  0  0  0  0  0  0
   37.0580   25.1770   31.5840 H   0  0  0  0  0  0  0  0  0  0  0  0
   36.6980   24.2140   34.1540 H   0  0  0  0  0  0  0  0  0  0  0  0
   38.2480   23.5040   32.9690 C   0  0  0  0  0  0  0  0  0  0  0  0
   39.3600   23.3810   32.1630 C   0  0  0  0  0  0  0  0  0  0  0  0
   39.9670   24.2070   31.8260 H   0  0  0  0  0  0  0  0  0  0  0  0
   39.6050   22.0630   31.8390 C   0  0  0  0  0  0  0  0  0  0  0  0
   40.3870   21.6530   31.2360 H   0  0  0  0  0  0  0  0  0  0  0  0
   38.5820   21.4080   32.4930 C   0  0  0  0  0  0  0  0  0  0  0  0
   38.3900   20.3330   32.5070 H   0  0  0  0  0  0  0  0  0  0  0  0
   37.8320   22.2700   33.1230 O   0  0  0  0  0  0  0  0  0  0  0  0
   41.3390   22.1960   36.9680 C   0  0  0  0  0  0  0  0  0  0  0  0
   42.4640   23.0380   36.9830 F   0  0  0  0  0  0  0  0  0  0  0  0
   41.2620   21.3840   38.0400 F   0  0  0  0  0  0  0  0  0  0  0  0
   41.4200   21.4810   35.7840 F   0  0  0  0  0  0  0  0  0  0  0  0
  1 32  1  0  0  0  0
  1  2  1  0  0  0  0
  2 13  1  0  0  0  0
  3  2  2  0  0  0  0
  3 14  1  0  0  0  0
  4  3  1  0  0  0  0
  5  6  1  0  0  0  0
  5  4  2  0  0  0  0
  6  1  2  0  0  0  0
  7  5  1  0  0  0  0
  8  7  1  0  0  0  0
  8 16  1  0  0  0  0
  9 17  1  0  0  0  0
  9  8  1  0  0  0  0
  9 18  1  0  0  0  0
 10 11  1  0  0  0  0
 10  9  1  0  0  0  0
 11 21  1  0  0  0  0
 11 12  1  0  0  0  0
 12 23  1  1  0  0  0
 12  7  1  0  0  0  0
 15  8  1  0  0  0  0
 19 10  1  0  0  0  0
 20 10  1  0  0  0  0
 22 11  1  0  0  0  0
 24 31  1  0  0  0  0
 24 12  1  0  0  0  0
 25 24  2  0  0  0  0
 26 25  1  0  0  0  0
 27 25  1  0  0  0  0
 27 29  2  0  0  0  0
 28 27  1  0  0  0  0
 29 30  1  0  0  0  0
 29 31  1  0  0  0  0
 32 33  1  0  0  0  0
 32 34  1  0  0  0  0
 35 32  1  0  0  0  0
M  END
>  <minimizedAffinity>
-5.04176617

$$$$

 OpenBabel03272500383D

 35 37  0  0  1  0  0  0  0  0999 V2000
   36.7920   22.1930   32.5170 C   0  0  0  0  0  0  0  0  0  0  0  0
   36.8310   22.5130   31.1600 C   0  0  0  0  0  0  0  0  0  0  0  0
   37.3190   23.7630   30.7950 C   0  0  0  0  0  0  0  0  0  0  0  0
   37.7270   24.5960   31.7970 N   0  0  0  0  0  0  0  0  0  0  0  0
   37.6790   24.2630   33.0960 C   0  0  0  0  0  0  0  0  0  0  0  0
   37.2080   23.0620   33.4230 N   0  0  0  0  0  0  0  0  0  0  0  0
   38.1310   25.2010   34.0550 N   0  0  0  0  0  0  0  0  0  0  0  0
   37.1800   26.1260   34.6390 C   0  0  0  0  0  0  0  0  0  0  0  0
   37.8840   27.4940   34.5900 C   0  0  0  0  0  0  0  0  0  0  0  0
   38.9570   27.3610   35.6570 C   0  0  0  0  0  0  0  0  0  0  0  0
   39.9930   26.4230   35.1200 C   0  0  0  0  0  0  0  0  0  0  0  0
   39.4980   25.2200   34.4190 C   0  0  1  0  0  0  0  0  0  0  0  0
   36.5010   21.8350   30.3780 H   0  0  0  0  0  0  0  0  0  0  0  0
   37.3690   24.0570   29.7520 H   0  0  0  0  0  0  0  0  0  0  0  0
   36.9940   25.8340   35.6810 H   0  0  0  0  0  0  0  0  0  0  0  0
   36.2160   26.1600   34.0860 H   0  0  0  0  0  0  0  0  0  0  0  0
   37.1930   28.3210   34.7770 H   0  0  0  0  0  0  0  0  0  0  0  0
   38.3810   27.6210   33.6110 H   0  0  0  0  0  0  0  0  0  0  0  0
   39.4230   28.3460   35.8590 H   0  0  0  0  0  0  0  0  0  0  0  0
   38.4770   27.0230   36.5780 H   0  0  0  0  0  0  0  0  0  0  0  0
   40.6730   27.0690   34.4850 H   0  0  0  0  0  0  0  0  0  0  0  0
   40.6340   26.1230   35.9690 H   0  0  0  0  0  0  0  0  0  0  0  0
   40.0510   25.1990   33.4260 H   0  0  0  0  0  0  0  0  0  0  0  0
   39.8830   23.9420   35.0690 C   0  0  0  0  0  0  0  0  0  0  0  0
   39.5260   23.3510   36.2630 C   0  0  0  0  0  0  0  0  0  0  0  0
   38.8380   23.7790   36.9760 H   0  0  0  0  0  0  0  0  0  0  0  0
   40.1600   22.1390   36.4360 C   0  0  0  0  0  0  0  0  0  0  0  0
   40.0880   21.4530   37.2520 H   0  0  0  0  0  0  0  0  0  0  0  0
   40.9120   22.0380   35.2840 C   0  0  0  0  0  0  0  0  0  0  0  0
   41.5790   21.2210   35.0010 H   0  0  0  0  0  0  0  0  0  0  0  0
   40.7230   23.0890   34.5340 O   0  0  0  0  0  0  0  0  0  0  0  0
   36.2680   20.8450   32.9240 C   0  0  0  0  0  0  0  0  0  0  0  0
   34.9370   20.7130   32.4920 F   0  0  0  0  0  0  0  0  0  0  0  0
   37.0880   19.8950   32.4340 F   0  0  0  0  0  0  0  0  0  0  0  0
   36.2180   20.8180   34.3090 F   0  0  0  0  0  0  0  0  0  0  0  0
  1 32  1  0  0  0  0
  1  6  1  0  0  0  0
  2  1  2  0  0  0  0
  3  2  1  0  0  0  0
  3  4  2  0  0  0  0
  4  5  1  0  0  0  0
  5  6  2  0  0  0  0
  5  7  1  0  0  0  0
  7 12  1  0  0  0  0
  7  8  1  0  0  0  0
  8 15  1  0  0  0  0
  9  8  1  0  0  0  0
  9 17  1  0  0  0  0
  9 10  1  0  0  0  0
 10 19  1  0  0  0  0
 10 20  1  0  0  0  0
 11 10  1  0  0  0  0
 11 22  1  0  0  0  0
 12 23  1  6  0  0  0
 12 24  1  0  0  0  0
 12 11  1  0  0  0  0
 13  2  1  0  0  0  0
 14  3  1  0  0  0  0
 16  8  1  0  0  0  0
 18  9  1  0  0  0  0
 21 11  1  0  0  0  0
 24 25  2  0  0  0  0
 25 27  1  0  0  0  0
 25 26  1  0  0  0  0
 27 28  1  0  0  0  0
 29 27  2  0  0  0  0
 30 29  1  0  0  0  0
 31 24  1  0  0  0  0
 31 29  1  0  0  0  0
 32 35  1  0  0  0  0
 33 32  1  0  0  0  0
 34 32  1  0  0  0  0
M  END
>  <minimizedAffinity>
-4.99043417

$$$$

 OpenBabel03272500383D

 35 37  0  0  1  0  0  0  0  0999 V2000
   38.5530   23.3980   36.7020 C   0  0  0  0  0  0  0  0  0  0  0  0
   37.6950   22.4760   36.1040 C   0  0  0  0  0  0  0  0  0  0  0  0
   37.7540   22.3240   34.7230 C   0  0  0  0  0  0  0  0  0  0  0  0
   38.6540   23.0950   34.0440 N   0  0  0  0  0  0  0  0  0  0  0  0
   39.4690   23.9750   34.6440 C   0  0  0  0  0  0  0  0  0  0  0  0
   39.3950   24.1040   35.9670 N   0  0  0  0  0  0  0  0  0  0  0  0
   40.3690   24.7230   33.8470 N   0  0  0  0  0  0  0  0  0  0  0  0
   39.9540   26.0170   33.3410 C   0  0  0  0  0  0  0  0  0  0  0  0
   40.3740   26.0090   31.8600 C   0  0  0  0  0  0  0  0  0  0  0  0
   41.8880   26.1230   31.9370 C   0  0  0  0  0  0  0  0  0  0  0  0
   42.3980   24.8100   32.4430 C   0  0  0  0  0  0  0  0  0  0  0  0
   41.6480   24.1920   33.5570 C   0  0  1  0  0  0  0  0  0  0  0  0
   36.9860   21.8720   36.6620 H   0  0  0  0  0  0  0  0  0  0  0  0
   37.1070   21.6190   34.2120 H   0  0  0  0  0  0  0  0  0  0  0  0
   40.4970   26.8010   33.8830 H   0  0  0  0  0  0  0  0  0  0  0  0
   38.8600   26.1880   33.4390 H   0  0  0  0  0  0  0  0  0  0  0  0
   39.9110   26.8240   31.2960 H   0  0  0  0  0  0  0  0  0  0  0  0
   40.1210   25.0340   31.4060 H   0  0  0  0  0  0  0  0  0  0  0  0
   42.3100   26.3170   30.9310 H   0  0  0  0  0  0  0  0  0  0  0  0
   42.1300   26.9770   32.5730 H   0  0  0  0  0  0  0  0  0  0  0  0
   42.4710   24.1490   31.5250 H   0  0  0  0  0  0  0  0  0  0  0  0
   43.4510   24.9610   32.7410 H   0  0  0  0  0  0  0  0  0  0  0  0
   41.4380   23.1250   33.2250 H   0  0  0  0  0  0  0  0  0  0  0  0
   42.4400   24.0300   34.8010 C   0  0  0  0  0  0  0  0  0  0  0  0
   43.1520   24.9160   35.5830 C   0  0  0  0  0  0  0  0  0  0  0  0
   43.2450   25.9720   35.3820 H   0  0  0  0  0  0  0  0  0  0  0  0
   43.7350   24.2820   36.6600 C   0  0  0  0  0  0  0  0  0  0  0  0
   44.3410   24.6970   37.4360 H   0  0  0  0  0  0  0  0  0  0  0  0
   43.3330   22.9750   36.4800 C   0  0  0  0  0  0  0  0  0  0  0  0
   43.5720   22.1180   37.1140 H   0  0  0  0  0  0  0  0  0  0  0  0
   42.5980   22.8780   35.4070 O   0  0  0  0  0  0  0  0  0  0  0  0
   38.4990   23.5680   38.1940 C   0  0  0  0  0  0  0  0  0  0  0  0
   37.4610   22.7770   38.7150 F   0  0  0  0  0  0  0  0  0  0  0  0
   39.7090   23.2740   38.7090 F   0  0  0  0  0  0  0  0  0  0  0  0
   38.1350   24.8810   38.4490 F   0  0  0  0  0  0  0  0  0  0  0  0
  1 32  1  0  0  0  0
  2 13  1  0  0  0  0
  2  1  1  0  0  0  0
  3  2  2  0  0  0  0
  4  5  2  0  0  0  0
  4  3  1  0  0  0  0
  5  6  1  0  0  0  0
  6  1  2  0  0  0  0
  7  5  1  0  0  0  0
  8 16  1  0  0  0  0
  8  7  1  0  0  0  0
  8 15  1  0  0  0  0
  9 10  1  0  0  0  0
  9  8  1  0  0  0  0
 10 11  1  0  0  0  0
 10 20  1  0  0  0  0
 11 22  1  0  0  0  0
 11 12  1  0  0  0  0
 12 23  1  6  0  0  0
 12  7  1  0  0  0  0
 12 24  1  0  0  0  0
 14  3  1  0  0  0  0
 17  9  1  0  0  0  0
 18  9  1  0  0  0  0
 19 10  1  0  0  0  0
 21 11  1  0  0  0  0
 24 31  1  0  0  0  0
 24 25  2  0  0  0  0
 25 27  1  0  0  0  0
 26 25  1  0  0  0  0
 27 28  1  0  0  0  0
 29 27  2  0  0  0  0
 29 30  1  0  0  0  0
 31 29  1  0  0  0  0
 32 35  1  0  0  0  0
 32 34  1  0  0  0  0
 32 33  1  0  0  0  0
M  END
>  <minimizedAffinity>
-4.97820377

$$$$

 OpenBabel03272500383D

 35 37  0  0  1  0  0  0  0  0999 V2000
   38.1140   23.3450   36.0430 C   0  0  0  0  0  0  0  0  0  0  0  0
   37.7390   22.0530   35.6720 C   0  0  0  0  0  0  0  0  0  0  0  0
   37.4520   21.8130   34.3330 C   0  0  0  0  0  0  0  0  0  0  0  0
   37.5570   22.8650   33.4690 N   0  0  0  0  0  0  0  0  0  0  0  0
   37.9200   24.0990   33.8530 C   0  0  0  0  0  0  0  0  0  0  0  0
   38.1890   24.3060   35.1390 N   0  0  0  0  0  0  0  0  0  0  0  0
   38.0010   25.1180   32.8740 N   0  0  0  0  0  0  0  0  0  0  0  0
   36.8370   25.9440   32.6180 C   0  0  0  0  0  0  0  0  0  0  0  0
   36.7310   26.0030   31.0830 C   0  0  0  0  0  0  0  0  0  0  0  0
   37.8970   26.8980   30.6980 C   0  0  0  0  0  0  0  0  0  0  0  0
   39.1470   26.1070   30.9230 C   0  0  0  0  0  0  0  0  0  0  0  0
   39.2110   25.3080   32.1650 C   0  0  1  0  0  0  0  0  0  0  0  0
   37.6620   21.2300   36.3760 H   0  0  0  0  0  0  0  0  0  0  0  0
   37.1570   20.8250   33.9960 H   0  0  0  0  0  0  0  0  0  0  0  0
   37.0170   26.9480   33.0230 H   0  0  0  0  0  0  0  0  0  0  0  0
   35.9070   25.5260   33.0610 H   0  0  0  0  0  0  0  0  0  0  0  0
   35.7640   26.3920   30.7520 H   0  0  0  0  0  0  0  0  0  0  0  0
   36.9090   24.9980   30.6590 H   0  0  0  0  0  0  0  0  0  0  0  0
   37.8280   27.1790   29.6280 H   0  0  0  0  0  0  0  0  0  0  0  0
   37.8300   27.8140   31.2900 H   0  0  0  0  0  0  0  0  0  0  0  0
   39.2790   25.4910   29.9820 H   0  0  0  0  0  0  0  0  0  0  0  0
   39.9940   26.8170   30.8930 H   0  0  0  0  0  0  0  0  0  0  0  0
   39.5080   24.2600   31.8360 H   0  0  0  0  0  0  0  0  0  0  0  0
   40.2990   25.7140   33.0890 C   0  0  0  0  0  0  0  0  0  0  0  0
   40.6020   26.9040   33.7170 C   0  0  0  0  0  0  0  0  0  0  0  0
   40.0280   27.8130   33.6180 H   0  0  0  0  0  0  0  0  0  0  0  0
   41.7370   26.7910   34.4920 C   0  0  0  0  0  0  0  0  0  0  0  0
   42.2180   27.5330   35.0920 H   0  0  0  0  0  0  0  0  0  0  0  0
   42.0940   25.4730   34.2940 C   0  0  0  0  0  0  0  0  0  0  0  0
   42.9490   24.9490   34.7260 H   0  0  0  0  0  0  0  0  0  0  0  0
   41.2460   24.8980   33.4860 O   0  0  0  0  0  0  0  0  0  0  0  0
   38.4270   23.6160   37.4880 C   0  0  0  0  0  0  0  0  0  0  0  0
   37.4940   22.9480   38.3000 F   0  0  0  0  0  0  0  0  0  0  0  0
   39.7030   23.2560   37.7290 F   0  0  0  0  0  0  0  0  0  0  0  0
   38.2210   24.9680   37.7120 F   0  0  0  0  0  0  0  0  0  0  0  0
  1 32  1  0  0  0  0
  2  1  1  0  0  0  0
  2 13  1  0  0  0  0
  3  2  2  0  0  0  0
  4  5  2  0  0  0  0
  4  3  1  0  0  0  0
  5  6  1  0  0  0  0
  6  1  2  0  0  0  0
  7  5  1  0  0  0  0
  8  7  1  0  0  0  0
  8 15  1  0  0  0  0
  8 16  1  0  0  0  0
  9  8  1  0  0  0  0
 10 11  1  0  0  0  0
 10  9  1  0  0  0  0
 10 20  1  0  0  0  0
 11 12  1  0  0  0  0
 12 23  1  6  0  0  0
 12  7  1  0  0  0  0
 12 24  1  0  0  0  0
 14  3  1  0  0  0  0
 17  9  1  0  0  0  0
 18  9  1  0  0  0  0
 19 10  1  0  0  0  0
 21 11  1  0  0  0  0
 22 11  1  0  0  0  0
 24 31  1  0  0  0  0
 24 25  2  0  0  0  0
 25 27  1  0  0  0  0
 26 25  1  0  0  0  0
 27 28  1  0  0  0  0
 29 27  2  0  0  0  0
 29 30  1  0  0  0  0
 31 29  1  0  0  0  0
 32 35  1  0  0  0  0
 32 34  1  0  0  0  0
 32 33  1  0  0  0  0
M  END
>  <minimizedAffinity>
-4.97400665

$$$$
