
 OpenBabel03272504123D

 20 21  0  0  0  0  0  0  0  0999 V2000
   36.6800   29.8620   49.6150 C   0  0  0  0  0  0  0  0  0  0  0  0
   37.7530   30.4660   48.9570 C   0  0  0  0  0  0  0  0  0  0  0  0
   37.5810   30.8230   47.6100 C   0  0  0  0  0  0  0  0  0  0  0  0
   36.3800   30.5580   47.0290 N   0  0  0  0  0  0  0  0  0  0  0  0
   35.3660   29.9700   47.7060 C   0  0  0  0  0  0  0  0  0  0  0  0
   35.5330   29.6300   48.9900 N   0  0  0  0  0  0  0  0  0  0  0  0
   38.6590   30.6350   49.4880 H   0  0  0  0  0  0  0  0  0  0  0  0
   34.4680   29.8150   47.1350 H   0  0  0  0  0  0  0  0  0  0  0  0
   38.6610   31.4510   46.8860 C   0  0  0  0  0  0  0  0  0  0  0  0
   39.4530   30.8060   45.9600 C   0  0  0  0  0  0  0  0  0  0  0  0
   39.3990   29.7760   45.6410 H   0  0  0  0  0  0  0  0  0  0  0  0
   40.3470   31.7890   45.5260 C   0  0  0  0  0  0  0  0  0  0  0  0
   41.0970   31.5550   44.7840 H   0  0  0  0  0  0  0  0  0  0  0  0
   40.0370   32.9630   46.2160 C   0  0  0  0  0  0  0  0  0  0  0  0
   40.5980   33.8960   46.0560 H   0  0  0  0  0  0  0  0  0  0  0  0
   39.0240   32.6890   47.0080 O   0  0  0  0  0  0  0  0  0  0  0  0
   36.8560   29.4800   51.0450 C   0  0  0  0  0  0  0  0  0  0  0  0
   35.6290   29.1300   51.5960 F   0  0  0  0  0  0  0  0  0  0  0  0
   37.7950   28.4990   51.1280 F   0  0  0  0  0  0  0  0  0  0  0  0
   37.2890   30.6240   51.7280 F   0  0  0  0  0  0  0  0  0  0  0  0
  1 17  1  0  0  0  0
  2  7  1  0  0  0  0
  2  1  2  0  0  0  0
  3  2  1  0  0  0  0
  4  3  2  0  0  0  0
  4  5  1  0  0  0  0
  5  6  2  0  0  0  0
  6  1  1  0  0  0  0
  8  5  1  0  0  0  0
  9 16  1  0  0  0  0
  9  3  1  0  0  0  0
 10  9  2  0  0  0  0
 11 10  1  0  0  0  0
 12 10  1  0  0  0  0
 12 14  2  0  0  0  0
 13 12  1  0  0  0  0
 14 16  1  0  0  0  0
 15 14  1  0  0  0  0
 17 19  1  0  0  0  0
 17 18  1  0  0  0  0
 17 20  1  0  0  0  0
M  END
>  <minimizedAffinity>
-5.56319046

>  <minimizedRMSD>
2.26078796

$$$$
