
 OpenBabel03272510213D

 35 38  0  0  0  0  0  0  0  0999 V2000
   37.4170   29.1610   50.8070 Br  0  0  0  0  0  0  0  0  0  0  0  0
   36.0030   29.2730   49.5190 C   0  0  0  0  0  0  0  0  0  0  0  0
   36.0040   30.2740   48.5600 C   0  0  0  0  0  0  0  0  0  0  0  0
   34.9560   30.3030   47.6590 C   0  0  0  0  0  0  0  0  0  0  0  0
   33.9230   29.3690   47.6940 C   0  0  0  0  0  0  0  0  0  0  0  0
   33.9530   28.4010   48.6470 C   0  0  0  0  0  0  0  0  0  0  0  0
   34.9930   28.3620   49.5530 C   0  0  0  0  0  0  0  0  0  0  0  0
   34.8900   31.0520   46.8850 H   0  0  0  0  0  0  0  0  0  0  0  0
   33.1670   27.6820   48.6820 H   0  0  0  0  0  0  0  0  0  0  0  0
   34.9620   27.5690   50.2880 H   0  0  0  0  0  0  0  0  0  0  0  0
   38.0140   33.1840   49.4680 C   0  0  0  0  0  0  0  0  0  0  0  0
   39.0410   33.1870   48.4890 C   0  0  0  0  0  0  0  0  0  0  0  0
   39.0320   32.1830   47.5240 C   0  0  0  0  0  0  0  0  0  0  0  0
   38.0350   31.2380   47.5580 N   0  0  0  0  0  0  0  0  0  0  0  0
   37.0740   31.2640   48.5010 C   0  0  0  0  0  0  0  0  0  0  0  0
   37.0690   32.2400   49.4530 N   0  0  0  0  0  0  0  0  0  0  0  0
   38.0640   33.9790   50.1940 H   0  0  0  0  0  0  0  0  0  0  0  0
   39.8000   33.9470   48.5040 H   0  0  0  0  0  0  0  0  0  0  0  0
   39.7830   32.1400   46.7640 H   0  0  0  0  0  0  0  0  0  0  0  0
   32.8130   29.3980   46.7410 C   0  0  0  0  0  0  0  0  0  0  0  0
   32.0410   28.3010   46.4070 C   0  0  0  0  0  0  0  0  0  0  0  0
   30.9990   28.3850   45.4950 C   0  0  0  0  0  0  0  0  0  0  0  0
   30.7140   29.5440   44.9130 N   0  0  0  0  0  0  0  0  0  0  0  0
   31.4580   30.6210   45.2300 C   0  0  0  0  0  0  0  0  0  0  0  0
   32.4630   30.5390   46.1090 N   0  0  0  0  0  0  0  0  0  0  0  0
   32.2810   27.3590   46.8860 H   0  0  0  0  0  0  0  0  0  0  0  0
   30.4290   27.4910   45.2730 H   0  0  0  0  0  0  0  0  0  0  0  0
   31.2780   31.9660   44.6830 C   0  0  0  0  0  0  0  0  0  0  0  0
   30.4710   32.1460   43.5530 C   0  0  0  0  0  0  0  0  0  0  0  0
   29.9260   31.4060   42.9850 H   0  0  0  0  0  0  0  0  0  0  0  0
   30.4710   33.5070   43.2450 C   0  0  0  0  0  0  0  0  0  0  0  0
   29.9250   33.9330   42.4120 H   0  0  0  0  0  0  0  0  0  0  0  0
   31.2940   34.0720   44.2270 C   0  0  0  0  0  0  0  0  0  0  0  0
   31.4990   35.1340   44.2620 H   0  0  0  0  0  0  0  0  0  0  0  0
   31.7310   33.1500   45.0250 O   0  0  0  0  0  0  0  0  0  0  0  0
  2  7  1  0  0  0  0
  2  1  1  0  0  0  0
  3  2  2  0  0  0  0
  4  5  2  0  0  0  0
  4  3  1  0  0  0  0
  5  6  1  0  0  0  0
  6  9  1  0  0  0  0
  6  7  2  0  0  0  0
  7 10  1  0  0  0  0
  8  4  1  0  0  0  0
 11 17  1  0  0  0  0
 12 18  1  0  0  0  0
 12 11  2  0  0  0  0
 13 14  2  0  0  0  0
 13 12  1  0  0  0  0
 14 15  1  0  0  0  0
 15  3  1  0  0  0  0
 15 16  2  0  0  0  0
 16 11  1  0  0  0  0
 19 13  1  0  0  0  0
 20  5  1  0  0  0  0
 21 20  1  0  0  0  0
 21 26  1  0  0  0  0
 22 21  2  0  0  0  0
 23 24  2  0  0  0  0
 23 22  1  0  0  0  0
 24 25  1  0  0  0  0
 25 20  2  0  0  0  0
 27 22  1  0  0  0  0
 28 35  1  0  0  0  0
 28 24  1  0  0  0  0
 29 28  2  0  0  0  0
 30 29  1  0  0  0  0
 31 29  1  0  0  0  0
 31 33  2  0  0  0  0
 32 31  1  0  0  0  0
 33 34  1  0  0  0  0
 33 35  1  0  0  0  0
M  END
>  <minimizedAffinity>
-6.48567915

>  <minimizedRMSD>
0.281827092

$$$$
