
 OpenBabel03272510203D

 35 38  0  0  0  0  0  0  0  0999 V2000
   37.4620   29.1490   50.8220 Br  0  0  0  0  0  0  0  0  0  0  0  0
   36.0400   29.2900   49.5450 C   0  0  0  0  0  0  0  0  0  0  0  0
   36.0320   30.3170   48.6140 C   0  0  0  0  0  0  0  0  0  0  0  0
   34.9790   30.3670   47.7200 C   0  0  0  0  0  0  0  0  0  0  0  0
   33.9500   29.4280   47.7350 C   0  0  0  0  0  0  0  0  0  0  0  0
   33.9890   28.4350   48.6610 C   0  0  0  0  0  0  0  0  0  0  0  0
   35.0340   28.3750   49.5600 C   0  0  0  0  0  0  0  0  0  0  0  0
   34.9050   31.1360   46.9670 H   0  0  0  0  0  0  0  0  0  0  0  0
   33.2060   27.7110   48.6810 H   0  0  0  0  0  0  0  0  0  0  0  0
   35.0110   27.5620   50.2730 H   0  0  0  0  0  0  0  0  0  0  0  0
   38.0070   33.2400   49.5590 C   0  0  0  0  0  0  0  0  0  0  0  0
   39.0540   33.2460   48.6030 C   0  0  0  0  0  0  0  0  0  0  0  0
   39.0720   32.2410   47.6390 C   0  0  0  0  0  0  0  0  0  0  0  0
   38.0780   31.2910   47.6540 N   0  0  0  0  0  0  0  0  0  0  0  0
   37.0970   31.3130   48.5760 C   0  0  0  0  0  0  0  0  0  0  0  0
   37.0670   32.2910   49.5260 N   0  0  0  0  0  0  0  0  0  0  0  0
   38.0370   34.0360   50.2850 H   0  0  0  0  0  0  0  0  0  0  0  0
   39.8080   34.0110   48.6330 H   0  0  0  0  0  0  0  0  0  0  0  0
   39.8380   32.2000   46.8960 H   0  0  0  0  0  0  0  0  0  0  0  0
   32.8340   29.4780   46.7890 C   0  0  0  0  0  0  0  0  0  0  0  0
   31.9640   28.4310   46.5520 C   0  0  0  0  0  0  0  0  0  0  0  0
   30.9210   28.5330   45.6420 C   0  0  0  0  0  0  0  0  0  0  0  0
   30.7330   29.6620   44.9670 N   0  0  0  0  0  0  0  0  0  0  0  0
   31.5730   30.6890   45.1900 C   0  0  0  0  0  0  0  0  0  0  0  0
   32.5790   30.5900   46.0670 N   0  0  0  0  0  0  0  0  0  0  0  0
   32.1240   27.5140   47.1070 H   0  0  0  0  0  0  0  0  0  0  0  0
   30.2710   27.6790   45.4980 H   0  0  0  0  0  0  0  0  0  0  0  0
   31.5070   31.9960   44.5350 C   0  0  0  0  0  0  0  0  0  0  0  0
   32.4540   32.3230   43.5560 C   0  0  0  0  0  0  0  0  0  0  0  0
   33.2770   31.7280   43.1850 H   0  0  0  0  0  0  0  0  0  0  0  0
   32.1650   33.6090   43.1000 C   0  0  0  0  0  0  0  0  0  0  0  0
   32.7420   34.1170   42.3360 H   0  0  0  0  0  0  0  0  0  0  0  0
   31.0410   33.9840   43.8450 C   0  0  0  0  0  0  0  0  0  0  0  0
   30.5660   34.9480   43.7200 H   0  0  0  0  0  0  0  0  0  0  0  0
   30.7040   33.0270   44.6510 O   0  0  0  0  0  0  0  0  0  0  0  0
  2  7  1  0  0  0  0
  2  1  1  0  0  0  0
  3  2  2  0  0  0  0
  4  5  2  0  0  0  0
  4  3  1  0  0  0  0
  5  6  1  0  0  0  0
  6  9  1  0  0  0  0
  6  7  2  0  0  0  0
  7 10  1  0  0  0  0
  8  4  1  0  0  0  0
 11 17  1  0  0  0  0
 12 18  1  0  0  0  0
 12 11  2  0  0  0  0
 13 14  2  0  0  0  0
 13 12  1  0  0  0  0
 14 15  1  0  0  0  0
 15  3  1  0  0  0  0
 15 16  2  0  0  0  0
 16 11  1  0  0  0  0
 19 13  1  0  0  0  0
 20  5  1  0  0  0  0
 21 20  1  0  0  0  0
 21 26  1  0  0  0  0
 22 21  2  0  0  0  0
 23 24  2  0  0  0  0
 23 22  1  0  0  0  0
 24 25  1  0  0  0  0
 25 20  2  0  0  0  0
 27 22  1  0  0  0  0
 28 35  1  0  0  0  0
 28 24  1  0  0  0  0
 29 28  2  0  0  0  0
 30 29  1  0  0  0  0
 31 29  1  0  0  0  0
 31 33  2  0  0  0  0
 32 31  1  0  0  0  0
 33 35  1  0  0  0  0
 34 33  1  0  0  0  0
M  END
>  <minimizedAffinity>
-6.37740898

>  <minimizedRMSD>
0.410489172

$$$$
