
 OpenBabel03262520133D

 41 43  0  0  0  0  0  0  0  0999 V2000
   35.2800   30.4580   49.4150 C   0  0  0  0  0  0  0  0  0  0  0  0
   36.1220   30.2330   50.1310 H   0  0  0  0  0  0  0  0  0  0  0  0
   34.9390   31.4730   49.7060 H   0  0  0  0  0  0  0  0  0  0  0  0
   38.1880   31.6070   48.9700 Br  0  0  0  0  0  0  0  0  0  0  0  0
   36.9700   30.9690   47.6310 C   0  0  0  0  0  0  0  0  0  0  0  0
   37.3270   30.9790   46.3050 C   0  0  0  0  0  0  0  0  0  0  0  0
   36.4190   30.5180   45.3910 C   0  0  0  0  0  0  0  0  0  0  0  0
   35.1660   30.0490   45.7600 C   0  0  0  0  0  0  0  0  0  0  0  0
   34.8370   30.0550   47.1190 C   0  0  0  0  0  0  0  0  0  0  0  0
   35.7440   30.5140   48.0340 C   0  0  0  0  0  0  0  0  0  0  0  0
   36.7540   30.5480   44.3420 H   0  0  0  0  0  0  0  0  0  0  0  0
   34.5730   29.7250   44.9200 H   0  0  0  0  0  0  0  0  0  0  0  0
   33.8470   29.6780   47.1850 H   0  0  0  0  0  0  0  0  0  0  0  0
   39.8900   33.2630   45.0650 C   0  0  0  0  0  0  0  0  0  0  0  0
   41.0720   32.4600   45.0420 C   0  0  0  0  0  0  0  0  0  0  0  0
   40.9460   31.1580   45.4540 C   0  0  0  0  0  0  0  0  0  0  0  0
   39.7230   30.6740   45.8670 N   0  0  0  0  0  0  0  0  0  0  0  0
   38.6390   31.4720   45.8710 C   0  0  0  0  0  0  0  0  0  0  0  0
   38.7350   32.7490   45.4710 N   0  0  0  0  0  0  0  0  0  0  0  0
   39.9270   34.2980   44.7500 H   0  0  0  0  0  0  0  0  0  0  0  0
   41.9970   32.8880   44.7100 H   0  0  0  0  0  0  0  0  0  0  0  0
   41.8030   30.5110   45.4560 H   0  0  0  0  0  0  0  0  0  0  0  0
   34.1860   29.5000   49.7260 C   0  0  0  0  0  0  0  0  0  0  0  0
   34.0510   29.6180   50.8590 H   0  0  0  0  0  0  0  0  0  0  0  0
   33.2310   29.7890   49.3370 H   0  0  0  0  0  0  0  0  0  0  0  0
   34.6720   28.1780   49.5730 N   0  0  0  0  0  0  0  0  0  0  0  0
   35.0630   27.7460   50.4310 H   0  0  0  0  0  0  0  0  0  0  0  0
   33.9480   27.3080   48.7270 C   0  0  0  0  0  0  0  0  0  0  0  0
   34.3250   27.3080   47.6830 H   0  0  0  0  0  0  0  0  0  0  0  0
   33.9910   26.2810   49.1450 H   0  0  0  0  0  0  0  0  0  0  0  0
   32.5260   27.7630   48.6720 C   0  0  0  0  0  0  0  0  0  0  0  0
   31.9900   27.6260   49.6410 H   0  0  0  0  0  0  0  0  0  0  0  0
   32.2790   28.6680   48.1520 H   0  0  0  0  0  0  0  0  0  0  0  0
   31.8470   26.6970   47.7980 C   0  0  0  0  0  0  0  0  0  0  0  0
   32.3600   25.4480   47.5140 C   0  0  0  0  0  0  0  0  0  0  0  0
   33.2940   25.0580   47.8640 H   0  0  0  0  0  0  0  0  0  0  0  0
   31.4580   24.7910   46.7020 C   0  0  0  0  0  0  0  0  0  0  0  0
   31.5900   23.7880   46.3150 H   0  0  0  0  0  0  0  0  0  0  0  0
   30.4200   25.7000   46.5300 C   0  0  0  0  0  0  0  0  0  0  0  0
   29.5500   25.4750   45.9340 H   0  0  0  0  0  0  0  0  0  0  0  0
   30.6880   26.8100   47.1920 O   0  0  0  0  0  0  0  0  0  0  0  0
  1  3  1  0  0  0  0
  1 23  1  0  0  0  0
  1  2  1  0  0  0  0
  5 10  1  0  0  0  0
  5  4  1  0  0  0  0
  6  5  2  0  0  0  0
  7  8  2  0  0  0  0
  7  6  1  0  0  0  0
  8  9  1  0  0  0  0
  9 13  1  0  0  0  0
  9 10  2  0  0  0  0
 10  1  1  0  0  0  0
 11  7  1  0  0  0  0
 12  8  1  0  0  0  0
 14 19  1  0  0  0  0
 15 14  2  0  0  0  0
 15 16  1  0  0  0  0
 16 22  1  0  0  0  0
 16 17  2  0  0  0  0
 17 18  1  0  0  0  0
 18  6  1  0  0  0  0
 19 18  2  0  0  0  0
 20 14  1  0  0  0  0
 21 15  1  0  0  0  0
 23 24  1  0  0  0  0
 25 23  1  0  0  0  0
 26 23  1  0  0  0  0
 26 27  1  0  0  0  0
 28 30  1  0  0  0  0
 28 26  1  0  0  0  0
 29 28  1  0  0  0  0
 31 28  1  0  0  0  0
 31 32  1  0  0  0  0
 33 31  1  0  0  0  0
 34 31  1  0  0  0  0
 35 34  2  0  0  0  0
 35 36  1  0  0  0  0
 37 35  1  0  0  0  0
 38 37  1  0  0  0  0
 39 37  2  0  0  0  0
 39 41  1  0  0  0  0
 40 39  1  0  0  0  0
 41 34  1  0  0  0  0
M  END
>  <minimizedAffinity>
-5.13929415

>  <minimizedRMSD>
0.299622804

$$$$
