
 OpenBabel03262521383D

 27 29  0  0  0  0  0  0  0  0999 V2000
   37.8100   23.5460   33.4900 F   0  0  0  0  0  0  0  0  0  0  0  0
   37.0270   24.3090   32.6770 C   0  0  0  0  0  0  0  0  0  0  0  0
   36.1980   23.7740   31.7130 C   0  0  0  0  0  0  0  0  0  0  0  0
   35.4200   24.6030   30.9100 C   0  0  0  0  0  0  0  0  0  0  0  0
   35.4730   25.9880   31.0730 C   0  0  0  0  0  0  0  0  0  0  0  0
   36.3200   26.4790   32.0520 C   0  0  0  0  0  0  0  0  0  0  0  0
   37.0910   25.6910   32.8510 C   0  0  0  0  0  0  0  0  0  0  0  0
   34.7920   24.1020   30.1750 H   0  0  0  0  0  0  0  0  0  0  0  0
   34.8580   26.5980   30.4340 H   0  0  0  0  0  0  0  0  0  0  0  0
   36.3820   27.5500   32.2000 H   0  0  0  0  0  0  0  0  0  0  0  0
   35.1300   21.7080   32.2320 C   0  0  0  0  0  0  0  0  0  0  0  0
   36.1990   22.3420   31.6110 C   0  0  0  0  0  0  0  0  0  0  0  0
   37.1450   21.5310   30.9670 C   0  0  0  0  0  0  0  0  0  0  0  0
   36.9620   20.1760   30.9860 N   0  0  0  0  0  0  0  0  0  0  0  0
   35.9120   19.6150   31.6000 C   0  0  0  0  0  0  0  0  0  0  0  0
   35.0010   20.3650   32.2180 N   0  0  0  0  0  0  0  0  0  0  0  0
   34.3470   22.2430   32.7550 H   0  0  0  0  0  0  0  0  0  0  0  0
   37.9490   22.0640   30.5050 H   0  0  0  0  0  0  0  0  0  0  0  0
   35.8200   18.5380   31.5810 H   0  0  0  0  0  0  0  0  0  0  0  0
   37.9720   26.2550   33.8720 C   0  0  0  0  0  0  0  0  0  0  0  0
   37.5420   26.8360   35.0410 C   0  0  0  0  0  0  0  0  0  0  0  0
   36.5140   26.9420   35.3400 H   0  0  0  0  0  0  0  0  0  0  0  0
   38.7010   27.2220   35.6900 C   0  0  0  0  0  0  0  0  0  0  0  0
   38.7370   27.7210   36.6600 H   0  0  0  0  0  0  0  0  0  0  0  0
   39.7720   26.8640   34.8970 C   0  0  0  0  0  0  0  0  0  0  0  0
   40.8300   27.0170   35.1020 H   0  0  0  0  0  0  0  0  0  0  0  0
   39.2840   26.2830   33.8090 O   0  0  0  0  0  0  0  0  0  0  0  0
  2  7  1  0  0  0  0
  2  1  1  0  0  0  0
  3  2  2  0  0  0  0
  4  5  2  0  0  0  0
  4  3  1  0  0  0  0
  5  6  1  0  0  0  0
  6 10  1  0  0  0  0
  6  7  2  0  0  0  0
  7 20  1  0  0  0  0
  8  4  1  0  0  0  0
  9  5  1  0  0  0  0
 11 17  1  0  0  0  0
 12  3  1  0  0  0  0
 12 11  2  0  0  0  0
 13 14  2  0  0  0  0
 13 12  1  0  0  0  0
 14 15  1  0  0  0  0
 15 16  2  0  0  0  0
 16 11  1  0  0  0  0
 18 13  1  0  0  0  0
 19 15  1  0  0  0  0
 20 21  2  0  0  0  0
 21 22  1  0  0  0  0
 21 23  1  0  0  0  0
 23 24  1  0  0  0  0
 25 26  1  0  0  0  0
 25 23  2  0  0  0  0
 27 20  1  0  0  0  0
 27 25  1  0  0  0  0
M  END
>  <minimizedAffinity>
-4.98796225

$$$$

 OpenBabel03262521383D

 27 29  0  0  0  0  0  0  0  0999 V2000
   35.5260   28.3720   34.5210 F   0  0  0  0  0  0  0  0  0  0  0  0
   35.7800   29.1440   33.4280 C   0  0  0  0  0  0  0  0  0  0  0  0
   36.2280   28.6260   32.2290 C   0  0  0  0  0  0  0  0  0  0  0  0
   36.4710   29.4630   31.1440 C   0  0  0  0  0  0  0  0  0  0  0  0
   36.2630   30.8390   31.2590 C   0  0  0  0  0  0  0  0  0  0  0  0
   35.8140   31.3110   32.4800 C   0  0  0  0  0  0  0  0  0  0  0  0
   35.5680   30.5160   33.5570 C   0  0  0  0  0  0  0  0  0  0  0  0
   36.8210   28.9760   30.2360 H   0  0  0  0  0  0  0  0  0  0  0  0
   36.4620   31.4550   30.3990 H   0  0  0  0  0  0  0  0  0  0  0  0
   35.6440   32.3750   32.5980 H   0  0  0  0  0  0  0  0  0  0  0  0
   35.5240   26.5150   31.3790 C   0  0  0  0  0  0  0  0  0  0  0  0
   36.4140   27.2030   32.1930 C   0  0  0  0  0  0  0  0  0  0  0  0
   37.3770   26.4480   32.8790 C   0  0  0  0  0  0  0  0  0  0  0  0
   37.3850   25.0920   32.7080 N   0  0  0  0  0  0  0  0  0  0  0  0
   36.5030   24.4780   31.9090 C   0  0  0  0  0  0  0  0  0  0  0  0
   35.5790   25.1730   31.2470 N   0  0  0  0  0  0  0  0  0  0  0  0
   34.7450   27.0040   30.8080 H   0  0  0  0  0  0  0  0  0  0  0  0
   38.0380   27.0220   33.4930 H   0  0  0  0  0  0  0  0  0  0  0  0
   36.5580   23.4020   31.8130 H   0  0  0  0  0  0  0  0  0  0  0  0
   35.0940   31.0610   34.8270 C   0  0  0  0  0  0  0  0  0  0  0  0
   35.8990   31.6480   35.7750 C   0  0  0  0  0  0  0  0  0  0  0  0
   36.9650   31.7750   35.6920 H   0  0  0  0  0  0  0  0  0  0  0  0
   35.0370   32.0090   36.7950 C   0  0  0  0  0  0  0  0  0  0  0  0
   35.3370   32.5070   37.7190 H   0  0  0  0  0  0  0  0  0  0  0  0
   33.7620   31.6300   36.4280 C   0  0  0  0  0  0  0  0  0  0  0  0
   32.8420   31.7630   36.9940 H   0  0  0  0  0  0  0  0  0  0  0  0
   33.8440   31.0620   35.2330 O   0  0  0  0  0  0  0  0  0  0  0  0
  2  7  1  0  0  0  0
  2  1  1  0  0  0  0
  3  2  2  0  0  0  0
  4  5  2  0  0  0  0
  4  3  1  0  0  0  0
  5  6  1  0  0  0  0
  6 10  1  0  0  0  0
  6  7  2  0  0  0  0
  7 20  1  0  0  0  0
  8  4  1  0  0  0  0
  9  5  1  0  0  0  0
 11 12  1  0  0  0  0
 12  3  1  0  0  0  0
 12 13  2  0  0  0  0
 13 18  1  0  0  0  0
 14 13  1  0  0  0  0
 15 14  2  0  0  0  0
 16 11  2  0  0  0  0
 16 15  1  0  0  0  0
 17 11  1  0  0  0  0
 19 15  1  0  0  0  0
 20 27  1  0  0  0  0
 20 21  2  0  0  0  0
 21 23  1  0  0  0  0
 22 21  1  0  0  0  0
 23 24  1  0  0  0  0
 25 23  2  0  0  0  0
 25 26  1  0  0  0  0
 27 25  1  0  0  0  0
M  END
>  <minimizedAffinity>
-4.97856903

$$$$

 OpenBabel03262521383D

 27 29  0  0  0  0  0  0  0  0999 V2000
   40.4470   24.3510   34.7460 F   0  0  0  0  0  0  0  0  0  0  0  0
   39.7170   24.0670   35.8600 C   0  0  0  0  0  0  0  0  0  0  0  0
   38.4480   24.5640   36.0740 C   0  0  0  0  0  0  0  0  0  0  0  0
   37.7470   24.2400   37.2330 C   0  0  0  0  0  0  0  0  0  0  0  0
   38.3260   23.4060   38.1920 C   0  0  0  0  0  0  0  0  0  0  0  0
   39.6000   22.9320   37.9330 C   0  0  0  0  0  0  0  0  0  0  0  0
   40.3070   23.2330   36.8090 C   0  0  0  0  0  0  0  0  0  0  0  0
   36.7530   24.6720   37.3240 H   0  0  0  0  0  0  0  0  0  0  0  0
   37.7550   23.1770   39.0750 H   0  0  0  0  0  0  0  0  0  0  0  0
   40.0740   22.2840   38.6600 H   0  0  0  0  0  0  0  0  0  0  0  0
   37.7110   26.7310   35.4130 C   0  0  0  0  0  0  0  0  0  0  0  0
   37.9240   25.4110   35.0400 C   0  0  0  0  0  0  0  0  0  0  0  0
   37.6110   25.0550   33.7200 C   0  0  0  0  0  0  0  0  0  0  0  0
   37.1190   26.0190   32.8850 N   0  0  0  0  0  0  0  0  0  0  0  0
   36.9320   27.2790   33.2960 C   0  0  0  0  0  0  0  0  0  0  0  0
   37.2230   27.6410   34.5450 N   0  0  0  0  0  0  0  0  0  0  0  0
   37.9210   27.1070   36.4070 H   0  0  0  0  0  0  0  0  0  0  0  0
   37.7910   24.0280   33.4800 H   0  0  0  0  0  0  0  0  0  0  0  0
   36.5400   27.9990   32.5900 H   0  0  0  0  0  0  0  0  0  0  0  0
   41.6520   22.7090   36.5790 C   0  0  0  0  0  0  0  0  0  0  0  0
   41.9590   21.3760   36.4460 C   0  0  0  0  0  0  0  0  0  0  0  0
   41.2510   20.5670   36.4930 H   0  0  0  0  0  0  0  0  0  0  0  0
   43.3280   21.3480   36.2470 C   0  0  0  0  0  0  0  0  0  0  0  0
   43.9200   20.4420   36.1000 H   0  0  0  0  0  0  0  0  0  0  0  0
   43.7880   22.6490   36.2690 C   0  0  0  0  0  0  0  0  0  0  0  0
   44.8130   22.9920   36.1430 H   0  0  0  0  0  0  0  0  0  0  0  0
   42.7410   23.4370   36.4720 O   0  0  0  0  0  0  0  0  0  0  0  0
  1  2  1  0  0  0  0
  2  3  2  0  0  0  0
  2  7  1  0  0  0  0
  3  4  1  0  0  0  0
  4  8  1  0  0  0  0
  4  5  2  0  0  0  0
  5  9  1  0  0  0  0
  6  5  1  0  0  0  0
  6 10  1  0  0  0  0
  7  6  2  0  0  0  0
 11 17  1  0  0  0  0
 12 11  1  0  0  0  0
 12  3  1  0  0  0  0
 13 12  2  0  0  0  0
 14 15  2  0  0  0  0
 14 13  1  0  0  0  0
 15 16  1  0  0  0  0
 16 11  2  0  0  0  0
 18 13  1  0  0  0  0
 19 15  1  0  0  0  0
 20  7  1  0  0  0  0
 21 22  1  0  0  0  0
 21 20  2  0  0  0  0
 23 25  2  0  0  0  0
 23 21  1  0  0  0  0
 24 23  1  0  0  0  0
 25 27  1  0  0  0  0
 26 25  1  0  0  0  0
 27 20  1  0  0  0  0
M  END
>  <minimizedAffinity>
-4.86203814

$$$$

 OpenBabel03262521383D

 27 29  0  0  0  0  0  0  0  0999 V2000
   37.8830   23.6040   34.3020 F   0  0  0  0  0  0  0  0  0  0  0  0
   38.6300   24.7290   34.1250 C   0  0  0  0  0  0  0  0  0  0  0  0
   38.3400   25.6820   33.1690 C   0  0  0  0  0  0  0  0  0  0  0  0
   39.1400   26.8130   33.0330 C   0  0  0  0  0  0  0  0  0  0  0  0
   40.2470   26.9930   33.8630 C   0  0  0  0  0  0  0  0  0  0  0  0
   40.4990   26.0110   34.8060 C   0  0  0  0  0  0  0  0  0  0  0  0
   39.7330   24.8960   34.9610 C   0  0  0  0  0  0  0  0  0  0  0  0
   38.8420   27.5160   32.2570 H   0  0  0  0  0  0  0  0  0  0  0  0
   40.8430   27.8790   33.7290 H   0  0  0  0  0  0  0  0  0  0  0  0
   41.3520   26.1240   35.4630 H   0  0  0  0  0  0  0  0  0  0  0  0
   36.4330   26.5450   32.0310 C   0  0  0  0  0  0  0  0  0  0  0  0
   37.1840   25.4230   32.3590 C   0  0  0  0  0  0  0  0  0  0  0  0
   36.7400   24.1850   31.8720 C   0  0  0  0  0  0  0  0  0  0  0  0
   35.6050   24.1530   31.1110 N   0  0  0  0  0  0  0  0  0  0  0  0
   34.9170   25.2660   30.8240 C   0  0  0  0  0  0  0  0  0  0  0  0
   35.3190   26.4540   31.2750 N   0  0  0  0  0  0  0  0  0  0  0  0
   36.6900   27.5450   32.3560 H   0  0  0  0  0  0  0  0  0  0  0  0
   37.3500   23.3520   32.1510 H   0  0  0  0  0  0  0  0  0  0  0  0
   34.0260   25.1780   30.2170 H   0  0  0  0  0  0  0  0  0  0  0  0
   40.0380   23.8840   35.9700 C   0  0  0  0  0  0  0  0  0  0  0  0
   41.1340   23.0540   35.9390 C   0  0  0  0  0  0  0  0  0  0  0  0
   41.8900   23.0530   35.1740 H   0  0  0  0  0  0  0  0  0  0  0  0
   41.0170   22.2730   37.0750 C   0  0  0  0  0  0  0  0  0  0  0  0
   41.7230   21.4950   37.3740 H   0  0  0  0  0  0  0  0  0  0  0  0
   39.8690   22.6570   37.7390 C   0  0  0  0  0  0  0  0  0  0  0  0
   39.4740   22.2520   38.6680 H   0  0  0  0  0  0  0  0  0  0  0  0
   39.3110   23.6320   37.0350 O   0  0  0  0  0  0  0  0  0  0  0  0
  2  1  1  0  0  0  0
  2  7  1  0  0  0  0
  3  2  2  0  0  0  0
  4  3  1  0  0  0  0
  4  5  2  0  0  0  0
  5  6  1  0  0  0  0
  6  7  2  0  0  0  0
  6 10  1  0  0  0  0
  7 20  1  0  0  0  0
  8  4  1  0  0  0  0
  9  5  1  0  0  0  0
 11 17  1  0  0  0  0
 11 12  1  0  0  0  0
 12  3  1  0  0  0  0
 13 18  1  0  0  0  0
 13 12  2  0  0  0  0
 14 13  1  0  0  0  0
 15 14  2  0  0  0  0
 15 16  1  0  0  0  0
 16 11  2  0  0  0  0
 19 15  1  0  0  0  0
 20 27  1  0  0  0  0
 21 20  2  0  0  0  0
 21 23  1  0  0  0  0
 22 21  1  0  0  0  0
 23 24  1  0  0  0  0
 23 25  2  0  0  0  0
 25 26  1  0  0  0  0
 27 25  1  0  0  0  0
M  END
>  <minimizedAffinity>
-4.83342838

$$$$

 OpenBabel03262521383D

 27 29  0  0  0  0  0  0  0  0999 V2000
   37.8040   23.3900   34.1510 F   0  0  0  0  0  0  0  0  0  0  0  0
   38.4540   24.5860   34.0820 C   0  0  0  0  0  0  0  0  0  0  0  0
   39.5090   24.9170   34.9070 C   0  0  0  0  0  0  0  0  0  0  0  0
   40.1360   26.1540   34.7930 C   0  0  0  0  0  0  0  0  0  0  0  0
   39.6990   27.0760   33.8390 C   0  0  0  0  0  0  0  0  0  0  0  0
   38.6370   26.7000   33.0350 C   0  0  0  0  0  0  0  0  0  0  0  0
   38.0060   25.4960   33.1260 C   0  0  0  0  0  0  0  0  0  0  0  0
   40.9600   26.3360   35.4790 H   0  0  0  0  0  0  0  0  0  0  0  0
   40.2060   28.0230   33.7790 H   0  0  0  0  0  0  0  0  0  0  0  0
   38.2760   27.3950   32.2870 H   0  0  0  0  0  0  0  0  0  0  0  0
   41.0430   23.2010   35.5250 C   0  0  0  0  0  0  0  0  0  0  0  0
   39.8980   23.9140   35.8580 C   0  0  0  0  0  0  0  0  0  0  0  0
   39.2590   23.5820   37.0620 C   0  0  0  0  0  0  0  0  0  0  0  0
   39.7940   22.5870   37.8310 N   0  0  0  0  0  0  0  0  0  0  0  0
   40.9020   21.9310   37.4630 C   0  0  0  0  0  0  0  0  0  0  0  0
   41.5270   22.2280   36.3240 N   0  0  0  0  0  0  0  0  0  0  0  0
   41.6100   23.3810   34.6200 H   0  0  0  0  0  0  0  0  0  0  0  0
   38.3820   24.1570   37.2740 H   0  0  0  0  0  0  0  0  0  0  0  0
   41.2790   21.1530   38.1130 H   0  0  0  0  0  0  0  0  0  0  0  0
   36.8870   25.1430   32.2550 C   0  0  0  0  0  0  0  0  0  0  0  0
   36.6730   23.8930   31.7250 C   0  0  0  0  0  0  0  0  0  0  0  0
   37.3000   23.0330   31.8880 H   0  0  0  0  0  0  0  0  0  0  0  0
   35.5170   24.0210   30.9750 C   0  0  0  0  0  0  0  0  0  0  0  0
   35.0480   23.2150   30.4080 H   0  0  0  0  0  0  0  0  0  0  0  0
   35.0850   25.3270   31.0810 C   0  0  0  0  0  0  0  0  0  0  0  0
   34.2060   25.7740   30.6190 H   0  0  0  0  0  0  0  0  0  0  0  0
   35.9420   25.9680   31.8630 O   0  0  0  0  0  0  0  0  0  0  0  0
  2  1  1  0  0  0  0
  2  3  1  0  0  0  0
  3 12  1  0  0  0  0
  4  3  2  0  0  0  0
  4  8  1  0  0  0  0
  5  4  1  0  0  0  0
  6  7  1  0  0  0  0
  6  5  2  0  0  0  0
  7  2  2  0  0  0  0
  9  5  1  0  0  0  0
 10  6  1  0  0  0  0
 11 12  2  0  0  0  0
 11 16  1  0  0  0  0
 12 13  1  0  0  0  0
 13 18  1  0  0  0  0
 13 14  2  0  0  0  0
 15 14  1  0  0  0  0
 15 19  1  0  0  0  0
 16 15  2  0  0  0  0
 17 11  1  0  0  0  0
 20  7  1  0  0  0  0
 21 22  1  0  0  0  0
 21 20  2  0  0  0  0
 23 25  2  0  0  0  0
 23 21  1  0  0  0  0
 24 23  1  0  0  0  0
 25 27  1  0  0  0  0
 26 25  1  0  0  0  0
 27 20  1  0  0  0  0
M  END
>  <minimizedAffinity>
-4.76900816

$$$$

 OpenBabel03262521383D

 27 29  0  0  0  0  0  0  0  0999 V2000
   39.4860   25.5080   32.3230 F   0  0  0  0  0  0  0  0  0  0  0  0
   38.9820   26.1260   33.4280 C   0  0  0  0  0  0  0  0  0  0  0  0
   39.7780   26.6530   34.4240 C   0  0  0  0  0  0  0  0  0  0  0  0
   39.2070   27.2740   35.5310 C   0  0  0  0  0  0  0  0  0  0  0  0
   37.8190   27.3680   35.6450 C   0  0  0  0  0  0  0  0  0  0  0  0
   37.0620   26.8240   34.6210 C   0  0  0  0  0  0  0  0  0  0  0  0
   37.5940   26.2120   33.5280 C   0  0  0  0  0  0  0  0  0  0  0  0
   39.9040   27.6640   36.2700 H   0  0  0  0  0  0  0  0  0  0  0  0
   37.4130   27.8540   36.5150 H   0  0  0  0  0  0  0  0  0  0  0  0
   35.9820   26.8820   34.6830 H   0  0  0  0  0  0  0  0  0  0  0  0
   41.7730   25.4300   34.8710 C   0  0  0  0  0  0  0  0  0  0  0  0
   41.1940   26.5180   34.2300 C   0  0  0  0  0  0  0  0  0  0  0  0
   42.0380   27.3490   33.4800 C   0  0  0  0  0  0  0  0  0  0  0  0
   43.3700   27.0440   33.4230 N   0  0  0  0  0  0  0  0  0  0  0  0
   43.8770   25.9820   34.0600 C   0  0  0  0  0  0  0  0  0  0  0  0
   43.0950   25.1770   34.7790 N   0  0  0  0  0  0  0  0  0  0  0  0
   41.2090   24.7290   35.4730 H   0  0  0  0  0  0  0  0  0  0  0  0
   41.5470   28.1730   33.0060 H   0  0  0  0  0  0  0  0  0  0  0  0
   44.9390   25.7910   33.9770 H   0  0  0  0  0  0  0  0  0  0  0  0
   36.7530   25.6510   32.4720 C   0  0  0  0  0  0  0  0  0  0  0  0
   35.9560   26.3910   31.6320 C   0  0  0  0  0  0  0  0  0  0  0  0
   35.8580   27.4630   31.6520 H   0  0  0  0  0  0  0  0  0  0  0  0
   35.3520   25.4590   30.8070 C   0  0  0  0  0  0  0  0  0  0  0  0
   34.6460   25.6960   30.0080 H   0  0  0  0  0  0  0  0  0  0  0  0
   35.8020   24.2090   31.1770 C   0  0  0  0  0  0  0  0  0  0  0  0
   35.5320   23.2500   30.7390 H   0  0  0  0  0  0  0  0  0  0  0  0
   36.6470   24.3730   32.1870 O   0  0  0  0  0  0  0  0  0  0  0  0
  1  2  1  0  0  0  0
  2  7  2  0  0  0  0
  2  3  1  0  0  0  0
  3  4  2  0  0  0  0
  4  5  1  0  0  0  0
  4  8  1  0  0  0  0
  5  9  1  0  0  0  0
  6 10  1  0  0  0  0
  6  5  2  0  0  0  0
  7  6  1  0  0  0  0
 11 17  1  0  0  0  0
 12  3  1  0  0  0  0
 12 11  2  0  0  0  0
 13 12  1  0  0  0  0
 14 13  2  0  0  0  0
 14 15  1  0  0  0  0
 15 16  2  0  0  0  0
 16 11  1  0  0  0  0
 18 13  1  0  0  0  0
 19 15  1  0  0  0  0
 20  7  1  0  0  0  0
 21 22  1  0  0  0  0
 21 20  2  0  0  0  0
 23 25  2  0  0  0  0
 23 21  1  0  0  0  0
 24 23  1  0  0  0  0
 25 27  1  0  0  0  0
 26 25  1  0  0  0  0
 27 20  1  0  0  0  0
M  END
>  <minimizedAffinity>
-4.75745535

$$$$

 OpenBabel03262521383D

 27 29  0  0  0  0  0  0  0  0999 V2000
   36.2760   28.2530   34.9230 F   0  0  0  0  0  0  0  0  0  0  0  0
   36.1270   28.8770   33.7210 C   0  0  0  0  0  0  0  0  0  0  0  0
   35.5240   30.1110   33.5840 C   0  0  0  0  0  0  0  0  0  0  0  0
   35.3980   30.7010   32.3300 C   0  0  0  0  0  0  0  0  0  0  0  0
   35.8820   30.0470   31.1950 C   0  0  0  0  0  0  0  0  0  0  0  0
   36.4780   28.8110   31.3820 C   0  0  0  0  0  0  0  0  0  0  0  0
   36.6140   28.2120   32.5970 C   0  0  0  0  0  0  0  0  0  0  0  0
   34.9130   31.6750   32.3080 H   0  0  0  0  0  0  0  0  0  0  0  0
   35.7670   30.5330   30.2420 H   0  0  0  0  0  0  0  0  0  0  0  0
   36.8610   28.2810   30.5190 H   0  0  0  0  0  0  0  0  0  0  0  0
   33.7170   30.4970   35.0870 C   0  0  0  0  0  0  0  0  0  0  0  0
   35.0570   30.7170   34.7990 C   0  0  0  0  0  0  0  0  0  0  0  0
   35.7940   31.4930   35.7060 C   0  0  0  0  0  0  0  0  0  0  0  0
   35.1560   31.9830   36.8110 N   0  0  0  0  0  0  0  0  0  0  0  0
   33.8600   31.7400   37.0430 C   0  0  0  0  0  0  0  0  0  0  0  0
   33.1390   31.0060   36.1960 N   0  0  0  0  0  0  0  0  0  0  0  0
   33.0630   29.9120   34.4530 H   0  0  0  0  0  0  0  0  0  0  0  0
   36.8200   31.6360   35.4400 H   0  0  0  0  0  0  0  0  0  0  0  0
   33.4100   32.1540   37.9350 H   0  0  0  0  0  0  0  0  0  0  0  0
   37.2500   26.9050   32.7450 C   0  0  0  0  0  0  0  0  0  0  0  0
   38.5820   26.7110   33.0260 C   0  0  0  0  0  0  0  0  0  0  0  0
   39.3070   27.4930   33.1690 H   0  0  0  0  0  0  0  0  0  0  0  0
   38.7360   25.3360   33.0730 C   0  0  0  0  0  0  0  0  0  0  0  0
   39.6760   24.8200   33.2770 H   0  0  0  0  0  0  0  0  0  0  0  0
   37.5060   24.7620   32.8220 C   0  0  0  0  0  0  0  0  0  0  0  0
   37.2650   23.7010   32.7840 H   0  0  0  0  0  0  0  0  0  0  0  0
   36.6390   25.7470   32.6300 O   0  0  0  0  0  0  0  0  0  0  0  0
  2  1  1  0  0  0  0
  3  2  1  0  0  0  0
  3 12  1  0  0  0  0
  4  3  2  0  0  0  0
  5  6  2  0  0  0  0
  5  4  1  0  0  0  0
  6  7  1  0  0  0  0
  7 20  1  0  0  0  0
  7  2  2  0  0  0  0
  8  4  1  0  0  0  0
  9  5  1  0  0  0  0
 10  6  1  0  0  0  0
 11 16  1  0  0  0  0
 12 11  2  0  0  0  0
 12 13  1  0  0  0  0
 13 14  2  0  0  0  0
 14 15  1  0  0  0  0
 15 19  1  0  0  0  0
 16 15  2  0  0  0  0
 17 11  1  0  0  0  0
 18 13  1  0  0  0  0
 20 21  2  0  0  0  0
 21 23  1  0  0  0  0
 21 22  1  0  0  0  0
 23 24  1  0  0  0  0
 25 23  2  0  0  0  0
 26 25  1  0  0  0  0
 27 20  1  0  0  0  0
 27 25  1  0  0  0  0
M  END
>  <minimizedAffinity>
-4.71519518

$$$$

 OpenBabel03262521383D

 27 29  0  0  0  0  0  0  0  0999 V2000
   37.1150   28.5330   35.6080 F   0  0  0  0  0  0  0  0  0  0  0  0
   36.7000   28.5570   34.3110 C   0  0  0  0  0  0  0  0  0  0  0  0
   37.1800   27.6880   33.3520 C   0  0  0  0  0  0  0  0  0  0  0  0
   36.7200   27.7580   32.0400 C   0  0  0  0  0  0  0  0  0  0  0  0
   35.7650   28.7120   31.6820 C   0  0  0  0  0  0  0  0  0  0  0  0
   35.3140   29.5610   32.6770 C   0  0  0  0  0  0  0  0  0  0  0  0
   35.7470   29.5140   33.9670 C   0  0  0  0  0  0  0  0  0  0  0  0
   37.1470   27.0370   31.3460 H   0  0  0  0  0  0  0  0  0  0  0  0
   35.4330   28.7370   30.6580 H   0  0  0  0  0  0  0  0  0  0  0  0
   34.5740   30.3120   32.4280 H   0  0  0  0  0  0  0  0  0  0  0  0
   37.6650   25.4610   34.0450 C   0  0  0  0  0  0  0  0  0  0  0  0
   38.1570   26.7370   33.8020 C   0  0  0  0  0  0  0  0  0  0  0  0
   39.5250   26.9530   34.0180 C   0  0  0  0  0  0  0  0  0  0  0  0
   40.2900   25.9060   34.4520 N   0  0  0  0  0  0  0  0  0  0  0  0
   39.7650   24.6940   34.6720 C   0  0  0  0  0  0  0  0  0  0  0  0
   38.4670   24.4640   34.4730 N   0  0  0  0  0  0  0  0  0  0  0  0
   36.6250   25.1910   33.9090 H   0  0  0  0  0  0  0  0  0  0  0  0
   39.8560   27.9510   33.8180 H   0  0  0  0  0  0  0  0  0  0  0  0
   40.4200   23.9040   35.0140 H   0  0  0  0  0  0  0  0  0  0  0  0
   35.2420   30.4330   34.9850 C   0  0  0  0  0  0  0  0  0  0  0  0
   36.0080   31.3610   35.6510 C   0  0  0  0  0  0  0  0  0  0  0  0
   37.0620   31.5180   35.5010 H   0  0  0  0  0  0  0  0  0  0  0  0
   35.1260   31.9970   36.5070 C   0  0  0  0  0  0  0  0  0  0  0  0
   35.3950   32.8010   37.1950 H   0  0  0  0  0  0  0  0  0  0  0  0
   33.8790   31.4350   36.3270 C   0  0  0  0  0  0  0  0  0  0  0  0
   32.9540   31.6960   36.8380 H   0  0  0  0  0  0  0  0  0  0  0  0
   33.9960   30.4950   35.3990 O   0  0  0  0  0  0  0  0  0  0  0  0
  2  1  1  0  0  0  0
  3 12  1  0  0  0  0
  3  2  2  0  0  0  0
  4  3  1  0  0  0  0
  5  4  2  0  0  0  0
  5  6  1  0  0  0  0
  6  7  2  0  0  0  0
  7  2  1  0  0  0  0
  7 20  1  0  0  0  0
  8  4  1  0  0  0  0
  9  5  1  0  0  0  0
 10  6  1  0  0  0  0
 11 16  1  0  0  0  0
 12 13  1  0  0  0  0
 12 11  2  0  0  0  0
 13 14  2  0  0  0  0
 14 15  1  0  0  0  0
 15 19  1  0  0  0  0
 16 15  2  0  0  0  0
 17 11  1  0  0  0  0
 18 13  1  0  0  0  0
 20 27  1  0  0  0  0
 20 21  2  0  0  0  0
 21 23  1  0  0  0  0
 22 21  1  0  0  0  0
 23 24  1  0  0  0  0
 25 23  2  0  0  0  0
 25 26  1  0  0  0  0
 27 25  1  0  0  0  0
M  END
>  <minimizedAffinity>
-4.66616583

$$$$

 OpenBabel03262521383D

 27 29  0  0  0  0  0  0  0  0999 V2000
   35.9920   27.9820   34.8670 F   0  0  0  0  0  0  0  0  0  0  0  0
   36.1170   28.6820   33.7060 C   0  0  0  0  0  0  0  0  0  0  0  0
   35.6380   29.9670   33.5470 C   0  0  0  0  0  0  0  0  0  0  0  0
   35.7930   30.6350   32.3360 C   0  0  0  0  0  0  0  0  0  0  0  0
   36.4360   30.0080   31.2670 C   0  0  0  0  0  0  0  0  0  0  0  0
   36.8980   28.7190   31.4730 C   0  0  0  0  0  0  0  0  0  0  0  0
   36.7600   28.0430   32.6460 C   0  0  0  0  0  0  0  0  0  0  0  0
   35.3900   31.6440   32.2940 H   0  0  0  0  0  0  0  0  0  0  0  0
   36.5380   30.5550   30.3450 H   0  0  0  0  0  0  0  0  0  0  0  0
   37.4010   28.2080   30.6600 H   0  0  0  0  0  0  0  0  0  0  0  0
   35.8150   31.3090   35.5070 C   0  0  0  0  0  0  0  0  0  0  0  0
   34.9930   30.5400   34.6940 C   0  0  0  0  0  0  0  0  0  0  0  0
   33.6490   30.4080   35.0750 C   0  0  0  0  0  0  0  0  0  0  0  0
   33.2300   31.0390   36.2130 N   0  0  0  0  0  0  0  0  0  0  0  0
   34.0650   31.7700   36.9620 C   0  0  0  0  0  0  0  0  0  0  0  0
   35.3460   31.9100   36.6200 N   0  0  0  0  0  0  0  0  0  0  0  0
   36.8650   31.4740   35.3010 H   0  0  0  0  0  0  0  0  0  0  0  0
   33.0570   29.8060   34.4180 H   0  0  0  0  0  0  0  0  0  0  0  0
   33.6760   32.2470   37.8510 H   0  0  0  0  0  0  0  0  0  0  0  0
   37.2640   26.6820   32.8170 C   0  0  0  0  0  0  0  0  0  0  0  0
   36.6550   25.5550   32.3210 C   0  0  0  0  0  0  0  0  0  0  0  0
   35.7420   25.5420   31.7510 H   0  0  0  0  0  0  0  0  0  0  0  0
   37.4690   24.5090   32.7180 C   0  0  0  0  0  0  0  0  0  0  0  0
   37.2880   23.4560   32.4950 H   0  0  0  0  0  0  0  0  0  0  0  0
   38.5250   25.0400   33.4320 C   0  0  0  0  0  0  0  0  0  0  0  0
   39.3530   24.5030   33.8900 H   0  0  0  0  0  0  0  0  0  0  0  0
   38.3600   26.3560   33.4660 O   0  0  0  0  0  0  0  0  0  0  0  0
  2  1  1  0  0  0  0
  3  2  1  0  0  0  0
  3 12  1  0  0  0  0
  4  3  2  0  0  0  0
  5  6  2  0  0  0  0
  5  4  1  0  0  0  0
  6  7  1  0  0  0  0
  7 20  1  0  0  0  0
  7  2  2  0  0  0  0
  8  4  1  0  0  0  0
  9  5  1  0  0  0  0
 10  6  1  0  0  0  0
 11 16  1  0  0  0  0
 12 13  1  0  0  0  0
 12 11  2  0  0  0  0
 13 14  2  0  0  0  0
 14 15  1  0  0  0  0
 15 19  1  0  0  0  0
 16 15  2  0  0  0  0
 17 11  1  0  0  0  0
 18 13  1  0  0  0  0
 20 27  1  0  0  0  0
 21 23  1  0  0  0  0
 21 20  2  0  0  0  0
 22 21  1  0  0  0  0
 23 25  2  0  0  0  0
 24 23  1  0  0  0  0
 25 27  1  0  0  0  0
 25 26  1  0  0  0  0
M  END
>  <minimizedAffinity>
-4.64332771

$$$$
