
 OpenBabel03272500263D

 33 35  0  0  0  0  0  0  0  0999 V2000
   39.6370   31.8110   46.4860 C   0  0  0  0  0  0  0  0  0  0  0  0
   40.6780   32.2420   46.5380 H   0  0  0  0  0  0  0  0  0  0  0  0
   39.8200   30.7390   46.7990 H   0  0  0  0  0  0  0  0  0  0  0  0
   39.2180   31.8490   45.1140 C   0  0  0  0  0  0  0  0  0  0  0  0
   38.0800   32.4920   44.7450 C   0  0  0  0  0  0  0  0  0  0  0  0
   37.6520   32.5420   43.4110 C   0  0  0  0  0  0  0  0  0  0  0  0
   38.4720   31.8920   42.5150 N   0  0  0  0  0  0  0  0  0  0  0  0
   39.5970   31.2580   42.8950 C   0  0  0  0  0  0  0  0  0  0  0  0
   39.9430   31.2540   44.1980 N   0  0  0  0  0  0  0  0  0  0  0  0
   37.4080   33.0170   45.4290 H   0  0  0  0  0  0  0  0  0  0  0  0
   36.7510   33.0500   43.1100 H   0  0  0  0  0  0  0  0  0  0  0  0
   40.4450   30.5790   41.9190 C   0  0  0  0  0  0  0  0  0  0  0  0
   41.0490   29.3460   42.1650 C   0  0  0  0  0  0  0  0  0  0  0  0
   41.0130   28.7000   43.0510 H   0  0  0  0  0  0  0  0  0  0  0  0
   41.7790   28.9750   41.0520 C   0  0  0  0  0  0  0  0  0  0  0  0
   42.3880   28.1400   40.7860 H   0  0  0  0  0  0  0  0  0  0  0  0
   41.5820   30.0170   40.1670 C   0  0  0  0  0  0  0  0  0  0  0  0
   41.9080   30.2500   39.1700 H   0  0  0  0  0  0  0  0  0  0  0  0
   40.8150   30.8980   40.7160 O   0  0  0  0  0  0  0  0  0  0  0  0
   38.7910   32.3940   47.5330 C   0  0  0  0  0  0  0  0  0  0  0  0
   38.0520   33.1680   47.1850 H   0  0  0  0  0  0  0  0  0  0  0  0
   39.4240   32.9700   48.2730 H   0  0  0  0  0  0  0  0  0  0  0  0
   38.0600   31.4220   48.3580 C   0  0  0  0  0  0  0  0  0  0  0  0
   37.0210   30.6750   47.8100 C   0  0  0  0  0  0  0  0  0  0  0  0
   36.5120   29.8510   48.7790 C   0  0  0  0  0  0  0  0  0  0  0  0
   37.2160   30.0870   49.8840 N   0  0  0  0  0  0  0  0  0  0  0  0
   38.1210   31.0140   49.6120 N   0  0  0  0  0  0  0  0  0  0  0  0
   36.6030   30.6670   46.7980 H   0  0  0  0  0  0  0  0  0  0  0  0
   35.7080   29.1370   48.7250 H   0  0  0  0  0  0  0  0  0  0  0  0
   37.0790   29.4750   51.1990 C   0  0  0  0  0  0  0  0  0  0  0  0
   37.8600   28.3360   51.2900 F   0  0  0  0  0  0  0  0  0  0  0  0
   35.7630   29.1290   51.4680 F   0  0  0  0  0  0  0  0  0  0  0  0
   37.5100   30.3390   52.2050 F   0  0  0  0  0  0  0  0  0  0  0  0
  1  2  1  0  0  0  0
  1  3  1  0  0  0  0
  1 20  1  0  0  0  0
  4  1  1  0  0  0  0
  5  4  1  0  0  0  0
  5 10  1  0  0  0  0
  6  5  2  0  0  0  0
  7  8  2  0  0  0  0
  7  6  1  0  0  0  0
  8  9  1  0  0  0  0
  9  4  2  0  0  0  0
 11  6  1  0  0  0  0
 12 13  2  0  0  0  0
 12  8  1  0  0  0  0
 13 14  1  0  0  0  0
 15 13  1  0  0  0  0
 16 15  1  0  0  0  0
 17 19  1  0  0  0  0
 17 15  2  0  0  0  0
 18 17  1  0  0  0  0
 19 12  1  0  0  0  0
 20 22  1  0  0  0  0
 20 23  1  0  0  0  0
 21 20  1  0  0  0  0
 23 27  2  0  0  0  0
 24 23  1  0  0  0  0
 24 25  2  0  0  0  0
 25 26  1  0  0  0  0
 26 30  1  0  0  0  0
 27 26  1  0  0  0  0
 28 24  1  0  0  0  0
 29 25  1  0  0  0  0
 30 31  1  0  0  0  0
 30 32  1  0  0  0  0
 30 33  1  0  0  0  0
M  END
>  <minimizedAffinity>
-6.02654314

>  <minimizedRMSD>
0.809927166

$$$$
