
 OpenBabel03262523453D

 27 29  0  0  0  0  0  0  0  0999 V2000
   37.0570   28.4820   29.5520 Cl  0  0  0  0  0  0  0  0  0  0  0  0
   36.4860   29.2010   31.0290 C   0  0  0  0  0  0  0  0  0  0  0  0
   36.0740   28.3990   32.0770 C   0  0  0  0  0  0  0  0  0  0  0  0
   35.6300   29.0310   33.2250 C   0  0  0  0  0  0  0  0  0  0  0  0
   35.5870   30.3990   33.3540 C   0  0  0  0  0  0  0  0  0  0  0  0
   36.0110   31.1670   32.2750 C   0  0  0  0  0  0  0  0  0  0  0  0
   35.9530   32.9160   32.4460 Cl  0  0  0  0  0  0  0  0  0  0  0  0
   36.4640   30.5800   31.1030 C   0  0  0  0  0  0  0  0  0  0  0  0
   35.3080   28.4030   34.0440 H   0  0  0  0  0  0  0  0  0  0  0  0
   36.7950   31.1950   30.2610 H   0  0  0  0  0  0  0  0  0  0  0  0
   37.2410   24.8000   32.2860 C   0  0  0  0  0  0  0  0  0  0  0  0
   37.1680   26.1930   32.4510 C   0  0  0  0  0  0  0  0  0  0  0  0
   36.1360   26.9600   31.8980 C   0  0  0  0  0  0  0  0  0  0  0  0
   35.2080   26.2760   31.1930 N   0  0  0  0  0  0  0  0  0  0  0  0
   35.2850   24.9410   31.0410 C   0  0  0  0  0  0  0  0  0  0  0  0
   36.2790   24.2190   31.5750 N   0  0  0  0  0  0  0  0  0  0  0  0
   38.0660   24.2860   32.7420 H   0  0  0  0  0  0  0  0  0  0  0  0
   37.9420   26.6940   33.0280 H   0  0  0  0  0  0  0  0  0  0  0  0
   34.4620   24.5260   30.4440 H   0  0  0  0  0  0  0  0  0  0  0  0
   35.1150   31.0450   34.5740 C   0  0  0  0  0  0  0  0  0  0  0  0
   35.9160   31.3210   35.6630 C   0  0  0  0  0  0  0  0  0  0  0  0
   36.9780   31.0900   35.7320 H   0  0  0  0  0  0  0  0  0  0  0  0
   35.1600   31.9350   36.6470 C   0  0  0  0  0  0  0  0  0  0  0  0
   35.5620   32.2480   37.5980 H   0  0  0  0  0  0  0  0  0  0  0  0
   33.8950   31.9980   36.0760 C   0  0  0  0  0  0  0  0  0  0  0  0
   33.0550   32.4410   36.6220 H   0  0  0  0  0  0  0  0  0  0  0  0
   33.9250   31.4660   34.8720 O   0  0  0  0  0  0  0  0  0  0  0  0
  1  2  1  0  0  0  0
  2  8  2  0  0  0  0
  2  3  1  0  0  0  0
  3  4  2  0  0  0  0
  4  5  1  0  0  0  0
  4  9  1  0  0  0  0
  5 20  1  0  0  0  0
  6  7  1  0  0  0  0
  6  5  2  0  0  0  0
  8  6  1  0  0  0  0
 10  8  1  0  0  0  0
 11 12  1  0  0  0  0
 11 17  1  0  0  0  0
 12 18  1  0  0  0  0
 13  3  1  0  0  0  0
 13 12  2  0  0  0  0
 14 13  1  0  0  0  0
 15 14  2  0  0  0  0
 15 16  1  0  0  0  0
 16 11  2  0  0  0  0
 19 15  1  0  0  0  0
 20 27  1  0  0  0  0
 20 21  2  0  0  0  0
 21 22  1  0  0  0  0
 21 23  1  0  0  0  0
 23 24  1  0  0  0  0
 25 26  1  0  0  0  0
 25 23  2  0  0  0  0
 27 25  1  0  0  0  0
M  END
>  <minimizedAffinity>
-5.017941

$$$$

 OpenBabel03262523453D

 27 29  0  0  0  0  0  0  0  0999 V2000
   37.7420   26.2910   31.3830 Cl  0  0  0  0  0  0  0  0  0  0  0  0
   37.0290   27.4450   32.4710 C   0  0  0  0  0  0  0  0  0  0  0  0
   37.3390   27.4110   33.8180 C   0  0  0  0  0  0  0  0  0  0  0  0
   36.7400   28.3550   34.6320 C   0  0  0  0  0  0  0  0  0  0  0  0
   35.8660   29.3040   34.1560 C   0  0  0  0  0  0  0  0  0  0  0  0
   35.5820   29.3010   32.7950 C   0  0  0  0  0  0  0  0  0  0  0  0
   34.4640   30.5170   32.1920 Cl  0  0  0  0  0  0  0  0  0  0  0  0
   36.1580   28.3750   31.9380 C   0  0  0  0  0  0  0  0  0  0  0  0
   36.9830   28.3280   35.6860 H   0  0  0  0  0  0  0  0  0  0  0  0
   35.9280   28.3830   30.8690 H   0  0  0  0  0  0  0  0  0  0  0  0
   40.5440   25.6720   34.8490 C   0  0  0  0  0  0  0  0  0  0  0  0
   39.6360   26.6470   34.4050 C   0  0  0  0  0  0  0  0  0  0  0  0
   38.2660   26.3930   34.2780 C   0  0  0  0  0  0  0  0  0  0  0  0
   37.8660   25.1450   34.6100 N   0  0  0  0  0  0  0  0  0  0  0  0
   38.7440   24.2170   35.0350 C   0  0  0  0  0  0  0  0  0  0  0  0
   40.0530   24.4740   35.1510 N   0  0  0  0  0  0  0  0  0  0  0  0
   41.5790   25.9490   34.9170 H   0  0  0  0  0  0  0  0  0  0  0  0
   40.0110   27.6360   34.1500 H   0  0  0  0  0  0  0  0  0  0  0  0
   38.2730   23.2530   35.2660 H   0  0  0  0  0  0  0  0  0  0  0  0
   35.2450   30.2900   35.0330 C   0  0  0  0  0  0  0  0  0  0  0  0
   35.9370   31.2870   35.6900 C   0  0  0  0  0  0  0  0  0  0  0  0
   37.0120   31.4460   35.6270 H   0  0  0  0  0  0  0  0  0  0  0  0
   35.0530   32.0470   36.4350 C   0  0  0  0  0  0  0  0  0  0  0  0
   35.3540   32.8890   37.0400 H   0  0  0  0  0  0  0  0  0  0  0  0
   33.8270   31.4450   36.1790 C   0  0  0  0  0  0  0  0  0  0  0  0
   32.9080   31.8270   36.6360 H   0  0  0  0  0  0  0  0  0  0  0  0
   33.9960   30.4290   35.3580 O   0  0  0  0  0  0  0  0  0  0  0  0
  1  2  1  0  0  0  0
  2  3  1  0  0  0  0
  3 13  1  0  0  0  0
  3  4  2  0  0  0  0
  4  9  1  0  0  0  0
  5  4  1  0  0  0  0
  5 20  1  0  0  0  0
  6  5  2  0  0  0  0
  7  6  1  0  0  0  0
  8  2  2  0  0  0  0
  8  6  1  0  0  0  0
 10  8  1  0  0  0  0
 11 17  1  0  0  0  0
 11 16  1  0  0  0  0
 12 11  2  0  0  0  0
 13 12  1  0  0  0  0
 13 14  2  0  0  0  0
 14 15  1  0  0  0  0
 15 16  2  0  0  0  0
 15 19  1  0  0  0  0
 18 12  1  0  0  0  0
 20 27  1  0  0  0  0
 20 21  2  0  0  0  0
 21 23  1  0  0  0  0
 22 21  1  0  0  0  0
 23 24  1  0  0  0  0
 25 23  2  0  0  0  0
 25 26  1  0  0  0  0
 27 25  1  0  0  0  0
M  END
>  <minimizedAffinity>
-4.92656326

$$$$

 OpenBabel03262523453D

 27 29  0  0  0  0  0  0  0  0999 V2000
   34.9640   30.9830   32.1150 Cl  0  0  0  0  0  0  0  0  0  0  0  0
   35.8650   29.6250   32.7220 C   0  0  0  0  0  0  0  0  0  0  0  0
   35.8910   29.3610   34.0790 C   0  0  0  0  0  0  0  0  0  0  0  0
   36.6250   28.2670   34.4990 C   0  0  0  0  0  0  0  0  0  0  0  0
   37.3140   27.4530   33.6310 C   0  0  0  0  0  0  0  0  0  0  0  0
   37.2610   27.7560   32.2750 C   0  0  0  0  0  0  0  0  0  0  0  0
   38.1450   26.7120   31.1710 Cl  0  0  0  0  0  0  0  0  0  0  0  0
   36.5390   28.8420   31.8050 C   0  0  0  0  0  0  0  0  0  0  0  0
   36.6450   28.0600   35.5600 H   0  0  0  0  0  0  0  0  0  0  0  0
   36.5040   29.0710   30.7360 H   0  0  0  0  0  0  0  0  0  0  0  0
   35.0800   32.0990   36.5700 C   0  0  0  0  0  0  0  0  0  0  0  0
   35.7860   31.2360   35.7150 C   0  0  0  0  0  0  0  0  0  0  0  0
   35.1490   30.2450   34.9590 C   0  0  0  0  0  0  0  0  0  0  0  0
   33.8070   30.1680   35.1010 N   0  0  0  0  0  0  0  0  0  0  0  0
   33.1400   30.9990   35.9230 C   0  0  0  0  0  0  0  0  0  0  0  0
   33.7620   31.9430   36.6410 N   0  0  0  0  0  0  0  0  0  0  0  0
   35.6450   32.8310   37.1150 H   0  0  0  0  0  0  0  0  0  0  0  0
   36.8660   31.3410   35.6380 H   0  0  0  0  0  0  0  0  0  0  0  0
   32.0570   30.8170   35.9350 H   0  0  0  0  0  0  0  0  0  0  0  0
   38.0830   26.3040   34.0970 C   0  0  0  0  0  0  0  0  0  0  0  0
   39.3460   26.3890   34.6470 C   0  0  0  0  0  0  0  0  0  0  0  0
   39.9020   27.3130   34.7940 H   0  0  0  0  0  0  0  0  0  0  0  0
   39.7880   25.1210   34.9820 C   0  0  0  0  0  0  0  0  0  0  0  0
   40.7500   24.9250   35.4300 H   0  0  0  0  0  0  0  0  0  0  0  0
   38.7280   24.3080   34.6010 C   0  0  0  0  0  0  0  0  0  0  0  0
   38.7750   23.2220   34.7400 H   0  0  0  0  0  0  0  0  0  0  0  0
   37.7640   25.0460   34.0920 O   0  0  0  0  0  0  0  0  0  0  0  0
  1  2  1  0  0  0  0
  2  3  1  0  0  0  0
  3  4  2  0  0  0  0
  3 13  1  0  0  0  0
  4  9  1  0  0  0  0
  5 20  1  0  0  0  0
  5  4  1  0  0  0  0
  6  5  2  0  0  0  0
  7  6  1  0  0  0  0
  8  6  1  0  0  0  0
  8  2  2  0  0  0  0
 10  8  1  0  0  0  0
 11 16  1  0  0  0  0
 11 17  1  0  0  0  0
 12 11  2  0  0  0  0
 13 14  2  0  0  0  0
 13 12  1  0  0  0  0
 14 15  1  0  0  0  0
 15 19  1  0  0  0  0
 15 16  2  0  0  0  0
 18 12  1  0  0  0  0
 20 21  2  0  0  0  0
 21 22  1  0  0  0  0
 21 23  1  0  0  0  0
 23 24  1  0  0  0  0
 25 26  1  0  0  0  0
 25 23  2  0  0  0  0
 27 20  1  0  0  0  0
 27 25  1  0  0  0  0
M  END
>  <minimizedAffinity>
-4.85551691

$$$$

 OpenBabel03262523453D

 27 29  0  0  0  0  0  0  0  0999 V2000
   36.4180   23.8890   30.9350 Cl  0  0  0  0  0  0  0  0  0  0  0  0
   37.0940   23.6970   32.5250 C   0  0  0  0  0  0  0  0  0  0  0  0
   37.1280   22.4490   33.1180 C   0  0  0  0  0  0  0  0  0  0  0  0
   37.6790   22.3620   34.3850 C   0  0  0  0  0  0  0  0  0  0  0  0
   38.1810   23.4510   35.0560 C   0  0  0  0  0  0  0  0  0  0  0  0
   38.1260   24.6870   34.4220 C   0  0  0  0  0  0  0  0  0  0  0  0
   38.7700   26.0770   35.2860 Cl  0  0  0  0  0  0  0  0  0  0  0  0
   37.5840   24.8260   33.1540 C   0  0  0  0  0  0  0  0  0  0  0  0
   37.7050   21.3850   34.8480 H   0  0  0  0  0  0  0  0  0  0  0  0
   37.5460   25.8040   32.6640 H   0  0  0  0  0  0  0  0  0  0  0  0
   34.7740   19.7330   31.9190 C   0  0  0  0  0  0  0  0  0  0  0  0
   35.3100   20.8180   32.6320 C   0  0  0  0  0  0  0  0  0  0  0  0
   36.5880   21.3260   32.3740 C   0  0  0  0  0  0  0  0  0  0  0  0
   37.2790   20.7080   31.3910 N   0  0  0  0  0  0  0  0  0  0  0  0
   36.7570   19.6690   30.7130 C   0  0  0  0  0  0  0  0  0  0  0  0
   35.5320   19.1920   30.9710 N   0  0  0  0  0  0  0  0  0  0  0  0
   33.7860   19.4040   32.1810 H   0  0  0  0  0  0  0  0  0  0  0  0
   34.7100   21.2790   33.4140 H   0  0  0  0  0  0  0  0  0  0  0  0
   37.4350   19.2700   29.9460 H   0  0  0  0  0  0  0  0  0  0  0  0
   38.7570   23.3360   36.3920 C   0  0  0  0  0  0  0  0  0  0  0  0
   38.0630   23.5860   37.5580 C   0  0  0  0  0  0  0  0  0  0  0  0
   37.0200   23.8940   37.6100 H   0  0  0  0  0  0  0  0  0  0  0  0
   38.8980   23.3840   38.6430 C   0  0  0  0  0  0  0  0  0  0  0  0
   38.5870   23.5170   39.6680 H   0  0  0  0  0  0  0  0  0  0  0  0
   40.0970   23.0090   38.0500 C   0  0  0  0  0  0  0  0  0  0  0  0
   40.9760   22.7750   38.6610 H   0  0  0  0  0  0  0  0  0  0  0  0
   39.9600   22.9970   36.7400 O   0  0  0  0  0  0  0  0  0  0  0  0
  1  2  1  0  0  0  0
  2  3  2  0  0  0  0
  2  8  1  0  0  0  0
  3  4  1  0  0  0  0
  4  9  1  0  0  0  0
  4  5  2  0  0  0  0
  5 20  1  0  0  0  0
  6  5  1  0  0  0  0
  6  7  1  0  0  0  0
  8  6  2  0  0  0  0
 10  8  1  0  0  0  0
 11 17  1  0  0  0  0
 11 12  1  0  0  0  0
 12 18  1  0  0  0  0
 13 12  2  0  0  0  0
 13  3  1  0  0  0  0
 14 13  1  0  0  0  0
 15 16  1  0  0  0  0
 15 14  2  0  0  0  0
 16 11  2  0  0  0  0
 19 15  1  0  0  0  0
 20 27  1  0  0  0  0
 20 21  2  0  0  0  0
 21 22  1  0  0  0  0
 21 23  1  0  0  0  0
 23 24  1  0  0  0  0
 25 23  2  0  0  0  0
 25 26  1  0  0  0  0
 27 25  1  0  0  0  0
M  END
>  <minimizedAffinity>
-4.82549906

$$$$

 OpenBabel03262523453D

 27 29  0  0  0  0  0  0  0  0999 V2000
   35.9080   32.8290   32.5350 Cl  0  0  0  0  0  0  0  0  0  0  0  0
   35.8990   31.1010   32.3400 C   0  0  0  0  0  0  0  0  0  0  0  0
   35.3760   30.2940   33.3330 C   0  0  0  0  0  0  0  0  0  0  0  0
   35.3980   28.9270   33.1180 C   0  0  0  0  0  0  0  0  0  0  0  0
   35.9120   28.3600   31.9760 C   0  0  0  0  0  0  0  0  0  0  0  0
   36.4280   29.2090   31.0040 C   0  0  0  0  0  0  0  0  0  0  0  0
   37.0840   28.4780   29.5460 Cl  0  0  0  0  0  0  0  0  0  0  0  0
   36.4290   30.5860   31.1730 C   0  0  0  0  0  0  0  0  0  0  0  0
   34.9890   28.2970   33.8950 H   0  0  0  0  0  0  0  0  0  0  0  0
   36.8370   31.2440   30.4010 H   0  0  0  0  0  0  0  0  0  0  0  0
   35.1560   31.8660   36.7730 C   0  0  0  0  0  0  0  0  0  0  0  0
   35.6570   31.2460   35.6170 C   0  0  0  0  0  0  0  0  0  0  0  0
   34.8440   30.9350   34.5220 C   0  0  0  0  0  0  0  0  0  0  0  0
   33.5400   31.2690   34.6430 N   0  0  0  0  0  0  0  0  0  0  0  0
   33.0690   31.8640   35.7550 C   0  0  0  0  0  0  0  0  0  0  0  0
   33.8590   32.1560   36.7970 N   0  0  0  0  0  0  0  0  0  0  0  0
   35.8470   32.0700   37.5690 H   0  0  0  0  0  0  0  0  0  0  0  0
   36.7150   30.9980   35.5720 H   0  0  0  0  0  0  0  0  0  0  0  0
   31.9920   32.0750   35.7080 H   0  0  0  0  0  0  0  0  0  0  0  0
   35.9250   26.9150   31.7710 C   0  0  0  0  0  0  0  0  0  0  0  0
   36.8360   26.0590   32.3550 C   0  0  0  0  0  0  0  0  0  0  0  0
   37.6380   26.3630   33.0260 H   0  0  0  0  0  0  0  0  0  0  0  0
   36.5700   24.7620   31.9550 C   0  0  0  0  0  0  0  0  0  0  0  0
   37.1470   23.9080   32.2770 H   0  0  0  0  0  0  0  0  0  0  0  0
   35.4710   24.9100   31.1180 C   0  0  0  0  0  0  0  0  0  0  0  0
   35.0140   24.0410   30.6330 H   0  0  0  0  0  0  0  0  0  0  0  0
   35.1370   26.1820   31.0470 O   0  0  0  0  0  0  0  0  0  0  0  0
  2  1  1  0  0  0  0
  2  3  1  0  0  0  0
  3 13  1  0  0  0  0
  4  3  2  0  0  0  0
  4  9  1  0  0  0  0
  5  4  1  0  0  0  0
  6  8  1  0  0  0  0
  6  5  2  0  0  0  0
  7  6  1  0  0  0  0
  8  2  2  0  0  0  0
 10  8  1  0  0  0  0
 11 16  1  0  0  0  0
 11 17  1  0  0  0  0
 12 11  2  0  0  0  0
 13 14  2  0  0  0  0
 13 12  1  0  0  0  0
 14 15  1  0  0  0  0
 15 16  2  0  0  0  0
 18 12  1  0  0  0  0
 19 15  1  0  0  0  0
 20  5  1  0  0  0  0
 20 21  2  0  0  0  0
 21 22  1  0  0  0  0
 23 24  1  0  0  0  0
 23 21  1  0  0  0  0
 25 23  2  0  0  0  0
 26 25  1  0  0  0  0
 27 25  1  0  0  0  0
 27 20  1  0  0  0  0
M  END
>  <minimizedAffinity>
-4.78072405

$$$$

 OpenBabel03262523453D

 27 29  0  0  0  0  0  0  0  0999 V2000
   40.3540   24.6670   34.5010 Cl  0  0  0  0  0  0  0  0  0  0  0  0
   39.2010   23.4730   33.9810 C   0  0  0  0  0  0  0  0  0  0  0  0
   38.4230   22.8100   34.9120 C   0  0  0  0  0  0  0  0  0  0  0  0
   37.5250   21.8720   34.4360 C   0  0  0  0  0  0  0  0  0  0  0  0
   37.3850   21.5840   33.0980 C   0  0  0  0  0  0  0  0  0  0  0  0
   38.1880   22.2750   32.1980 C   0  0  0  0  0  0  0  0  0  0  0  0
   38.0050   21.9030   30.4890 Cl  0  0  0  0  0  0  0  0  0  0  0  0
   39.1030   23.2250   32.6260 C   0  0  0  0  0  0  0  0  0  0  0  0
   36.9170   21.3530   35.1640 H   0  0  0  0  0  0  0  0  0  0  0  0
   39.7300   23.7620   31.9080 H   0  0  0  0  0  0  0  0  0  0  0  0
   37.9030   24.3560   38.3320 C   0  0  0  0  0  0  0  0  0  0  0  0
   37.7410   24.0240   36.9770 C   0  0  0  0  0  0  0  0  0  0  0  0
   38.6030   23.1440   36.3130 C   0  0  0  0  0  0  0  0  0  0  0  0
   39.6070   22.6300   37.0580 N   0  0  0  0  0  0  0  0  0  0  0  0
   39.7550   22.9540   38.3560 C   0  0  0  0  0  0  0  0  0  0  0  0
   38.9220   23.7980   38.9790 N   0  0  0  0  0  0  0  0  0  0  0  0
   37.1980   25.0390   38.7660 H   0  0  0  0  0  0  0  0  0  0  0  0
   36.9150   24.4670   36.4230 H   0  0  0  0  0  0  0  0  0  0  0  0
   40.6140   22.4600   38.8280 H   0  0  0  0  0  0  0  0  0  0  0  0
   36.4310   20.5900   32.6180 C   0  0  0  0  0  0  0  0  0  0  0  0
   35.0880   20.8370   32.4220 C   0  0  0  0  0  0  0  0  0  0  0  0
   34.5960   21.7920   32.6020 H   0  0  0  0  0  0  0  0  0  0  0  0
   34.4710   19.6870   31.9630 C   0  0  0  0  0  0  0  0  0  0  0  0
   33.4170   19.6270   31.7350 H   0  0  0  0  0  0  0  0  0  0  0  0
   35.5150   18.7720   31.9040 C   0  0  0  0  0  0  0  0  0  0  0  0
   35.3410   17.7440   31.5690 H   0  0  0  0  0  0  0  0  0  0  0  0
   36.6320   19.3490   32.2960 O   0  0  0  0  0  0  0  0  0  0  0  0
  2  1  1  0  0  0  0
  2  3  1  0  0  0  0
  3 13  1  0  0  0  0
  4  3  2  0  0  0  0
  4  9  1  0  0  0  0
  5  4  1  0  0  0  0
  6  8  1  0  0  0  0
  6  5  2  0  0  0  0
  7  6  1  0  0  0  0
  8  2  2  0  0  0  0
 10  8  1  0  0  0  0
 11 17  1  0  0  0  0
 11 16  1  0  0  0  0
 12 11  2  0  0  0  0
 13 12  1  0  0  0  0
 13 14  2  0  0  0  0
 14 15  1  0  0  0  0
 15 19  1  0  0  0  0
 15 16  2  0  0  0  0
 18 12  1  0  0  0  0
 20  5  1  0  0  0  0
 21 22  1  0  0  0  0
 21 20  2  0  0  0  0
 23 21  1  0  0  0  0
 24 23  1  0  0  0  0
 25 23  2  0  0  0  0
 25 27  1  0  0  0  0
 26 25  1  0  0  0  0
 27 20  1  0  0  0  0
M  END
>  <minimizedAffinity>
-4.77479744

$$$$

 OpenBabel03262523453D

 27 29  0  0  0  0  0  0  0  0999 V2000
   38.4060   21.7710   33.5000 Cl  0  0  0  0  0  0  0  0  0  0  0  0
   37.9200   23.4400   33.4480 C   0  0  0  0  0  0  0  0  0  0  0  0
   38.3210   24.3110   34.4440 C   0  0  0  0  0  0  0  0  0  0  0  0
   37.9020   25.6250   34.3470 C   0  0  0  0  0  0  0  0  0  0  0  0
   37.1180   26.0830   33.3150 C   0  0  0  0  0  0  0  0  0  0  0  0
   36.7370   25.1740   32.3340 C   0  0  0  0  0  0  0  0  0  0  0  0
   35.7340   25.7660   31.0170 Cl  0  0  0  0  0  0  0  0  0  0  0  0
   37.1320   23.8450   32.3880 C   0  0  0  0  0  0  0  0  0  0  0  0
   38.2170   26.3050   35.1260 H   0  0  0  0  0  0  0  0  0  0  0  0
   36.8260   23.1390   31.6110 H   0  0  0  0  0  0  0  0  0  0  0  0
   39.4160   23.0040   37.8290 C   0  0  0  0  0  0  0  0  0  0  0  0
   38.6260   23.5130   36.7840 C   0  0  0  0  0  0  0  0  0  0  0  0
   39.1490   23.7850   35.5150 C   0  0  0  0  0  0  0  0  0  0  0  0
   40.4660   23.5260   35.3530 N   0  0  0  0  0  0  0  0  0  0  0  0
   41.2140   23.0380   36.3590 C   0  0  0  0  0  0  0  0  0  0  0  0
   40.7010   22.7820   37.5700 N   0  0  0  0  0  0  0  0  0  0  0  0
   38.9370   22.8240   38.7730 H   0  0  0  0  0  0  0  0  0  0  0  0
   37.5710   23.7040   36.9690 H   0  0  0  0  0  0  0  0  0  0  0  0
   42.2630   22.8790   36.0790 H   0  0  0  0  0  0  0  0  0  0  0  0
   36.6870   27.4750   33.2320 C   0  0  0  0  0  0  0  0  0  0  0  0
   36.2240   28.2070   34.3060 C   0  0  0  0  0  0  0  0  0  0  0  0
   36.1310   27.8320   35.3240 H   0  0  0  0  0  0  0  0  0  0  0  0
   35.9020   29.4860   33.8860 C   0  0  0  0  0  0  0  0  0  0  0  0
   35.5170   30.2490   34.5450 H   0  0  0  0  0  0  0  0  0  0  0  0
   36.1990   29.4550   32.5290 C   0  0  0  0  0  0  0  0  0  0  0  0
   36.0470   30.3400   31.9020 H   0  0  0  0  0  0  0  0  0  0  0  0
   36.6510   28.2630   32.2020 O   0  0  0  0  0  0  0  0  0  0  0  0
  2  1  1  0  0  0  0
  2  3  1  0  0  0  0
  3 13  1  0  0  0  0
  4  3  2  0  0  0  0
  4  9  1  0  0  0  0
  5  4  1  0  0  0  0
  6  8  1  0  0  0  0
  6  5  2  0  0  0  0
  7  6  1  0  0  0  0
  8  2  2  0  0  0  0
 10  8  1  0  0  0  0
 11 17  1  0  0  0  0
 12 18  1  0  0  0  0
 12 11  2  0  0  0  0
 13 12  1  0  0  0  0
 14 13  2  0  0  0  0
 14 15  1  0  0  0  0
 15 16  2  0  0  0  0
 16 11  1  0  0  0  0
 19 15  1  0  0  0  0
 20  5  1  0  0  0  0
 20 21  2  0  0  0  0
 21 22  1  0  0  0  0
 23 21  1  0  0  0  0
 23 24  1  0  0  0  0
 25 23  2  0  0  0  0
 26 25  1  0  0  0  0
 27 25  1  0  0  0  0
 27 20  1  0  0  0  0
M  END
>  <minimizedAffinity>
-4.69627857

$$$$

 OpenBabel03262523453D

 27 29  0  0  0  0  0  0  0  0999 V2000
   38.8460   27.1460   33.7820 Cl  0  0  0  0  0  0  0  0  0  0  0  0
   38.1040   25.6750   33.2250 C   0  0  0  0  0  0  0  0  0  0  0  0
   37.1110   25.7200   32.2640 C   0  0  0  0  0  0  0  0  0  0  0  0
   36.5600   24.5170   31.8620 C   0  0  0  0  0  0  0  0  0  0  0  0
   36.9580   23.3050   32.3770 C   0  0  0  0  0  0  0  0  0  0  0  0
   37.9590   23.3070   33.3410 C   0  0  0  0  0  0  0  0  0  0  0  0
   38.4640   21.7550   33.9950 Cl  0  0  0  0  0  0  0  0  0  0  0  0
   38.5430   24.4870   33.7760 C   0  0  0  0  0  0  0  0  0  0  0  0
   35.7830   24.5530   31.1110 H   0  0  0  0  0  0  0  0  0  0  0  0
   39.3300   24.4760   34.5360 H   0  0  0  0  0  0  0  0  0  0  0  0
   36.8840   28.7850   30.0470 C   0  0  0  0  0  0  0  0  0  0  0  0
   37.2530   27.5300   30.5580 C   0  0  0  0  0  0  0  0  0  0  0  0
   36.7210   27.0200   31.7480 C   0  0  0  0  0  0  0  0  0  0  0  0
   35.8270   27.8130   32.3800 N   0  0  0  0  0  0  0  0  0  0  0  0
   35.4800   29.0140   31.8830 C   0  0  0  0  0  0  0  0  0  0  0  0
   35.9970   29.4900   30.7420 N   0  0  0  0  0  0  0  0  0  0  0  0
   37.3400   29.1030   29.1280 H   0  0  0  0  0  0  0  0  0  0  0  0
   37.9770   26.9320   30.0090 H   0  0  0  0  0  0  0  0  0  0  0  0
   34.7460   29.5420   32.5050 H   0  0  0  0  0  0  0  0  0  0  0  0
   36.3620   22.0480   31.9390 C   0  0  0  0  0  0  0  0  0  0  0  0
   35.1910   21.5270   32.4500 C   0  0  0  0  0  0  0  0  0  0  0  0
   34.5880   21.9910   33.2290 H   0  0  0  0  0  0  0  0  0  0  0  0
   34.9070   20.3280   31.8190 C   0  0  0  0  0  0  0  0  0  0  0  0
   34.0400   19.7260   32.0460 H   0  0  0  0  0  0  0  0  0  0  0  0
   35.9620   20.1850   30.9270 C   0  0  0  0  0  0  0  0  0  0  0  0
   36.0240   19.3130   30.2670 H   0  0  0  0  0  0  0  0  0  0  0  0
   36.7790   21.2120   31.0380 O   0  0  0  0  0  0  0  0  0  0  0  0
  2  8  1  0  0  0  0
  2  1  1  0  0  0  0
  3  2  2  0  0  0  0
  4  3  1  0  0  0  0
  4  5  2  0  0  0  0
  5  6  1  0  0  0  0
  6  8  2  0  0  0  0
  6  7  1  0  0  0  0
  8 10  1  0  0  0  0
  9  4  1  0  0  0  0
 11 12  2  0  0  0  0
 11 16  1  0  0  0  0
 12 13  1  0  0  0  0
 13  3  1  0  0  0  0
 13 14  2  0  0  0  0
 15 14  1  0  0  0  0
 15 19  1  0  0  0  0
 16 15  2  0  0  0  0
 17 11  1  0  0  0  0
 18 12  1  0  0  0  0
 20  5  1  0  0  0  0
 20 21  2  0  0  0  0
 21 22  1  0  0  0  0
 23 24  1  0  0  0  0
 23 21  1  0  0  0  0
 25 27  1  0  0  0  0
 25 23  2  0  0  0  0
 26 25  1  0  0  0  0
 27 20  1  0  0  0  0
M  END
>  <minimizedAffinity>
-4.57814503

$$$$

 OpenBabel03262523453D

 27 29  0  0  0  0  0  0  0  0999 V2000
   38.8770   26.5030   30.4870 Cl  0  0  0  0  0  0  0  0  0  0  0  0
   38.0360   25.0500   30.9400 C   0  0  0  0  0  0  0  0  0  0  0  0
   36.9680   25.1110   31.8160 C   0  0  0  0  0  0  0  0  0  0  0  0
   36.3410   23.9210   32.1380 C   0  0  0  0  0  0  0  0  0  0  0  0
   36.7360   22.7070   31.6260 C   0  0  0  0  0  0  0  0  0  0  0  0
   37.8140   22.6920   30.7490 C   0  0  0  0  0  0  0  0  0  0  0  0
   38.3150   21.1380   30.0980 Cl  0  0  0  0  0  0  0  0  0  0  0  0
   38.4760   23.8590   30.3960 C   0  0  0  0  0  0  0  0  0  0  0  0
   35.5060   23.9690   32.8230 H   0  0  0  0  0  0  0  0  0  0  0  0
   39.3230   23.8350   29.7040 H   0  0  0  0  0  0  0  0  0  0  0  0
   35.3690   28.5350   32.0990 C   0  0  0  0  0  0  0  0  0  0  0  0
   35.7480   27.2730   31.6120 C   0  0  0  0  0  0  0  0  0  0  0  0
   36.5850   26.4120   32.3320 C   0  0  0  0  0  0  0  0  0  0  0  0
   37.0080   26.8700   33.5320 N   0  0  0  0  0  0  0  0  0  0  0  0
   36.6390   28.0810   33.9900 C   0  0  0  0  0  0  0  0  0  0  0  0
   35.8380   28.8950   33.2900 N   0  0  0  0  0  0  0  0  0  0  0  0
   34.7250   29.1340   31.4840 H   0  0  0  0  0  0  0  0  0  0  0  0
   35.3790   26.9530   30.6400 H   0  0  0  0  0  0  0  0  0  0  0  0
   37.0600   28.3140   34.9770 H   0  0  0  0  0  0  0  0  0  0  0  0
   36.0600   21.4640   31.9790 C   0  0  0  0  0  0  0  0  0  0  0  0
   36.2960   20.7570   33.1410 C   0  0  0  0  0  0  0  0  0  0  0  0
   37.0060   21.0460   33.9140 H   0  0  0  0  0  0  0  0  0  0  0  0
   35.4920   19.6310   33.1660 C   0  0  0  0  0  0  0  0  0  0  0  0
   35.4940   18.9150   33.9740 H   0  0  0  0  0  0  0  0  0  0  0  0
   34.7860   19.7220   31.9720 C   0  0  0  0  0  0  0  0  0  0  0  0
   34.0510   18.9590   31.6950 H   0  0  0  0  0  0  0  0  0  0  0  0
   35.1550   20.8060   31.3210 O   0  0  0  0  0  0  0  0  0  0  0  0
  1  2  1  0  0  0  0
  2  3  1  0  0  0  0
  3  4  2  0  0  0  0
  3 13  1  0  0  0  0
  4  9  1  0  0  0  0
  5 20  1  0  0  0  0
  5  4  1  0  0  0  0
  6  5  2  0  0  0  0
  7  6  1  0  0  0  0
  8  6  1  0  0  0  0
  8  2  2  0  0  0  0
 10  8  1  0  0  0  0
 11 16  1  0  0  0  0
 12 11  2  0  0  0  0
 12 13  1  0  0  0  0
 13 14  2  0  0  0  0
 14 15  1  0  0  0  0
 15 19  1  0  0  0  0
 16 15  2  0  0  0  0
 17 11  1  0  0  0  0
 18 12  1  0  0  0  0
 20 21  2  0  0  0  0
 21 23  1  0  0  0  0
 21 22  1  0  0  0  0
 23 24  1  0  0  0  0
 25 23  2  0  0  0  0
 26 25  1  0  0  0  0
 27 25  1  0  0  0  0
 27 20  1  0  0  0  0
M  END
>  <minimizedAffinity>
-4.55407715

$$$$
