
 OpenBabel03272506073D

 29 31  0  0  0  0  0  0  0  0999 V2000
   35.7030   28.8300   49.3220 C   0  0  0  0  0  0  0  0  0  0  0  0
   36.5440   28.7100   48.5810 H   0  0  0  0  0  0  0  0  0  0  0  0
   35.8820   28.0320   50.0710 H   0  0  0  0  0  0  0  0  0  0  0  0
   34.3890   28.6040   48.6300 C   0  0  0  0  0  0  0  0  0  0  0  0
   34.3340   28.7980   47.1840 C   0  0  0  0  0  0  0  0  0  0  0  0
   32.6290   28.4250   46.8660 S   0  0  0  0  0  0  0  0  0  0  0  0
   32.2370   28.0720   48.6630 C   0  0  0  0  0  0  0  0  0  0  0  0
   33.2800   28.2470   49.2200 N   0  0  0  0  0  0  0  0  0  0  0  0
   35.1790   29.0940   46.5580 H   0  0  0  0  0  0  0  0  0  0  0  0
   30.7960   27.6720   49.0010 C   0  0  0  0  0  0  0  0  0  0  0  0
   29.9330   26.9640   48.2320 C   0  0  0  0  0  0  0  0  0  0  0  0
   30.1300   26.5640   47.2470 H   0  0  0  0  0  0  0  0  0  0  0  0
   28.7880   26.9040   49.0360 C   0  0  0  0  0  0  0  0  0  0  0  0
   27.8680   26.4030   48.7420 H   0  0  0  0  0  0  0  0  0  0  0  0
   29.1030   27.5940   50.2100 C   0  0  0  0  0  0  0  0  0  0  0  0
   28.3870   27.7070   51.0270 H   0  0  0  0  0  0  0  0  0  0  0  0
   30.3400   28.0450   50.1440 O   0  0  0  0  0  0  0  0  0  0  0  0
   35.7590   30.1510   49.9880 C   0  0  0  0  0  0  0  0  0  0  0  0
   35.9240   30.1010   51.0950 H   0  0  0  0  0  0  0  0  0  0  0  0
   34.7780   30.6920   49.8910 H   0  0  0  0  0  0  0  0  0  0  0  0
   38.0410   32.9630   49.1900 C   0  0  0  0  0  0  0  0  0  0  0  0
   38.7390   32.5020   48.0760 C   0  0  0  0  0  0  0  0  0  0  0  0
   38.4110   31.2240   47.6130 C   0  0  0  0  0  0  0  0  0  0  0  0
   37.4540   30.5170   48.2590 N   0  0  0  0  0  0  0  0  0  0  0  0
   36.8110   31.0240   49.3410 C   0  0  0  0  0  0  0  0  0  0  0  0
   37.0850   32.2370   49.8230 N   0  0  0  0  0  0  0  0  0  0  0  0
   38.2090   33.9500   49.6460 H   0  0  0  0  0  0  0  0  0  0  0  0
   39.4770   33.1400   47.6390 H   0  0  0  0  0  0  0  0  0  0  0  0
   38.9420   30.8460   46.7470 H   0  0  0  0  0  0  0  0  0  0  0  0
  1 18  1  0  0  0  0
  1  3  1  0  0  0  0
  2  1  1  0  0  0  0
  4  8  1  0  0  0  0
  4  1  1  0  0  0  0
  5  4  2  0  0  0  0
  6  5  1  0  0  0  0
  6  7  1  0  0  0  0
  7 10  1  0  0  0  0
  7  8  2  0  0  0  0
  9  5  1  0  0  0  0
 10 17  1  0  0  0  0
 11 10  2  0  0  0  0
 11 13  1  0  0  0  0
 12 11  1  0  0  0  0
 13 15  2  0  0  0  0
 14 13  1  0  0  0  0
 15 16  1  0  0  0  0
 17 15  1  0  0  0  0
 18 19  1  0  0  0  0
 20 18  1  0  0  0  0
 21 27  1  0  0  0  0
 21 26  1  0  0  0  0
 22 21  2  0  0  0  0
 23 22  1  0  0  0  0
 23 24  2  0  0  0  0
 24 25  1  0  0  0  0
 25 26  2  0  0  0  0
 25 18  1  0  0  0  0
 28 22  1  0  0  0  0
 29 23  1  0  0  0  0
M  END
>  <minimizedAffinity>
-5.09610653

>  <minimizedRMSD>
0.997137725

$$$$
