
 OpenBabel03272508153D

 27 29  0  0  0  0  0  0  0  0999 V2000
   38.0310   22.9550   33.8680 Cl  0  0  0  0  0  0  0  0  0  0  0  0
   37.1310   24.0340   32.8380 C   0  0  0  0  0  0  0  0  0  0  0  0
   36.3430   23.3970   31.9170 C   0  0  0  0  0  0  0  0  0  0  0  0
   35.5770   24.1850   31.0410 C   0  0  0  0  0  0  0  0  0  0  0  0
   35.6090   25.5490   31.1000 C   0  0  0  0  0  0  0  0  0  0  0  0
   36.4000   26.1530   32.0230 C   0  0  0  0  0  0  0  0  0  0  0  0
   36.4360   27.9020   32.0920 Cl  0  0  0  0  0  0  0  0  0  0  0  0
   37.1610   25.3990   32.8940 C   0  0  0  0  0  0  0  0  0  0  0  0
   34.9250   23.7690   30.2790 H   0  0  0  0  0  0  0  0  0  0  0  0
   35.0190   26.1630   30.4260 H   0  0  0  0  0  0  0  0  0  0  0  0
   35.0880   21.3120   32.3040 C   0  0  0  0  0  0  0  0  0  0  0  0
   36.1610   21.9730   31.6870 C   0  0  0  0  0  0  0  0  0  0  0  0
   37.0000   21.1860   30.8740 C   0  0  0  0  0  0  0  0  0  0  0  0
   36.7310   19.8620   30.7380 N   0  0  0  0  0  0  0  0  0  0  0  0
   35.6840   19.2750   31.3540 C   0  0  0  0  0  0  0  0  0  0  0  0
   34.8670   20.0040   32.1360 N   0  0  0  0  0  0  0  0  0  0  0  0
   34.3810   21.8200   32.9500 H   0  0  0  0  0  0  0  0  0  0  0  0
   37.8280   21.6910   30.3970 H   0  0  0  0  0  0  0  0  0  0  0  0
   35.6470   18.2190   31.1150 H   0  0  0  0  0  0  0  0  0  0  0  0
   37.9890   26.1010   33.8630 C   0  0  0  0  0  0  0  0  0  0  0  0
   37.7720   26.6180   35.1130 C   0  0  0  0  0  0  0  0  0  0  0  0
   36.8450   26.5890   35.6540 H   0  0  0  0  0  0  0  0  0  0  0  0
   38.8950   27.2060   35.6440 C   0  0  0  0  0  0  0  0  0  0  0  0
   39.0520   27.6890   36.5770 H   0  0  0  0  0  0  0  0  0  0  0  0
   39.8140   27.0150   34.6390 C   0  0  0  0  0  0  0  0  0  0  0  0
   40.8650   27.3140   34.5960 H   0  0  0  0  0  0  0  0  0  0  0  0
   39.2460   26.3940   33.6740 O   0  0  0  0  0  0  0  0  0  0  0  0
  2  8  1  0  0  0  0
  2  1  1  0  0  0  0
  3  2  2  0  0  0  0
  4  5  2  0  0  0  0
  4  3  1  0  0  0  0
  5  6  1  0  0  0  0
  6  7  1  0  0  0  0
  6  8  2  0  0  0  0
  8 20  1  0  0  0  0
  9  4  1  0  0  0  0
 10  5  1  0  0  0  0
 11 17  1  0  0  0  0
 12  3  1  0  0  0  0
 12 11  2  0  0  0  0
 13 12  1  0  0  0  0
 14 13  2  0  0  0  0
 14 15  1  0  0  0  0
 15 16  2  0  0  0  0
 16 11  1  0  0  0  0
 18 13  1  0  0  0  0
 19 15  1  0  0  0  0
 20 21  2  0  0  0  0
 21 23  1  0  0  0  0
 21 22  1  0  0  0  0
 23 24  1  0  0  0  0
 25 23  2  0  0  0  0
 26 25  1  0  0  0  0
 27 20  1  0  0  0  0
 27 25  1  0  0  0  0
M  END
>  <minimizedAffinity>
-5.16898203

$$$$

 OpenBabel03272508153D

 27 29  0  0  0  0  0  0  0  0999 V2000
   34.9300   25.0120   30.7260 Cl  0  0  0  0  0  0  0  0  0  0  0  0
   36.3240   24.8790   31.7630 C   0  0  0  0  0  0  0  0  0  0  0  0
   36.8970   26.0800   32.0820 C   0  0  0  0  0  0  0  0  0  0  0  0
   38.0280   26.0740   32.9170 C   0  0  0  0  0  0  0  0  0  0  0  0
   38.5470   24.9080   33.4020 C   0  0  0  0  0  0  0  0  0  0  0  0
   37.9570   23.7320   33.0680 C   0  0  0  0  0  0  0  0  0  0  0  0
   38.6290   22.2410   33.6940 Cl  0  0  0  0  0  0  0  0  0  0  0  0
   36.8460   23.7140   32.2500 C   0  0  0  0  0  0  0  0  0  0  0  0
   38.5500   26.9760   33.2240 H   0  0  0  0  0  0  0  0  0  0  0  0
   39.4200   24.8970   34.0480 H   0  0  0  0  0  0  0  0  0  0  0  0
   37.0170   27.9530   30.4860 C   0  0  0  0  0  0  0  0  0  0  0  0
   36.5100   27.4230   31.6820 C   0  0  0  0  0  0  0  0  0  0  0  0
   35.6460   28.2540   32.4220 C   0  0  0  0  0  0  0  0  0  0  0  0
   35.3590   29.4930   31.9480 N   0  0  0  0  0  0  0  0  0  0  0  0
   35.8740   29.9560   30.7900 C   0  0  0  0  0  0  0  0  0  0  0  0
   36.7020   29.1830   30.0640 N   0  0  0  0  0  0  0  0  0  0  0  0
   37.6900   27.4020   29.8400 H   0  0  0  0  0  0  0  0  0  0  0  0
   35.2530   27.8490   33.3440 H   0  0  0  0  0  0  0  0  0  0  0  0
   35.5220   30.9620   30.5930 H   0  0  0  0  0  0  0  0  0  0  0  0
   36.2560   22.4240   31.9250 C   0  0  0  0  0  0  0  0  0  0  0  0
   35.2060   21.6970   32.4240 C   0  0  0  0  0  0  0  0  0  0  0  0
   34.5650   21.9910   33.2340 H   0  0  0  0  0  0  0  0  0  0  0  0
   35.0330   20.5010   31.7700 C   0  0  0  0  0  0  0  0  0  0  0  0
   34.3210   19.7260   31.9140 H   0  0  0  0  0  0  0  0  0  0  0  0
   36.0430   20.5420   30.8370 C   0  0  0  0  0  0  0  0  0  0  0  0
   36.3130   19.8040   30.0770 H   0  0  0  0  0  0  0  0  0  0  0  0
   36.6890   21.6390   30.9770 O   0  0  0  0  0  0  0  0  0  0  0  0
  1  2  1  0  0  0  0
  2  3  2  0  0  0  0
  2  8  1  0  0  0  0
  3  4  1  0  0  0  0
  4  9  1  0  0  0  0
  4  5  2  0  0  0  0
  5 10  1  0  0  0  0
  6  5  1  0  0  0  0
  6  7  1  0  0  0  0
  8  6  2  0  0  0  0
 11 12  1  0  0  0  0
 12  3  1  0  0  0  0
 12 13  2  0  0  0  0
 13 18  1  0  0  0  0
 14 13  1  0  0  0  0
 15 14  2  0  0  0  0
 16 11  2  0  0  0  0
 16 15  1  0  0  0  0
 17 11  1  0  0  0  0
 19 15  1  0  0  0  0
 20  8  1  0  0  0  0
 20 21  2  0  0  0  0
 21 22  1  0  0  0  0
 23 24  1  0  0  0  0
 23 21  1  0  0  0  0
 25 27  1  0  0  0  0
 25 23  2  0  0  0  0
 26 25  1  0  0  0  0
 27 20  1  0  0  0  0
M  END
>  <minimizedAffinity>
-4.78843403

$$$$

 OpenBabel03272508153D

 27 29  0  0  0  0  0  0  0  0999 V2000
   36.3370   28.0330   34.5090 Cl  0  0  0  0  0  0  0  0  0  0  0  0
   36.0290   29.1440   33.2010 C   0  0  0  0  0  0  0  0  0  0  0  0
   36.3230   28.6410   31.9630 C   0  0  0  0  0  0  0  0  0  0  0  0
   36.1060   29.4630   30.8440 C   0  0  0  0  0  0  0  0  0  0  0  0
   35.6150   30.7310   30.9790 C   0  0  0  0  0  0  0  0  0  0  0  0
   35.3330   31.2020   32.2200 C   0  0  0  0  0  0  0  0  0  0  0  0
   34.7030   32.8280   32.3840 Cl  0  0  0  0  0  0  0  0  0  0  0  0
   35.5370   30.4120   33.3330 C   0  0  0  0  0  0  0  0  0  0  0  0
   36.3100   29.1520   29.8240 H   0  0  0  0  0  0  0  0  0  0  0  0
   35.4440   31.3710   30.1190 H   0  0  0  0  0  0  0  0  0  0  0  0
   35.9490   26.2940   31.3110 C   0  0  0  0  0  0  0  0  0  0  0  0
   36.8460   27.3340   31.5980 C   0  0  0  0  0  0  0  0  0  0  0  0
   38.2180   27.0240   31.5110 C   0  0  0  0  0  0  0  0  0  0  0  0
   38.5870   25.7650   31.1630 N   0  0  0  0  0  0  0  0  0  0  0  0
   37.6830   24.7990   30.8960 C   0  0  0  0  0  0  0  0  0  0  0  0
   36.3670   25.0690   30.9730 N   0  0  0  0  0  0  0  0  0  0  0  0
   34.8740   26.4210   31.3480 H   0  0  0  0  0  0  0  0  0  0  0  0
   38.9120   27.8220   31.7310 H   0  0  0  0  0  0  0  0  0  0  0  0
   38.1820   23.8720   30.6410 H   0  0  0  0  0  0  0  0  0  0  0  0
   35.2170   30.9710   34.6380 C   0  0  0  0  0  0  0  0  0  0  0  0
   35.9400   31.6110   35.6100 C   0  0  0  0  0  0  0  0  0  0  0  0
   36.9890   31.8360   35.5690 H   0  0  0  0  0  0  0  0  0  0  0  0
   35.1740   31.9590   36.6960 C   0  0  0  0  0  0  0  0  0  0  0  0
   35.4310   32.4560   37.5980 H   0  0  0  0  0  0  0  0  0  0  0  0
   33.9340   31.4910   36.3260 C   0  0  0  0  0  0  0  0  0  0  0  0
   32.9870   31.5340   36.8720 H   0  0  0  0  0  0  0  0  0  0  0  0
   34.0260   30.9500   35.1690 O   0  0  0  0  0  0  0  0  0  0  0  0
  2  8  1  0  0  0  0
  2  1  1  0  0  0  0
  3  2  2  0  0  0  0
  4  5  2  0  0  0  0
  4  3  1  0  0  0  0
  5  6  1  0  0  0  0
  6  7  1  0  0  0  0
  6  8  2  0  0  0  0
  8 20  1  0  0  0  0
  9  4  1  0  0  0  0
 10  5  1  0  0  0  0
 11 17  1  0  0  0  0
 11 12  1  0  0  0  0
 12  3  1  0  0  0  0
 13 12  2  0  0  0  0
 13 18  1  0  0  0  0
 14 13  1  0  0  0  0
 15 16  1  0  0  0  0
 15 14  2  0  0  0  0
 16 11  2  0  0  0  0
 19 15  1  0  0  0  0
 20 27  1  0  0  0  0
 20 21  2  0  0  0  0
 21 23  1  0  0  0  0
 22 21  1  0  0  0  0
 23 24  1  0  0  0  0
 25 23  2  0  0  0  0
 25 26  1  0  0  0  0
 27 25  1  0  0  0  0
M  END
>  <minimizedAffinity>
-4.74384785

$$$$

 OpenBabel03272508153D

 27 29  0  0  0  0  0  0  0  0999 V2000
   36.6280   27.9640   34.7910 Cl  0  0  0  0  0  0  0  0  0  0  0  0
   36.3700   28.8280   33.3000 C   0  0  0  0  0  0  0  0  0  0  0  0
   35.6750   29.9980   33.4480 C   0  0  0  0  0  0  0  0  0  0  0  0
   35.4180   30.7670   32.2990 C   0  0  0  0  0  0  0  0  0  0  0  0
   35.8480   30.3660   31.0660 C   0  0  0  0  0  0  0  0  0  0  0  0
   36.5340   29.2010   30.9500 C   0  0  0  0  0  0  0  0  0  0  0  0
   37.0800   28.6950   29.3660 Cl  0  0  0  0  0  0  0  0  0  0  0  0
   36.7980   28.4300   32.0650 C   0  0  0  0  0  0  0  0  0  0  0  0
   34.8760   31.7070   32.3180 H   0  0  0  0  0  0  0  0  0  0  0  0
   35.6530   30.9560   30.1750 H   0  0  0  0  0  0  0  0  0  0  0  0
   33.7790   30.4180   34.9650 C   0  0  0  0  0  0  0  0  0  0  0  0
   35.1350   30.6050   34.6540 C   0  0  0  0  0  0  0  0  0  0  0  0
   35.8850   31.3860   35.5530 C   0  0  0  0  0  0  0  0  0  0  0  0
   35.2690   31.9050   36.6470 N   0  0  0  0  0  0  0  0  0  0  0  0
   33.9600   31.6950   36.9010 C   0  0  0  0  0  0  0  0  0  0  0  0
   33.2210   30.9520   36.0560 N   0  0  0  0  0  0  0  0  0  0  0  0
   33.1100   29.8360   34.3420 H   0  0  0  0  0  0  0  0  0  0  0  0
   36.9290   31.5320   35.3180 H   0  0  0  0  0  0  0  0  0  0  0  0
   33.6670   32.1930   37.8170 H   0  0  0  0  0  0  0  0  0  0  0  0
   37.5380   27.1910   31.8800 C   0  0  0  0  0  0  0  0  0  0  0  0
   38.8620   26.8460   31.9520 C   0  0  0  0  0  0  0  0  0  0  0  0
   39.6730   27.5080   32.1860 H   0  0  0  0  0  0  0  0  0  0  0  0
   39.0760   25.5140   31.6890 C   0  0  0  0  0  0  0  0  0  0  0  0
   39.9720   24.9450   31.6660 H   0  0  0  0  0  0  0  0  0  0  0  0
   37.7980   25.0660   31.4510 C   0  0  0  0  0  0  0  0  0  0  0  0
   37.4530   24.0600   31.1950 H   0  0  0  0  0  0  0  0  0  0  0  0
   36.9870   26.0490   31.5720 O   0  0  0  0  0  0  0  0  0  0  0  0
  2  3  1  0  0  0  0
  2  1  1  0  0  0  0
  3 12  1  0  0  0  0
  4  9  1  0  0  0  0
  4  3  2  0  0  0  0
  5  4  1  0  0  0  0
  6  5  2  0  0  0  0
  6  8  1  0  0  0  0
  7  6  1  0  0  0  0
  8  2  2  0  0  0  0
 10  5  1  0  0  0  0
 11 16  1  0  0  0  0
 12 11  2  0  0  0  0
 12 13  1  0  0  0  0
 13 14  2  0  0  0  0
 14 15  1  0  0  0  0
 15 19  1  0  0  0  0
 16 15  2  0  0  0  0
 17 11  1  0  0  0  0
 18 13  1  0  0  0  0
 20 21  2  0  0  0  0
 20  8  1  0  0  0  0
 21 22  1  0  0  0  0
 23 21  1  0  0  0  0
 24 23  1  0  0  0  0
 25 27  1  0  0  0  0
 25 23  2  0  0  0  0
 26 25  1  0  0  0  0
 27 20  1  0  0  0  0
M  END
>  <minimizedAffinity>
-4.70990276

$$$$

 OpenBabel03272508153D

 27 29  0  0  0  0  0  0  0  0999 V2000
   36.4730   28.0010   34.6460 Cl  0  0  0  0  0  0  0  0  0  0  0  0
   36.1070   29.0330   33.2920 C   0  0  0  0  0  0  0  0  0  0  0  0
   36.4240   28.4900   32.0760 C   0  0  0  0  0  0  0  0  0  0  0  0
   36.1630   29.2490   30.9220 C   0  0  0  0  0  0  0  0  0  0  0  0
   35.6080   30.4950   31.0010 C   0  0  0  0  0  0  0  0  0  0  0  0
   35.3050   31.0070   32.2210 C   0  0  0  0  0  0  0  0  0  0  0  0
   34.5930   32.6050   32.3140 Cl  0  0  0  0  0  0  0  0  0  0  0  0
   35.5520   30.2800   33.3680 C   0  0  0  0  0  0  0  0  0  0  0  0
   36.3800   28.9020   29.9160 H   0  0  0  0  0  0  0  0  0  0  0  0
   35.4030   31.0850   30.1130 H   0  0  0  0  0  0  0  0  0  0  0  0
   38.4050   27.0920   31.6400 C   0  0  0  0  0  0  0  0  0  0  0  0
   37.0120   27.1970   31.7680 C   0  0  0  0  0  0  0  0  0  0  0  0
   36.2730   26.0130   31.5820 C   0  0  0  0  0  0  0  0  0  0  0  0
   36.9340   24.8620   31.2940 N   0  0  0  0  0  0  0  0  0  0  0  0
   38.2780   24.8150   31.1820 C   0  0  0  0  0  0  0  0  0  0  0  0
   39.0080   25.9330   31.3550 N   0  0  0  0  0  0  0  0  0  0  0  0
   39.0700   27.9400   31.7620 H   0  0  0  0  0  0  0  0  0  0  0  0
   35.1990   26.0880   31.6800 H   0  0  0  0  0  0  0  0  0  0  0  0
   38.6040   23.8090   30.9490 H   0  0  0  0  0  0  0  0  0  0  0  0
   35.2060   30.8800   34.6470 C   0  0  0  0  0  0  0  0  0  0  0  0
   35.9230   31.4760   35.6510 C   0  0  0  0  0  0  0  0  0  0  0  0
   36.9870   31.6190   35.6650 H   0  0  0  0  0  0  0  0  0  0  0  0
   35.1290   31.8980   36.6900 C   0  0  0  0  0  0  0  0  0  0  0  0
   35.3750   32.3870   37.6000 H   0  0  0  0  0  0  0  0  0  0  0  0
   33.8780   31.5230   36.2570 C   0  0  0  0  0  0  0  0  0  0  0  0
   32.9100   31.6460   36.7500 H   0  0  0  0  0  0  0  0  0  0  0  0
   33.9900   30.9600   35.1130 O   0  0  0  0  0  0  0  0  0  0  0  0
  2  8  1  0  0  0  0
  2  1  1  0  0  0  0
  3  2  2  0  0  0  0
  4  5  2  0  0  0  0
  4  3  1  0  0  0  0
  5  6  1  0  0  0  0
  6  7  1  0  0  0  0
  6  8  2  0  0  0  0
  8 20  1  0  0  0  0
  9  4  1  0  0  0  0
 10  5  1  0  0  0  0
 11 17  1  0  0  0  0
 11 12  1  0  0  0  0
 12  3  1  0  0  0  0
 13 18  1  0  0  0  0
 13 12  2  0  0  0  0
 14 13  1  0  0  0  0
 15 14  2  0  0  0  0
 15 16  1  0  0  0  0
 16 11  2  0  0  0  0
 19 15  1  0  0  0  0
 20 27  1  0  0  0  0
 20 21  2  0  0  0  0
 21 22  1  0  0  0  0
 21 23  1  0  0  0  0
 23 24  1  0  0  0  0
 25 23  2  0  0  0  0
 25 26  1  0  0  0  0
 27 25  1  0  0  0  0
M  END
>  <minimizedAffinity>
-4.69053268

$$$$

 OpenBabel03272508153D

 27 29  0  0  0  0  0  0  0  0999 V2000
   38.9910   26.5260   34.8630 Cl  0  0  0  0  0  0  0  0  0  0  0  0
   38.1700   25.3300   33.8970 C   0  0  0  0  0  0  0  0  0  0  0  0
   38.4280   24.0400   34.2720 C   0  0  0  0  0  0  0  0  0  0  0  0
   37.8100   23.0030   33.5520 C   0  0  0  0  0  0  0  0  0  0  0  0
   36.9710   23.2670   32.5060 C   0  0  0  0  0  0  0  0  0  0  0  0
   36.7350   24.5580   32.1570 C   0  0  0  0  0  0  0  0  0  0  0  0
   35.6600   24.8870   30.8150 Cl  0  0  0  0  0  0  0  0  0  0  0  0
   37.3320   25.5910   32.8500 C   0  0  0  0  0  0  0  0  0  0  0  0
   37.9540   21.9510   33.7760 H   0  0  0  0  0  0  0  0  0  0  0  0
   36.4900   22.4710   31.9460 H   0  0  0  0  0  0  0  0  0  0  0  0
   38.7220   23.3440   36.6180 C   0  0  0  0  0  0  0  0  0  0  0  0
   39.2760   23.5420   35.3440 C   0  0  0  0  0  0  0  0  0  0  0  0
   40.6430   23.2380   35.1980 C   0  0  0  0  0  0  0  0  0  0  0  0
   41.3340   22.7820   36.2740 N   0  0  0  0  0  0  0  0  0  0  0  0
   40.7540   22.6090   37.4800 C   0  0  0  0  0  0  0  0  0  0  0  0
   39.4490   22.8920   37.6460 N   0  0  0  0  0  0  0  0  0  0  0  0
   37.6810   23.5460   36.8420 H   0  0  0  0  0  0  0  0  0  0  0  0
   41.0740   23.3890   34.2180 H   0  0  0  0  0  0  0  0  0  0  0  0
   41.4750   22.2400   38.1990 H   0  0  0  0  0  0  0  0  0  0  0  0
   37.0410   26.9540   32.4310 C   0  0  0  0  0  0  0  0  0  0  0  0
   37.6300   27.8360   31.5640 C   0  0  0  0  0  0  0  0  0  0  0  0
   38.5090   27.6490   30.9770 H   0  0  0  0  0  0  0  0  0  0  0  0
   36.9700   29.0400   31.5040 C   0  0  0  0  0  0  0  0  0  0  0  0
   37.1700   29.9160   30.9380 H   0  0  0  0  0  0  0  0  0  0  0  0
   35.9380   28.8380   32.3910 C   0  0  0  0  0  0  0  0  0  0  0  0
   35.1360   29.5200   32.6860 H   0  0  0  0  0  0  0  0  0  0  0  0
   36.0350   27.6560   32.8740 O   0  0  0  0  0  0  0  0  0  0  0  0
  2  3  1  0  0  0  0
  2  1  1  0  0  0  0
  3 12  1  0  0  0  0
  4  9  1  0  0  0  0
  4  3  2  0  0  0  0
  5  4  1  0  0  0  0
  6  5  2  0  0  0  0
  6  8  1  0  0  0  0
  7  6  1  0  0  0  0
  8  2  2  0  0  0  0
 10  5  1  0  0  0  0
 11 17  1  0  0  0  0
 11 16  1  0  0  0  0
 12 11  2  0  0  0  0
 13 12  1  0  0  0  0
 13 14  2  0  0  0  0
 14 15  1  0  0  0  0
 15 16  2  0  0  0  0
 15 19  1  0  0  0  0
 18 13  1  0  0  0  0
 20  8  1  0  0  0  0
 20 27  1  0  0  0  0
 21 20  2  0  0  0  0
 22 21  1  0  0  0  0
 23 21  1  0  0  0  0
 23 25  2  0  0  0  0
 24 23  1  0  0  0  0
 25 26  1  0  0  0  0
 25 27  1  0  0  0  0
M  END
>  <minimizedAffinity>
-4.67302275

$$$$

 OpenBabel03272508153D

 27 29  0  0  0  0  0  0  0  0999 V2000
   38.2290   26.5940   35.1150 Cl  0  0  0  0  0  0  0  0  0  0  0  0
   38.0800   25.1790   34.1090 C   0  0  0  0  0  0  0  0  0  0  0  0
   38.2100   23.9970   34.7880 C   0  0  0  0  0  0  0  0  0  0  0  0
   38.1030   22.7990   34.0600 C   0  0  0  0  0  0  0  0  0  0  0  0
   37.8740   22.8040   32.7140 C   0  0  0  0  0  0  0  0  0  0  0  0
   37.7490   23.9910   32.0680 C   0  0  0  0  0  0  0  0  0  0  0  0
   37.4560   23.9880   30.3420 Cl  0  0  0  0  0  0  0  0  0  0  0  0
   37.8510   25.1800   32.7620 C   0  0  0  0  0  0  0  0  0  0  0  0
   38.1930   21.8160   34.5120 H   0  0  0  0  0  0  0  0  0  0  0  0
   37.7890   21.8820   32.1470 H   0  0  0  0  0  0  0  0  0  0  0  0
   39.6680   23.1960   36.6050 C   0  0  0  0  0  0  0  0  0  0  0  0
   38.4520   23.7680   36.2030 C   0  0  0  0  0  0  0  0  0  0  0  0
   37.5350   24.0810   37.2250 C   0  0  0  0  0  0  0  0  0  0  0  0
   37.8710   23.8160   38.5140 N   0  0  0  0  0  0  0  0  0  0  0  0
   39.0560   23.2640   38.8490 C   0  0  0  0  0  0  0  0  0  0  0  0
   39.9500   22.9560   37.8900 N   0  0  0  0  0  0  0  0  0  0  0  0
   40.4440   22.9150   35.9030 H   0  0  0  0  0  0  0  0  0  0  0  0
   36.5970   24.5210   36.9200 H   0  0  0  0  0  0  0  0  0  0  0  0
   39.1260   23.1370   39.9220 H   0  0  0  0  0  0  0  0  0  0  0  0
   37.7090   26.4220   32.0170 C   0  0  0  0  0  0  0  0  0  0  0  0
   38.5890   27.3060   31.4510 C   0  0  0  0  0  0  0  0  0  0  0  0
   39.6600   27.2220   31.4620 H   0  0  0  0  0  0  0  0  0  0  0  0
   37.9580   28.3620   30.8370 C   0  0  0  0  0  0  0  0  0  0  0  0
   38.3510   29.1990   30.3170 H   0  0  0  0  0  0  0  0  0  0  0  0
   36.6340   28.0660   31.0630 C   0  0  0  0  0  0  0  0  0  0  0  0
   35.7400   28.6200   30.7620 H   0  0  0  0  0  0  0  0  0  0  0  0
   36.5630   26.9730   31.7260 O   0  0  0  0  0  0  0  0  0  0  0  0
  2  3  1  0  0  0  0
  2  1  1  0  0  0  0
  3 12  1  0  0  0  0
  4  9  1  0  0  0  0
  4  3  2  0  0  0  0
  5  4  1  0  0  0  0
  6  5  2  0  0  0  0
  6  8  1  0  0  0  0
  7  6  1  0  0  0  0
  8  2  2  0  0  0  0
 10  5  1  0  0  0  0
 11 16  1  0  0  0  0
 12 11  2  0  0  0  0
 12 13  1  0  0  0  0
 13 14  2  0  0  0  0
 14 15  1  0  0  0  0
 15 19  1  0  0  0  0
 16 15  2  0  0  0  0
 17 11  1  0  0  0  0
 18 13  1  0  0  0  0
 20  8  1  0  0  0  0
 21 22  1  0  0  0  0
 21 20  2  0  0  0  0
 23 25  2  0  0  0  0
 23 21  1  0  0  0  0
 24 23  1  0  0  0  0
 25 27  1  0  0  0  0
 26 25  1  0  0  0  0
 27 20  1  0  0  0  0
M  END
>  <minimizedAffinity>
-4.66743279

$$$$

 OpenBabel03272508153D

 27 29  0  0  0  0  0  0  0  0999 V2000
   38.6540   22.7760   33.0350 Cl  0  0  0  0  0  0  0  0  0  0  0  0
   37.3800   23.6870   32.2720 C   0  0  0  0  0  0  0  0  0  0  0  0
   36.3220   22.9240   31.8560 C   0  0  0  0  0  0  0  0  0  0  0  0
   35.2430   23.5710   31.2290 C   0  0  0  0  0  0  0  0  0  0  0  0
   35.2410   24.9240   31.0370 C   0  0  0  0  0  0  0  0  0  0  0  0
   36.3040   25.6540   31.4590 C   0  0  0  0  0  0  0  0  0  0  0  0
   36.2930   27.3870   31.2090 Cl  0  0  0  0  0  0  0  0  0  0  0  0
   37.3740   25.0400   32.0780 C   0  0  0  0  0  0  0  0  0  0  0  0
   34.3630   23.0500   30.8660 H   0  0  0  0  0  0  0  0  0  0  0  0
   34.4100   25.4290   30.5530 H   0  0  0  0  0  0  0  0  0  0  0  0
   35.6440   20.9520   33.1670 C   0  0  0  0  0  0  0  0  0  0  0  0
   36.1220   21.4880   31.9620 C   0  0  0  0  0  0  0  0  0  0  0  0
   36.3810   20.5720   30.9240 C   0  0  0  0  0  0  0  0  0  0  0  0
   36.1580   19.2500   31.1430 N   0  0  0  0  0  0  0  0  0  0  0  0
   35.6960   18.7850   32.3230 C   0  0  0  0  0  0  0  0  0  0  0  0
   35.4420   19.6400   33.3310 N   0  0  0  0  0  0  0  0  0  0  0  0
   35.4130   21.5650   34.0310 H   0  0  0  0  0  0  0  0  0  0  0  0
   36.7490   20.9810   29.9950 H   0  0  0  0  0  0  0  0  0  0  0  0
   35.5890   17.7080   32.2900 H   0  0  0  0  0  0  0  0  0  0  0  0
   38.4860   25.8730   32.5100 C   0  0  0  0  0  0  0  0  0  0  0  0
   38.8140   26.4990   33.6840 C   0  0  0  0  0  0  0  0  0  0  0  0
   38.2410   26.4780   34.5910 H   0  0  0  0  0  0  0  0  0  0  0  0
   39.9990   27.1920   33.6000 C   0  0  0  0  0  0  0  0  0  0  0  0
   40.5190   27.7700   34.3230 H   0  0  0  0  0  0  0  0  0  0  0  0
   40.3750   26.9490   32.3000 C   0  0  0  0  0  0  0  0  0  0  0  0
   41.2610   27.2940   31.7590 H   0  0  0  0  0  0  0  0  0  0  0  0
   39.4890   26.2090   31.7460 O   0  0  0  0  0  0  0  0  0  0  0  0
  2  1  1  0  0  0  0
  3 12  1  0  0  0  0
  3  2  2  0  0  0  0
  4  3  1  0  0  0  0
  5  4  2  0  0  0  0
  5  6  1  0  0  0  0
  6  8  2  0  0  0  0
  7  6  1  0  0  0  0
  8  2  1  0  0  0  0
  8 20  1  0  0  0  0
  9  4  1  0  0  0  0
 10  5  1  0  0  0  0
 11 16  1  0  0  0  0
 11 17  1  0  0  0  0
 12 11  2  0  0  0  0
 13 14  2  0  0  0  0
 13 12  1  0  0  0  0
 14 15  1  0  0  0  0
 15 16  2  0  0  0  0
 18 13  1  0  0  0  0
 19 15  1  0  0  0  0
 20 21  2  0  0  0  0
 21 22  1  0  0  0  0
 23 21  1  0  0  0  0
 23 24  1  0  0  0  0
 25 23  2  0  0  0  0
 26 25  1  0  0  0  0
 27 25  1  0  0  0  0
 27 20  1  0  0  0  0
M  END
>  <minimizedAffinity>
-4.65130281

$$$$

 OpenBabel03272508153D

 27 29  0  0  0  0  0  0  0  0999 V2000
   34.9350   25.3520   30.6700 Cl  0  0  0  0  0  0  0  0  0  0  0  0
   36.2870   25.2910   31.7670 C   0  0  0  0  0  0  0  0  0  0  0  0
   36.7610   26.5210   32.1360 C   0  0  0  0  0  0  0  0  0  0  0  0
   37.8520   26.5740   33.0210 C   0  0  0  0  0  0  0  0  0  0  0  0
   38.4280   25.4340   33.5070 C   0  0  0  0  0  0  0  0  0  0  0  0
   37.9360   24.2290   33.1230 C   0  0  0  0  0  0  0  0  0  0  0  0
   38.6810   22.7740   33.7510 Cl  0  0  0  0  0  0  0  0  0  0  0  0
   36.8660   24.1530   32.2550 C   0  0  0  0  0  0  0  0  0  0  0  0
   38.2950   27.5020   33.3690 H   0  0  0  0  0  0  0  0  0  0  0  0
   39.2700   25.4690   34.1920 H   0  0  0  0  0  0  0  0  0  0  0  0
   35.3200   28.4830   32.5180 C   0  0  0  0  0  0  0  0  0  0  0  0
   36.3000   27.8430   31.7440 C   0  0  0  0  0  0  0  0  0  0  0  0
   36.7700   28.5460   30.6180 C   0  0  0  0  0  0  0  0  0  0  0  0
   36.2610   29.7760   30.3500 N   0  0  0  0  0  0  0  0  0  0  0  0
   35.3180   30.3480   31.1280 C   0  0  0  0  0  0  0  0  0  0  0  0
   34.8520   29.6970   32.2090 N   0  0  0  0  0  0  0  0  0  0  0  0
   34.8880   28.0330   33.4050 H   0  0  0  0  0  0  0  0  0  0  0  0
   37.5250   28.0570   30.0190 H   0  0  0  0  0  0  0  0  0  0  0  0
   35.0490   31.3240   30.7420 H   0  0  0  0  0  0  0  0  0  0  0  0
   36.3820   22.8340   31.8790 C   0  0  0  0  0  0  0  0  0  0  0  0
   36.8090   21.8700   31.0040 C   0  0  0  0  0  0  0  0  0  0  0  0
   37.6760   21.9310   30.3740 H   0  0  0  0  0  0  0  0  0  0  0  0
   35.9960   20.7610   30.9990 C   0  0  0  0  0  0  0  0  0  0  0  0
   36.0530   19.8590   30.4430 H   0  0  0  0  0  0  0  0  0  0  0  0
   35.0430   21.1090   31.9290 C   0  0  0  0  0  0  0  0  0  0  0  0
   34.1730   20.5420   32.2740 H   0  0  0  0  0  0  0  0  0  0  0  0
   35.3150   22.2760   32.3810 O   0  0  0  0  0  0  0  0  0  0  0  0
  1  2  1  0  0  0  0
  2  3  2  0  0  0  0
  2  8  1  0  0  0  0
  3  4  1  0  0  0  0
  4  9  1  0  0  0  0
  4  5  2  0  0  0  0
  5 10  1  0  0  0  0
  6  5  1  0  0  0  0
  6  7  1  0  0  0  0
  8  6  2  0  0  0  0
 11 17  1  0  0  0  0
 12  3  1  0  0  0  0
 12 11  2  0  0  0  0
 13 12  1  0  0  0  0
 14 13  2  0  0  0  0
 14 15  1  0  0  0  0
 15 16  2  0  0  0  0
 16 11  1  0  0  0  0
 18 13  1  0  0  0  0
 19 15  1  0  0  0  0
 20  8  1  0  0  0  0
 20 27  1  0  0  0  0
 21 20  2  0  0  0  0
 22 21  1  0  0  0  0
 23 21  1  0  0  0  0
 23 25  2  0  0  0  0
 24 23  1  0  0  0  0
 25 26  1  0  0  0  0
 25 27  1  0  0  0  0
M  END
>  <minimizedAffinity>
-4.62644148

$$$$
