
 OpenBabel03262522003D

 35 37  0  0  1  0  0  0  0  0999 V2000
   37.9460   25.5000   33.8000 N   0  0  0  0  0  0  0  0  0  0  0  0
   38.3080   24.6810   34.9120 C   0  0  0  0  0  0  0  0  0  0  0  0
   38.2660   25.2840   36.2540 C   0  0  0  0  0  0  0  0  0  0  0  0
   38.3770   26.7610   36.3680 C   0  0  0  0  0  0  0  0  0  0  0  0
   38.1110   27.5240   35.1090 C   0  0  0  0  0  0  0  0  0  0  0  0
   38.6310   26.7430   33.8920 C   0  0  1  0  0  0  0  0  0  0  0  0
   39.2740   24.1080   34.7610 H   0  0  0  0  0  0  0  0  0  0  0  0
   37.5700   23.8280   34.8680 H   0  0  0  0  0  0  0  0  0  0  0  0
   39.1260   24.8790   36.8720 H   0  0  0  0  0  0  0  0  0  0  0  0
   37.3870   24.8790   36.8440 H   0  0  0  0  0  0  0  0  0  0  0  0
   39.2640   27.1250   36.9590 H   0  0  0  0  0  0  0  0  0  0  0  0
   37.5450   27.1100   37.0480 H   0  0  0  0  0  0  0  0  0  0  0  0
   37.0220   27.6200   34.9210 H   0  0  0  0  0  0  0  0  0  0  0  0
   38.5600   28.5280   35.1670 H   0  0  0  0  0  0  0  0  0  0  0  0
   38.2560   27.3450   33.0320 H   0  0  0  0  0  0  0  0  0  0  0  0
   37.0320   25.1230   32.7550 C   0  0  0  0  0  0  0  0  0  0  0  0
   36.3860   26.0210   31.9080 C   0  0  0  0  0  0  0  0  0  0  0  0
   35.5280   25.5080   30.9420 C   0  0  0  0  0  0  0  0  0  0  0  0
   35.3710   24.1520   30.8820 N   0  0  0  0  0  0  0  0  0  0  0  0
   36.0010   23.3210   31.7030 C   0  0  0  0  0  0  0  0  0  0  0  0
   36.8240   23.8100   32.6300 N   0  0  0  0  0  0  0  0  0  0  0  0
   36.5870   27.0560   32.0500 H   0  0  0  0  0  0  0  0  0  0  0  0
   35.0270   26.2000   30.2850 H   0  0  0  0  0  0  0  0  0  0  0  0
   35.8060   21.8710   31.6060 C   0  0  0  0  0  0  0  0  0  0  0  0
   34.9390   20.9980   32.2660 C   0  0  0  0  0  0  0  0  0  0  0  0
   34.2530   21.3710   32.9970 H   0  0  0  0  0  0  0  0  0  0  0  0
   35.2580   19.7630   31.7180 C   0  0  0  0  0  0  0  0  0  0  0  0
   34.7190   18.8740   32.0610 H   0  0  0  0  0  0  0  0  0  0  0  0
   36.2760   19.9420   30.7770 C   0  0  0  0  0  0  0  0  0  0  0  0
   36.6740   19.1090   30.2330 H   0  0  0  0  0  0  0  0  0  0  0  0
   36.5700   21.2350   30.7490 O   0  0  0  0  0  0  0  0  0  0  0  0
   40.1220   26.6820   33.9770 C   0  0  0  0  0  0  0  0  0  0  0  0
   40.6010   27.6460   33.0770 F   0  0  0  0  0  0  0  0  0  0  0  0
   40.5730   25.4980   33.4430 F   0  0  0  0  0  0  0  0  0  0  0  0
   40.6710   26.9900   35.1630 F   0  0  0  0  0  0  0  0  0  0  0  0
  1  6  1  0  0  0  0
  1  2  1  0  0  0  0
  2  3  1  0  0  0  0
  3  4  1  0  0  0  0
  3 10  1  0  0  0  0
  3  9  1  0  0  0  0
  4 11  1  0  0  0  0
  4 12  1  0  0  0  0
  5 14  1  0  0  0  0
  5  4  1  0  0  0  0
  6 15  1  6  0  0  0
  6 32  1  0  0  0  0
  6  5  1  0  0  0  0
  7  2  1  0  0  0  0
  8  2  1  0  0  0  0
 13  5  1  0  0  0  0
 16  1  1  0  0  0  0
 17 22  1  0  0  0  0
 17 16  2  0  0  0  0
 18 17  1  0  0  0  0
 19 18  2  0  0  0  0
 19 20  1  0  0  0  0
 20 21  2  0  0  0  0
 21 16  1  0  0  0  0
 23 18  1  0  0  0  0
 24 20  1  0  0  0  0
 24 25  2  0  0  0  0
 25 26  1  0  0  0  0
 27 28  1  0  0  0  0
 27 25  1  0  0  0  0
 29 27  2  0  0  0  0
 30 29  1  0  0  0  0
 31 29  1  0  0  0  0
 31 24  1  0  0  0  0
 32 35  1  0  0  0  0
 33 32  1  0  0  0  0
 34 32  1  0  0  0  0
M  END
>  <minimizedAffinity>
-5.54015827

$$$$

 OpenBabel03262522003D

 35 37  0  0  1  0  0  0  0  0999 V2000
   36.6190   22.0080   32.0910 N   0  0  0  0  0  0  0  0  0  0  0  0
   37.6190   21.3070   32.8320 C   0  0  0  0  0  0  0  0  0  0  0  0
   38.3450   20.2230   32.1530 C   0  0  0  0  0  0  0  0  0  0  0  0
   37.7000   19.5600   30.9910 C   0  0  0  0  0  0  0  0  0  0  0  0
   36.5690   20.3160   30.3670 C   0  0  0  0  0  0  0  0  0  0  0  0
   35.7710   21.0670   31.4450 C   0  0  1  0  0  0  0  0  0  0  0  0
   37.2770   20.9770   33.8600 H   0  0  0  0  0  0  0  0  0  0  0  0
   38.3510   22.1160   33.1230 H   0  0  0  0  0  0  0  0  0  0  0  0
   38.5410   19.3860   32.8920 H   0  0  0  0  0  0  0  0  0  0  0  0
   39.4080   20.5400   31.9220 H   0  0  0  0  0  0  0  0  0  0  0  0
   37.5130   18.4570   31.1170 H   0  0  0  0  0  0  0  0  0  0  0  0
   38.4610   19.5250   30.1570 H   0  0  0  0  0  0  0  0  0  0  0  0
   36.9440   21.1210   29.7010 H   0  0  0  0  0  0  0  0  0  0  0  0
   35.9250   19.6360   29.7880 H   0  0  0  0  0  0  0  0  0  0  0  0
   35.0610   21.6820   30.8440 H   0  0  0  0  0  0  0  0  0  0  0  0
   36.4940   23.4390   32.0140 C   0  0  0  0  0  0  0  0  0  0  0  0
   35.7200   24.1150   31.0730 C   0  0  0  0  0  0  0  0  0  0  0  0
   35.6960   25.5050   31.1220 C   0  0  0  0  0  0  0  0  0  0  0  0
   36.4350   26.1230   32.0920 N   0  0  0  0  0  0  0  0  0  0  0  0
   37.1630   25.4510   32.9740 C   0  0  0  0  0  0  0  0  0  0  0  0
   37.1880   24.1190   32.9300 N   0  0  0  0  0  0  0  0  0  0  0  0
   35.1870   23.5260   30.3660 H   0  0  0  0  0  0  0  0  0  0  0  0
   35.0990   26.0310   30.3960 H   0  0  0  0  0  0  0  0  0  0  0  0
   37.9420   26.1520   34.0000 C   0  0  0  0  0  0  0  0  0  0  0  0
   37.5630   26.8320   35.1590 C   0  0  0  0  0  0  0  0  0  0  0  0
   36.5310   26.9060   35.4270 H   0  0  0  0  0  0  0  0  0  0  0  0
   38.7750   27.2620   35.6830 C   0  0  0  0  0  0  0  0  0  0  0  0
   38.7780   27.8360   36.6140 H   0  0  0  0  0  0  0  0  0  0  0  0
   39.8030   26.8330   34.8380 C   0  0  0  0  0  0  0  0  0  0  0  0
   40.8260   27.0600   35.0590 H   0  0  0  0  0  0  0  0  0  0  0  0
   39.2440   26.1660   33.8360 O   0  0  0  0  0  0  0  0  0  0  0  0
   35.1000   20.0580   32.3190 C   0  0  0  0  0  0  0  0  0  0  0  0
   33.7420   20.0860   31.9710 F   0  0  0  0  0  0  0  0  0  0  0  0
   35.1020   20.4930   33.6230 F   0  0  0  0  0  0  0  0  0  0  0  0
   35.4860   18.7790   32.1690 F   0  0  0  0  0  0  0  0  0  0  0  0
  1  2  1  0  0  0  0
  2  8  1  0  0  0  0
  2  7  1  0  0  0  0
  3  2  1  0  0  0  0
  3  9  1  0  0  0  0
  4 11  1  0  0  0  0
  4  3  1  0  0  0  0
  5  4  1  0  0  0  0
  5  6  1  0  0  0  0
  6 15  1  6  0  0  0
  6  1  1  0  0  0  0
  6 32  1  0  0  0  0
 10  3  1  0  0  0  0
 12  4  1  0  0  0  0
 13  5  1  0  0  0  0
 14  5  1  0  0  0  0
 16  1  1  0  0  0  0
 16 21  1  0  0  0  0
 17 18  1  0  0  0  0
 17 16  2  0  0  0  0
 18 19  2  0  0  0  0
 19 20  1  0  0  0  0
 20 24  1  0  0  0  0
 21 20  2  0  0  0  0
 22 17  1  0  0  0  0
 23 18  1  0  0  0  0
 24 25  2  0  0  0  0
 25 26  1  0  0  0  0
 25 27  1  0  0  0  0
 27 28  1  0  0  0  0
 29 30  1  0  0  0  0
 29 27  2  0  0  0  0
 31 24  1  0  0  0  0
 31 29  1  0  0  0  0
 32 34  1  0  0  0  0
 33 32  1  0  0  0  0
 35 32  1  0  0  0  0
M  END
>  <minimizedAffinity>
-5.52667141

$$$$

 OpenBabel03262522003D

 35 37  0  0  1  0  0  0  0  0999 V2000
   37.1550   25.4300   32.5390 N   0  0  0  0  0  0  0  0  0  0  0  0
   36.1410   25.8960   31.6480 C   0  0  0  0  0  0  0  0  0  0  0  0
   35.2060   24.9070   31.0910 C   0  0  0  0  0  0  0  0  0  0  0  0
   35.6350   23.4860   31.0280 C   0  0  0  0  0  0  0  0  0  0  0  0
   36.7970   23.1270   31.9000 C   0  0  0  0  0  0  0  0  0  0  0  0
   37.7940   24.2950   31.9670 C   0  0  1  0  0  0  0  0  0  0  0  0
   36.5300   26.5820   30.8330 H   0  0  0  0  0  0  0  0  0  0  0  0
   35.5640   26.6420   32.2680 H   0  0  0  0  0  0  0  0  0  0  0  0
   34.9630   25.1850   30.0190 H   0  0  0  0  0  0  0  0  0  0  0  0
   34.1820   25.0180   31.5640 H   0  0  0  0  0  0  0  0  0  0  0  0
   35.6730   23.0480   29.9920 H   0  0  0  0  0  0  0  0  0  0  0  0
   34.7990   22.8620   31.4630 H   0  0  0  0  0  0  0  0  0  0  0  0
   36.4790   22.9850   32.9530 H   0  0  0  0  0  0  0  0  0  0  0  0
   37.2780   22.2050   31.5380 H   0  0  0  0  0  0  0  0  0  0  0  0
   38.5240   23.9540   32.7370 H   0  0  0  0  0  0  0  0  0  0  0  0
   37.4760   26.0180   33.8120 C   0  0  0  0  0  0  0  0  0  0  0  0
   37.4570   27.3860   34.0770 C   0  0  0  0  0  0  0  0  0  0  0  0
   37.7920   27.8080   35.3590 C   0  0  0  0  0  0  0  0  0  0  0  0
   38.1200   26.8530   36.2810 N   0  0  0  0  0  0  0  0  0  0  0  0
   38.1290   25.5570   35.9970 C   0  0  0  0  0  0  0  0  0  0  0  0
   37.8080   25.1490   34.7690 N   0  0  0  0  0  0  0  0  0  0  0  0
   37.1850   28.0340   33.2800 H   0  0  0  0  0  0  0  0  0  0  0  0
   37.7780   28.8640   35.5690 H   0  0  0  0  0  0  0  0  0  0  0  0
   38.4860   24.5640   37.0150 C   0  0  0  0  0  0  0  0  0  0  0  0
   38.0300   24.3560   38.3190 C   0  0  0  0  0  0  0  0  0  0  0  0
   37.2800   24.9940   38.7350 H   0  0  0  0  0  0  0  0  0  0  0  0
   38.7680   23.2580   38.7390 C   0  0  0  0  0  0  0  0  0  0  0  0
   38.6120   22.8670   39.7490 H   0  0  0  0  0  0  0  0  0  0  0  0
   39.6140   22.8630   37.6980 C   0  0  0  0  0  0  0  0  0  0  0  0
   40.2750   22.0280   37.8140 H   0  0  0  0  0  0  0  0  0  0  0  0
   39.4030   23.6870   36.6800 O   0  0  0  0  0  0  0  0  0  0  0  0
   38.3940   24.4760   30.6100 C   0  0  0  0  0  0  0  0  0  0  0  0
   39.7600   24.1910   30.7490 F   0  0  0  0  0  0  0  0  0  0  0  0
   38.3820   25.8080   30.2660 F   0  0  0  0  0  0  0  0  0  0  0  0
   37.9510   23.6580   29.6410 F   0  0  0  0  0  0  0  0  0  0  0  0
  1 16  1  0  0  0  0
  2  8  1  0  0  0  0
  2  1  1  0  0  0  0
  3 10  1  0  0  0  0
  3  2  1  0  0  0  0
  4  3  1  0  0  0  0
  4 12  1  0  0  0  0
  4  5  1  0  0  0  0
  5  6  1  0  0  0  0
  5 13  1  0  0  0  0
  6  1  1  0  0  0  0
  6 15  1  1  0  0  0
  7  2  1  0  0  0  0
  9  3  1  0  0  0  0
 11  4  1  0  0  0  0
 14  5  1  0  0  0  0
 16 17  2  0  0  0  0
 16 21  1  0  0  0  0
 17 18  1  0  0  0  0
 18 23  1  0  0  0  0
 18 19  2  0  0  0  0
 20 19  1  0  0  0  0
 20 24  1  0  0  0  0
 21 20  2  0  0  0  0
 22 17  1  0  0  0  0
 24 25  2  0  0  0  0
 25 26  1  0  0  0  0
 25 27  1  0  0  0  0
 27 28  1  0  0  0  0
 29 30  1  0  0  0  0
 29 27  2  0  0  0  0
 31 24  1  0  0  0  0
 31 29  1  0  0  0  0
 32 33  1  0  0  0  0
 32  6  1  0  0  0  0
 34 32  1  0  0  0  0
 35 32  1  0  0  0  0
M  END
>  <minimizedAffinity>
-5.51010704

$$$$

 OpenBabel03262522003D

 35 37  0  0  1  0  0  0  0  0999 V2000
   38.1890   26.5770   34.7020 N   0  0  0  0  0  0  0  0  0  0  0  0
   39.4840   27.0220   35.1070 C   0  0  0  0  0  0  0  0  0  0  0  0
   40.6400   26.1800   34.7610 C   0  0  0  0  0  0  0  0  0  0  0  0
   40.4120   24.7340   34.5110 C   0  0  0  0  0  0  0  0  0  0  0  0
   38.9930   24.3480   34.2310 C   0  0  0  0  0  0  0  0  0  0  0  0
   38.0310   25.2100   35.0630 C   0  0  1  0  0  0  0  0  0  0  0  0
   39.5360   27.3490   36.1900 H   0  0  0  0  0  0  0  0  0  0  0  0
   39.5920   28.0240   34.5990 H   0  0  0  0  0  0  0  0  0  0  0  0
   41.3920   26.2130   35.6100 H   0  0  0  0  0  0  0  0  0  0  0  0
   41.2500   26.6610   33.9360 H   0  0  0  0  0  0  0  0  0  0  0  0
   40.9570   24.0400   35.2100 H   0  0  0  0  0  0  0  0  0  0  0  0
   40.9340   24.4730   33.5440 H   0  0  0  0  0  0  0  0  0  0  0  0
   38.7170   24.5740   33.1810 H   0  0  0  0  0  0  0  0  0  0  0  0
   38.8430   23.2740   34.4220 H   0  0  0  0  0  0  0  0  0  0  0  0
   37.0310   24.9190   34.6660 H   0  0  0  0  0  0  0  0  0  0  0  0
   37.2040   27.3860   34.0360 C   0  0  0  0  0  0  0  0  0  0  0  0
   36.7290   27.1510   32.7470 C   0  0  0  0  0  0  0  0  0  0  0  0
   35.7730   28.0210   32.2340 C   0  0  0  0  0  0  0  0  0  0  0  0
   35.3580   29.0550   33.0260 N   0  0  0  0  0  0  0  0  0  0  0  0
   35.8300   29.2520   34.2500 C   0  0  0  0  0  0  0  0  0  0  0  0
   36.7460   28.4200   34.7460 N   0  0  0  0  0  0  0  0  0  0  0  0
   37.1260   26.3140   32.2260 H   0  0  0  0  0  0  0  0  0  0  0  0
   35.4040   27.8430   31.2380 H   0  0  0  0  0  0  0  0  0  0  0  0
   35.3590   30.3730   35.0690 C   0  0  0  0  0  0  0  0  0  0  0  0
   36.0400   31.3330   35.8210 C   0  0  0  0  0  0  0  0  0  0  0  0
   37.1080   31.3250   35.8650 H   0  0  0  0  0  0  0  0  0  0  0  0
   35.0150   32.1040   36.3510 C   0  0  0  0  0  0  0  0  0  0  0  0
   35.2650   32.9500   36.9980 H   0  0  0  0  0  0  0  0  0  0  0  0
   33.7930   31.5880   35.9080 C   0  0  0  0  0  0  0  0  0  0  0  0
   32.8670   32.0380   36.2030 H   0  0  0  0  0  0  0  0  0  0  0  0
   34.0590   30.5420   35.1360 O   0  0  0  0  0  0  0  0  0  0  0  0
   38.2270   24.8700   36.5050 C   0  0  0  0  0  0  0  0  0  0  0  0
   37.0610   24.2020   36.9070 F   0  0  0  0  0  0  0  0  0  0  0  0
   38.2110   26.0170   37.2630 F   0  0  0  0  0  0  0  0  0  0  0  0
   39.2400   24.0370   36.7960 F   0  0  0  0  0  0  0  0  0  0  0  0
  1  6  1  0  0  0  0
  1  2  1  0  0  0  0
  2  7  1  0  0  0  0
  3  2  1  0  0  0  0
  3  9  1  0  0  0  0
  4  3  1  0  0  0  0
  4 11  1  0  0  0  0
  5 14  1  0  0  0  0
  5  4  1  0  0  0  0
  5  6  1  0  0  0  0
  6 15  1  6  0  0  0
  6 32  1  0  0  0  0
  8  2  1  0  0  0  0
 10  3  1  0  0  0  0
 12  4  1  0  0  0  0
 13  5  1  0  0  0  0
 16  1  1  0  0  0  0
 16 21  1  0  0  0  0
 17 16  2  0  0  0  0
 18 17  1  0  0  0  0
 18 19  2  0  0  0  0
 19 20  1  0  0  0  0
 20 21  2  0  0  0  0
 20 24  1  0  0  0  0
 22 17  1  0  0  0  0
 23 18  1  0  0  0  0
 24 31  1  0  0  0  0
 24 25  2  0  0  0  0
 25 26  1  0  0  0  0
 25 27  1  0  0  0  0
 27 28  1  0  0  0  0
 29 30  1  0  0  0  0
 29 27  2  0  0  0  0
 31 29  1  0  0  0  0
 32 35  1  0  0  0  0
 32 33  1  0  0  0  0
 32 34  1  0  0  0  0
M  END
>  <minimizedAffinity>
-5.48741913

$$$$

 OpenBabel03262522003D

 35 37  0  0  1  0  0  0  0  0999 V2000
   35.0430   30.2610   33.7550 N   0  0  0  0  0  0  0  0  0  0  0  0
   34.1240   29.6230   34.6440 C   0  0  0  0  0  0  0  0  0  0  0  0
   32.9470   30.3890   35.0830 C   0  0  0  0  0  0  0  0  0  0  0  0
   33.0150   31.8720   35.0450 C   0  0  0  0  0  0  0  0  0  0  0  0
   34.1020   32.4430   34.1890 C   0  0  0  0  0  0  0  0  0  0  0  0
   35.3550   31.5550   34.2550 C   0  0  1  0  0  0  0  0  0  0  0  0
   34.6220   29.1130   35.5250 H   0  0  0  0  0  0  0  0  0  0  0  0
   33.7810   28.7160   34.0660 H   0  0  0  0  0  0  0  0  0  0  0  0
   32.7200   30.1360   36.1640 H   0  0  0  0  0  0  0  0  0  0  0  0
   32.0090   29.9950   34.5840 H   0  0  0  0  0  0  0  0  0  0  0  0
   32.8890   32.3780   36.0420 H   0  0  0  0  0  0  0  0  0  0  0  0
   32.0790   32.2390   34.5300 H   0  0  0  0  0  0  0  0  0  0  0  0
   33.8180   32.4280   33.1170 H   0  0  0  0  0  0  0  0  0  0  0  0
   34.3240   33.4790   34.4920 H   0  0  0  0  0  0  0  0  0  0  0  0
   36.0210   32.0100   33.4870 H   0  0  0  0  0  0  0  0  0  0  0  0
   35.5670   29.6810   32.5470 C   0  0  0  0  0  0  0  0  0  0  0  0
   36.0990   30.4120   31.4870 C   0  0  0  0  0  0  0  0  0  0  0  0
   36.5690   29.7120   30.3810 C   0  0  0  0  0  0  0  0  0  0  0  0
   36.4800   28.3480   30.4020 N   0  0  0  0  0  0  0  0  0  0  0  0
   35.9670   27.6810   31.4280 C   0  0  0  0  0  0  0  0  0  0  0  0
   35.5160   28.3490   32.4900 N   0  0  0  0  0  0  0  0  0  0  0  0
   36.1170   31.4700   31.5840 H   0  0  0  0  0  0  0  0  0  0  0  0
   36.9810   30.2730   29.5590 H   0  0  0  0  0  0  0  0  0  0  0  0
   35.8890   26.2160   31.4120 C   0  0  0  0  0  0  0  0  0  0  0  0
   34.9650   25.3350   30.8460 C   0  0  0  0  0  0  0  0  0  0  0  0
   34.1250   25.7120   30.3030 H   0  0  0  0  0  0  0  0  0  0  0  0
   35.4660   24.0880   31.1930 C   0  0  0  0  0  0  0  0  0  0  0  0
   34.9280   23.1910   30.8720 H   0  0  0  0  0  0  0  0  0  0  0  0
   36.6380   24.2680   31.9340 C   0  0  0  0  0  0  0  0  0  0  0  0
   37.1890   23.4260   32.3040 H   0  0  0  0  0  0  0  0  0  0  0  0
   36.8480   25.5740   32.0370 O   0  0  0  0  0  0  0  0  0  0  0  0
   35.9040   31.6230   35.6430 C   0  0  0  0  0  0  0  0  0  0  0  0
   36.9260   32.5830   35.6080 F   0  0  0  0  0  0  0  0  0  0  0  0
   36.5730   30.4590   35.9400 F   0  0  0  0  0  0  0  0  0  0  0  0
   35.0600   32.0290   36.6070 F   0  0  0  0  0  0  0  0  0  0  0  0
  1  6  1  0  0  0  0
  1  2  1  0  0  0  0
  2  3  1  0  0  0  0
  2  7  1  0  0  0  0
  3  9  1  0  0  0  0
  4  3  1  0  0  0  0
  4 11  1  0  0  0  0
  5  6  1  0  0  0  0
  5 14  1  0  0  0  0
  5  4  1  0  0  0  0
  6 15  1  6  0  0  0
  6 32  1  0  0  0  0
  8  2  1  0  0  0  0
 10  3  1  0  0  0  0
 12  4  1  0  0  0  0
 13  5  1  0  0  0  0
 16  1  1  0  0  0  0
 17 22  1  0  0  0  0
 17 16  2  0  0  0  0
 18 19  2  0  0  0  0
 18 17  1  0  0  0  0
 19 20  1  0  0  0  0
 20 21  2  0  0  0  0
 21 16  1  0  0  0  0
 23 18  1  0  0  0  0
 24 20  1  0  0  0  0
 24 31  1  0  0  0  0
 25 27  1  0  0  0  0
 25 24  2  0  0  0  0
 26 25  1  0  0  0  0
 27 29  2  0  0  0  0
 28 27  1  0  0  0  0
 29 31  1  0  0  0  0
 29 30  1  0  0  0  0
 32 34  1  0  0  0  0
 32 35  1  0  0  0  0
 33 32  1  0  0  0  0
M  END
>  <minimizedAffinity>
-5.45749998

$$$$

 OpenBabel03262522003D

 35 37  0  0  1  0  0  0  0  0999 V2000
   38.9160   23.5830   35.1400 N   0  0  0  0  0  0  0  0  0  0  0  0
   39.9720   24.5340   35.2830 C   0  0  0  0  0  0  0  0  0  0  0  0
   41.2820   24.0440   35.7390 C   0  0  0  0  0  0  0  0  0  0  0  0
   41.3330   22.7780   36.5120 C   0  0  0  0  0  0  0  0  0  0  0  0
   40.1160   21.9110   36.4050 C   0  0  0  0  0  0  0  0  0  0  0  0
   38.8510   22.7780   36.3110 C   0  0  1  0  0  0  0  0  0  0  0  0
   39.6720   25.4670   35.8520 H   0  0  0  0  0  0  0  0  0  0  0  0
   40.0800   24.9690   34.2460 H   0  0  0  0  0  0  0  0  0  0  0  0
   41.7530   24.8190   36.4200 H   0  0  0  0  0  0  0  0  0  0  0  0
   42.0270   24.0490   34.8850 H   0  0  0  0  0  0  0  0  0  0  0  0
   41.7490   22.8740   37.5530 H   0  0  0  0  0  0  0  0  0  0  0  0
   42.1360   22.1320   36.0490 H   0  0  0  0  0  0  0  0  0  0  0  0
   40.1180   21.3340   35.4580 H   0  0  0  0  0  0  0  0  0  0  0  0
   40.0660   21.2140   37.2550 H   0  0  0  0  0  0  0  0  0  0  0  0
   38.0520   22.0290   36.1040 H   0  0  0  0  0  0  0  0  0  0  0  0
   38.0560   23.4630   33.9930 C   0  0  0  0  0  0  0  0  0  0  0  0
   37.7260   24.5140   33.1390 C   0  0  0  0  0  0  0  0  0  0  0  0
   36.8820   24.2460   32.0680 C   0  0  0  0  0  0  0  0  0  0  0  0
   36.4260   22.9660   31.9170 N   0  0  0  0  0  0  0  0  0  0  0  0
   36.7590   21.9860   32.7480 C   0  0  0  0  0  0  0  0  0  0  0  0
   37.5690   22.2400   33.7760 N   0  0  0  0  0  0  0  0  0  0  0  0
   38.1420   25.4680   33.3570 H   0  0  0  0  0  0  0  0  0  0  0  0
   36.6240   25.0560   31.4060 H   0  0  0  0  0  0  0  0  0  0  0  0
   36.2490   20.6250   32.5520 C   0  0  0  0  0  0  0  0  0  0  0  0
   35.4750   19.7910   33.3620 C   0  0  0  0  0  0  0  0  0  0  0  0
   35.1470   20.1260   34.3220 H   0  0  0  0  0  0  0  0  0  0  0  0
   35.3430   18.6410   32.5950 C   0  0  0  0  0  0  0  0  0  0  0  0
   34.7700   17.7990   32.9930 H   0  0  0  0  0  0  0  0  0  0  0  0
   36.0260   18.8280   31.3890 C   0  0  0  0  0  0  0  0  0  0  0  0
   36.0520   18.0560   30.6470 H   0  0  0  0  0  0  0  0  0  0  0  0
   36.5560   20.0440   31.4160 O   0  0  0  0  0  0  0  0  0  0  0  0
   38.6780   23.4960   37.6100 C   0  0  0  0  0  0  0  0  0  0  0  0
   37.4990   22.9910   38.1780 F   0  0  0  0  0  0  0  0  0  0  0  0
   38.3760   24.8180   37.3780 F   0  0  0  0  0  0  0  0  0  0  0  0
   39.6340   23.3090   38.5350 F   0  0  0  0  0  0  0  0  0  0  0  0
  1  2  1  0  0  0  0
  1  6  1  0  0  0  0
  2  3  1  0  0  0  0
  2  7  1  0  0  0  0
  3  9  1  0  0  0  0
  3  4  1  0  0  0  0
  4 11  1  0  0  0  0
  5  4  1  0  0  0  0
  5 14  1  0  0  0  0
  6 15  1  6  0  0  0
  6  5  1  0  0  0  0
  6 32  1  0  0  0  0
  8  2  1  0  0  0  0
 10  3  1  0  0  0  0
 12  4  1  0  0  0  0
 13  5  1  0  0  0  0
 16  1  1  0  0  0  0
 17 22  1  0  0  0  0
 17 16  2  0  0  0  0
 18 17  1  0  0  0  0
 19 18  2  0  0  0  0
 19 20  1  0  0  0  0
 20 21  2  0  0  0  0
 21 16  1  0  0  0  0
 23 18  1  0  0  0  0
 24 20  1  0  0  0  0
 24 25  2  0  0  0  0
 25 26  1  0  0  0  0
 27 28  1  0  0  0  0
 27 25  1  0  0  0  0
 29 31  1  0  0  0  0
 29 27  2  0  0  0  0
 30 29  1  0  0  0  0
 31 24  1  0  0  0  0
 32 33  1  0  0  0  0
 32 35  1  0  0  0  0
 34 32  1  0  0  0  0
M  END
>  <minimizedAffinity>
-5.45079374

$$$$

 OpenBabel03262522003D

 35 37  0  0  1  0  0  0  0  0999 V2000
   37.8800   25.0240   34.1210 N   0  0  0  0  0  0  0  0  0  0  0  0
   37.1330   26.1720   34.5230 C   0  0  0  0  0  0  0  0  0  0  0  0
   37.8800   27.3570   34.9730 C   0  0  0  0  0  0  0  0  0  0  0  0
   39.2590   27.1690   35.4890 C   0  0  0  0  0  0  0  0  0  0  0  0
   39.9080   25.8690   35.1260 C   0  0  0  0  0  0  0  0  0  0  0  0
   38.8660   24.7400   35.1060 C   0  0  1  0  0  0  0  0  0  0  0  0
   36.2850   25.9380   35.2380 H   0  0  0  0  0  0  0  0  0  0  0  0
   36.5380   26.4390   33.6010 H   0  0  0  0  0  0  0  0  0  0  0  0
   37.3160   27.8520   35.8230 H   0  0  0  0  0  0  0  0  0  0  0  0
   37.8280   28.1790   34.1940 H   0  0  0  0  0  0  0  0  0  0  0  0
   39.4140   27.4870   36.5570 H   0  0  0  0  0  0  0  0  0  0  0  0
   39.9190   27.9260   34.9710 H   0  0  0  0  0  0  0  0  0  0  0  0
   40.2980   25.8920   34.0880 H   0  0  0  0  0  0  0  0  0  0  0  0
   40.7340   25.6460   35.8200 H   0  0  0  0  0  0  0  0  0  0  0  0
   39.4430   23.8780   34.7000 H   0  0  0  0  0  0  0  0  0  0  0  0
   37.6660   24.2760   32.9110 C   0  0  0  0  0  0  0  0  0  0  0  0
   37.9500   24.7470   31.6300 C   0  0  0  0  0  0  0  0  0  0  0  0
   37.6900   23.9080   30.5530 C   0  0  0  0  0  0  0  0  0  0  0  0
   37.1710   22.6710   30.8160 N   0  0  0  0  0  0  0  0  0  0  0  0
   36.9120   22.2510   32.0480 C   0  0  0  0  0  0  0  0  0  0  0  0
   37.1600   23.0530   33.0830 N   0  0  0  0  0  0  0  0  0  0  0  0
   38.3520   25.7280   31.5500 H   0  0  0  0  0  0  0  0  0  0  0  0
   37.9070   24.2680   29.5610 H   0  0  0  0  0  0  0  0  0  0  0  0
   36.3560   20.9150   32.2890 C   0  0  0  0  0  0  0  0  0  0  0  0
   35.6800   20.3670   33.3810 C   0  0  0  0  0  0  0  0  0  0  0  0
   35.4880   20.9610   34.2480 H   0  0  0  0  0  0  0  0  0  0  0  0
   35.4280   19.0640   32.9730 C   0  0  0  0  0  0  0  0  0  0  0  0
   34.8960   18.3890   33.6500 H   0  0  0  0  0  0  0  0  0  0  0  0
   35.9490   18.8890   31.6880 C   0  0  0  0  0  0  0  0  0  0  0  0
   35.8620   17.9490   31.1830 H   0  0  0  0  0  0  0  0  0  0  0  0
   36.5000   20.0400   31.3220 O   0  0  0  0  0  0  0  0  0  0  0  0
   38.3770   24.5300   36.5030 C   0  0  0  0  0  0  0  0  0  0  0  0
   39.3390   23.7270   37.1330 F   0  0  0  0  0  0  0  0  0  0  0  0
   37.2570   23.7330   36.4920 F   0  0  0  0  0  0  0  0  0  0  0  0
   38.2600   25.6250   37.2720 F   0  0  0  0  0  0  0  0  0  0  0  0
  1  2  1  0  0  0  0
  1  6  1  0  0  0  0
  2  3  1  0  0  0  0
  2  7  1  0  0  0  0
  3  4  1  0  0  0  0
  3  9  1  0  0  0  0
  4 11  1  0  0  0  0
  5  4  1  0  0  0  0
  5 14  1  0  0  0  0
  6 15  1  6  0  0  0
  6  5  1  0  0  0  0
  6 32  1  0  0  0  0
  8  2  1  0  0  0  0
 10  3  1  0  0  0  0
 12  4  1  0  0  0  0
 13  5  1  0  0  0  0
 16 21  1  0  0  0  0
 16  1  1  0  0  0  0
 17 16  2  0  0  0  0
 18 19  2  0  0  0  0
 18 17  1  0  0  0  0
 19 20  1  0  0  0  0
 20 24  1  0  0  0  0
 20 21  2  0  0  0  0
 22 17  1  0  0  0  0
 23 18  1  0  0  0  0
 24 25  2  0  0  0  0
 25 26  1  0  0  0  0
 27 25  1  0  0  0  0
 27 28  1  0  0  0  0
 29 27  2  0  0  0  0
 30 29  1  0  0  0  0
 31 29  1  0  0  0  0
 31 24  1  0  0  0  0
 32 33  1  0  0  0  0
 32 35  1  0  0  0  0
 34 32  1  0  0  0  0
M  END
>  <minimizedAffinity>
-5.36484766

$$$$

 OpenBabel03262522003D

 35 37  0  0  1  0  0  0  0  0999 V2000
   36.3130   22.4360   31.9240 N   0  0  0  0  0  0  0  0  0  0  0  0
   35.5150   21.5860   31.1000 C   0  0  0  0  0  0  0  0  0  0  0  0
   34.7950   20.4790   31.7470 C   0  0  0  0  0  0  0  0  0  0  0  0
   35.3060   19.9650   33.0430 C   0  0  0  0  0  0  0  0  0  0  0  0
   36.2480   20.8760   33.7680 C   0  0  0  0  0  0  0  0  0  0  0  0
   37.1330   21.6340   32.7660 C   0  0  1  0  0  0  0  0  0  0  0  0
   36.0460   21.2280   30.1650 H   0  0  0  0  0  0  0  0  0  0  0  0
   34.7660   22.2930   30.6360 H   0  0  0  0  0  0  0  0  0  0  0  0
   34.7980   19.5790   31.0570 H   0  0  0  0  0  0  0  0  0  0  0  0
   33.6830   20.6960   31.7870 H   0  0  0  0  0  0  0  0  0  0  0  0
   35.6140   18.8820   33.0360 H   0  0  0  0  0  0  0  0  0  0  0  0
   34.4280   19.9040   33.7520 H   0  0  0  0  0  0  0  0  0  0  0  0
   35.6970   21.6780   34.3010 H   0  0  0  0  0  0  0  0  0  0  0  0
   36.8520   20.3060   34.4910 H   0  0  0  0  0  0  0  0  0  0  0  0
   37.6770   22.3580   33.4160 H   0  0  0  0  0  0  0  0  0  0  0  0
   36.2900   23.8740   31.9030 C   0  0  0  0  0  0  0  0  0  0  0  0
   35.5860   24.6390   30.9740 C   0  0  0  0  0  0  0  0  0  0  0  0
   35.6580   26.0240   31.0790 C   0  0  0  0  0  0  0  0  0  0  0  0
   36.4150   26.5500   32.0880 N   0  0  0  0  0  0  0  0  0  0  0  0
   37.0740   25.7950   32.9570 C   0  0  0  0  0  0  0  0  0  0  0  0
   37.0070   24.4670   32.8590 N   0  0  0  0  0  0  0  0  0  0  0  0
   35.0300   24.1170   30.2340 H   0  0  0  0  0  0  0  0  0  0  0  0
   35.1150   26.6190   30.3630 H   0  0  0  0  0  0  0  0  0  0  0  0
   37.8760   26.3990   34.0260 C   0  0  0  0  0  0  0  0  0  0  0  0
   37.5180   27.0790   35.1920 C   0  0  0  0  0  0  0  0  0  0  0  0
   36.4880   27.2360   35.4300 H   0  0  0  0  0  0  0  0  0  0  0  0
   38.7450   27.3890   35.7650 C   0  0  0  0  0  0  0  0  0  0  0  0
   38.7660   27.9360   36.7120 H   0  0  0  0  0  0  0  0  0  0  0  0
   39.7600   26.8940   34.9400 C   0  0  0  0  0  0  0  0  0  0  0  0
   40.7910   27.0250   35.2000 H   0  0  0  0  0  0  0  0  0  0  0  0
   39.1790   26.3050   33.9030 O   0  0  0  0  0  0  0  0  0  0  0  0
   38.0250   20.6460   32.0890 C   0  0  0  0  0  0  0  0  0  0  0  0
   39.2770   20.7640   32.7120 F   0  0  0  0  0  0  0  0  0  0  0  0
   38.2750   21.0480   30.7980 F   0  0  0  0  0  0  0  0  0  0  0  0
   37.6860   19.3510   32.2020 F   0  0  0  0  0  0  0  0  0  0  0  0
  1  6  1  0  0  0  0
  2  3  1  0  0  0  0
  2  1  1  0  0  0  0
  3 10  1  0  0  0  0
  3  4  1  0  0  0  0
  4 12  1  0  0  0  0
  4  5  1  0  0  0  0
  5 13  1  0  0  0  0
  5 14  1  0  0  0  0
  6 15  1  1  0  0  0
  6  5  1  0  0  0  0
  7  2  1  0  0  0  0
  8  2  1  0  0  0  0
  9  3  1  0  0  0  0
 11  4  1  0  0  0  0
 16  1  1  0  0  0  0
 16 21  1  0  0  0  0
 17 18  1  0  0  0  0
 17 16  2  0  0  0  0
 18 19  2  0  0  0  0
 19 20  1  0  0  0  0
 20 24  1  0  0  0  0
 21 20  2  0  0  0  0
 22 17  1  0  0  0  0
 23 18  1  0  0  0  0
 24 25  2  0  0  0  0
 25 26  1  0  0  0  0
 25 27  1  0  0  0  0
 27 28  1  0  0  0  0
 29 30  1  0  0  0  0
 29 27  2  0  0  0  0
 31 24  1  0  0  0  0
 31 29  1  0  0  0  0
 32 35  1  0  0  0  0
 32 33  1  0  0  0  0
 32  6  1  0  0  0  0
 34 32  1  0  0  0  0
M  END
>  <minimizedAffinity>
-5.35543919

$$$$

 OpenBabel03262522003D

 35 37  0  0  1  0  0  0  0  0999 V2000
   37.9260   20.6400   32.4840 N   0  0  0  0  0  0  0  0  0  0  0  0
   38.2620   19.3950   31.8690 C   0  0  0  0  0  0  0  0  0  0  0  0
   37.6920   19.1050   30.5450 C   0  0  0  0  0  0  0  0  0  0  0  0
   36.4410   19.7990   30.1470 C   0  0  0  0  0  0  0  0  0  0  0  0
   36.1030   21.0200   30.9440 C   0  0  0  0  0  0  0  0  0  0  0  0
   36.5180   20.8310   32.4110 C   0  0  1  0  0  0  0  0  0  0  0  0
   38.1510   18.5020   32.5580 H   0  0  0  0  0  0  0  0  0  0  0  0
   39.3870   19.4350   31.7860 H   0  0  0  0  0  0  0  0  0  0  0  0
   37.4440   18.0000   30.4800 H   0  0  0  0  0  0  0  0  0  0  0  0
   38.4900   19.1780   29.7430 H   0  0  0  0  0  0  0  0  0  0  0  0
   35.5680   19.1210   29.9360 H   0  0  0  0  0  0  0  0  0  0  0  0
   36.6040   20.2190   29.1110 H   0  0  0  0  0  0  0  0  0  0  0  0
   36.6970   21.8950   30.6080 H   0  0  0  0  0  0  0  0  0  0  0  0
   35.0310   21.2530   30.8530 H   0  0  0  0  0  0  0  0  0  0  0  0
   36.3390   21.8390   32.8510 H   0  0  0  0  0  0  0  0  0  0  0  0
   38.8650   21.5520   33.0800 C   0  0  0  0  0  0  0  0  0  0  0  0
   39.9780   22.0780   32.4270 C   0  0  0  0  0  0  0  0  0  0  0  0
   40.7980   22.9510   33.1340 C   0  0  0  0  0  0  0  0  0  0  0  0
   40.4610   23.2400   34.4270 N   0  0  0  0  0  0  0  0  0  0  0  0
   39.3930   22.7220   35.0200 C   0  0  0  0  0  0  0  0  0  0  0  0
   38.6050   21.8850   34.3460 N   0  0  0  0  0  0  0  0  0  0  0  0
   40.1390   21.7800   31.4200 H   0  0  0  0  0  0  0  0  0  0  0  0
   41.6610   23.3590   32.6330 H   0  0  0  0  0  0  0  0  0  0  0  0
   39.0650   23.0580   36.4090 C   0  0  0  0  0  0  0  0  0  0  0  0
   39.7380   22.8250   37.6110 C   0  0  0  0  0  0  0  0  0  0  0  0
   40.6750   22.3120   37.6130 H   0  0  0  0  0  0  0  0  0  0  0  0
   38.8960   23.3930   38.5580 C   0  0  0  0  0  0  0  0  0  0  0  0
   39.1810   23.3550   39.6140 H   0  0  0  0  0  0  0  0  0  0  0  0
   37.7830   23.9280   37.9020 C   0  0  0  0  0  0  0  0  0  0  0  0
   37.0040   24.4160   38.4520 H   0  0  0  0  0  0  0  0  0  0  0  0
   37.9360   23.6980   36.6050 O   0  0  0  0  0  0  0  0  0  0  0  0
   35.6640   19.7570   33.0040 C   0  0  0  0  0  0  0  0  0  0  0  0
   34.4190   19.8570   32.3670 F   0  0  0  0  0  0  0  0  0  0  0  0
   35.3750   20.0580   34.3140 F   0  0  0  0  0  0  0  0  0  0  0  0
   36.0680   18.4900   32.8110 F   0  0  0  0  0  0  0  0  0  0  0  0
  1 16  1  0  0  0  0
  2  1  1  0  0  0  0
  2  7  1  0  0  0  0
  3  2  1  0  0  0  0
  4  3  1  0  0  0  0
  4  5  1  0  0  0  0
  5  6  1  0  0  0  0
  6  1  1  0  0  0  0
  6 15  1  1  0  0  0
  6 32  1  0  0  0  0
  8  2  1  0  0  0  0
  9  3  1  0  0  0  0
 10  3  1  0  0  0  0
 11  4  1  0  0  0  0
 12  4  1  0  0  0  0
 13  5  1  0  0  0  0
 14  5  1  0  0  0  0
 16 21  1  0  0  0  0
 17 16  2  0  0  0  0
 17 18  1  0  0  0  0
 18 19  2  0  0  0  0
 19 20  1  0  0  0  0
 20 24  1  0  0  0  0
 21 20  2  0  0  0  0
 22 17  1  0  0  0  0
 23 18  1  0  0  0  0
 24 31  1  0  0  0  0
 24 25  2  0  0  0  0
 25 26  1  0  0  0  0
 25 27  1  0  0  0  0
 27 28  1  0  0  0  0
 29 30  1  0  0  0  0
 29 27  2  0  0  0  0
 31 29  1  0  0  0  0
 32 34  1  0  0  0  0
 33 32  1  0  0  0  0
 35 32  1  0  0  0  0
M  END
>  <minimizedAffinity>
-5.30324745

$$$$
