
 OpenBabel03272505133D

 38 41  0  0  0  0  0  0  0  0999 V2000
   36.4090   30.8510   45.6290 Cl  0  0  0  0  0  0  0  0  0  0  0  0
   36.6710   30.7100   47.3410 C   0  0  0  0  0  0  0  0  0  0  0  0
   37.9090   31.0440   47.8300 C   0  0  0  0  0  0  0  0  0  0  0  0
   38.1210   30.9320   49.1930 C   0  0  0  0  0  0  0  0  0  0  0  0
   37.1140   30.5010   50.0110 C   0  0  0  0  0  0  0  0  0  0  0  0
   35.8850   30.1790   49.4520 C   0  0  0  0  0  0  0  0  0  0  0  0
   35.5980   30.2620   48.1150 C   0  0  0  0  0  0  0  0  0  0  0  0
   39.1070   31.2020   49.5570 H   0  0  0  0  0  0  0  0  0  0  0  0
   37.2650   30.4090   51.0760 H   0  0  0  0  0  0  0  0  0  0  0  0
   35.1000   29.8370   50.1220 H   0  0  0  0  0  0  0  0  0  0  0  0
   40.1820   33.3060   46.0870 C   0  0  0  0  0  0  0  0  0  0  0  0
   40.9150   32.4620   45.2140 C   0  0  0  0  0  0  0  0  0  0  0  0
   40.6030   31.0980   45.2430 C   0  0  0  0  0  0  0  0  0  0  0  0
   39.6290   30.6630   46.0970 N   0  0  0  0  0  0  0  0  0  0  0  0
   38.9670   31.5060   46.9020 C   0  0  0  0  0  0  0  0  0  0  0  0
   39.2450   32.8150   46.8950 N   0  0  0  0  0  0  0  0  0  0  0  0
   40.4020   34.3460   46.0820 H   0  0  0  0  0  0  0  0  0  0  0  0
   41.6670   32.8320   44.5620 H   0  0  0  0  0  0  0  0  0  0  0  0
   41.1070   30.3760   44.6150 H   0  0  0  0  0  0  0  0  0  0  0  0
   34.0330   29.8530   47.3890 S   0  0  0  0  0  0  0  0  0  0  0  0
   33.9140   28.9920   44.3730 Cl  0  0  0  0  0  0  0  0  0  0  0  0
   33.8730   27.8080   45.6470 C   0  0  0  0  0  0  0  0  0  0  0  0
   33.9180   28.1050   47.0090 C   0  0  0  0  0  0  0  0  0  0  0  0
   33.8750   27.0820   47.9370 C   0  0  0  0  0  0  0  0  0  0  0  0
   33.7880   25.7750   47.5270 C   0  0  0  0  0  0  0  0  0  0  0  0
   33.7390   25.4200   46.1880 C   0  0  0  0  0  0  0  0  0  0  0  0
   33.7850   26.4730   45.2880 C   0  0  0  0  0  0  0  0  0  0  0  0
   33.9150   27.3990   48.9740 H   0  0  0  0  0  0  0  0  0  0  0  0
   33.7570   25.0170   48.3000 H   0  0  0  0  0  0  0  0  0  0  0  0
   33.6720   24.4040   45.8720 H   0  0  0  0  0  0  0  0  0  0  0  0
   33.7350   26.1150   43.8660 C   0  0  0  0  0  0  0  0  0  0  0  0
   32.6650   25.8600   43.0750 C   0  0  0  0  0  0  0  0  0  0  0  0
   31.6340   25.9010   43.4570 H   0  0  0  0  0  0  0  0  0  0  0  0
   33.0270   25.5560   41.7780 C   0  0  0  0  0  0  0  0  0  0  0  0
   32.4070   25.3100   40.9280 H   0  0  0  0  0  0  0  0  0  0  0  0
   34.4110   25.6480   41.8540 C   0  0  0  0  0  0  0  0  0  0  0  0
   35.1110   25.4780   41.0220 H   0  0  0  0  0  0  0  0  0  0  0  0
   34.7680   25.9720   43.0710 O   0  0  0  0  0  0  0  0  0  0  0  0
  1  2  1  0  0  0  0
  2  3  2  0  0  0  0
  2  7  1  0  0  0  0
  3  4  1  0  0  0  0
  4  8  1  0  0  0  0
  4  5  2  0  0  0  0
  5  9  1  0  0  0  0
  6  5  1  0  0  0  0
  6 10  1  0  0  0  0
  7  6  2  0  0  0  0
 11 16  1  0  0  0  0
 12 13  1  0  0  0  0
 12 11  2  0  0  0  0
 13 14  2  0  0  0  0
 14 15  1  0  0  0  0
 15  3  1  0  0  0  0
 16 15  2  0  0  0  0
 17 11  1  0  0  0  0
 18 12  1  0  0  0  0
 19 13  1  0  0  0  0
 20  7  1  0  0  0  0
 21 22  1  0  0  0  0
 22 23  1  0  0  0  0
 23 20  1  0  0  0  0
 23 24  2  0  0  0  0
 24 28  1  0  0  0  0
 25 24  1  0  0  0  0
 25 29  1  0  0  0  0
 26 25  2  0  0  0  0
 27 22  2  0  0  0  0
 27 26  1  0  0  0  0
 30 26  1  0  0  0  0
 31 27  1  0  0  0  0
 32 33  1  0  0  0  0
 32 31  2  0  0  0  0
 34 36  2  0  0  0  0
 34 32  1  0  0  0  0
 35 34  1  0  0  0  0
 36 38  1  0  0  0  0
 37 36  1  0  0  0  0
 38 31  1  0  0  0  0
M  END
>  <minimizedAffinity>
-5.60684919

>  <minimizedRMSD>
0.417557567

$$$$
