
 OpenBabel03272500203D

 33 35  0  0  0  0  0  0  0  0999 V2000
   36.2310   30.5940   31.1250 C   0  0  0  0  0  0  0  0  0  0  0  0
   36.5240   29.2090   30.9270 C   0  0  0  0  0  0  0  0  0  0  0  0
   35.8060   28.2720   31.6460 C   0  0  0  0  0  0  0  0  0  0  0  0
   34.8540   28.7600   32.5070 N   0  0  0  0  0  0  0  0  0  0  0  0
   34.5920   30.0310   32.6820 C   0  0  0  0  0  0  0  0  0  0  0  0
   35.2680   30.9510   32.0010 N   0  0  0  0  0  0  0  0  0  0  0  0
   36.8230   31.2690   30.5380 H   0  0  0  0  0  0  0  0  0  0  0  0
   35.5580   30.9780   35.4020 Cl  0  0  0  0  0  0  0  0  0  0  0  0
   33.8720   30.8680   34.9190 C   0  0  0  0  0  0  0  0  0  0  0  0
   33.5440   30.4180   33.6250 C   0  0  0  0  0  0  0  0  0  0  0  0
   32.2230   30.3170   33.2010 C   0  0  0  0  0  0  0  0  0  0  0  0
   31.2340   30.6840   34.1150 C   0  0  0  0  0  0  0  0  0  0  0  0
   31.5290   31.1270   35.3860 C   0  0  0  0  0  0  0  0  0  0  0  0
   30.2090   31.5570   36.4450 Cl  0  0  0  0  0  0  0  0  0  0  0  0
   32.8640   31.2150   35.7780 C   0  0  0  0  0  0  0  0  0  0  0  0
   31.9790   29.9710   32.2050 H   0  0  0  0  0  0  0  0  0  0  0  0
   30.2230   30.5880   33.7390 H   0  0  0  0  0  0  0  0  0  0  0  0
   33.1990   31.6890   37.1370 C   0  0  0  0  0  0  0  0  0  0  0  0
   32.5230   32.8870   37.4090 F   0  0  0  0  0  0  0  0  0  0  0  0
   34.5310   31.8180   37.3420 F   0  0  0  0  0  0  0  0  0  0  0  0
   32.7210   30.7800   38.0750 F   0  0  0  0  0  0  0  0  0  0  0  0
   35.9140   26.8340   31.5450 C   0  0  0  0  0  0  0  0  0  0  0  0
   35.4010   25.7920   30.8410 C   0  0  0  0  0  0  0  0  0  0  0  0
   34.6680   25.9010   30.1030 H   0  0  0  0  0  0  0  0  0  0  0  0
   35.8850   24.5600   31.1790 C   0  0  0  0  0  0  0  0  0  0  0  0
   35.6780   23.5830   30.8110 H   0  0  0  0  0  0  0  0  0  0  0  0
   36.7620   24.9070   32.1710 C   0  0  0  0  0  0  0  0  0  0  0  0
   37.4260   24.2820   32.7910 H   0  0  0  0  0  0  0  0  0  0  0  0
   36.7360   26.1870   32.3320 O   0  0  0  0  0  0  0  0  0  0  0  0
   37.6030   28.8280   29.9690 C   0  0  0  0  0  0  0  0  0  0  0  0
   38.5140   27.9580   30.5510 F   0  0  0  0  0  0  0  0  0  0  0  0
   37.0270   28.2930   28.8560 F   0  0  0  0  0  0  0  0  0  0  0  0
   38.3350   29.9420   29.5480 F   0  0  0  0  0  0  0  0  0  0  0  0
  1  6  1  0  0  0  0
  2  1  2  0  0  0  0
  2  3  1  0  0  0  0
  3  4  2  0  0  0  0
  4  5  1  0  0  0  0
  5 10  1  0  0  0  0
  6  5  2  0  0  0  0
  7  1  1  0  0  0  0
  9  8  1  0  0  0  0
  9 15  1  0  0  0  0
 10  9  2  0  0  0  0
 11 10  1  0  0  0  0
 11 12  2  0  0  0  0
 12 13  1  0  0  0  0
 13 15  2  0  0  0  0
 13 14  1  0  0  0  0
 15 18  1  0  0  0  0
 16 11  1  0  0  0  0
 17 12  1  0  0  0  0
 18 20  1  0  0  0  0
 18 19  1  0  0  0  0
 18 21  1  0  0  0  0
 22  3  1  0  0  0  0
 22 29  1  0  0  0  0
 23 25  1  0  0  0  0
 23 22  2  0  0  0  0
 24 23  1  0  0  0  0
 25 27  2  0  0  0  0
 26 25  1  0  0  0  0
 27 29  1  0  0  0  0
 27 28  1  0  0  0  0
 30 31  1  0  0  0  0
 30  2  1  0  0  0  0
 32 30  1  0  0  0  0
 33 30  1  0  0  0  0
M  END
>  <minimizedAffinity>
-6.00497055

$$$$

 OpenBabel03272500203D

 33 35  0  0  0  0  0  0  0  0999 V2000
   34.7780   31.5630   35.6040 C   0  0  0  0  0  0  0  0  0  0  0  0
   33.5470   30.9200   35.9400 C   0  0  0  0  0  0  0  0  0  0  0  0
   33.1330   29.8450   35.1760 C   0  0  0  0  0  0  0  0  0  0  0  0
   33.9540   29.4800   34.1380 N   0  0  0  0  0  0  0  0  0  0  0  0
   35.0800   30.0750   33.8370 C   0  0  0  0  0  0  0  0  0  0  0  0
   35.5000   31.1100   34.5580 N   0  0  0  0  0  0  0  0  0  0  0  0
   35.0430   32.3900   36.2350 H   0  0  0  0  0  0  0  0  0  0  0  0
   36.9350   27.7490   34.4480 Cl  0  0  0  0  0  0  0  0  0  0  0  0
   36.7660   28.5090   32.8730 C   0  0  0  0  0  0  0  0  0  0  0  0
   35.8670   29.5810   32.7080 C   0  0  0  0  0  0  0  0  0  0  0  0
   35.7000   30.2110   31.4790 C   0  0  0  0  0  0  0  0  0  0  0  0
   36.4640   29.7330   30.4140 C   0  0  0  0  0  0  0  0  0  0  0  0
   37.3500   28.6860   30.5490 C   0  0  0  0  0  0  0  0  0  0  0  0
   38.2540   28.1730   29.1460 Cl  0  0  0  0  0  0  0  0  0  0  0  0
   37.4920   28.0780   31.7960 C   0  0  0  0  0  0  0  0  0  0  0  0
   35.0070   31.0340   31.3600 H   0  0  0  0  0  0  0  0  0  0  0  0
   36.3000   30.2540   29.4790 H   0  0  0  0  0  0  0  0  0  0  0  0
   38.4370   26.9540   31.9590 C   0  0  0  0  0  0  0  0  0  0  0  0
   39.4750   27.3200   32.8260 F   0  0  0  0  0  0  0  0  0  0  0  0
   38.9190   26.4900   30.7820 F   0  0  0  0  0  0  0  0  0  0  0  0
   37.7920   25.8950   32.5890 F   0  0  0  0  0  0  0  0  0  0  0  0
   31.9560   29.0340   35.3900 C   0  0  0  0  0  0  0  0  0  0  0  0
   30.6610   28.9400   34.9900 C   0  0  0  0  0  0  0  0  0  0  0  0
   30.2160   29.6070   34.3190 H   0  0  0  0  0  0  0  0  0  0  0  0
   29.9470   27.9170   35.5470 C   0  0  0  0  0  0  0  0  0  0  0  0
   28.9380   27.6000   35.4290 H   0  0  0  0  0  0  0  0  0  0  0  0
   30.9060   27.3590   36.3490 C   0  0  0  0  0  0  0  0  0  0  0  0
   30.8560   26.4910   37.0270 H   0  0  0  0  0  0  0  0  0  0  0  0
   32.0050   28.0230   36.2200 O   0  0  0  0  0  0  0  0  0  0  0  0
   32.7490   31.4420   37.0880 C   0  0  0  0  0  0  0  0  0  0  0  0
   31.5200   31.9310   36.6700 F   0  0  0  0  0  0  0  0  0  0  0  0
   32.6150   30.4490   38.0110 F   0  0  0  0  0  0  0  0  0  0  0  0
   33.3980   32.5020   37.7280 F   0  0  0  0  0  0  0  0  0  0  0  0
  1  2  1  0  0  0  0
  1  7  1  0  0  0  0
  2 30  1  0  0  0  0
  3 22  1  0  0  0  0
  3  2  2  0  0  0  0
  4  3  1  0  0  0  0
  5  4  2  0  0  0  0
  5  6  1  0  0  0  0
  6  1  2  0  0  0  0
  9  8  1  0  0  0  0
 10  9  1  0  0  0  0
 10  5  1  0  0  0  0
 11 10  2  0  0  0  0
 12 13  2  0  0  0  0
 12 11  1  0  0  0  0
 13 15  1  0  0  0  0
 14 13  1  0  0  0  0
 15 18  1  0  0  0  0
 15  9  2  0  0  0  0
 16 11  1  0  0  0  0
 17 12  1  0  0  0  0
 18 21  1  0  0  0  0
 18 19  1  0  0  0  0
 20 18  1  0  0  0  0
 22 29  1  0  0  0  0
 23 22  2  0  0  0  0
 23 25  1  0  0  0  0
 24 23  1  0  0  0  0
 25 27  2  0  0  0  0
 26 25  1  0  0  0  0
 27 28  1  0  0  0  0
 29 27  1  0  0  0  0
 30 33  1  0  0  0  0
 30 32  1  0  0  0  0
 31 30  1  0  0  0  0
M  END
>  <minimizedAffinity>
-6.00142002

$$$$

 OpenBabel03272500203D

 33 35  0  0  0  0  0  0  0  0999 V2000
   35.6630   28.4610   32.0600 C   0  0  0  0  0  0  0  0  0  0  0  0
   36.5580   27.4700   32.5690 C   0  0  0  0  0  0  0  0  0  0  0  0
   36.9340   27.5380   33.8980 C   0  0  0  0  0  0  0  0  0  0  0  0
   36.4050   28.5720   34.6300 N   0  0  0  0  0  0  0  0  0  0  0  0
   35.5860   29.4760   34.1560 C   0  0  0  0  0  0  0  0  0  0  0  0
   35.2090   29.4310   32.8820 N   0  0  0  0  0  0  0  0  0  0  0  0
   35.4110   28.3520   31.0230 H   0  0  0  0  0  0  0  0  0  0  0  0
   32.6140   29.3680   34.7770 Cl  0  0  0  0  0  0  0  0  0  0  0  0
   33.7260   30.5780   35.4010 C   0  0  0  0  0  0  0  0  0  0  0  0
   35.0880   30.5230   35.0460 C   0  0  0  0  0  0  0  0  0  0  0  0
   36.0030   31.4600   35.5180 C   0  0  0  0  0  0  0  0  0  0  0  0
   35.5100   32.4570   36.3600 C   0  0  0  0  0  0  0  0  0  0  0  0
   34.1830   32.5320   36.7220 C   0  0  0  0  0  0  0  0  0  0  0  0
   33.6800   33.8250   37.7820 Cl  0  0  0  0  0  0  0  0  0  0  0  0
   33.2940   31.5770   36.2310 C   0  0  0  0  0  0  0  0  0  0  0  0
   37.0480   31.4100   35.2410 H   0  0  0  0  0  0  0  0  0  0  0  0
   36.2590   33.1610   36.7010 H   0  0  0  0  0  0  0  0  0  0  0  0
   31.8670   31.6420   36.6090 C   0  0  0  0  0  0  0  0  0  0  0  0
   31.6010   32.8410   37.2830 F   0  0  0  0  0  0  0  0  0  0  0  0
   31.4590   30.5710   37.3300 F   0  0  0  0  0  0  0  0  0  0  0  0
   31.0850   31.6890   35.4590 F   0  0  0  0  0  0  0  0  0  0  0  0
   37.7780   26.6040   34.6080 C   0  0  0  0  0  0  0  0  0  0  0  0
   39.0900   26.2930   34.7720 C   0  0  0  0  0  0  0  0  0  0  0  0
   39.8660   26.7950   34.2820 H   0  0  0  0  0  0  0  0  0  0  0  0
   39.3450   25.2450   35.6110 C   0  0  0  0  0  0  0  0  0  0  0  0
   40.2500   24.7850   35.9270 H   0  0  0  0  0  0  0  0  0  0  0  0
   38.0690   24.9070   35.9730 C   0  0  0  0  0  0  0  0  0  0  0  0
   37.7020   24.1140   36.6450 H   0  0  0  0  0  0  0  0  0  0  0  0
   37.2370   25.6980   35.3830 O   0  0  0  0  0  0  0  0  0  0  0  0
   37.0670   26.4130   31.6460 C   0  0  0  0  0  0  0  0  0  0  0  0
   36.7980   25.1420   32.1330 F   0  0  0  0  0  0  0  0  0  0  0  0
   36.5190   26.6120   30.4150 F   0  0  0  0  0  0  0  0  0  0  0  0
   38.4540   26.4900   31.4880 F   0  0  0  0  0  0  0  0  0  0  0  0
  1  2  2  0  0  0  0
  1  6  1  0  0  0  0
  2  3  1  0  0  0  0
  3 22  1  0  0  0  0
  3  4  2  0  0  0  0
  5  4  1  0  0  0  0
  5 10  1  0  0  0  0
  6  5  2  0  0  0  0
  7  1  1  0  0  0  0
  8  9  1  0  0  0  0
  9 15  1  0  0  0  0
 10  9  2  0  0  0  0
 10 11  1  0  0  0  0
 11 12  2  0  0  0  0
 12 17  1  0  0  0  0
 12 13  1  0  0  0  0
 13 14  1  0  0  0  0
 15 18  1  0  0  0  0
 15 13  2  0  0  0  0
 16 11  1  0  0  0  0
 18 19  1  0  0  0  0
 18 20  1  0  0  0  0
 21 18  1  0  0  0  0
 22 23  2  0  0  0  0
 22 29  1  0  0  0  0
 23 25  1  0  0  0  0
 24 23  1  0  0  0  0
 25 26  1  0  0  0  0
 25 27  2  0  0  0  0
 27 28  1  0  0  0  0
 29 27  1  0  0  0  0
 30 31  1  0  0  0  0
 30  2  1  0  0  0  0
 32 30  1  0  0  0  0
 33 30  1  0  0  0  0
M  END
>  <minimizedAffinity>
-5.93985415

$$$$

 OpenBabel03272500203D

 33 35  0  0  0  0  0  0  0  0999 V2000
   37.0090   28.9140   31.4540 C   0  0  0  0  0  0  0  0  0  0  0  0
   37.7590   27.8910   32.1130 C   0  0  0  0  0  0  0  0  0  0  0  0
   37.3670   27.4940   33.3770 C   0  0  0  0  0  0  0  0  0  0  0  0
   36.2680   28.1280   33.9040 N   0  0  0  0  0  0  0  0  0  0  0  0
   35.5870   29.0640   33.2940 C   0  0  0  0  0  0  0  0  0  0  0  0
   35.9450   29.4620   32.0770 N   0  0  0  0  0  0  0  0  0  0  0  0
   37.3650   29.1760   30.4760 H   0  0  0  0  0  0  0  0  0  0  0  0
   36.2120   30.8480   35.6710 Cl  0  0  0  0  0  0  0  0  0  0  0  0
   34.5960   30.4940   35.0810 C   0  0  0  0  0  0  0  0  0  0  0  0
   34.4290   29.6530   33.9630 C   0  0  0  0  0  0  0  0  0  0  0  0
   33.1670   29.3470   33.4620 C   0  0  0  0  0  0  0  0  0  0  0  0
   32.0720   29.9110   34.1170 C   0  0  0  0  0  0  0  0  0  0  0  0
   32.2080   30.7370   35.2120 C   0  0  0  0  0  0  0  0  0  0  0  0
   30.7660   31.3850   35.9520 Cl  0  0  0  0  0  0  0  0  0  0  0  0
   33.4880   31.0220   35.6880 C   0  0  0  0  0  0  0  0  0  0  0  0
   33.0480   28.7010   32.6020 H   0  0  0  0  0  0  0  0  0  0  0  0
   31.1130   29.6440   33.6910 H   0  0  0  0  0  0  0  0  0  0  0  0
   33.6530   31.9050   36.8610 C   0  0  0  0  0  0  0  0  0  0  0  0
   33.1000   33.1650   36.5960 F   0  0  0  0  0  0  0  0  0  0  0  0
   34.9390   32.0090   37.2710 F   0  0  0  0  0  0  0  0  0  0  0  0
   32.9170   31.4000   37.9280 F   0  0  0  0  0  0  0  0  0  0  0  0
   37.9570   26.4440   34.1770 C   0  0  0  0  0  0  0  0  0  0  0  0
   38.8120   26.2770   35.2200 C   0  0  0  0  0  0  0  0  0  0  0  0
   39.2930   27.0690   35.7030 H   0  0  0  0  0  0  0  0  0  0  0  0
   39.0350   24.9810   35.5930 C   0  0  0  0  0  0  0  0  0  0  0  0
   39.6380   24.5500   36.3560 H   0  0  0  0  0  0  0  0  0  0  0  0
   38.2420   24.3270   34.6900 C   0  0  0  0  0  0  0  0  0  0  0  0
   38.0540   23.2500   34.5500 H   0  0  0  0  0  0  0  0  0  0  0  0
   37.6650   25.1930   33.9260 O   0  0  0  0  0  0  0  0  0  0  0  0
   38.9450   27.3060   31.4220 C   0  0  0  0  0  0  0  0  0  0  0  0
   40.0930   27.4280   32.1920 F   0  0  0  0  0  0  0  0  0  0  0  0
   38.6730   26.0060   31.1170 F   0  0  0  0  0  0  0  0  0  0  0  0
   39.2110   27.9550   30.2130 F   0  0  0  0  0  0  0  0  0  0  0  0
  1  6  2  0  0  0  0
  1  2  1  0  0  0  0
  2  3  2  0  0  0  0
  3  4  1  0  0  0  0
  3 22  1  0  0  0  0
  5  4  2  0  0  0  0
  5 10  1  0  0  0  0
  6  5  1  0  0  0  0
  7  1  1  0  0  0  0
  9  8  1  0  0  0  0
  9 15  1  0  0  0  0
 10  9  2  0  0  0  0
 11 10  1  0  0  0  0
 11 12  2  0  0  0  0
 12 13  1  0  0  0  0
 13 15  2  0  0  0  0
 13 14  1  0  0  0  0
 15 18  1  0  0  0  0
 16 11  1  0  0  0  0
 17 12  1  0  0  0  0
 18 20  1  0  0  0  0
 18 21  1  0  0  0  0
 19 18  1  0  0  0  0
 22 23  2  0  0  0  0
 23 25  1  0  0  0  0
 23 24  1  0  0  0  0
 25 26  1  0  0  0  0
 27 25  2  0  0  0  0
 28 27  1  0  0  0  0
 29 22  1  0  0  0  0
 29 27  1  0  0  0  0
 30  2  1  0  0  0  0
 30 31  1  0  0  0  0
 32 30  1  0  0  0  0
 33 30  1  0  0  0  0
M  END
>  <minimizedAffinity>
-5.93903017

$$$$

 OpenBabel03272500203D

 33 35  0  0  0  0  0  0  0  0999 V2000
   38.4050   24.4170   35.1000 C   0  0  0  0  0  0  0  0  0  0  0  0
   38.0950   25.7260   34.6160 C   0  0  0  0  0  0  0  0  0  0  0  0
   37.5980   25.8560   33.3330 C   0  0  0  0  0  0  0  0  0  0  0  0
   37.4400   24.6940   32.6170 N   0  0  0  0  0  0  0  0  0  0  0  0
   37.7260   23.4990   33.0690 C   0  0  0  0  0  0  0  0  0  0  0  0
   38.2050   23.3490   34.3000 N   0  0  0  0  0  0  0  0  0  0  0  0
   38.7870   24.3850   36.1020 H   0  0  0  0  0  0  0  0  0  0  0  0
   35.6380   21.5190   34.0420 Cl  0  0  0  0  0  0  0  0  0  0  0  0
   36.5640   21.3520   32.5570 C   0  0  0  0  0  0  0  0  0  0  0  0
   37.5040   22.3400   32.2060 C   0  0  0  0  0  0  0  0  0  0  0  0
   38.2570   22.2490   31.0390 C   0  0  0  0  0  0  0  0  0  0  0  0
   38.0390   21.1330   30.2310 C   0  0  0  0  0  0  0  0  0  0  0  0
   37.1250   20.1530   30.5520 C   0  0  0  0  0  0  0  0  0  0  0  0
   36.9370   18.8000   29.4640 Cl  0  0  0  0  0  0  0  0  0  0  0  0
   36.3870   20.2770   31.7290 C   0  0  0  0  0  0  0  0  0  0  0  0
   38.9780   23.0120   30.7770 H   0  0  0  0  0  0  0  0  0  0  0  0
   38.6470   21.1060   29.3360 H   0  0  0  0  0  0  0  0  0  0  0  0
   35.4030   19.2360   32.0890 C   0  0  0  0  0  0  0  0  0  0  0  0
   34.1030   19.6950   31.8380 F   0  0  0  0  0  0  0  0  0  0  0  0
   35.5320   18.8000   33.3640 F   0  0  0  0  0  0  0  0  0  0  0  0
   35.5680   18.1340   31.2560 F   0  0  0  0  0  0  0  0  0  0  0  0
   37.1740   27.0780   32.6880 C   0  0  0  0  0  0  0  0  0  0  0  0
   37.6700   28.0830   31.9200 C   0  0  0  0  0  0  0  0  0  0  0  0
   38.6710   28.1410   31.6230 H   0  0  0  0  0  0  0  0  0  0  0  0
   36.7730   29.0530   31.5720 C   0  0  0  0  0  0  0  0  0  0  0  0
   36.8660   29.9400   30.9920 H   0  0  0  0  0  0  0  0  0  0  0  0
   35.6480   28.5780   32.1910 C   0  0  0  0  0  0  0  0  0  0  0  0
   34.6250   28.9870   32.2290 H   0  0  0  0  0  0  0  0  0  0  0  0
   35.9310   27.4740   32.7970 O   0  0  0  0  0  0  0  0  0  0  0  0
   38.3370   26.9010   35.5040 C   0  0  0  0  0  0  0  0  0  0  0  0
   37.3670   27.8770   35.3290 F   0  0  0  0  0  0  0  0  0  0  0  0
   38.3950   26.4650   36.7940 F   0  0  0  0  0  0  0  0  0  0  0  0
   39.5650   27.5110   35.2300 F   0  0  0  0  0  0  0  0  0  0  0  0
  1  7  1  0  0  0  0
  2  1  1  0  0  0  0
  2 30  1  0  0  0  0
  3  2  2  0  0  0  0
  4  5  2  0  0  0  0
  4  3  1  0  0  0  0
  5  6  1  0  0  0  0
  6  1  2  0  0  0  0
  9  8  1  0  0  0  0
 10  9  1  0  0  0  0
 10  5  1  0  0  0  0
 11 10  2  0  0  0  0
 12 13  2  0  0  0  0
 12 11  1  0  0  0  0
 13 15  1  0  0  0  0
 14 13  1  0  0  0  0
 15 18  1  0  0  0  0
 15  9  2  0  0  0  0
 16 11  1  0  0  0  0
 17 12  1  0  0  0  0
 18 20  1  0  0  0  0
 19 18  1  0  0  0  0
 21 18  1  0  0  0  0
 22 29  1  0  0  0  0
 22  3  1  0  0  0  0
 23 22  2  0  0  0  0
 24 23  1  0  0  0  0
 25 23  1  0  0  0  0
 25 27  2  0  0  0  0
 26 25  1  0  0  0  0
 27 28  1  0  0  0  0
 27 29  1  0  0  0  0
 30 32  1  0  0  0  0
 31 30  1  0  0  0  0
 33 30  1  0  0  0  0
M  END
>  <minimizedAffinity>
-5.92912436

$$$$

 OpenBabel03272500203D

 33 35  0  0  0  0  0  0  0  0999 V2000
   39.8210   24.5570   32.7780 C   0  0  0  0  0  0  0  0  0  0  0  0
   39.8780   24.0260   34.1040 C   0  0  0  0  0  0  0  0  0  0  0  0
   39.0010   24.5180   35.0520 C   0  0  0  0  0  0  0  0  0  0  0  0
   38.1320   25.4950   34.6320 N   0  0  0  0  0  0  0  0  0  0  0  0
   38.0860   25.9760   33.4150 C   0  0  0  0  0  0  0  0  0  0  0  0
   38.9190   25.5170   32.4860 N   0  0  0  0  0  0  0  0  0  0  0  0
   40.5280   24.1330   32.0910 H   0  0  0  0  0  0  0  0  0  0  0  0
   37.6610   28.0900   35.5540 Cl  0  0  0  0  0  0  0  0  0  0  0  0
   36.8200   28.0400   34.0120 C   0  0  0  0  0  0  0  0  0  0  0  0
   37.1050   27.0110   33.0940 C   0  0  0  0  0  0  0  0  0  0  0  0
   36.4640   26.9340   31.8620 C   0  0  0  0  0  0  0  0  0  0  0  0
   35.5240   27.9240   31.5740 C   0  0  0  0  0  0  0  0  0  0  0  0
   35.2280   28.9420   32.4550 C   0  0  0  0  0  0  0  0  0  0  0  0
   34.0330   30.1260   31.9870 Cl  0  0  0  0  0  0  0  0  0  0  0  0
   35.8890   28.9880   33.6810 C   0  0  0  0  0  0  0  0  0  0  0  0
   36.6890   26.1400   31.1620 H   0  0  0  0  0  0  0  0  0  0  0  0
   35.0530   27.8230   30.6050 H   0  0  0  0  0  0  0  0  0  0  0  0
   35.5840   30.0720   34.6380 C   0  0  0  0  0  0  0  0  0  0  0  0
   36.5480   30.1030   35.6550 F   0  0  0  0  0  0  0  0  0  0  0  0
   34.3330   29.9940   35.1480 F   0  0  0  0  0  0  0  0  0  0  0  0
   35.6940   31.3010   33.9950 F   0  0  0  0  0  0  0  0  0  0  0  0
   38.8660   24.0740   36.4200 C   0  0  0  0  0  0  0  0  0  0  0  0
   39.3870   23.1620   37.2820 C   0  0  0  0  0  0  0  0  0  0  0  0
   40.1290   22.4750   37.0140 H   0  0  0  0  0  0  0  0  0  0  0  0
   38.8540   23.1710   38.5400 C   0  0  0  0  0  0  0  0  0  0  0  0
   39.0560   22.5900   39.4080 H   0  0  0  0  0  0  0  0  0  0  0  0
   37.9370   24.1790   38.4090 C   0  0  0  0  0  0  0  0  0  0  0  0
   37.2270   24.6000   39.1390 H   0  0  0  0  0  0  0  0  0  0  0  0
   37.9880   24.6450   37.2060 O   0  0  0  0  0  0  0  0  0  0  0  0
   40.8920   22.9770   34.4190 C   0  0  0  0  0  0  0  0  0  0  0  0
   40.2910   21.8060   34.8580 F   0  0  0  0  0  0  0  0  0  0  0  0
   41.6620   22.7710   33.3150 F   0  0  0  0  0  0  0  0  0  0  0  0
   41.7550   23.3840   35.4410 F   0  0  0  0  0  0  0  0  0  0  0  0
  1  2  1  0  0  0  0
  2 30  1  0  0  0  0
  2  3  2  0  0  0  0
  3 22  1  0  0  0  0
  4  3  1  0  0  0  0
  5  4  2  0  0  0  0
  6  1  2  0  0  0  0
  6  5  1  0  0  0  0
  7  1  1  0  0  0  0
  9  8  1  0  0  0  0
 10  5  1  0  0  0  0
 10  9  2  0  0  0  0
 11 10  1  0  0  0  0
 12 11  2  0  0  0  0
 12 13  1  0  0  0  0
 13 15  2  0  0  0  0
 14 13  1  0  0  0  0
 15  9  1  0  0  0  0
 15 18  1  0  0  0  0
 16 11  1  0  0  0  0
 17 12  1  0  0  0  0
 18 20  1  0  0  0  0
 18 19  1  0  0  0  0
 21 18  1  0  0  0  0
 22 29  1  0  0  0  0
 22 23  2  0  0  0  0
 23 25  1  0  0  0  0
 24 23  1  0  0  0  0
 25 26  1  0  0  0  0
 27 25  2  0  0  0  0
 27 28  1  0  0  0  0
 29 27  1  0  0  0  0
 30 31  1  0  0  0  0
 30 33  1  0  0  0  0
 32 30  1  0  0  0  0
M  END
>  <minimizedAffinity>
-5.84875774

$$$$

 OpenBabel03272500203D

 33 35  0  0  0  0  0  0  0  0999 V2000
   35.6540   26.1880   30.8640 C   0  0  0  0  0  0  0  0  0  0  0  0
   36.3420   26.8260   31.9420 C   0  0  0  0  0  0  0  0  0  0  0  0
   36.9730   26.0360   32.8830 C   0  0  0  0  0  0  0  0  0  0  0  0
   36.8850   24.6770   32.7000 N   0  0  0  0  0  0  0  0  0  0  0  0
   36.2530   24.1010   31.7090 C   0  0  0  0  0  0  0  0  0  0  0  0
   35.6380   24.8410   30.7910 N   0  0  0  0  0  0  0  0  0  0  0  0
   35.1850   26.8570   30.1690 H   0  0  0  0  0  0  0  0  0  0  0  0
   38.5680   22.8560   30.1870 Cl  0  0  0  0  0  0  0  0  0  0  0  0
   37.2620   21.9530   30.9380 C   0  0  0  0  0  0  0  0  0  0  0  0
   36.2420   22.6420   31.6240 C   0  0  0  0  0  0  0  0  0  0  0  0
   35.1890   21.9670   32.2350 C   0  0  0  0  0  0  0  0  0  0  0  0
   35.1890   20.5750   32.1390 C   0  0  0  0  0  0  0  0  0  0  0  0
   36.1740   19.8780   31.4740 C   0  0  0  0  0  0  0  0  0  0  0  0
   36.0700   18.1370   31.4160 Cl  0  0  0  0  0  0  0  0  0  0  0  0
   37.2140   20.5870   30.8730 C   0  0  0  0  0  0  0  0  0  0  0  0
   34.4100   22.5030   32.7610 H   0  0  0  0  0  0  0  0  0  0  0  0
   34.3510   20.0960   32.6290 H   0  0  0  0  0  0  0  0  0  0  0  0
   38.2800   19.8570   30.1560 C   0  0  0  0  0  0  0  0  0  0  0  0
   39.5230   20.1130   30.7500 F   0  0  0  0  0  0  0  0  0  0  0  0
   38.3050   20.1210   28.8280 F   0  0  0  0  0  0  0  0  0  0  0  0
   38.0810   18.4880   30.3020 F   0  0  0  0  0  0  0  0  0  0  0  0
   37.7620   26.4890   34.0060 C   0  0  0  0  0  0  0  0  0  0  0  0
   37.6140   26.9080   35.2900 C   0  0  0  0  0  0  0  0  0  0  0  0
   36.6860   26.9960   35.7630 H   0  0  0  0  0  0  0  0  0  0  0  0
   38.7710   27.2410   35.9370 C   0  0  0  0  0  0  0  0  0  0  0  0
   38.9650   27.5910   36.9220 H   0  0  0  0  0  0  0  0  0  0  0  0
   39.6830   26.9980   34.9450 C   0  0  0  0  0  0  0  0  0  0  0  0
   40.7790   27.1060   34.9390 H   0  0  0  0  0  0  0  0  0  0  0  0
   39.0640   26.5810   33.8920 O   0  0  0  0  0  0  0  0  0  0  0  0
   36.3350   28.3170   32.0220 C   0  0  0  0  0  0  0  0  0  0  0  0
   37.6220   28.8330   31.9620 F   0  0  0  0  0  0  0  0  0  0  0  0
   35.5450   28.8020   31.0240 F   0  0  0  0  0  0  0  0  0  0  0  0
   35.7860   28.7670   33.2260 F   0  0  0  0  0  0  0  0  0  0  0  0
  1  2  1  0  0  0  0
  2 30  1  0  0  0  0
  2  3  2  0  0  0  0
  3 22  1  0  0  0  0
  4  3  1  0  0  0  0
  5  4  2  0  0  0  0
  6  1  2  0  0  0  0
  6  5  1  0  0  0  0
  7  1  1  0  0  0  0
  8  9  1  0  0  0  0
  9 10  1  0  0  0  0
 10  5  1  0  0  0  0
 10 11  2  0  0  0  0
 11 16  1  0  0  0  0
 12 11  1  0  0  0  0
 12 17  1  0  0  0  0
 13 12  2  0  0  0  0
 14 13  1  0  0  0  0
 15  9  2  0  0  0  0
 15 13  1  0  0  0  0
 18 21  1  0  0  0  0
 18 19  1  0  0  0  0
 18 15  1  0  0  0  0
 20 18  1  0  0  0  0
 22 23  2  0  0  0  0
 23 24  1  0  0  0  0
 23 25  1  0  0  0  0
 25 26  1  0  0  0  0
 27 25  2  0  0  0  0
 28 27  1  0  0  0  0
 29 22  1  0  0  0  0
 29 27  1  0  0  0  0
 30 33  1  0  0  0  0
 31 30  1  0  0  0  0
 32 30  1  0  0  0  0
M  END
>  <minimizedAffinity>
-5.8252635

$$$$

 OpenBabel03272500203D

 33 35  0  0  0  0  0  0  0  0999 V2000
   38.2610   25.8920   36.3840 C   0  0  0  0  0  0  0  0  0  0  0  0
   38.4250   24.5620   35.8860 C   0  0  0  0  0  0  0  0  0  0  0  0
   38.1340   24.3130   34.5580 C   0  0  0  0  0  0  0  0  0  0  0  0
   37.7040   25.3850   33.8150 N   0  0  0  0  0  0  0  0  0  0  0  0
   37.5570   26.6000   34.2790 C   0  0  0  0  0  0  0  0  0  0  0  0
   37.8310   26.8640   35.5530 N   0  0  0  0  0  0  0  0  0  0  0  0
   38.5030   26.0180   37.4220 H   0  0  0  0  0  0  0  0  0  0  0  0
   38.9960   26.7630   31.6080 Cl  0  0  0  0  0  0  0  0  0  0  0  0
   37.6960   27.8320   32.1140 C   0  0  0  0  0  0  0  0  0  0  0  0
   37.0990   27.6560   33.3780 C   0  0  0  0  0  0  0  0  0  0  0  0
   36.0660   28.4780   33.8180 C   0  0  0  0  0  0  0  0  0  0  0  0
   35.6450   29.4860   32.9500 C   0  0  0  0  0  0  0  0  0  0  0  0
   36.2120   29.6780   31.7080 C   0  0  0  0  0  0  0  0  0  0  0  0
   35.6050   30.9730   30.7070 Cl  0  0  0  0  0  0  0  0  0  0  0  0
   37.2460   28.8360   31.3000 C   0  0  0  0  0  0  0  0  0  0  0  0
   35.6130   28.3360   34.7910 H   0  0  0  0  0  0  0  0  0  0  0  0
   34.8400   30.0980   33.3360 H   0  0  0  0  0  0  0  0  0  0  0  0
   37.8650   29.0280   29.9720 C   0  0  0  0  0  0  0  0  0  0  0  0
   38.2320   30.3690   29.8010 F   0  0  0  0  0  0  0  0  0  0  0  0
   37.0820   28.5980   28.9540 F   0  0  0  0  0  0  0  0  0  0  0  0
   39.0560   28.3120   29.9090 F   0  0  0  0  0  0  0  0  0  0  0  0
   38.2890   23.0580   33.8590 C   0  0  0  0  0  0  0  0  0  0  0  0
   39.2520   22.2880   33.2890 C   0  0  0  0  0  0  0  0  0  0  0  0
   40.2610   22.5600   33.2530 H   0  0  0  0  0  0  0  0  0  0  0  0
   38.8160   21.1210   32.7280 C   0  0  0  0  0  0  0  0  0  0  0  0
   39.3250   20.3350   32.2240 H   0  0  0  0  0  0  0  0  0  0  0  0
   37.4750   21.2120   32.9880 C   0  0  0  0  0  0  0  0  0  0  0  0
   36.6500   20.5230   32.7450 H   0  0  0  0  0  0  0  0  0  0  0  0
   37.2390   22.3120   33.6200 O   0  0  0  0  0  0  0  0  0  0  0  0
   38.8830   23.4920   36.8200 C   0  0  0  0  0  0  0  0  0  0  0  0
   40.1890   23.1100   36.5510 F   0  0  0  0  0  0  0  0  0  0  0  0
   38.7370   23.9400   38.0990 F   0  0  0  0  0  0  0  0  0  0  0  0
   38.1030   22.3380   36.7060 F   0  0  0  0  0  0  0  0  0  0  0  0
  1  7  1  0  0  0  0
  2  1  1  0  0  0  0
  2 30  1  0  0  0  0
  3  2  2  0  0  0  0
  4  5  2  0  0  0  0
  4  3  1  0  0  0  0
  5  6  1  0  0  0  0
  6  1  2  0  0  0  0
  8  9  1  0  0  0  0
  9 10  1  0  0  0  0
 10 11  2  0  0  0  0
 10  5  1  0  0  0  0
 11 16  1  0  0  0  0
 12 17  1  0  0  0  0
 12 11  1  0  0  0  0
 13 12  2  0  0  0  0
 14 13  1  0  0  0  0
 15 13  1  0  0  0  0
 15  9  2  0  0  0  0
 18 15  1  0  0  0  0
 19 18  1  0  0  0  0
 20 18  1  0  0  0  0
 21 18  1  0  0  0  0
 22  3  1  0  0  0  0
 23 22  2  0  0  0  0
 24 23  1  0  0  0  0
 25 27  2  0  0  0  0
 25 23  1  0  0  0  0
 26 25  1  0  0  0  0
 27 29  1  0  0  0  0
 28 27  1  0  0  0  0
 29 22  1  0  0  0  0
 30 32  1  0  0  0  0
 31 30  1  0  0  0  0
 33 30  1  0  0  0  0
M  END
>  <minimizedAffinity>
-5.75688696

$$$$

 OpenBabel03272500203D

 33 35  0  0  0  0  0  0  0  0999 V2000
   37.0550   28.7320   30.3760 C   0  0  0  0  0  0  0  0  0  0  0  0
   36.3460   29.5560   31.3040 C   0  0  0  0  0  0  0  0  0  0  0  0
   35.9550   29.0070   32.5110 C   0  0  0  0  0  0  0  0  0  0  0  0
   36.2860   27.6910   32.7210 N   0  0  0  0  0  0  0  0  0  0  0  0
   36.9360   26.9430   31.8650 C   0  0  0  0  0  0  0  0  0  0  0  0
   37.3230   27.4490   30.6980 N   0  0  0  0  0  0  0  0  0  0  0  0
   37.3300   29.2170   29.4590 H   0  0  0  0  0  0  0  0  0  0  0  0
   34.9640   24.8760   30.8330 Cl  0  0  0  0  0  0  0  0  0  0  0  0
   36.3870   24.5100   31.7970 C   0  0  0  0  0  0  0  0  0  0  0  0
   37.2340   25.5560   32.2150 C   0  0  0  0  0  0  0  0  0  0  0  0
   38.3720   25.3120   32.9780 C   0  0  0  0  0  0  0  0  0  0  0  0
   38.6380   23.9830   33.3110 C   0  0  0  0  0  0  0  0  0  0  0  0
   37.8260   22.9430   32.9130 C   0  0  0  0  0  0  0  0  0  0  0  0
   38.2580   21.3200   33.3900 Cl  0  0  0  0  0  0  0  0  0  0  0  0
   36.6940   23.2240   32.1500 C   0  0  0  0  0  0  0  0  0  0  0  0
   39.0180   26.1210   33.2950 H   0  0  0  0  0  0  0  0  0  0  0  0
   39.5330   23.8440   33.9040 H   0  0  0  0  0  0  0  0  0  0  0  0
   35.8120   22.1210   31.7150 C   0  0  0  0  0  0  0  0  0  0  0  0
   34.7550   21.9630   32.6220 F   0  0  0  0  0  0  0  0  0  0  0  0
   36.4740   20.9560   31.5230 F   0  0  0  0  0  0  0  0  0  0  0  0
   35.2090   22.4590   30.5080 F   0  0  0  0  0  0  0  0  0  0  0  0
   35.2860   29.6890   33.5950 C   0  0  0  0  0  0  0  0  0  0  0  0
   35.5430   30.5680   34.5980 C   0  0  0  0  0  0  0  0  0  0  0  0
   36.4920   30.9660   34.7860 H   0  0  0  0  0  0  0  0  0  0  0  0
   34.4740   30.8920   35.3850 C   0  0  0  0  0  0  0  0  0  0  0  0
   34.3720   31.5380   36.2240 H   0  0  0  0  0  0  0  0  0  0  0  0
   33.4990   30.1350   34.7940 C   0  0  0  0  0  0  0  0  0  0  0  0
   32.4300   30.0240   35.0410 H   0  0  0  0  0  0  0  0  0  0  0  0
   34.0090   29.4860   33.8020 O   0  0  0  0  0  0  0  0  0  0  0  0
   36.0400   30.9680   30.9290 C   0  0  0  0  0  0  0  0  0  0  0  0
   36.6780   31.8660   31.7720 F   0  0  0  0  0  0  0  0  0  0  0  0
   36.3890   31.1560   29.6260 F   0  0  0  0  0  0  0  0  0  0  0  0
   34.6720   31.2420   31.0230 F   0  0  0  0  0  0  0  0  0  0  0  0
  1  6  2  0  0  0  0
  1  2  1  0  0  0  0
  2  3  2  0  0  0  0
  3  4  1  0  0  0  0
  3 22  1  0  0  0  0
  5 10  1  0  0  0  0
  5  4  2  0  0  0  0
  6  5  1  0  0  0  0
  7  1  1  0  0  0  0
  8  9  1  0  0  0  0
  9 15  2  0  0  0  0
  9 10  1  0  0  0  0
 10 11  2  0  0  0  0
 11 16  1  0  0  0  0
 11 12  1  0  0  0  0
 12 17  1  0  0  0  0
 13 12  2  0  0  0  0
 13 14  1  0  0  0  0
 15 13  1  0  0  0  0
 18 15  1  0  0  0  0
 18 19  1  0  0  0  0
 20 18  1  0  0  0  0
 21 18  1  0  0  0  0
 22 29  1  0  0  0  0
 22 23  2  0  0  0  0
 23 24  1  0  0  0  0
 23 25  1  0  0  0  0
 25 26  1  0  0  0  0
 27 28  1  0  0  0  0
 27 25  2  0  0  0  0
 29 27  1  0  0  0  0
 30 33  1  0  0  0  0
 30  2  1  0  0  0  0
 30 31  1  0  0  0  0
 32 30  1  0  0  0  0
M  END
>  <minimizedAffinity>
-5.71174002

$$$$
