
 OpenBabel03262520143D

 41 43  0  0  0  0  0  0  0  0999 V2000
   38.3090   26.3170   32.0940 C   0  0  0  0  0  0  0  0  0  0  0  0
   39.2750   25.7390   32.1680 H   0  0  0  0  0  0  0  0  0  0  0  0
   38.4680   27.0030   31.2360 H   0  0  0  0  0  0  0  0  0  0  0  0
   38.6640   23.2600   32.8040 Br  0  0  0  0  0  0  0  0  0  0  0  0
   37.1310   24.1020   32.0140 C   0  0  0  0  0  0  0  0  0  0  0  0
   36.0210   23.3610   31.6900 C   0  0  0  0  0  0  0  0  0  0  0  0
   34.9580   24.0100   31.1240 C   0  0  0  0  0  0  0  0  0  0  0  0
   34.9700   25.3750   30.8700 C   0  0  0  0  0  0  0  0  0  0  0  0
   36.1170   26.0960   31.2120 C   0  0  0  0  0  0  0  0  0  0  0  0
   37.1810   25.4490   31.7790 C   0  0  0  0  0  0  0  0  0  0  0  0
   34.0930   23.3720   30.8830 H   0  0  0  0  0  0  0  0  0  0  0  0
   34.0550   25.7280   30.4210 H   0  0  0  0  0  0  0  0  0  0  0  0
   35.9300   27.1010   30.9270 H   0  0  0  0  0  0  0  0  0  0  0  0
   36.2790   19.7710   31.0820 C   0  0  0  0  0  0  0  0  0  0  0  0
   35.8900   19.1920   32.3290 C   0  0  0  0  0  0  0  0  0  0  0  0
   35.5520   20.0580   33.3380 C   0  0  0  0  0  0  0  0  0  0  0  0
   35.5950   21.4190   33.1300 N   0  0  0  0  0  0  0  0  0  0  0  0
   35.9690   21.9160   31.9350 C   0  0  0  0  0  0  0  0  0  0  0  0
   36.3030   21.0900   30.9320 N   0  0  0  0  0  0  0  0  0  0  0  0
   36.5560   19.1390   30.2490 H   0  0  0  0  0  0  0  0  0  0  0  0
   35.8740   18.1250   32.4360 H   0  0  0  0  0  0  0  0  0  0  0  0
   35.2530   19.6740   34.2950 H   0  0  0  0  0  0  0  0  0  0  0  0
   38.2090   27.1410   33.3280 C   0  0  0  0  0  0  0  0  0  0  0  0
   38.4810   28.1930   32.9610 H   0  0  0  0  0  0  0  0  0  0  0  0
   37.2080   27.2620   33.6890 H   0  0  0  0  0  0  0  0  0  0  0  0
   39.2690   26.7960   34.2010 N   0  0  0  0  0  0  0  0  0  0  0  0
   40.1800   27.2490   33.9960 H   0  0  0  0  0  0  0  0  0  0  0  0
   38.9640   26.6360   35.5720 C   0  0  0  0  0  0  0  0  0  0  0  0
   39.8070   26.2110   36.1550 H   0  0  0  0  0  0  0  0  0  0  0  0
   38.6690   27.6180   35.9930 H   0  0  0  0  0  0  0  0  0  0  0  0
   37.8240   25.6780   35.7020 C   0  0  0  0  0  0  0  0  0  0  0  0
   36.9760   26.0940   36.2950 H   0  0  0  0  0  0  0  0  0  0  0  0
   37.5280   25.0890   34.8550 H   0  0  0  0  0  0  0  0  0  0  0  0
   38.3680   24.6080   36.6610 C   0  0  0  0  0  0  0  0  0  0  0  0
   37.9210   24.3830   37.9480 C   0  0  0  0  0  0  0  0  0  0  0  0
   37.1410   24.9210   38.4440 H   0  0  0  0  0  0  0  0  0  0  0  0
   38.6580   23.3440   38.4780 C   0  0  0  0  0  0  0  0  0  0  0  0
   38.5310   22.9430   39.4760 H   0  0  0  0  0  0  0  0  0  0  0  0
   39.5340   22.9840   37.4600 C   0  0  0  0  0  0  0  0  0  0  0  0
   40.2510   22.1870   37.5730 H   0  0  0  0  0  0  0  0  0  0  0  0
   39.3310   23.7530   36.4080 O   0  0  0  0  0  0  0  0  0  0  0  0
  1  2  1  0  0  0  0
  1 23  1  0  0  0  0
  3  1  1  0  0  0  0
  5  4  1  0  0  0  0
  6 18  1  0  0  0  0
  6  5  2  0  0  0  0
  7  6  1  0  0  0  0
  8  7  2  0  0  0  0
  8  9  1  0  0  0  0
  9 10  2  0  0  0  0
 10  5  1  0  0  0  0
 10  1  1  0  0  0  0
 11  7  1  0  0  0  0
 12  8  1  0  0  0  0
 13  9  1  0  0  0  0
 14 15  1  0  0  0  0
 15 21  1  0  0  0  0
 15 16  2  0  0  0  0
 16 22  1  0  0  0  0
 17 16  1  0  0  0  0
 18 17  2  0  0  0  0
 19 14  2  0  0  0  0
 19 18  1  0  0  0  0
 20 14  1  0  0  0  0
 23 25  1  0  0  0  0
 23 26  1  0  0  0  0
 24 23  1  0  0  0  0
 26 28  1  0  0  0  0
 27 26  1  0  0  0  0
 28 31  1  0  0  0  0
 28 30  1  0  0  0  0
 28 29  1  0  0  0  0
 31 32  1  0  0  0  0
 31 34  1  0  0  0  0
 33 31  1  0  0  0  0
 34 35  2  0  0  0  0
 35 36  1  0  0  0  0
 35 37  1  0  0  0  0
 37 38  1  0  0  0  0
 39 40  1  0  0  0  0
 39 37  2  0  0  0  0
 41 34  1  0  0  0  0
 41 39  1  0  0  0  0
M  END
>  <minimizedAffinity>
-5.24056959

$$$$

 OpenBabel03262520143D

 41 43  0  0  0  0  0  0  0  0999 V2000
   37.2060   27.2640   31.5550 C   0  0  0  0  0  0  0  0  0  0  0  0
   37.0420   28.3460   31.2810 H   0  0  0  0  0  0  0  0  0  0  0  0
   37.9540   26.9070   30.8180 H   0  0  0  0  0  0  0  0  0  0  0  0
   39.8770   25.5890   31.7520 Br  0  0  0  0  0  0  0  0  0  0  0  0
   38.9320   26.4460   33.1850 C   0  0  0  0  0  0  0  0  0  0  0  0
   39.4040   26.3710   34.4720 C   0  0  0  0  0  0  0  0  0  0  0  0
   38.6880   26.9960   35.4570 C   0  0  0  0  0  0  0  0  0  0  0  0
   37.5160   27.6930   35.1960 C   0  0  0  0  0  0  0  0  0  0  0  0
   37.0660   27.7460   33.8740 C   0  0  0  0  0  0  0  0  0  0  0  0
   37.7800   27.1240   32.8880 C   0  0  0  0  0  0  0  0  0  0  0  0
   39.1090   26.9060   36.4720 H   0  0  0  0  0  0  0  0  0  0  0  0
   37.0770   28.1240   36.0810 H   0  0  0  0  0  0  0  0  0  0  0  0
   36.1620   28.3040   33.8930 H   0  0  0  0  0  0  0  0  0  0  0  0
   41.5970   23.6540   35.5350 C   0  0  0  0  0  0  0  0  0  0  0  0
   42.9060   24.2140   35.4150 C   0  0  0  0  0  0  0  0  0  0  0  0
   42.9900   25.5090   34.9710 C   0  0  0  0  0  0  0  0  0  0  0  0
   41.8460   26.2140   34.6630 N   0  0  0  0  0  0  0  0  0  0  0  0
   40.6340   25.6410   34.7940 C   0  0  0  0  0  0  0  0  0  0  0  0
   40.5260   24.3750   35.2260 N   0  0  0  0  0  0  0  0  0  0  0  0
   41.4680   22.6360   35.8810 H   0  0  0  0  0  0  0  0  0  0  0  0
   43.7620   23.6200   35.6690 H   0  0  0  0  0  0  0  0  0  0  0  0
   43.9490   25.9780   34.8630 H   0  0  0  0  0  0  0  0  0  0  0  0
   35.9260   26.5570   31.2890 C   0  0  0  0  0  0  0  0  0  0  0  0
   35.5330   26.3240   32.3410 H   0  0  0  0  0  0  0  0  0  0  0  0
   35.1610   27.1830   30.8780 H   0  0  0  0  0  0  0  0  0  0  0  0
   36.2080   25.2820   30.7370 N   0  0  0  0  0  0  0  0  0  0  0  0
   37.1700   25.1600   30.3700 H   0  0  0  0  0  0  0  0  0  0  0  0
   35.6520   24.1530   31.3800 C   0  0  0  0  0  0  0  0  0  0  0  0
   35.0080   24.4210   32.2430 H   0  0  0  0  0  0  0  0  0  0  0  0
   35.0700   23.5680   30.6400 H   0  0  0  0  0  0  0  0  0  0  0  0
   36.7630   23.3090   31.9170 C   0  0  0  0  0  0  0  0  0  0  0  0
   37.4910   23.0020   31.1300 H   0  0  0  0  0  0  0  0  0  0  0  0
   37.2070   23.5580   32.8610 H   0  0  0  0  0  0  0  0  0  0  0  0
   36.0730   21.9730   32.2300 C   0  0  0  0  0  0  0  0  0  0  0  0
   36.2640   21.2210   33.3720 C   0  0  0  0  0  0  0  0  0  0  0  0
   36.9140   21.4690   34.1850 H   0  0  0  0  0  0  0  0  0  0  0  0
   35.4690   20.0970   33.2780 C   0  0  0  0  0  0  0  0  0  0  0  0
   35.4090   19.3180   34.0290 H   0  0  0  0  0  0  0  0  0  0  0  0
   34.8230   20.2280   32.0540 C   0  0  0  0  0  0  0  0  0  0  0  0
   34.1220   19.4940   31.6900 H   0  0  0  0  0  0  0  0  0  0  0  0
   35.2060   21.3470   31.4690 O   0  0  0  0  0  0  0  0  0  0  0  0
  1 10  1  0  0  0  0
  2  1  1  0  0  0  0
  3  1  1  0  0  0  0
  4  5  1  0  0  0  0
  5  6  1  0  0  0  0
  6 18  1  0  0  0  0
  6  7  2  0  0  0  0
  7 11  1  0  0  0  0
  8  7  1  0  0  0  0
  8 12  1  0  0  0  0
  9 13  1  0  0  0  0
  9  8  2  0  0  0  0
 10  5  2  0  0  0  0
 10  9  1  0  0  0  0
 14 20  1  0  0  0  0
 15 14  1  0  0  0  0
 15 21  1  0  0  0  0
 16 15  2  0  0  0  0
 17 18  2  0  0  0  0
 17 16  1  0  0  0  0
 18 19  1  0  0  0  0
 19 14  2  0  0  0  0
 22 16  1  0  0  0  0
 23  1  1  0  0  0  0
 23 24  1  0  0  0  0
 25 23  1  0  0  0  0
 26 23  1  0  0  0  0
 26 28  1  0  0  0  0
 27 26  1  0  0  0  0
 28 31  1  0  0  0  0
 28 29  1  0  0  0  0
 30 28  1  0  0  0  0
 31 34  1  0  0  0  0
 31 33  1  0  0  0  0
 32 31  1  0  0  0  0
 34 35  2  0  0  0  0
 35 36  1  0  0  0  0
 37 35  1  0  0  0  0
 37 38  1  0  0  0  0
 39 37  2  0  0  0  0
 40 39  1  0  0  0  0
 41 39  1  0  0  0  0
 41 34  1  0  0  0  0
M  END
>  <minimizedAffinity>
-5.0757947

$$$$

 OpenBabel03262520143D

 41 43  0  0  0  0  0  0  0  0999 V2000
   37.8940   27.7140   32.5670 C   0  0  0  0  0  0  0  0  0  0  0  0
   38.1750   28.4080   33.4110 H   0  0  0  0  0  0  0  0  0  0  0  0
   38.6910   27.8700   31.8100 H   0  0  0  0  0  0  0  0  0  0  0  0
   38.5760   27.1790   35.6040 Br  0  0  0  0  0  0  0  0  0  0  0  0
   38.1950   25.8750   34.2480 C   0  0  0  0  0  0  0  0  0  0  0  0
   38.1980   24.5360   34.5510 C   0  0  0  0  0  0  0  0  0  0  0  0
   37.9260   23.6480   33.5450 C   0  0  0  0  0  0  0  0  0  0  0  0
   37.6510   24.0570   32.2480 C   0  0  0  0  0  0  0  0  0  0  0  0
   37.6570   25.4280   31.9770 C   0  0  0  0  0  0  0  0  0  0  0  0
   37.9280   26.3170   32.9800 C   0  0  0  0  0  0  0  0  0  0  0  0
   37.9410   22.5860   33.8400 H   0  0  0  0  0  0  0  0  0  0  0  0
   37.4590   23.2330   31.5780 H   0  0  0  0  0  0  0  0  0  0  0  0
   37.4420   25.5260   30.9420 H   0  0  0  0  0  0  0  0  0  0  0  0
   39.9940   22.9900   37.3270 C   0  0  0  0  0  0  0  0  0  0  0  0
   39.0990   23.1410   38.4310 C   0  0  0  0  0  0  0  0  0  0  0  0
   37.9060   23.7710   38.1810 C   0  0  0  0  0  0  0  0  0  0  0  0
   37.6120   24.2260   36.9140 N   0  0  0  0  0  0  0  0  0  0  0  0
   38.4900   24.0590   35.9070 C   0  0  0  0  0  0  0  0  0  0  0  0
   39.6640   23.4460   36.1250 N   0  0  0  0  0  0  0  0  0  0  0  0
   40.9510   22.5010   37.4630 H   0  0  0  0  0  0  0  0  0  0  0  0
   39.3790   22.7670   39.3960 H   0  0  0  0  0  0  0  0  0  0  0  0
   37.1980   23.9100   38.9750 H   0  0  0  0  0  0  0  0  0  0  0  0
   36.6180   28.2240   32.0000 C   0  0  0  0  0  0  0  0  0  0  0  0
   36.9080   29.2570   31.5940 H   0  0  0  0  0  0  0  0  0  0  0  0
   36.2930   27.7030   31.1230 H   0  0  0  0  0  0  0  0  0  0  0  0
   35.7230   28.5090   33.0600 N   0  0  0  0  0  0  0  0  0  0  0  0
   35.7560   27.8500   33.8590 H   0  0  0  0  0  0  0  0  0  0  0  0
   35.5170   29.8670   33.3970 C   0  0  0  0  0  0  0  0  0  0  0  0
   36.1360   30.1950   34.2580 H   0  0  0  0  0  0  0  0  0  0  0  0
   35.7370   30.4950   32.5110 H   0  0  0  0  0  0  0  0  0  0  0  0
   34.0890   30.0520   33.7970 C   0  0  0  0  0  0  0  0  0  0  0  0
   33.5520   30.7850   33.1510 H   0  0  0  0  0  0  0  0  0  0  0  0
   33.5040   29.1990   34.0830 H   0  0  0  0  0  0  0  0  0  0  0  0
   34.1900   30.8300   35.1180 C   0  0  0  0  0  0  0  0  0  0  0  0
   33.1460   31.0640   35.9910 C   0  0  0  0  0  0  0  0  0  0  0  0
   32.1350   30.7360   35.8640 H   0  0  0  0  0  0  0  0  0  0  0  0
   33.6370   31.7930   37.0550 C   0  0  0  0  0  0  0  0  0  0  0  0
   33.0480   32.1260   37.9010 H   0  0  0  0  0  0  0  0  0  0  0  0
   34.9860   31.9670   36.7640 C   0  0  0  0  0  0  0  0  0  0  0  0
   35.6510   32.5070   37.4180 H   0  0  0  0  0  0  0  0  0  0  0  0
   35.2700   31.3850   35.6150 O   0  0  0  0  0  0  0  0  0  0  0  0
  1 10  1  0  0  0  0
  1  2  1  0  0  0  0
  3  1  1  0  0  0  0
  5  6  1  0  0  0  0
  5  4  1  0  0  0  0
  6 18  1  0  0  0  0
  7 11  1  0  0  0  0
  7  6  2  0  0  0  0
  8  7  1  0  0  0  0
  9  8  2  0  0  0  0
  9 10  1  0  0  0  0
 10  5  2  0  0  0  0
 12  8  1  0  0  0  0
 13  9  1  0  0  0  0
 14 20  1  0  0  0  0
 14 15  1  0  0  0  0
 15 21  1  0  0  0  0
 16 15  2  0  0  0  0
 16 22  1  0  0  0  0
 17 16  1  0  0  0  0
 18 19  1  0  0  0  0
 18 17  2  0  0  0  0
 19 14  2  0  0  0  0
 23  1  1  0  0  0  0
 23 26  1  0  0  0  0
 24 23  1  0  0  0  0
 25 23  1  0  0  0  0
 26 28  1  0  0  0  0
 26 27  1  0  0  0  0
 28 31  1  0  0  0  0
 28 29  1  0  0  0  0
 30 28  1  0  0  0  0
 31 33  1  0  0  0  0
 31 34  1  0  0  0  0
 32 31  1  0  0  0  0
 34 41  1  0  0  0  0
 34 35  2  0  0  0  0
 35 37  1  0  0  0  0
 36 35  1  0  0  0  0
 37 38  1  0  0  0  0
 39 37  2  0  0  0  0
 39 40  1  0  0  0  0
 41 39  1  0  0  0  0
M  END
>  <minimizedAffinity>
-5.01146984

$$$$

 OpenBabel03262520143D

 41 43  0  0  0  0  0  0  0  0999 V2000
   37.8130   27.5580   32.6380 C   0  0  0  0  0  0  0  0  0  0  0  0
   37.6720   28.2660   33.5050 H   0  0  0  0  0  0  0  0  0  0  0  0
   38.8100   27.8240   32.2290 H   0  0  0  0  0  0  0  0  0  0  0  0
   38.6110   27.0740   35.6560 Br  0  0  0  0  0  0  0  0  0  0  0  0
   38.1730   25.7480   34.3400 C   0  0  0  0  0  0  0  0  0  0  0  0
   38.1840   24.4140   34.6670 C   0  0  0  0  0  0  0  0  0  0  0  0
   37.8680   23.5100   33.6890 C   0  0  0  0  0  0  0  0  0  0  0  0
   37.5440   23.8960   32.3960 C   0  0  0  0  0  0  0  0  0  0  0  0
   37.5440   25.2620   32.1000 C   0  0  0  0  0  0  0  0  0  0  0  0
   37.8580   26.1680   33.0760 C   0  0  0  0  0  0  0  0  0  0  0  0
   37.8920   22.4530   34.0020 H   0  0  0  0  0  0  0  0  0  0  0  0
   37.3230   23.0620   31.7500 H   0  0  0  0  0  0  0  0  0  0  0  0
   37.2890   25.3420   31.0730 H   0  0  0  0  0  0  0  0  0  0  0  0
   37.8600   23.7400   38.2390 C   0  0  0  0  0  0  0  0  0  0  0  0
   39.1080   23.1330   38.5800 C   0  0  0  0  0  0  0  0  0  0  0  0
   40.0190   22.9760   37.5670 C   0  0  0  0  0  0  0  0  0  0  0  0
   39.7180   23.3940   36.2890 N   0  0  0  0  0  0  0  0  0  0  0  0
   38.5270   23.9610   36.0190 C   0  0  0  0  0  0  0  0  0  0  0  0
   37.6180   24.1260   36.9930 N   0  0  0  0  0  0  0  0  0  0  0  0
   37.1010   23.8910   38.9960 H   0  0  0  0  0  0  0  0  0  0  0  0
   39.2900   22.8260   39.5910 H   0  0  0  0  0  0  0  0  0  0  0  0
   40.9720   22.5250   37.7690 H   0  0  0  0  0  0  0  0  0  0  0  0
   36.7890   27.9170   31.6220 C   0  0  0  0  0  0  0  0  0  0  0  0
   37.4180   28.3030   30.7440 H   0  0  0  0  0  0  0  0  0  0  0  0
   36.2780   27.0750   31.2030 H   0  0  0  0  0  0  0  0  0  0  0  0
   36.0790   29.0610   32.0650 N   0  0  0  0  0  0  0  0  0  0  0  0
   35.6050   29.6060   31.3210 H   0  0  0  0  0  0  0  0  0  0  0  0
   35.3800   28.9640   33.2900 C   0  0  0  0  0  0  0  0  0  0  0  0
   34.8540   27.9950   33.4110 H   0  0  0  0  0  0  0  0  0  0  0  0
   36.0940   29.1150   34.1250 H   0  0  0  0  0  0  0  0  0  0  0  0
   34.3340   30.0310   33.3320 C   0  0  0  0  0  0  0  0  0  0  0  0
   34.4670   30.7980   32.5340 H   0  0  0  0  0  0  0  0  0  0  0  0
   33.3130   29.7630   33.5270 H   0  0  0  0  0  0  0  0  0  0  0  0
   34.6990   30.8350   34.5890 C   0  0  0  0  0  0  0  0  0  0  0  0
   35.8400   31.5970   34.7500 C   0  0  0  0  0  0  0  0  0  0  0  0
   36.6150   31.7280   34.0240 H   0  0  0  0  0  0  0  0  0  0  0  0
   35.8010   32.1590   36.0100 C   0  0  0  0  0  0  0  0  0  0  0  0
   36.5640   32.8100   36.4200 H   0  0  0  0  0  0  0  0  0  0  0  0
   34.6110   31.6970   36.5610 C   0  0  0  0  0  0  0  0  0  0  0  0
   34.2930   31.9670   37.5550 H   0  0  0  0  0  0  0  0  0  0  0  0
   33.9920   30.9200   35.6920 O   0  0  0  0  0  0  0  0  0  0  0  0
  1 10  1  0  0  0  0
  1  2  1  0  0  0  0
  3  1  1  0  0  0  0
  5  6  1  0  0  0  0
  5  4  1  0  0  0  0
  6 18  1  0  0  0  0
  7 11  1  0  0  0  0
  7  6  2  0  0  0  0
  8  7  1  0  0  0  0
  9  8  2  0  0  0  0
  9 10  1  0  0  0  0
 10  5  2  0  0  0  0
 12  8  1  0  0  0  0
 13  9  1  0  0  0  0
 14 15  1  0  0  0  0
 14 20  1  0  0  0  0
 15 21  1  0  0  0  0
 16 22  1  0  0  0  0
 16 15  2  0  0  0  0
 17 16  1  0  0  0  0
 18 17  2  0  0  0  0
 18 19  1  0  0  0  0
 19 14  2  0  0  0  0
 23 26  1  0  0  0  0
 23  1  1  0  0  0  0
 24 23  1  0  0  0  0
 25 23  1  0  0  0  0
 26 28  1  0  0  0  0
 27 26  1  0  0  0  0
 28 31  1  0  0  0  0
 28 29  1  0  0  0  0
 28 30  1  0  0  0  0
 31 33  1  0  0  0  0
 31 34  1  0  0  0  0
 32 31  1  0  0  0  0
 34 35  2  0  0  0  0
 34 41  1  0  0  0  0
 35 37  1  0  0  0  0
 36 35  1  0  0  0  0
 37 38  1  0  0  0  0
 37 39  2  0  0  0  0
 39 40  1  0  0  0  0
 41 39  1  0  0  0  0
M  END
>  <minimizedAffinity>
-4.9883256

$$$$

 OpenBabel03262520143D

 41 43  0  0  0  0  0  0  0  0999 V2000
   37.0100   23.8100   30.8970 C   0  0  0  0  0  0  0  0  0  0  0  0
   38.0640   24.1500   30.6830 H   0  0  0  0  0  0  0  0  0  0  0  0
   36.7400   23.1890   30.0180 H   0  0  0  0  0  0  0  0  0  0  0  0
   38.9590   24.5820   33.2600 Br  0  0  0  0  0  0  0  0  0  0  0  0
   37.6970   23.1370   33.2160 C   0  0  0  0  0  0  0  0  0  0  0  0
   37.5640   22.2970   34.2940 C   0  0  0  0  0  0  0  0  0  0  0  0
   36.6530   21.2790   34.2080 C   0  0  0  0  0  0  0  0  0  0  0  0
   35.8720   21.0740   33.0790 C   0  0  0  0  0  0  0  0  0  0  0  0
   36.0360   21.9490   32.0010 C   0  0  0  0  0  0  0  0  0  0  0  0
   36.9450   22.9670   32.0860 C   0  0  0  0  0  0  0  0  0  0  0  0
   36.5860   20.6340   35.0990 H   0  0  0  0  0  0  0  0  0  0  0  0
   35.2080   20.2310   33.1740 H   0  0  0  0  0  0  0  0  0  0  0  0
   35.3680   21.6150   31.2470 H   0  0  0  0  0  0  0  0  0  0  0  0
   40.4010   22.0790   36.5810 C   0  0  0  0  0  0  0  0  0  0  0  0
   39.9450   22.7680   37.7470 C   0  0  0  0  0  0  0  0  0  0  0  0
   38.6760   23.2860   37.7060 C   0  0  0  0  0  0  0  0  0  0  0  0
   37.8980   23.1320   36.5790 N   0  0  0  0  0  0  0  0  0  0  0  0
   38.3740   22.4730   35.5050 C   0  0  0  0  0  0  0  0  0  0  0  0
   39.6130   21.9570   35.5200 N   0  0  0  0  0  0  0  0  0  0  0  0
   41.3940   21.6490   36.5540 H   0  0  0  0  0  0  0  0  0  0  0  0
   40.5930   22.8580   38.5970 H   0  0  0  0  0  0  0  0  0  0  0  0
   38.2840   23.8130   38.5550 H   0  0  0  0  0  0  0  0  0  0  0  0
   36.1560   25.0270   30.8800 C   0  0  0  0  0  0  0  0  0  0  0  0
   35.6150   24.9510   29.8710 H   0  0  0  0  0  0  0  0  0  0  0  0
   35.3520   25.0040   31.5870 H   0  0  0  0  0  0  0  0  0  0  0  0
   36.9820   26.1700   30.7430 N   0  0  0  0  0  0  0  0  0  0  0  0
   37.8000   26.0540   30.1170 H   0  0  0  0  0  0  0  0  0  0  0  0
   36.3500   27.4330   30.6940 C   0  0  0  0  0  0  0  0  0  0  0  0
   36.4010   27.9020   29.6900 H   0  0  0  0  0  0  0  0  0  0  0  0
   35.2920   27.3190   31.0050 H   0  0  0  0  0  0  0  0  0  0  0  0
   37.0480   28.3580   31.6380 C   0  0  0  0  0  0  0  0  0  0  0  0
   37.6890   27.8200   32.3750 H   0  0  0  0  0  0  0  0  0  0  0  0
   37.4680   29.2730   31.2680 H   0  0  0  0  0  0  0  0  0  0  0  0
   35.9130   28.8670   32.5390 C   0  0  0  0  0  0  0  0  0  0  0  0
   35.9150   28.8460   33.9190 C   0  0  0  0  0  0  0  0  0  0  0  0
   36.7040   28.4750   34.5400 H   0  0  0  0  0  0  0  0  0  0  0  0
   34.7240   29.3890   34.3550 C   0  0  0  0  0  0  0  0  0  0  0  0
   34.4400   29.5050   35.3940 H   0  0  0  0  0  0  0  0  0  0  0  0
   34.0440   29.7180   33.1870 C   0  0  0  0  0  0  0  0  0  0  0  0
   33.0650   30.1690   33.1980 H   0  0  0  0  0  0  0  0  0  0  0  0
   34.7790   29.3950   32.1400 O   0  0  0  0  0  0  0  0  0  0  0  0
  1 10  1  0  0  0  0
  2  1  1  0  0  0  0
  3  1  1  0  0  0  0
  5  4  1  0  0  0  0
  5  6  1  0  0  0  0
  6 18  1  0  0  0  0
  7  6  2  0  0  0  0
  7 11  1  0  0  0  0
  8 12  1  0  0  0  0
  8  7  1  0  0  0  0
  9 10  1  0  0  0  0
  9  8  2  0  0  0  0
 10  5  2  0  0  0  0
 13  9  1  0  0  0  0
 14 15  1  0  0  0  0
 15 21  1  0  0  0  0
 16 15  2  0  0  0  0
 16 22  1  0  0  0  0
 17 16  1  0  0  0  0
 18 19  1  0  0  0  0
 18 17  2  0  0  0  0
 19 14  2  0  0  0  0
 20 14  1  0  0  0  0
 23  1  1  0  0  0  0
 23 25  1  0  0  0  0
 24 23  1  0  0  0  0
 26 23  1  0  0  0  0
 27 26  1  0  0  0  0
 28 26  1  0  0  0  0
 28 30  1  0  0  0  0
 28 31  1  0  0  0  0
 29 28  1  0  0  0  0
 31 32  1  0  0  0  0
 31 34  1  0  0  0  0
 33 31  1  0  0  0  0
 34 35  2  0  0  0  0
 35 37  1  0  0  0  0
 35 36  1  0  0  0  0
 37 38  1  0  0  0  0
 39 40  1  0  0  0  0
 39 37  2  0  0  0  0
 41 34  1  0  0  0  0
 41 39  1  0  0  0  0
M  END
>  <minimizedAffinity>
-4.90903997

$$$$

 OpenBabel03262520143D

 41 43  0  0  0  0  0  0  0  0999 V2000
   36.3560   26.8620   32.4390 C   0  0  0  0  0  0  0  0  0  0  0  0
   36.8180   26.3210   31.5630 H   0  0  0  0  0  0  0  0  0  0  0  0
   35.3970   26.3310   32.6110 H   0  0  0  0  0  0  0  0  0  0  0  0
   37.9770   24.1680   32.7440 Br  0  0  0  0  0  0  0  0  0  0  0  0
   37.9480   25.6540   33.9590 C   0  0  0  0  0  0  0  0  0  0  0  0
   38.6880   25.6210   35.1150 C   0  0  0  0  0  0  0  0  0  0  0  0
   38.6270   26.7050   35.9480 C   0  0  0  0  0  0  0  0  0  0  0  0
   37.8490   27.8190   35.6630 C   0  0  0  0  0  0  0  0  0  0  0  0
   37.1080   27.8150   34.4780 C   0  0  0  0  0  0  0  0  0  0  0  0
   37.1690   26.7340   33.6430 C   0  0  0  0  0  0  0  0  0  0  0  0
   39.2390   26.6300   36.8620 H   0  0  0  0  0  0  0  0  0  0  0  0
   37.9120   28.5820   36.4220 H   0  0  0  0  0  0  0  0  0  0  0  0
   36.5800   28.7360   34.4570 H   0  0  0  0  0  0  0  0  0  0  0  0
   39.6760   22.4260   36.5760 C   0  0  0  0  0  0  0  0  0  0  0  0
   41.0260   22.2610   36.1400 C   0  0  0  0  0  0  0  0  0  0  0  0
   41.5520   23.2560   35.3560 C   0  0  0  0  0  0  0  0  0  0  0  0
   40.7890   24.3540   35.0210 N   0  0  0  0  0  0  0  0  0  0  0  0
   39.5190   24.4630   35.4580 C   0  0  0  0  0  0  0  0  0  0  0  0
   38.9820   23.5020   36.2260 N   0  0  0  0  0  0  0  0  0  0  0  0
   39.2060   21.6730   37.1970 H   0  0  0  0  0  0  0  0  0  0  0  0
   41.5740   21.3870   36.4310 H   0  0  0  0  0  0  0  0  0  0  0  0
   42.5620   23.1820   35.0010 H   0  0  0  0  0  0  0  0  0  0  0  0
   36.0420   28.2380   31.9750 C   0  0  0  0  0  0  0  0  0  0  0  0
   36.6840   28.8970   32.6600 H   0  0  0  0  0  0  0  0  0  0  0  0
   36.4200   28.4650   30.9990 H   0  0  0  0  0  0  0  0  0  0  0  0
   34.7110   28.5570   32.3390 N   0  0  0  0  0  0  0  0  0  0  0  0
   34.1810   27.7930   32.8000 H   0  0  0  0  0  0  0  0  0  0  0  0
   34.4600   29.8570   32.8340 C   0  0  0  0  0  0  0  0  0  0  0  0
   35.3880   30.4030   33.1000 H   0  0  0  0  0  0  0  0  0  0  0  0
   33.8890   30.4270   32.0740 H   0  0  0  0  0  0  0  0  0  0  0  0
   33.6500   29.7480   34.0850 C   0  0  0  0  0  0  0  0  0  0  0  0
   32.6570   30.2500   34.0030 H   0  0  0  0  0  0  0  0  0  0  0  0
   33.6360   28.8220   34.6280 H   0  0  0  0  0  0  0  0  0  0  0  0
   34.3810   30.6810   35.0630 C   0  0  0  0  0  0  0  0  0  0  0  0
   35.6680   31.1560   34.9050 C   0  0  0  0  0  0  0  0  0  0  0  0
   36.3220   30.9390   34.0860 H   0  0  0  0  0  0  0  0  0  0  0  0
   35.9600   31.9590   35.9890 C   0  0  0  0  0  0  0  0  0  0  0  0
   36.9010   32.4730   36.1420 H   0  0  0  0  0  0  0  0  0  0  0  0
   34.8070   31.9280   36.7660 C   0  0  0  0  0  0  0  0  0  0  0  0
   34.7230   32.4680   37.6950 H   0  0  0  0  0  0  0  0  0  0  0  0
   33.9010   31.1640   36.1850 O   0  0  0  0  0  0  0  0  0  0  0  0
  1  3  1  0  0  0  0
  1 10  1  0  0  0  0
  2  1  1  0  0  0  0
  4  5  1  0  0  0  0
  5  6  1  0  0  0  0
  6 18  1  0  0  0  0
  6  7  2  0  0  0  0
  7 11  1  0  0  0  0
  8  7  1  0  0  0  0
  8 12  1  0  0  0  0
  9  8  2  0  0  0  0
 10  5  2  0  0  0  0
 10  9  1  0  0  0  0
 13  9  1  0  0  0  0
 14 20  1  0  0  0  0
 15 21  1  0  0  0  0
 15 14  2  0  0  0  0
 16 15  1  0  0  0  0
 17 16  2  0  0  0  0
 17 18  1  0  0  0  0
 18 19  2  0  0  0  0
 19 14  1  0  0  0  0
 22 16  1  0  0  0  0
 23 26  1  0  0  0  0
 23  1  1  0  0  0  0
 23 24  1  0  0  0  0
 25 23  1  0  0  0  0
 26 27  1  0  0  0  0
 26 28  1  0  0  0  0
 28 29  1  0  0  0  0
 28 31  1  0  0  0  0
 30 28  1  0  0  0  0
 31 33  1  0  0  0  0
 31 34  1  0  0  0  0
 32 31  1  0  0  0  0
 34 41  1  0  0  0  0
 35 34  2  0  0  0  0
 35 37  1  0  0  0  0
 36 35  1  0  0  0  0
 37 38  1  0  0  0  0
 37 39  2  0  0  0  0
 39 40  1  0  0  0  0
 41 39  1  0  0  0  0
M  END
>  <minimizedAffinity>
-4.89664888

$$$$

 OpenBabel03262520143D

 41 43  0  0  0  0  0  0  0  0999 V2000
   36.5700   24.3080   30.8640 C   0  0  0  0  0  0  0  0  0  0  0  0
   37.4460   25.0190   30.8570 H   0  0  0  0  0  0  0  0  0  0  0  0
   36.6340   23.7880   29.8860 H   0  0  0  0  0  0  0  0  0  0  0  0
   38.5450   25.0140   33.2260 Br  0  0  0  0  0  0  0  0  0  0  0  0
   37.4870   23.4250   33.0280 C   0  0  0  0  0  0  0  0  0  0  0  0
   37.5370   22.4340   33.9770 C   0  0  0  0  0  0  0  0  0  0  0  0
   36.7660   21.3190   33.7840 C   0  0  0  0  0  0  0  0  0  0  0  0
   35.9490   21.1640   32.6730 C   0  0  0  0  0  0  0  0  0  0  0  0
   35.9250   22.1930   31.7270 C   0  0  0  0  0  0  0  0  0  0  0  0
   36.6940   23.3080   31.9190 C   0  0  0  0  0  0  0  0  0  0  0  0
   36.8420   20.5540   34.5740 H   0  0  0  0  0  0  0  0  0  0  0  0
   35.4100   20.2300   32.6730 H   0  0  0  0  0  0  0  0  0  0  0  0
   35.2610   21.8760   30.9620 H   0  0  0  0  0  0  0  0  0  0  0  0
   40.4710   22.1510   36.1290 C   0  0  0  0  0  0  0  0  0  0  0  0
   40.0460   22.7470   37.3560 C   0  0  0  0  0  0  0  0  0  0  0  0
   38.7620   23.2270   37.4000 C   0  0  0  0  0  0  0  0  0  0  0  0
   37.9420   23.1250   36.2970 N   0  0  0  0  0  0  0  0  0  0  0  0
   38.3910   22.5540   35.1630 C   0  0  0  0  0  0  0  0  0  0  0  0
   39.6430   22.0760   35.0940 N   0  0  0  0  0  0  0  0  0  0  0  0
   41.4740   21.7540   36.0330 H   0  0  0  0  0  0  0  0  0  0  0  0
   40.7250   22.8000   38.1830 H   0  0  0  0  0  0  0  0  0  0  0  0
   38.3920   23.6850   38.2980 H   0  0  0  0  0  0  0  0  0  0  0  0
   35.3400   25.1430   30.8600 C   0  0  0  0  0  0  0  0  0  0  0  0
   34.7580   24.7440   29.9560 H   0  0  0  0  0  0  0  0  0  0  0  0
   34.6790   24.9460   31.6790 H   0  0  0  0  0  0  0  0  0  0  0  0
   35.6820   26.4680   30.4930 N   0  0  0  0  0  0  0  0  0  0  0  0
   35.1860   26.8400   29.6620 H   0  0  0  0  0  0  0  0  0  0  0  0
   35.9120   27.3970   31.5330 C   0  0  0  0  0  0  0  0  0  0  0  0
   35.0100   27.5840   32.1510 H   0  0  0  0  0  0  0  0  0  0  0  0
   36.7390   27.0250   32.1710 H   0  0  0  0  0  0  0  0  0  0  0  0
   36.3010   28.7080   30.9290 C   0  0  0  0  0  0  0  0  0  0  0  0
   35.5460   29.0900   30.2040 H   0  0  0  0  0  0  0  0  0  0  0  0
   36.7480   29.4630   31.5470 H   0  0  0  0  0  0  0  0  0  0  0  0
   37.4600   28.3350   29.9920 C   0  0  0  0  0  0  0  0  0  0  0  0
   37.6810   28.8720   28.7390 C   0  0  0  0  0  0  0  0  0  0  0  0
   37.0780   29.6140   28.2590 H   0  0  0  0  0  0  0  0  0  0  0  0
   38.8160   28.2840   28.2180 C   0  0  0  0  0  0  0  0  0  0  0  0
   39.2360   28.5060   27.2450 H   0  0  0  0  0  0  0  0  0  0  0  0
   39.2330   27.3990   29.2060 C   0  0  0  0  0  0  0  0  0  0  0  0
   40.1090   26.7800   29.0930 H   0  0  0  0  0  0  0  0  0  0  0  0
   38.4080   27.4600   30.2340 O   0  0  0  0  0  0  0  0  0  0  0  0
  1 10  1  0  0  0  0
  2  1  1  0  0  0  0
  3  1  1  0  0  0  0
  5  4  1  0  0  0  0
  5  6  1  0  0  0  0
  6 18  1  0  0  0  0
  7  6  2  0  0  0  0
  7 11  1  0  0  0  0
  8 12  1  0  0  0  0
  8  7  1  0  0  0  0
  9 10  1  0  0  0  0
  9  8  2  0  0  0  0
 10  5  2  0  0  0  0
 13  9  1  0  0  0  0
 14 15  1  0  0  0  0
 15 16  2  0  0  0  0
 15 21  1  0  0  0  0
 16 22  1  0  0  0  0
 17 16  1  0  0  0  0
 18 17  2  0  0  0  0
 19 18  1  0  0  0  0
 19 14  2  0  0  0  0
 20 14  1  0  0  0  0
 23  1  1  0  0  0  0
 23 25  1  0  0  0  0
 24 23  1  0  0  0  0
 26 23  1  0  0  0  0
 26 28  1  0  0  0  0
 27 26  1  0  0  0  0
 28 29  1  0  0  0  0
 28 30  1  0  0  0  0
 31 28  1  0  0  0  0
 31 33  1  0  0  0  0
 32 31  1  0  0  0  0
 34 41  1  0  0  0  0
 34 31  1  0  0  0  0
 35 34  2  0  0  0  0
 36 35  1  0  0  0  0
 37 35  1  0  0  0  0
 37 39  2  0  0  0  0
 38 37  1  0  0  0  0
 39 41  1  0  0  0  0
 40 39  1  0  0  0  0
M  END
>  <minimizedAffinity>
-4.87881899

$$$$

 OpenBabel03262520143D

 41 43  0  0  0  0  0  0  0  0999 V2000
   38.5230   27.3800   32.3160 C   0  0  0  0  0  0  0  0  0  0  0  0
   39.1130   28.0310   33.0250 H   0  0  0  0  0  0  0  0  0  0  0  0
   39.1560   27.3260   31.4060 H   0  0  0  0  0  0  0  0  0  0  0  0
   39.1300   26.9840   35.3910 Br  0  0  0  0  0  0  0  0  0  0  0  0
   38.5600   25.6490   34.1340 C   0  0  0  0  0  0  0  0  0  0  0  0
   38.3720   24.3510   34.5370 C   0  0  0  0  0  0  0  0  0  0  0  0
   37.9710   23.4380   33.5990 C   0  0  0  0  0  0  0  0  0  0  0  0
   37.7540   23.7820   32.2720 C   0  0  0  0  0  0  0  0  0  0  0  0
   37.9570   25.1140   31.8990 C   0  0  0  0  0  0  0  0  0  0  0  0
   38.3560   26.0280   32.8340 C   0  0  0  0  0  0  0  0  0  0  0  0
   37.8340   22.4100   33.9730 H   0  0  0  0  0  0  0  0  0  0  0  0
   37.4430   22.9470   31.6660 H   0  0  0  0  0  0  0  0  0  0  0  0
   37.7550   25.1630   30.8580 H   0  0  0  0  0  0  0  0  0  0  0  0
   37.7830   23.8860   38.1090 C   0  0  0  0  0  0  0  0  0  0  0  0
   38.9550   23.2020   38.5560 C   0  0  0  0  0  0  0  0  0  0  0  0
   39.9090   22.9230   37.6110 C   0  0  0  0  0  0  0  0  0  0  0  0
   39.7190   23.2980   36.2990 N   0  0  0  0  0  0  0  0  0  0  0  0
   38.5960   23.9420   35.9280 C   0  0  0  0  0  0  0  0  0  0  0  0
   37.6470   24.2260   36.8330 N   0  0  0  0  0  0  0  0  0  0  0  0
   36.9940   24.1340   38.8090 H   0  0  0  0  0  0  0  0  0  0  0  0
   39.0510   22.9340   39.5900 H   0  0  0  0  0  0  0  0  0  0  0  0
   40.8090   22.4100   37.8940 H   0  0  0  0  0  0  0  0  0  0  0  0
   37.2880   28.1330   31.9720 C   0  0  0  0  0  0  0  0  0  0  0  0
   37.6550   29.2180   31.9060 H   0  0  0  0  0  0  0  0  0  0  0  0
   36.9230   27.9410   30.9840 H   0  0  0  0  0  0  0  0  0  0  0  0
   36.4180   28.1310   33.0900 N   0  0  0  0  0  0  0  0  0  0  0  0
   36.7180   27.5350   33.8850 H   0  0  0  0  0  0  0  0  0  0  0  0
   35.8010   29.3520   33.4420 C   0  0  0  0  0  0  0  0  0  0  0  0
   35.4050   29.3510   34.4790 H   0  0  0  0  0  0  0  0  0  0  0  0
   36.5330   30.1750   33.3170 H   0  0  0  0  0  0  0  0  0  0  0  0
   34.6350   29.5820   32.5360 C   0  0  0  0  0  0  0  0  0  0  0  0
   34.5120   30.6530   32.2530 H   0  0  0  0  0  0  0  0  0  0  0  0
   34.4370   28.8870   31.7430 H   0  0  0  0  0  0  0  0  0  0  0  0
   33.4240   29.3700   33.4570 C   0  0  0  0  0  0  0  0  0  0  0  0
   32.1470   29.0490   33.0400 C   0  0  0  0  0  0  0  0  0  0  0  0
   31.8350   28.9050   32.0270 H   0  0  0  0  0  0  0  0  0  0  0  0
   31.3480   28.9460   34.1610 C   0  0  0  0  0  0  0  0  0  0  0  0
   30.2920   28.7040   34.1470 H   0  0  0  0  0  0  0  0  0  0  0  0
   32.2020   29.2170   35.2240 C   0  0  0  0  0  0  0  0  0  0  0  0
   31.8670   29.2130   36.2480 H   0  0  0  0  0  0  0  0  0  0  0  0
   33.4160   29.4610   34.7660 O   0  0  0  0  0  0  0  0  0  0  0  0
  1 10  1  0  0  0  0
  1  2  1  0  0  0  0
  3  1  1  0  0  0  0
  5  6  1  0  0  0  0
  5  4  1  0  0  0  0
  6 18  1  0  0  0  0
  7 11  1  0  0  0  0
  7  6  2  0  0  0  0
  8  7  1  0  0  0  0
  9  8  2  0  0  0  0
  9 10  1  0  0  0  0
 10  5  2  0  0  0  0
 12  8  1  0  0  0  0
 13  9  1  0  0  0  0
 14 15  1  0  0  0  0
 14 20  1  0  0  0  0
 15 21  1  0  0  0  0
 16 22  1  0  0  0  0
 16 15  2  0  0  0  0
 17 16  1  0  0  0  0
 18 17  2  0  0  0  0
 18 19  1  0  0  0  0
 19 14  2  0  0  0  0
 23  1  1  0  0  0  0
 23 26  1  0  0  0  0
 24 23  1  0  0  0  0
 25 23  1  0  0  0  0
 26 28  1  0  0  0  0
 26 27  1  0  0  0  0
 28 29  1  0  0  0  0
 30 28  1  0  0  0  0
 31 28  1  0  0  0  0
 31 34  1  0  0  0  0
 32 31  1  0  0  0  0
 33 31  1  0  0  0  0
 34 41  1  0  0  0  0
 35 34  2  0  0  0  0
 35 37  1  0  0  0  0
 36 35  1  0  0  0  0
 37 39  2  0  0  0  0
 38 37  1  0  0  0  0
 39 40  1  0  0  0  0
 41 39  1  0  0  0  0
M  END
>  <minimizedAffinity>
-4.86365986

$$$$

 OpenBabel03262520143D

 41 43  0  0  0  0  0  0  0  0999 V2000
   41.5110   26.6190   34.2230 C   0  0  0  0  0  0  0  0  0  0  0  0
   41.7990   26.6120   33.1320 H   0  0  0  0  0  0  0  0  0  0  0  0
   41.8270   27.6210   34.5800 H   0  0  0  0  0  0  0  0  0  0  0  0
   39.8610   25.6850   31.6960 Br  0  0  0  0  0  0  0  0  0  0  0  0
   39.1810   26.1120   33.4390 C   0  0  0  0  0  0  0  0  0  0  0  0
   37.8360   26.0270   33.7000 C   0  0  0  0  0  0  0  0  0  0  0  0
   37.4030   26.3480   34.9580 C   0  0  0  0  0  0  0  0  0  0  0  0
   38.2720   26.7520   35.9630 C   0  0  0  0  0  0  0  0  0  0  0  0
   39.6340   26.8270   35.6600 C   0  0  0  0  0  0  0  0  0  0  0  0
   40.0690   26.5060   34.4030 C   0  0  0  0  0  0  0  0  0  0  0  0
   36.3160   26.2640   35.1160 H   0  0  0  0  0  0  0  0  0  0  0  0
   37.7700   26.9680   36.8920 H   0  0  0  0  0  0  0  0  0  0  0  0
   40.1150   27.1640   36.5440 H   0  0  0  0  0  0  0  0  0  0  0  0
   35.8560   23.8480   31.5420 C   0  0  0  0  0  0  0  0  0  0  0  0
   35.1040   24.7620   30.7420 C   0  0  0  0  0  0  0  0  0  0  0  0
   35.3050   26.0990   30.9730 C   0  0  0  0  0  0  0  0  0  0  0  0
   36.1970   26.5130   31.9390 N   0  0  0  0  0  0  0  0  0  0  0  0
   36.8810   25.6110   32.6670 C   0  0  0  0  0  0  0  0  0  0  0  0
   36.7040   24.2970   32.4600 N   0  0  0  0  0  0  0  0  0  0  0  0
   35.7410   22.7800   31.4060 H   0  0  0  0  0  0  0  0  0  0  0  0
   34.4240   24.3850   30.0040 H   0  0  0  0  0  0  0  0  0  0  0  0
   34.7650   26.8290   30.3990 H   0  0  0  0  0  0  0  0  0  0  0  0
   42.3620   25.6020   34.8960 C   0  0  0  0  0  0  0  0  0  0  0  0
   43.4020   25.7980   34.4530 H   0  0  0  0  0  0  0  0  0  0  0  0
   42.5080   25.7810   35.9410 H   0  0  0  0  0  0  0  0  0  0  0  0
   42.0170   24.3170   34.4110 N   0  0  0  0  0  0  0  0  0  0  0  0
   42.6360   23.9410   33.6690 H   0  0  0  0  0  0  0  0  0  0  0  0
   41.5430   23.3690   35.3470 C   0  0  0  0  0  0  0  0  0  0  0  0
   42.2560   22.5360   35.5160 H   0  0  0  0  0  0  0  0  0  0  0  0
   41.3280   23.8850   36.3040 H   0  0  0  0  0  0  0  0  0  0  0  0
   40.2850   22.7590   34.8180 C   0  0  0  0  0  0  0  0  0  0  0  0
   39.8320   23.3520   33.9900 H   0  0  0  0  0  0  0  0  0  0  0  0
   40.2280   21.6950   34.6870 H   0  0  0  0  0  0  0  0  0  0  0  0
   39.2740   22.9960   35.9500 C   0  0  0  0  0  0  0  0  0  0  0  0
   39.5920   23.2240   37.2740 C   0  0  0  0  0  0  0  0  0  0  0  0
   40.5790   23.2660   37.6840 H   0  0  0  0  0  0  0  0  0  0  0  0
   38.4130   23.3900   37.9720 C   0  0  0  0  0  0  0  0  0  0  0  0
   38.3460   23.5840   39.0360 H   0  0  0  0  0  0  0  0  0  0  0  0
   37.4170   23.2490   37.0110 C   0  0  0  0  0  0  0  0  0  0  0  0
   36.3690   23.3280   37.2520 H   0  0  0  0  0  0  0  0  0  0  0  0
   37.9670   23.0190   35.8340 O   0  0  0  0  0  0  0  0  0  0  0  0
  1 10  1  0  0  0  0
  1  3  1  0  0  0  0
  1 23  1  0  0  0  0
  2  1  1  0  0  0  0
  4  5  1  0  0  0  0
  5  6  2  0  0  0  0
  5 10  1  0  0  0  0
  6  7  1  0  0  0  0
  7 11  1  0  0  0  0
  7  8  2  0  0  0  0
  8 12  1  0  0  0  0
  9  8  1  0  0  0  0
  9 13  1  0  0  0  0
 10  9  2  0  0  0  0
 14 19  1  0  0  0  0
 15 16  1  0  0  0  0
 15 14  2  0  0  0  0
 16 17  2  0  0  0  0
 17 18  1  0  0  0  0
 18  6  1  0  0  0  0
 19 18  2  0  0  0  0
 20 14  1  0  0  0  0
 21 15  1  0  0  0  0
 22 16  1  0  0  0  0
 23 25  1  0  0  0  0
 24 23  1  0  0  0  0
 26 23  1  0  0  0  0
 26 28  1  0  0  0  0
 27 26  1  0  0  0  0
 28 29  1  0  0  0  0
 28 30  1  0  0  0  0
 31 28  1  0  0  0  0
 31 34  1  0  0  0  0
 32 31  1  0  0  0  0
 33 31  1  0  0  0  0
 34 35  2  0  0  0  0
 35 36  1  0  0  0  0
 35 37  1  0  0  0  0
 37 38  1  0  0  0  0
 39 40  1  0  0  0  0
 39 37  2  0  0  0  0
 41 34  1  0  0  0  0
 41 39  1  0  0  0  0
M  END
>  <minimizedAffinity>
-4.84612131

$$$$
