
 OpenBabel03272510213D

 35 38  0  0  0  0  0  0  0  0999 V2000
   37.3990   29.1710   50.8090 Br  0  0  0  0  0  0  0  0  0  0  0  0
   35.9890   29.2900   49.5170 C   0  0  0  0  0  0  0  0  0  0  0  0
   35.9960   30.2920   48.5600 C   0  0  0  0  0  0  0  0  0  0  0  0
   34.9510   30.3260   47.6560 C   0  0  0  0  0  0  0  0  0  0  0  0
   33.9150   29.3960   47.6860 C   0  0  0  0  0  0  0  0  0  0  0  0
   33.9380   28.4270   48.6390 C   0  0  0  0  0  0  0  0  0  0  0  0
   34.9760   28.3820   49.5470 C   0  0  0  0  0  0  0  0  0  0  0  0
   34.8900   31.0760   46.8820 H   0  0  0  0  0  0  0  0  0  0  0  0
   33.1500   27.7100   48.6710 H   0  0  0  0  0  0  0  0  0  0  0  0
   34.9400   27.5890   50.2810 H   0  0  0  0  0  0  0  0  0  0  0  0
   38.0200   33.1880   49.4830 C   0  0  0  0  0  0  0  0  0  0  0  0
   39.0450   33.1930   48.5020 C   0  0  0  0  0  0  0  0  0  0  0  0
   39.0300   32.1970   47.5300 C   0  0  0  0  0  0  0  0  0  0  0  0
   38.0290   31.2550   47.5600 N   0  0  0  0  0  0  0  0  0  0  0  0
   37.0700   31.2790   48.5050 C   0  0  0  0  0  0  0  0  0  0  0  0
   37.0700   32.2480   49.4640 N   0  0  0  0  0  0  0  0  0  0  0  0
   38.0740   33.9780   50.2140 H   0  0  0  0  0  0  0  0  0  0  0  0
   39.8060   33.9510   48.5210 H   0  0  0  0  0  0  0  0  0  0  0  0
   39.7790   32.1550   46.7680 H   0  0  0  0  0  0  0  0  0  0  0  0
   32.8070   29.4300   46.7300 C   0  0  0  0  0  0  0  0  0  0  0  0
   31.8990   28.4040   46.5500 C   0  0  0  0  0  0  0  0  0  0  0  0
   30.8670   28.4890   45.6270 C   0  0  0  0  0  0  0  0  0  0  0  0
   30.7250   29.5810   44.8830 N   0  0  0  0  0  0  0  0  0  0  0  0
   31.6030   30.5880   45.0500 C   0  0  0  0  0  0  0  0  0  0  0  0
   32.5990   30.5040   45.9390 N   0  0  0  0  0  0  0  0  0  0  0  0
   32.0220   27.5170   47.1610 H   0  0  0  0  0  0  0  0  0  0  0  0
   30.1850   27.6530   45.5300 H   0  0  0  0  0  0  0  0  0  0  0  0
   31.5900   31.8530   44.3160 C   0  0  0  0  0  0  0  0  0  0  0  0
   31.5780   33.0600   45.0250 C   0  0  0  0  0  0  0  0  0  0  0  0
   31.5750   33.2160   46.0950 H   0  0  0  0  0  0  0  0  0  0  0  0
   31.5670   34.0990   44.0940 C   0  0  0  0  0  0  0  0  0  0  0  0
   31.5570   35.1480   44.3670 H   0  0  0  0  0  0  0  0  0  0  0  0
   31.5750   33.4400   42.8580 C   0  0  0  0  0  0  0  0  0  0  0  0
   31.5700   33.9820   41.9210 H   0  0  0  0  0  0  0  0  0  0  0  0
   31.5880   32.1580   43.0380 O   0  0  0  0  0  0  0  0  0  0  0  0
  2  7  1  0  0  0  0
  2  1  1  0  0  0  0
  3  2  2  0  0  0  0
  4  5  2  0  0  0  0
  4  3  1  0  0  0  0
  5  6  1  0  0  0  0
  6  9  1  0  0  0  0
  6  7  2  0  0  0  0
  7 10  1  0  0  0  0
  8  4  1  0  0  0  0
 11 17  1  0  0  0  0
 12 18  1  0  0  0  0
 12 11  2  0  0  0  0
 13 14  2  0  0  0  0
 13 12  1  0  0  0  0
 14 15  1  0  0  0  0
 15  3  1  0  0  0  0
 15 16  2  0  0  0  0
 16 11  1  0  0  0  0
 19 13  1  0  0  0  0
 20  5  1  0  0  0  0
 21 20  1  0  0  0  0
 21 26  1  0  0  0  0
 22 21  2  0  0  0  0
 23 24  2  0  0  0  0
 23 22  1  0  0  0  0
 24 25  1  0  0  0  0
 25 20  2  0  0  0  0
 27 22  1  0  0  0  0
 28 29  2  0  0  0  0
 28 24  1  0  0  0  0
 29 30  1  0  0  0  0
 31 32  1  0  0  0  0
 31 29  1  0  0  0  0
 33 35  1  0  0  0  0
 33 31  2  0  0  0  0
 34 33  1  0  0  0  0
 35 28  1  0  0  0  0
M  END
>  <minimizedAffinity>
-6.40306473

>  <minimizedRMSD>
0.512889266

$$$$
