REMARK  Name = 
REMARK  2 active torsions:
REMARK  status: ('A' for Active; 'I' for Inactive)
REMARK    1  A    between atoms: N_1  and  C_10
REMARK    2  A    between atoms: C_9  and  C_20
REMARK                            x       y       z     vdW  Elec       q    Type
REMARK                         _______ _______ _______ _____ _____    ______ ____
ROOT
ATOM      1  C   UNL     1      36.223  29.239  49.362  0.00  0.00    +0.000 A 
ATOM      2  C   UNL     1      36.042  30.349  48.518  0.00  0.00    +0.000 A 
ATOM      3  C   UNL     1      34.903  30.381  47.695  0.00  0.00    +0.000 A 
ATOM      4  N   UNL     1      34.036  29.343  47.755  0.00  0.00    +0.000 NA
ATOM      5  C   UNL     1      34.219  28.294  48.561  0.00  0.00    +0.000 A 
ATOM      6  N   UNL     1      35.300  28.243  49.355  0.00  0.00    +0.000 NA
ATOM      7  H   UNL     1      34.820  31.254  47.073  0.00  0.00    +0.000 HD
ATOM      8  H   UNL     1      33.495  27.490  48.571  0.00  0.00    +0.000 HD
ENDROOT
BRANCH   2   9
ATOM      9  N   UNL     1      37.026  31.397  48.539  0.00  0.00    +0.000 N 
ATOM     10  C   UNL     1      37.181  32.155  49.655  0.00  0.00    +0.000 A 
ATOM     11  C   UNL     1      38.152  33.161  49.664  0.00  0.00    +0.000 A 
ATOM     12  C   UNL     1      38.861  33.263  48.489  0.00  0.00    +0.000 A 
ATOM     13  O   UNL     1      39.745  34.178  48.501  0.00  0.00    +0.000 OA
ATOM     14  N   UNL     1      38.717  32.522  47.384  0.00  0.00    +0.000 N 
ATOM     15  C   UNL     1      37.764  31.568  47.437  0.00  0.00    +0.000 A 
ATOM     16  O   UNL     1      37.606  30.860  46.417  0.00  0.00    +0.000 OA
ATOM     17  H   UNL     1      36.575  32.006  50.540  0.00  0.00    +0.000 HD
ATOM     18  H   UNL     1      38.329  33.801  50.515  0.00  0.00    +0.000 HD
ATOM     19  H   UNL     1      39.308  32.679  46.539  0.00  0.00    +0.000 HD
ENDBRANCH   2   9
BRANCH   1  20
ATOM     20  C   UNL     1      37.377  29.102  50.245  0.00  0.00    +0.000 A 
ATOM     21  C   UNL     1      37.357  29.297  51.609  0.00  0.00    +0.000 A 
ATOM     22  H   UNL     1      36.481  29.578  52.203  0.00  0.00    +0.000 HD
ATOM     23  C   UNL     1      38.607  29.091  52.150  0.00  0.00    +0.000 A 
ATOM     24  H   UNL     1      38.962  29.152  53.164  0.00  0.00    +0.000 HD
ATOM     25  C   UNL     1      39.369  28.766  51.055  0.00  0.00    +0.000 A 
ATOM     26  H   UNL     1      40.439  28.528  51.081  0.00  0.00    +0.000 HD
ATOM     27  O   UNL     1      38.609  28.792  50.013  0.00  0.00    +0.000 OA
ENDBRANCH   1  20
TORSDOF 2
