
 OpenBabel03272507053D

 30 33  0  0  0  0  0  0  0  0999 V2000
   37.8500   32.9010   49.6300 C   0  0  0  0  0  0  0  0  0  0  0  0
   38.7740   32.9550   48.5660 C   0  0  0  0  0  0  0  0  0  0  0  0
   38.6010   32.0190   47.5350 C   0  0  0  0  0  0  0  0  0  0  0  0
   37.5840   31.1190   47.5930 N   0  0  0  0  0  0  0  0  0  0  0  0
   36.7210   31.1030   48.6340 C   0  0  0  0  0  0  0  0  0  0  0  0
   36.8620   31.9910   49.6380 N   0  0  0  0  0  0  0  0  0  0  0  0
   37.9480   33.5940   50.4310 H   0  0  0  0  0  0  0  0  0  0  0  0
   39.5590   33.6720   48.5480 H   0  0  0  0  0  0  0  0  0  0  0  0
   35.7050   29.0790   49.5680 C   0  0  0  0  0  0  0  0  0  0  0  0
   35.6500   30.1180   48.6450 C   0  0  0  0  0  0  0  0  0  0  0  0
   34.6090   30.2200   47.7600 C   0  0  0  0  0  0  0  0  0  0  0  0
   33.5860   29.2970   47.7560 C   0  0  0  0  0  0  0  0  0  0  0  0
   32.4680   29.1640   47.0100 N   0  0  0  0  0  0  0  0  0  0  0  0
   31.8750   28.0420   47.5030 C   0  0  0  0  0  0  0  0  0  0  0  0
   32.5910   27.5070   48.5060 N   0  0  0  0  0  0  0  0  0  0  0  0
   33.6680   28.2820   48.6770 C   0  0  0  0  0  0  0  0  0  0  0  0
   34.6880   28.1320   49.5890 C   0  0  0  0  0  0  0  0  0  0  0  0
   36.5330   29.0060   50.2640 H   0  0  0  0  0  0  0  0  0  0  0  0
   34.6340   31.0640   47.0650 H   0  0  0  0  0  0  0  0  0  0  0  0
   32.2230   29.8220   46.2650 H   0  0  0  0  0  0  0  0  0  0  0  0
   30.9310   27.7030   47.0660 H   0  0  0  0  0  0  0  0  0  0  0  0
   34.7280   27.3150   50.3100 H   0  0  0  0  0  0  0  0  0  0  0  0
   39.5320   32.0380   46.4110 C   0  0  0  0  0  0  0  0  0  0  0  0
   39.9290   33.1810   45.7490 C   0  0  0  0  0  0  0  0  0  0  0  0
   39.6720   34.2190   45.8920 H   0  0  0  0  0  0  0  0  0  0  0  0
   40.7970   32.7230   44.7780 C   0  0  0  0  0  0  0  0  0  0  0  0
   41.3660   33.2570   44.0070 H   0  0  0  0  0  0  0  0  0  0  0  0
   40.8870   31.3360   44.8930 C   0  0  0  0  0  0  0  0  0  0  0  0
   41.4530   30.5720   44.3350 H   0  0  0  0  0  0  0  0  0  0  0  0
   40.0930   30.9850   45.9040 O   0  0  0  0  0  0  0  0  0  0  0  0
  1  6  1  0  0  0  0
  1  7  1  0  0  0  0
  2  1  2  0  0  0  0
  3  4  2  0  0  0  0
  3  2  1  0  0  0  0
  4  5  1  0  0  0  0
  5 10  1  0  0  0  0
  5  6  2  0  0  0  0
  8  2  1  0  0  0  0
  9 17  1  0  0  0  0
  9 18  1  0  0  0  0
 10  9  2  0  0  0  0
 11 10  1  0  0  0  0
 12 11  2  0  0  0  0
 12 16  1  0  0  0  0
 13 14  1  0  0  0  0
 13 12  1  0  0  0  0
 14 15  2  0  0  0  0
 15 16  1  0  0  0  0
 16 17  2  0  0  0  0
 17 22  1  0  0  0  0
 19 11  1  0  0  0  0
 20 13  1  0  0  0  0
 21 14  1  0  0  0  0
 23  3  1  0  0  0  0
 24 25  1  0  0  0  0
 24 23  2  0  0  0  0
 26 28  2  0  0  0  0
 26 24  1  0  0  0  0
 27 26  1  0  0  0  0
 28 30  1  0  0  0  0
 29 28  1  0  0  0  0
 30 23  1  0  0  0  0
M  END
>  <minimizedAffinity>
-6.88735676

>  <minimizedRMSD>
1.91104257

$$$$
