REMARK  Name = 
REMARK  2 active torsions:
REMARK  status: ('A' for Active; 'I' for Inactive)
REMARK    1  A    between atoms: C_3  and  C_13
REMARK    2  A    between atoms: C_5  and  C_7
REMARK                            x       y       z     vdW  Elec       q    Type
REMARK                         _______ _______ _______ _____ _____    ______ ____
ROOT
ATOM      1  C   UNL     1      38.308  31.239  50.129  0.00  0.00    +0.000 A 
ATOM      2  C   UNL     1      38.287  31.617  48.765  0.00  0.00    +0.000 A 
ATOM      3  C   UNL     1      37.199  31.224  47.999  0.00  0.00    +0.000 A 
ATOM      4  N   UNL     1      36.208  30.500  48.588  0.00  0.00    +0.000 NA
ATOM      5  C   UNL     1      36.267  30.161  49.893  0.00  0.00    +0.000 A 
ATOM      6  N   UNL     1      37.305  30.525  50.658  0.00  0.00    +0.000 NA
ATOM      7  H   UNL     1      39.142  31.529  50.754  0.00  0.00    +0.000 HD
ATOM      8  H   UNL     1      39.098  32.195  48.337  0.00  0.00    +0.000 HD
ENDROOT
BRANCH   3   9
ATOM      9  C   UNL     1      37.123  31.584  46.588  0.00  0.00    +0.000 A 
ATOM     10  C   UNL     1      37.859  30.991  45.584  0.00  0.00    +0.000 A 
ATOM     11  H   UNL     1      38.588  30.188  45.690  0.00  0.00    +0.000 HD
ATOM     12  C   UNL     1      37.422  31.685  44.451  0.00  0.00    +0.000 A 
ATOM     13  H   UNL     1      37.806  31.471  43.447  0.00  0.00    +0.000 HD
ATOM     14  C   UNL     1      36.481  32.624  44.816  0.00  0.00    +0.000 A 
ATOM     15  H   UNL     1      35.967  33.312  44.129  0.00  0.00    +0.000 HD
ATOM     16  O   UNL     1      36.332  32.524  46.129  0.00  0.00    +0.000 OA
ENDBRANCH   3   9
BRANCH   5  17
ATOM     17  C   UNL     1      35.138  29.375  50.445  0.00  0.00    +0.000 C 
ATOM     18  F   UNL     1      35.261  29.129  51.803  0.00  0.00    +0.000 F 
ATOM     19  F   UNL     1      33.925  30.067  50.295  0.00  0.00    +0.000 F 
ATOM     20  F   UNL     1      34.951  28.175  49.829  0.00  0.00    +0.000 F 
ENDBRANCH   5  17
TORSDOF 2
