
 OpenBabel03272506483D

 41 44  0  0  1  0  0  0  0  0999 V2000
   32.1620   28.3660   47.4250 C   0  0  2  0  0  0  0  0  0  0  0  0
   33.4090   28.2290   48.2490 C   0  0  1  0  0  0  0  0  0  0  0  0
   33.8800   26.9620   48.0950 O   0  0  0  0  0  0  0  0  0  0  0  0
   33.2150   26.3480   47.0390 C   0  0  0  0  0  0  0  0  0  0  0  0
   32.5580   27.4430   46.2290 C   0  0  1  0  0  0  0  0  0  0  0  0
   31.2620   27.9450   47.8610 H   0  0  0  0  0  0  0  0  0  0  0  0
   33.1410   28.5060   49.2870 H   0  0  0  0  0  0  0  0  0  0  0  0
   32.5460   25.6190   47.4770 H   0  0  0  0  0  0  0  0  0  0  0  0
   34.0290   25.8440   46.4270 H   0  0  0  0  0  0  0  0  0  0  0  0
   33.2690   27.9970   45.6190 H   0  0  0  0  0  0  0  0  0  0  0  0
   32.0190   29.6870   46.9550 O   0  0  0  0  0  0  0  0  0  0  0  0
   32.5560   29.7490   46.1290 H   0  0  0  0  0  0  0  0  0  0  0  0
   34.6580   29.3850   47.5550 S   0  0  0  0  0  0  0  0  0  0  0  0
   37.0950   29.2130   50.6750 C   0  0  0  0  0  0  0  0  0  0  0  0
   37.5220   30.5260   50.8720 C   0  0  0  0  0  0  0  0  0  0  0  0
   37.0400   31.5030   50.0090 C   0  0  0  0  0  0  0  0  0  0  0  0
   36.1770   31.1360   49.0150 N   0  0  0  0  0  0  0  0  0  0  0  0
   35.7900   29.8510   48.8610 C   0  0  0  0  0  0  0  0  0  0  0  0
   36.2400   28.8720   49.6870 N   0  0  0  0  0  0  0  0  0  0  0  0
   37.4180   28.3890   51.2990 H   0  0  0  0  0  0  0  0  0  0  0  0
   38.1990   30.7430   51.6700 H   0  0  0  0  0  0  0  0  0  0  0  0
   37.3440   32.5360   50.1220 H   0  0  0  0  0  0  0  0  0  0  0  0
   31.4420   26.9330   45.6110 O   0  0  0  0  0  0  0  0  0  0  0  0
   30.1050   29.0740   44.0930 Cl  0  0  0  0  0  0  0  0  0  0  0  0
   29.4560   28.0780   45.3730 C   0  0  0  0  0  0  0  0  0  0  0  0
   30.1820   27.0930   46.0040 C   0  0  0  0  0  0  0  0  0  0  0  0
   29.5450   26.3420   46.9940 C   0  0  0  0  0  0  0  0  0  0  0  0
   28.2290   26.5860   47.3250 C   0  0  0  0  0  0  0  0  0  0  0  0
   27.4920   27.5740   46.6980 C   0  0  0  0  0  0  0  0  0  0  0  0
   28.1260   28.3150   45.7170 C   0  0  0  0  0  0  0  0  0  0  0  0
   30.0150   25.5480   47.5440 H   0  0  0  0  0  0  0  0  0  0  0  0
   27.6940   26.0390   48.0790 H   0  0  0  0  0  0  0  0  0  0  0  0
   26.4600   27.7720   46.9510 H   0  0  0  0  0  0  0  0  0  0  0  0
   27.3670   29.3640   45.0400 C   0  0  0  0  0  0  0  0  0  0  0  0
   26.5420   29.2310   43.9740 C   0  0  0  0  0  0  0  0  0  0  0  0
   26.3320   28.2800   43.4640 H   0  0  0  0  0  0  0  0  0  0  0  0
   25.9940   30.4530   43.6070 C   0  0  0  0  0  0  0  0  0  0  0  0
   25.3130   30.7080   42.8200 H   0  0  0  0  0  0  0  0  0  0  0  0
   26.5600   31.3050   44.5340 C   0  0  0  0  0  0  0  0  0  0  0  0
   26.4140   32.3920   44.6350 H   0  0  0  0  0  0  0  0  0  0  0  0
   27.3470   30.6450   45.3480 O   0  0  0  0  0  0  0  0  0  0  0  0
  1  6  1  1  0  0  0
  1  2  1  0  0  0  0
  2  7  1  1  0  0  0
  3  2  1  0  0  0  0
  4  8  1  0  0  0  0
  4  3  1  0  0  0  0
  5 10  1  6  0  0  0
  5  4  1  0  0  0  0
  5  1  1  0  0  0  0
  9  4  1  0  0  0  0
 11  1  1  0  0  0  0
 12 11  1  0  0  0  0
 13  2  1  0  0  0  0
 13 18  1  0  0  0  0
 14 15  1  0  0  0  0
 14 20  1  0  0  0  0
 15 21  1  0  0  0  0
 16 22  1  0  0  0  0
 16 15  2  0  0  0  0
 17 16  1  0  0  0  0
 18 17  2  0  0  0  0
 18 19  1  0  0  0  0
 19 14  2  0  0  0  0
 23 26  1  0  0  0  0
 23  5  1  0  0  0  0
 24 25  1  0  0  0  0
 25 30  2  0  0  0  0
 25 26  1  0  0  0  0
 26 27  2  0  0  0  0
 27 28  1  0  0  0  0
 27 31  1  0  0  0  0
 28 32  1  0  0  0  0
 29 33  1  0  0  0  0
 29 28  2  0  0  0  0
 30 29  1  0  0  0  0
 34 41  1  0  0  0  0
 34 30  1  0  0  0  0
 35 34  2  0  0  0  0
 36 35  1  0  0  0  0
 37 35  1  0  0  0  0
 37 39  2  0  0  0  0
 38 37  1  0  0  0  0
 39 40  1  0  0  0  0
 39 41  1  0  0  0  0
M  END
>  <minimizedAffinity>
-5.0578289

>  <minimizedRMSD>
0.346839428

$$$$
