
     RDKit          3D

 37 40  0  0  0  0  0  0  0  0999 V2000
   38.4299   31.1134   48.2205 C   0  0  2  0  0  0  0  0  0  0  0  0
   38.6840   32.5552   48.0951 C   0  0  0  0  0  0  0  0  0  0  0  0
   38.0526   31.7102   46.9608 C   0  0  1  0  0  0  0  0  0  0  0  0
   35.0877   30.2310   49.5499 C   0  0  0  0  0  0  0  0  0  0  0  0
   35.4149   29.5450   50.7641 C   0  0  0  0  0  0  0  0  0  0  0  0
   36.8158   29.4133   51.0939 C   0  0  0  0  0  0  0  0  0  0  0  0
   37.7563   29.9354   50.2554 N   0  0  0  0  0  0  0  0  0  0  0  0
   37.3546   30.5761   49.1148 C   0  0  0  0  0  0  0  0  0  0  0  0
   36.0383   30.7403   48.7351 N   0  0  0  0  0  0  0  0  0  0  0  0
   38.4096   31.8453   44.5259 C   0  0  0  0  0  0  0  0  0  0  0  0
   37.3044   32.4538   44.4081 O   0  0  0  0  0  0  0  0  0  0  0  0
   38.9346   31.5273   45.8188 N   0  0  0  0  0  0  0  0  0  0  0  0
   39.1773   31.4527   43.3351 C   0  0  0  0  0  0  0  0  0  0  0  0
   40.1636   30.5142   43.4822 C   0  0  0  0  0  0  0  0  0  0  0  0
   40.8909   30.1267   42.3725 C   0  0  0  0  0  0  0  0  0  0  0  0
   40.5774   30.7154   41.1660 C   0  0  0  0  0  0  0  0  0  0  0  0
   39.5830   31.6643   41.0083 C   0  0  0  0  0  0  0  0  0  0  0  0
   38.9309   31.9802   42.1285 N   0  0  0  0  0  0  0  0  0  0  0  0
   39.3545   30.5069   48.3157 H   0  0  0  0  0  0  0  0  0  0  0  0
   38.0556   33.3136   48.5895 H   0  0  0  0  0  0  0  0  0  0  0  0
   39.7192   32.9170   47.9370 H   0  0  0  0  0  0  0  0  0  0  0  0
   36.9957   32.0231   46.7465 H   0  0  0  0  0  0  0  0  0  0  0  0
   34.0359   30.2926   49.3666 H   0  0  0  0  0  0  0  0  0  0  0  0
   34.6553   29.1477   51.3987 H   0  0  0  0  0  0  0  0  0  0  0  0
   37.0653   28.8984   52.0058 H   0  0  0  0  0  0  0  0  0  0  0  0
   39.9020   31.1762   45.9903 H   0  0  0  0  0  0  0  0  0  0  0  0
   40.4466   30.0243   44.4052 H   0  0  0  0  0  0  0  0  0  0  0  0
   41.6811   29.3913   42.4228 H   0  0  0  0  0  0  0  0  0  0  0  0
   41.1536   30.4048   40.3007 H   0  0  0  0  0  0  0  0  0  0  0  0
   39.2699   32.2727   39.7223 C   0  0  0  0  0  0  0  0  0  0  0  0
   39.0631   33.6341   39.5553 C   0  0  0  0  0  0  0  0  0  0  0  0
   39.1049   34.3897   40.3211 H   0  0  0  0  0  0  0  0  0  0  0  0
   38.8002   33.7372   38.1858 C   0  0  0  0  0  0  0  0  0  0  0  0
   38.5872   34.6694   37.6791 H   0  0  0  0  0  0  0  0  0  0  0  0
   38.8593   32.4809   37.6168 C   0  0  0  0  0  0  0  0  0  0  0  0
   38.7086   32.1925   36.5851 H   0  0  0  0  0  0  0  0  0  0  0  0
   39.1447   31.6193   38.5715 O   0  0  0  0  0  0  0  0  0  0  0  0
  1  8  1  0
  2  1  1  0
  3  2  1  0
  3  1  1  0
  4  5  2  0
  5  6  1  0
  7  6  2  0
  8  7  1  0
  9  8  2  0
  9  4  1  0
 10 12  1  0
 11 10  2  0
 12  3  1  0
 13 14  2  0
 13 10  1  0
 15 14  1  0
 16 15  2  0
 17 16  1  0
 17 18  2  0
 18 13  1  0
  1 19  1  6
  2 20  1  0
  2 21  1  0
  3 22  1  6
  4 23  1  0
  5 24  1  0
  6 25  1  0
 12 26  1  0
 14 27  1  0
 15 28  1  0
 16 29  1  0
 30 31  2  0
 31 32  1  0
 31 33  1  0
 33 34  1  0
 33 35  2  0
 35 36  1  0
 35 37  1  0
 37 30  1  0
 17 30  1  0
M  ISO  8  19  13  20  13  21  13  22  13  23  14  24  14  25  14  27  14
M  ISO  5  28  14  29  14  32  16  34  16  36  14
M  END
>  <DihAtoms>  (1) 
15,16,29,30

>  <DihDeg>  (1) 
0.002885776582758642

$$$$
