
 OpenBabel03272503353D

 40 43  0  0  1  0  0  0  0  0999 V2000
   36.3170   30.2050   31.5080 C   0  0  0  0  0  0  0  0  0  0  0  0
   36.4620   30.8240   30.2670 C   0  0  0  0  0  0  0  0  0  0  0  0
   37.1820   30.1290   29.2910 C   0  0  0  0  0  0  0  0  0  0  0  0
   37.6890   28.8940   29.6280 N   0  0  0  0  0  0  0  0  0  0  0  0
   37.5230   28.3450   30.8240 C   0  0  0  0  0  0  0  0  0  0  0  0
   36.8320   29.0020   31.7770 N   0  0  0  0  0  0  0  0  0  0  0  0
   36.0570   31.8000   30.0150 H   0  0  0  0  0  0  0  0  0  0  0  0
   37.3450   30.5290   28.3060 H   0  0  0  0  0  0  0  0  0  0  0  0
   35.5780   30.9160   32.5160 N   0  0  0  0  0  0  0  0  0  0  0  0
   35.2180   30.4350   33.8210 C   0  0  0  0  0  0  0  0  0  0  0  0
   35.1300   31.7230   34.6310 C   0  0  2  0  0  0  0  0  0  0  0  0
   35.6000   32.8430   33.7050 C   0  0  0  0  0  0  0  0  0  0  0  0
   35.0500   32.2690   32.4100 C   0  0  0  0  0  0  0  0  0  0  0  0
   36.0710   29.8670   34.2270 H   0  0  0  0  0  0  0  0  0  0  0  0
   34.2520   29.9060   33.8540 H   0  0  0  0  0  0  0  0  0  0  0  0
   34.0710   31.9180   34.9520 H   0  0  0  0  0  0  0  0  0  0  0  0
   35.0890   33.7900   33.9240 H   0  0  0  0  0  0  0  0  0  0  0  0
   36.6990   32.9080   33.7010 H   0  0  0  0  0  0  0  0  0  0  0  0
   33.9640   32.2280   32.5090 H   0  0  0  0  0  0  0  0  0  0  0  0
   35.4070   32.8080   31.5150 H   0  0  0  0  0  0  0  0  0  0  0  0
   35.9520   31.6540   35.8850 C   0  0  0  0  0  0  0  0  0  0  0  0
   36.9320   32.6160   35.7710 F   0  0  0  0  0  0  0  0  0  0  0  0
   36.5940   30.4310   35.8790 F   0  0  0  0  0  0  0  0  0  0  0  0
   35.2090   31.8070   37.0240 F   0  0  0  0  0  0  0  0  0  0  0  0
   38.2010   26.7410   31.2010 S   0  0  0  0  0  0  0  0  0  0  0  0
   38.7200   26.4540   32.7820 C   0  0  0  0  0  0  0  0  0  0  0  0
   39.5350   26.9780   33.7440 C   0  0  0  0  0  0  0  0  0  0  0  0
   39.7250   26.4500   34.9720 C   0  0  0  0  0  0  0  0  0  0  0  0
   38.9510   25.2030   35.2100 C   0  0  0  0  0  0  0  0  0  0  0  0
   38.0460   24.9410   33.6500 S   0  0  0  0  0  0  0  0  0  0  0  0
   40.0170   27.8790   33.4010 H   0  0  0  0  0  0  0  0  0  0  0  0
   40.3580   26.8510   35.7330 H   0  0  0  0  0  0  0  0  0  0  0  0
   38.9140   24.4120   36.3500 C   0  0  0  0  0  0  0  0  0  0  0  0
   37.9580   24.4780   37.3330 C   0  0  0  0  0  0  0  0  0  0  0  0
   37.1070   25.1460   37.3660 H   0  0  0  0  0  0  0  0  0  0  0  0
   38.3050   23.5090   38.2830 C   0  0  0  0  0  0  0  0  0  0  0  0
   37.7570   23.2930   39.2000 H   0  0  0  0  0  0  0  0  0  0  0  0
   39.4740   22.9160   37.7890 C   0  0  0  0  0  0  0  0  0  0  0  0
   39.9220   22.1310   38.3700 H   0  0  0  0  0  0  0  0  0  0  0  0
   39.7930   23.4890   36.6380 O   0  0  0  0  0  0  0  0  0  0  0  0
  1  6  1  0  0  0  0
  1  9  1  0  0  0  0
  2  1  2  0  0  0  0
  3  4  2  0  0  0  0
  3  2  1  0  0  0  0
  4  5  1  0  0  0  0
  5 25  1  0  0  0  0
  5  6  2  0  0  0  0
  7  2  1  0  0  0  0
  8  3  1  0  0  0  0
  9 10  1  0  0  0  0
 10 15  1  0  0  0  0
 10 14  1  0  0  0  0
 10 11  1  0  0  0  0
 11 16  1  1  0  0  0
 11 21  1  0  0  0  0
 12 17  1  0  0  0  0
 12 11  1  0  0  0  0
 13 19  1  0  0  0  0
 13  9  1  0  0  0  0
 13 12  1  0  0  0  0
 18 12  1  0  0  0  0
 20 13  1  0  0  0  0
 21 24  1  0  0  0  0
 22 21  1  0  0  0  0
 23 21  1  0  0  0  0
 25 26  1  0  0  0  0
 26 30  1  0  0  0  0
 26 27  2  0  0  0  0
 27 28  1  0  0  0  0
 28 29  2  0  0  0  0
 28 32  1  0  0  0  0
 29 33  1  0  0  0  0
 30 29  1  0  0  0  0
 31 27  1  0  0  0  0
 33 40  1  0  0  0  0
 33 34  2  0  0  0  0
 34 35  1  0  0  0  0
 34 36  1  0  0  0  0
 36 37  1  0  0  0  0
 38 36  2  0  0  0  0
 38 39  1  0  0  0  0
 40 38  1  0  0  0  0
M  END
>  <minimizedAffinity>
-6.08107281

$$$$

 OpenBabel03272503353D

 40 43  0  0  1  0  0  0  0  0999 V2000
   37.6160   24.3050   33.0000 C   0  0  0  0  0  0  0  0  0  0  0  0
   36.6190   23.4540   32.5250 C   0  0  0  0  0  0  0  0  0  0  0  0
   35.8180   23.9330   31.4850 C   0  0  0  0  0  0  0  0  0  0  0  0
   36.0720   25.2010   31.0130 N   0  0  0  0  0  0  0  0  0  0  0  0
   37.0350   25.9750   31.4980 C   0  0  0  0  0  0  0  0  0  0  0  0
   37.8170   25.5280   32.5020 N   0  0  0  0  0  0  0  0  0  0  0  0
   36.4290   22.4550   32.9070 H   0  0  0  0  0  0  0  0  0  0  0  0
   35.0250   23.3470   31.0560 H   0  0  0  0  0  0  0  0  0  0  0  0
   38.4440   23.8170   34.0710 N   0  0  0  0  0  0  0  0  0  0  0  0
   38.8690   24.5460   35.2330 C   0  0  0  0  0  0  0  0  0  0  0  0
   39.0550   23.4400   36.2640 C   0  0  2  0  0  0  0  0  0  0  0  0
   38.5670   22.1530   35.6020 C   0  0  0  0  0  0  0  0  0  0  0  0
   39.0120   22.4820   34.1860 C   0  0  0  0  0  0  0  0  0  0  0  0
   38.0240   25.1620   35.5830 H   0  0  0  0  0  0  0  0  0  0  0  0
   39.8150   25.0940   35.0980 H   0  0  0  0  0  0  0  0  0  0  0  0
   40.1390   23.3340   36.5410 H   0  0  0  0  0  0  0  0  0  0  0  0
   39.1250   21.2770   35.9600 H   0  0  0  0  0  0  0  0  0  0  0  0
   37.4730   22.0620   35.6860 H   0  0  0  0  0  0  0  0  0  0  0  0
   40.1000   22.5650   34.1990 H   0  0  0  0  0  0  0  0  0  0  0  0
   38.6180   21.7730   33.4360 H   0  0  0  0  0  0  0  0  0  0  0  0
   38.3130   23.7280   37.5370 C   0  0  0  0  0  0  0  0  0  0  0  0
   37.1180   23.0450   37.4640 F   0  0  0  0  0  0  0  0  0  0  0  0
   38.0020   25.0740   37.5260 F   0  0  0  0  0  0  0  0  0  0  0  0
   39.0250   23.4030   38.6590 F   0  0  0  0  0  0  0  0  0  0  0  0
   37.3180   27.6070   30.8450 S   0  0  0  0  0  0  0  0  0  0  0  0
   36.6590   28.9190   31.6800 C   0  0  0  0  0  0  0  0  0  0  0  0
   36.3420   30.2360   31.5100 C   0  0  0  0  0  0  0  0  0  0  0  0
   35.7970   31.0320   32.4540 C   0  0  0  0  0  0  0  0  0  0  0  0
   35.5550   30.3410   33.7480 C   0  0  0  0  0  0  0  0  0  0  0  0
   36.1370   28.6390   33.4540 S   0  0  0  0  0  0  0  0  0  0  0  0
   36.5850   30.5710   30.5140 H   0  0  0  0  0  0  0  0  0  0  0  0
   35.5440   32.0620   32.3310 H   0  0  0  0  0  0  0  0  0  0  0  0
   35.0130   30.8560   34.9170 C   0  0  0  0  0  0  0  0  0  0  0  0
   35.7010   31.5760   35.8620 C   0  0  0  0  0  0  0  0  0  0  0  0
   36.7490   31.8420   35.8380 H   0  0  0  0  0  0  0  0  0  0  0  0
   34.7730   31.8940   36.8630 C   0  0  0  0  0  0  0  0  0  0  0  0
   34.9850   32.4630   37.7690 H   0  0  0  0  0  0  0  0  0  0  0  0
   33.5650   31.3280   36.4340 C   0  0  0  0  0  0  0  0  0  0  0  0
   32.7030   31.4540   37.0630 H   0  0  0  0  0  0  0  0  0  0  0  0
   33.7620   30.7230   35.2730 O   0  0  0  0  0  0  0  0  0  0  0  0
  1  9  1  0  0  0  0
  2  7  1  0  0  0  0
  2  1  1  0  0  0  0
  3  2  2  0  0  0  0
  4  3  1  0  0  0  0
  4  5  2  0  0  0  0
  5  6  1  0  0  0  0
  6  1  2  0  0  0  0
  8  3  1  0  0  0  0
  9 13  1  0  0  0  0
  9 10  1  0  0  0  0
 10 14  1  0  0  0  0
 10 11  1  0  0  0  0
 11 16  1  1  0  0  0
 11 21  1  0  0  0  0
 12 18  1  0  0  0  0
 12 17  1  0  0  0  0
 12 11  1  0  0  0  0
 13 19  1  0  0  0  0
 13 12  1  0  0  0  0
 15 10  1  0  0  0  0
 20 13  1  0  0  0  0
 21 24  1  0  0  0  0
 22 21  1  0  0  0  0
 23 21  1  0  0  0  0
 25  5  1  0  0  0  0
 25 26  1  0  0  0  0
 26 30  1  0  0  0  0
 27 26  2  0  0  0  0
 27 28  1  0  0  0  0
 28 29  2  0  0  0  0
 29 33  1  0  0  0  0
 30 29  1  0  0  0  0
 31 27  1  0  0  0  0
 32 28  1  0  0  0  0
 33 40  1  0  0  0  0
 33 34  2  0  0  0  0
 34 36  1  0  0  0  0
 35 34  1  0  0  0  0
 36 37  1  0  0  0  0
 38 36  2  0  0  0  0
 38 39  1  0  0  0  0
 40 38  1  0  0  0  0
M  END
>  <minimizedAffinity>
-5.99140024

$$$$

 OpenBabel03272503353D

 40 43  0  0  1  0  0  0  0  0999 V2000
   39.3080   24.9340   33.9340 C   0  0  0  0  0  0  0  0  0  0  0  0
   40.5830   25.4470   33.7020 C   0  0  0  0  0  0  0  0  0  0  0  0
   40.6920   26.4800   32.7670 C   0  0  0  0  0  0  0  0  0  0  0  0
   39.5380   26.9090   32.1500 N   0  0  0  0  0  0  0  0  0  0  0  0
   38.3450   26.3890   32.4050 C   0  0  0  0  0  0  0  0  0  0  0  0
   38.2210   25.3920   33.3040 N   0  0  0  0  0  0  0  0  0  0  0  0
   41.4860   25.0980   34.1960 H   0  0  0  0  0  0  0  0  0  0  0  0
   41.6350   26.9360   32.5240 H   0  0  0  0  0  0  0  0  0  0  0  0
   39.1900   23.8710   34.8960 N   0  0  0  0  0  0  0  0  0  0  0  0
   39.8140   23.8040   36.1870 C   0  0  0  0  0  0  0  0  0  0  0  0
   38.8420   22.9320   36.9750 C   0  0  2  0  0  0  0  0  0  0  0  0
   37.6450   22.6920   36.0580 C   0  0  0  0  0  0  0  0  0  0  0  0
   38.4100   22.6510   34.7450 C   0  0  0  0  0  0  0  0  0  0  0  0
   39.7740   24.8070   36.6430 H   0  0  0  0  0  0  0  0  0  0  0  0
   40.8120   23.3380   36.1810 H   0  0  0  0  0  0  0  0  0  0  0  0
   39.3170   21.9490   37.2410 H   0  0  0  0  0  0  0  0  0  0  0  0
   37.1880   21.7090   36.2380 H   0  0  0  0  0  0  0  0  0  0  0  0
   36.9420   23.5380   36.1060 H   0  0  0  0  0  0  0  0  0  0  0  0
   39.0870   21.7960   34.7910 H   0  0  0  0  0  0  0  0  0  0  0  0
   37.7480   22.6610   33.8610 H   0  0  0  0  0  0  0  0  0  0  0  0
   38.4340   23.5750   38.2690 C   0  0  0  0  0  0  0  0  0  0  0  0
   37.3140   22.9040   38.7090 F   0  0  0  0  0  0  0  0  0  0  0  0
   38.0320   24.8630   37.9700 F   0  0  0  0  0  0  0  0  0  0  0  0
   39.4320   23.5820   39.2030 F   0  0  0  0  0  0  0  0  0  0  0  0
   36.8860   26.9880   31.5760 S   0  0  0  0  0  0  0  0  0  0  0  0
   36.1170   28.3500   32.2140 C   0  0  0  0  0  0  0  0  0  0  0  0
   35.4220   29.4580   31.8220 C   0  0  0  0  0  0  0  0  0  0  0  0
   34.9250   30.3970   32.6550 C   0  0  0  0  0  0  0  0  0  0  0  0
   35.2020   30.1270   34.0900 C   0  0  0  0  0  0  0  0  0  0  0  0
   36.1360   28.5620   34.0710 S   0  0  0  0  0  0  0  0  0  0  0  0
   35.3150   29.4950   30.7500 H   0  0  0  0  0  0  0  0  0  0  0  0
   34.3800   31.2670   32.3600 H   0  0  0  0  0  0  0  0  0  0  0  0
   34.8390   30.8790   35.1990 C   0  0  0  0  0  0  0  0  0  0  0  0
   35.7060   31.5720   36.0070 C   0  0  0  0  0  0  0  0  0  0  0  0
   36.7810   31.6330   35.9040 H   0  0  0  0  0  0  0  0  0  0  0  0
   34.9180   32.1820   36.9930 C   0  0  0  0  0  0  0  0  0  0  0  0
   35.2880   32.8120   37.8020 H   0  0  0  0  0  0  0  0  0  0  0  0
   33.6030   31.8020   36.6960 C   0  0  0  0  0  0  0  0  0  0  0  0
   32.8200   32.1660   37.3360 H   0  0  0  0  0  0  0  0  0  0  0  0
   33.6110   31.0280   35.6210 O   0  0  0  0  0  0  0  0  0  0  0  0
  1  9  1  0  0  0  0
  2  1  1  0  0  0  0
  2  7  1  0  0  0  0
  3  2  2  0  0  0  0
  4  5  2  0  0  0  0
  4  3  1  0  0  0  0
  5  6  1  0  0  0  0
  6  1  2  0  0  0  0
  8  3  1  0  0  0  0
  9 10  1  0  0  0  0
 10 14  1  0  0  0  0
 10 11  1  0  0  0  0
 11 16  1  1  0  0  0
 11 21  1  0  0  0  0
 12 18  1  0  0  0  0
 12 17  1  0  0  0  0
 12 11  1  0  0  0  0
 13 19  1  0  0  0  0
 13  9  1  0  0  0  0
 13 12  1  0  0  0  0
 15 10  1  0  0  0  0
 20 13  1  0  0  0  0
 21 22  1  0  0  0  0
 21 24  1  0  0  0  0
 23 21  1  0  0  0  0
 25 26  1  0  0  0  0
 25  5  1  0  0  0  0
 26 30  1  0  0  0  0
 27 26  2  0  0  0  0
 27 28  1  0  0  0  0
 28 29  2  0  0  0  0
 29 33  1  0  0  0  0
 30 29  1  0  0  0  0
 31 27  1  0  0  0  0
 32 28  1  0  0  0  0
 33 40  1  0  0  0  0
 33 34  2  0  0  0  0
 34 36  1  0  0  0  0
 35 34  1  0  0  0  0
 36 37  1  0  0  0  0
 38 36  2  0  0  0  0
 38 39  1  0  0  0  0
 40 38  1  0  0  0  0
M  END
>  <minimizedAffinity>
-5.92838144

$$$$

 OpenBabel03272503353D

 40 43  0  0  1  0  0  0  0  0999 V2000
   37.9080   24.4670   33.3280 C   0  0  0  0  0  0  0  0  0  0  0  0
   37.1720   23.5460   32.5840 C   0  0  0  0  0  0  0  0  0  0  0  0
   36.4180   24.0470   31.5200 C   0  0  0  0  0  0  0  0  0  0  0  0
   36.4600   25.4050   31.2880 N   0  0  0  0  0  0  0  0  0  0  0  0
   37.1770   26.2430   32.0250 C   0  0  0  0  0  0  0  0  0  0  0  0
   37.9100   25.7760   33.0560 N   0  0  0  0  0  0  0  0  0  0  0  0
   37.1480   22.4770   32.7780 H   0  0  0  0  0  0  0  0  0  0  0  0
   35.8190   23.4120   30.8920 H   0  0  0  0  0  0  0  0  0  0  0  0
   38.6860   23.9570   34.4250 N   0  0  0  0  0  0  0  0  0  0  0  0
   39.0260   24.6500   35.6360 C   0  0  0  0  0  0  0  0  0  0  0  0
   39.1810   23.5070   36.6340 C   0  0  2  0  0  0  0  0  0  0  0  0
   38.7640   22.2370   35.8960 C   0  0  0  0  0  0  0  0  0  0  0  0
   39.2810   22.6320   34.5220 C   0  0  0  0  0  0  0  0  0  0  0  0
   38.1470   25.2310   35.9610 H   0  0  0  0  0  0  0  0  0  0  0  0
   39.9640   25.2240   35.5770 H   0  0  0  0  0  0  0  0  0  0  0  0
   40.2500   23.4160   36.9690 H   0  0  0  0  0  0  0  0  0  0  0  0
   39.3240   21.3610   36.2520 H   0  0  0  0  0  0  0  0  0  0  0  0
   37.6700   22.1180   35.9140 H   0  0  0  0  0  0  0  0  0  0  0  0
   40.3630   22.7400   34.6010 H   0  0  0  0  0  0  0  0  0  0  0  0
   38.9480   21.9440   33.7240 H   0  0  0  0  0  0  0  0  0  0  0  0
   38.3610   23.7280   37.8720 C   0  0  0  0  0  0  0  0  0  0  0  0
   38.0350   25.0670   37.8990 F   0  0  0  0  0  0  0  0  0  0  0  0
   39.1930   23.5010   38.9510 F   0  0  0  0  0  0  0  0  0  0  0  0
   37.2550   22.9260   37.9340 F   0  0  0  0  0  0  0  0  0  0  0  0
   37.1930   27.9890   31.6760 S   0  0  0  0  0  0  0  0  0  0  0  0
   35.9780   28.9430   32.3590 C   0  0  0  0  0  0  0  0  0  0  0  0
   34.9760   29.8000   32.0060 C   0  0  0  0  0  0  0  0  0  0  0  0
   34.1480   30.4240   32.8700 C   0  0  0  0  0  0  0  0  0  0  0  0
   34.4180   30.0990   34.2940 C   0  0  0  0  0  0  0  0  0  0  0  0
   35.8220   28.9390   34.2230 S   0  0  0  0  0  0  0  0  0  0  0  0
   34.9230   29.9210   30.9360 H   0  0  0  0  0  0  0  0  0  0  0  0
   33.3600   31.0950   32.6040 H   0  0  0  0  0  0  0  0  0  0  0  0
   33.7630   30.5610   35.4280 C   0  0  0  0  0  0  0  0  0  0  0  0
   32.5250   30.1470   35.8540 C   0  0  0  0  0  0  0  0  0  0  0  0
   31.8870   29.4150   35.3790 H   0  0  0  0  0  0  0  0  0  0  0  0
   32.2550   30.8660   37.0270 C   0  0  0  0  0  0  0  0  0  0  0  0
   31.3510   30.7820   37.6290 H   0  0  0  0  0  0  0  0  0  0  0  0
   33.3790   31.6770   37.2240 C   0  0  0  0  0  0  0  0  0  0  0  0
   33.3860   32.3230   38.0830 H   0  0  0  0  0  0  0  0  0  0  0  0
   34.2450   31.4580   36.2460 O   0  0  0  0  0  0  0  0  0  0  0  0
  1  9  1  0  0  0  0
  2  7  1  0  0  0  0
  2  1  2  0  0  0  0
  3  2  1  0  0  0  0
  4  3  2  0  0  0  0
  4  5  1  0  0  0  0
  5  6  2  0  0  0  0
  6  1  1  0  0  0  0
  8  3  1  0  0  0  0
  9 13  1  0  0  0  0
  9 10  1  0  0  0  0
 10 14  1  0  0  0  0
 10 11  1  0  0  0  0
 11 16  1  1  0  0  0
 11 21  1  0  0  0  0
 12 18  1  0  0  0  0
 12 17  1  0  0  0  0
 12 11  1  0  0  0  0
 13 19  1  0  0  0  0
 13 12  1  0  0  0  0
 15 10  1  0  0  0  0
 20 13  1  0  0  0  0
 21 22  1  0  0  0  0
 21 24  1  0  0  0  0
 21 23  1  0  0  0  0
 25  5  1  0  0  0  0
 25 26  1  0  0  0  0
 26 30  1  0  0  0  0
 27 26  2  0  0  0  0
 27 28  1  0  0  0  0
 28 29  2  0  0  0  0
 29 33  1  0  0  0  0
 30 29  1  0  0  0  0
 31 27  1  0  0  0  0
 32 28  1  0  0  0  0
 33 34  2  0  0  0  0
 33 40  1  0  0  0  0
 34 36  1  0  0  0  0
 35 34  1  0  0  0  0
 36 38  2  0  0  0  0
 36 37  1  0  0  0  0
 38 39  1  0  0  0  0
 40 38  1  0  0  0  0
M  END
>  <minimizedAffinity>
-5.90625477

$$$$

 OpenBabel03272503353D

 40 43  0  0  1  0  0  0  0  0999 V2000
   35.4150   31.2050   32.9470 C   0  0  0  0  0  0  0  0  0  0  0  0
   35.3750   31.8530   31.7140 C   0  0  0  0  0  0  0  0  0  0  0  0
   35.8460   31.1420   30.6070 C   0  0  0  0  0  0  0  0  0  0  0  0
   36.3110   29.8620   30.8190 N   0  0  0  0  0  0  0  0  0  0  0  0
   36.3280   29.2870   32.0140 C   0  0  0  0  0  0  0  0  0  0  0  0
   35.8780   29.9590   33.0920 N   0  0  0  0  0  0  0  0  0  0  0  0
   35.0060   32.8630   31.5610 H   0  0  0  0  0  0  0  0  0  0  0  0
   35.8550   31.5610   29.6170 H   0  0  0  0  0  0  0  0  0  0  0  0
   34.9320   31.9330   34.0900 N   0  0  0  0  0  0  0  0  0  0  0  0
   33.5600   32.1650   34.4470 C   0  0  0  0  0  0  0  0  0  0  0  0
   33.6360   32.3060   35.9630 C   0  0  2  0  0  0  0  0  0  0  0  0
   35.0800   31.9930   36.3480 C   0  0  0  0  0  0  0  0  0  0  0  0
   35.7430   32.5770   35.1120 C   0  0  0  0  0  0  0  0  0  0  0  0
   32.9900   31.2430   34.2470 H   0  0  0  0  0  0  0  0  0  0  0  0
   33.1300   33.0790   34.0070 H   0  0  0  0  0  0  0  0  0  0  0  0
   33.3800   33.3550   36.2760 H   0  0  0  0  0  0  0  0  0  0  0  0
   35.3960   32.5660   37.2310 H   0  0  0  0  0  0  0  0  0  0  0  0
   35.2330   30.9060   36.4320 H   0  0  0  0  0  0  0  0  0  0  0  0
   35.5290   33.6470   35.1050 H   0  0  0  0  0  0  0  0  0  0  0  0
   36.8170   32.3260   35.0410 H   0  0  0  0  0  0  0  0  0  0  0  0
   32.6630   31.4010   36.6600 C   0  0  0  0  0  0  0  0  0  0  0  0
   33.1340   31.2250   37.9430 F   0  0  0  0  0  0  0  0  0  0  0  0
   32.7400   30.1700   36.0370 F   0  0  0  0  0  0  0  0  0  0  0  0
   31.3800   31.8750   36.6420 F   0  0  0  0  0  0  0  0  0  0  0  0
   36.9400   27.6270   32.2260 S   0  0  0  0  0  0  0  0  0  0  0  0
   37.4590   27.1670   33.7650 C   0  0  0  0  0  0  0  0  0  0  0  0
   37.7800   27.6980   34.9810 C   0  0  0  0  0  0  0  0  0  0  0  0
   38.1850   26.9890   36.0560 C   0  0  0  0  0  0  0  0  0  0  0  0
   38.2590   25.5250   35.8100 C   0  0  0  0  0  0  0  0  0  0  0  0
   37.7390   25.3430   34.0720 S   0  0  0  0  0  0  0  0  0  0  0  0
   37.6710   28.7710   34.9810 H   0  0  0  0  0  0  0  0  0  0  0  0
   38.4370   27.3930   37.0120 H   0  0  0  0  0  0  0  0  0  0  0  0
   38.6320   24.5170   36.6870 C   0  0  0  0  0  0  0  0  0  0  0  0
   38.0500   24.2670   37.9050 C   0  0  0  0  0  0  0  0  0  0  0  0
   37.2280   24.8080   38.3540 H   0  0  0  0  0  0  0  0  0  0  0  0
   38.7330   23.1700   38.4480 C   0  0  0  0  0  0  0  0  0  0  0  0
   38.5260   22.7070   39.4130 H   0  0  0  0  0  0  0  0  0  0  0  0
   39.7000   22.8330   37.4930 C   0  0  0  0  0  0  0  0  0  0  0  0
   40.3490   22.0030   37.7070 H   0  0  0  0  0  0  0  0  0  0  0  0
   39.5980   23.6640   36.4660 O   0  0  0  0  0  0  0  0  0  0  0  0
  1  6  1  0  0  0  0
  1  9  1  0  0  0  0
  2  1  2  0  0  0  0
  3  4  2  0  0  0  0
  3  2  1  0  0  0  0
  4  5  1  0  0  0  0
  5 25  1  0  0  0  0
  5  6  2  0  0  0  0
  7  2  1  0  0  0  0
  8  3  1  0  0  0  0
  9 10  1  0  0  0  0
  9 13  1  0  0  0  0
 10 11  1  0  0  0  0
 11 16  1  1  0  0  0
 11 12  1  0  0  0  0
 11 21  1  0  0  0  0
 12 18  1  0  0  0  0
 12 17  1  0  0  0  0
 13 12  1  0  0  0  0
 14 10  1  0  0  0  0
 15 10  1  0  0  0  0
 19 13  1  0  0  0  0
 20 13  1  0  0  0  0
 21 22  1  0  0  0  0
 23 21  1  0  0  0  0
 24 21  1  0  0  0  0
 25 26  1  0  0  0  0
 26 30  1  0  0  0  0
 26 27  2  0  0  0  0
 27 31  1  0  0  0  0
 27 28  1  0  0  0  0
 28 32  1  0  0  0  0
 29 28  2  0  0  0  0
 29 33  1  0  0  0  0
 30 29  1  0  0  0  0
 33 34  2  0  0  0  0
 34 35  1  0  0  0  0
 34 36  1  0  0  0  0
 36 37  1  0  0  0  0
 38 39  1  0  0  0  0
 38 36  2  0  0  0  0
 40 33  1  0  0  0  0
 40 38  1  0  0  0  0
M  END
>  <minimizedAffinity>
-5.87192869

$$$$

 OpenBabel03272503353D

 40 43  0  0  1  0  0  0  0  0999 V2000
   35.8140   29.7370   32.4020 C   0  0  0  0  0  0  0  0  0  0  0  0
   36.0740   30.3230   31.1640 C   0  0  0  0  0  0  0  0  0  0  0  0
   36.8990   29.6150   30.2860 C   0  0  0  0  0  0  0  0  0  0  0  0
   37.3900   28.3990   30.7090 N   0  0  0  0  0  0  0  0  0  0  0  0
   37.1130   27.8820   31.8980 C   0  0  0  0  0  0  0  0  0  0  0  0
   36.3190   28.5520   32.7580 N   0  0  0  0  0  0  0  0  0  0  0  0
   35.6800   31.2840   30.8430 H   0  0  0  0  0  0  0  0  0  0  0  0
   37.1540   29.9890   29.3110 H   0  0  0  0  0  0  0  0  0  0  0  0
   34.9660   30.4630   33.3090 N   0  0  0  0  0  0  0  0  0  0  0  0
   34.8860   30.2960   34.7330 C   0  0  0  0  0  0  0  0  0  0  0  0
   34.4480   31.6790   35.2000 C   0  0  2  0  0  0  0  0  0  0  0  0
   34.4550   32.5700   33.9600 C   0  0  0  0  0  0  0  0  0  0  0  0
   34.0210   31.5120   32.9580 C   0  0  0  0  0  0  0  0  0  0  0  0
   35.9070   30.1430   35.1220 H   0  0  0  0  0  0  0  0  0  0  0  0
   34.1500   29.5420   35.0570 H   0  0  0  0  0  0  0  0  0  0  0  0
   33.4120   31.6420   35.6330 H   0  0  0  0  0  0  0  0  0  0  0  0
   33.6820   33.3490   34.0170 H   0  0  0  0  0  0  0  0  0  0  0  0
   35.4680   32.9480   33.7570 H   0  0  0  0  0  0  0  0  0  0  0  0
   33.0180   31.1890   33.2420 H   0  0  0  0  0  0  0  0  0  0  0  0
   34.1110   31.8500   31.9100 H   0  0  0  0  0  0  0  0  0  0  0  0
   35.3440   32.2170   36.2780 C   0  0  0  0  0  0  0  0  0  0  0  0
   36.5460   31.5520   36.1650 F   0  0  0  0  0  0  0  0  0  0  0  0
   34.7930   31.8370   37.4870 F   0  0  0  0  0  0  0  0  0  0  0  0
   35.4980   33.5750   36.2210 F   0  0  0  0  0  0  0  0  0  0  0  0
   37.7760   26.3030   32.3900 S   0  0  0  0  0  0  0  0  0  0  0  0
   36.8910   24.9180   32.0020 C   0  0  0  0  0  0  0  0  0  0  0  0
   35.7940   24.5230   31.2910 C   0  0  0  0  0  0  0  0  0  0  0  0
   35.3450   23.2540   31.1980 C   0  0  0  0  0  0  0  0  0  0  0  0
   36.1660   22.2750   31.9580 C   0  0  0  0  0  0  0  0  0  0  0  0
   37.4780   23.2910   32.7110 S   0  0  0  0  0  0  0  0  0  0  0  0
   35.3210   25.3610   30.8040 H   0  0  0  0  0  0  0  0  0  0  0  0
   34.4900   22.9330   30.6440 H   0  0  0  0  0  0  0  0  0  0  0  0
   35.9880   20.9040   32.0770 C   0  0  0  0  0  0  0  0  0  0  0  0
   35.4560   20.2630   33.1680 C   0  0  0  0  0  0  0  0  0  0  0  0
   35.1030   20.7220   34.0810 H   0  0  0  0  0  0  0  0  0  0  0  0
   35.4630   18.8950   32.8600 C   0  0  0  0  0  0  0  0  0  0  0  0
   35.1070   18.0960   33.5110 H   0  0  0  0  0  0  0  0  0  0  0  0
   36.0120   18.8130   31.5750 C   0  0  0  0  0  0  0  0  0  0  0  0
   36.1120   17.8380   31.1340 H   0  0  0  0  0  0  0  0  0  0  0  0
   36.3070   20.0340   31.1550 O   0  0  0  0  0  0  0  0  0  0  0  0
  1  6  1  0  0  0  0
  1  9  1  0  0  0  0
  2  1  2  0  0  0  0
  3  4  2  0  0  0  0
  3  2  1  0  0  0  0
  4  5  1  0  0  0  0
  5 25  1  0  0  0  0
  5  6  2  0  0  0  0
  7  2  1  0  0  0  0
  8  3  1  0  0  0  0
  9 10  1  0  0  0  0
 10 15  1  0  0  0  0
 10 14  1  0  0  0  0
 10 11  1  0  0  0  0
 11 16  1  1  0  0  0
 11 21  1  0  0  0  0
 12 17  1  0  0  0  0
 12 11  1  0  0  0  0
 13 19  1  0  0  0  0
 13  9  1  0  0  0  0
 13 12  1  0  0  0  0
 18 12  1  0  0  0  0
 20 13  1  0  0  0  0
 21 23  1  0  0  0  0
 22 21  1  0  0  0  0
 24 21  1  0  0  0  0
 26 25  1  0  0  0  0
 26 30  1  0  0  0  0
 27 26  2  0  0  0  0
 28 27  1  0  0  0  0
 28 29  2  0  0  0  0
 29 33  1  0  0  0  0
 29 30  1  0  0  0  0
 31 27  1  0  0  0  0
 32 28  1  0  0  0  0
 33 34  2  0  0  0  0
 34 35  1  0  0  0  0
 36 34  1  0  0  0  0
 36 37  1  0  0  0  0
 38 36  2  0  0  0  0
 39 38  1  0  0  0  0
 40 38  1  0  0  0  0
 40 33  1  0  0  0  0
M  END
>  <minimizedAffinity>
-5.8439889

$$$$

 OpenBabel03272503353D

 40 43  0  0  1  0  0  0  0  0999 V2000
   37.5670   24.2150   33.1420 C   0  0  0  0  0  0  0  0  0  0  0  0
   36.9910   23.1520   32.4470 C   0  0  0  0  0  0  0  0  0  0  0  0
   36.1110   23.4730   31.4100 C   0  0  0  0  0  0  0  0  0  0  0  0
   35.8810   24.8070   31.1560 N   0  0  0  0  0  0  0  0  0  0  0  0
   36.4540   25.7850   31.8450 C   0  0  0  0  0  0  0  0  0  0  0  0
   37.3060   25.4930   32.8490 N   0  0  0  0  0  0  0  0  0  0  0  0
   37.1810   22.1030   32.6590 H   0  0  0  0  0  0  0  0  0  0  0  0
   35.6200   22.7200   30.8210 H   0  0  0  0  0  0  0  0  0  0  0  0
   38.4730   23.8900   34.2100 N   0  0  0  0  0  0  0  0  0  0  0  0
   38.7480   24.6800   35.3780 C   0  0  0  0  0  0  0  0  0  0  0  0
   39.1450   23.6230   36.4010 C   0  0  2  0  0  0  0  0  0  0  0  0
   38.9180   22.2710   35.7290 C   0  0  0  0  0  0  0  0  0  0  0  0
   39.2910   22.6900   34.3170 C   0  0  0  0  0  0  0  0  0  0  0  0
   37.7980   25.1160   35.7310 H   0  0  0  0  0  0  0  0  0  0  0  0
   39.5690   25.4030   35.2490 H   0  0  0  0  0  0  0  0  0  0  0  0
   40.2290   23.7290   36.6800 H   0  0  0  0  0  0  0  0  0  0  0  0
   39.6360   21.5180   36.0820 H   0  0  0  0  0  0  0  0  0  0  0  0
   37.8630   21.9680   35.8110 H   0  0  0  0  0  0  0  0  0  0  0  0
   40.3410   22.9840   34.3320 H   0  0  0  0  0  0  0  0  0  0  0  0
   39.0430   21.9240   33.5610 H   0  0  0  0  0  0  0  0  0  0  0  0
   38.3620   23.7520   37.6750 C   0  0  0  0  0  0  0  0  0  0  0  0
   38.0850   25.0920   37.8370 F   0  0  0  0  0  0  0  0  0  0  0  0
   39.2080   23.3950   38.7070 F   0  0  0  0  0  0  0  0  0  0  0  0
   37.2290   22.9860   37.6890 F   0  0  0  0  0  0  0  0  0  0  0  0
   36.1190   27.4930   31.4680 S   0  0  0  0  0  0  0  0  0  0  0  0
   35.9850   28.5760   32.7580 C   0  0  0  0  0  0  0  0  0  0  0  0
   36.0080   28.6110   34.1220 C   0  0  0  0  0  0  0  0  0  0  0  0
   35.8560   29.7220   34.8730 C   0  0  0  0  0  0  0  0  0  0  0  0
   35.6520   30.9580   34.0730 C   0  0  0  0  0  0  0  0  0  0  0  0
   35.7050   30.3780   32.3460 S   0  0  0  0  0  0  0  0  0  0  0  0
   36.1650   27.6270   34.5360 H   0  0  0  0  0  0  0  0  0  0  0  0
   35.8730   29.7610   35.9410 H   0  0  0  0  0  0  0  0  0  0  0  0
   35.4640   32.2580   34.5210 C   0  0  0  0  0  0  0  0  0  0  0  0
   36.0720   32.8160   35.6180 C   0  0  0  0  0  0  0  0  0  0  0  0
   36.7730   32.3340   36.2860 H   0  0  0  0  0  0  0  0  0  0  0  0
   35.6010   34.1340   35.6990 C   0  0  0  0  0  0  0  0  0  0  0  0
   35.8810   34.8630   36.4590 H   0  0  0  0  0  0  0  0  0  0  0  0
   34.7230   34.2740   34.6170 C   0  0  0  0  0  0  0  0  0  0  0  0
   34.2390   35.2240   34.4850 H   0  0  0  0  0  0  0  0  0  0  0  0
   34.6780   33.1310   33.9490 O   0  0  0  0  0  0  0  0  0  0  0  0
  1  9  1  0  0  0  0
  2  7  1  0  0  0  0
  2  1  2  0  0  0  0
  3  2  1  0  0  0  0
  4  3  2  0  0  0  0
  4  5  1  0  0  0  0
  5  6  2  0  0  0  0
  6  1  1  0  0  0  0
  8  3  1  0  0  0  0
  9 13  1  0  0  0  0
  9 10  1  0  0  0  0
 10 14  1  0  0  0  0
 10 11  1  0  0  0  0
 11 16  1  1  0  0  0
 11 21  1  0  0  0  0
 12 18  1  0  0  0  0
 12 17  1  0  0  0  0
 12 11  1  0  0  0  0
 13 19  1  0  0  0  0
 13 12  1  0  0  0  0
 15 10  1  0  0  0  0
 20 13  1  0  0  0  0
 21 24  1  0  0  0  0
 21 22  1  0  0  0  0
 21 23  1  0  0  0  0
 25  5  1  0  0  0  0
 25 26  1  0  0  0  0
 26 27  2  0  0  0  0
 27 31  1  0  0  0  0
 27 28  1  0  0  0  0
 28 32  1  0  0  0  0
 29 33  1  0  0  0  0
 29 28  2  0  0  0  0
 30 26  1  0  0  0  0
 30 29  1  0  0  0  0
 33 34  2  0  0  0  0
 34 36  1  0  0  0  0
 34 35  1  0  0  0  0
 36 37  1  0  0  0  0
 38 36  2  0  0  0  0
 39 38  1  0  0  0  0
 40 33  1  0  0  0  0
 40 38  1  0  0  0  0
M  END
>  <minimizedAffinity>
-5.77086973

$$$$

 OpenBabel03272503353D

 40 43  0  0  1  0  0  0  0  0999 V2000
   38.1760   25.1220   35.7400 C   0  0  0  0  0  0  0  0  0  0  0  0
   38.3470   26.4020   36.2650 C   0  0  0  0  0  0  0  0  0  0  0  0
   38.0570   27.4790   35.4230 C   0  0  0  0  0  0  0  0  0  0  0  0
   37.6260   27.1940   34.1460 N   0  0  0  0  0  0  0  0  0  0  0  0
   37.4770   25.9570   33.6910 C   0  0  0  0  0  0  0  0  0  0  0  0
   37.7540   24.9070   34.4900 N   0  0  0  0  0  0  0  0  0  0  0  0
   38.6890   26.6120   37.2750 H   0  0  0  0  0  0  0  0  0  0  0  0
   38.1600   28.5000   35.7420 H   0  0  0  0  0  0  0  0  0  0  0  0
   38.4750   24.0100   36.6030 N   0  0  0  0  0  0  0  0  0  0  0  0
   39.0550   22.7540   36.2190 C   0  0  0  0  0  0  0  0  0  0  0  0
   39.7630   22.3180   37.4970 C   0  0  2  0  0  0  0  0  0  0  0  0
   39.6260   23.4790   38.4780 C   0  0  0  0  0  0  0  0  0  0  0  0
   38.2470   23.9440   38.0390 C   0  0  0  0  0  0  0  0  0  0  0  0
   39.8440   22.9500   35.4750 H   0  0  0  0  0  0  0  0  0  0  0  0
   38.3180   21.9910   35.9220 H   0  0  0  0  0  0  0  0  0  0  0  0
   39.2770   21.4000   37.9260 H   0  0  0  0  0  0  0  0  0  0  0  0
   39.5720   23.1260   39.5180 H   0  0  0  0  0  0  0  0  0  0  0  0
   40.4020   24.2370   38.2950 H   0  0  0  0  0  0  0  0  0  0  0  0
   37.5500   23.1310   38.2450 H   0  0  0  0  0  0  0  0  0  0  0  0
   37.9600   24.9150   38.4810 H   0  0  0  0  0  0  0  0  0  0  0  0
   41.2000   21.9630   37.2480 C   0  0  0  0  0  0  0  0  0  0  0  0
   41.9080   23.1460   37.2530 F   0  0  0  0  0  0  0  0  0  0  0  0
   41.2750   21.4620   35.9630 F   0  0  0  0  0  0  0  0  0  0  0  0
   41.6960   21.0620   38.1500 F   0  0  0  0  0  0  0  0  0  0  0  0
   36.9140   25.6510   32.0290 S   0  0  0  0  0  0  0  0  0  0  0  0
   36.5020   24.0670   31.6130 C   0  0  0  0  0  0  0  0  0  0  0  0
   35.4120   23.2750   31.3950 C   0  0  0  0  0  0  0  0  0  0  0  0
   35.4550   21.9690   31.0590 C   0  0  0  0  0  0  0  0  0  0  0  0
   36.8360   21.4310   30.9400 C   0  0  0  0  0  0  0  0  0  0  0  0
   37.9000   22.8600   31.3200 S   0  0  0  0  0  0  0  0  0  0  0  0
   34.4950   23.8270   31.5250 H   0  0  0  0  0  0  0  0  0  0  0  0
   34.6090   21.3400   30.8850 H   0  0  0  0  0  0  0  0  0  0  0  0
   37.2380   20.1430   30.6140 C   0  0  0  0  0  0  0  0  0  0  0  0
   36.6900   19.3660   29.6230 C   0  0  0  0  0  0  0  0  0  0  0  0
   35.8770   19.6350   28.9630 H   0  0  0  0  0  0  0  0  0  0  0  0
   37.3950   18.1540   29.6420 C   0  0  0  0  0  0  0  0  0  0  0  0
   37.2160   17.3050   28.9820 H   0  0  0  0  0  0  0  0  0  0  0  0
   38.3380   18.2960   30.6670 C   0  0  0  0  0  0  0  0  0  0  0  0
   38.9980   17.4700   30.8580 H   0  0  0  0  0  0  0  0  0  0  0  0
   38.2030   19.4960   31.2120 O   0  0  0  0  0  0  0  0  0  0  0  0
  1  2  1  0  0  0  0
  1  9  1  0  0  0  0
  2  7  1  0  0  0  0
  3  8  1  0  0  0  0
  3  2  2  0  0  0  0
  4  3  1  0  0  0  0
  5  4  2  0  0  0  0
  5  6  1  0  0  0  0
  6  1  2  0  0  0  0
  9 13  1  0  0  0  0
 10  9  1  0  0  0  0
 10 11  1  0  0  0  0
 11 16  1  1  0  0  0
 11 12  1  0  0  0  0
 12 17  1  0  0  0  0
 13 19  1  0  0  0  0
 13 12  1  0  0  0  0
 13 20  1  0  0  0  0
 14 10  1  0  0  0  0
 15 10  1  0  0  0  0
 18 12  1  0  0  0  0
 21 22  1  0  0  0  0
 21 11  1  0  0  0  0
 21 24  1  0  0  0  0
 23 21  1  0  0  0  0
 25  5  1  0  0  0  0
 26 25  1  0  0  0  0
 27 31  1  0  0  0  0
 27 26  2  0  0  0  0
 28 27  1  0  0  0  0
 29 28  2  0  0  0  0
 29 30  1  0  0  0  0
 30 26  1  0  0  0  0
 32 28  1  0  0  0  0
 33 29  1  0  0  0  0
 33 40  1  0  0  0  0
 34 36  1  0  0  0  0
 34 33  2  0  0  0  0
 35 34  1  0  0  0  0
 36 38  2  0  0  0  0
 37 36  1  0  0  0  0
 38 39  1  0  0  0  0
 38 40  1  0  0  0  0
M  END
>  <minimizedAffinity>
-5.74055719

$$$$

 OpenBabel03272503353D

 40 43  0  0  1  0  0  0  0  0999 V2000
   39.6410   24.7600   34.8610 C   0  0  0  0  0  0  0  0  0  0  0  0
   40.7680   25.5790   34.9080 C   0  0  0  0  0  0  0  0  0  0  0  0
   40.7430   26.7410   34.1310 C   0  0  0  0  0  0  0  0  0  0  0  0
   39.6130   26.9860   33.3830 N   0  0  0  0  0  0  0  0  0  0  0  0
   38.5630   26.1750   33.3710 C   0  0  0  0  0  0  0  0  0  0  0  0
   38.5710   25.0500   34.1140 N   0  0  0  0  0  0  0  0  0  0  0  0
   41.6540   25.3730   35.5030 H   0  0  0  0  0  0  0  0  0  0  0  0
   41.5670   27.4310   34.1050 H   0  0  0  0  0  0  0  0  0  0  0  0
   39.6630   23.5630   35.6580 N   0  0  0  0  0  0  0  0  0  0  0  0
   40.3300   22.3300   35.3440 C   0  0  0  0  0  0  0  0  0  0  0  0
   40.6160   21.7540   36.7260 C   0  0  2  0  0  0  0  0  0  0  0  0
   40.1900   22.8210   37.7310 C   0  0  0  0  0  0  0  0  0  0  0  0
   39.0100   23.3680   36.9440 C   0  0  0  0  0  0  0  0  0  0  0  0
   41.3080   22.5710   34.8960 H   0  0  0  0  0  0  0  0  0  0  0  0
   39.7170   21.6230   34.7640 H   0  0  0  0  0  0  0  0  0  0  0  0
   40.0210   20.8160   36.8950 H   0  0  0  0  0  0  0  0  0  0  0  0
   39.8220   22.3730   38.6640 H   0  0  0  0  0  0  0  0  0  0  0  0
   40.9860   23.5680   37.8660 H   0  0  0  0  0  0  0  0  0  0  0  0
   38.2820   22.5610   36.8480 H   0  0  0  0  0  0  0  0  0  0  0  0
   38.6030   24.3010   37.3740 H   0  0  0  0  0  0  0  0  0  0  0  0
   42.0610   21.3790   36.8890 C   0  0  0  0  0  0  0  0  0  0  0  0
   42.1710   20.7400   38.1050 F   0  0  0  0  0  0  0  0  0  0  0  0
   42.7730   22.5590   36.9950 F   0  0  0  0  0  0  0  0  0  0  0  0
   42.5380   20.6160   35.8590 F   0  0  0  0  0  0  0  0  0  0  0  0
   37.1280   26.5460   32.3830 S   0  0  0  0  0  0  0  0  0  0  0  0
   36.2790   27.9660   32.7230 C   0  0  0  0  0  0  0  0  0  0  0  0
   35.5070   28.9130   32.1150 C   0  0  0  0  0  0  0  0  0  0  0  0
   34.9610   29.9820   32.7320 C   0  0  0  0  0  0  0  0  0  0  0  0
   35.2750   30.0580   34.1830 C   0  0  0  0  0  0  0  0  0  0  0  0
   36.3100   28.5890   34.4860 S   0  0  0  0  0  0  0  0  0  0  0  0
   35.3830   28.7020   31.0650 H   0  0  0  0  0  0  0  0  0  0  0  0
   34.3540   30.7290   32.2660 H   0  0  0  0  0  0  0  0  0  0  0  0
   34.8780   31.0150   35.1060 C   0  0  0  0  0  0  0  0  0  0  0  0
   35.6710   31.5390   36.0970 C   0  0  0  0  0  0  0  0  0  0  0  0
   36.7020   31.2880   36.3030 H   0  0  0  0  0  0  0  0  0  0  0  0
   34.8740   32.4630   36.7870 C   0  0  0  0  0  0  0  0  0  0  0  0
   35.1920   33.0640   37.6390 H   0  0  0  0  0  0  0  0  0  0  0  0
   33.6310   32.4250   36.1430 C   0  0  0  0  0  0  0  0  0  0  0  0
   32.8550   33.0690   36.5160 H   0  0  0  0  0  0  0  0  0  0  0  0
   33.6860   31.5490   35.1520 O   0  0  0  0  0  0  0  0  0  0  0  0
  1  2  1  0  0  0  0
  1  9  1  0  0  0  0
  2  7  1  0  0  0  0
  3  2  2  0  0  0  0
  4  3  1  0  0  0  0
  5  4  2  0  0  0  0
  5  6  1  0  0  0  0
  6  1  2  0  0  0  0
  8  3  1  0  0  0  0
  9 13  1  0  0  0  0
 10  9  1  0  0  0  0
 10 11  1  0  0  0  0
 11 21  1  0  0  0  0
 11 16  1  1  0  0  0
 11 12  1  0  0  0  0
 12 18  1  0  0  0  0
 12 17  1  0  0  0  0
 13 20  1  0  0  0  0
 13 12  1  0  0  0  0
 14 10  1  0  0  0  0
 15 10  1  0  0  0  0
 19 13  1  0  0  0  0
 21 23  1  0  0  0  0
 21 22  1  0  0  0  0
 24 21  1  0  0  0  0
 25 26  1  0  0  0  0
 25  5  1  0  0  0  0
 26 30  1  0  0  0  0
 27 26  2  0  0  0  0
 27 28  1  0  0  0  0
 28 29  2  0  0  0  0
 29 30  1  0  0  0  0
 29 33  1  0  0  0  0
 31 27  1  0  0  0  0
 32 28  1  0  0  0  0
 33 40  1  0  0  0  0
 33 34  2  0  0  0  0
 34 35  1  0  0  0  0
 34 36  1  0  0  0  0
 36 37  1  0  0  0  0
 38 39  1  0  0  0  0
 38 36  2  0  0  0  0
 40 38  1  0  0  0  0
M  END
>  <minimizedAffinity>
-5.72900057

$$$$
