
     RDKit          3D

 20 21  0  0  0  0  0  0  0  0999 V2000
   38.3083   31.2394   50.1294 C   0  0  0  0  0  0  0  0  0  0  0  0
   38.2869   31.6167   48.7654 C   0  0  0  0  0  0  0  0  0  0  0  0
   37.1989   31.2239   47.9995 C   0  0  0  0  0  0  0  0  0  0  0  0
   36.2081   30.4996   48.5876 N   0  0  0  0  0  0  0  0  0  0  0  0
   36.2672   30.1608   49.8928 C   0  0  0  0  0  0  0  0  0  0  0  0
   37.3052   30.5254   50.6576 N   0  0  0  0  0  0  0  0  0  0  0  0
   35.1382   29.3754   50.4448 C   0  0  0  0  0  0  0  0  0  0  0  0
   35.2607   29.1286   51.8032 F   0  0  0  0  0  0  0  0  0  0  0  0
   33.9250   30.0675   50.2948 F   0  0  0  0  0  0  0  0  0  0  0  0
   34.9506   28.1746   49.8289 F   0  0  0  0  0  0  0  0  0  0  0  0
   39.1422   31.5295   50.7537 H   0  0  0  0  0  0  0  0  0  0  0  0
   39.0981   32.1948   48.3366 H   0  0  0  0  0  0  0  0  0  0  0  0
   37.1232   31.5839   46.5884 C   0  0  0  0  0  0  0  0  0  0  0  0
   38.1661   31.4791   45.6922 C   0  0  0  0  0  0  0  0  0  0  0  0
   39.1747   31.1219   45.8964 H   0  0  0  0  0  0  0  0  0  0  0  0
   37.5824   31.9405   44.5071 C   0  0  0  0  0  0  0  0  0  0  0  0
   38.1364   31.9965   43.5630 H   0  0  0  0  0  0  0  0  0  0  0  0
   36.2686   32.2863   44.7410 C   0  0  0  0  0  0  0  0  0  0  0  0
   35.5696   32.6797   43.9885 H   0  0  0  0  0  0  0  0  0  0  0  0
   36.0351   32.0514   46.0241 O   0  0  0  0  0  0  0  0  0  0  0  0
  1  6  2  0
  2  1  1  0
  3  4  1  0
  3  2  2  0
  4  5  2  0
  5  7  1  0
  5  6  1  0
  7  8  1  0
  9  7  1  0
 10  7  1  0
  1 11  1  0
  2 12  1  0
 13 14  2  0
 14 15  1  0
 14 16  1  0
 16 17  1  0
 16 18  2  0
 18 19  1  0
 18 20  1  0
 20 13  1  0
  3 13  1  0
M  ISO  5  11  14  12  14  15  16  17  16  19  14
M  END
>  <DihAtoms>  (1) 
3,2,12,13

>  <DihDeg>  (1) 
-0.0014230495518466862

$$$$
