
 OpenBabel03272506523D

 33 35  0  0  1  0  0  0  0  0999 V2000
   38.5010   27.0450   34.1660 C   0  0  1  0  0  0  0  0  0  0  0  0
   38.6330   27.0350   35.6170 C   0  0  0  0  0  0  0  0  0  0  0  0
   38.1030   25.8350   36.3500 C   0  0  0  0  0  0  0  0  0  0  0  0
   38.2350   24.5270   35.6650 C   0  0  1  0  0  0  0  0  0  0  0  0
   38.1730   24.5250   34.1810 C   0  0  0  0  0  0  0  0  0  0  0  0
   38.8180   25.7130   33.5500 C   0  0  0  0  0  0  0  0  0  0  0  0
   39.3110   27.7210   33.7420 H   0  0  0  0  0  0  0  0  0  0  0  0
   38.3180   27.9260   36.1630 H   0  0  0  0  0  0  0  0  0  0  0  0
   39.7520   26.9960   35.8350 H   0  0  0  0  0  0  0  0  0  0  0  0
   38.6110   25.7610   37.3350 H   0  0  0  0  0  0  0  0  0  0  0  0
   37.0450   26.0720   36.6010 H   0  0  0  0  0  0  0  0  0  0  0  0
   37.3200   23.9290   35.9720 H   0  0  0  0  0  0  0  0  0  0  0  0
   38.6860   23.6270   33.8080 H   0  0  0  0  0  0  0  0  0  0  0  0
   37.1260   24.4910   33.8130 H   0  0  0  0  0  0  0  0  0  0  0  0
   39.9180   25.5730   33.8110 H   0  0  0  0  0  0  0  0  0  0  0  0
   38.8410   25.6690   32.4690 H   0  0  0  0  0  0  0  0  0  0  0  0
   36.4040   28.4270   34.4120 C   0  0  0  0  0  0  0  0  0  0  0  0
   37.2660   27.6570   33.6160 C   0  0  0  0  0  0  0  0  0  0  0  0
   36.9190   27.5050   32.2890 C   0  0  0  0  0  0  0  0  0  0  0  0
   35.7780   28.0940   31.8150 N   0  0  0  0  0  0  0  0  0  0  0  0
   34.9730   28.8310   32.6240 C   0  0  0  0  0  0  0  0  0  0  0  0
   35.2990   28.9910   33.9320 N   0  0  0  0  0  0  0  0  0  0  0  0
   36.5800   28.6100   35.4610 H   0  0  0  0  0  0  0  0  0  0  0  0
   37.4950   26.9410   31.5720 H   0  0  0  0  0  0  0  0  0  0  0  0
   34.0980   29.2510   32.1470 H   0  0  0  0  0  0  0  0  0  0  0  0
   39.3760   23.7620   36.2340 C   0  0  0  0  0  0  0  0  0  0  0  0
   39.3670   23.0290   37.4160 C   0  0  0  0  0  0  0  0  0  0  0  0
   38.5630   22.8750   38.1220 H   0  0  0  0  0  0  0  0  0  0  0  0
   40.6120   22.4650   37.6050 C   0  0  0  0  0  0  0  0  0  0  0  0
   41.0560   21.8430   38.3480 H   0  0  0  0  0  0  0  0  0  0  0  0
   41.3440   22.8770   36.5250 C   0  0  0  0  0  0  0  0  0  0  0  0
   42.3500   22.7510   36.1470 H   0  0  0  0  0  0  0  0  0  0  0  0
   40.6130   23.6140   35.7610 O   0  0  0  0  0  0  0  0  0  0  0  0
  1  7  1  6  0  0  0
  1  2  1  0  0  0  0
  2  9  1  0  0  0  0
  2  8  1  0  0  0  0
  2  3  1  0  0  0  0
  3 11  1  0  0  0  0
  3 10  1  0  0  0  0
  4 12  1  1  0  0  0
  4 26  1  0  0  0  0
  4  3  1  0  0  0  0
  5  4  1  0  0  0  0
  6 15  1  0  0  0  0
  6  1  1  0  0  0  0
  6  5  1  0  0  0  0
 13  5  1  0  0  0  0
 14  5  1  0  0  0  0
 16  6  1  0  0  0  0
 17 23  1  0  0  0  0
 18  1  1  0  0  0  0
 18 17  2  0  0  0  0
 19 18  1  0  0  0  0
 20 19  2  0  0  0  0
 20 21  1  0  0  0  0
 21 22  2  0  0  0  0
 22 17  1  0  0  0  0
 24 19  1  0  0  0  0
 25 21  1  0  0  0  0
 26 27  2  0  0  0  0
 27 29  1  0  0  0  0
 27 28  1  0  0  0  0
 29 30  1  0  0  0  0
 31 29  2  0  0  0  0
 32 31  1  0  0  0  0
 33 26  1  0  0  0  0
 33 31  1  0  0  0  0
M  END
>  <minimizedAffinity>
-4.94140673

$$$$

 OpenBabel03272506523D

 33 35  0  0  1  0  0  0  0  0999 V2000
   39.2990   26.6630   33.6080 C   0  0  1  0  0  0  0  0  0  0  0  0
   39.1080   27.1510   34.9680 C   0  0  0  0  0  0  0  0  0  0  0  0
   38.0260   26.5060   35.7860 C   0  0  0  0  0  0  0  0  0  0  0  0
   37.8000   25.0580   35.5660 C   0  0  1  0  0  0  0  0  0  0  0  0
   38.0570   24.5280   34.2020 C   0  0  0  0  0  0  0  0  0  0  0  0
   39.2170   25.1670   33.5170 C   0  0  0  0  0  0  0  0  0  0  0  0
   40.3730   26.8790   33.3030 H   0  0  0  0  0  0  0  0  0  0  0  0
   39.0420   28.2300   35.1170 H   0  0  0  0  0  0  0  0  0  0  0  0
   40.0580   26.8820   35.5390 H   0  0  0  0  0  0  0  0  0  0  0  0
   38.2490   26.6600   36.8640 H   0  0  0  0  0  0  0  0  0  0  0  0
   37.1070   27.1060   35.6050 H   0  0  0  0  0  0  0  0  0  0  0  0
   36.6860   24.8980   35.7100 H   0  0  0  0  0  0  0  0  0  0  0  0
   38.2630   23.4500   34.2760 H   0  0  0  0  0  0  0  0  0  0  0  0
   37.1770   24.6560   33.5380 H   0  0  0  0  0  0  0  0  0  0  0  0
   40.1030   24.8300   34.1490 H   0  0  0  0  0  0  0  0  0  0  0  0
   39.4510   24.7240   32.5570 H   0  0  0  0  0  0  0  0  0  0  0  0
   37.2470   27.8710   32.7730 C   0  0  0  0  0  0  0  0  0  0  0  0
   38.5300   27.3500   32.5420 C   0  0  0  0  0  0  0  0  0  0  0  0
   39.0500   27.5180   31.2750 C   0  0  0  0  0  0  0  0  0  0  0  0
   38.3140   28.1670   30.3200 N   0  0  0  0  0  0  0  0  0  0  0  0
   37.0750   28.6540   30.5910 C   0  0  0  0  0  0  0  0  0  0  0  0
   36.5470   28.4990   31.8310 N   0  0  0  0  0  0  0  0  0  0  0  0
   36.7460   27.7960   33.7270 H   0  0  0  0  0  0  0  0  0  0  0  0
   40.0230   27.1670   30.9670 H   0  0  0  0  0  0  0  0  0  0  0  0
   36.5830   29.1490   29.7650 H   0  0  0  0  0  0  0  0  0  0  0  0
   38.4250   24.2680   36.6600 C   0  0  0  0  0  0  0  0  0  0  0  0
   38.0260   24.2510   37.9930 C   0  0  0  0  0  0  0  0  0  0  0  0
   37.2170   24.7830   38.4740 H   0  0  0  0  0  0  0  0  0  0  0  0
   38.8510   23.4000   38.6990 C   0  0  0  0  0  0  0  0  0  0  0  0
   38.9210   23.0830   39.7140 H   0  0  0  0  0  0  0  0  0  0  0  0
   39.7320   22.9240   37.7670 C   0  0  0  0  0  0  0  0  0  0  0  0
   40.5750   22.2460   37.7370 H   0  0  0  0  0  0  0  0  0  0  0  0
   39.4650   23.4360   36.6140 O   0  0  0  0  0  0  0  0  0  0  0  0
  1  7  1  6  0  0  0
  1  2  1  0  0  0  0
  2  8  1  0  0  0  0
  2  9  1  0  0  0  0
  2  3  1  0  0  0  0
  3 10  1  0  0  0  0
  4 12  1  1  0  0  0
  4  3  1  0  0  0  0
  4 26  1  0  0  0  0
  5 13  1  0  0  0  0
  5  4  1  0  0  0  0
  6  1  1  0  0  0  0
  6 15  1  0  0  0  0
  6  5  1  0  0  0  0
 11  3  1  0  0  0  0
 14  5  1  0  0  0  0
 16  6  1  0  0  0  0
 17 23  1  0  0  0  0
 18 17  1  0  0  0  0
 18  1  1  0  0  0  0
 19 18  2  0  0  0  0
 20 21  2  0  0  0  0
 20 19  1  0  0  0  0
 21 22  1  0  0  0  0
 22 17  2  0  0  0  0
 24 19  1  0  0  0  0
 25 21  1  0  0  0  0
 26 27  2  0  0  0  0
 27 28  1  0  0  0  0
 27 29  1  0  0  0  0
 29 30  1  0  0  0  0
 31 29  2  0  0  0  0
 32 31  1  0  0  0  0
 33 26  1  0  0  0  0
 33 31  1  0  0  0  0
M  END
>  <minimizedAffinity>
-4.9007926

$$$$

 OpenBabel03272506523D

 33 35  0  0  1  0  0  0  0  0999 V2000
   36.9300   27.6400   32.1490 C   0  0  1  0  0  0  0  0  0  0  0  0
   36.0420   28.6850   31.6590 C   0  0  0  0  0  0  0  0  0  0  0  0
   34.9860   29.1910   32.6020 C   0  0  0  0  0  0  0  0  0  0  0  0
   35.3520   29.2520   34.0370 C   0  0  1  0  0  0  0  0  0  0  0  0
   36.3110   28.2360   34.5400 C   0  0  0  0  0  0  0  0  0  0  0  0
   37.3790   27.8800   33.5610 C   0  0  0  0  0  0  0  0  0  0  0  0
   37.9020   27.6970   31.5600 H   0  0  0  0  0  0  0  0  0  0  0  0
   35.5770   28.5420   30.6830 H   0  0  0  0  0  0  0  0  0  0  0  0
   36.6960   29.6040   31.4880 H   0  0  0  0  0  0  0  0  0  0  0  0
   34.6740   30.2080   32.2820 H   0  0  0  0  0  0  0  0  0  0  0  0
   34.0890   28.5570   32.4240 H   0  0  0  0  0  0  0  0  0  0  0  0
   34.3960   29.0220   34.6040 H   0  0  0  0  0  0  0  0  0  0  0  0
   36.8010   28.6310   35.4420 H   0  0  0  0  0  0  0  0  0  0  0  0
   35.8010   27.2920   34.8210 H   0  0  0  0  0  0  0  0  0  0  0  0
   37.9750   28.8480   33.4730 H   0  0  0  0  0  0  0  0  0  0  0  0
   38.1220   27.2010   33.9600 H   0  0  0  0  0  0  0  0  0  0  0  0
   35.4210   25.9290   31.0720 C   0  0  0  0  0  0  0  0  0  0  0  0
   36.5040   26.2390   31.9090 C   0  0  0  0  0  0  0  0  0  0  0  0
   37.1650   25.1770   32.4920 C   0  0  0  0  0  0  0  0  0  0  0  0
   36.7490   23.8980   32.2380 N   0  0  0  0  0  0  0  0  0  0  0  0
   35.6930   23.6460   31.4190 C   0  0  0  0  0  0  0  0  0  0  0  0
   35.0310   24.6780   30.8380 N   0  0  0  0  0  0  0  0  0  0  0  0
   34.8350   26.6820   30.5660 H   0  0  0  0  0  0  0  0  0  0  0  0
   38.0120   25.2780   33.1530 H   0  0  0  0  0  0  0  0  0  0  0  0
   35.4500   22.6000   31.2880 H   0  0  0  0  0  0  0  0  0  0  0  0
   35.6760   30.6510   34.4250 C   0  0  0  0  0  0  0  0  0  0  0  0
   35.9810   31.0990   35.7060 C   0  0  0  0  0  0  0  0  0  0  0  0
   36.0410   30.5430   36.6310 H   0  0  0  0  0  0  0  0  0  0  0  0
   36.2220   32.4570   35.6620 C   0  0  0  0  0  0  0  0  0  0  0  0
   36.4830   33.2030   36.3770 H   0  0  0  0  0  0  0  0  0  0  0  0
   36.0550   32.7930   34.3470 C   0  0  0  0  0  0  0  0  0  0  0  0
   36.1130   33.6850   33.7370 H   0  0  0  0  0  0  0  0  0  0  0  0
   35.7450   31.7440   33.6660 O   0  0  0  0  0  0  0  0  0  0  0  0
  1  7  1  6  0  0  0
  1  6  1  0  0  0  0
  2  1  1  0  0  0  0
  2  3  1  0  0  0  0
  3  4  1  0  0  0  0
  4 26  1  0  0  0  0
  4  5  1  0  0  0  0
  4 12  1  1  0  0  0
  5 14  1  0  0  0  0
  5 13  1  0  0  0  0
  6 16  1  0  0  0  0
  6  5  1  0  0  0  0
  8  2  1  0  0  0  0
  9  2  1  0  0  0  0
 10  3  1  0  0  0  0
 11  3  1  0  0  0  0
 15  6  1  0  0  0  0
 17 18  1  0  0  0  0
 18  1  1  0  0  0  0
 18 19  2  0  0  0  0
 19 24  1  0  0  0  0
 20 19  1  0  0  0  0
 21 20  2  0  0  0  0
 22 17  2  0  0  0  0
 22 21  1  0  0  0  0
 23 17  1  0  0  0  0
 25 21  1  0  0  0  0
 26 27  2  0  0  0  0
 27 28  1  0  0  0  0
 29 27  1  0  0  0  0
 29 30  1  0  0  0  0
 31 29  2  0  0  0  0
 32 31  1  0  0  0  0
 33 31  1  0  0  0  0
 33 26  1  0  0  0  0
M  END
>  <minimizedAffinity>
-4.82341385

$$$$

 OpenBabel03272506523D

 33 35  0  0  1  0  0  0  0  0999 V2000
   39.7430   25.5090   34.5910 C   0  0  1  0  0  0  0  0  0  0  0  0
   38.8260   25.2210   33.4950 C   0  0  0  0  0  0  0  0  0  0  0  0
   37.3760   25.5500   33.7060 C   0  0  0  0  0  0  0  0  0  0  0  0
   37.0790   26.7540   34.5170 C   0  0  1  0  0  0  0  0  0  0  0  0
   38.0390   27.1040   35.5940 C   0  0  0  0  0  0  0  0  0  0  0  0
   39.4630   26.8310   35.2430 C   0  0  0  0  0  0  0  0  0  0  0  0
   40.7820   25.6550   34.1530 H   0  0  0  0  0  0  0  0  0  0  0  0
   38.8810   24.2350   33.0310 H   0  0  0  0  0  0  0  0  0  0  0  0
   39.1260   25.9130   32.6390 H   0  0  0  0  0  0  0  0  0  0  0  0
   36.8870   25.6720   32.7150 H   0  0  0  0  0  0  0  0  0  0  0  0
   36.9130   24.6320   34.1310 H   0  0  0  0  0  0  0  0  0  0  0  0
   36.1220   26.5150   35.0790 H   0  0  0  0  0  0  0  0  0  0  0  0
   37.9470   28.1780   35.8130 H   0  0  0  0  0  0  0  0  0  0  0  0
   37.8250   26.5510   36.5320 H   0  0  0  0  0  0  0  0  0  0  0  0
   39.6630   27.5720   34.4010 H   0  0  0  0  0  0  0  0  0  0  0  0
   40.1660   27.1610   35.9980 H   0  0  0  0  0  0  0  0  0  0  0  0
   41.2060   23.7590   35.6700 C   0  0  0  0  0  0  0  0  0  0  0  0
   39.9710   24.4180   35.5710 C   0  0  0  0  0  0  0  0  0  0  0  0
   38.9770   24.0120   36.4380 C   0  0  0  0  0  0  0  0  0  0  0  0
   39.2280   23.0090   37.3350 N   0  0  0  0  0  0  0  0  0  0  0  0
   40.4410   22.4000   37.3940 C   0  0  0  0  0  0  0  0  0  0  0  0
   41.4310   22.7860   36.5500 N   0  0  0  0  0  0  0  0  0  0  0  0
   42.0510   23.9970   35.0410 H   0  0  0  0  0  0  0  0  0  0  0  0
   37.9860   24.4370   36.4660 H   0  0  0  0  0  0  0  0  0  0  0  0
   40.5310   21.6210   38.1400 H   0  0  0  0  0  0  0  0  0  0  0  0
   36.7060   27.8900   33.6330 C   0  0  0  0  0  0  0  0  0  0  0  0
   35.8990   28.9700   33.9770 C   0  0  0  0  0  0  0  0  0  0  0  0
   35.4080   29.1880   34.9150 H   0  0  0  0  0  0  0  0  0  0  0  0
   35.7860   29.8120   32.8900 C   0  0  0  0  0  0  0  0  0  0  0  0
   35.2850   30.7320   32.6940 H   0  0  0  0  0  0  0  0  0  0  0  0
   36.5320   29.2130   31.9120 C   0  0  0  0  0  0  0  0  0  0  0  0
   36.8030   29.4070   30.8830 H   0  0  0  0  0  0  0  0  0  0  0  0
   37.0440   28.1200   32.3640 O   0  0  0  0  0  0  0  0  0  0  0  0
  1  7  1  6  0  0  0
  1  6  1  0  0  0  0
  1 18  1  0  0  0  0
  2  3  1  0  0  0  0
  2  1  1  0  0  0  0
  3 11  1  0  0  0  0
  3  4  1  0  0  0  0
  4 12  1  1  0  0  0
  4  5  1  0  0  0  0
  5 13  1  0  0  0  0
  5 14  1  0  0  0  0
  6  5  1  0  0  0  0
  6 16  1  0  0  0  0
  8  2  1  0  0  0  0
  9  2  1  0  0  0  0
 10  3  1  0  0  0  0
 15  6  1  0  0  0  0
 17 22  1  0  0  0  0
 18 17  2  0  0  0  0
 18 19  1  0  0  0  0
 19 24  1  0  0  0  0
 19 20  2  0  0  0  0
 20 21  1  0  0  0  0
 21 25  1  0  0  0  0
 22 21  2  0  0  0  0
 23 17  1  0  0  0  0
 26 27  2  0  0  0  0
 26  4  1  0  0  0  0
 27 28  1  0  0  0  0
 29 27  1  0  0  0  0
 30 29  1  0  0  0  0
 31 33  1  0  0  0  0
 31 29  2  0  0  0  0
 32 31  1  0  0  0  0
 33 26  1  0  0  0  0
M  END
>  <minimizedAffinity>
-4.80227423

$$$$

 OpenBabel03272506523D

 33 35  0  0  1  0  0  0  0  0999 V2000
   39.2280   25.7200   34.7770 C   0  0  1  0  0  0  0  0  0  0  0  0
   38.6430   25.3030   33.5090 C   0  0  0  0  0  0  0  0  0  0  0  0
   37.2420   25.7570   33.2140 C   0  0  0  0  0  0  0  0  0  0  0  0
   36.8620   27.1020   33.7070 C   0  0  1  0  0  0  0  0  0  0  0  0
   37.5010   27.5740   34.9620 C   0  0  0  0  0  0  0  0  0  0  0  0
   38.9240   27.1520   35.1080 C   0  0  0  0  0  0  0  0  0  0  0  0
   40.3600   25.7200   34.6610 H   0  0  0  0  0  0  0  0  0  0  0  0
   38.7180   24.2490   33.2360 H   0  0  0  0  0  0  0  0  0  0  0  0
   39.2560   25.8120   32.6930 H   0  0  0  0  0  0  0  0  0  0  0  0
   37.0790   25.7340   32.1150 H   0  0  0  0  0  0  0  0  0  0  0  0
   36.5730   24.9600   33.6100 H   0  0  0  0  0  0  0  0  0  0  0  0
   35.7620   27.0270   33.9780 H   0  0  0  0  0  0  0  0  0  0  0  0
   37.4730   28.6730   34.9790 H   0  0  0  0  0  0  0  0  0  0  0  0
   36.9610   27.2100   35.8610 H   0  0  0  0  0  0  0  0  0  0  0  0
   39.4440   27.7180   34.2670 H   0  0  0  0  0  0  0  0  0  0  0  0
   39.4100   27.5640   35.9830 H   0  0  0  0  0  0  0  0  0  0  0  0
   38.0820   25.0670   36.9280 C   0  0  0  0  0  0  0  0  0  0  0  0
   39.0350   24.8070   35.9300 C   0  0  0  0  0  0  0  0  0  0  0  0
   39.7770   23.6520   36.0650 C   0  0  0  0  0  0  0  0  0  0  0  0
   39.5630   22.8290   37.1370 N   0  0  0  0  0  0  0  0  0  0  0  0
   38.6290   23.1220   38.0790 C   0  0  0  0  0  0  0  0  0  0  0  0
   37.8890   24.2540   37.9630 N   0  0  0  0  0  0  0  0  0  0  0  0
   37.4480   25.9410   36.9210 H   0  0  0  0  0  0  0  0  0  0  0  0
   40.5380   23.3360   35.3680 H   0  0  0  0  0  0  0  0  0  0  0  0
   38.5410   22.4040   38.8830 H   0  0  0  0  0  0  0  0  0  0  0  0
   36.8950   28.0860   32.5920 C   0  0  0  0  0  0  0  0  0  0  0  0
   37.5910   27.9490   31.3950 C   0  0  0  0  0  0  0  0  0  0  0  0
   38.2160   27.1360   31.0540 H   0  0  0  0  0  0  0  0  0  0  0  0
   37.3750   29.0690   30.6190 C   0  0  0  0  0  0  0  0  0  0  0  0
   37.6930   29.3960   29.6560 H   0  0  0  0  0  0  0  0  0  0  0  0
   36.5490   29.8560   31.3730 C   0  0  0  0  0  0  0  0  0  0  0  0
   36.0620   30.8180   31.2850 H   0  0  0  0  0  0  0  0  0  0  0  0
   36.2920   29.2700   32.4920 O   0  0  0  0  0  0  0  0  0  0  0  0
  1  7  1  6  0  0  0
  1  6  1  0  0  0  0
  1 18  1  0  0  0  0
  2  1  1  0  0  0  0
  3  2  1  0  0  0  0
  3 11  1  0  0  0  0
  3  4  1  0  0  0  0
  4 12  1  1  0  0  0
  4  5  1  0  0  0  0
  5 13  1  0  0  0  0
  5  6  1  0  0  0  0
  5 14  1  0  0  0  0
  6 16  1  0  0  0  0
  8  2  1  0  0  0  0
  9  2  1  0  0  0  0
 10  3  1  0  0  0  0
 15  6  1  0  0  0  0
 17 22  1  0  0  0  0
 18 19  1  0  0  0  0
 18 17  2  0  0  0  0
 19 20  2  0  0  0  0
 20 21  1  0  0  0  0
 21 25  1  0  0  0  0
 22 21  2  0  0  0  0
 23 17  1  0  0  0  0
 24 19  1  0  0  0  0
 26  4  1  0  0  0  0
 27 26  2  0  0  0  0
 28 27  1  0  0  0  0
 29 31  2  0  0  0  0
 29 27  1  0  0  0  0
 30 29  1  0  0  0  0
 31 33  1  0  0  0  0
 32 31  1  0  0  0  0
 33 26  1  0  0  0  0
M  END
>  <minimizedAffinity>
-4.79388285

$$$$

 OpenBabel03272506523D

 33 35  0  0  1  0  0  0  0  0999 V2000
   39.0500   26.9190   34.9430 C   0  0  1  0  0  0  0  0  0  0  0  0
   39.3090   26.9930   33.5110 C   0  0  0  0  0  0  0  0  0  0  0  0
   38.1280   26.8720   32.5900 C   0  0  0  0  0  0  0  0  0  0  0  0
   36.8540   27.4640   33.0630 C   0  0  1  0  0  0  0  0  0  0  0  0
   36.6040   27.4620   34.5270 C   0  0  0  0  0  0  0  0  0  0  0  0
   37.8280   27.6900   35.3470 C   0  0  0  0  0  0  0  0  0  0  0  0
   39.8880   27.4690   35.4820 H   0  0  0  0  0  0  0  0  0  0  0  0
   40.1130   26.3760   33.1060 H   0  0  0  0  0  0  0  0  0  0  0  0
   39.6860   28.0510   33.3090 H   0  0  0  0  0  0  0  0  0  0  0  0
   38.3830   27.3380   31.6140 H   0  0  0  0  0  0  0  0  0  0  0  0
   38.0280   25.7880   32.3610 H   0  0  0  0  0  0  0  0  0  0  0  0
   36.0350   26.7940   32.6500 H   0  0  0  0  0  0  0  0  0  0  0  0
   35.8870   28.2610   34.7630 H   0  0  0  0  0  0  0  0  0  0  0  0
   36.1600   26.5030   34.8670 H   0  0  0  0  0  0  0  0  0  0  0  0
   38.1110   28.7630   35.0860 H   0  0  0  0  0  0  0  0  0  0  0  0
   37.6290   27.7680   36.4090 H   0  0  0  0  0  0  0  0  0  0  0  0
   38.2190   25.1760   36.5670 C   0  0  0  0  0  0  0  0  0  0  0  0
   39.1150   25.5720   35.5610 C   0  0  0  0  0  0  0  0  0  0  0  0
   40.0550   24.6430   35.1640 C   0  0  0  0  0  0  0  0  0  0  0  0
   40.0760   23.4070   35.7500 N   0  0  0  0  0  0  0  0  0  0  0  0
   39.1870   23.0690   36.7210 C   0  0  0  0  0  0  0  0  0  0  0  0
   38.2560   23.9690   37.1250 N   0  0  0  0  0  0  0  0  0  0  0  0
   37.4450   25.8230   36.9520 H   0  0  0  0  0  0  0  0  0  0  0  0
   40.7980   24.8200   34.4020 H   0  0  0  0  0  0  0  0  0  0  0  0
   39.2930   22.0670   37.1160 H   0  0  0  0  0  0  0  0  0  0  0  0
   36.6190   28.7750   32.4010 C   0  0  0  0  0  0  0  0  0  0  0  0
   35.8200   29.8070   32.8820 C   0  0  0  0  0  0  0  0  0  0  0  0
   35.2390   29.8590   33.7920 H   0  0  0  0  0  0  0  0  0  0  0  0
   35.8540   30.8570   31.9870 C   0  0  0  0  0  0  0  0  0  0  0  0
   35.4110   31.8240   31.9370 H   0  0  0  0  0  0  0  0  0  0  0  0
   36.6780   30.4260   30.9830 C   0  0  0  0  0  0  0  0  0  0  0  0
   37.0640   30.8070   30.0470 H   0  0  0  0  0  0  0  0  0  0  0  0
   37.0990   29.2360   31.2470 O   0  0  0  0  0  0  0  0  0  0  0  0
  1  6  1  0  0  0  0
  1  7  1  1  0  0  0
  1 18  1  0  0  0  0
  2  1  1  0  0  0  0
  3  4  1  0  0  0  0
  3  2  1  0  0  0  0
  4 12  1  6  0  0  0
  4  5  1  0  0  0  0
  5 13  1  0  0  0  0
  5 14  1  0  0  0  0
  5  6  1  0  0  0  0
  6 16  1  0  0  0  0
  8  2  1  0  0  0  0
  9  2  1  0  0  0  0
 10  3  1  0  0  0  0
 11  3  1  0  0  0  0
 15  6  1  0  0  0  0
 17 23  1  0  0  0  0
 17 22  1  0  0  0  0
 18 17  2  0  0  0  0
 19 18  1  0  0  0  0
 19 20  2  0  0  0  0
 20 21  1  0  0  0  0
 21 25  1  0  0  0  0
 21 22  2  0  0  0  0
 24 19  1  0  0  0  0
 26 27  2  0  0  0  0
 26  4  1  0  0  0  0
 27 28  1  0  0  0  0
 29 27  1  0  0  0  0
 30 29  1  0  0  0  0
 31 33  1  0  0  0  0
 31 29  2  0  0  0  0
 32 31  1  0  0  0  0
 33 26  1  0  0  0  0
M  END
>  <minimizedAffinity>
-4.71254158

$$$$

 OpenBabel03272506523D

 33 35  0  0  1  0  0  0  0  0999 V2000
   39.0550   26.8820   34.9300 C   0  0  1  0  0  0  0  0  0  0  0  0
   39.2780   26.9640   33.4920 C   0  0  0  0  0  0  0  0  0  0  0  0
   38.0740   26.8600   32.6000 C   0  0  0  0  0  0  0  0  0  0  0  0
   36.8170   27.4570   33.1090 C   0  0  1  0  0  0  0  0  0  0  0  0
   36.6030   27.4460   34.5790 C   0  0  0  0  0  0  0  0  0  0  0  0
   37.8490   27.6590   35.3700 C   0  0  0  0  0  0  0  0  0  0  0  0
   39.9100   27.4200   35.4520 H   0  0  0  0  0  0  0  0  0  0  0  0
   40.0670   26.3430   33.0630 H   0  0  0  0  0  0  0  0  0  0  0  0
   39.6590   28.0200   33.2890 H   0  0  0  0  0  0  0  0  0  0  0  0
   38.3090   27.3310   31.6220 H   0  0  0  0  0  0  0  0  0  0  0  0
   37.9600   25.7780   32.3660 H   0  0  0  0  0  0  0  0  0  0  0  0
   35.9830   26.7980   32.7110 H   0  0  0  0  0  0  0  0  0  0  0  0
   35.8990   28.2500   34.8380 H   0  0  0  0  0  0  0  0  0  0  0  0
   36.1600   26.4880   34.9220 H   0  0  0  0  0  0  0  0  0  0  0  0
   38.1340   28.7310   35.1100 H   0  0  0  0  0  0  0  0  0  0  0  0
   37.6770   27.7300   36.4370 H   0  0  0  0  0  0  0  0  0  0  0  0
   40.0910   24.5910   35.1440 C   0  0  0  0  0  0  0  0  0  0  0  0
   39.1240   25.5300   35.5370 C   0  0  0  0  0  0  0  0  0  0  0  0
   38.2440   25.1400   36.5260 C   0  0  0  0  0  0  0  0  0  0  0  0
   38.3460   23.8880   37.0690 N   0  0  0  0  0  0  0  0  0  0  0  0
   39.2990   23.0130   36.6570 C   0  0  0  0  0  0  0  0  0  0  0  0
   40.1740   23.3780   35.6850 N   0  0  0  0  0  0  0  0  0  0  0  0
   40.8280   24.7910   34.3810 H   0  0  0  0  0  0  0  0  0  0  0  0
   37.4570   25.7650   36.9180 H   0  0  0  0  0  0  0  0  0  0  0  0
   39.2900   22.0510   37.1530 H   0  0  0  0  0  0  0  0  0  0  0  0
   36.5770   28.7750   32.4630 C   0  0  0  0  0  0  0  0  0  0  0  0
   35.7670   29.7960   32.9520 C   0  0  0  0  0  0  0  0  0  0  0  0
   35.1810   29.8310   33.8590 H   0  0  0  0  0  0  0  0  0  0  0  0
   35.7990   30.8570   32.0710 C   0  0  0  0  0  0  0  0  0  0  0  0
   35.3490   31.8220   32.0310 H   0  0  0  0  0  0  0  0  0  0  0  0
   36.6320   30.4450   31.0670 C   0  0  0  0  0  0  0  0  0  0  0  0
   37.0210   30.8410   30.1380 H   0  0  0  0  0  0  0  0  0  0  0  0
   37.0600   29.2550   31.3170 O   0  0  0  0  0  0  0  0  0  0  0  0
  1  6  1  0  0  0  0
  1  7  1  1  0  0  0
  1 18  1  0  0  0  0
  2  1  1  0  0  0  0
  3  4  1  0  0  0  0
  3  2  1  0  0  0  0
  4 12  1  6  0  0  0
  4  5  1  0  0  0  0
  5 13  1  0  0  0  0
  5 14  1  0  0  0  0
  5  6  1  0  0  0  0
  6 16  1  0  0  0  0
  8  2  1  0  0  0  0
  9  2  1  0  0  0  0
 10  3  1  0  0  0  0
 11  3  1  0  0  0  0
 15  6  1  0  0  0  0
 17 18  2  0  0  0  0
 17 22  1  0  0  0  0
 18 19  1  0  0  0  0
 19 24  1  0  0  0  0
 19 20  2  0  0  0  0
 21 20  1  0  0  0  0
 21 25  1  0  0  0  0
 22 21  2  0  0  0  0
 23 17  1  0  0  0  0
 26 27  2  0  0  0  0
 26  4  1  0  0  0  0
 27 28  1  0  0  0  0
 29 27  1  0  0  0  0
 30 29  1  0  0  0  0
 31 33  1  0  0  0  0
 31 29  2  0  0  0  0
 32 31  1  0  0  0  0
 33 26  1  0  0  0  0
M  END
>  <minimizedAffinity>
-4.69693947

$$$$

 OpenBabel03272506523D

 33 35  0  0  1  0  0  0  0  0999 V2000
   38.2070   23.8320   35.4860 C   0  0  1  0  0  0  0  0  0  0  0  0
   37.8590   25.0190   36.2560 C   0  0  0  0  0  0  0  0  0  0  0  0
   38.4800   26.3210   35.8360 C   0  0  0  0  0  0  0  0  0  0  0  0
   38.6950   26.5150   34.3830 C   0  0  1  0  0  0  0  0  0  0  0  0
   38.9820   25.3070   33.5680 C   0  0  0  0  0  0  0  0  0  0  0  0
   38.2360   24.0930   34.0090 C   0  0  0  0  0  0  0  0  0  0  0  0
   37.3610   23.0790   35.5960 H   0  0  0  0  0  0  0  0  0  0  0  0
   37.9190   24.9560   37.3440 H   0  0  0  0  0  0  0  0  0  0  0  0
   36.7460   25.1970   36.0820 H   0  0  0  0  0  0  0  0  0  0  0  0
   37.8500   27.1570   36.2060 H   0  0  0  0  0  0  0  0  0  0  0  0
   39.4260   26.4090   36.4150 H   0  0  0  0  0  0  0  0  0  0  0  0
   39.6460   27.1300   34.2950 H   0  0  0  0  0  0  0  0  0  0  0  0
   38.7050   25.5120   32.5240 H   0  0  0  0  0  0  0  0  0  0  0  0
   40.0610   25.0470   33.5830 H   0  0  0  0  0  0  0  0  0  0  0  0
   37.1530   24.3650   33.7820 H   0  0  0  0  0  0  0  0  0  0  0  0
   38.3860   23.2350   33.3650 H   0  0  0  0  0  0  0  0  0  0  0  0
   39.6520   22.8840   37.3250 C   0  0  0  0  0  0  0  0  0  0  0  0
   39.3780   23.0540   35.9580 C   0  0  0  0  0  0  0  0  0  0  0  0
   40.2450   22.4500   35.0710 C   0  0  0  0  0  0  0  0  0  0  0  0
   41.3090   21.7310   35.5450 N   0  0  0  0  0  0  0  0  0  0  0  0
   41.5340   21.5950   36.8780 C   0  0  0  0  0  0  0  0  0  0  0  0
   40.6920   22.1810   37.7660 N   0  0  0  0  0  0  0  0  0  0  0  0
   39.0390   23.3120   38.1040 H   0  0  0  0  0  0  0  0  0  0  0  0
   40.1470   22.5020   33.9980 H   0  0  0  0  0  0  0  0  0  0  0  0
   42.4020   21.0060   37.1420 H   0  0  0  0  0  0  0  0  0  0  0  0
   37.6390   27.3980   33.8210 C   0  0  0  0  0  0  0  0  0  0  0  0
   36.6480   28.0580   34.5430 C   0  0  0  0  0  0  0  0  0  0  0  0
   36.4620   28.0590   35.6070 H   0  0  0  0  0  0  0  0  0  0  0  0
   35.8590   28.7780   33.6700 C   0  0  0  0  0  0  0  0  0  0  0  0
   35.0100   29.4130   33.7650 H   0  0  0  0  0  0  0  0  0  0  0  0
   36.3980   28.5310   32.4370 C   0  0  0  0  0  0  0  0  0  0  0  0
   36.2070   28.8150   31.4100 H   0  0  0  0  0  0  0  0  0  0  0  0
   37.4110   27.7420   32.5540 O   0  0  0  0  0  0  0  0  0  0  0  0
  1  7  1  1  0  0  0
  1 18  1  0  0  0  0
  1  2  1  0  0  0  0
  2  8  1  0  0  0  0
  3 10  1  0  0  0  0
  3  2  1  0  0  0  0
  3 11  1  0  0  0  0
  4 12  1  6  0  0  0
  4  3  1  0  0  0  0
  5 14  1  0  0  0  0
  5  6  1  0  0  0  0
  5  4  1  0  0  0  0
  6  1  1  0  0  0  0
  9  2  1  0  0  0  0
 13  5  1  0  0  0  0
 15  6  1  0  0  0  0
 16  6  1  0  0  0  0
 17 22  1  0  0  0  0
 17 23  1  0  0  0  0
 18 17  2  0  0  0  0
 19 20  2  0  0  0  0
 19 18  1  0  0  0  0
 20 21  1  0  0  0  0
 21 25  1  0  0  0  0
 21 22  2  0  0  0  0
 24 19  1  0  0  0  0
 26  4  1  0  0  0  0
 26 27  2  0  0  0  0
 27 28  1  0  0  0  0
 29 30  1  0  0  0  0
 29 27  1  0  0  0  0
 31 33  1  0  0  0  0
 31 29  2  0  0  0  0
 32 31  1  0  0  0  0
 33 26  1  0  0  0  0
M  END
>  <minimizedAffinity>
-4.63765478

$$$$

 OpenBabel03272506523D

 33 35  0  0  1  0  0  0  0  0999 V2000
   36.7890   26.7510   33.2450 C   0  0  1  0  0  0  0  0  0  0  0  0
   37.3340   25.4210   33.0090 C   0  0  0  0  0  0  0  0  0  0  0  0
   38.7090   25.1340   33.5450 C   0  0  0  0  0  0  0  0  0  0  0  0
   39.0680   25.7780   34.8300 C   0  0  1  0  0  0  0  0  0  0  0  0
   38.4660   27.1040   35.1210 C   0  0  0  0  0  0  0  0  0  0  0  0
   37.0640   27.2480   34.6350 C   0  0  0  0  0  0  0  0  0  0  0  0
   35.6540   26.6780   33.2200 H   0  0  0  0  0  0  0  0  0  0  0  0
   37.2800   25.0210   31.9960 H   0  0  0  0  0  0  0  0  0  0  0  0
   36.6740   24.6980   33.5940 H   0  0  0  0  0  0  0  0  0  0  0  0
   38.8270   24.0360   33.6640 H   0  0  0  0  0  0  0  0  0  0  0  0
   39.4160   25.4020   32.7290 H   0  0  0  0  0  0  0  0  0  0  0  0
   40.1800   25.9970   34.7610 H   0  0  0  0  0  0  0  0  0  0  0  0
   38.4620   27.2580   36.2090 H   0  0  0  0  0  0  0  0  0  0  0  0
   39.0530   27.9300   34.6670 H   0  0  0  0  0  0  0  0  0  0  0  0
   36.4930   26.5040   35.2830 H   0  0  0  0  0  0  0  0  0  0  0  0
   36.6020   28.1860   34.9180 H   0  0  0  0  0  0  0  0  0  0  0  0
   37.9650   27.5440   31.1580 C   0  0  0  0  0  0  0  0  0  0  0  0
   37.0570   27.7730   32.2030 C   0  0  0  0  0  0  0  0  0  0  0  0
   36.4110   28.9930   32.2110 C   0  0  0  0  0  0  0  0  0  0  0  0
   36.6760   29.9060   31.2260 N   0  0  0  0  0  0  0  0  0  0  0  0
   37.5650   29.6390   30.2330 C   0  0  0  0  0  0  0  0  0  0  0  0
   38.2090   28.4450   30.2100 N   0  0  0  0  0  0  0  0  0  0  0  0
   38.5230   26.6250   31.0560 H   0  0  0  0  0  0  0  0  0  0  0  0
   35.6910   29.2930   32.9550 H   0  0  0  0  0  0  0  0  0  0  0  0
   37.6980   30.4300   29.5070 H   0  0  0  0  0  0  0  0  0  0  0  0
   38.9600   24.7970   35.9430 C   0  0  0  0  0  0  0  0  0  0  0  0
   38.0250   24.8210   36.9740 C   0  0  0  0  0  0  0  0  0  0  0  0
   37.2260   25.5260   37.1580 H   0  0  0  0  0  0  0  0  0  0  0  0
   38.2480   23.7470   37.8090 C   0  0  0  0  0  0  0  0  0  0  0  0
   37.7970   23.3720   38.6990 H   0  0  0  0  0  0  0  0  0  0  0  0
   39.3200   23.0990   37.2580 C   0  0  0  0  0  0  0  0  0  0  0  0
   39.9190   22.2230   37.4690 H   0  0  0  0  0  0  0  0  0  0  0  0
   39.7040   23.7200   36.1960 O   0  0  0  0  0  0  0  0  0  0  0  0
  1  7  1  6  0  0  0
  1  6  1  0  0  0  0
  2  1  1  0  0  0  0
  2  3  1  0  0  0  0
  2  9  1  0  0  0  0
  3 10  1  0  0  0  0
  3  4  1  0  0  0  0
  4 12  1  6  0  0  0
  4  5  1  0  0  0  0
  4 26  1  0  0  0  0
  5 13  1  0  0  0  0
  6 16  1  0  0  0  0
  6  5  1  0  0  0  0
  6 15  1  0  0  0  0
  8  2  1  0  0  0  0
 11  3  1  0  0  0  0
 14  5  1  0  0  0  0
 17 18  1  0  0  0  0
 18 19  2  0  0  0  0
 18  1  1  0  0  0  0
 19 24  1  0  0  0  0
 20 19  1  0  0  0  0
 21 20  2  0  0  0  0
 22 21  1  0  0  0  0
 22 17  2  0  0  0  0
 23 17  1  0  0  0  0
 25 21  1  0  0  0  0
 26 33  1  0  0  0  0
 26 27  2  0  0  0  0
 27 28  1  0  0  0  0
 27 29  1  0  0  0  0
 29 30  1  0  0  0  0
 31 32  1  0  0  0  0
 31 29  2  0  0  0  0
 33 31  1  0  0  0  0
M  END
>  <minimizedAffinity>
-4.57137489

$$$$
