
     RDKit          3D

 27 29  0  0  0  0  0  0  0  0999 V2000
   37.0256   31.3966   48.5392 N   0  0  0  0  0  0  0  0  0  0  0  0
   37.1807   32.1553   49.6548 C   0  0  0  0  0  0  0  0  0  0  0  0
   38.1517   33.1615   49.6642 C   0  0  0  0  0  0  0  0  0  0  0  0
   38.8614   33.2629   48.4891 C   0  0  0  0  0  0  0  0  0  0  0  0
   39.7454   34.1776   48.5010 O   0  0  0  0  0  0  0  0  0  0  0  0
   38.7168   32.5220   47.3840 N   0  0  0  0  0  0  0  0  0  0  0  0
   37.7640   31.5676   47.4365 C   0  0  0  0  0  0  0  0  0  0  0  0
   37.6061   30.8598   46.4175 O   0  0  0  0  0  0  0  0  0  0  0  0
   36.2233   29.2395   49.3616 C   0  0  0  0  0  0  0  0  0  0  0  0
   36.0424   30.3488   48.5182 C   0  0  0  0  0  0  0  0  0  0  0  0
   34.9032   30.3815   47.6946 C   0  0  0  0  0  0  0  0  0  0  0  0
   34.0364   29.3426   47.7551 N   0  0  0  0  0  0  0  0  0  0  0  0
   34.2192   28.2945   48.5611 C   0  0  0  0  0  0  0  0  0  0  0  0
   35.2996   28.2428   49.3553 N   0  0  0  0  0  0  0  0  0  0  0  0
   36.5749   32.0061   50.5403 H   0  0  0  0  0  0  0  0  0  0  0  0
   38.3290   33.8007   50.5148 H   0  0  0  0  0  0  0  0  0  0  0  0
   39.3077   32.6786   46.5386 H   0  0  0  0  0  0  0  0  0  0  0  0
   34.8204   31.2538   47.0729 H   0  0  0  0  0  0  0  0  0  0  0  0
   33.4947   27.4903   48.5705 H   0  0  0  0  0  0  0  0  0  0  0  0
   37.3773   29.1023   50.2450 C   0  0  0  0  0  0  0  0  0  0  0  0
   37.3571   29.2973   51.6092 C   0  0  0  0  0  0  0  0  0  0  0  0
   36.4813   29.5782   52.2035 H   0  0  0  0  0  0  0  0  0  0  0  0
   38.6069   29.0907   52.1501 C   0  0  0  0  0  0  0  0  0  0  0  0
   38.9624   29.1521   53.1644 H   0  0  0  0  0  0  0  0  0  0  0  0
   39.3688   28.7658   51.0554 C   0  0  0  0  0  0  0  0  0  0  0  0
   40.4391   28.5276   51.0806 H   0  0  0  0  0  0  0  0  0  0  0  0
   38.6091   28.7918   50.0133 O   0  0  0  0  0  0  0  0  0  0  0  0
  1  2  1  0
  2  3  2  0
  4  3  1  0
  5  4  2  0
  6  7  1  0
  6  4  1  0
  7  1  1  0
  8  7  2  0
  9 14  1  0
 10  1  1  0
 10  9  2  0
 11 12  2  0
 11 10  1  0
 12 13  1  0
 13 14  2  0
  2 15  1  0
  3 16  1  0
  6 17  1  0
 11 18  1  0
 13 19  1  0
 20 21  2  0
 21 22  1  0
 21 23  1  0
 23 24  1  0
 23 25  2  0
 25 26  1  0
 25 27  1  0
 27 20  1  0
  9 20  1  0
M  ISO  8  15  14  16  14  17   9  18  14  19  14  22  16  24  16  26  14
M  END
>  <DihAtoms>  (1) 
13,8,19,20

>  <DihDeg>  (1) 
-1.2111897480620382

$$$$
