
 OpenBabel03262523233D

 32 34  0  0  1  0  0  0  0  0999 V2000
   38.8260   21.4540   32.7260 C   0  0  0  0  0  0  0  0  0  0  0  0
   37.5210   20.9010   32.6280 C   0  0  0  0  0  0  0  0  0  0  0  0
   36.6300   21.1040   33.6870 C   0  0  0  0  0  0  0  0  0  0  0  0
   37.0680   21.8220   34.7530 N   0  0  0  0  0  0  0  0  0  0  0  0
   38.3010   22.3340   34.8250 C   0  0  0  0  0  0  0  0  0  0  0  0
   39.1820   22.1550   33.8190 N   0  0  0  0  0  0  0  0  0  0  0  0
   38.7120   23.0890   35.9790 N   0  0  0  0  0  0  0  0  0  0  0  0
   40.0300   22.8490   36.5830 C   0  0  0  0  0  0  0  0  0  0  0  0
   40.0320   23.1040   38.0560 C   0  0  0  0  0  0  0  0  0  0  0  0
   38.6110   23.0120   38.5680 C   0  0  0  0  0  0  0  0  0  0  0  0
   37.9070   24.2250   38.0070 C   0  0  0  0  0  0  0  0  0  0  0  0
   37.8020   24.0810   36.5240 C   0  0  1  0  0  0  0  0  0  0  0  0
   39.4770   21.2740   31.8890 H   0  0  0  0  0  0  0  0  0  0  0  0
   37.1880   20.3310   31.7690 H   0  0  0  0  0  0  0  0  0  0  0  0
   35.6210   20.7120   33.6810 H   0  0  0  0  0  0  0  0  0  0  0  0
   40.6860   23.6210   36.1030 H   0  0  0  0  0  0  0  0  0  0  0  0
   40.4190   21.8730   36.2940 H   0  0  0  0  0  0  0  0  0  0  0  0
   40.5400   24.0180   38.3790 H   0  0  0  0  0  0  0  0  0  0  0  0
   40.6100   22.2610   38.5340 H   0  0  0  0  0  0  0  0  0  0  0  0
   38.1770   22.0670   38.2120 H   0  0  0  0  0  0  0  0  0  0  0  0
   38.6720   23.0760   39.6850 H   0  0  0  0  0  0  0  0  0  0  0  0
   36.8900   24.3800   38.4690 H   0  0  0  0  0  0  0  0  0  0  0  0
   38.5690   25.1060   38.2390 H   0  0  0  0  0  0  0  0  0  0  0  0
   36.7750   23.7210   36.3060 H   0  0  0  0  0  0  0  0  0  0  0  0
   37.9420   25.3950   35.8180 C   0  0  0  0  0  0  0  0  0  0  0  0
   38.4360   26.5910   36.3380 C   0  0  0  0  0  0  0  0  0  0  0  0
   38.7940   26.7510   37.3390 H   0  0  0  0  0  0  0  0  0  0  0  0
   38.3560   27.5010   35.2870 C   0  0  0  0  0  0  0  0  0  0  0  0
   38.6730   28.5410   35.3810 H   0  0  0  0  0  0  0  0  0  0  0  0
   37.8230   26.7980   34.2070 C   0  0  0  0  0  0  0  0  0  0  0  0
   37.6850   27.3480   33.2860 H   0  0  0  0  0  0  0  0  0  0  0  0
   37.5920   25.5560   34.5630 O   0  0  0  0  0  0  0  0  0  0  0  0
  1  6  1  0  0  0  0
  2  1  2  0  0  0  0
  2  3  1  0  0  0  0
  3  4  2  0  0  0  0
  4  5  1  0  0  0  0
  5  7  1  0  0  0  0
  6  5  2  0  0  0  0
  7 12  1  0  0  0  0
  7  8  1  0  0  0  0
  8  9  1  0  0  0  0
  9 18  1  0  0  0  0
  9 19  1  0  0  0  0
  9 10  1  0  0  0  0
 10 21  1  0  0  0  0
 11 23  1  0  0  0  0
 11 22  1  0  0  0  0
 11 10  1  0  0  0  0
 12 24  1  6  0  0  0
 12 11  1  0  0  0  0
 13  1  1  0  0  0  0
 14  2  1  0  0  0  0
 15  3  1  0  0  0  0
 16  8  1  0  0  0  0
 17  8  1  0  0  0  0
 20 10  1  0  0  0  0
 25 26  2  0  0  0  0
 25 12  1  0  0  0  0
 26 27  1  0  0  0  0
 28 29  1  0  0  0  0
 28 26  1  0  0  0  0
 30 32  1  0  0  0  0
 30 28  2  0  0  0  0
 31 30  1  0  0  0  0
 32 25  1  0  0  0  0
M  END
>  <minimizedAffinity>
-4.90698767

$$$$

 OpenBabel03262523233D

 32 34  0  0  1  0  0  0  0  0999 V2000
   37.0480   27.0390   34.4580 C   0  0  0  0  0  0  0  0  0  0  0  0
   38.0400   27.3120   33.4780 C   0  0  0  0  0  0  0  0  0  0  0  0
   39.1510   26.4640   33.4010 C   0  0  0  0  0  0  0  0  0  0  0  0
   39.2150   25.4250   34.2720 N   0  0  0  0  0  0  0  0  0  0  0  0
   38.2690   25.1860   35.1870 C   0  0  0  0  0  0  0  0  0  0  0  0
   37.1870   25.9860   35.2850 N   0  0  0  0  0  0  0  0  0  0  0  0
   38.3880   24.0680   36.0850 N   0  0  0  0  0  0  0  0  0  0  0  0
   38.0920   24.2400   37.5150 C   0  0  0  0  0  0  0  0  0  0  0  0
   38.9010   23.3220   38.3730 C   0  0  0  0  0  0  0  0  0  0  0  0
   40.1270   22.8860   37.6000 C   0  0  0  0  0  0  0  0  0  0  0  0
   39.6080   21.9760   36.5120 C   0  0  0  0  0  0  0  0  0  0  0  0
   38.8010   22.7830   35.5500 C   0  0  1  0  0  0  0  0  0  0  0  0
   36.2120   27.7150   34.4800 H   0  0  0  0  0  0  0  0  0  0  0  0
   37.9730   28.1460   32.7900 H   0  0  0  0  0  0  0  0  0  0  0  0
   39.9450   26.6110   32.6810 H   0  0  0  0  0  0  0  0  0  0  0  0
   37.0180   23.9290   37.6020 H   0  0  0  0  0  0  0  0  0  0  0  0
   38.1470   25.2890   37.8000 H   0  0  0  0  0  0  0  0  0  0  0  0
   38.3560   22.4800   38.8130 H   0  0  0  0  0  0  0  0  0  0  0  0
   39.2640   23.9290   39.2520 H   0  0  0  0  0  0  0  0  0  0  0  0
   40.6210   23.7850   37.2030 H   0  0  0  0  0  0  0  0  0  0  0  0
   40.7680   22.3130   38.3190 H   0  0  0  0  0  0  0  0  0  0  0  0
   40.4390   21.4290   35.9810 H   0  0  0  0  0  0  0  0  0  0  0  0
   38.9290   21.2350   37.0210 H   0  0  0  0  0  0  0  0  0  0  0  0
   39.4560   23.0010   34.6800 H   0  0  0  0  0  0  0  0  0  0  0  0
   37.6330   22.0160   35.0090 C   0  0  0  0  0  0  0  0  0  0  0  0
   36.6190   21.3920   35.7340 C   0  0  0  0  0  0  0  0  0  0  0  0
   36.5220   21.3660   36.8050 H   0  0  0  0  0  0  0  0  0  0  0  0
   35.7850   20.8250   34.7730 C   0  0  0  0  0  0  0  0  0  0  0  0
   34.8880   20.2600   35.0290 H   0  0  0  0  0  0  0  0  0  0  0  0
   36.3480   21.1450   33.5380 C   0  0  0  0  0  0  0  0  0  0  0  0
   35.8320   20.7850   32.6580 H   0  0  0  0  0  0  0  0  0  0  0  0
   37.4400   21.8500   33.7210 O   0  0  0  0  0  0  0  0  0  0  0  0
  1 13  1  0  0  0  0
  1  6  1  0  0  0  0
  2  1  2  0  0  0  0
  3  2  1  0  0  0  0
  3  4  2  0  0  0  0
  4  5  1  0  0  0  0
  5  6  2  0  0  0  0
  5  7  1  0  0  0  0
  7  8  1  0  0  0  0
  8 16  1  0  0  0  0
  8 17  1  0  0  0  0
  8  9  1  0  0  0  0
  9 18  1  0  0  0  0
  9 19  1  0  0  0  0
 10 21  1  0  0  0  0
 10  9  1  0  0  0  0
 11 23  1  0  0  0  0
 11 10  1  0  0  0  0
 12 24  1  6  0  0  0
 12  7  1  0  0  0  0
 12 11  1  0  0  0  0
 14  2  1  0  0  0  0
 15  3  1  0  0  0  0
 20 10  1  0  0  0  0
 22 11  1  0  0  0  0
 25 12  1  0  0  0  0
 25 26  2  0  0  0  0
 26 27  1  0  0  0  0
 28 29  1  0  0  0  0
 28 26  1  0  0  0  0
 30 32  1  0  0  0  0
 30 28  2  0  0  0  0
 31 30  1  0  0  0  0
 32 25  1  0  0  0  0
M  END
>  <minimizedAffinity>
-4.86668015

$$$$

 OpenBabel03262523233D

 32 34  0  0  1  0  0  0  0  0999 V2000
   38.2640   23.0070   36.8200 C   0  0  0  0  0  0  0  0  0  0  0  0
   39.6690   22.9520   36.6220 C   0  0  0  0  0  0  0  0  0  0  0  0
   40.1530   22.4180   35.4230 C   0  0  0  0  0  0  0  0  0  0  0  0
   39.2440   21.9820   34.5140 N   0  0  0  0  0  0  0  0  0  0  0  0
   37.9240   22.0440   34.7190 C   0  0  0  0  0  0  0  0  0  0  0  0
   37.4290   22.5530   35.8670 N   0  0  0  0  0  0  0  0  0  0  0  0
   37.0060   21.5690   33.7200 N   0  0  0  0  0  0  0  0  0  0  0  0
   35.8560   20.7400   34.1120 C   0  0  0  0  0  0  0  0  0  0  0  0
   35.4620   19.7760   33.0390 C   0  0  0  0  0  0  0  0  0  0  0  0
   36.6430   19.5630   32.1180 C   0  0  0  0  0  0  0  0  0  0  0  0
   36.8050   20.8660   31.3710 C   0  0  0  0  0  0  0  0  0  0  0  0
   37.2400   21.9230   32.3310 C   0  0  1  0  0  0  0  0  0  0  0  0
   37.9370   23.4260   37.7560 H   0  0  0  0  0  0  0  0  0  0  0  0
   40.3810   23.3050   37.3590 H   0  0  0  0  0  0  0  0  0  0  0  0
   41.2100   22.3440   35.2040 H   0  0  0  0  0  0  0  0  0  0  0  0
   35.0220   21.4810   34.2270 H   0  0  0  0  0  0  0  0  0  0  0  0
   36.0190   20.2860   35.0880 H   0  0  0  0  0  0  0  0  0  0  0  0
   34.5410   20.0180   32.4990 H   0  0  0  0  0  0  0  0  0  0  0  0
   35.2550   18.7890   33.5450 H   0  0  0  0  0  0  0  0  0  0  0  0
   37.5200   19.3140   32.7340 H   0  0  0  0  0  0  0  0  0  0  0  0
   36.3520   18.7410   31.4150 H   0  0  0  0  0  0  0  0  0  0  0  0
   37.5310   20.7780   30.5130 H   0  0  0  0  0  0  0  0  0  0  0  0
   35.7830   21.1310   30.9790 H   0  0  0  0  0  0  0  0  0  0  0  0
   38.3380   22.0340   32.2160 H   0  0  0  0  0  0  0  0  0  0  0  0
   36.6490   23.2610   32.0030 C   0  0  0  0  0  0  0  0  0  0  0  0
   35.5050   23.5230   31.2500 C   0  0  0  0  0  0  0  0  0  0  0  0
   34.8670   22.7930   30.7850 H   0  0  0  0  0  0  0  0  0  0  0  0
   35.3890   24.9100   31.2430 C   0  0  0  0  0  0  0  0  0  0  0  0
   34.5810   25.4330   30.7290 H   0  0  0  0  0  0  0  0  0  0  0  0
   36.4640   25.3920   31.9890 C   0  0  0  0  0  0  0  0  0  0  0  0
   36.5430   26.4650   32.0970 H   0  0  0  0  0  0  0  0  0  0  0  0
   37.1860   24.3840   32.4210 O   0  0  0  0  0  0  0  0  0  0  0  0
  1 13  1  0  0  0  0
  2  1  1  0  0  0  0
  2 14  1  0  0  0  0
  3  2  2  0  0  0  0
  4  5  2  0  0  0  0
  4  3  1  0  0  0  0
  5  6  1  0  0  0  0
  6  1  2  0  0  0  0
  7  8  1  0  0  0  0
  7  5  1  0  0  0  0
  8 16  1  0  0  0  0
  8 17  1  0  0  0  0
  9 19  1  0  0  0  0
  9  8  1  0  0  0  0
 10 20  1  0  0  0  0
 10  9  1  0  0  0  0
 11 10  1  0  0  0  0
 11 12  1  0  0  0  0
 12 24  1  6  0  0  0
 12  7  1  0  0  0  0
 15  3  1  0  0  0  0
 18  9  1  0  0  0  0
 21 10  1  0  0  0  0
 22 11  1  0  0  0  0
 23 11  1  0  0  0  0
 25 12  1  0  0  0  0
 25 32  1  0  0  0  0
 26 25  2  0  0  0  0
 27 26  1  0  0  0  0
 28 26  1  0  0  0  0
 28 30  2  0  0  0  0
 29 28  1  0  0  0  0
 30 31  1  0  0  0  0
 30 32  1  0  0  0  0
M  END
>  <minimizedAffinity>
-4.86660671

$$$$

 OpenBabel03262523233D

 32 34  0  0  1  0  0  0  0  0999 V2000
   38.4400   22.4450   35.9730 C   0  0  0  0  0  0  0  0  0  0  0  0
   37.9490   23.1680   37.0930 C   0  0  0  0  0  0  0  0  0  0  0  0
   37.7540   24.5470   36.9620 C   0  0  0  0  0  0  0  0  0  0  0  0
   38.0470   25.1160   35.7650 N   0  0  0  0  0  0  0  0  0  0  0  0
   38.5080   24.4170   34.7230 C   0  0  0  0  0  0  0  0  0  0  0  0
   38.7060   23.0850   34.8190 N   0  0  0  0  0  0  0  0  0  0  0  0
   38.8010   25.0710   33.4760 N   0  0  0  0  0  0  0  0  0  0  0  0
   40.0410   24.7540   32.7530 C   0  0  0  0  0  0  0  0  0  0  0  0
   40.5500   25.9200   31.9660 C   0  0  0  0  0  0  0  0  0  0  0  0
   39.9690   27.1910   32.5470 C   0  0  0  0  0  0  0  0  0  0  0  0
   38.5000   27.1520   32.1990 C   0  0  0  0  0  0  0  0  0  0  0  0
   37.8520   26.0400   32.9560 C   0  0  1  0  0  0  0  0  0  0  0  0
   38.5730   21.3870   36.1180 H   0  0  0  0  0  0  0  0  0  0  0  0
   37.7200   22.6970   38.0410 H   0  0  0  0  0  0  0  0  0  0  0  0
   37.3830   25.1610   37.7720 H   0  0  0  0  0  0  0  0  0  0  0  0
   39.7280   23.9620   32.0240 H   0  0  0  0  0  0  0  0  0  0  0  0
   40.7760   24.3060   33.4190 H   0  0  0  0  0  0  0  0  0  0  0  0
   40.4210   25.8520   30.8810 H   0  0  0  0  0  0  0  0  0  0  0  0
   41.6660   25.9620   32.1280 H   0  0  0  0  0  0  0  0  0  0  0  0
   40.1490   27.1870   33.6320 H   0  0  0  0  0  0  0  0  0  0  0  0
   40.4760   28.0400   32.0200 H   0  0  0  0  0  0  0  0  0  0  0  0
   37.9860   28.1340   32.4070 H   0  0  0  0  0  0  0  0  0  0  0  0
   38.4460   26.9200   31.0980 H   0  0  0  0  0  0  0  0  0  0  0  0
   37.3540   26.4960   33.8370 H   0  0  0  0  0  0  0  0  0  0  0  0
   36.7700   25.3720   32.1630 C   0  0  0  0  0  0  0  0  0  0  0  0
   36.6420   24.0140   31.8770 C   0  0  0  0  0  0  0  0  0  0  0  0
   37.3110   23.2310   32.1860 H   0  0  0  0  0  0  0  0  0  0  0  0
   35.4780   23.9140   31.1190 C   0  0  0  0  0  0  0  0  0  0  0  0
   35.1030   22.9630   30.7360 H   0  0  0  0  0  0  0  0  0  0  0  0
   34.9830   25.2120   30.9990 C   0  0  0  0  0  0  0  0  0  0  0  0
   34.0690   25.3360   30.4340 H   0  0  0  0  0  0  0  0  0  0  0  0
   35.7760   26.0450   31.6300 O   0  0  0  0  0  0  0  0  0  0  0  0
  1 13  1  0  0  0  0
  1  2  1  0  0  0  0
  2 14  1  0  0  0  0
  3  2  2  0  0  0  0
  3 15  1  0  0  0  0
  4  3  1  0  0  0  0
  5  6  1  0  0  0  0
  5  4  2  0  0  0  0
  6  1  2  0  0  0  0
  7  5  1  0  0  0  0
  8 17  1  0  0  0  0
  8  7  1  0  0  0  0
  9 19  1  0  0  0  0
  9 10  1  0  0  0  0
  9  8  1  0  0  0  0
 10 20  1  0  0  0  0
 11 22  1  0  0  0  0
 11 10  1  0  0  0  0
 11 12  1  0  0  0  0
 12  7  1  0  0  0  0
 12 24  1  1  0  0  0
 16  8  1  0  0  0  0
 18  9  1  0  0  0  0
 21 10  1  0  0  0  0
 23 11  1  0  0  0  0
 25 12  1  0  0  0  0
 26 25  2  0  0  0  0
 26 27  1  0  0  0  0
 28 26  1  0  0  0  0
 29 28  1  0  0  0  0
 30 28  2  0  0  0  0
 30 32  1  0  0  0  0
 31 30  1  0  0  0  0
 32 25  1  0  0  0  0
M  END
>  <minimizedAffinity>
-4.57371378

$$$$

 OpenBabel03262523233D

 32 34  0  0  1  0  0  0  0  0999 V2000
   37.0450   21.5360   32.5120 C   0  0  0  0  0  0  0  0  0  0  0  0
   35.9100   21.0430   33.2080 C   0  0  0  0  0  0  0  0  0  0  0  0
   35.9430   21.0210   34.6070 C   0  0  0  0  0  0  0  0  0  0  0  0
   37.0660   21.4750   35.2190 N   0  0  0  0  0  0  0  0  0  0  0  0
   38.1250   21.9360   34.5450 C   0  0  0  0  0  0  0  0  0  0  0  0
   38.1210   21.9690   33.1950 N   0  0  0  0  0  0  0  0  0  0  0  0
   39.2890   22.4060   35.2460 N   0  0  0  0  0  0  0  0  0  0  0  0
   40.6310   22.0130   34.7890 C   0  0  0  0  0  0  0  0  0  0  0  0
   41.6090   21.9340   35.9170 C   0  0  0  0  0  0  0  0  0  0  0  0
   40.8480   21.7560   37.2120 C   0  0  0  0  0  0  0  0  0  0  0  0
   40.1540   23.0760   37.4490 C   0  0  0  0  0  0  0  0  0  0  0  0
   39.1080   23.2680   36.4000 C   0  0  1  0  0  0  0  0  0  0  0  0
   36.9750   21.5350   31.4390 H   0  0  0  0  0  0  0  0  0  0  0  0
   35.0210   20.6850   32.7030 H   0  0  0  0  0  0  0  0  0  0  0  0
   35.1150   20.6590   35.2020 H   0  0  0  0  0  0  0  0  0  0  0  0
   40.9440   22.8610   34.1260 H   0  0  0  0  0  0  0  0  0  0  0  0
   40.5840   21.1200   34.1690 H   0  0  0  0  0  0  0  0  0  0  0  0
   42.3450   22.7430   35.9650 H   0  0  0  0  0  0  0  0  0  0  0  0
   42.2160   20.9950   35.7590 H   0  0  0  0  0  0  0  0  0  0  0  0
   40.1430   20.9220   37.0860 H   0  0  0  0  0  0  0  0  0  0  0  0
   41.6150   21.5680   38.0070 H   0  0  0  0  0  0  0  0  0  0  0  0
   39.7050   23.1430   38.4810 H   0  0  0  0  0  0  0  0  0  0  0  0
   40.9420   23.8710   37.3240 H   0  0  0  0  0  0  0  0  0  0  0  0
   38.1370   22.9850   36.8550 H   0  0  0  0  0  0  0  0  0  0  0  0
   38.9740   24.7040   35.9920 C   0  0  0  0  0  0  0  0  0  0  0  0
   37.9030   25.5610   36.2420 C   0  0  0  0  0  0  0  0  0  0  0  0
   36.9990   25.3160   36.7710 H   0  0  0  0  0  0  0  0  0  0  0  0
   38.2690   26.7730   35.6610 C   0  0  0  0  0  0  0  0  0  0  0  0
   37.6300   27.6570   35.6870 H   0  0  0  0  0  0  0  0  0  0  0  0
   39.5300   26.5690   35.1030 C   0  0  0  0  0  0  0  0  0  0  0  0
   39.9840   27.4110   34.6000 H   0  0  0  0  0  0  0  0  0  0  0  0
   39.9120   25.3310   35.3210 O   0  0  0  0  0  0  0  0  0  0  0  0
  1  6  2  0  0  0  0
  1  2  1  0  0  0  0
  2  3  2  0  0  0  0
  3 15  1  0  0  0  0
  3  4  1  0  0  0  0
  5  4  2  0  0  0  0
  5  7  1  0  0  0  0
  6  5  1  0  0  0  0
  7 12  1  0  0  0  0
  8  7  1  0  0  0  0
  8  9  1  0  0  0  0
  9 18  1  0  0  0  0
  9 10  1  0  0  0  0
 10 11  1  0  0  0  0
 10 21  1  0  0  0  0
 11 22  1  0  0  0  0
 12 24  1  1  0  0  0
 12 11  1  0  0  0  0
 13  1  1  0  0  0  0
 14  2  1  0  0  0  0
 16  8  1  0  0  0  0
 17  8  1  0  0  0  0
 19  9  1  0  0  0  0
 20 10  1  0  0  0  0
 23 11  1  0  0  0  0
 25 26  2  0  0  0  0
 25 12  1  0  0  0  0
 26 27  1  0  0  0  0
 28 29  1  0  0  0  0
 28 26  1  0  0  0  0
 30 32  1  0  0  0  0
 30 28  2  0  0  0  0
 31 30  1  0  0  0  0
 32 25  1  0  0  0  0
M  END
>  <minimizedAffinity>
-4.57240629

$$$$

 OpenBabel03262523233D

 32 34  0  0  1  0  0  0  0  0999 V2000
   42.3580   22.1730   35.7230 C   0  0  0  0  0  0  0  0  0  0  0  0
   41.9400   21.5300   36.9180 C   0  0  0  0  0  0  0  0  0  0  0  0
   40.7740   21.9840   37.5450 C   0  0  0  0  0  0  0  0  0  0  0  0
   40.1080   23.0180   36.9700 N   0  0  0  0  0  0  0  0  0  0  0  0
   40.5200   23.6080   35.8430 C   0  0  0  0  0  0  0  0  0  0  0  0
   41.6410   23.1920   35.2160 N   0  0  0  0  0  0  0  0  0  0  0  0
   39.7740   24.7000   35.2760 N   0  0  0  0  0  0  0  0  0  0  0  0
   40.4780   25.8950   34.7860 C   0  0  0  0  0  0  0  0  0  0  0  0
   39.6490   27.1320   34.9200 C   0  0  0  0  0  0  0  0  0  0  0  0
   38.5880   26.8970   35.9720 C   0  0  0  0  0  0  0  0  0  0  0  0
   37.6300   25.9030   35.3570 C   0  0  0  0  0  0  0  0  0  0  0  0
   38.3280   24.5930   35.2000 C   0  0  1  0  0  0  0  0  0  0  0  0
   43.2590   21.7900   35.2740 H   0  0  0  0  0  0  0  0  0  0  0  0
   42.4830   20.7050   37.3630 H   0  0  0  0  0  0  0  0  0  0  0  0
   40.3960   21.5420   38.4580 H   0  0  0  0  0  0  0  0  0  0  0  0
   40.6130   25.6920   33.6920 H   0  0  0  0  0  0  0  0  0  0  0  0
   41.4710   25.9680   35.2250 H   0  0  0  0  0  0  0  0  0  0  0  0
   39.2390   27.5320   33.9870 H   0  0  0  0  0  0  0  0  0  0  0  0
   40.3300   27.9420   35.3130 H   0  0  0  0  0  0  0  0  0  0  0  0
   39.0790   26.5090   36.8770 H   0  0  0  0  0  0  0  0  0  0  0  0
   38.0790   27.8820   36.1360 H   0  0  0  0  0  0  0  0  0  0  0  0
   36.6870   25.7870   35.9630 H   0  0  0  0  0  0  0  0  0  0  0  0
   37.3790   26.3040   34.3340 H   0  0  0  0  0  0  0  0  0  0  0  0
   38.0150   23.9550   36.0530 H   0  0  0  0  0  0  0  0  0  0  0  0
   37.8990   23.8700   33.9590 C   0  0  0  0  0  0  0  0  0  0  0  0
   37.6460   24.4170   32.7020 C   0  0  0  0  0  0  0  0  0  0  0  0
   37.7200   25.4550   32.4310 H   0  0  0  0  0  0  0  0  0  0  0  0
   37.2840   23.3350   31.9040 C   0  0  0  0  0  0  0  0  0  0  0  0
   37.0220   23.4390   30.8500 H   0  0  0  0  0  0  0  0  0  0  0  0
   37.3440   22.2110   32.7280 C   0  0  0  0  0  0  0  0  0  0  0  0
   37.0910   21.2610   32.2780 H   0  0  0  0  0  0  0  0  0  0  0  0
   37.7110   22.5710   33.9360 O   0  0  0  0  0  0  0  0  0  0  0  0
  1  2  1  0  0  0  0
  2 14  1  0  0  0  0
  2  3  2  0  0  0  0
  3 15  1  0  0  0  0
  4  3  1  0  0  0  0
  5  4  2  0  0  0  0
  6  1  2  0  0  0  0
  6  5  1  0  0  0  0
  7  5  1  0  0  0  0
  8  9  1  0  0  0  0
  8 17  1  0  0  0  0
  8  7  1  0  0  0  0
  9 19  1  0  0  0  0
  9 10  1  0  0  0  0
 10 21  1  0  0  0  0
 10 20  1  0  0  0  0
 11 22  1  0  0  0  0
 11 10  1  0  0  0  0
 12  7  1  0  0  0  0
 12 11  1  0  0  0  0
 12 24  1  1  0  0  0
 13  1  1  0  0  0  0
 16  8  1  0  0  0  0
 18  9  1  0  0  0  0
 23 11  1  0  0  0  0
 25 12  1  0  0  0  0
 26 25  2  0  0  0  0
 27 26  1  0  0  0  0
 28 26  1  0  0  0  0
 28 30  2  0  0  0  0
 29 28  1  0  0  0  0
 30 32  1  0  0  0  0
 31 30  1  0  0  0  0
 32 25  1  0  0  0  0
M  END
>  <minimizedAffinity>
-4.5480442

$$$$

 OpenBabel03262523233D

 32 34  0  0  1  0  0  0  0  0999 V2000
   36.9840   26.4100   33.0260 C   0  0  0  0  0  0  0  0  0  0  0  0
   36.5540   25.3830   32.1450 C   0  0  0  0  0  0  0  0  0  0  0  0
   37.2890   24.1930   32.0990 C   0  0  0  0  0  0  0  0  0  0  0  0
   38.3770   24.0910   32.9050 N   0  0  0  0  0  0  0  0  0  0  0  0
   38.7640   25.0710   33.7280 C   0  0  0  0  0  0  0  0  0  0  0  0
   38.0750   26.2300   33.7940 N   0  0  0  0  0  0  0  0  0  0  0  0
   39.9250   24.9080   34.5620 N   0  0  0  0  0  0  0  0  0  0  0  0
   40.9030   26.0000   34.6820 C   0  0  0  0  0  0  0  0  0  0  0  0
   42.2880   25.4920   34.9240 C   0  0  0  0  0  0  0  0  0  0  0  0
   42.3710   24.0560   34.4540 C   0  0  0  0  0  0  0  0  0  0  0  0
   41.5360   23.2680   35.4360 C   0  0  0  0  0  0  0  0  0  0  0  0
   40.1030   23.6550   35.2740 C   0  0  1  0  0  0  0  0  0  0  0  0
   36.3880   27.3060   33.0290 H   0  0  0  0  0  0  0  0  0  0  0  0
   35.6820   25.4810   31.5090 H   0  0  0  0  0  0  0  0  0  0  0  0
   37.0200   23.3690   31.4520 H   0  0  0  0  0  0  0  0  0  0  0  0
   40.5750   26.5490   35.6030 H   0  0  0  0  0  0  0  0  0  0  0  0
   40.8160   26.6930   33.8470 H   0  0  0  0  0  0  0  0  0  0  0  0
   42.6720   25.6290   35.9400 H   0  0  0  0  0  0  0  0  0  0  0  0
   42.9780   26.0960   34.2660 H   0  0  0  0  0  0  0  0  0  0  0  0
   41.9790   24.0070   33.4280 H   0  0  0  0  0  0  0  0  0  0  0  0
   43.4490   23.7600   34.5290 H   0  0  0  0  0  0  0  0  0  0  0  0
   41.6690   22.1560   35.3130 H   0  0  0  0  0  0  0  0  0  0  0  0
   41.8810   23.5820   36.4620 H   0  0  0  0  0  0  0  0  0  0  0  0
   39.6250   22.8700   34.6520 H   0  0  0  0  0  0  0  0  0  0  0  0
   39.3680   23.6600   36.5790 C   0  0  0  0  0  0  0  0  0  0  0  0
   39.6970   22.9630   37.7420 C   0  0  0  0  0  0  0  0  0  0  0  0
   40.5380   22.3080   37.8760 H   0  0  0  0  0  0  0  0  0  0  0  0
   38.7060   23.3050   38.6580 C   0  0  0  0  0  0  0  0  0  0  0  0
   38.6840   22.9150   39.6770 H   0  0  0  0  0  0  0  0  0  0  0  0
   37.8500   24.1820   37.9930 C   0  0  0  0  0  0  0  0  0  0  0  0
   37.0060   24.5610   38.5540 H   0  0  0  0  0  0  0  0  0  0  0  0
   38.2760   24.3660   36.7650 O   0  0  0  0  0  0  0  0  0  0  0  0
  1 13  1  0  0  0  0
  1  6  1  0  0  0  0
  2  1  2  0  0  0  0
  3  2  1  0  0  0  0
  3  4  2  0  0  0  0
  4  5  1  0  0  0  0
  5  6  2  0  0  0  0
  5  7  1  0  0  0  0
  7  8  1  0  0  0  0
  7 12  1  0  0  0  0
  8  9  1  0  0  0  0
  8 16  1  0  0  0  0
  9 18  1  0  0  0  0
 10 21  1  0  0  0  0
 10  9  1  0  0  0  0
 10 11  1  0  0  0  0
 11 23  1  0  0  0  0
 12 24  1  6  0  0  0
 12 11  1  0  0  0  0
 12 25  1  0  0  0  0
 14  2  1  0  0  0  0
 15  3  1  0  0  0  0
 17  8  1  0  0  0  0
 19  9  1  0  0  0  0
 20 10  1  0  0  0  0
 22 11  1  0  0  0  0
 25 32  1  0  0  0  0
 25 26  2  0  0  0  0
 26 27  1  0  0  0  0
 26 28  1  0  0  0  0
 28 29  1  0  0  0  0
 30 31  1  0  0  0  0
 30 28  2  0  0  0  0
 32 30  1  0  0  0  0
M  END
>  <minimizedAffinity>
-4.49945641

$$$$

 OpenBabel03262523233D

 32 34  0  0  1  0  0  0  0  0999 V2000
   36.8890   26.1170   31.8960 C   0  0  0  0  0  0  0  0  0  0  0  0
   35.5960   26.3100   31.3410 C   0  0  0  0  0  0  0  0  0  0  0  0
   34.8960   25.1900   30.8790 C   0  0  0  0  0  0  0  0  0  0  0  0
   35.4970   23.9780   30.9900 N   0  0  0  0  0  0  0  0  0  0  0  0
   36.7160   23.8190   31.5170 C   0  0  0  0  0  0  0  0  0  0  0  0
   37.4150   24.8800   31.9710 N   0  0  0  0  0  0  0  0  0  0  0  0
   37.3050   22.5100   31.6120 N   0  0  0  0  0  0  0  0  0  0  0  0
   38.7120   22.3080   31.2340 C   0  0  0  0  0  0  0  0  0  0  0  0
   38.9610   20.9350   30.6970 C   0  0  0  0  0  0  0  0  0  0  0  0
   37.6500   20.3570   30.2100 C   0  0  0  0  0  0  0  0  0  0  0  0
   36.8410   20.0990   31.4590 C   0  0  0  0  0  0  0  0  0  0  0  0
   36.4860   21.4080   32.0850 C   0  0  1  0  0  0  0  0  0  0  0  0
   37.3900   27.0050   32.2390 H   0  0  0  0  0  0  0  0  0  0  0  0
   35.1300   27.2850   31.2600 H   0  0  0  0  0  0  0  0  0  0  0  0
   33.9070   25.2610   30.4440 H   0  0  0  0  0  0  0  0  0  0  0  0
   39.2630   22.3990   32.2060 H   0  0  0  0  0  0  0  0  0  0  0  0
   39.0610   23.1140   30.5910 H   0  0  0  0  0  0  0  0  0  0  0  0
   39.5020   20.2560   31.3640 H   0  0  0  0  0  0  0  0  0  0  0  0
   39.6260   21.0520   29.7930 H   0  0  0  0  0  0  0  0  0  0  0  0
   37.1770   21.0910   29.5410 H   0  0  0  0  0  0  0  0  0  0  0  0
   37.9000   19.3920   29.6980 H   0  0  0  0  0  0  0  0  0  0  0  0
   35.9150   19.4900   31.2500 H   0  0  0  0  0  0  0  0  0  0  0  0
   37.5180   19.5350   32.1600 H   0  0  0  0  0  0  0  0  0  0  0  0
   35.4430   21.6390   31.7830 H   0  0  0  0  0  0  0  0  0  0  0  0
   36.4810   21.3350   33.5820 C   0  0  0  0  0  0  0  0  0  0  0  0
   35.5920   20.6340   34.3950 C   0  0  0  0  0  0  0  0  0  0  0  0
   34.7630   20.0330   34.0640 H   0  0  0  0  0  0  0  0  0  0  0  0
   36.0160   20.8900   35.6960 C   0  0  0  0  0  0  0  0  0  0  0  0
   35.5150   20.4750   36.5720 H   0  0  0  0  0  0  0  0  0  0  0  0
   37.1280   21.7220   35.5830 C   0  0  0  0  0  0  0  0  0  0  0  0
   37.6020   22.0330   36.5050 H   0  0  0  0  0  0  0  0  0  0  0  0
   37.3700   21.9630   34.3160 O   0  0  0  0  0  0  0  0  0  0  0  0
  1  6  1  0  0  0  0
  1 13  1  0  0  0  0
  2  1  2  0  0  0  0
  3  4  2  0  0  0  0
  3  2  1  0  0  0  0
  4  5  1  0  0  0  0
  5  7  1  0  0  0  0
  5  6  2  0  0  0  0
  7 12  1  0  0  0  0
  8  7  1  0  0  0  0
  8 16  1  0  0  0  0
  9  8  1  0  0  0  0
  9 18  1  0  0  0  0
 10  9  1  0  0  0  0
 10 11  1  0  0  0  0
 11 12  1  0  0  0  0
 11 23  1  0  0  0  0
 12 24  1  6  0  0  0
 12 25  1  0  0  0  0
 14  2  1  0  0  0  0
 15  3  1  0  0  0  0
 17  8  1  0  0  0  0
 19  9  1  0  0  0  0
 20 10  1  0  0  0  0
 21 10  1  0  0  0  0
 22 11  1  0  0  0  0
 25 32  1  0  0  0  0
 25 26  2  0  0  0  0
 26 28  1  0  0  0  0
 27 26  1  0  0  0  0
 28 29  1  0  0  0  0
 30 28  2  0  0  0  0
 30 31  1  0  0  0  0
 32 30  1  0  0  0  0
M  END
>  <minimizedAffinity>
-4.45333433

$$$$

 OpenBabel03262523233D

 32 34  0  0  1  0  0  0  0  0999 V2000
   39.8990   22.2480   35.8380 C   0  0  0  0  0  0  0  0  0  0  0  0
   39.3750   23.2700   36.6740 C   0  0  0  0  0  0  0  0  0  0  0  0
   38.4600   24.1760   36.1250 C   0  0  0  0  0  0  0  0  0  0  0  0
   38.1270   24.0230   34.8180 N   0  0  0  0  0  0  0  0  0  0  0  0
   38.6320   23.0540   34.0490 C   0  0  0  0  0  0  0  0  0  0  0  0
   39.5160   22.1660   34.5500 N   0  0  0  0  0  0  0  0  0  0  0  0
   38.2420   22.9380   32.6690 N   0  0  0  0  0  0  0  0  0  0  0  0
   39.2590   22.6930   31.6360 C   0  0  0  0  0  0  0  0  0  0  0  0
   38.8830   23.2950   30.3200 C   0  0  0  0  0  0  0  0  0  0  0  0
   37.8730   24.3960   30.5580 C   0  0  0  0  0  0  0  0  0  0  0  0
   36.6100   23.6900   30.9900 C   0  0  0  0  0  0  0  0  0  0  0  0
   36.8370   23.0670   32.3270 C   0  0  1  0  0  0  0  0  0  0  0  0
   40.5980   21.5740   36.3020 H   0  0  0  0  0  0  0  0  0  0  0  0
   39.6520   23.3770   37.7160 H   0  0  0  0  0  0  0  0  0  0  0  0
   38.0200   24.9780   36.7020 H   0  0  0  0  0  0  0  0  0  0  0  0
   39.2510   21.5780   31.5150 H   0  0  0  0  0  0  0  0  0  0  0  0
   40.2500   22.9710   31.9910 H   0  0  0  0  0  0  0  0  0  0  0  0
   38.5640   22.5870   29.5480 H   0  0  0  0  0  0  0  0  0  0  0  0
   39.8120   23.7820   29.9050 H   0  0  0  0  0  0  0  0  0  0  0  0
   38.2710   25.0670   31.3330 H   0  0  0  0  0  0  0  0  0  0  0  0
   37.7210   24.9050   29.5710 H   0  0  0  0  0  0  0  0  0  0  0  0
   35.7210   24.3830   31.0150 H   0  0  0  0  0  0  0  0  0  0  0  0
   36.4340   22.8730   30.2350 H   0  0  0  0  0  0  0  0  0  0  0  0
   36.3910   23.7480   33.0820 H   0  0  0  0  0  0  0  0  0  0  0  0
   36.1180   21.7600   32.4710 C   0  0  0  0  0  0  0  0  0  0  0  0
   35.3850   21.0830   31.4970 C   0  0  0  0  0  0  0  0  0  0  0  0
   35.2220   21.4030   30.4830 H   0  0  0  0  0  0  0  0  0  0  0  0
   34.9270   19.9290   32.1290 C   0  0  0  0  0  0  0  0  0  0  0  0
   34.3140   19.1820   31.6220 H   0  0  0  0  0  0  0  0  0  0  0  0
   35.4120   19.9850   33.4350 C   0  0  0  0  0  0  0  0  0  0  0  0
   35.1550   19.1630   34.0880 H   0  0  0  0  0  0  0  0  0  0  0  0
   36.1120   21.0840   33.5970 O   0  0  0  0  0  0  0  0  0  0  0  0
  1 13  1  0  0  0  0
  1  2  1  0  0  0  0
  2 14  1  0  0  0  0
  3  2  2  0  0  0  0
  3 15  1  0  0  0  0
  4  3  1  0  0  0  0
  5  6  1  0  0  0  0
  5  4  2  0  0  0  0
  6  1  2  0  0  0  0
  7  5  1  0  0  0  0
  8 17  1  0  0  0  0
  8  7  1  0  0  0  0
  9 10  1  0  0  0  0
  9  8  1  0  0  0  0
 10 11  1  0  0  0  0
 10 20  1  0  0  0  0
 11 22  1  0  0  0  0
 11 12  1  0  0  0  0
 12 25  1  0  0  0  0
 12  7  1  0  0  0  0
 12 24  1  1  0  0  0
 16  8  1  0  0  0  0
 18  9  1  0  0  0  0
 19  9  1  0  0  0  0
 21 10  1  0  0  0  0
 23 11  1  0  0  0  0
 25 32  1  0  0  0  0
 26 28  1  0  0  0  0
 26 25  2  0  0  0  0
 27 26  1  0  0  0  0
 28 30  2  0  0  0  0
 29 28  1  0  0  0  0
 30 32  1  0  0  0  0
 30 31  1  0  0  0  0
M  END
>  <minimizedAffinity>
-4.41810942

$$$$
