
 OpenBabel03262523273D

 39 42  0  0  1  0  0  0  0  0999 V2000
   34.5460   29.6250   32.3350 C   0  0  0  0  0  0  0  0  0  0  0  0
   35.1110   30.2890   31.2510 C   0  0  0  0  0  0  0  0  0  0  0  0
   36.4130   29.9840   30.9170 C   0  0  0  0  0  0  0  0  0  0  0  0
   37.0640   29.0540   31.6690 N   0  0  0  0  0  0  0  0  0  0  0  0
   36.4900   28.4250   32.7180 C   0  0  0  0  0  0  0  0  0  0  0  0
   35.2380   28.7100   33.0480 N   0  0  0  0  0  0  0  0  0  0  0  0
   37.2560   27.4510   33.4610 N   0  0  0  0  0  0  0  0  0  0  0  0
   37.2210   27.4570   34.8980 C   0  0  0  0  0  0  0  0  0  0  0  0
   38.5030   26.9640   35.5240 C   0  0  0  0  0  0  0  0  0  0  0  0
   39.6030   27.0950   34.5070 C   0  0  0  0  0  0  0  0  0  0  0  0
   39.3170   26.0910   33.4210 C   0  0  0  0  0  0  0  0  0  0  0  0
   38.0570   26.4700   32.7250 C   0  0  1  0  0  0  0  0  0  0  0  0
   33.5240   29.8150   32.6560 H   0  0  0  0  0  0  0  0  0  0  0  0
   34.5410   31.0180   30.6950 H   0  0  0  0  0  0  0  0  0  0  0  0
   36.8530   30.4880   30.0880 H   0  0  0  0  0  0  0  0  0  0  0  0
   36.9270   28.4480   35.2950 H   0  0  0  0  0  0  0  0  0  0  0  0
   36.4330   26.7430   35.2150 H   0  0  0  0  0  0  0  0  0  0  0  0
   38.4270   25.9530   35.9560 H   0  0  0  0  0  0  0  0  0  0  0  0
   38.7500   27.6550   36.3700 H   0  0  0  0  0  0  0  0  0  0  0  0
   40.5840   26.8930   34.9570 H   0  0  0  0  0  0  0  0  0  0  0  0
   39.5490   28.1090   34.0740 H   0  0  0  0  0  0  0  0  0  0  0  0
   40.2010   26.1460   32.7200 H   0  0  0  0  0  0  0  0  0  0  0  0
   39.3640   25.1070   33.8740 H   0  0  0  0  0  0  0  0  0  0  0  0
   38.3300   27.0240   31.7790 H   0  0  0  0  0  0  0  0  0  0  0  0
   37.2540   25.3270   32.2880 C   0  0  0  0  0  0  0  0  0  0  0  0
   36.0620   25.3480   31.5650 C   0  0  0  0  0  0  0  0  0  0  0  0
   35.4500   24.1780   31.2490 C   0  0  0  0  0  0  0  0  0  0  0  0
   36.0930   22.9690   31.6920 C   0  0  0  0  0  0  0  0  0  0  0  0
   37.6080   23.6650   32.5760 S   0  0  0  0  0  0  0  0  0  0  0  0
   35.5640   26.2450   31.2210 H   0  0  0  0  0  0  0  0  0  0  0  0
   34.5470   23.9530   30.7120 H   0  0  0  0  0  0  0  0  0  0  0  0
   35.8360   21.5940   31.5990 C   0  0  0  0  0  0  0  0  0  0  0  0
   34.8750   21.0020   32.3500 C   0  0  0  0  0  0  0  0  0  0  0  0
   34.2020   21.4250   33.0770 H   0  0  0  0  0  0  0  0  0  0  0  0
   34.8620   19.6350   32.0330 C   0  0  0  0  0  0  0  0  0  0  0  0
   34.2550   18.8190   32.3990 H   0  0  0  0  0  0  0  0  0  0  0  0
   35.8710   19.5210   31.0680 C   0  0  0  0  0  0  0  0  0  0  0  0
   36.2140   18.6430   30.5370 H   0  0  0  0  0  0  0  0  0  0  0  0
   36.4290   20.7100   30.8340 O   0  0  0  0  0  0  0  0  0  0  0  0
  1 13  1  0  0  0  0
  1  6  1  0  0  0  0
  2  1  2  0  0  0  0
  3  2  1  0  0  0  0
  3  4  2  0  0  0  0
  4  5  1  0  0  0  0
  5  6  2  0  0  0  0
  5  7  1  0  0  0  0
  7  8  1  0  0  0  0
  8 17  1  0  0  0  0
  8 16  1  0  0  0  0
  8  9  1  0  0  0  0
  9 18  1  0  0  0  0
  9 19  1  0  0  0  0
 10 20  1  0  0  0  0
 10  9  1  0  0  0  0
 11 23  1  0  0  0  0
 11 10  1  0  0  0  0
 12 24  1  6  0  0  0
 12 11  1  0  0  0  0
 12  7  1  0  0  0  0
 14  2  1  0  0  0  0
 15  3  1  0  0  0  0
 21 10  1  0  0  0  0
 22 11  1  0  0  0  0
 25 29  1  0  0  0  0
 25 12  1  0  0  0  0
 26 25  2  0  0  0  0
 27 26  1  0  0  0  0
 27 28  2  0  0  0  0
 28 29  1  0  0  0  0
 30 26  1  0  0  0  0
 31 27  1  0  0  0  0
 32 28  1  0  0  0  0
 32 33  2  0  0  0  0
 33 34  1  0  0  0  0
 35 33  1  0  0  0  0
 35 36  1  0  0  0  0
 37 35  2  0  0  0  0
 38 37  1  0  0  0  0
 39 37  1  0  0  0  0
 39 32  1  0  0  0  0
M  END
>  <minimizedAffinity>
-6.05114126

$$$$

 OpenBabel03262523273D

 39 42  0  0  1  0  0  0  0  0999 V2000
   38.2450   23.0570   36.8500 C   0  0  0  0  0  0  0  0  0  0  0  0
   39.6240   23.0020   36.6760 C   0  0  0  0  0  0  0  0  0  0  0  0
   40.1030   22.4550   35.5050 C   0  0  0  0  0  0  0  0  0  0  0  0
   39.1970   22.0030   34.5930 N   0  0  0  0  0  0  0  0  0  0  0  0
   37.8620   22.0700   34.7900 C   0  0  0  0  0  0  0  0  0  0  0  0
   37.3900   22.5940   35.9130 N   0  0  0  0  0  0  0  0  0  0  0  0
   36.9730   21.5660   33.7690 N   0  0  0  0  0  0  0  0  0  0  0  0
   35.8460   20.7530   34.1370 C   0  0  0  0  0  0  0  0  0  0  0  0
   35.4670   19.7500   33.0750 C   0  0  0  0  0  0  0  0  0  0  0  0
   36.6580   19.5370   32.1830 C   0  0  0  0  0  0  0  0  0  0  0  0
   36.8670   20.8170   31.4180 C   0  0  0  0  0  0  0  0  0  0  0  0
   37.2440   21.8980   32.3680 C   0  0  1  0  0  0  0  0  0  0  0  0
   37.7960   23.4740   37.7490 H   0  0  0  0  0  0  0  0  0  0  0  0
   40.2900   23.3770   37.4380 H   0  0  0  0  0  0  0  0  0  0  0  0
   41.1570   22.4090   35.3630 H   0  0  0  0  0  0  0  0  0  0  0  0
   35.9960   20.2700   35.1220 H   0  0  0  0  0  0  0  0  0  0  0  0
   34.9710   21.4270   34.2460 H   0  0  0  0  0  0  0  0  0  0  0  0
   34.5500   20.0110   32.5230 H   0  0  0  0  0  0  0  0  0  0  0  0
   35.2630   18.7770   33.5920 H   0  0  0  0  0  0  0  0  0  0  0  0
   36.4880   18.7050   31.4870 H   0  0  0  0  0  0  0  0  0  0  0  0
   37.5390   19.3620   32.8260 H   0  0  0  0  0  0  0  0  0  0  0  0
   37.7060   20.6020   30.6930 H   0  0  0  0  0  0  0  0  0  0  0  0
   35.9850   20.9710   30.8060 H   0  0  0  0  0  0  0  0  0  0  0  0
   38.3680   22.0100   32.3460 H   0  0  0  0  0  0  0  0  0  0  0  0
   36.7150   23.2160   32.0080 C   0  0  0  0  0  0  0  0  0  0  0  0
   35.4990   23.5080   31.3920 C   0  0  0  0  0  0  0  0  0  0  0  0
   35.1750   24.8000   31.1310 C   0  0  0  0  0  0  0  0  0  0  0  0
   36.1330   25.8010   31.5210 C   0  0  0  0  0  0  0  0  0  0  0  0
   37.4930   24.7300   32.2710 S   0  0  0  0  0  0  0  0  0  0  0  0
   34.7660   22.7710   31.0930 H   0  0  0  0  0  0  0  0  0  0  0  0
   34.3150   25.2550   30.6750 H   0  0  0  0  0  0  0  0  0  0  0  0
   36.2200   27.1990   31.4530 C   0  0  0  0  0  0  0  0  0  0  0  0
   36.1620   27.9660   32.5690 C   0  0  0  0  0  0  0  0  0  0  0  0
   36.0510   27.6820   33.6030 H   0  0  0  0  0  0  0  0  0  0  0  0
   36.2740   29.3070   32.1760 C   0  0  0  0  0  0  0  0  0  0  0  0
   36.2760   30.2260   32.7470 H   0  0  0  0  0  0  0  0  0  0  0  0
   36.3970   29.2230   30.7830 C   0  0  0  0  0  0  0  0  0  0  0  0
   36.5080   30.0180   30.0570 H   0  0  0  0  0  0  0  0  0  0  0  0
   36.3600   27.9500   30.3880 O   0  0  0  0  0  0  0  0  0  0  0  0
  1 13  1  0  0  0  0
  2  1  1  0  0  0  0
  2 14  1  0  0  0  0
  3  2  2  0  0  0  0
  4  5  2  0  0  0  0
  4  3  1  0  0  0  0
  5  6  1  0  0  0  0
  6  1  2  0  0  0  0
  7  8  1  0  0  0  0
  7  5  1  0  0  0  0
  8 17  1  0  0  0  0
  8 16  1  0  0  0  0
  9 19  1  0  0  0  0
  9  8  1  0  0  0  0
 10 21  1  0  0  0  0
 10  9  1  0  0  0  0
 11 10  1  0  0  0  0
 11 12  1  0  0  0  0
 12 24  1  6  0  0  0
 12  7  1  0  0  0  0
 15  3  1  0  0  0  0
 18  9  1  0  0  0  0
 20 10  1  0  0  0  0
 22 11  1  0  0  0  0
 23 11  1  0  0  0  0
 25 29  1  0  0  0  0
 25 12  1  0  0  0  0
 26 25  2  0  0  0  0
 27 26  1  0  0  0  0
 27 28  2  0  0  0  0
 28 29  1  0  0  0  0
 30 26  1  0  0  0  0
 31 27  1  0  0  0  0
 32 28  1  0  0  0  0
 32 33  2  0  0  0  0
 33 34  1  0  0  0  0
 35 33  1  0  0  0  0
 35 36  1  0  0  0  0
 37 35  2  0  0  0  0
 38 37  1  0  0  0  0
 39 37  1  0  0  0  0
 39 32  1  0  0  0  0
M  END
>  <minimizedAffinity>
-6.01317453

$$$$

 OpenBabel03262523273D

 39 42  0  0  1  0  0  0  0  0999 V2000
   36.2380   29.0630   30.5370 C   0  0  0  0  0  0  0  0  0  0  0  0
   37.2840   29.2440   29.6380 C   0  0  0  0  0  0  0  0  0  0  0  0
   38.5050   28.6880   29.9500 C   0  0  0  0  0  0  0  0  0  0  0  0
   38.6120   27.9970   31.1190 N   0  0  0  0  0  0  0  0  0  0  0  0
   37.5790   27.8370   31.9750 C   0  0  0  0  0  0  0  0  0  0  0  0
   36.3990   28.3680   31.6840 N   0  0  0  0  0  0  0  0  0  0  0  0
   37.7820   27.0880   33.1930 N   0  0  0  0  0  0  0  0  0  0  0  0
   37.2610   27.5870   34.4360 C   0  0  0  0  0  0  0  0  0  0  0  0
   38.0900   27.1830   35.6310 C   0  0  0  0  0  0  0  0  0  0  0  0
   39.4670   26.8260   35.1480 C   0  0  0  0  0  0  0  0  0  0  0  0
   39.3350   25.5550   34.3500 C   0  0  0  0  0  0  0  0  0  0  0  0
   38.5230   25.8260   33.1330 C   0  0  1  0  0  0  0  0  0  0  0  0
   35.2480   29.4740   30.3570 H   0  0  0  0  0  0  0  0  0  0  0  0
   37.1340   29.8040   28.7270 H   0  0  0  0  0  0  0  0  0  0  0  0
   39.3110   28.8210   29.2670 H   0  0  0  0  0  0  0  0  0  0  0  0
   37.0990   28.6820   34.4020 H   0  0  0  0  0  0  0  0  0  0  0  0
   36.2620   27.1250   34.5880 H   0  0  0  0  0  0  0  0  0  0  0  0
   37.6260   26.3980   36.2490 H   0  0  0  0  0  0  0  0  0  0  0  0
   38.1930   28.0860   36.2870 H   0  0  0  0  0  0  0  0  0  0  0  0
   40.1550   26.6710   35.9900 H   0  0  0  0  0  0  0  0  0  0  0  0
   39.8140   27.6300   34.4760 H   0  0  0  0  0  0  0  0  0  0  0  0
   40.3900   25.2590   34.0760 H   0  0  0  0  0  0  0  0  0  0  0  0
   38.9830   24.7860   35.0280 H   0  0  0  0  0  0  0  0  0  0  0  0
   39.2290   25.9860   32.2660 H   0  0  0  0  0  0  0  0  0  0  0  0
   37.6640   24.7090   32.7320 C   0  0  0  0  0  0  0  0  0  0  0  0
   36.4900   24.7620   31.9810 C   0  0  0  0  0  0  0  0  0  0  0  0
   35.8190   23.6140   31.7070 C   0  0  0  0  0  0  0  0  0  0  0  0
   36.3830   22.3930   32.2220 C   0  0  0  0  0  0  0  0  0  0  0  0
   37.9170   23.0460   33.1070 S   0  0  0  0  0  0  0  0  0  0  0  0
   36.0520   25.6670   31.5840 H   0  0  0  0  0  0  0  0  0  0  0  0
   34.9170   23.4130   31.1610 H   0  0  0  0  0  0  0  0  0  0  0  0
   36.0500   21.0320   32.1890 C   0  0  0  0  0  0  0  0  0  0  0  0
   35.5700   20.3940   33.2840 C   0  0  0  0  0  0  0  0  0  0  0  0
   35.3740   20.7680   34.2760 H   0  0  0  0  0  0  0  0  0  0  0  0
   35.3360   19.0560   32.9360 C   0  0  0  0  0  0  0  0  0  0  0  0
   34.9570   18.2200   33.5080 H   0  0  0  0  0  0  0  0  0  0  0  0
   35.7160   19.0060   31.5890 C   0  0  0  0  0  0  0  0  0  0  0  0
   35.7040   18.1660   30.9050 H   0  0  0  0  0  0  0  0  0  0  0  0
   36.1360   20.2030   31.1770 O   0  0  0  0  0  0  0  0  0  0  0  0
  1  6  1  0  0  0  0
  2  3  1  0  0  0  0
  2  1  2  0  0  0  0
  3  4  2  0  0  0  0
  4  5  1  0  0  0  0
  5  7  1  0  0  0  0
  6  5  2  0  0  0  0
  7  8  1  0  0  0  0
  8 17  1  0  0  0  0
  8  9  1  0  0  0  0
  9 18  1  0  0  0  0
  9 19  1  0  0  0  0
 10  9  1  0  0  0  0
 10 20  1  0  0  0  0
 11 23  1  0  0  0  0
 11 10  1  0  0  0  0
 12 24  1  6  0  0  0
 12  7  1  0  0  0  0
 12 11  1  0  0  0  0
 13  1  1  0  0  0  0
 14  2  1  0  0  0  0
 15  3  1  0  0  0  0
 16  8  1  0  0  0  0
 21 10  1  0  0  0  0
 22 11  1  0  0  0  0
 25 29  1  0  0  0  0
 25 12  1  0  0  0  0
 26 25  2  0  0  0  0
 27 26  1  0  0  0  0
 27 28  2  0  0  0  0
 28 29  1  0  0  0  0
 30 26  1  0  0  0  0
 31 27  1  0  0  0  0
 32 28  1  0  0  0  0
 32 33  2  0  0  0  0
 33 34  1  0  0  0  0
 35 33  1  0  0  0  0
 35 36  1  0  0  0  0
 37 35  2  0  0  0  0
 38 37  1  0  0  0  0
 39 37  1  0  0  0  0
 39 32  1  0  0  0  0
M  END
>  <minimizedAffinity>
-5.79520178

$$$$

 OpenBabel03262523273D

 39 42  0  0  1  0  0  0  0  0999 V2000
   36.8710   20.9080   32.7460 C   0  0  0  0  0  0  0  0  0  0  0  0
   35.7410   20.4660   33.4270 C   0  0  0  0  0  0  0  0  0  0  0  0
   35.6610   20.7260   34.7780 C   0  0  0  0  0  0  0  0  0  0  0  0
   36.6930   21.3970   35.3620 N   0  0  0  0  0  0  0  0  0  0  0  0
   37.7790   21.8140   34.6750 C   0  0  0  0  0  0  0  0  0  0  0  0
   37.8660   21.5700   33.3750 N   0  0  0  0  0  0  0  0  0  0  0  0
   38.8280   22.5190   35.3750 N   0  0  0  0  0  0  0  0  0  0  0  0
   40.2040   22.1830   35.1310 C   0  0  0  0  0  0  0  0  0  0  0  0
   41.0900   22.4050   36.3330 C   0  0  0  0  0  0  0  0  0  0  0  0
   40.2230   22.4180   37.5600 C   0  0  0  0  0  0  0  0  0  0  0  0
   39.3830   23.6670   37.4900 C   0  0  0  0  0  0  0  0  0  0  0  0
   38.4600   23.5700   36.3270 C   0  0  1  0  0  0  0  0  0  0  0  0
   37.0020   20.7380   31.6800 H   0  0  0  0  0  0  0  0  0  0  0  0
   34.9560   19.9390   32.9060 H   0  0  0  0  0  0  0  0  0  0  0  0
   34.7990   20.3920   35.3070 H   0  0  0  0  0  0  0  0  0  0  0  0
   40.3090   21.1570   34.7300 H   0  0  0  0  0  0  0  0  0  0  0  0
   40.5800   22.8700   34.3440 H   0  0  0  0  0  0  0  0  0  0  0  0
   41.7400   23.2910   36.2480 H   0  0  0  0  0  0  0  0  0  0  0  0
   41.7690   21.5180   36.4160 H   0  0  0  0  0  0  0  0  0  0  0  0
   40.8310   22.4240   38.4750 H   0  0  0  0  0  0  0  0  0  0  0  0
   39.5550   21.5400   37.5160 H   0  0  0  0  0  0  0  0  0  0  0  0
   38.8100   23.7000   38.4630 H   0  0  0  0  0  0  0  0  0  0  0  0
   40.0620   24.5120   37.5230 H   0  0  0  0  0  0  0  0  0  0  0  0
   37.4510   23.2290   36.7050 H   0  0  0  0  0  0  0  0  0  0  0  0
   38.2120   24.8490   35.6580 C   0  0  0  0  0  0  0  0  0  0  0  0
   38.2250   26.1240   36.2220 C   0  0  0  0  0  0  0  0  0  0  0  0
   37.9680   27.2040   35.4410 C   0  0  0  0  0  0  0  0  0  0  0  0
   37.6930   26.9490   34.0510 C   0  0  0  0  0  0  0  0  0  0  0  0
   37.8400   25.0690   33.9900 S   0  0  0  0  0  0  0  0  0  0  0  0
   38.4310   26.3360   37.2630 H   0  0  0  0  0  0  0  0  0  0  0  0
   37.9240   28.2560   35.6500 H   0  0  0  0  0  0  0  0  0  0  0  0
   37.3880   27.7220   32.9220 C   0  0  0  0  0  0  0  0  0  0  0  0
   36.2730   28.4900   32.8720 C   0  0  0  0  0  0  0  0  0  0  0  0
   35.4970   28.6380   33.6050 H   0  0  0  0  0  0  0  0  0  0  0  0
   36.2480   29.1340   31.6260 C   0  0  0  0  0  0  0  0  0  0  0  0
   35.5420   29.8260   31.1880 H   0  0  0  0  0  0  0  0  0  0  0  0
   37.4150   28.6700   31.0040 C   0  0  0  0  0  0  0  0  0  0  0  0
   37.8060   28.9040   30.0230 H   0  0  0  0  0  0  0  0  0  0  0  0
   38.0690   27.8300   31.8070 O   0  0  0  0  0  0  0  0  0  0  0  0
  1  6  2  0  0  0  0
  1  2  1  0  0  0  0
  2  3  2  0  0  0  0
  3 15  1  0  0  0  0
  3  4  1  0  0  0  0
  5  4  2  0  0  0  0
  5  7  1  0  0  0  0
  6  5  1  0  0  0  0
  7 12  1  0  0  0  0
  8  7  1  0  0  0  0
  8  9  1  0  0  0  0
  9 19  1  0  0  0  0
  9 10  1  0  0  0  0
 10 20  1  0  0  0  0
 11 23  1  0  0  0  0
 11 10  1  0  0  0  0
 11 22  1  0  0  0  0
 12 24  1  1  0  0  0
 12 11  1  0  0  0  0
 13  1  1  0  0  0  0
 14  2  1  0  0  0  0
 16  8  1  0  0  0  0
 17  8  1  0  0  0  0
 18  9  1  0  0  0  0
 21 10  1  0  0  0  0
 25 26  2  0  0  0  0
 25 12  1  0  0  0  0
 26 30  1  0  0  0  0
 27 31  1  0  0  0  0
 27 26  1  0  0  0  0
 28 27  2  0  0  0  0
 29 28  1  0  0  0  0
 29 25  1  0  0  0  0
 32 28  1  0  0  0  0
 33 32  2  0  0  0  0
 33 34  1  0  0  0  0
 35 33  1  0  0  0  0
 36 35  1  0  0  0  0
 37 35  2  0  0  0  0
 37 39  1  0  0  0  0
 38 37  1  0  0  0  0
 39 32  1  0  0  0  0
M  END
>  <minimizedAffinity>
-5.78660011

$$$$

 OpenBabel03262523273D

 39 42  0  0  1  0  0  0  0  0999 V2000
   35.6170   29.0190   34.2470 C   0  0  0  0  0  0  0  0  0  0  0  0
   35.0680   29.9290   33.3490 C   0  0  0  0  0  0  0  0  0  0  0  0
   35.5500   29.9290   32.0580 C   0  0  0  0  0  0  0  0  0  0  0  0
   36.5330   29.0410   31.7430 N   0  0  0  0  0  0  0  0  0  0  0  0
   37.0480   28.1680   32.6370 C   0  0  0  0  0  0  0  0  0  0  0  0
   36.5910   28.1590   33.8820 N   0  0  0  0  0  0  0  0  0  0  0  0
   38.0890   27.2590   32.2160 N   0  0  0  0  0  0  0  0  0  0  0  0
   39.2390   27.0500   33.0530 C   0  0  0  0  0  0  0  0  0  0  0  0
   40.4880   26.7230   32.2720 C   0  0  0  0  0  0  0  0  0  0  0  0
   40.3010   27.2070   30.8610 C   0  0  0  0  0  0  0  0  0  0  0  0
   39.2430   26.3370   30.2360 C   0  0  0  0  0  0  0  0  0  0  0  0
   37.9480   26.5670   30.9330 C   0  0  1  0  0  0  0  0  0  0  0  0
   35.2860   28.9630   35.2820 H   0  0  0  0  0  0  0  0  0  0  0  0
   34.2900   30.6090   33.6620 H   0  0  0  0  0  0  0  0  0  0  0  0
   35.1350   30.6220   31.3640 H   0  0  0  0  0  0  0  0  0  0  0  0
   39.3990   27.8980   33.7460 H   0  0  0  0  0  0  0  0  0  0  0  0
   39.0330   26.1600   33.6840 H   0  0  0  0  0  0  0  0  0  0  0  0
   40.7880   25.6650   32.3340 H   0  0  0  0  0  0  0  0  0  0  0  0
   41.3260   27.3190   32.7180 H   0  0  0  0  0  0  0  0  0  0  0  0
   41.2360   27.1330   30.2900 H   0  0  0  0  0  0  0  0  0  0  0  0
   39.9260   28.2450   30.9030 H   0  0  0  0  0  0  0  0  0  0  0  0
   39.1860   26.6600   29.1560 H   0  0  0  0  0  0  0  0  0  0  0  0
   39.6300   25.3240   30.2190 H   0  0  0  0  0  0  0  0  0  0  0  0
   37.3410   27.2940   30.3170 H   0  0  0  0  0  0  0  0  0  0  0  0
   37.1160   25.3670   31.0500 C   0  0  0  0  0  0  0  0  0  0  0  0
   35.7260   25.2980   31.1350 C   0  0  0  0  0  0  0  0  0  0  0  0
   35.1210   24.0870   31.2410 C   0  0  0  0  0  0  0  0  0  0  0  0
   35.9810   22.9320   31.2580 C   0  0  0  0  0  0  0  0  0  0  0  0
   37.6800   23.7400   31.1100 S   0  0  0  0  0  0  0  0  0  0  0  0
   35.0630   26.1530   31.1220 H   0  0  0  0  0  0  0  0  0  0  0  0
   34.0910   23.7940   31.3180 H   0  0  0  0  0  0  0  0  0  0  0  0
   35.8080   21.5440   31.3490 C   0  0  0  0  0  0  0  0  0  0  0  0
   34.9260   20.9970   32.2210 C   0  0  0  0  0  0  0  0  0  0  0  0
   34.2650   21.4690   32.9290 H   0  0  0  0  0  0  0  0  0  0  0  0
   34.9840   19.6030   32.0760 C   0  0  0  0  0  0  0  0  0  0  0  0
   34.4500   18.8060   32.5730 H   0  0  0  0  0  0  0  0  0  0  0  0
   35.9480   19.4270   31.0750 C   0  0  0  0  0  0  0  0  0  0  0  0
   36.3200   18.5090   30.6370 H   0  0  0  0  0  0  0  0  0  0  0  0
   36.4170   20.6060   30.6650 O   0  0  0  0  0  0  0  0  0  0  0  0
  1 13  1  0  0  0  0
  2 14  1  0  0  0  0
  2  1  2  0  0  0  0
  3  2  1  0  0  0  0
  4  3  2  0  0  0  0
  4  5  1  0  0  0  0
  5  6  2  0  0  0  0
  6  1  1  0  0  0  0
  7  5  1  0  0  0  0
  7  8  1  0  0  0  0
  8 17  1  0  0  0  0
  8 16  1  0  0  0  0
  9 18  1  0  0  0  0
  9 19  1  0  0  0  0
  9  8  1  0  0  0  0
 10 21  1  0  0  0  0
 10  9  1  0  0  0  0
 11 10  1  0  0  0  0
 11 12  1  0  0  0  0
 12 24  1  6  0  0  0
 12 25  1  0  0  0  0
 12  7  1  0  0  0  0
 15  3  1  0  0  0  0
 20 10  1  0  0  0  0
 22 11  1  0  0  0  0
 23 11  1  0  0  0  0
 25 29  1  0  0  0  0
 25 26  2  0  0  0  0
 26 27  1  0  0  0  0
 27 28  2  0  0  0  0
 27 31  1  0  0  0  0
 28 32  1  0  0  0  0
 29 28  1  0  0  0  0
 30 26  1  0  0  0  0
 32 33  2  0  0  0  0
 33 34  1  0  0  0  0
 35 33  1  0  0  0  0
 35 36  1  0  0  0  0
 37 35  2  0  0  0  0
 38 37  1  0  0  0  0
 39 37  1  0  0  0  0
 39 32  1  0  0  0  0
M  END
>  <minimizedAffinity>
-5.5716095

$$$$

 OpenBabel03262523273D

 39 42  0  0  1  0  0  0  0  0999 V2000
   42.3720   22.1370   35.7910 C   0  0  0  0  0  0  0  0  0  0  0  0
   41.9760   21.5540   36.9910 C   0  0  0  0  0  0  0  0  0  0  0  0
   40.8370   22.0380   37.5960 C   0  0  0  0  0  0  0  0  0  0  0  0
   40.1720   23.0570   36.9840 N   0  0  0  0  0  0  0  0  0  0  0  0
   40.5810   23.6050   35.8190 C   0  0  0  0  0  0  0  0  0  0  0  0
   41.6750   23.1460   35.2270 N   0  0  0  0  0  0  0  0  0  0  0  0
   39.8140   24.6840   35.2400 N   0  0  0  0  0  0  0  0  0  0  0  0
   40.4870   25.8400   34.7130 C   0  0  0  0  0  0  0  0  0  0  0  0
   39.6700   27.1030   34.8220 C   0  0  0  0  0  0  0  0  0  0  0  0
   38.6310   26.9000   35.8900 C   0  0  0  0  0  0  0  0  0  0  0  0
   37.6560   25.8790   35.3630 C   0  0  0  0  0  0  0  0  0  0  0  0
   38.3540   24.5750   35.2040 C   0  0  1  0  0  0  0  0  0  0  0  0
   43.2600   21.8070   35.2570 H   0  0  0  0  0  0  0  0  0  0  0  0
   42.5480   20.7480   37.4250 H   0  0  0  0  0  0  0  0  0  0  0  0
   40.5260   21.5970   38.5140 H   0  0  0  0  0  0  0  0  0  0  0  0
   41.4940   25.9640   35.1560 H   0  0  0  0  0  0  0  0  0  0  0  0
   40.6400   25.6690   33.6260 H   0  0  0  0  0  0  0  0  0  0  0  0
   39.2490   27.4460   33.8630 H   0  0  0  0  0  0  0  0  0  0  0  0
   40.3550   27.9150   35.1780 H   0  0  0  0  0  0  0  0  0  0  0  0
   38.1080   27.8380   36.1170 H   0  0  0  0  0  0  0  0  0  0  0  0
   39.1330   26.4820   36.7800 H   0  0  0  0  0  0  0  0  0  0  0  0
   36.8400   25.8120   36.1410 H   0  0  0  0  0  0  0  0  0  0  0  0
   37.1870   26.3080   34.4840 H   0  0  0  0  0  0  0  0  0  0  0  0
   38.1240   23.9390   36.1100 H   0  0  0  0  0  0  0  0  0  0  0  0
   37.8940   23.7920   34.0550 C   0  0  0  0  0  0  0  0  0  0  0  0
   37.5050   24.2640   32.8020 C   0  0  0  0  0  0  0  0  0  0  0  0
   37.1020   23.3830   31.8510 C   0  0  0  0  0  0  0  0  0  0  0  0
   37.1070   21.9900   32.2130 C   0  0  0  0  0  0  0  0  0  0  0  0
   37.7270   22.0780   33.9930 S   0  0  0  0  0  0  0  0  0  0  0  0
   37.4960   25.3060   32.5100 H   0  0  0  0  0  0  0  0  0  0  0  0
   36.7660   23.5110   30.8390 H   0  0  0  0  0  0  0  0  0  0  0  0
   36.7860   20.7790   31.5820 C   0  0  0  0  0  0  0  0  0  0  0  0
   36.2660   19.7370   32.2740 C   0  0  0  0  0  0  0  0  0  0  0  0
   36.0260   19.6480   33.3210 H   0  0  0  0  0  0  0  0  0  0  0  0
   36.0560   18.6830   31.3740 C   0  0  0  0  0  0  0  0  0  0  0  0
   35.6610   17.6860   31.5130 H   0  0  0  0  0  0  0  0  0  0  0  0
   36.4920   19.2140   30.1530 C   0  0  0  0  0  0  0  0  0  0  0  0
   36.5150   18.7520   29.1750 H   0  0  0  0  0  0  0  0  0  0  0  0
   36.9200   20.4670   30.3160 O   0  0  0  0  0  0  0  0  0  0  0  0
  1  2  1  0  0  0  0
  2 14  1  0  0  0  0
  2  3  2  0  0  0  0
  3 15  1  0  0  0  0
  4  3  1  0  0  0  0
  5  4  2  0  0  0  0
  6  1  2  0  0  0  0
  6  5  1  0  0  0  0
  7  5  1  0  0  0  0
  8  9  1  0  0  0  0
  8 16  1  0  0  0  0
  8  7  1  0  0  0  0
  9 19  1  0  0  0  0
  9 10  1  0  0  0  0
 10 20  1  0  0  0  0
 10 21  1  0  0  0  0
 11 10  1  0  0  0  0
 11 22  1  0  0  0  0
 12  7  1  0  0  0  0
 12 11  1  0  0  0  0
 12 24  1  1  0  0  0
 13  1  1  0  0  0  0
 17  8  1  0  0  0  0
 18  9  1  0  0  0  0
 23 11  1  0  0  0  0
 25 12  1  0  0  0  0
 26 25  2  0  0  0  0
 27 28  2  0  0  0  0
 27 26  1  0  0  0  0
 28 29  1  0  0  0  0
 29 25  1  0  0  0  0
 30 26  1  0  0  0  0
 31 27  1  0  0  0  0
 32 28  1  0  0  0  0
 32 33  2  0  0  0  0
 33 34  1  0  0  0  0
 35 36  1  0  0  0  0
 35 33  1  0  0  0  0
 37 39  1  0  0  0  0
 37 35  2  0  0  0  0
 38 37  1  0  0  0  0
 39 32  1  0  0  0  0
M  END
>  <minimizedAffinity>
-5.50748014

$$$$

 OpenBabel03262523273D

 39 42  0  0  1  0  0  0  0  0999 V2000
   41.3380   26.0780   32.6860 C   0  0  0  0  0  0  0  0  0  0  0  0
   41.3720   26.2070   34.0710 C   0  0  0  0  0  0  0  0  0  0  0  0
   40.2970   26.8080   34.6880 C   0  0  0  0  0  0  0  0  0  0  0  0
   39.2700   27.2400   33.9040 N   0  0  0  0  0  0  0  0  0  0  0  0
   39.2640   27.1020   32.5590 C   0  0  0  0  0  0  0  0  0  0  0  0
   40.2930   26.5230   31.9560 N   0  0  0  0  0  0  0  0  0  0  0  0
   38.1320   27.5890   31.8050 N   0  0  0  0  0  0  0  0  0  0  0  0
   38.3450   28.3340   30.5950 C   0  0  0  0  0  0  0  0  0  0  0  0
   37.2590   29.3470   30.3240 C   0  0  0  0  0  0  0  0  0  0  0  0
   36.5590   29.6430   31.6200 C   0  0  0  0  0  0  0  0  0  0  0  0
   35.8070   28.3970   32.0080 C   0  0  0  0  0  0  0  0  0  0  0  0
   36.7810   27.3100   32.2980 C   0  0  1  0  0  0  0  0  0  0  0  0
   42.1510   25.6140   32.1320 H   0  0  0  0  0  0  0  0  0  0  0  0
   42.2170   25.8440   34.6360 H   0  0  0  0  0  0  0  0  0  0  0  0
   40.3140   26.9110   35.7480 H   0  0  0  0  0  0  0  0  0  0  0  0
   39.3510   28.7970   30.5710 H   0  0  0  0  0  0  0  0  0  0  0  0
   38.3080   27.6150   29.7500 H   0  0  0  0  0  0  0  0  0  0  0  0
   36.5720   29.0550   29.5130 H   0  0  0  0  0  0  0  0  0  0  0  0
   37.7590   30.2930   29.9940 H   0  0  0  0  0  0  0  0  0  0  0  0
   35.8620   30.4840   31.5110 H   0  0  0  0  0  0  0  0  0  0  0  0
   37.3280   29.8440   32.3860 H   0  0  0  0  0  0  0  0  0  0  0  0
   35.2200   28.6730   32.9320 H   0  0  0  0  0  0  0  0  0  0  0  0
   35.0680   28.2160   31.2350 H   0  0  0  0  0  0  0  0  0  0  0  0
   36.9240   27.2540   33.4170 H   0  0  0  0  0  0  0  0  0  0  0  0
   36.3200   25.9780   31.8990 C   0  0  0  0  0  0  0  0  0  0  0  0
   35.2660   25.6610   31.0440 C   0  0  0  0  0  0  0  0  0  0  0  0
   34.9790   24.3580   30.7890 C   0  0  0  0  0  0  0  0  0  0  0  0
   35.8070   23.3730   31.4350 C   0  0  0  0  0  0  0  0  0  0  0  0
   36.9920   24.4750   32.4070 S   0  0  0  0  0  0  0  0  0  0  0  0
   34.6340   26.3850   30.5480 H   0  0  0  0  0  0  0  0  0  0  0  0
   34.2330   23.8850   30.1790 H   0  0  0  0  0  0  0  0  0  0  0  0
   35.8780   21.9740   31.4650 C   0  0  0  0  0  0  0  0  0  0  0  0
   35.0200   21.2380   32.2130 C   0  0  0  0  0  0  0  0  0  0  0  0
   34.2130   21.5510   32.8540 H   0  0  0  0  0  0  0  0  0  0  0  0
   35.3430   19.8850   32.0340 C   0  0  0  0  0  0  0  0  0  0  0  0
   34.9110   18.9820   32.4440 H   0  0  0  0  0  0  0  0  0  0  0  0
   36.4250   19.9300   31.1450 C   0  0  0  0  0  0  0  0  0  0  0  0
   37.0000   19.1150   30.7260 H   0  0  0  0  0  0  0  0  0  0  0  0
   36.7160   21.1920   30.8270 O   0  0  0  0  0  0  0  0  0  0  0  0
  1  2  1  0  0  0  0
  2 14  1  0  0  0  0
  2  3  2  0  0  0  0
  3 15  1  0  0  0  0
  4  3  1  0  0  0  0
  5  4  2  0  0  0  0
  6  5  1  0  0  0  0
  6  1  2  0  0  0  0
  7 12  1  0  0  0  0
  7  5  1  0  0  0  0
  8  7  1  0  0  0  0
  9  8  1  0  0  0  0
  9 10  1  0  0  0  0
 10 11  1  0  0  0  0
 10 21  1  0  0  0  0
 11 12  1  0  0  0  0
 11 22  1  0  0  0  0
 12 24  1  1  0  0  0
 13  1  1  0  0  0  0
 16  8  1  0  0  0  0
 17  8  1  0  0  0  0
 18  9  1  0  0  0  0
 19  9  1  0  0  0  0
 20 10  1  0  0  0  0
 23 11  1  0  0  0  0
 25 12  1  0  0  0  0
 25 29  1  0  0  0  0
 26 25  2  0  0  0  0
 27 26  1  0  0  0  0
 27 28  2  0  0  0  0
 28 32  1  0  0  0  0
 28 29  1  0  0  0  0
 30 26  1  0  0  0  0
 31 27  1  0  0  0  0
 32 33  2  0  0  0  0
 33 34  1  0  0  0  0
 35 33  1  0  0  0  0
 35 36  1  0  0  0  0
 37 35  2  0  0  0  0
 38 37  1  0  0  0  0
 39 37  1  0  0  0  0
 39 32  1  0  0  0  0
M  END
>  <minimizedAffinity>
-5.36670637

$$$$

 OpenBabel03262523273D

 39 42  0  0  1  0  0  0  0  0999 V2000
   32.1570   29.8090   35.3620 C   0  0  0  0  0  0  0  0  0  0  0  0
   31.1640   29.1150   34.6770 C   0  0  0  0  0  0  0  0  0  0  0  0
   31.4440   28.6860   33.3990 C   0  0  0  0  0  0  0  0  0  0  0  0
   32.6740   28.9690   32.8850 N   0  0  0  0  0  0  0  0  0  0  0  0
   33.6190   29.6460   33.5730 C   0  0  0  0  0  0  0  0  0  0  0  0
   33.3600   30.0620   34.8050 N   0  0  0  0  0  0  0  0  0  0  0  0
   34.8970   29.9020   32.9500 N   0  0  0  0  0  0  0  0  0  0  0  0
   35.4980   31.2030   33.0570 C   0  0  0  0  0  0  0  0  0  0  0  0
   36.3540   31.5610   31.8660 C   0  0  0  0  0  0  0  0  0  0  0  0
   35.9290   30.7010   30.7080 C   0  0  0  0  0  0  0  0  0  0  0  0
   36.3360   29.2890   31.0390 C   0  0  0  0  0  0  0  0  0  0  0  0
   35.5560   28.8190   32.2160 C   0  0  1  0  0  0  0  0  0  0  0  0
   32.0060   30.1780   36.3740 H   0  0  0  0  0  0  0  0  0  0  0  0
   30.2080   28.9230   35.1420 H   0  0  0  0  0  0  0  0  0  0  0  0
   30.6900   28.1540   32.8670 H   0  0  0  0  0  0  0  0  0  0  0  0
   34.7440   31.9860   33.2690 H   0  0  0  0  0  0  0  0  0  0  0  0
   36.1840   31.1820   33.9300 H   0  0  0  0  0  0  0  0  0  0  0  0
   37.4360   31.5190   32.0670 H   0  0  0  0  0  0  0  0  0  0  0  0
   36.1200   32.6220   31.5930 H   0  0  0  0  0  0  0  0  0  0  0  0
   36.4130   31.0240   29.7770 H   0  0  0  0  0  0  0  0  0  0  0  0
   34.8280   30.7440   30.6360 H   0  0  0  0  0  0  0  0  0  0  0  0
   36.0900   28.6810   30.1190 H   0  0  0  0  0  0  0  0  0  0  0  0
   37.4180   29.2770   31.1160 H   0  0  0  0  0  0  0  0  0  0  0  0
   34.6880   28.2020   31.8400 H   0  0  0  0  0  0  0  0  0  0  0  0
   36.3050   27.9330   33.1090 C   0  0  0  0  0  0  0  0  0  0  0  0
   36.6830   28.1720   34.4290 C   0  0  0  0  0  0  0  0  0  0  0  0
   37.3830   27.2270   35.1070 C   0  0  0  0  0  0  0  0  0  0  0  0
   37.6910   26.0140   34.3960 C   0  0  0  0  0  0  0  0  0  0  0  0
   36.9000   26.3630   32.7190 S   0  0  0  0  0  0  0  0  0  0  0  0
   36.4600   29.0760   34.9810 H   0  0  0  0  0  0  0  0  0  0  0  0
   37.7730   27.1900   36.1070 H   0  0  0  0  0  0  0  0  0  0  0  0
   38.3630   24.8170   34.6820 C   0  0  0  0  0  0  0  0  0  0  0  0
   38.3410   24.2720   35.9220 C   0  0  0  0  0  0  0  0  0  0  0  0
   37.8590   24.6140   36.8230 H   0  0  0  0  0  0  0  0  0  0  0  0
   39.0980   23.0920   35.8890 C   0  0  0  0  0  0  0  0  0  0  0  0
   39.3310   22.3650   36.6550 H   0  0  0  0  0  0  0  0  0  0  0  0
   39.5320   23.0280   34.5580 C   0  0  0  0  0  0  0  0  0  0  0  0
   40.1470   22.2820   34.0740 H   0  0  0  0  0  0  0  0  0  0  0  0
   39.0740   24.0740   33.8680 O   0  0  0  0  0  0  0  0  0  0  0  0
  1 13  1  0  0  0  0
  2 14  1  0  0  0  0
  2  1  2  0  0  0  0
  3  2  1  0  0  0  0
  4  3  2  0  0  0  0
  4  5  1  0  0  0  0
  5  6  2  0  0  0  0
  6  1  1  0  0  0  0
  7  8  1  0  0  0  0
  7  5  1  0  0  0  0
  8 16  1  0  0  0  0
  8 17  1  0  0  0  0
  9 18  1  0  0  0  0
  9  8  1  0  0  0  0
 10 11  1  0  0  0  0
 10  9  1  0  0  0  0
 11 23  1  0  0  0  0
 11 12  1  0  0  0  0
 12 24  1  6  0  0  0
 12  7  1  0  0  0  0
 12 25  1  0  0  0  0
 15  3  1  0  0  0  0
 19  9  1  0  0  0  0
 20 10  1  0  0  0  0
 21 10  1  0  0  0  0
 22 11  1  0  0  0  0
 25 26  2  0  0  0  0
 26 30  1  0  0  0  0
 26 27  1  0  0  0  0
 27 31  1  0  0  0  0
 28 32  1  0  0  0  0
 28 27  2  0  0  0  0
 29 25  1  0  0  0  0
 29 28  1  0  0  0  0
 32 33  2  0  0  0  0
 33 34  1  0  0  0  0
 35 33  1  0  0  0  0
 35 36  1  0  0  0  0
 37 35  2  0  0  0  0
 38 37  1  0  0  0  0
 39 37  1  0  0  0  0
 39 32  1  0  0  0  0
M  END
>  <minimizedAffinity>
-5.30619907

$$$$

 OpenBabel03262523273D

 39 42  0  0  1  0  0  0  0  0999 V2000
   37.7310   23.3380   37.9750 C   0  0  0  0  0  0  0  0  0  0  0  0
   38.9850   23.2140   38.5640 C   0  0  0  0  0  0  0  0  0  0  0  0
   40.0460   22.8720   37.7540 C   0  0  0  0  0  0  0  0  0  0  0  0
   39.8000   22.6750   36.4290 N   0  0  0  0  0  0  0  0  0  0  0  0
   38.5700   22.8020   35.8830 C   0  0  0  0  0  0  0  0  0  0  0  0
   37.5430   23.1320   36.6530 N   0  0  0  0  0  0  0  0  0  0  0  0
   38.4010   22.5740   34.4670 N   0  0  0  0  0  0  0  0  0  0  0  0
   37.2910   21.7920   33.9940 C   0  0  0  0  0  0  0  0  0  0  0  0
   37.5930   21.0460   32.7180 C   0  0  0  0  0  0  0  0  0  0  0  0
   39.0850   20.9210   32.5880 C   0  0  0  0  0  0  0  0  0  0  0  0
   39.6200   22.3070   32.3360 C   0  0  0  0  0  0  0  0  0  0  0  0
   39.3740   23.1510   33.5360 C   0  0  1  0  0  0  0  0  0  0  0  0
   36.8490   23.6050   38.5520 H   0  0  0  0  0  0  0  0  0  0  0  0
   39.1140   23.3840   39.6230 H   0  0  0  0  0  0  0  0  0  0  0  0
   41.0090   22.7750   38.1970 H   0  0  0  0  0  0  0  0  0  0  0  0
   36.9030   21.1170   34.7810 H   0  0  0  0  0  0  0  0  0  0  0  0
   36.4690   22.4960   33.7490 H   0  0  0  0  0  0  0  0  0  0  0  0
   37.1120   21.4780   31.8260 H   0  0  0  0  0  0  0  0  0  0  0  0
   37.1830   20.0090   32.8320 H   0  0  0  0  0  0  0  0  0  0  0  0
   39.3570   20.2560   31.7580 H   0  0  0  0  0  0  0  0  0  0  0  0
   39.4830   20.5590   33.5520 H   0  0  0  0  0  0  0  0  0  0  0  0
   40.7270   22.1740   32.1520 H   0  0  0  0  0  0  0  0  0  0  0  0
   39.2050   22.6430   31.3920 H   0  0  0  0  0  0  0  0  0  0  0  0
   40.3240   23.1810   34.1470 H   0  0  0  0  0  0  0  0  0  0  0  0
   39.0680   24.5490   33.2250 C   0  0  0  0  0  0  0  0  0  0  0  0
   39.4650   25.6860   33.9290 C   0  0  0  0  0  0  0  0  0  0  0  0
   39.0810   26.9120   33.4900 C   0  0  0  0  0  0  0  0  0  0  0  0
   38.2740   26.9520   32.2990 C   0  0  0  0  0  0  0  0  0  0  0  0
   38.1310   25.1140   31.8950 S   0  0  0  0  0  0  0  0  0  0  0  0
   40.0730   25.6770   34.8240 H   0  0  0  0  0  0  0  0  0  0  0  0
   39.2620   27.9040   33.8590 H   0  0  0  0  0  0  0  0  0  0  0  0
   37.6740   27.9480   31.5160 C   0  0  0  0  0  0  0  0  0  0  0  0
   37.8780   28.0150   30.1780 C   0  0  0  0  0  0  0  0  0  0  0  0
   38.4710   27.3870   29.5330 H   0  0  0  0  0  0  0  0  0  0  0  0
   37.1520   29.1090   29.6850 C   0  0  0  0  0  0  0  0  0  0  0  0
   37.0420   29.5070   28.6850 H   0  0  0  0  0  0  0  0  0  0  0  0
   36.5420   29.6310   30.8330 C   0  0  0  0  0  0  0  0  0  0  0  0
   35.8840   30.4840   30.9300 H   0  0  0  0  0  0  0  0  0  0  0  0
   36.8760   28.9130   31.9060 O   0  0  0  0  0  0  0  0  0  0  0  0
  1 13  1  0  0  0  0
  1  2  1  0  0  0  0
  2 14  1  0  0  0  0
  3 15  1  0  0  0  0
  3  2  2  0  0  0  0
  4  3  1  0  0  0  0
  5  4  2  0  0  0  0
  5  6  1  0  0  0  0
  6  1  2  0  0  0  0
  7  5  1  0  0  0  0
  8  7  1  0  0  0  0
  8 16  1  0  0  0  0
  9 19  1  0  0  0  0
  9  8  1  0  0  0  0
 10  9  1  0  0  0  0
 10 21  1  0  0  0  0
 11 10  1  0  0  0  0
 11 12  1  0  0  0  0
 12 24  1  1  0  0  0
 12  7  1  0  0  0  0
 17  8  1  0  0  0  0
 18  9  1  0  0  0  0
 20 10  1  0  0  0  0
 22 11  1  0  0  0  0
 23 11  1  0  0  0  0
 25 12  1  0  0  0  0
 25 26  2  0  0  0  0
 26 30  1  0  0  0  0
 27 31  1  0  0  0  0
 27 26  1  0  0  0  0
 28 27  2  0  0  0  0
 29 28  1  0  0  0  0
 29 25  1  0  0  0  0
 32 39  1  0  0  0  0
 32 28  1  0  0  0  0
 33 32  2  0  0  0  0
 34 33  1  0  0  0  0
 35 33  1  0  0  0  0
 35 37  2  0  0  0  0
 36 35  1  0  0  0  0
 37 38  1  0  0  0  0
 37 39  1  0  0  0  0
M  END
>  <minimizedAffinity>
-5.18570852

$$$$
