
 OpenBabel03272502343D

 35 37  0  0  1  0  0  0  0  0999 V2000
   35.6420   29.7770   48.1370 C   0  0  0  0  0  0  0  0  0  0  0  0
   36.6580   30.4750   47.7420 C   0  0  0  0  0  0  0  0  0  0  0  0
   33.4850   29.6460   45.1040 C   0  0  0  0  0  0  0  0  0  0  0  0
   34.5530   29.8800   45.9630 C   0  0  0  0  0  0  0  0  0  0  0  0
   34.5110   29.5080   47.2850 C   0  0  0  0  0  0  0  0  0  0  0  0
   33.3880   28.9070   47.7100 N   0  0  0  0  0  0  0  0  0  0  0  0
   32.3560   28.6770   46.8910 C   0  0  0  0  0  0  0  0  0  0  0  0
   32.4030   29.0440   45.5910 N   0  0  0  0  0  0  0  0  0  0  0  0
   33.4780   29.9200   44.0640 H   0  0  0  0  0  0  0  0  0  0  0  0
   35.3750   30.3700   45.4620 H   0  0  0  0  0  0  0  0  0  0  0  0
   31.1600   28.0190   47.4090 C   0  0  0  0  0  0  0  0  0  0  0  0
   30.9920   27.5840   48.7290 C   0  0  0  0  0  0  0  0  0  0  0  0
   31.6700   27.6540   49.5480 H   0  0  0  0  0  0  0  0  0  0  0  0
   29.7160   27.0310   48.7400 C   0  0  0  0  0  0  0  0  0  0  0  0
   29.2820   26.5940   49.6500 H   0  0  0  0  0  0  0  0  0  0  0  0
   29.1820   27.1490   47.4670 C   0  0  0  0  0  0  0  0  0  0  0  0
   28.1840   26.7880   47.2100 H   0  0  0  0  0  0  0  0  0  0  0  0
   30.0750   27.7380   46.7220 O   0  0  0  0  0  0  0  0  0  0  0  0
   37.7790   30.6960   48.7160 C   0  0  1  0  0  0  0  0  0  0  0  0
   38.4120   29.7930   48.7920 H   0  0  0  0  0  0  0  0  0  0  0  0
   38.5600   31.8730   48.3080 C   0  0  0  0  0  0  0  0  0  0  0  0
   38.6550   32.8610   49.3240 C   0  0  0  0  0  0  0  0  0  0  0  0
   39.3340   34.0470   49.1700 C   0  0  0  0  0  0  0  0  0  0  0  0
   39.9850   34.3480   47.9620 C   0  0  0  0  0  0  0  0  0  0  0  0
   39.8420   33.3310   47.0240 C   0  0  0  0  0  0  0  0  0  0  0  0
   39.1890   32.1710   47.1490 N   0  0  0  0  0  0  0  0  0  0  0  0
   38.2410   32.8620   50.3430 H   0  0  0  0  0  0  0  0  0  0  0  0
   39.4440   34.8350   49.8990 H   0  0  0  0  0  0  0  0  0  0  0  0
   40.5450   35.2010   47.6750 H   0  0  0  0  0  0  0  0  0  0  0  0
   40.2920   33.4160   46.0320 H   0  0  0  0  0  0  0  0  0  0  0  0
   37.0190   31.1260   50.3200 S   0  0  0  0  0  0  0  0  0  0  0  0
   36.9910   29.7150   51.4130 C   0  0  0  0  0  0  0  0  0  0  0  0
   37.6580   29.9320   52.6060 F   0  0  0  0  0  0  0  0  0  0  0  0
   35.7050   29.2550   51.6200 F   0  0  0  0  0  0  0  0  0  0  0  0
   37.6580   28.6750   50.7360 F   0  0  0  0  0  0  0  0  0  0  0  0
  2  1  2  0  0  0  0
  2 19  1  0  0  0  0
  3  8  2  0  0  0  0
  3  4  1  0  0  0  0
  4  5  2  0  0  0  0
  5  6  1  0  0  0  0
  5  1  1  0  0  0  0
  7 11  1  0  0  0  0
  7  6  2  0  0  0  0
  8  7  1  0  0  0  0
  9  3  1  0  0  0  0
 10  4  1  0  0  0  0
 11 12  2  0  0  0  0
 12 14  1  0  0  0  0
 12 13  1  0  0  0  0
 14 15  1  0  0  0  0
 16 14  2  0  0  0  0
 17 16  1  0  0  0  0
 18 11  1  0  0  0  0
 18 16  1  0  0  0  0
 19 20  1  1  0  0  0
 19 31  1  0  0  0  0
 21 19  1  0  0  0  0
 21 22  1  0  0  0  0
 22 27  1  0  0  0  0
 23 22  2  0  0  0  0
 23 28  1  0  0  0  0
 24 23  1  0  0  0  0
 25 26  1  0  0  0  0
 25 24  2  0  0  0  0
 26 21  2  0  0  0  0
 29 24  1  0  0  0  0
 30 25  1  0  0  0  0
 31 32  1  0  0  0  0
 32 34  1  0  0  0  0
 32 33  1  0  0  0  0
 35 32  1  0  0  0  0
M  END
>  <minimizedAffinity>
-6.47652435

>  <minimizedRMSD>
0.624222457

$$$$
