
 OpenBabel03272510273D

 44 48  0  0  1  0  0  0  0  0999 V2000
   35.9800   30.1180   46.6650 C   0  0  0  0  0  0  0  0  0  0  0  0
   36.9370   30.6660   47.4840 C   0  0  0  0  0  0  0  0  0  0  0  0
   37.9380   31.5080   46.9700 C   0  0  0  0  0  0  0  0  0  0  0  0
   37.8970   31.7480   45.5950 C   0  0  0  0  0  0  0  0  0  0  0  0
   38.7410   32.5240   44.8540 N   0  0  0  0  0  0  0  0  0  0  0  0
   38.3090   32.4570   43.5880 C   0  0  0  0  0  0  0  0  0  0  0  0
   37.2460   31.6780   43.5270 N   0  0  0  0  0  0  0  0  0  0  0  0
   36.9530   31.2150   44.7530 C   0  0  0  0  0  0  0  0  0  0  0  0
   35.9760   30.3810   45.3110 C   0  0  0  0  0  0  0  0  0  0  0  0
   35.2120   29.4690   47.0720 H   0  0  0  0  0  0  0  0  0  0  0  0
   38.7090   31.9570   47.5890 H   0  0  0  0  0  0  0  0  0  0  0  0
   39.5520   33.0530   45.2220 H   0  0  0  0  0  0  0  0  0  0  0  0
   35.2320   29.9610   44.6470 H   0  0  0  0  0  0  0  0  0  0  0  0
   37.6510   30.3690   51.1700 C   0  0  0  0  0  0  0  0  0  0  0  0
   37.8500   30.7380   49.8390 C   0  0  0  0  0  0  0  0  0  0  0  0
   36.9150   30.3780   48.9060 C   0  0  0  0  0  0  0  0  0  0  0  0
   35.8250   29.6630   49.3580 N   0  0  0  0  0  0  0  0  0  0  0  0
   35.6400   29.3110   50.6420 C   0  0  0  0  0  0  0  0  0  0  0  0
   36.5480   29.6640   51.5310 N   0  0  0  0  0  0  0  0  0  0  0  0
   38.4010   30.6630   51.8900 H   0  0  0  0  0  0  0  0  0  0  0  0
   38.6940   31.2940   49.4720 H   0  0  0  0  0  0  0  0  0  0  0  0
   34.7570   28.7500   50.9170 H   0  0  0  0  0  0  0  0  0  0  0  0
   38.9410   33.1380   42.5460 O   0  0  0  0  0  0  0  0  0  0  0  0
   38.0920   31.6280   41.0260 N   0  0  0  0  0  0  0  0  0  0  0  0
   38.3000   33.0380   41.2780 C   0  0  1  0  0  0  0  0  0  0  0  0
   37.0360   33.7570   41.2800 C   0  0  0  0  0  0  0  0  0  0  0  0
   36.4600   33.6590   40.0020 O   0  0  0  0  0  0  0  0  0  0  0  0
   36.3050   32.3880   39.5280 C   0  0  0  0  0  0  0  0  0  0  0  0
   37.5550   31.5570   39.6790 C   0  0  1  0  0  0  0  0  0  0  0  0
   37.4440   31.1210   41.6010 H   0  0  0  0  0  0  0  0  0  0  0  0
   38.9570   33.3970   40.4680 H   0  0  0  0  0  0  0  0  0  0  0  0
   37.2700   34.8610   41.3760 H   0  0  0  0  0  0  0  0  0  0  0  0
   36.2220   33.5660   41.9270 H   0  0  0  0  0  0  0  0  0  0  0  0
   36.0550   32.4470   38.4680 H   0  0  0  0  0  0  0  0  0  0  0  0
   35.4910   31.8820   40.1150 H   0  0  0  0  0  0  0  0  0  0  0  0
   37.2860   30.5110   39.3980 H   0  0  0  0  0  0  0  0  0  0  0  0
   38.5860   32.1150   38.7650 C   0  0  0  0  0  0  0  0  0  0  0  0
   38.1720   32.6810   37.5540 C   0  0  0  0  0  0  0  0  0  0  0  0
   37.1770   32.7920   37.1410 H   0  0  0  0  0  0  0  0  0  0  0  0
   39.2960   33.1290   36.8790 C   0  0  0  0  0  0  0  0  0  0  0  0
   39.3050   33.6140   35.9120 H   0  0  0  0  0  0  0  0  0  0  0  0
   40.3410   32.8070   37.7230 C   0  0  0  0  0  0  0  0  0  0  0  0
   41.3680   33.0330   37.4730 H   0  0  0  0  0  0  0  0  0  0  0  0
   39.8940   32.2150   38.8190 O   0  0  0  0  0  0  0  0  0  0  0  0
  1 10  1  0  0  0  0
  1  2  1  0  0  0  0
  2 16  1  0  0  0  0
  3  2  2  0  0  0  0
  3 11  1  0  0  0  0
  4  3  1  0  0  0  0
  5 12  1  0  0  0  0
  5  4  1  0  0  0  0
  6  5  1  0  0  0  0
  7  6  2  0  0  0  0
  7  8  1  0  0  0  0
  8  9  1  0  0  0  0
  8  4  2  0  0  0  0
  9  1  2  0  0  0  0
 13  9  1  0  0  0  0
 14 19  1  0  0  0  0
 14 20  1  0  0  0  0
 15 14  2  0  0  0  0
 16 17  2  0  0  0  0
 16 15  1  0  0  0  0
 17 18  1  0  0  0  0
 18 22  1  0  0  0  0
 18 19  2  0  0  0  0
 21 15  1  0  0  0  0
 23  6  1  0  0  0  0
 24 25  1  0  0  0  0
 24 30  1  0  0  0  0
 25 31  1  6  0  0  0
 25 26  1  0  0  0  0
 25 23  1  0  0  0  0
 26 32  1  0  0  0  0
 26 33  1  0  0  0  0
 27 26  1  0  0  0  0
 28 29  1  0  0  0  0
 28 27  1  0  0  0  0
 28 35  1  0  0  0  0
 29 36  1  6  0  0  0
 29 24  1  0  0  0  0
 34 28  1  0  0  0  0
 37 44  1  0  0  0  0
 37 29  1  0  0  0  0
 38 37  2  0  0  0  0
 39 38  1  0  0  0  0
 40 38  1  0  0  0  0
 40 42  2  0  0  0  0
 41 40  1  0  0  0  0
 42 44  1  0  0  0  0
 43 42  1  0  0  0  0
M  END
>  <minimizedAffinity>
-5.1099658

>  <minimizedRMSD>
1.22846937

$$$$
