
 OpenBabel03272508543D

 37 40  0  0  1  0  0  0  0  0999 V2000
   38.3920   31.8500   44.5450 C   0  0  0  0  0  0  0  0  0  0  0  0
   37.2770   32.4430   44.4280 O   0  0  0  0  0  0  0  0  0  0  0  0
   38.9270   31.5460   45.8370 N   0  0  0  0  0  0  0  0  0  0  0  0
   39.8990   31.2080   46.0060 H   0  0  0  0  0  0  0  0  0  0  0  0
   39.1590   31.4610   43.3520 C   0  0  0  0  0  0  0  0  0  0  0  0
   40.1270   30.5020   43.4910 C   0  0  0  0  0  0  0  0  0  0  0  0
   40.8540   30.1190   42.3810 C   0  0  0  0  0  0  0  0  0  0  0  0
   40.5580   30.7300   41.1810 C   0  0  0  0  0  0  0  0  0  0  0  0
   39.5830   31.7000   41.0310 C   0  0  0  0  0  0  0  0  0  0  0  0
   38.9300   32.0110   42.1530 N   0  0  0  0  0  0  0  0  0  0  0  0
   40.3960   29.9930   44.4080 H   0  0  0  0  0  0  0  0  0  0  0  0
   41.6300   29.3670   42.4240 H   0  0  0  0  0  0  0  0  0  0  0  0
   41.1350   30.4220   40.3150 H   0  0  0  0  0  0  0  0  0  0  0  0
   39.2890   32.3330   39.7530 C   0  0  0  0  0  0  0  0  0  0  0  0
   39.4680   31.7000   38.5310 C   0  0  0  0  0  0  0  0  0  0  0  0
   39.8330   30.7000   38.3730 H   0  0  0  0  0  0  0  0  0  0  0  0
   39.0630   32.6790   37.6190 C   0  0  0  0  0  0  0  0  0  0  0  0
   39.0650   32.5410   36.5450 H   0  0  0  0  0  0  0  0  0  0  0  0
   38.6730   33.8090   38.3080 C   0  0  0  0  0  0  0  0  0  0  0  0
   38.3060   34.7500   37.9220 H   0  0  0  0  0  0  0  0  0  0  0  0
   38.8220   33.5680   39.5940 O   0  0  0  0  0  0  0  0  0  0  0  0
   38.4260   31.1170   48.2370 C   0  0  2  0  0  0  0  0  0  0  0  0
   38.6820   32.5590   48.1200 C   0  0  0  0  0  0  0  0  0  0  0  0
   38.0470   31.7230   46.9820 C   0  0  1  0  0  0  0  0  0  0  0  0
   39.3490   30.5090   48.3270 H   0  0  0  0  0  0  0  0  0  0  0  0
   38.0570   33.3170   48.6210 H   0  0  0  0  0  0  0  0  0  0  0  0
   39.7180   32.9200   47.9620 H   0  0  0  0  0  0  0  0  0  0  0  0
   36.9910   32.0400   46.7710 H   0  0  0  0  0  0  0  0  0  0  0  0
   35.0870   30.1950   49.5470 C   0  0  0  0  0  0  0  0  0  0  0  0
   35.4130   29.5400   50.7780 C   0  0  0  0  0  0  0  0  0  0  0  0
   36.8130   29.4430   51.1260 C   0  0  0  0  0  0  0  0  0  0  0  0
   37.7520   29.9670   50.2870 N   0  0  0  0  0  0  0  0  0  0  0  0
   37.3510   30.5770   49.1300 C   0  0  0  0  0  0  0  0  0  0  0  0
   36.0360   30.7070   48.7320 N   0  0  0  0  0  0  0  0  0  0  0  0
   34.0360   30.2330   49.3510 H   0  0  0  0  0  0  0  0  0  0  0  0
   34.6540   29.1410   51.4120 H   0  0  0  0  0  0  0  0  0  0  0  0
   37.0610   28.9510   52.0510 H   0  0  0  0  0  0  0  0  0  0  0  0
  1  3  1  0  0  0  0
  2  1  2  0  0  0  0
  3  4  1  0  0  0  0
  3 24  1  0  0  0  0
  5  6  1  0  0  0  0
  5  1  1  0  0  0  0
  6 11  1  0  0  0  0
  7 12  1  0  0  0  0
  7  6  2  0  0  0  0
  8  7  1  0  0  0  0
  9  8  2  0  0  0  0
  9 10  1  0  0  0  0
 10  5  2  0  0  0  0
 13  8  1  0  0  0  0
 14  9  1  0  0  0  0
 15 14  2  0  0  0  0
 16 15  1  0  0  0  0
 17 19  2  0  0  0  0
 17 15  1  0  0  0  0
 18 17  1  0  0  0  0
 19 21  1  0  0  0  0
 20 19  1  0  0  0  0
 21 14  1  0  0  0  0
 22 25  1  6  0  0  0
 22 33  1  0  0  0  0
 23 22  1  0  0  0  0
 23 26  1  0  0  0  0
 24 28  1  6  0  0  0
 24 23  1  0  0  0  0
 24 22  1  0  0  0  0
 27 23  1  0  0  0  0
 29 30  1  0  0  0  0
 30 31  2  0  0  0  0
 30 36  1  0  0  0  0
 31 37  1  0  0  0  0
 32 31  1  0  0  0  0
 33 32  2  0  0  0  0
 34 33  1  0  0  0  0
 34 29  2  0  0  0  0
 35 29  1  0  0  0  0
M  END
>  <minimizedAffinity>
-5.15005875

>  <minimizedRMSD>
0.0531780981

$$$$
