
 OpenBabel03272506513D

 33 35  0  0  1  0  0  0  0  0999 V2000
   34.7700   30.5820   48.7920 C   0  0  1  0  0  0  0  0  0  0  0  0
   34.1520   30.2460   47.5150 C   0  0  0  0  0  0  0  0  0  0  0  0
   34.2570   28.8200   47.0530 C   0  0  0  0  0  0  0  0  0  0  0  0
   34.2120   27.7760   48.1040 C   0  0  1  0  0  0  0  0  0  0  0  0
   34.7730   28.1240   49.4340 C   0  0  0  0  0  0  0  0  0  0  0  0
   34.5260   29.5370   49.8410 C   0  0  0  0  0  0  0  0  0  0  0  0
   34.2370   31.4950   49.2120 H   0  0  0  0  0  0  0  0  0  0  0  0
   34.3660   30.8910   46.6610 H   0  0  0  0  0  0  0  0  0  0  0  0
   33.0300   30.3890   47.6570 H   0  0  0  0  0  0  0  0  0  0  0  0
   33.4400   28.6150   46.3290 H   0  0  0  0  0  0  0  0  0  0  0  0
   35.1870   28.7640   46.4440 H   0  0  0  0  0  0  0  0  0  0  0  0
   34.8910   26.9440   47.7360 H   0  0  0  0  0  0  0  0  0  0  0  0
   34.3150   27.4710   50.1910 H   0  0  0  0  0  0  0  0  0  0  0  0
   35.8710   27.9630   49.4730 H   0  0  0  0  0  0  0  0  0  0  0  0
   33.3940   29.5700   49.9680 H   0  0  0  0  0  0  0  0  0  0  0  0
   34.8660   29.7640   50.8440 H   0  0  0  0  0  0  0  0  0  0  0  0
   36.9500   30.9500   47.5770 C   0  0  0  0  0  0  0  0  0  0  0  0
   36.1800   31.0380   48.7480 C   0  0  0  0  0  0  0  0  0  0  0  0
   36.7940   31.5830   49.8570 C   0  0  0  0  0  0  0  0  0  0  0  0
   38.0940   32.0030   49.7750 N   0  0  0  0  0  0  0  0  0  0  0  0
   38.8010   31.8980   48.6190 C   0  0  0  0  0  0  0  0  0  0  0  0
   38.2130   31.3650   47.5180 N   0  0  0  0  0  0  0  0  0  0  0  0
   36.5700   30.5420   46.6540 H   0  0  0  0  0  0  0  0  0  0  0  0
   36.3150   31.7090   50.8150 H   0  0  0  0  0  0  0  0  0  0  0  0
   39.8190   32.2600   48.6650 H   0  0  0  0  0  0  0  0  0  0  0  0
   32.8630   27.1510   48.1500 C   0  0  0  0  0  0  0  0  0  0  0  0
   31.7180   27.7070   48.7120 C   0  0  0  0  0  0  0  0  0  0  0  0
   31.5890   28.6610   49.2030 H   0  0  0  0  0  0  0  0  0  0  0  0
   30.6680   26.8250   48.5580 C   0  0  0  0  0  0  0  0  0  0  0  0
   29.6370   26.8220   48.8240 H   0  0  0  0  0  0  0  0  0  0  0  0
   31.2120   25.7540   47.9040 C   0  0  0  0  0  0  0  0  0  0  0  0
   30.8810   24.7950   47.5270 H   0  0  0  0  0  0  0  0  0  0  0  0
   32.4640   25.9680   47.6840 O   0  0  0  0  0  0  0  0  0  0  0  0
  1  7  1  1  0  0  0
  1  6  1  0  0  0  0
  2  9  1  0  0  0  0
  2  1  1  0  0  0  0
  3  2  1  0  0  0  0
  3  4  1  0  0  0  0
  4 12  1  6  0  0  0
  4 26  1  0  0  0  0
  4  5  1  0  0  0  0
  5 14  1  0  0  0  0
  5  6  1  0  0  0  0
  5 13  1  0  0  0  0
  6 15  1  0  0  0  0
  6 16  1  0  0  0  0
  8  2  1  0  0  0  0
 10  3  1  0  0  0  0
 11  3  1  0  0  0  0
 17 18  1  0  0  0  0
 18  1  1  0  0  0  0
 18 19  2  0  0  0  0
 19 24  1  0  0  0  0
 20 19  1  0  0  0  0
 21 25  1  0  0  0  0
 21 20  2  0  0  0  0
 22 17  2  0  0  0  0
 22 21  1  0  0  0  0
 23 17  1  0  0  0  0
 26 27  2  0  0  0  0
 27 28  1  0  0  0  0
 29 27  1  0  0  0  0
 29 30  1  0  0  0  0
 31 29  2  0  0  0  0
 32 31  1  0  0  0  0
 33 31  1  0  0  0  0
 33 26  1  0  0  0  0
M  END
>  <minimizedAffinity>
-5.21248484

>  <minimizedRMSD>
1.46483624

$$$$
