
 OpenBabel03272501353D

 35 38  0  0  1  0  0  0  0  0999 V2000
   38.1070   32.1840   48.3990 C   0  0  2  0  0  0  0  0  0  0  0  0
   38.7370   33.2280   48.8240 O   0  0  0  0  0  0  0  0  0  0  0  0
   37.3140   30.1630   51.4270 C   0  0  0  0  0  0  0  0  0  0  0  0
   37.9050   31.0430   50.5500 C   0  0  0  0  0  0  0  0  0  0  0  0
   37.4080   31.2670   49.2490 C   0  0  0  0  0  0  0  0  0  0  0  0
   36.3410   30.5890   48.9070 N   0  0  0  0  0  0  0  0  0  0  0  0
   35.7590   29.7100   49.7970 C   0  0  0  0  0  0  0  0  0  0  0  0
   36.2230   29.4930   51.0260 N   0  0  0  0  0  0  0  0  0  0  0  0
   37.7020   29.9990   52.4160 H   0  0  0  0  0  0  0  0  0  0  0  0
   38.7920   31.5930   50.8610 H   0  0  0  0  0  0  0  0  0  0  0  0
   34.5750   29.0070   49.3130 C   0  0  0  0  0  0  0  0  0  0  0  0
   34.6240   28.5230   48.0020 C   0  0  0  0  0  0  0  0  0  0  0  0
   35.3850   28.5590   47.2340 H   0  0  0  0  0  0  0  0  0  0  0  0
   33.3980   27.8950   47.7570 C   0  0  0  0  0  0  0  0  0  0  0  0
   32.9660   27.3790   46.9070 H   0  0  0  0  0  0  0  0  0  0  0  0
   32.6850   28.0440   48.9510 C   0  0  0  0  0  0  0  0  0  0  0  0
   31.6900   27.7310   49.2670 H   0  0  0  0  0  0  0  0  0  0  0  0
   33.4200   28.7060   49.8410 O   0  0  0  0  0  0  0  0  0  0  0  0
   38.1090   31.9000   46.9160 C   0  0  2  0  0  0  0  0  0  0  0  0
   38.7700   30.4680   46.7100 C   0  0  0  0  0  0  0  0  0  0  0  0
   39.3330   31.7710   46.2000 C   0  0  1  0  0  0  0  0  0  0  0  0
   37.0940   31.8960   46.4650 H   0  0  0  0  0  0  0  0  0  0  0  0
   39.2510   30.0020   47.5580 H   0  0  0  0  0  0  0  0  0  0  0  0
   38.2090   29.8280   46.0000 H   0  0  0  0  0  0  0  0  0  0  0  0
   40.2740   32.0980   46.7480 H   0  0  0  0  0  0  0  0  0  0  0  0
   39.5020   31.8510   44.7480 C   0  0  0  0  0  0  0  0  0  0  0  0
   38.9770   32.9620   44.0980 C   0  0  0  0  0  0  0  0  0  0  0  0
   39.1380   33.0280   42.7380 C   0  0  0  0  0  0  0  0  0  0  0  0
   39.7950   32.0390   42.0210 C   0  0  0  0  0  0  0  0  0  0  0  0
   40.2970   30.9580   42.7070 C   0  0  0  0  0  0  0  0  0  0  0  0
   40.1430   30.8860   44.0360 N   0  0  0  0  0  0  0  0  0  0  0  0
   38.4540   33.7730   44.5940 H   0  0  0  0  0  0  0  0  0  0  0  0
   38.7710   33.8450   42.1300 H   0  0  0  0  0  0  0  0  0  0  0  0
   39.9640   32.0120   40.9560 H   0  0  0  0  0  0  0  0  0  0  0  0
   40.8360   30.0910   42.3270 H   0  0  0  0  0  0  0  0  0  0  0  0
  1  2  1  1  0  0  0
  1  5  1  0  0  0  0
  3  9  1  0  0  0  0
  4 10  1  0  0  0  0
  4  3  2  0  0  0  0
  5  4  1  0  0  0  0
  6  5  2  0  0  0  0
  6  7  1  0  0  0  0
  7  8  2  0  0  0  0
  8  3  1  0  0  0  0
 11  7  1  0  0  0  0
 11 18  1  0  0  0  0
 12 11  2  0  0  0  0
 13 12  1  0  0  0  0
 14 12  1  0  0  0  0
 14 16  2  0  0  0  0
 15 14  1  0  0  0  0
 16 17  1  0  0  0  0
 16 18  1  0  0  0  0
 19 22  1  6  0  0  0
 19  1  1  0  0  0  0
 20 19  1  0  0  0  0
 20 23  1  0  0  0  0
 21 20  1  0  0  0  0
 21 25  1  1  0  0  0
 21 19  1  0  0  0  0
 24 20  1  0  0  0  0
 26 21  1  0  0  0  0
 27 32  1  0  0  0  0
 27 26  1  0  0  0  0
 28 27  2  0  0  0  0
 29 30  2  0  0  0  0
 29 28  1  0  0  0  0
 30 31  1  0  0  0  0
 31 26  2  0  0  0  0
 33 28  1  0  0  0  0
 34 29  1  0  0  0  0
 35 30  1  0  0  0  0
M  END
>  <minimizedAffinity>
-6.0815959

>  <minimizedRMSD>
0.991931915

$$$$
