
 OpenBabel03272502363D

 35 37  0  0  1  0  0  0  0  0999 V2000
   36.3190   28.6890   34.8040 C   0  0  0  0  0  3  0  0  0  0  0  0
   35.5490   29.3120   33.9700 C   0  0  0  0  0  3  0  0  0  0  0  0
   37.7800   25.9180   32.7900 C   0  0  0  0  0  0  0  0  0  0  0  0
   37.1620   27.1080   33.1580 C   0  0  0  0  0  0  0  0  0  0  0  0
   36.9690   27.4460   34.4750 C   0  0  0  0  0  0  0  0  0  0  0  0
   37.4060   26.5700   35.3950 N   0  0  0  0  0  0  0  0  0  0  0  0
   38.0030   25.4230   35.0520 C   0  0  0  0  0  0  0  0  0  0  0  0
   38.1900   25.0960   33.7540 N   0  0  0  0  0  0  0  0  0  0  0  0
   37.9510   25.6170   31.7720 H   0  0  0  0  0  0  0  0  0  0  0  0
   36.8730   27.6950   32.2980 H   0  0  0  0  0  0  0  0  0  0  0  0
   38.4580   24.5100   36.0950 C   0  0  0  0  0  0  0  0  0  0  0  0
   37.9150   24.4280   37.3830 C   0  0  0  0  0  0  0  0  0  0  0  0
   37.1130   24.9880   37.8080 H   0  0  0  0  0  0  0  0  0  0  0  0
   38.6640   23.4330   38.0010 C   0  0  0  0  0  0  0  0  0  0  0  0
   38.4780   23.1290   39.0410 H   0  0  0  0  0  0  0  0  0  0  0  0
   39.6010   22.9690   37.0930 C   0  0  0  0  0  0  0  0  0  0  0  0
   40.3180   22.1810   37.3340 H   0  0  0  0  0  0  0  0  0  0  0  0
   39.4360   23.6390   35.9860 O   0  0  0  0  0  0  0  0  0  0  0  0
   34.9200   30.5980   34.4220 C   0  0  1  0  0  0  0  0  0  0  0  0
   34.7840   31.2850   33.5680 H   0  0  0  0  0  0  0  0  0  0  0  0
   33.6460   30.3100   35.0970 C   0  0  0  0  0  0  0  0  0  0  0  0
   33.4210   31.1240   36.2390 C   0  0  0  0  0  0  0  0  0  0  0  0
   32.2980   31.0330   37.0280 C   0  0  0  0  0  0  0  0  0  0  0  0
   31.2900   30.1000   36.7340 C   0  0  0  0  0  0  0  0  0  0  0  0
   31.5880   29.3470   35.6040 C   0  0  0  0  0  0  0  0  0  0  0  0
   32.6690   29.4160   34.8210 N   0  0  0  0  0  0  0  0  0  0  0  0
   34.0480   31.9170   36.6700 H   0  0  0  0  0  0  0  0  0  0  0  0
   32.0680   31.6190   37.9050 H   0  0  0  0  0  0  0  0  0  0  0  0
   30.3730   29.8980   37.2270 H   0  0  0  0  0  0  0  0  0  0  0  0
   30.9000   28.5770   35.2450 H   0  0  0  0  0  0  0  0  0  0  0  0
   36.0150   31.3120   35.6960 S   0  0  0  0  0  0  0  0  0  0  0  0
   36.3030   33.0470   35.3940 C   0  0  0  0  0  0  0  0  0  0  0  0
   37.6350   33.4090   35.4930 F   0  0  0  0  0  0  0  0  0  0  0  0
   35.7480   33.4560   34.1960 F   0  0  0  0  0  0  0  0  0  0  0  0
   35.5960   33.7470   36.3930 F   0  0  0  0  0  0  0  0  0  0  0  0
  2 19  1  0  0  0  0
  2  1  2  0  0  0  0
  3  4  2  0  0  0  0
  3  8  1  0  0  0  0
  4  5  1  0  0  0  0
  5  1  1  0  0  0  0
  5  6  2  0  0  0  0
  7  6  1  0  0  0  0
  7 11  1  0  0  0  0
  8  7  2  0  0  0  0
  9  3  1  0  0  0  0
 10  4  1  0  0  0  0
 11 12  2  0  0  0  0
 12 13  1  0  0  0  0
 12 14  1  0  0  0  0
 14 15  1  0  0  0  0
 16 17  1  0  0  0  0
 16 14  2  0  0  0  0
 18 11  1  0  0  0  0
 18 16  1  0  0  0  0
 19 20  1  6  0  0  0
 19 21  1  0  0  0  0
 19 31  1  0  0  0  0
 21 22  1  0  0  0  0
 22 27  1  0  0  0  0
 22 23  2  0  0  0  0
 23 28  1  0  0  0  0
 24 23  1  0  0  0  0
 24 29  1  0  0  0  0
 25 24  2  0  0  0  0
 26 21  2  0  0  0  0
 26 25  1  0  0  0  0
 30 25  1  0  0  0  0
 32 33  1  0  0  0  0
 32 31  1  0  0  0  0
 32 35  1  0  0  0  0
 34 32  1  0  0  0  0
M  END
>  <minimizedAffinity>
-5.71004725

$$$$

 OpenBabel03272502363D

 35 37  0  0  1  0  0  0  0  0999 V2000
   37.6850   26.9300   33.3250 C   0  0  0  0  0  3  0  0  0  0  0  0
   37.2880   25.8080   33.8340 C   0  0  0  0  0  3  0  0  0  0  0  0
   35.5340   29.4510   31.6260 C   0  0  0  0  0  0  0  0  0  0  0  0
   36.3870   28.3790   31.8630 C   0  0  0  0  0  0  0  0  0  0  0  0
   36.7970   28.0490   33.1320 C   0  0  0  0  0  0  0  0  0  0  0  0
   36.3350   28.8130   34.1350 N   0  0  0  0  0  0  0  0  0  0  0  0
   35.5140   29.8460   33.9170 C   0  0  0  0  0  0  0  0  0  0  0  0
   35.1140   30.1660   32.6670 N   0  0  0  0  0  0  0  0  0  0  0  0
   35.1890   29.7420   30.6490 H   0  0  0  0  0  0  0  0  0  0  0  0
   36.6620   27.8720   30.9490 H   0  0  0  0  0  0  0  0  0  0  0  0
   35.0440   30.6400   35.0480 C   0  0  0  0  0  0  0  0  0  0  0  0
   35.8560   31.4450   35.8560 C   0  0  0  0  0  0  0  0  0  0  0  0
   36.9070   31.6140   35.7920 H   0  0  0  0  0  0  0  0  0  0  0  0
   34.9730   31.9920   36.7800 C   0  0  0  0  0  0  0  0  0  0  0  0
   35.3110   32.6820   37.5670 H   0  0  0  0  0  0  0  0  0  0  0  0
   33.7040   31.5110   36.5050 C   0  0  0  0  0  0  0  0  0  0  0  0
   32.8260   31.7900   37.0910 H   0  0  0  0  0  0  0  0  0  0  0  0
   33.8030   30.7180   35.4740 O   0  0  0  0  0  0  0  0  0  0  0  0
   38.3000   24.7090   33.9830 C   0  0  1  0  0  0  0  0  0  0  0  0
   39.2770   25.0220   33.5730 H   0  0  0  0  0  0  0  0  0  0  0  0
   38.4030   24.3270   35.4000 C   0  0  0  0  0  0  0  0  0  0  0  0
   39.4050   23.3500   35.6440 C   0  0  0  0  0  0  0  0  0  0  0  0
   39.6810   22.8390   36.8900 C   0  0  0  0  0  0  0  0  0  0  0  0
   38.9620   23.2730   38.0170 C   0  0  0  0  0  0  0  0  0  0  0  0
   38.0050   24.2270   37.6910 C   0  0  0  0  0  0  0  0  0  0  0  0
   37.7180   24.7390   36.4900 N   0  0  0  0  0  0  0  0  0  0  0  0
   40.0930   22.8590   34.9410 H   0  0  0  0  0  0  0  0  0  0  0  0
   40.4240   22.0990   37.1420 H   0  0  0  0  0  0  0  0  0  0  0  0
   39.0420   22.9910   39.0360 H   0  0  0  0  0  0  0  0  0  0  0  0
   37.3630   24.6640   38.4600 H   0  0  0  0  0  0  0  0  0  0  0  0
   37.6380   23.2470   33.1130 S   0  0  0  0  0  0  0  0  0  0  0  0
   36.8100   23.7200   31.6050 C   0  0  0  0  0  0  0  0  0  0  0  0
   35.5290   24.2020   31.8100 F   0  0  0  0  0  0  0  0  0  0  0  0
   37.5740   24.5940   30.8560 F   0  0  0  0  0  0  0  0  0  0  0  0
   36.7050   22.5500   30.8260 F   0  0  0  0  0  0  0  0  0  0  0  0
  1  2  2  0  0  0  0
  2 19  1  0  0  0  0
  3  4  2  0  0  0  0
  3  8  1  0  0  0  0
  4  5  1  0  0  0  0
  5  1  1  0  0  0  0
  5  6  2  0  0  0  0
  7  6  1  0  0  0  0
  7 11  1  0  0  0  0
  8  7  2  0  0  0  0
  9  3  1  0  0  0  0
 10  4  1  0  0  0  0
 11 18  1  0  0  0  0
 11 12  2  0  0  0  0
 12 14  1  0  0  0  0
 13 12  1  0  0  0  0
 14 15  1  0  0  0  0
 16 14  2  0  0  0  0
 16 17  1  0  0  0  0
 18 16  1  0  0  0  0
 19 20  1  6  0  0  0
 19 21  1  0  0  0  0
 21 22  2  0  0  0  0
 21 26  1  0  0  0  0
 22 23  1  0  0  0  0
 23 28  1  0  0  0  0
 23 24  2  0  0  0  0
 24 29  1  0  0  0  0
 25 24  1  0  0  0  0
 25 30  1  0  0  0  0
 26 25  2  0  0  0  0
 27 22  1  0  0  0  0
 31 19  1  0  0  0  0
 32 33  1  0  0  0  0
 32 31  1  0  0  0  0
 34 32  1  0  0  0  0
 35 32  1  0  0  0  0
M  END
>  <minimizedAffinity>
-5.63229704

$$$$

 OpenBabel03272502363D

 35 37  0  0  1  0  0  0  0  0999 V2000
   36.5050   28.0440   33.4080 C   0  0  0  0  0  3  0  0  0  0  0  0
   35.9950   28.8450   34.2880 C   0  0  0  0  0  3  0  0  0  0  0  0
   39.6870   26.1320   33.1140 C   0  0  0  0  0  0  0  0  0  0  0  0
   38.6340   27.0030   32.8570 C   0  0  0  0  0  0  0  0  0  0  0  0
   37.5750   27.1310   33.7220 C   0  0  0  0  0  0  0  0  0  0  0  0
   37.6040   26.3730   34.8310 N   0  0  0  0  0  0  0  0  0  0  0  0
   38.6120   25.5330   35.0870 C   0  0  0  0  0  0  0  0  0  0  0  0
   39.6520   25.4120   34.2330 N   0  0  0  0  0  0  0  0  0  0  0  0
   40.5350   26.0030   32.4640 H   0  0  0  0  0  0  0  0  0  0  0  0
   38.7680   27.5340   31.9260 H   0  0  0  0  0  0  0  0  0  0  0  0
   38.5890   24.7350   36.3090 C   0  0  0  0  0  0  0  0  0  0  0  0
   39.3300   23.5660   36.5180 C   0  0  0  0  0  0  0  0  0  0  0  0
   40.0100   23.0760   35.8580 H   0  0  0  0  0  0  0  0  0  0  0  0
   38.9820   23.1730   37.8060 C   0  0  0  0  0  0  0  0  0  0  0  0
   39.4040   22.2710   38.2710 H   0  0  0  0  0  0  0  0  0  0  0  0
   38.0720   24.0890   38.3070 C   0  0  0  0  0  0  0  0  0  0  0  0
   37.6400   24.0070   39.3060 H   0  0  0  0  0  0  0  0  0  0  0  0
   37.8760   24.9890   37.3830 O   0  0  0  0  0  0  0  0  0  0  0  0
   34.8880   29.7570   33.8470 C   0  0  1  0  0  0  0  0  0  0  0  0
   34.1170   29.1920   33.2920 H   0  0  0  0  0  0  0  0  0  0  0  0
   34.3210   30.4430   35.0180 C   0  0  0  0  0  0  0  0  0  0  0  0
   35.2380   31.3270   35.6460 C   0  0  0  0  0  0  0  0  0  0  0  0
   34.9320   32.0750   36.7590 C   0  0  0  0  0  0  0  0  0  0  0  0
   33.6570   31.9960   37.3470 C   0  0  0  0  0  0  0  0  0  0  0  0
   32.8240   31.1110   36.6720 C   0  0  0  0  0  0  0  0  0  0  0  0
   33.0980   30.3740   35.5900 N   0  0  0  0  0  0  0  0  0  0  0  0
   36.2780   31.5640   35.3820 H   0  0  0  0  0  0  0  0  0  0  0  0
   35.5790   32.7620   37.2820 H   0  0  0  0  0  0  0  0  0  0  0  0
   33.2570   32.4930   38.1930 H   0  0  0  0  0  0  0  0  0  0  0  0
   31.7990   30.9390   37.0070 H   0  0  0  0  0  0  0  0  0  0  0  0
   35.6440   31.0610   32.8170 S   0  0  0  0  0  0  0  0  0  0  0  0
   35.2170   30.8460   31.0970 C   0  0  0  0  0  0  0  0  0  0  0  0
   35.6720   31.8710   30.2860 F   0  0  0  0  0  0  0  0  0  0  0  0
   35.6060   29.6070   30.6260 F   0  0  0  0  0  0  0  0  0  0  0  0
   33.8090   30.8470   31.0340 F   0  0  0  0  0  0  0  0  0  0  0  0
  1  5  1  0  0  0  0
  1  2  2  0  0  0  0
  3  8  1  0  0  0  0
  4  3  2  0  0  0  0
  4  5  1  0  0  0  0
  5  6  2  0  0  0  0
  6  7  1  0  0  0  0
  7 11  1  0  0  0  0
  8  7  2  0  0  0  0
  9  3  1  0  0  0  0
 10  4  1  0  0  0  0
 11 12  2  0  0  0  0
 11 18  1  0  0  0  0
 12 14  1  0  0  0  0
 13 12  1  0  0  0  0
 14 15  1  0  0  0  0
 14 16  2  0  0  0  0
 16 17  1  0  0  0  0
 18 16  1  0  0  0  0
 19 20  1  6  0  0  0
 19  2  1  0  0  0  0
 19 21  1  0  0  0  0
 21 26  2  0  0  0  0
 21 22  1  0  0  0  0
 22 23  2  0  0  0  0
 23 28  1  0  0  0  0
 23 24  1  0  0  0  0
 24 29  1  0  0  0  0
 25 30  1  0  0  0  0
 25 24  2  0  0  0  0
 26 25  1  0  0  0  0
 27 22  1  0  0  0  0
 31 19  1  0  0  0  0
 32 31  1  0  0  0  0
 33 32  1  0  0  0  0
 34 32  1  0  0  0  0
 35 32  1  0  0  0  0
M  END
>  <minimizedAffinity>
-5.50188303

$$$$

 OpenBabel03272502363D

 35 37  0  0  1  0  0  0  0  0999 V2000
   36.3150   28.4300   34.4990 C   0  0  0  0  0  3  0  0  0  0  0  0
   35.5210   28.8550   33.5700 C   0  0  0  0  0  3  0  0  0  0  0  0
   38.4630   25.8560   32.8780 C   0  0  0  0  0  0  0  0  0  0  0  0
   37.6580   26.9690   33.0910 C   0  0  0  0  0  0  0  0  0  0  0  0
   37.1490   27.2660   34.3320 C   0  0  0  0  0  0  0  0  0  0  0  0
   37.4660   26.4290   35.3330 N   0  0  0  0  0  0  0  0  0  0  0  0
   38.2400   25.3560   35.1380 C   0  0  0  0  0  0  0  0  0  0  0  0
   38.7380   25.0690   33.9160 N   0  0  0  0  0  0  0  0  0  0  0  0
   38.8810   25.5880   31.9240 H   0  0  0  0  0  0  0  0  0  0  0  0
   37.5020   27.5340   32.1830 H   0  0  0  0  0  0  0  0  0  0  0  0
   38.5510   24.4820   36.2650 C   0  0  0  0  0  0  0  0  0  0  0  0
   37.8610   24.4640   37.4820 C   0  0  0  0  0  0  0  0  0  0  0  0
   37.0270   25.0550   37.7870 H   0  0  0  0  0  0  0  0  0  0  0  0
   38.5120   23.4850   38.2240 C   0  0  0  0  0  0  0  0  0  0  0  0
   38.2000   23.2290   39.2460 H   0  0  0  0  0  0  0  0  0  0  0  0
   39.5380   22.9670   37.4520 C   0  0  0  0  0  0  0  0  0  0  0  0
   40.2050   22.1790   37.8070 H   0  0  0  0  0  0  0  0  0  0  0  0
   39.5160   23.5900   36.3060 O   0  0  0  0  0  0  0  0  0  0  0  0
   34.6940   30.0750   33.8570 C   0  0  1  0  0  0  0  0  0  0  0  0
   34.3180   30.0540   34.8960 H   0  0  0  0  0  0  0  0  0  0  0  0
   35.4920   31.2820   33.5920 C   0  0  0  0  0  0  0  0  0  0  0  0
   35.9250   31.3810   32.2430 C   0  0  0  0  0  0  0  0  0  0  0  0
   36.6850   32.4220   31.7630 C   0  0  0  0  0  0  0  0  0  0  0  0
   37.0820   33.4690   32.6110 C   0  0  0  0  0  0  0  0  0  0  0  0
   36.6170   33.2950   33.9100 C   0  0  0  0  0  0  0  0  0  0  0  0
   35.8780   32.2940   34.4000 N   0  0  0  0  0  0  0  0  0  0  0  0
   35.7470   30.7020   31.3970 H   0  0  0  0  0  0  0  0  0  0  0  0
   37.0450   32.5560   30.7540 H   0  0  0  0  0  0  0  0  0  0  0  0
   37.6590   34.3360   32.4120 H   0  0  0  0  0  0  0  0  0  0  0  0
   36.8420   34.0260   34.6890 H   0  0  0  0  0  0  0  0  0  0  0  0
   33.3290   30.0970   32.6440 S   0  0  0  0  0  0  0  0  0  0  0  0
   31.9550   29.1080   33.2100 C   0  0  0  0  0  0  0  0  0  0  0  0
   30.7370   29.7580   33.1180 F   0  0  0  0  0  0  0  0  0  0  0  0
   31.9260   27.8730   32.5920 F   0  0  0  0  0  0  0  0  0  0  0  0
   32.1930   28.8410   34.5730 F   0  0  0  0  0  0  0  0  0  0  0  0
  2 19  1  0  0  0  0
  2  1  2  0  0  0  0
  3  4  2  0  0  0  0
  3  8  1  0  0  0  0
  4  5  1  0  0  0  0
  5  1  1  0  0  0  0
  5  6  2  0  0  0  0
  7  6  1  0  0  0  0
  7 11  1  0  0  0  0
  8  7  2  0  0  0  0
  9  3  1  0  0  0  0
 10  4  1  0  0  0  0
 11 18  1  0  0  0  0
 11 12  2  0  0  0  0
 12 13  1  0  0  0  0
 12 14  1  0  0  0  0
 14 15  1  0  0  0  0
 16 17  1  0  0  0  0
 16 14  2  0  0  0  0
 18 16  1  0  0  0  0
 19 20  1  1  0  0  0
 21 19  1  0  0  0  0
 21 26  1  0  0  0  0
 22 21  2  0  0  0  0
 23 22  1  0  0  0  0
 23 24  2  0  0  0  0
 24 25  1  0  0  0  0
 25 26  2  0  0  0  0
 25 30  1  0  0  0  0
 27 22  1  0  0  0  0
 28 23  1  0  0  0  0
 29 24  1  0  0  0  0
 31 32  1  0  0  0  0
 31 19  1  0  0  0  0
 32 35  1  0  0  0  0
 33 32  1  0  0  0  0
 34 32  1  0  0  0  0
M  END
>  <minimizedAffinity>
-5.45798397

$$$$

 OpenBabel03272502363D

 35 37  0  0  1  0  0  0  0  0999 V2000
   37.1100   26.7960   33.9670 C   0  0  0  0  0  3  0  0  0  0  0  0
   38.2510   26.6840   34.5680 C   0  0  0  0  0  3  0  0  0  0  0  0
   35.8950   29.7090   31.9900 C   0  0  0  0  0  0  0  0  0  0  0  0
   36.4480   28.4830   32.3430 C   0  0  0  0  0  0  0  0  0  0  0  0
   36.5230   28.0740   33.6520 C   0  0  0  0  0  0  0  0  0  0  0  0
   36.0370   28.9160   34.5780 N   0  0  0  0  0  0  0  0  0  0  0  0
   35.5020   30.0970   34.2490 C   0  0  0  0  0  0  0  0  0  0  0  0
   35.4310   30.4940   32.9590 N   0  0  0  0  0  0  0  0  0  0  0  0
   35.8170   30.0660   30.9780 H   0  0  0  0  0  0  0  0  0  0  0  0
   36.7900   27.9310   31.4800 H   0  0  0  0  0  0  0  0  0  0  0  0
   34.9890   30.9710   35.2990 C   0  0  0  0  0  0  0  0  0  0  0  0
   35.7710   31.8210   36.0900 C   0  0  0  0  0  0  0  0  0  0  0  0
   36.8260   31.9750   36.0660 H   0  0  0  0  0  0  0  0  0  0  0  0
   34.8520   32.4380   36.9310 C   0  0  0  0  0  0  0  0  0  0  0  0
   35.1610   33.1760   37.6850 H   0  0  0  0  0  0  0  0  0  0  0  0
   33.5920   31.9510   36.6280 C   0  0  0  0  0  0  0  0  0  0  0  0
   32.6900   32.2770   37.1500 H   0  0  0  0  0  0  0  0  0  0  0  0
   33.7300   31.0890   35.6580 O   0  0  0  0  0  0  0  0  0  0  0  0
   38.7630   25.3010   34.8490 C   0  0  1  0  0  0  0  0  0  0  0  0
   38.3510   24.5790   34.1220 H   0  0  0  0  0  0  0  0  0  0  0  0
   40.2330   25.3100   34.8340 C   0  0  0  0  0  0  0  0  0  0  0  0
   40.7800   26.5350   34.3680 C   0  0  0  0  0  0  0  0  0  0  0  0
   42.1310   26.7740   34.2650 C   0  0  0  0  0  0  0  0  0  0  0  0
   43.0630   25.7860   34.6270 C   0  0  0  0  0  0  0  0  0  0  0  0
   42.4450   24.6220   35.0710 C   0  0  0  0  0  0  0  0  0  0  0  0
   41.1370   24.3660   35.1810 N   0  0  0  0  0  0  0  0  0  0  0  0
   40.2700   27.4490   34.0320 H   0  0  0  0  0  0  0  0  0  0  0  0
   42.6090   27.6780   33.9210 H   0  0  0  0  0  0  0  0  0  0  0  0
   44.1220   25.8000   34.6120 H   0  0  0  0  0  0  0  0  0  0  0  0
   43.0350   23.7600   35.3900 H   0  0  0  0  0  0  0  0  0  0  0  0
   38.2790   24.8870   36.5610 S   0  0  0  0  0  0  0  0  0  0  0  0
   38.2520   23.1200   36.8090 C   0  0  0  0  0  0  0  0  0  0  0  0
   39.3400   22.6500   37.5240 F   0  0  0  0  0  0  0  0  0  0  0  0
   37.0560   22.6990   37.3570 F   0  0  0  0  0  0  0  0  0  0  0  0
   38.3030   22.5390   35.5260 F   0  0  0  0  0  0  0  0  0  0  0  0
  1  2  2  0  0  0  0
  2 19  1  0  0  0  0
  3  4  2  0  0  0  0
  3  8  1  0  0  0  0
  4  5  1  0  0  0  0
  5  1  1  0  0  0  0
  5  6  2  0  0  0  0
  7  6  1  0  0  0  0
  7 11  1  0  0  0  0
  8  7  2  0  0  0  0
  9  3  1  0  0  0  0
 10  4  1  0  0  0  0
 11 18  1  0  0  0  0
 11 12  2  0  0  0  0
 12 14  1  0  0  0  0
 13 12  1  0  0  0  0
 14 15  1  0  0  0  0
 16 14  2  0  0  0  0
 16 17  1  0  0  0  0
 18 16  1  0  0  0  0
 19 20  1  6  0  0  0
 19 31  1  0  0  0  0
 21 19  1  0  0  0  0
 21 26  1  0  0  0  0
 22 21  2  0  0  0  0
 23 22  1  0  0  0  0
 23 24  2  0  0  0  0
 24 25  1  0  0  0  0
 25 26  2  0  0  0  0
 25 30  1  0  0  0  0
 27 22  1  0  0  0  0
 28 23  1  0  0  0  0
 29 24  1  0  0  0  0
 31 32  1  0  0  0  0
 32 34  1  0  0  0  0
 32 33  1  0  0  0  0
 35 32  1  0  0  0  0
M  END
>  <minimizedAffinity>
-5.4570365

$$$$

 OpenBabel03272502363D

 35 37  0  0  1  0  0  0  0  0999 V2000
   37.5320   21.9600   34.0150 C   0  0  0  0  0  3  0  0  0  0  0  0
   38.3490   22.8630   33.5740 C   0  0  0  0  0  3  0  0  0  0  0  0
   34.9860   19.5510   32.7570 C   0  0  0  0  0  0  0  0  0  0  0  0
   35.6850   20.4420   33.5640 C   0  0  0  0  0  0  0  0  0  0  0  0
   36.8420   21.0480   33.1380 C   0  0  0  0  0  0  0  0  0  0  0  0
   37.2690   20.7380   31.9030 N   0  0  0  0  0  0  0  0  0  0  0  0
   36.6040   19.8820   31.1190 C   0  0  0  0  0  0  0  0  0  0  0  0
   35.4650   19.2900   31.5430 N   0  0  0  0  0  0  0  0  0  0  0  0
   34.0770   19.0570   33.0520 H   0  0  0  0  0  0  0  0  0  0  0  0
   35.2060   20.5790   34.5220 H   0  0  0  0  0  0  0  0  0  0  0  0
   37.1160   19.5840   29.7850 C   0  0  0  0  0  0  0  0  0  0  0  0
   38.3760   19.9590   29.3070 C   0  0  0  0  0  0  0  0  0  0  0  0
   39.1480   20.5010   29.8060 H   0  0  0  0  0  0  0  0  0  0  0  0
   38.4060   19.4590   28.0100 C   0  0  0  0  0  0  0  0  0  0  0  0
   39.2800   19.5930   27.3570 H   0  0  0  0  0  0  0  0  0  0  0  0
   37.2010   18.8230   27.7630 C   0  0  0  0  0  0  0  0  0  0  0  0
   36.9700   18.3440   26.8090 H   0  0  0  0  0  0  0  0  0  0  0  0
   36.4770   18.9270   28.8430 O   0  0  0  0  0  0  0  0  0  0  0  0
   39.0080   23.7630   34.5780 C   0  0  1  0  0  0  0  0  0  0  0  0
   40.0910   23.8500   34.3710 H   0  0  0  0  0  0  0  0  0  0  0  0
   38.3470   25.0760   34.5680 C   0  0  0  0  0  0  0  0  0  0  0  0
   38.6920   25.8840   35.6850 C   0  0  0  0  0  0  0  0  0  0  0  0
   38.1950   27.1500   35.8890 C   0  0  0  0  0  0  0  0  0  0  0  0
   37.2930   27.7220   34.9750 C   0  0  0  0  0  0  0  0  0  0  0  0
   37.0100   26.8670   33.9150 C   0  0  0  0  0  0  0  0  0  0  0  0
   37.4800   25.6350   33.6940 N   0  0  0  0  0  0  0  0  0  0  0  0
   39.3670   25.6690   36.5250 H   0  0  0  0  0  0  0  0  0  0  0  0
   38.4150   27.8130   36.7110 H   0  0  0  0  0  0  0  0  0  0  0  0
   36.8190   28.6700   34.9760 H   0  0  0  0  0  0  0  0  0  0  0  0
   36.3250   27.1680   33.1200 H   0  0  0  0  0  0  0  0  0  0  0  0
   38.6910   23.0500   36.2280 S   0  0  0  0  0  0  0  0  0  0  0  0
   40.2160   22.7840   37.1150 C   0  0  0  0  0  0  0  0  0  0  0  0
   41.2990   23.4380   36.5530 F   0  0  0  0  0  0  0  0  0  0  0  0
   40.0830   23.0740   38.4590 F   0  0  0  0  0  0  0  0  0  0  0  0
   40.4760   21.4000   37.0530 F   0  0  0  0  0  0  0  0  0  0  0  0
  2  1  2  0  0  0  0
  2 19  1  0  0  0  0
  3  9  1  0  0  0  0
  3  4  1  0  0  0  0
  4 10  1  0  0  0  0
  5  4  2  0  0  0  0
  5  1  1  0  0  0  0
  6  5  1  0  0  0  0
  7  8  1  0  0  0  0
  7  6  2  0  0  0  0
  8  3  2  0  0  0  0
 11  7  1  0  0  0  0
 12 11  2  0  0  0  0
 12 13  1  0  0  0  0
 14 12  1  0  0  0  0
 15 14  1  0  0  0  0
 16 14  2  0  0  0  0
 16 18  1  0  0  0  0
 17 16  1  0  0  0  0
 18 11  1  0  0  0  0
 19 20  1  6  0  0  0
 19 31  1  0  0  0  0
 21 19  1  0  0  0  0
 21 22  1  0  0  0  0
 22 23  2  0  0  0  0
 22 27  1  0  0  0  0
 23 28  1  0  0  0  0
 24 29  1  0  0  0  0
 24 23  1  0  0  0  0
 25 24  2  0  0  0  0
 26 25  1  0  0  0  0
 26 21  2  0  0  0  0
 30 25  1  0  0  0  0
 31 32  1  0  0  0  0
 32 34  1  0  0  0  0
 33 32  1  0  0  0  0
 35 32  1  0  0  0  0
M  END
>  <minimizedAffinity>
-5.42817163

$$$$

 OpenBabel03272502363D

 35 37  0  0  1  0  0  0  0  0999 V2000
   35.5150   29.9600   34.3060 C   0  0  0  0  0  3  0  0  0  0  0  0
   35.2270   31.2210   34.3670 C   0  0  0  0  0  3  0  0  0  0  0  0
   36.3890   29.4430   30.7230 C   0  0  0  0  0  0  0  0  0  0  0  0
   36.1010   30.0390   31.9460 C   0  0  0  0  0  0  0  0  0  0  0  0
   35.8120   29.2940   33.0630 C   0  0  0  0  0  0  0  0  0  0  0  0
   35.8200   27.9590   32.9190 N   0  0  0  0  0  0  0  0  0  0  0  0
   36.0970   27.3750   31.7480 C   0  0  0  0  0  0  0  0  0  0  0  0
   36.3810   28.1130   30.6520 N   0  0  0  0  0  0  0  0  0  0  0  0
   36.6210   29.9890   29.8260 H   0  0  0  0  0  0  0  0  0  0  0  0
   36.1380   31.1170   31.8870 H   0  0  0  0  0  0  0  0  0  0  0  0
   36.0910   25.9190   31.6510 C   0  0  0  0  0  0  0  0  0  0  0  0
   35.1480   25.1650   30.9430 C   0  0  0  0  0  0  0  0  0  0  0  0
   34.3100   25.5020   30.3760 H   0  0  0  0  0  0  0  0  0  0  0  0
   35.5510   23.8490   31.1430 C   0  0  0  0  0  0  0  0  0  0  0  0
   35.0030   23.0030   30.7060 H   0  0  0  0  0  0  0  0  0  0  0  0
   36.6840   23.8590   31.9390 C   0  0  0  0  0  0  0  0  0  0  0  0
   37.2000   22.9470   32.2440 H   0  0  0  0  0  0  0  0  0  0  0  0
   36.9590   25.1050   32.2110 O   0  0  0  0  0  0  0  0  0  0  0  0
   34.9300   31.8080   35.7160 C   0  0  1  0  0  0  0  0  0  0  0  0
   35.3020   31.1450   36.5190 H   0  0  0  0  0  0  0  0  0  0  0  0
   35.5170   33.1530   35.8060 C   0  0  0  0  0  0  0  0  0  0  0  0
   36.8290   33.2280   35.2680 C   0  0  0  0  0  0  0  0  0  0  0  0
   37.5760   34.3830   35.2440 C   0  0  0  0  0  0  0  0  0  0  0  0
   37.0600   35.5800   35.7680 C   0  0  0  0  0  0  0  0  0  0  0  0
   35.7750   35.4190   36.2720 C   0  0  0  0  0  0  0  0  0  0  0  0
   35.0290   34.3100   36.3070 N   0  0  0  0  0  0  0  0  0  0  0  0
   37.4440   32.4430   34.8060 H   0  0  0  0  0  0  0  0  0  0  0  0
   38.5740   34.5060   34.8520 H   0  0  0  0  0  0  0  0  0  0  0  0
   37.4910   36.5470   35.8300 H   0  0  0  0  0  0  0  0  0  0  0  0
   35.2360   36.2610   36.7140 H   0  0  0  0  0  0  0  0  0  0  0  0
   33.1210   32.0390   35.8150 S   0  0  0  0  0  0  0  0  0  0  0  0
   32.3490   30.6820   36.6780 C   0  0  0  0  0  0  0  0  0  0  0  0
   32.5800   29.4520   36.0870 F   0  0  0  0  0  0  0  0  0  0  0  0
   32.6780   30.6760   38.0200 F   0  0  0  0  0  0  0  0  0  0  0  0
   30.9610   30.9210   36.6330 F   0  0  0  0  0  0  0  0  0  0  0  0
  1  2  2  0  0  0  0
  2 19  1  0  0  0  0
  3  4  1  0  0  0  0
  4  5  2  0  0  0  0
  5  1  1  0  0  0  0
  6  5  1  0  0  0  0
  7  6  2  0  0  0  0
  8  3  2  0  0  0  0
  8  7  1  0  0  0  0
  9  3  1  0  0  0  0
 10  4  1  0  0  0  0
 11  7  1  0  0  0  0
 11 18  1  0  0  0  0
 12 14  1  0  0  0  0
 12 11  2  0  0  0  0
 13 12  1  0  0  0  0
 14 16  2  0  0  0  0
 15 14  1  0  0  0  0
 16 18  1  0  0  0  0
 16 17  1  0  0  0  0
 19 21  1  0  0  0  0
 19 31  1  0  0  0  0
 19 20  1  1  0  0  0
 21 26  1  0  0  0  0
 22 21  2  0  0  0  0
 23 22  1  0  0  0  0
 23 24  2  0  0  0  0
 24 29  1  0  0  0  0
 24 25  1  0  0  0  0
 25 26  2  0  0  0  0
 25 30  1  0  0  0  0
 27 22  1  0  0  0  0
 28 23  1  0  0  0  0
 31 32  1  0  0  0  0
 32 34  1  0  0  0  0
 33 32  1  0  0  0  0
 35 32  1  0  0  0  0
M  END
>  <minimizedAffinity>
-5.38229322

$$$$

 OpenBabel03272502363D

 35 37  0  0  1  0  0  0  0  0999 V2000
   37.6680   24.2110   33.4220 C   0  0  0  0  0  3  0  0  0  0  0  0
   38.0180   24.8180   34.5100 C   0  0  0  0  0  3  0  0  0  0  0  0
   35.0690   24.7000   30.7990 C   0  0  0  0  0  0  0  0  0  0  0  0
   35.8670   24.1330   31.7870 C   0  0  0  0  0  0  0  0  0  0  0  0
   36.8650   24.8460   32.4070 C   0  0  0  0  0  0  0  0  0  0  0  0
   37.0350   26.1180   32.0120 N   0  0  0  0  0  0  0  0  0  0  0  0
   36.2720   26.6720   31.0640 C   0  0  0  0  0  0  0  0  0  0  0  0
   35.2920   25.9670   30.4580 N   0  0  0  0  0  0  0  0  0  0  0  0
   34.2780   24.1780   30.2910 H   0  0  0  0  0  0  0  0  0  0  0  0
   35.5980   23.1060   31.9830 H   0  0  0  0  0  0  0  0  0  0  0  0
   36.5030   28.0600   30.6760 C   0  0  0  0  0  0  0  0  0  0  0  0
   36.1970   29.1750   31.4650 C   0  0  0  0  0  0  0  0  0  0  0  0
   35.7640   29.2080   32.4390 H   0  0  0  0  0  0  0  0  0  0  0  0
   36.5910   30.2570   30.6850 C   0  0  0  0  0  0  0  0  0  0  0  0
   36.4780   31.2940   31.0330 H   0  0  0  0  0  0  0  0  0  0  0  0
   37.1020   29.7690   29.4940 C   0  0  0  0  0  0  0  0  0  0  0  0
   37.4810   30.4190   28.7030 H   0  0  0  0  0  0  0  0  0  0  0  0
   37.0260   28.4680   29.5410 O   0  0  0  0  0  0  0  0  0  0  0  0
   38.8510   24.0580   35.5000 C   0  0  1  0  0  0  0  0  0  0  0  0
   38.7020   22.9690   35.3790 H   0  0  0  0  0  0  0  0  0  0  0  0
   40.2640   24.4330   35.3440 C   0  0  0  0  0  0  0  0  0  0  0  0
   40.4410   25.7470   34.8330 C   0  0  0  0  0  0  0  0  0  0  0  0
   41.6720   26.3140   34.6020 C   0  0  0  0  0  0  0  0  0  0  0  0
   42.8520   25.5970   34.8680 C   0  0  0  0  0  0  0  0  0  0  0  0
   42.5900   24.3240   35.3640 C   0  0  0  0  0  0  0  0  0  0  0  0
   41.4040   23.7520   35.5970 N   0  0  0  0  0  0  0  0  0  0  0  0
   39.6890   26.4970   34.5520 H   0  0  0  0  0  0  0  0  0  0  0  0
   41.8740   27.3010   34.2170 H   0  0  0  0  0  0  0  0  0  0  0  0
   43.8680   25.8740   34.7500 H   0  0  0  0  0  0  0  0  0  0  0  0
   43.4040   23.6430   35.6190 H   0  0  0  0  0  0  0  0  0  0  0  0
   38.3600   24.6270   37.1650 S   0  0  0  0  0  0  0  0  0  0  0  0
   38.7470   23.3990   38.4010 C   0  0  0  0  0  0  0  0  0  0  0  0
   39.6230   22.4260   37.9520 F   0  0  0  0  0  0  0  0  0  0  0  0
   39.1810   23.9780   39.5770 F   0  0  0  0  0  0  0  0  0  0  0  0
   37.5310   22.7620   38.7210 F   0  0  0  0  0  0  0  0  0  0  0  0
  1  2  2  0  0  0  0
  2 19  1  0  0  0  0
  3  4  1  0  0  0  0
  4 10  1  0  0  0  0
  4  5  2  0  0  0  0
  5  1  1  0  0  0  0
  6  5  1  0  0  0  0
  7  6  2  0  0  0  0
  8  3  2  0  0  0  0
  8  7  1  0  0  0  0
  9  3  1  0  0  0  0
 11  7  1  0  0  0  0
 11 12  2  0  0  0  0
 12 13  1  0  0  0  0
 14 15  1  0  0  0  0
 14 12  1  0  0  0  0
 16 18  1  0  0  0  0
 16 14  2  0  0  0  0
 17 16  1  0  0  0  0
 18 11  1  0  0  0  0
 19 20  1  6  0  0  0
 19 31  1  0  0  0  0
 21 19  1  0  0  0  0
 21 26  1  0  0  0  0
 22 21  2  0  0  0  0
 23 22  1  0  0  0  0
 23 24  2  0  0  0  0
 24 25  1  0  0  0  0
 25 26  2  0  0  0  0
 25 30  1  0  0  0  0
 27 22  1  0  0  0  0
 28 23  1  0  0  0  0
 29 24  1  0  0  0  0
 31 32  1  0  0  0  0
 32 35  1  0  0  0  0
 32 34  1  0  0  0  0
 33 32  1  0  0  0  0
M  END
>  <minimizedAffinity>
-5.37169075

$$$$

 OpenBabel03272502363D

 35 37  0  0  1  0  0  0  0  0999 V2000
   38.5760   25.0350   32.7630 C   0  0  0  0  0  3  0  0  0  0  0  0
   37.9940   24.3680   33.7070 C   0  0  0  0  0  3  0  0  0  0  0  0
   38.2330   28.1360   30.7280 C   0  0  0  0  0  0  0  0  0  0  0  0
   38.6680   26.9050   31.2080 C   0  0  0  0  0  0  0  0  0  0  0  0
   38.0860   26.3090   32.3010 C   0  0  0  0  0  0  0  0  0  0  0  0
   37.0750   26.9720   32.8860 N   0  0  0  0  0  0  0  0  0  0  0  0
   36.6490   28.1560   32.4310 C   0  0  0  0  0  0  0  0  0  0  0  0
   37.2250   28.7370   31.3550 N   0  0  0  0  0  0  0  0  0  0  0  0
   38.6600   28.6350   29.8770 H   0  0  0  0  0  0  0  0  0  0  0  0
   39.4860   26.5110   30.6240 H   0  0  0  0  0  0  0  0  0  0  0  0
   35.5450   28.8300   33.1070 C   0  0  0  0  0  0  0  0  0  0  0  0
   35.6360   29.4700   34.3490 C   0  0  0  0  0  0  0  0  0  0  0  0
   36.4830   29.5750   34.9880 H   0  0  0  0  0  0  0  0  0  0  0  0
   34.3510   29.9530   34.5730 C   0  0  0  0  0  0  0  0  0  0  0  0
   34.0920   30.5130   35.4820 H   0  0  0  0  0  0  0  0  0  0  0  0
   33.5600   29.5950   33.4940 C   0  0  0  0  0  0  0  0  0  0  0  0
   32.5010   29.8550   33.4240 H   0  0  0  0  0  0  0  0  0  0  0  0
   34.3140   28.9350   32.6590 O   0  0  0  0  0  0  0  0  0  0  0  0
   38.5910   23.0490   34.1030 C   0  0  1  0  0  0  0  0  0  0  0  0
   39.4970   22.8360   33.5070 H   0  0  0  0  0  0  0  0  0  0  0  0
   38.8790   23.0540   35.5460 C   0  0  0  0  0  0  0  0  0  0  0  0
   37.9270   23.7870   36.3030 C   0  0  0  0  0  0  0  0  0  0  0  0
   37.9920   23.9320   37.6690 C   0  0  0  0  0  0  0  0  0  0  0  0
   39.0360   23.3430   38.4030 C   0  0  0  0  0  0  0  0  0  0  0  0
   39.9200   22.6450   37.5870 C   0  0  0  0  0  0  0  0  0  0  0  0
   39.8780   22.4900   36.2600 N   0  0  0  0  0  0  0  0  0  0  0  0
   37.0330   24.3310   35.9690 H   0  0  0  0  0  0  0  0  0  0  0  0
   37.3060   24.4730   38.3020 H   0  0  0  0  0  0  0  0  0  0  0  0
   39.2370   23.3520   39.4440 H   0  0  0  0  0  0  0  0  0  0  0  0
   40.7860   22.1300   38.0100 H   0  0  0  0  0  0  0  0  0  0  0  0
   37.3030   21.7790   33.8510 S   0  0  0  0  0  0  0  0  0  0  0  0
   36.6230   21.8770   32.2040 C   0  0  0  0  0  0  0  0  0  0  0  0
   35.5880   22.7890   32.0900 F   0  0  0  0  0  0  0  0  0  0  0  0
   37.6050   22.0940   31.2570 F   0  0  0  0  0  0  0  0  0  0  0  0
   36.0990   20.6000   31.9150 F   0  0  0  0  0  0  0  0  0  0  0  0
  1  2  2  0  0  0  0
  2 19  1  0  0  0  0
  3  4  2  0  0  0  0
  3  8  1  0  0  0  0
  4  5  1  0  0  0  0
  5  1  1  0  0  0  0
  5  6  2  0  0  0  0
  7  6  1  0  0  0  0
  7 11  1  0  0  0  0
  8  7  2  0  0  0  0
  9  3  1  0  0  0  0
 10  4  1  0  0  0  0
 11 12  2  0  0  0  0
 12 14  1  0  0  0  0
 12 13  1  0  0  0  0
 14 15  1  0  0  0  0
 16 14  2  0  0  0  0
 17 16  1  0  0  0  0
 18 11  1  0  0  0  0
 18 16  1  0  0  0  0
 19 20  1  6  0  0  0
 19 21  1  0  0  0  0
 21 26  2  0  0  0  0
 21 22  1  0  0  0  0
 22 23  2  0  0  0  0
 23 28  1  0  0  0  0
 23 24  1  0  0  0  0
 24 29  1  0  0  0  0
 25 30  1  0  0  0  0
 25 24  2  0  0  0  0
 26 25  1  0  0  0  0
 27 22  1  0  0  0  0
 31 19  1  0  0  0  0
 32 31  1  0  0  0  0
 33 32  1  0  0  0  0
 34 32  1  0  0  0  0
 35 32  1  0  0  0  0
M  END
>  <minimizedAffinity>
-5.2571516

$$$$
