
 OpenBabel03272510033D

 20 21  0  0  0  0  0  0  0  0999 V2000
   38.9470   22.8060   34.9250 C   0  0  0  0  0  0  0  0  0  0  0  0
   38.4520   23.9220   34.2090 C   0  0  0  0  0  0  0  0  0  0  0  0
   37.8820   24.9580   34.9350 C   0  0  0  0  0  0  0  0  0  0  0  0
   37.8250   24.8570   36.2910 N   0  0  0  0  0  0  0  0  0  0  0  0
   38.3100   23.7740   36.9350 C   0  0  0  0  0  0  0  0  0  0  0  0
   38.8660   22.7580   36.2620 N   0  0  0  0  0  0  0  0  0  0  0  0
   39.3980   21.9810   34.3900 H   0  0  0  0  0  0  0  0  0  0  0  0
   38.5190   23.9610   33.1280 H   0  0  0  0  0  0  0  0  0  0  0  0
   37.3550   26.1330   34.2510 C   0  0  0  0  0  0  0  0  0  0  0  0
   37.0650   27.3350   34.8610 C   0  0  0  0  0  0  0  0  0  0  0  0
   37.1840   27.5820   35.9150 H   0  0  0  0  0  0  0  0  0  0  0  0
   36.6010   28.1040   33.7890 C   0  0  0  0  0  0  0  0  0  0  0  0
   36.2730   29.1430   33.9100 H   0  0  0  0  0  0  0  0  0  0  0  0
   36.6320   27.3550   32.6320 C   0  0  0  0  0  0  0  0  0  0  0  0
   36.3230   27.7050   31.6360 H   0  0  0  0  0  0  0  0  0  0  0  0
   37.0990   26.1600   32.9640 O   0  0  0  0  0  0  0  0  0  0  0  0
   38.2070   23.7580   38.4140 C   0  0  0  0  0  0  0  0  0  0  0  0
   37.3210   22.8020   38.8850 F   0  0  0  0  0  0  0  0  0  0  0  0
   39.4450   23.4460   38.9990 F   0  0  0  0  0  0  0  0  0  0  0  0
   37.8410   24.9540   38.9520 F   0  0  0  0  0  0  0  0  0  0  0  0
  1  6  1  0  0  0  0
  2  1  2  0  0  0  0
  2  3  1  0  0  0  0
  3  4  2  0  0  0  0
  4  5  1  0  0  0  0
  5 17  1  0  0  0  0
  6  5  2  0  0  0  0
  7  1  1  0  0  0  0
  8  2  1  0  0  0  0
  9 10  2  0  0  0  0
  9  3  1  0  0  0  0
 10 11  1  0  0  0  0
 12 13  1  0  0  0  0
 12 10  1  0  0  0  0
 14 16  1  0  0  0  0
 14 12  2  0  0  0  0
 15 14  1  0  0  0  0
 16  9  1  0  0  0  0
 17 18  1  0  0  0  0
 17 20  1  0  0  0  0
 17 19  1  0  0  0  0
M  END
>  <minimizedAffinity>
-4.85347795

$$$$

 OpenBabel03272510033D

 20 21  0  0  0  0  0  0  0  0999 V2000
   39.4690   23.5690   34.8660 C   0  0  0  0  0  0  0  0  0  0  0  0
   38.8250   24.6530   34.2240 C   0  0  0  0  0  0  0  0  0  0  0  0
   38.0080   25.4700   34.9920 C   0  0  0  0  0  0  0  0  0  0  0  0
   37.8650   25.1960   36.3180 N   0  0  0  0  0  0  0  0  0  0  0  0
   38.4990   24.1520   36.8910 C   0  0  0  0  0  0  0  0  0  0  0  0
   39.2940   23.3450   36.1750 N   0  0  0  0  0  0  0  0  0  0  0  0
   40.1130   22.9120   34.2950 H   0  0  0  0  0  0  0  0  0  0  0  0
   38.9670   24.8350   33.1650 H   0  0  0  0  0  0  0  0  0  0  0  0
   37.3170   26.6020   34.3850 C   0  0  0  0  0  0  0  0  0  0  0  0
   37.1320   26.7770   33.0300 C   0  0  0  0  0  0  0  0  0  0  0  0
   37.4630   26.1140   32.2310 H   0  0  0  0  0  0  0  0  0  0  0  0
   36.4320   27.9870   32.9830 C   0  0  0  0  0  0  0  0  0  0  0  0
   36.1100   28.4420   32.0390 H   0  0  0  0  0  0  0  0  0  0  0  0
   36.2390   28.4620   34.2620 C   0  0  0  0  0  0  0  0  0  0  0  0
   35.7180   29.3940   34.5250 H   0  0  0  0  0  0  0  0  0  0  0  0
   36.7960   27.5830   35.0830 O   0  0  0  0  0  0  0  0  0  0  0  0
   38.2850   23.9370   38.3420 C   0  0  0  0  0  0  0  0  0  0  0  0
   37.8860   25.0850   39.0070 F   0  0  0  0  0  0  0  0  0  0  0  0
   37.2650   22.9970   38.5640 F   0  0  0  0  0  0  0  0  0  0  0  0
   39.3770   23.4490   38.9920 F   0  0  0  0  0  0  0  0  0  0  0  0
  1  6  1  0  0  0  0
  2  1  2  0  0  0  0
  2  3  1  0  0  0  0
  3  4  2  0  0  0  0
  4  5  1  0  0  0  0
  5 17  1  0  0  0  0
  6  5  2  0  0  0  0
  7  1  1  0  0  0  0
  8  2  1  0  0  0  0
  9  3  1  0  0  0  0
  9 16  1  0  0  0  0
 10  9  2  0  0  0  0
 11 10  1  0  0  0  0
 12 10  1  0  0  0  0
 12 14  2  0  0  0  0
 13 12  1  0  0  0  0
 14 15  1  0  0  0  0
 14 16  1  0  0  0  0
 17 19  1  0  0  0  0
 17 20  1  0  0  0  0
 17 18  1  0  0  0  0
M  END
>  <minimizedAffinity>
-4.64655876

$$$$

 OpenBabel03272510033D

 20 21  0  0  0  0  0  0  0  0999 V2000
   40.1150   23.3520   35.0180 C   0  0  0  0  0  0  0  0  0  0  0  0
   39.2020   22.6270   34.2150 C   0  0  0  0  0  0  0  0  0  0  0  0
   37.9920   22.2540   34.7820 C   0  0  0  0  0  0  0  0  0  0  0  0
   37.7380   22.6010   36.0740 N   0  0  0  0  0  0  0  0  0  0  0  0
   38.6360   23.2940   36.8050 C   0  0  0  0  0  0  0  0  0  0  0  0
   39.8130   23.6670   36.2850 N   0  0  0  0  0  0  0  0  0  0  0  0
   41.0670   23.6580   34.6060 H   0  0  0  0  0  0  0  0  0  0  0  0
   39.4460   22.3730   33.1900 H   0  0  0  0  0  0  0  0  0  0  0  0
   37.0130   21.5050   34.0030 C   0  0  0  0  0  0  0  0  0  0  0  0
   35.9600   20.7930   34.5370 C   0  0  0  0  0  0  0  0  0  0  0  0
   35.7070   20.6860   35.5910 H   0  0  0  0  0  0  0  0  0  0  0  0
   35.3440   20.2770   33.3920 C   0  0  0  0  0  0  0  0  0  0  0  0
   34.4500   19.6440   33.4410 H   0  0  0  0  0  0  0  0  0  0  0  0
   36.0310   20.6880   32.2700 C   0  0  0  0  0  0  0  0  0  0  0  0
   35.7700   20.4320   31.2330 H   0  0  0  0  0  0  0  0  0  0  0  0
   37.0400   21.4350   32.6930 O   0  0  0  0  0  0  0  0  0  0  0  0
   38.2660   23.6280   38.2010 C   0  0  0  0  0  0  0  0  0  0  0  0
   37.2710   22.8090   38.7090 F   0  0  0  0  0  0  0  0  0  0  0  0
   39.3640   23.4670   39.0620 F   0  0  0  0  0  0  0  0  0  0  0  0
   37.8580   24.9160   38.3680 F   0  0  0  0  0  0  0  0  0  0  0  0
  1  6  1  0  0  0  0
  2  3  1  0  0  0  0
  2  1  2  0  0  0  0
  3  4  2  0  0  0  0
  4  5  1  0  0  0  0
  5 17  1  0  0  0  0
  6  5  2  0  0  0  0
  7  1  1  0  0  0  0
  8  2  1  0  0  0  0
  9 10  2  0  0  0  0
  9  3  1  0  0  0  0
 10 11  1  0  0  0  0
 12 13  1  0  0  0  0
 12 10  1  0  0  0  0
 14 16  1  0  0  0  0
 14 12  2  0  0  0  0
 15 14  1  0  0  0  0
 16  9  1  0  0  0  0
 17 20  1  0  0  0  0
 17 18  1  0  0  0  0
 17 19  1  0  0  0  0
M  END
>  <minimizedAffinity>
-4.62987566

$$$$

 OpenBabel03272510033D

 20 21  0  0  0  0  0  0  0  0999 V2000
   37.8880   22.4380   34.9000 C   0  0  0  0  0  0  0  0  0  0  0  0
   38.5260   23.4570   34.1520 C   0  0  0  0  0  0  0  0  0  0  0  0
   39.0510   24.5390   34.8450 C   0  0  0  0  0  0  0  0  0  0  0  0
   38.9320   24.5710   36.2000 N   0  0  0  0  0  0  0  0  0  0  0  0
   38.3160   23.5780   36.8750 C   0  0  0  0  0  0  0  0  0  0  0  0
   37.7990   22.5210   36.2340 N   0  0  0  0  0  0  0  0  0  0  0  0
   37.4670   21.5820   34.3900 H   0  0  0  0  0  0  0  0  0  0  0  0
   38.5990   23.3900   33.0730 H   0  0  0  0  0  0  0  0  0  0  0  0
   39.7190   25.6190   34.1280 C   0  0  0  0  0  0  0  0  0  0  0  0
   40.5870   26.5240   34.6990 C   0  0  0  0  0  0  0  0  0  0  0  0
   40.8980   26.5680   35.7420 H   0  0  0  0  0  0  0  0  0  0  0  0
   40.9360   27.3260   33.6070 C   0  0  0  0  0  0  0  0  0  0  0  0
   41.6290   28.1710   33.6970 H   0  0  0  0  0  0  0  0  0  0  0  0
   40.2840   26.8810   32.4770 C   0  0  0  0  0  0  0  0  0  0  0  0
   40.3710   27.3240   31.4750 H   0  0  0  0  0  0  0  0  0  0  0  0
   39.5540   25.8380   32.8450 O   0  0  0  0  0  0  0  0  0  0  0  0
   38.2400   23.7010   38.3500 C   0  0  0  0  0  0  0  0  0  0  0  0
   37.8360   24.9580   38.7700 F   0  0  0  0  0  0  0  0  0  0  0  0
   37.2970   22.8050   38.8800 F   0  0  0  0  0  0  0  0  0  0  0  0
   39.4100   23.4160   38.9870 F   0  0  0  0  0  0  0  0  0  0  0  0
  1  6  1  0  0  0  0
  2  3  1  0  0  0  0
  2  1  2  0  0  0  0
  3  4  2  0  0  0  0
  4  5  1  0  0  0  0
  5 17  1  0  0  0  0
  6  5  2  0  0  0  0
  7  1  1  0  0  0  0
  8  2  1  0  0  0  0
  9 10  2  0  0  0  0
  9  3  1  0  0  0  0
 10 11  1  0  0  0  0
 12 13  1  0  0  0  0
 12 10  1  0  0  0  0
 14 16  1  0  0  0  0
 14 12  2  0  0  0  0
 15 14  1  0  0  0  0
 16  9  1  0  0  0  0
 17 18  1  0  0  0  0
 17 19  1  0  0  0  0
 17 20  1  0  0  0  0
M  END
>  <minimizedAffinity>
-4.52923441

$$$$

 OpenBabel03272510033D

 20 21  0  0  0  0  0  0  0  0999 V2000
   38.2760   27.4480   35.5460 C   0  0  0  0  0  0  0  0  0  0  0  0
   38.0010   27.0070   34.2290 C   0  0  0  0  0  0  0  0  0  0  0  0
   37.7840   25.6510   34.0310 C   0  0  0  0  0  0  0  0  0  0  0  0
   37.8430   24.8130   35.1020 N   0  0  0  0  0  0  0  0  0  0  0  0
   38.1080   25.2750   36.3420 C   0  0  0  0  0  0  0  0  0  0  0  0
   38.3220   26.5790   36.5650 N   0  0  0  0  0  0  0  0  0  0  0  0
   38.4500   28.4990   35.7350 H   0  0  0  0  0  0  0  0  0  0  0  0
   37.9630   27.7100   33.4050 H   0  0  0  0  0  0  0  0  0  0  0  0
   37.4970   25.1390   32.6960 C   0  0  0  0  0  0  0  0  0  0  0  0
   38.4470   24.6770   31.8090 C   0  0  0  0  0  0  0  0  0  0  0  0
   39.5230   24.6250   31.9670 H   0  0  0  0  0  0  0  0  0  0  0  0
   37.6660   24.3120   30.7070 C   0  0  0  0  0  0  0  0  0  0  0  0
   38.1010   23.8930   29.7920 H   0  0  0  0  0  0  0  0  0  0  0  0
   36.3370   24.5640   30.9760 C   0  0  0  0  0  0  0  0  0  0  0  0
   35.5010   24.3730   30.2880 H   0  0  0  0  0  0  0  0  0  0  0  0
   36.2850   25.0670   32.2000 O   0  0  0  0  0  0  0  0  0  0  0  0
   38.1470   24.2850   37.4440 C   0  0  0  0  0  0  0  0  0  0  0  0
   39.3430   23.5890   37.5060 F   0  0  0  0  0  0  0  0  0  0  0  0
   38.0140   24.9190   38.6910 F   0  0  0  0  0  0  0  0  0  0  0  0
   37.1430   23.3670   37.3940 F   0  0  0  0  0  0  0  0  0  0  0  0
  1  7  1  0  0  0  0
  1  6  1  0  0  0  0
  2  1  2  0  0  0  0
  3  2  1  0  0  0  0
  3  4  2  0  0  0  0
  4  5  1  0  0  0  0
  5  6  2  0  0  0  0
  5 17  1  0  0  0  0
  8  2  1  0  0  0  0
  9  3  1  0  0  0  0
 10 11  1  0  0  0  0
 10  9  2  0  0  0  0
 12 14  2  0  0  0  0
 12 10  1  0  0  0  0
 13 12  1  0  0  0  0
 14 16  1  0  0  0  0
 15 14  1  0  0  0  0
 16  9  1  0  0  0  0
 17 18  1  0  0  0  0
 17 19  1  0  0  0  0
 20 17  1  0  0  0  0
M  END
>  <minimizedAffinity>
-4.3613615

$$$$

 OpenBabel03272510033D

 20 21  0  0  0  0  0  0  0  0999 V2000
   38.5880   22.8960   32.6810 C   0  0  0  0  0  0  0  0  0  0  0  0
   38.8530   23.2580   34.0240 C   0  0  0  0  0  0  0  0  0  0  0  0
   38.1010   22.6530   35.0200 C   0  0  0  0  0  0  0  0  0  0  0  0
   37.1500   21.7450   34.6650 N   0  0  0  0  0  0  0  0  0  0  0  0
   36.9290   21.4280   33.3720 C   0  0  0  0  0  0  0  0  0  0  0  0
   37.6390   21.9960   32.3880 N   0  0  0  0  0  0  0  0  0  0  0  0
   39.1570   23.3500   31.8800 H   0  0  0  0  0  0  0  0  0  0  0  0
   39.6210   23.9850   34.2610 H   0  0  0  0  0  0  0  0  0  0  0  0
   38.3290   22.9860   36.4210 C   0  0  0  0  0  0  0  0  0  0  0  0
   39.5280   22.8270   37.0830 C   0  0  0  0  0  0  0  0  0  0  0  0
   40.4600   22.4400   36.6700 H   0  0  0  0  0  0  0  0  0  0  0  0
   39.2170   23.2840   38.3680 C   0  0  0  0  0  0  0  0  0  0  0  0
   39.9550   23.3010   39.1790 H   0  0  0  0  0  0  0  0  0  0  0  0
   37.8970   23.6780   38.4130 C   0  0  0  0  0  0  0  0  0  0  0  0
   37.3820   24.0800   39.2980 H   0  0  0  0  0  0  0  0  0  0  0  0
   37.3980   23.4780   37.2020 O   0  0  0  0  0  0  0  0  0  0  0  0
   35.8750   20.4260   33.0860 C   0  0  0  0  0  0  0  0  0  0  0  0
   35.4280   19.7700   34.2210 F   0  0  0  0  0  0  0  0  0  0  0  0
   34.7390   21.0380   32.5310 F   0  0  0  0  0  0  0  0  0  0  0  0
   36.2520   19.4750   32.1870 F   0  0  0  0  0  0  0  0  0  0  0  0
  1  2  1  0  0  0  0
  2  8  1  0  0  0  0
  2  3  2  0  0  0  0
  3  9  1  0  0  0  0
  4  3  1  0  0  0  0
  5  4  2  0  0  0  0
  6  1  2  0  0  0  0
  6  5  1  0  0  0  0
  7  1  1  0  0  0  0
  9 10  2  0  0  0  0
  9 16  1  0  0  0  0
 10 12  1  0  0  0  0
 11 10  1  0  0  0  0
 12 14  2  0  0  0  0
 12 13  1  0  0  0  0
 14 15  1  0  0  0  0
 16 14  1  0  0  0  0
 17  5  1  0  0  0  0
 17 18  1  0  0  0  0
 19 17  1  0  0  0  0
 20 17  1  0  0  0  0
M  END
>  <minimizedAffinity>
-4.34082127

$$$$

 OpenBabel03272510033D

 20 21  0  0  0  0  0  0  0  0999 V2000
   35.5280   26.1270   31.0470 C   0  0  0  0  0  0  0  0  0  0  0  0
   36.3280   26.7020   32.0640 C   0  0  0  0  0  0  0  0  0  0  0  0
   37.0580   25.8480   32.8770 C   0  0  0  0  0  0  0  0  0  0  0  0
   36.9760   24.5060   32.6620 N   0  0  0  0  0  0  0  0  0  0  0  0
   36.2010   23.9990   31.6800 C   0  0  0  0  0  0  0  0  0  0  0  0
   35.4840   24.7980   30.8800 N   0  0  0  0  0  0  0  0  0  0  0  0
   34.9460   26.7650   30.3960 H   0  0  0  0  0  0  0  0  0  0  0  0
   36.3650   27.7770   32.1990 H   0  0  0  0  0  0  0  0  0  0  0  0
   37.8990   26.3830   33.9410 C   0  0  0  0  0  0  0  0  0  0  0  0
   37.4310   27.0450   35.0570 C   0  0  0  0  0  0  0  0  0  0  0  0
   36.3930   27.2610   35.3050 H   0  0  0  0  0  0  0  0  0  0  0  0
   38.6150   27.3410   35.7400 C   0  0  0  0  0  0  0  0  0  0  0  0
   38.6230   27.8780   36.6960 H   0  0  0  0  0  0  0  0  0  0  0  0
   39.6950   26.8620   35.0290 C   0  0  0  0  0  0  0  0  0  0  0  0
   40.7480   26.9530   35.3310 H   0  0  0  0  0  0  0  0  0  0  0  0
   39.2070   26.2850   33.9400 O   0  0  0  0  0  0  0  0  0  0  0  0
   36.1800   22.5250   31.5210 C   0  0  0  0  0  0  0  0  0  0  0  0
   37.3920   22.0080   31.0920 F   0  0  0  0  0  0  0  0  0  0  0  0
   35.9130   21.8930   32.7470 F   0  0  0  0  0  0  0  0  0  0  0  0
   35.2200   22.0790   30.6650 F   0  0  0  0  0  0  0  0  0  0  0  0
  1  2  1  0  0  0  0
  2  8  1  0  0  0  0
  2  3  2  0  0  0  0
  3  9  1  0  0  0  0
  4  3  1  0  0  0  0
  5  4  2  0  0  0  0
  6  1  2  0  0  0  0
  6  5  1  0  0  0  0
  7  1  1  0  0  0  0
  9 10  2  0  0  0  0
 10 11  1  0  0  0  0
 10 12  1  0  0  0  0
 12 13  1  0  0  0  0
 14 15  1  0  0  0  0
 14 12  2  0  0  0  0
 16  9  1  0  0  0  0
 16 14  1  0  0  0  0
 17  5  1  0  0  0  0
 17 19  1  0  0  0  0
 18 17  1  0  0  0  0
 20 17  1  0  0  0  0
M  END
>  <minimizedAffinity>
-4.33890676

$$$$

 OpenBabel03272510033D

 20 21  0  0  0  0  0  0  0  0999 V2000
   38.2050   23.7070   38.4290 C   0  0  0  0  0  0  0  0  0  0  0  0
   37.7150   24.4590   37.3340 C   0  0  0  0  0  0  0  0  0  0  0  0
   38.4320   24.4200   36.1470 C   0  0  0  0  0  0  0  0  0  0  0  0
   39.5640   23.6670   36.0880 N   0  0  0  0  0  0  0  0  0  0  0  0
   39.9960   22.9640   37.1560 C   0  0  0  0  0  0  0  0  0  0  0  0
   39.3260   22.9820   38.3160 N   0  0  0  0  0  0  0  0  0  0  0  0
   37.6690   23.7160   39.3690 H   0  0  0  0  0  0  0  0  0  0  0  0
   36.8080   25.0450   37.4250 H   0  0  0  0  0  0  0  0  0  0  0  0
   37.9760   25.1750   34.9860 C   0  0  0  0  0  0  0  0  0  0  0  0
   38.1170   24.7670   33.6760 C   0  0  0  0  0  0  0  0  0  0  0  0
   38.5770   23.8450   33.3220 H   0  0  0  0  0  0  0  0  0  0  0  0
   37.5290   25.8240   32.9740 C   0  0  0  0  0  0  0  0  0  0  0  0
   37.4620   25.8370   31.8800 H   0  0  0  0  0  0  0  0  0  0  0  0
   37.0810   26.7790   33.8620 C   0  0  0  0  0  0  0  0  0  0  0  0
   36.5770   27.7170   33.5880 H   0  0  0  0  0  0  0  0  0  0  0  0
   37.3760   26.3380   35.0760 O   0  0  0  0  0  0  0  0  0  0  0  0
   41.2380   22.1700   36.9930 C   0  0  0  0  0  0  0  0  0  0  0  0
   41.2820   21.4730   35.7970 F   0  0  0  0  0  0  0  0  0  0  0  0
   42.3680   23.0030   36.9870 F   0  0  0  0  0  0  0  0  0  0  0  0
   41.4520   21.2730   37.9950 F   0  0  0  0  0  0  0  0  0  0  0  0
  1  7  1  0  0  0  0
  2  8  1  0  0  0  0
  2  1  2  0  0  0  0
  3  2  1  0  0  0  0
  4  3  2  0  0  0  0
  4  5  1  0  0  0  0
  5  6  2  0  0  0  0
  6  1  1  0  0  0  0
  9 16  1  0  0  0  0
  9  3  1  0  0  0  0
 10  9  2  0  0  0  0
 11 10  1  0  0  0  0
 12 10  1  0  0  0  0
 12 14  2  0  0  0  0
 13 12  1  0  0  0  0
 14 16  1  0  0  0  0
 15 14  1  0  0  0  0
 17  5  1  0  0  0  0
 17 20  1  0  0  0  0
 18 17  1  0  0  0  0
 19 17  1  0  0  0  0
M  END
>  <minimizedAffinity>
-4.31810617

$$$$

 OpenBabel03272510033D

 20 21  0  0  0  0  0  0  0  0999 V2000
   38.9590   23.4620   34.8830 C   0  0  0  0  0  0  0  0  0  0  0  0
   40.1000   22.6250   34.8540 C   0  0  0  0  0  0  0  0  0  0  0  0
   40.6320   22.2100   36.0670 C   0  0  0  0  0  0  0  0  0  0  0  0
   40.0360   22.6200   37.2200 N   0  0  0  0  0  0  0  0  0  0  0  0
   38.9480   23.4170   37.2030 C   0  0  0  0  0  0  0  0  0  0  0  0
   38.4120   23.8360   36.0490 N   0  0  0  0  0  0  0  0  0  0  0  0
   38.5200   23.8040   33.9560 H   0  0  0  0  0  0  0  0  0  0  0  0
   40.5420   22.3220   33.9120 H   0  0  0  0  0  0  0  0  0  0  0  0
   41.8070   21.3480   36.0990 C   0  0  0  0  0  0  0  0  0  0  0  0
   42.3430   20.7890   37.2400 C   0  0  0  0  0  0  0  0  0  0  0  0
   41.9780   20.9020   38.2600 H   0  0  0  0  0  0  0  0  0  0  0  0
   43.4310   20.0700   36.7320 C   0  0  0  0  0  0  0  0  0  0  0  0
   44.1000   19.4870   37.3750 H   0  0  0  0  0  0  0  0  0  0  0  0
   43.4940   20.2280   35.3640 C   0  0  0  0  0  0  0  0  0  0  0  0
   44.2480   19.7760   34.7040 H   0  0  0  0  0  0  0  0  0  0  0  0
   42.4830   21.0150   35.0250 O   0  0  0  0  0  0  0  0  0  0  0  0
   38.3680   23.8070   38.5100 C   0  0  0  0  0  0  0  0  0  0  0  0
   37.8030   25.0720   38.4970 F   0  0  0  0  0  0  0  0  0  0  0  0
   37.3310   22.9350   38.8790 F   0  0  0  0  0  0  0  0  0  0  0  0
   39.2590   23.7700   39.5400 F   0  0  0  0  0  0  0  0  0  0  0  0
  1  6  1  0  0  0  0
  2  1  2  0  0  0  0
  2  3  1  0  0  0  0
  3  9  1  0  0  0  0
  3  4  2  0  0  0  0
  5  4  1  0  0  0  0
  5 17  1  0  0  0  0
  6  5  2  0  0  0  0
  7  1  1  0  0  0  0
  8  2  1  0  0  0  0
  9 10  2  0  0  0  0
 10 11  1  0  0  0  0
 12 10  1  0  0  0  0
 12 13  1  0  0  0  0
 14 12  2  0  0  0  0
 15 14  1  0  0  0  0
 16 14  1  0  0  0  0
 16  9  1  0  0  0  0
 17 19  1  0  0  0  0
 17 20  1  0  0  0  0
 18 17  1  0  0  0  0
M  END
>  <minimizedAffinity>
-4.26542044

$$$$
