
 OpenBabel03272506473D

 41 44  0  0  1  0  0  0  0  0999 V2000
   32.0030   28.3760   47.4980 C   0  0  2  0  0  0  0  0  0  0  0  0
   33.2610   28.1670   48.2880 C   0  0  1  0  0  0  0  0  0  0  0  0
   33.6120   26.8570   48.1850 O   0  0  0  0  0  0  0  0  0  0  0  0
   32.8590   26.2560   47.1830 C   0  0  0  0  0  0  0  0  0  0  0  0
   32.2730   27.3650   46.3380 C   0  0  1  0  0  0  0  0  0  0  0  0
   31.0850   28.0590   47.9810 H   0  0  0  0  0  0  0  0  0  0  0  0
   33.0550   28.5170   49.3190 H   0  0  0  0  0  0  0  0  0  0  0  0
   32.1450   25.6110   47.6770 H   0  0  0  0  0  0  0  0  0  0  0  0
   33.6040   25.6520   46.5720 H   0  0  0  0  0  0  0  0  0  0  0  0
   33.0090   27.8230   45.6800 H   0  0  0  0  0  0  0  0  0  0  0  0
   31.9600   29.6800   46.9660 O   0  0  0  0  0  0  0  0  0  0  0  0
   32.4720   29.6550   46.1220 H   0  0  0  0  0  0  0  0  0  0  0  0
   34.5820   29.1720   47.4990 S   0  0  0  0  0  0  0  0  0  0  0  0
   37.0100   29.2510   50.6300 C   0  0  0  0  0  0  0  0  0  0  0  0
   37.4140   30.5820   50.7390 C   0  0  0  0  0  0  0  0  0  0  0  0
   36.9190   31.4900   49.8120 C   0  0  0  0  0  0  0  0  0  0  0  0
   36.0660   31.0420   48.8430 N   0  0  0  0  0  0  0  0  0  0  0  0
   35.7010   29.7430   48.7740 C   0  0  0  0  0  0  0  0  0  0  0  0
   36.1650   28.8300   49.6640 N   0  0  0  0  0  0  0  0  0  0  0  0
   37.3460   28.4760   51.3070 H   0  0  0  0  0  0  0  0  0  0  0  0
   38.0840   30.8630   51.5230 H   0  0  0  0  0  0  0  0  0  0  0  0
   37.2040   32.5340   49.8570 H   0  0  0  0  0  0  0  0  0  0  0  0
   31.0960   26.9280   45.7820 O   0  0  0  0  0  0  0  0  0  0  0  0
   29.9230   29.1730   44.2790 Cl  0  0  0  0  0  0  0  0  0  0  0  0
   29.2220   28.2550   45.5890 C   0  0  0  0  0  0  0  0  0  0  0  0
   29.8700   27.2120   46.2100 C   0  0  0  0  0  0  0  0  0  0  0  0
   29.1950   26.5340   47.2280 C   0  0  0  0  0  0  0  0  0  0  0  0
   27.9190   26.9050   47.5950 C   0  0  0  0  0  0  0  0  0  0  0  0
   27.2600   27.9530   46.9780 C   0  0  0  0  0  0  0  0  0  0  0  0
   27.9320   28.6210   45.9700 C   0  0  0  0  0  0  0  0  0  0  0  0
   29.6040   25.7030   47.7730 H   0  0  0  0  0  0  0  0  0  0  0  0
   27.3580   26.4190   48.3710 H   0  0  0  0  0  0  0  0  0  0  0  0
   26.2600   28.2520   47.2600 H   0  0  0  0  0  0  0  0  0  0  0  0
   27.2550   29.7320   45.3040 C   0  0  0  0  0  0  0  0  0  0  0  0
   27.1500   31.0130   45.7320 C   0  0  0  0  0  0  0  0  0  0  0  0
   27.5770   31.3920   46.6720 H   0  0  0  0  0  0  0  0  0  0  0  0
   26.4320   31.7860   44.8300 C   0  0  0  0  0  0  0  0  0  0  0  0
   26.1650   32.8240   44.8540 H   0  0  0  0  0  0  0  0  0  0  0  0
   26.1270   30.8660   43.8480 C   0  0  0  0  0  0  0  0  0  0  0  0
   25.5600   31.0270   42.9180 H   0  0  0  0  0  0  0  0  0  0  0  0
   26.6180   29.6890   44.1520 O   0  0  0  0  0  0  0  0  0  0  0  0
  1  6  1  1  0  0  0
  1  2  1  0  0  0  0
  2  7  1  1  0  0  0
  3  2  1  0  0  0  0
  4  8  1  0  0  0  0
  4  3  1  0  0  0  0
  5 10  1  6  0  0  0
  5  4  1  0  0  0  0
  5  1  1  0  0  0  0
  9  4  1  0  0  0  0
 11  1  1  0  0  0  0
 12 11  1  0  0  0  0
 13  2  1  0  0  0  0
 13 18  1  0  0  0  0
 14 15  1  0  0  0  0
 14 20  1  0  0  0  0
 15 21  1  0  0  0  0
 16 22  1  0  0  0  0
 16 15  2  0  0  0  0
 17 16  1  0  0  0  0
 18 17  2  0  0  0  0
 18 19  1  0  0  0  0
 19 14  2  0  0  0  0
 23 26  1  0  0  0  0
 23  5  1  0  0  0  0
 24 25  1  0  0  0  0
 25 30  2  0  0  0  0
 25 26  1  0  0  0  0
 26 27  2  0  0  0  0
 27 28  1  0  0  0  0
 27 31  1  0  0  0  0
 28 32  1  0  0  0  0
 29 33  1  0  0  0  0
 29 28  2  0  0  0  0
 30 29  1  0  0  0  0
 34 35  2  0  0  0  0
 34 30  1  0  0  0  0
 35 36  1  0  0  0  0
 37 38  1  0  0  0  0
 37 35  1  0  0  0  0
 39 41  1  0  0  0  0
 39 37  2  0  0  0  0
 40 39  1  0  0  0  0
 41 34  1  0  0  0  0
M  END
>  <minimizedAffinity>
-5.15348673

>  <minimizedRMSD>
0.407430559

$$$$
