
 OpenBabel03272505123D

 38 41  0  0  0  0  0  0  0  0999 V2000
   36.4040   30.9200   45.7170 Cl  0  0  0  0  0  0  0  0  0  0  0  0
   36.6990   30.7750   47.4240 C   0  0  0  0  0  0  0  0  0  0  0  0
   37.9520   31.0910   47.8870 C   0  0  0  0  0  0  0  0  0  0  0  0
   38.1910   30.9770   49.2450 C   0  0  0  0  0  0  0  0  0  0  0  0
   37.1950   30.5620   50.0850 C   0  0  0  0  0  0  0  0  0  0  0  0
   35.9500   30.2580   49.5510 C   0  0  0  0  0  0  0  0  0  0  0  0
   35.6360   30.3450   48.2210 C   0  0  0  0  0  0  0  0  0  0  0  0
   39.1880   31.2320   49.5890 H   0  0  0  0  0  0  0  0  0  0  0  0
   37.3670   30.4680   51.1460 H   0  0  0  0  0  0  0  0  0  0  0  0
   35.1740   29.9290   50.2380 H   0  0  0  0  0  0  0  0  0  0  0  0
   40.2100   33.3200   46.0810 C   0  0  0  0  0  0  0  0  0  0  0  0
   40.9230   32.4620   45.2060 C   0  0  0  0  0  0  0  0  0  0  0  0
   40.6040   31.1010   45.2560 C   0  0  0  0  0  0  0  0  0  0  0  0
   39.6420   30.6810   46.1300 N   0  0  0  0  0  0  0  0  0  0  0  0
   38.9970   31.5370   46.9370 C   0  0  0  0  0  0  0  0  0  0  0  0
   39.2830   32.8430   46.9100 N   0  0  0  0  0  0  0  0  0  0  0  0
   40.4360   34.3580   46.0620 H   0  0  0  0  0  0  0  0  0  0  0  0
   41.6660   32.8200   44.5380 H   0  0  0  0  0  0  0  0  0  0  0  0
   41.0930   30.3680   44.6280 H   0  0  0  0  0  0  0  0  0  0  0  0
   34.0500   29.9600   47.5280 S   0  0  0  0  0  0  0  0  0  0  0  0
   33.7890   29.1900   44.4960 Cl  0  0  0  0  0  0  0  0  0  0  0  0
   33.8110   27.9680   45.7330 C   0  0  0  0  0  0  0  0  0  0  0  0
   33.9200   28.2230   47.1000 C   0  0  0  0  0  0  0  0  0  0  0  0
   33.9240   27.1730   47.9970 C   0  0  0  0  0  0  0  0  0  0  0  0
   33.8200   25.8780   47.5520 C   0  0  0  0  0  0  0  0  0  0  0  0
   33.7080   25.5640   46.2060 C   0  0  0  0  0  0  0  0  0  0  0  0
   33.7090   26.6450   45.3380 C   0  0  0  0  0  0  0  0  0  0  0  0
   34.0130   27.4580   49.0410 H   0  0  0  0  0  0  0  0  0  0  0  0
   33.8280   25.0970   48.3020 H   0  0  0  0  0  0  0  0  0  0  0  0
   33.6280   24.5580   45.8630 H   0  0  0  0  0  0  0  0  0  0  0  0
   33.5920   26.3300   43.9100 C   0  0  0  0  0  0  0  0  0  0  0  0
   32.4850   26.0980   43.1630 C   0  0  0  0  0  0  0  0  0  0  0  0
   31.4730   26.1260   43.5950 H   0  0  0  0  0  0  0  0  0  0  0  0
   32.7860   25.8330   41.8420 C   0  0  0  0  0  0  0  0  0  0  0  0
   32.1260   25.6120   41.0140 H   0  0  0  0  0  0  0  0  0  0  0  0
   34.1720   25.9240   41.8540 C   0  0  0  0  0  0  0  0  0  0  0  0
   34.8320   25.7790   40.9850 H   0  0  0  0  0  0  0  0  0  0  0  0
   34.5860   26.2110   43.0630 O   0  0  0  0  0  0  0  0  0  0  0  0
  1  2  1  0  0  0  0
  2  3  2  0  0  0  0
  2  7  1  0  0  0  0
  3  4  1  0  0  0  0
  4  8  1  0  0  0  0
  4  5  2  0  0  0  0
  5  9  1  0  0  0  0
  6  5  1  0  0  0  0
  6 10  1  0  0  0  0
  7  6  2  0  0  0  0
 11 16  1  0  0  0  0
 12 13  1  0  0  0  0
 12 11  2  0  0  0  0
 13 14  2  0  0  0  0
 14 15  1  0  0  0  0
 15  3  1  0  0  0  0
 16 15  2  0  0  0  0
 17 11  1  0  0  0  0
 18 12  1  0  0  0  0
 19 13  1  0  0  0  0
 20  7  1  0  0  0  0
 21 22  1  0  0  0  0
 22 23  1  0  0  0  0
 23 20  1  0  0  0  0
 23 24  2  0  0  0  0
 24 28  1  0  0  0  0
 25 24  1  0  0  0  0
 25 29  1  0  0  0  0
 26 25  2  0  0  0  0
 27 22  2  0  0  0  0
 27 26  1  0  0  0  0
 30 26  1  0  0  0  0
 31 27  1  0  0  0  0
 32 33  1  0  0  0  0
 32 31  2  0  0  0  0
 34 36  2  0  0  0  0
 34 32  1  0  0  0  0
 35 34  1  0  0  0  0
 36 38  1  0  0  0  0
 37 36  1  0  0  0  0
 38 31  1  0  0  0  0
M  END
>  <minimizedAffinity>
-5.60272455

>  <minimizedRMSD>
0.0487077571

$$$$
