
 OpenBabel03262523073D

 40 44  0  0  0  0  0  0  0  0999 V2000
   37.2340   26.7530   32.6750 C   0  0  0  0  0  0  0  0  0  0  0  0
   37.7220   27.2660   31.4990 C   0  0  0  0  0  0  0  0  0  0  0  0
   37.3890   28.5520   31.1660 C   0  0  0  0  0  0  0  0  0  0  0  0
   36.5970   29.2970   31.9820 N   0  0  0  0  0  0  0  0  0  0  0  0
   36.1460   28.7590   33.1100 C   0  0  0  0  0  0  0  0  0  0  0  0
   36.4480   27.4900   33.4820 N   0  0  0  0  0  0  0  0  0  0  0  0
   38.3530   26.6570   30.8630 H   0  0  0  0  0  0  0  0  0  0  0  0
   37.7580   28.9810   30.2490 H   0  0  0  0  0  0  0  0  0  0  0  0
   35.2950   29.5520   33.9850 C   0  0  0  0  0  0  0  0  0  0  0  0
   33.9270   29.3640   34.0060 C   0  0  0  0  0  0  0  0  0  0  0  0
   32.9910   30.0300   34.7690 C   0  0  0  0  0  0  0  0  0  0  0  0
   33.5480   31.0020   35.6040 C   0  0  0  0  0  0  0  0  0  0  0  0
   32.6780   31.7020   36.3890 N   0  0  0  0  0  0  0  0  0  0  0  0
   33.1040   32.6540   37.2240 C   0  0  0  0  0  0  0  0  0  0  0  0
   34.4730   32.9440   37.2990 C   0  0  0  0  0  0  0  0  0  0  0  0
   35.3480   32.2330   36.5040 C   0  0  0  0  0  0  0  0  0  0  0  0
   34.9110   31.2400   35.6320 C   0  0  0  0  0  0  0  0  0  0  0  0
   35.7700   30.5280   34.8370 C   0  0  0  0  0  0  0  0  0  0  0  0
   33.5460   28.5940   33.3350 H   0  0  0  0  0  0  0  0  0  0  0  0
   31.9580   29.8050   34.7060 H   0  0  0  0  0  0  0  0  0  0  0  0
   32.4580   33.2320   37.8610 H   0  0  0  0  0  0  0  0  0  0  0  0
   34.8770   33.7000   37.9510 H   0  0  0  0  0  0  0  0  0  0  0  0
   36.4180   32.3930   36.4990 H   0  0  0  0  0  0  0  0  0  0  0  0
   36.8350   30.7240   34.8670 H   0  0  0  0  0  0  0  0  0  0  0  0
   37.8210   23.1230   32.6420 C   0  0  0  0  0  0  0  0  0  0  0  0
   38.1510   22.8430   33.9630 C   0  0  0  0  0  0  0  0  0  0  0  0
   38.1660   23.9320   34.8630 C   0  0  0  0  0  0  0  0  0  0  0  0
   37.8620   25.1800   34.4030 N   0  0  0  0  0  0  0  0  0  0  0  0
   37.5490   25.3830   33.0950 C   0  0  0  0  0  0  0  0  0  0  0  0
   37.5280   24.3520   32.2170 N   0  0  0  0  0  0  0  0  0  0  0  0
   37.7800   22.3580   31.8700 H   0  0  0  0  0  0  0  0  0  0  0  0
   38.3770   21.8490   34.2580 H   0  0  0  0  0  0  0  0  0  0  0  0
   38.5060   23.6890   36.2600 C   0  0  0  0  0  0  0  0  0  0  0  0
   37.7410   24.1150   37.3270 C   0  0  0  0  0  0  0  0  0  0  0  0
   36.8170   24.6680   37.3080 H   0  0  0  0  0  0  0  0  0  0  0  0
   38.4770   23.6430   38.4210 C   0  0  0  0  0  0  0  0  0  0  0  0
   38.1490   23.8090   39.4580 H   0  0  0  0  0  0  0  0  0  0  0  0
   39.6170   22.9750   37.9600 C   0  0  0  0  0  0  0  0  0  0  0  0
   40.3290   22.5290   38.6570 H   0  0  0  0  0  0  0  0  0  0  0  0
   39.5690   23.0420   36.6410 O   0  0  0  0  0  0  0  0  0  0  0  0
  1 29  1  0  0  0  0
  1  6  1  0  0  0  0
  2  1  2  0  0  0  0
  3  2  1  0  0  0  0
  3  4  2  0  0  0  0
  4  5  1  0  0  0  0
  5  6  2  0  0  0  0
  5  9  1  0  0  0  0
  7  2  1  0  0  0  0
  8  3  1  0  0  0  0
  9 10  2  0  0  0  0
  9 18  1  0  0  0  0
 10 11  1  0  0  0  0
 11 12  2  0  0  0  0
 12 17  1  0  0  0  0
 12 13  1  0  0  0  0
 13 14  2  0  0  0  0
 14 15  1  0  0  0  0
 14 21  1  0  0  0  0
 15 22  1  0  0  0  0
 16 15  2  0  0  0  0
 17 16  1  0  0  0  0
 18 24  1  0  0  0  0
 18 17  2  0  0  0  0
 19 10  1  0  0  0  0
 20 11  1  0  0  0  0
 23 16  1  0  0  0  0
 25 26  1  0  0  0  0
 26 32  1  0  0  0  0
 26 27  2  0  0  0  0
 27 33  1  0  0  0  0
 28 27  1  0  0  0  0
 29 28  2  0  0  0  0
 30 25  2  0  0  0  0
 30 29  1  0  0  0  0
 31 25  1  0  0  0  0
 33 40  1  0  0  0  0
 33 34  2  0  0  0  0
 34 36  1  0  0  0  0
 35 34  1  0  0  0  0
 36 37  1  0  0  0  0
 38 36  2  0  0  0  0
 38 39  1  0  0  0  0
 40 38  1  0  0  0  0
M  END
>  <minimizedAffinity>
-6.84317923

$$$$

 OpenBabel03262523073D

 40 44  0  0  0  0  0  0  0  0999 V2000
   37.8260   25.1640   34.5400 C   0  0  0  0  0  0  0  0  0  0  0  0
   37.9940   24.5630   33.3180 C   0  0  0  0  0  0  0  0  0  0  0  0
   37.5760   25.2390   32.2020 C   0  0  0  0  0  0  0  0  0  0  0  0
   37.0110   26.4710   32.3070 N   0  0  0  0  0  0  0  0  0  0  0  0
   36.8680   27.0140   33.5110 C   0  0  0  0  0  0  0  0  0  0  0  0
   37.2660   26.3840   34.6450 N   0  0  0  0  0  0  0  0  0  0  0  0
   38.4470   23.5820   33.2540 H   0  0  0  0  0  0  0  0  0  0  0  0
   37.6950   24.7920   31.2280 H   0  0  0  0  0  0  0  0  0  0  0  0
   36.2610   28.3320   33.6290 C   0  0  0  0  0  0  0  0  0  0  0  0
   35.5170   28.8660   32.5950 C   0  0  0  0  0  0  0  0  0  0  0  0
   34.8860   30.0900   32.5500 C   0  0  0  0  0  0  0  0  0  0  0  0
   35.0500   30.8420   33.7170 C   0  0  0  0  0  0  0  0  0  0  0  0
   34.4510   32.0680   33.7410 N   0  0  0  0  0  0  0  0  0  0  0  0
   34.5440   32.8680   34.8080 C   0  0  0  0  0  0  0  0  0  0  0  0
   35.2730   32.4440   35.9270 C   0  0  0  0  0  0  0  0  0  0  0  0
   35.8770   31.2040   35.8970 C   0  0  0  0  0  0  0  0  0  0  0  0
   35.7820   30.3650   34.7890 C   0  0  0  0  0  0  0  0  0  0  0  0
   36.3780   29.1320   34.7480 C   0  0  0  0  0  0  0  0  0  0  0  0
   35.4210   28.2390   31.7100 H   0  0  0  0  0  0  0  0  0  0  0  0
   34.3370   30.4040   31.7000 H   0  0  0  0  0  0  0  0  0  0  0  0
   34.0910   33.8410   34.8740 H   0  0  0  0  0  0  0  0  0  0  0  0
   35.3850   33.0430   36.8150 H   0  0  0  0  0  0  0  0  0  0  0  0
   36.4570   30.8000   36.7160 H   0  0  0  0  0  0  0  0  0  0  0  0
   36.9490   28.7690   35.5930 H   0  0  0  0  0  0  0  0  0  0  0  0
   37.9330   23.9570   38.0120 C   0  0  0  0  0  0  0  0  0  0  0  0
   39.1140   23.2270   38.0580 C   0  0  0  0  0  0  0  0  0  0  0  0
   39.8720   23.1600   36.8680 C   0  0  0  0  0  0  0  0  0  0  0  0
   39.4170   23.8030   35.7520 N   0  0  0  0  0  0  0  0  0  0  0  0
   38.2500   24.5000   35.7780 C   0  0  0  0  0  0  0  0  0  0  0  0
   37.5100   24.5760   36.9090 N   0  0  0  0  0  0  0  0  0  0  0  0
   37.2760   24.0710   38.8720 H   0  0  0  0  0  0  0  0  0  0  0  0
   39.4130   22.7500   38.9580 H   0  0  0  0  0  0  0  0  0  0  0  0
   41.1200   22.4060   36.8660 C   0  0  0  0  0  0  0  0  0  0  0  0
   42.2830   22.8380   36.2630 C   0  0  0  0  0  0  0  0  0  0  0  0
   42.4560   23.7540   35.7220 H   0  0  0  0  0  0  0  0  0  0  0  0
   43.1650   21.7850   36.5380 C   0  0  0  0  0  0  0  0  0  0  0  0
   44.2100   21.7970   36.1960 H   0  0  0  0  0  0  0  0  0  0  0  0
   42.4950   20.8000   37.2740 C   0  0  0  0  0  0  0  0  0  0  0  0
   43.0060   19.8900   37.5920 H   0  0  0  0  0  0  0  0  0  0  0  0
   41.2600   21.2440   37.4360 O   0  0  0  0  0  0  0  0  0  0  0  0
  1  6  1  0  0  0  0
  1 29  1  0  0  0  0
  2  1  2  0  0  0  0
  3  4  2  0  0  0  0
  3  2  1  0  0  0  0
  4  5  1  0  0  0  0
  5  9  1  0  0  0  0
  5  6  2  0  0  0  0
  7  2  1  0  0  0  0
  8  3  1  0  0  0  0
  9 18  1  0  0  0  0
 10  9  2  0  0  0  0
 11 10  1  0  0  0  0
 11 12  2  0  0  0  0
 12 13  1  0  0  0  0
 12 17  1  0  0  0  0
 13 14  2  0  0  0  0
 14 21  1  0  0  0  0
 14 15  1  0  0  0  0
 15 22  1  0  0  0  0
 16 15  2  0  0  0  0
 16 23  1  0  0  0  0
 17 16  1  0  0  0  0
 18 17  2  0  0  0  0
 18 24  1  0  0  0  0
 19 10  1  0  0  0  0
 20 11  1  0  0  0  0
 25 26  1  0  0  0  0
 25 31  1  0  0  0  0
 26 32  1  0  0  0  0
 27 26  2  0  0  0  0
 28 29  2  0  0  0  0
 28 27  1  0  0  0  0
 29 30  1  0  0  0  0
 30 25  2  0  0  0  0
 33 27  1  0  0  0  0
 33 40  1  0  0  0  0
 34 36  1  0  0  0  0
 34 33  2  0  0  0  0
 35 34  1  0  0  0  0
 36 38  2  0  0  0  0
 37 36  1  0  0  0  0
 38 40  1  0  0  0  0
 38 39  1  0  0  0  0
M  END
>  <minimizedAffinity>
-6.79611397

$$$$

 OpenBabel03262523073D

 40 44  0  0  0  0  0  0  0  0999 V2000
   36.3070   27.2910   32.1680 C   0  0  0  0  0  0  0  0  0  0  0  0
   35.6730   26.5970   31.1680 C   0  0  0  0  0  0  0  0  0  0  0  0
   35.8720   25.2440   31.0920 C   0  0  0  0  0  0  0  0  0  0  0  0
   36.6770   24.6100   31.9850 N   0  0  0  0  0  0  0  0  0  0  0  0
   37.2710   25.3220   32.9360 C   0  0  0  0  0  0  0  0  0  0  0  0
   37.1050   26.6630   33.0520 N   0  0  0  0  0  0  0  0  0  0  0  0
   35.0350   27.1200   30.4660 H   0  0  0  0  0  0  0  0  0  0  0  0
   35.3860   24.6740   30.3160 H   0  0  0  0  0  0  0  0  0  0  0  0
   38.1360   24.6470   33.8930 C   0  0  0  0  0  0  0  0  0  0  0  0
   39.3140   24.0510   33.4880 C   0  0  0  0  0  0  0  0  0  0  0  0
   40.2330   23.3760   34.2630 C   0  0  0  0  0  0  0  0  0  0  0  0
   39.8820   23.3180   35.6140 C   0  0  0  0  0  0  0  0  0  0  0  0
   40.7470   22.6630   36.4410 N   0  0  0  0  0  0  0  0  0  0  0  0
   40.5080   22.5490   37.7510 C   0  0  0  0  0  0  0  0  0  0  0  0
   39.3440   23.1110   38.2920 C   0  0  0  0  0  0  0  0  0  0  0  0
   38.4720   23.7720   37.4510 C   0  0  0  0  0  0  0  0  0  0  0  0
   38.7160   23.8950   36.0860 C   0  0  0  0  0  0  0  0  0  0  0  0
   37.8570   24.5480   35.2410 C   0  0  0  0  0  0  0  0  0  0  0  0
   39.5400   24.1250   32.4240 H   0  0  0  0  0  0  0  0  0  0  0  0
   41.1120   22.9540   33.8470 H   0  0  0  0  0  0  0  0  0  0  0  0
   41.1590   22.0430   38.4420 H   0  0  0  0  0  0  0  0  0  0  0  0
   39.0950   23.0510   39.3380 H   0  0  0  0  0  0  0  0  0  0  0  0
   37.5520   24.2340   37.7850 H   0  0  0  0  0  0  0  0  0  0  0  0
   36.9480   24.9960   35.6210 H   0  0  0  0  0  0  0  0  0  0  0  0
   36.2460   30.8990   31.4630 C   0  0  0  0  0  0  0  0  0  0  0  0
   35.8020   31.4490   32.6590 C   0  0  0  0  0  0  0  0  0  0  0  0
   35.5250   30.5500   33.7120 C   0  0  0  0  0  0  0  0  0  0  0  0
   35.7030   29.2120   33.5100 N   0  0  0  0  0  0  0  0  0  0  0  0
   36.1400   28.7410   32.3110 C   0  0  0  0  0  0  0  0  0  0  0  0
   36.4120   29.5870   31.2890 N   0  0  0  0  0  0  0  0  0  0  0  0
   36.4880   31.5030   30.5900 H   0  0  0  0  0  0  0  0  0  0  0  0
   35.6850   32.5000   32.7530 H   0  0  0  0  0  0  0  0  0  0  0  0
   35.0570   31.0790   34.9880 C   0  0  0  0  0  0  0  0  0  0  0  0
   35.8550   31.7670   35.8790 C   0  0  0  0  0  0  0  0  0  0  0  0
   36.8990   32.0150   35.7880 H   0  0  0  0  0  0  0  0  0  0  0  0
   34.9580   32.0510   36.9170 C   0  0  0  0  0  0  0  0  0  0  0  0
   35.2650   32.6040   37.8160 H   0  0  0  0  0  0  0  0  0  0  0  0
   33.6990   31.5280   36.5970 C   0  0  0  0  0  0  0  0  0  0  0  0
   32.8530   31.6410   37.2780 H   0  0  0  0  0  0  0  0  0  0  0  0
   33.8330   30.9530   35.4140 O   0  0  0  0  0  0  0  0  0  0  0  0
  1 29  1  0  0  0  0
  1  6  1  0  0  0  0
  2  1  2  0  0  0  0
  3  2  1  0  0  0  0
  3  4  2  0  0  0  0
  4  5  1  0  0  0  0
  5  6  2  0  0  0  0
  5  9  1  0  0  0  0
  7  2  1  0  0  0  0
  8  3  1  0  0  0  0
  9 18  1  0  0  0  0
 10  9  2  0  0  0  0
 10 11  1  0  0  0  0
 11 12  2  0  0  0  0
 12 17  1  0  0  0  0
 12 13  1  0  0  0  0
 13 14  2  0  0  0  0
 14 15  1  0  0  0  0
 14 21  1  0  0  0  0
 15 22  1  0  0  0  0
 16 23  1  0  0  0  0
 16 15  2  0  0  0  0
 17 16  1  0  0  0  0
 18 24  1  0  0  0  0
 18 17  2  0  0  0  0
 19 10  1  0  0  0  0
 20 11  1  0  0  0  0
 25 26  1  0  0  0  0
 26 32  1  0  0  0  0
 26 27  2  0  0  0  0
 27 33  1  0  0  0  0
 28 27  1  0  0  0  0
 29 28  2  0  0  0  0
 30 25  2  0  0  0  0
 30 29  1  0  0  0  0
 31 25  1  0  0  0  0
 33 40  1  0  0  0  0
 33 34  2  0  0  0  0
 34 36  1  0  0  0  0
 35 34  1  0  0  0  0
 36 37  1  0  0  0  0
 38 36  2  0  0  0  0
 38 39  1  0  0  0  0
 40 38  1  0  0  0  0
M  END
>  <minimizedAffinity>
-6.69860315

$$$$

 OpenBabel03262523073D

 40 44  0  0  0  0  0  0  0  0999 V2000
   37.1510   27.0190   32.7960 C   0  0  0  0  0  0  0  0  0  0  0  0
   37.3220   27.4320   31.4980 C   0  0  0  0  0  0  0  0  0  0  0  0
   36.8480   28.6680   31.1440 C   0  0  0  0  0  0  0  0  0  0  0  0
   36.2260   29.4590   32.0560 N   0  0  0  0  0  0  0  0  0  0  0  0
   36.0810   29.0190   33.3010 C   0  0  0  0  0  0  0  0  0  0  0  0
   36.5330   27.8040   33.7000 N   0  0  0  0  0  0  0  0  0  0  0  0
   37.8220   26.7880   30.7860 H   0  0  0  0  0  0  0  0  0  0  0  0
   36.9690   29.0180   30.1320 H   0  0  0  0  0  0  0  0  0  0  0  0
   35.4120   29.8620   34.2810 C   0  0  0  0  0  0  0  0  0  0  0  0
   36.1360   30.6860   35.1200 C   0  0  0  0  0  0  0  0  0  0  0  0
   35.6570   31.5360   36.0940 C   0  0  0  0  0  0  0  0  0  0  0  0
   34.2640   31.5240   36.2040 C   0  0  0  0  0  0  0  0  0  0  0  0
   33.7200   32.3430   37.1510 N   0  0  0  0  0  0  0  0  0  0  0  0
   32.3990   32.4080   37.3390 C   0  0  0  0  0  0  0  0  0  0  0  0
   31.5490   31.6200   36.5510 C   0  0  0  0  0  0  0  0  0  0  0  0
   32.1050   30.7940   35.5960 C   0  0  0  0  0  0  0  0  0  0  0  0
   33.4800   30.7220   35.3930 C   0  0  0  0  0  0  0  0  0  0  0  0
   34.0430   29.9050   34.4480 C   0  0  0  0  0  0  0  0  0  0  0  0
   37.2180   30.6570   34.9930 H   0  0  0  0  0  0  0  0  0  0  0  0
   36.3060   32.1290   36.6870 H   0  0  0  0  0  0  0  0  0  0  0  0
   31.9240   33.0360   38.0720 H   0  0  0  0  0  0  0  0  0  0  0  0
   30.4770   31.6280   36.6560 H   0  0  0  0  0  0  0  0  0  0  0  0
   31.5220   30.1540   34.9460 H   0  0  0  0  0  0  0  0  0  0  0  0
   33.4190   29.2820   33.8200 H   0  0  0  0  0  0  0  0  0  0  0  0
   38.3750   23.5530   32.8180 C   0  0  0  0  0  0  0  0  0  0  0  0
   38.5300   23.2790   34.1710 C   0  0  0  0  0  0  0  0  0  0  0  0
   38.2030   24.3140   35.0750 C   0  0  0  0  0  0  0  0  0  0  0  0
   37.7590   25.5090   34.5850 N   0  0  0  0  0  0  0  0  0  0  0  0
   37.6330   25.7090   33.2460 C   0  0  0  0  0  0  0  0  0  0  0  0
   37.9410   24.7280   32.3640 N   0  0  0  0  0  0  0  0  0  0  0  0
   38.5990   22.8250   32.0400 H   0  0  0  0  0  0  0  0  0  0  0  0
   38.8790   22.3280   34.4880 H   0  0  0  0  0  0  0  0  0  0  0  0
   38.3470   24.0750   36.5060 C   0  0  0  0  0  0  0  0  0  0  0  0
   39.1460   23.0900   37.0490 C   0  0  0  0  0  0  0  0  0  0  0  0
   39.7640   22.3720   36.5350 H   0  0  0  0  0  0  0  0  0  0  0  0
   38.9440   23.2730   38.4230 C   0  0  0  0  0  0  0  0  0  0  0  0
   39.4410   22.6410   39.1730 H   0  0  0  0  0  0  0  0  0  0  0  0
   38.0520   24.3340   38.6230 C   0  0  0  0  0  0  0  0  0  0  0  0
   37.7590   24.6410   39.6280 H   0  0  0  0  0  0  0  0  0  0  0  0
   37.7330   24.7730   37.4180 O   0  0  0  0  0  0  0  0  0  0  0  0
  1 29  1  0  0  0  0
  1  6  1  0  0  0  0
  2  1  2  0  0  0  0
  3  2  1  0  0  0  0
  3  4  2  0  0  0  0
  4  5  1  0  0  0  0
  5  6  2  0  0  0  0
  5  9  1  0  0  0  0
  7  2  1  0  0  0  0
  8  3  1  0  0  0  0
  9 18  2  0  0  0  0
  9 10  1  0  0  0  0
 10 11  2  0  0  0  0
 11 12  1  0  0  0  0
 11 20  1  0  0  0  0
 12 13  1  0  0  0  0
 13 14  2  0  0  0  0
 14 21  1  0  0  0  0
 15 22  1  0  0  0  0
 15 14  1  0  0  0  0
 16 15  2  0  0  0  0
 17 16  1  0  0  0  0
 17 12  2  0  0  0  0
 18 17  1  0  0  0  0
 19 10  1  0  0  0  0
 23 16  1  0  0  0  0
 24 18  1  0  0  0  0
 25 26  1  0  0  0  0
 26 32  1  0  0  0  0
 26 27  2  0  0  0  0
 27 33  1  0  0  0  0
 28 27  1  0  0  0  0
 29 28  2  0  0  0  0
 30 25  2  0  0  0  0
 30 29  1  0  0  0  0
 31 25  1  0  0  0  0
 33 34  2  0  0  0  0
 33 40  1  0  0  0  0
 34 36  1  0  0  0  0
 35 34  1  0  0  0  0
 36 38  2  0  0  0  0
 36 37  1  0  0  0  0
 38 39  1  0  0  0  0
 40 38  1  0  0  0  0
M  END
>  <minimizedAffinity>
-6.65784502

$$$$

 OpenBabel03262523073D

 40 44  0  0  0  0  0  0  0  0999 V2000
   37.1540   25.9280   32.6300 C   0  0  0  0  0  0  0  0  0  0  0  0
   36.4320   25.4800   31.5520 C   0  0  0  0  0  0  0  0  0  0  0  0
   35.5490   26.3430   30.9600 C   0  0  0  0  0  0  0  0  0  0  0  0
   35.3940   27.6080   31.4310 N   0  0  0  0  0  0  0  0  0  0  0  0
   36.1130   28.0000   32.4770 C   0  0  0  0  0  0  0  0  0  0  0  0
   37.0000   27.1820   33.0970 N   0  0  0  0  0  0  0  0  0  0  0  0
   36.5700   24.4680   31.1910 H   0  0  0  0  0  0  0  0  0  0  0  0
   34.9680   26.0180   30.1120 H   0  0  0  0  0  0  0  0  0  0  0  0
   35.9490   29.3530   32.9860 C   0  0  0  0  0  0  0  0  0  0  0  0
   35.9570   30.4390   32.1320 C   0  0  0  0  0  0  0  0  0  0  0  0
   35.8180   31.7720   32.4550 C   0  0  0  0  0  0  0  0  0  0  0  0
   35.6510   31.9960   33.8240 C   0  0  0  0  0  0  0  0  0  0  0  0
   35.5070   33.2960   34.2150 N   0  0  0  0  0  0  0  0  0  0  0  0
   35.3420   33.6220   35.5000 C   0  0  0  0  0  0  0  0  0  0  0  0
   35.3150   32.6120   36.4710 C   0  0  0  0  0  0  0  0  0  0  0  0
   35.4600   31.3000   36.0700 C   0  0  0  0  0  0  0  0  0  0  0  0
   35.6320   30.9530   34.7330 C   0  0  0  0  0  0  0  0  0  0  0  0
   35.7790   29.6540   34.3220 C   0  0  0  0  0  0  0  0  0  0  0  0
   36.0910   30.2080   31.0760 H   0  0  0  0  0  0  0  0  0  0  0  0
   35.8400   32.5310   31.7150 H   0  0  0  0  0  0  0  0  0  0  0  0
   35.2250   34.6300   35.8570 H   0  0  0  0  0  0  0  0  0  0  0  0
   35.1850   32.8120   37.5210 H   0  0  0  0  0  0  0  0  0  0  0  0
   35.4510   30.4610   36.7520 H   0  0  0  0  0  0  0  0  0  0  0  0
   35.7630   28.8460   35.0430 H   0  0  0  0  0  0  0  0  0  0  0  0
   39.9560   23.6430   33.2950 C   0  0  0  0  0  0  0  0  0  0  0  0
   39.8870   23.4470   34.6680 C   0  0  0  0  0  0  0  0  0  0  0  0
   38.8550   24.1190   35.3590 C   0  0  0  0  0  0  0  0  0  0  0  0
   37.9920   24.9120   34.6590 N   0  0  0  0  0  0  0  0  0  0  0  0
   38.1190   25.0590   33.3130 C   0  0  0  0  0  0  0  0  0  0  0  0
   39.1020   24.4230   32.6330 N   0  0  0  0  0  0  0  0  0  0  0  0
   40.7130   23.1720   32.6690 H   0  0  0  0  0  0  0  0  0  0  0  0
   40.5890   22.8160   35.1550 H   0  0  0  0  0  0  0  0  0  0  0  0
   38.7400   23.9450   36.8030 C   0  0  0  0  0  0  0  0  0  0  0  0
   39.4630   23.0220   37.5300 C   0  0  0  0  0  0  0  0  0  0  0  0
   40.1950   22.3150   37.1750 H   0  0  0  0  0  0  0  0  0  0  0  0
   39.0020   23.2490   38.8330 C   0  0  0  0  0  0  0  0  0  0  0  0
   39.3760   22.6730   39.6920 H   0  0  0  0  0  0  0  0  0  0  0  0
   38.0460   24.2720   38.8140 C   0  0  0  0  0  0  0  0  0  0  0  0
   37.5580   24.6040   39.7330 H   0  0  0  0  0  0  0  0  0  0  0  0
   37.9380   24.6470   37.5510 O   0  0  0  0  0  0  0  0  0  0  0  0
  1  6  1  0  0  0  0
  1 29  1  0  0  0  0
  2  1  2  0  0  0  0
  3  4  2  0  0  0  0
  3  2  1  0  0  0  0
  4  5  1  0  0  0  0
  5  9  1  0  0  0  0
  5  6  2  0  0  0  0
  7  2  1  0  0  0  0
  8  3  1  0  0  0  0
  9 18  1  0  0  0  0
 10 11  1  0  0  0  0
 10  9  2  0  0  0  0
 11 12  2  0  0  0  0
 12 13  1  0  0  0  0
 12 17  1  0  0  0  0
 13 14  2  0  0  0  0
 14 21  1  0  0  0  0
 14 15  1  0  0  0  0
 15 22  1  0  0  0  0
 16 15  2  0  0  0  0
 16 23  1  0  0  0  0
 17 16  1  0  0  0  0
 18 17  2  0  0  0  0
 18 24  1  0  0  0  0
 19 10  1  0  0  0  0
 20 11  1  0  0  0  0
 25 26  1  0  0  0  0
 26 32  1  0  0  0  0
 26 27  2  0  0  0  0
 27 33  1  0  0  0  0
 28 27  1  0  0  0  0
 29 28  2  0  0  0  0
 30 25  2  0  0  0  0
 30 29  1  0  0  0  0
 31 25  1  0  0  0  0
 33 34  2  0  0  0  0
 33 40  1  0  0  0  0
 34 36  1  0  0  0  0
 35 34  1  0  0  0  0
 36 37  1  0  0  0  0
 38 36  2  0  0  0  0
 38 39  1  0  0  0  0
 40 38  1  0  0  0  0
M  END
>  <minimizedAffinity>
-6.57398844

$$$$

 OpenBabel03262523073D

 40 44  0  0  0  0  0  0  0  0999 V2000
   37.0560   26.8830   31.8480 C   0  0  0  0  0  0  0  0  0  0  0  0
   37.2010   27.3940   30.5830 C   0  0  0  0  0  0  0  0  0  0  0  0
   36.6350   28.6100   30.3070 C   0  0  0  0  0  0  0  0  0  0  0  0
   35.9480   29.2890   31.2630 N   0  0  0  0  0  0  0  0  0  0  0  0
   35.8310   28.7560   32.4750 C   0  0  0  0  0  0  0  0  0  0  0  0
   36.3740   27.5550   32.7960 N   0  0  0  0  0  0  0  0  0  0  0  0
   37.7530   26.8390   29.8340 H   0  0  0  0  0  0  0  0  0  0  0  0
   36.7330   29.0360   29.3210 H   0  0  0  0  0  0  0  0  0  0  0  0
   35.0950   29.4780   33.5010 C   0  0  0  0  0  0  0  0  0  0  0  0
   33.7290   29.3230   33.6360 C   0  0  0  0  0  0  0  0  0  0  0  0
   32.8930   29.9320   34.5480 C   0  0  0  0  0  0  0  0  0  0  0  0
   33.5590   30.8010   35.4170 C   0  0  0  0  0  0  0  0  0  0  0  0
   32.7920   31.4400   36.3470 N   0  0  0  0  0  0  0  0  0  0  0  0
   33.3270   32.2920   37.2260 C   0  0  0  0  0  0  0  0  0  0  0  0
   34.7060   32.5390   37.1950 C   0  0  0  0  0  0  0  0  0  0  0  0
   35.4770   31.8900   36.2530 C   0  0  0  0  0  0  0  0  0  0  0  0
   34.9260   31.0010   35.3350 C   0  0  0  0  0  0  0  0  0  0  0  0
   35.6820   30.3510   34.3940 C   0  0  0  0  0  0  0  0  0  0  0  0
   33.2600   28.6350   32.9340 H   0  0  0  0  0  0  0  0  0  0  0  0
   31.8510   29.7410   34.5650 H   0  0  0  0  0  0  0  0  0  0  0  0
   32.7640   32.8190   37.9750 H   0  0  0  0  0  0  0  0  0  0  0  0
   35.1960   33.2140   37.8760 H   0  0  0  0  0  0  0  0  0  0  0  0
   36.5470   32.0230   36.1610 H   0  0  0  0  0  0  0  0  0  0  0  0
   36.7500   30.5160   34.3400 H   0  0  0  0  0  0  0  0  0  0  0  0
   39.4320   24.2660   32.8590 C   0  0  0  0  0  0  0  0  0  0  0  0
   38.6460   23.1200   32.8930 C   0  0  0  0  0  0  0  0  0  0  0  0
   37.2820   23.2690   32.5600 C   0  0  0  0  0  0  0  0  0  0  0  0
   36.8100   24.5060   32.2280 N   0  0  0  0  0  0  0  0  0  0  0  0
   37.6360   25.5870   32.2160 C   0  0  0  0  0  0  0  0  0  0  0  0
   38.9470   25.4630   32.5310 N   0  0  0  0  0  0  0  0  0  0  0  0
   40.4930   24.2600   33.0980 H   0  0  0  0  0  0  0  0  0  0  0  0
   39.0740   22.1860   33.1600 H   0  0  0  0  0  0  0  0  0  0  0  0
   36.4160   22.0960   32.5810 C   0  0  0  0  0  0  0  0  0  0  0  0
   35.4850   21.8050   31.6050 C   0  0  0  0  0  0  0  0  0  0  0  0
   35.2530   22.3650   30.7140 H   0  0  0  0  0  0  0  0  0  0  0  0
   34.9320   20.6080   32.0750 C   0  0  0  0  0  0  0  0  0  0  0  0
   34.1370   20.0800   31.5290 H   0  0  0  0  0  0  0  0  0  0  0  0
   35.5490   20.2550   33.2820 C   0  0  0  0  0  0  0  0  0  0  0  0
   35.2610   19.3480   33.8170 H   0  0  0  0  0  0  0  0  0  0  0  0
   36.4380   21.2020   33.5270 O   0  0  0  0  0  0  0  0  0  0  0  0
  1 29  1  0  0  0  0
  1  6  1  0  0  0  0
  2  1  2  0  0  0  0
  3  2  1  0  0  0  0
  3  4  2  0  0  0  0
  4  5  1  0  0  0  0
  5  6  2  0  0  0  0
  5  9  1  0  0  0  0
  7  2  1  0  0  0  0
  8  3  1  0  0  0  0
  9 10  2  0  0  0  0
  9 18  1  0  0  0  0
 10 11  1  0  0  0  0
 11 20  1  0  0  0  0
 11 12  2  0  0  0  0
 12 13  1  0  0  0  0
 13 14  2  0  0  0  0
 14 21  1  0  0  0  0
 15 14  1  0  0  0  0
 15 22  1  0  0  0  0
 16 15  2  0  0  0  0
 17 12  1  0  0  0  0
 17 16  1  0  0  0  0
 18 17  2  0  0  0  0
 19 10  1  0  0  0  0
 23 16  1  0  0  0  0
 24 18  1  0  0  0  0
 25 26  1  0  0  0  0
 25 31  1  0  0  0  0
 26 32  1  0  0  0  0
 27 33  1  0  0  0  0
 27 26  2  0  0  0  0
 28 27  1  0  0  0  0
 29 28  2  0  0  0  0
 29 30  1  0  0  0  0
 30 25  2  0  0  0  0
 33 40  1  0  0  0  0
 34 36  1  0  0  0  0
 34 33  2  0  0  0  0
 35 34  1  0  0  0  0
 36 38  2  0  0  0  0
 37 36  1  0  0  0  0
 38 40  1  0  0  0  0
 38 39  1  0  0  0  0
M  END
>  <minimizedAffinity>
-6.50506067

$$$$

 OpenBabel03262523073D

 40 44  0  0  0  0  0  0  0  0999 V2000
   35.9380   28.9490   33.4610 C   0  0  0  0  0  0  0  0  0  0  0  0
   36.2840   29.1540   32.1490 C   0  0  0  0  0  0  0  0  0  0  0  0
   37.2570   28.3590   31.6050 C   0  0  0  0  0  0  0  0  0  0  0  0
   37.8610   27.3940   32.3480 N   0  0  0  0  0  0  0  0  0  0  0  0
   37.4950   27.2320   33.6150 C   0  0  0  0  0  0  0  0  0  0  0  0
   36.5370   27.9940   34.1980 N   0  0  0  0  0  0  0  0  0  0  0  0
   35.7910   29.9260   31.5730 H   0  0  0  0  0  0  0  0  0  0  0  0
   37.5500   28.4960   30.5760 H   0  0  0  0  0  0  0  0  0  0  0  0
   38.1410   26.2020   34.4150 C   0  0  0  0  0  0  0  0  0  0  0  0
   39.2510   25.5290   33.9440 C   0  0  0  0  0  0  0  0  0  0  0  0
   39.9700   24.5350   34.5730 C   0  0  0  0  0  0  0  0  0  0  0  0
   39.4720   24.2070   35.8380 C   0  0  0  0  0  0  0  0  0  0  0  0
   40.1360   23.2280   36.5180 N   0  0  0  0  0  0  0  0  0  0  0  0
   39.7450   22.8370   37.7350 C   0  0  0  0  0  0  0  0  0  0  0  0
   38.6290   23.4420   38.3280 C   0  0  0  0  0  0  0  0  0  0  0  0
   37.9620   24.4310   37.6350 C   0  0  0  0  0  0  0  0  0  0  0  0
   38.3650   24.8430   36.3680 C   0  0  0  0  0  0  0  0  0  0  0  0
   37.7090   25.8240   35.6710 C   0  0  0  0  0  0  0  0  0  0  0  0
   39.5970   25.8230   32.9540 H   0  0  0  0  0  0  0  0  0  0  0  0
   40.8130   24.0820   34.1180 H   0  0  0  0  0  0  0  0  0  0  0  0
   40.2340   22.0710   38.3090 H   0  0  0  0  0  0  0  0  0  0  0  0
   38.2640   23.1700   39.3040 H   0  0  0  0  0  0  0  0  0  0  0  0
   37.0930   24.9490   38.0190 H   0  0  0  0  0  0  0  0  0  0  0  0
   36.8430   26.3150   36.0960 H   0  0  0  0  0  0  0  0  0  0  0  0
   33.9700   31.8150   34.6570 C   0  0  0  0  0  0  0  0  0  0  0  0
   32.9280   31.2170   35.3540 C   0  0  0  0  0  0  0  0  0  0  0  0
   32.9180   29.8050   35.4030 C   0  0  0  0  0  0  0  0  0  0  0  0
   33.9130   29.1110   34.7770 N   0  0  0  0  0  0  0  0  0  0  0  0
   34.9040   29.7630   34.1100 C   0  0  0  0  0  0  0  0  0  0  0  0
   34.9300   31.1150   34.0520 N   0  0  0  0  0  0  0  0  0  0  0  0
   34.0690   32.8950   34.5580 H   0  0  0  0  0  0  0  0  0  0  0  0
   32.1840   31.8130   35.8200 H   0  0  0  0  0  0  0  0  0  0  0  0
   31.8460   29.1290   36.1240 C   0  0  0  0  0  0  0  0  0  0  0  0
   30.6610   29.7330   36.4920 C   0  0  0  0  0  0  0  0  0  0  0  0
   30.3470   30.7490   36.3190 H   0  0  0  0  0  0  0  0  0  0  0  0
   29.9890   28.6900   37.1390 C   0  0  0  0  0  0  0  0  0  0  0  0
   28.9860   28.8230   37.5710 H   0  0  0  0  0  0  0  0  0  0  0  0
   30.7910   27.5420   37.1240 C   0  0  0  0  0  0  0  0  0  0  0  0
   30.4500   26.6100   37.5800 H   0  0  0  0  0  0  0  0  0  0  0  0
   31.9010   27.8820   36.4920 O   0  0  0  0  0  0  0  0  0  0  0  0
  1 29  1  0  0  0  0
  1  6  1  0  0  0  0
  2  1  2  0  0  0  0
  3  2  1  0  0  0  0
  3  4  2  0  0  0  0
  4  5  1  0  0  0  0
  5  6  2  0  0  0  0
  5  9  1  0  0  0  0
  7  2  1  0  0  0  0
  8  3  1  0  0  0  0
  9 18  1  0  0  0  0
 10  9  2  0  0  0  0
 10 11  1  0  0  0  0
 11 12  2  0  0  0  0
 12 17  1  0  0  0  0
 12 13  1  0  0  0  0
 13 14  2  0  0  0  0
 14 21  1  0  0  0  0
 14 15  1  0  0  0  0
 15 22  1  0  0  0  0
 16 23  1  0  0  0  0
 16 15  2  0  0  0  0
 17 16  1  0  0  0  0
 18 24  1  0  0  0  0
 18 17  2  0  0  0  0
 19 10  1  0  0  0  0
 20 11  1  0  0  0  0
 25 26  1  0  0  0  0
 26 27  2  0  0  0  0
 26 32  1  0  0  0  0
 27 33  1  0  0  0  0
 28 27  1  0  0  0  0
 29 28  2  0  0  0  0
 30 29  1  0  0  0  0
 30 25  2  0  0  0  0
 31 25  1  0  0  0  0
 33 34  2  0  0  0  0
 33 40  1  0  0  0  0
 34 36  1  0  0  0  0
 35 34  1  0  0  0  0
 36 37  1  0  0  0  0
 38 36  2  0  0  0  0
 38 39  1  0  0  0  0
 40 38  1  0  0  0  0
M  END
>  <minimizedAffinity>
-6.48358774

$$$$

 OpenBabel03262523073D

 40 44  0  0  0  0  0  0  0  0999 V2000
   35.9490   28.7580   33.5780 C   0  0  0  0  0  0  0  0  0  0  0  0
   36.0330   28.7630   32.2080 C   0  0  0  0  0  0  0  0  0  0  0  0
   36.8000   27.8030   31.6030 C   0  0  0  0  0  0  0  0  0  0  0  0
   37.4590   26.8730   32.3430 N   0  0  0  0  0  0  0  0  0  0  0  0
   37.3510   26.9070   33.6670 C   0  0  0  0  0  0  0  0  0  0  0  0
   36.6030   27.8380   34.3120 N   0  0  0  0  0  0  0  0  0  0  0  0
   35.4990   29.5110   31.6350 H   0  0  0  0  0  0  0  0  0  0  0  0
   36.8840   27.7820   30.5280 H   0  0  0  0  0  0  0  0  0  0  0  0
   38.0570   25.9150   34.4640 C   0  0  0  0  0  0  0  0  0  0  0  0
   39.1360   25.2250   33.9460 C   0  0  0  0  0  0  0  0  0  0  0  0
   39.9020   24.2620   34.5660 C   0  0  0  0  0  0  0  0  0  0  0  0
   39.4960   23.9880   35.8750 C   0  0  0  0  0  0  0  0  0  0  0  0
   40.2120   23.0410   36.5490 N   0  0  0  0  0  0  0  0  0  0  0  0
   39.9080   22.7030   37.8060 C   0  0  0  0  0  0  0  0  0  0  0  0
   38.8330   23.3290   38.4490 C   0  0  0  0  0  0  0  0  0  0  0  0
   38.1130   24.2860   37.7620 C   0  0  0  0  0  0  0  0  0  0  0  0
   38.4250   24.6430   36.4540 C   0  0  0  0  0  0  0  0  0  0  0  0
   37.7160   25.5910   35.7620 C   0  0  0  0  0  0  0  0  0  0  0  0
   39.4090   25.4770   32.9220 H   0  0  0  0  0  0  0  0  0  0  0  0
   40.7140   23.7920   34.0720 H   0  0  0  0  0  0  0  0  0  0  0  0
   40.4420   21.9640   38.3770 H   0  0  0  0  0  0  0  0  0  0  0  0
   38.5400   23.1000   39.4590 H   0  0  0  0  0  0  0  0  0  0  0  0
   37.2700   24.8170   38.1830 H   0  0  0  0  0  0  0  0  0  0  0  0
   36.8790   26.0970   36.2250 H   0  0  0  0  0  0  0  0  0  0  0  0
   33.1890   30.4220   35.3480 C   0  0  0  0  0  0  0  0  0  0  0  0
   33.7060   31.6810   35.6290 C   0  0  0  0  0  0  0  0  0  0  0  0
   35.0240   31.9430   35.1960 C   0  0  0  0  0  0  0  0  0  0  0  0
   35.7140   30.9680   34.5340 N   0  0  0  0  0  0  0  0  0  0  0  0
   35.1460   29.7560   34.2930 C   0  0  0  0  0  0  0  0  0  0  0  0
   33.8830   29.4860   34.7010 N   0  0  0  0  0  0  0  0  0  0  0  0
   32.1850   30.1180   35.6380 H   0  0  0  0  0  0  0  0  0  0  0  0
   33.1170   32.3960   36.1480 H   0  0  0  0  0  0  0  0  0  0  0  0
   35.6100   33.2510   35.4660 C   0  0  0  0  0  0  0  0  0  0  0  0
   34.9070   34.3240   35.9730 C   0  0  0  0  0  0  0  0  0  0  0  0
   33.8640   34.3740   36.2390 H   0  0  0  0  0  0  0  0  0  0  0  0
   35.8950   35.3130   36.0480 C   0  0  0  0  0  0  0  0  0  0  0  0
   35.6780   36.3260   36.4190 H   0  0  0  0  0  0  0  0  0  0  0  0
   37.1110   34.7900   35.5910 C   0  0  0  0  0  0  0  0  0  0  0  0
   38.0140   35.4020   35.5670 H   0  0  0  0  0  0  0  0  0  0  0  0
   36.8630   33.5350   35.2550 O   0  0  0  0  0  0  0  0  0  0  0  0
  1 29  1  0  0  0  0
  1  6  1  0  0  0  0
  2  1  2  0  0  0  0
  3  2  1  0  0  0  0
  3  4  2  0  0  0  0
  4  5  1  0  0  0  0
  5  6  2  0  0  0  0
  5  9  1  0  0  0  0
  7  2  1  0  0  0  0
  8  3  1  0  0  0  0
  9 18  1  0  0  0  0
 10  9  2  0  0  0  0
 10 11  1  0  0  0  0
 11 12  2  0  0  0  0
 12 17  1  0  0  0  0
 12 13  1  0  0  0  0
 13 14  2  0  0  0  0
 14 21  1  0  0  0  0
 14 15  1  0  0  0  0
 15 22  1  0  0  0  0
 16 23  1  0  0  0  0
 16 15  2  0  0  0  0
 17 16  1  0  0  0  0
 18 24  1  0  0  0  0
 18 17  2  0  0  0  0
 19 10  1  0  0  0  0
 20 11  1  0  0  0  0
 25 26  1  0  0  0  0
 25 31  1  0  0  0  0
 26 32  1  0  0  0  0
 27 33  1  0  0  0  0
 27 26  2  0  0  0  0
 28 27  1  0  0  0  0
 29 28  2  0  0  0  0
 29 30  1  0  0  0  0
 30 25  2  0  0  0  0
 33 34  2  0  0  0  0
 34 36  1  0  0  0  0
 34 35  1  0  0  0  0
 36 37  1  0  0  0  0
 38 36  2  0  0  0  0
 39 38  1  0  0  0  0
 40 33  1  0  0  0  0
 40 38  1  0  0  0  0
M  END
>  <minimizedAffinity>
-6.46759415

$$$$

 OpenBabel03262523073D

 40 44  0  0  0  0  0  0  0  0999 V2000
   37.4480   26.6780   33.8460 C   0  0  0  0  0  0  0  0  0  0  0  0
   38.4180   26.7140   34.8160 C   0  0  0  0  0  0  0  0  0  0  0  0
   39.0700   25.5500   35.1240 C   0  0  0  0  0  0  0  0  0  0  0  0
   38.7610   24.3920   34.4830 N   0  0  0  0  0  0  0  0  0  0  0  0
   37.8150   24.4030   33.5510 C   0  0  0  0  0  0  0  0  0  0  0  0
   37.1420   25.5300   33.2110 N   0  0  0  0  0  0  0  0  0  0  0  0
   38.6500   27.6470   35.3150 H   0  0  0  0  0  0  0  0  0  0  0  0
   39.8360   25.5480   35.8820 H   0  0  0  0  0  0  0  0  0  0  0  0
   37.4790   23.1640   32.8630 C   0  0  0  0  0  0  0  0  0  0  0  0
   37.9230   22.9240   31.5780 C   0  0  0  0  0  0  0  0  0  0  0  0
   37.6920   21.8120   30.7960 C   0  0  0  0  0  0  0  0  0  0  0  0
   36.9090   20.8420   31.4280 C   0  0  0  0  0  0  0  0  0  0  0  0
   36.6390   19.7130   30.7110 N   0  0  0  0  0  0  0  0  0  0  0  0
   35.9000   18.7240   31.2200 C   0  0  0  0  0  0  0  0  0  0  0  0
   35.3880   18.8430   32.5190 C   0  0  0  0  0  0  0  0  0  0  0  0
   35.6640   19.9860   33.2400 C   0  0  0  0  0  0  0  0  0  0  0  0
   36.4340   21.0210   32.7150 C   0  0  0  0  0  0  0  0  0  0  0  0
   36.7130   22.1620   33.4220 C   0  0  0  0  0  0  0  0  0  0  0  0
   38.5280   23.7120   31.1310 H   0  0  0  0  0  0  0  0  0  0  0  0
   38.0820   21.7290   29.8140 H   0  0  0  0  0  0  0  0  0  0  0  0
   35.6610   17.8170   30.6940 H   0  0  0  0  0  0  0  0  0  0  0  0
   34.7860   18.0810   32.9840 H   0  0  0  0  0  0  0  0  0  0  0  0
   35.3090   20.1600   34.2470 H   0  0  0  0  0  0  0  0  0  0  0  0
   36.3360   22.2900   34.4280 H   0  0  0  0  0  0  0  0  0  0  0  0
   35.7950   29.2970   31.8640 C   0  0  0  0  0  0  0  0  0  0  0  0
   35.3160   30.1720   32.8310 C   0  0  0  0  0  0  0  0  0  0  0  0
   35.5750   29.8400   34.1790 C   0  0  0  0  0  0  0  0  0  0  0  0
   36.2700   28.7000   34.4620 N   0  0  0  0  0  0  0  0  0  0  0  0
   36.7090   27.8860   33.4640 C   0  0  0  0  0  0  0  0  0  0  0  0
   36.4710   28.1880   32.1660 N   0  0  0  0  0  0  0  0  0  0  0  0
   35.6490   29.4600   30.7980 H   0  0  0  0  0  0  0  0  0  0  0  0
   34.7820   31.0440   32.5460 H   0  0  0  0  0  0  0  0  0  0  0  0
   35.0940   30.7280   35.2310 C   0  0  0  0  0  0  0  0  0  0  0  0
   35.8940   31.6180   35.9180 C   0  0  0  0  0  0  0  0  0  0  0  0
   36.9500   31.7980   35.7990 H   0  0  0  0  0  0  0  0  0  0  0  0
   34.9810   32.2170   36.7950 C   0  0  0  0  0  0  0  0  0  0  0  0
   35.2850   32.9960   37.5090 H   0  0  0  0  0  0  0  0  0  0  0  0
   33.7110   31.6630   36.5910 C   0  0  0  0  0  0  0  0  0  0  0  0
   32.8510   31.9930   37.1770 H   0  0  0  0  0  0  0  0  0  0  0  0
   33.8550   30.7680   35.6290 O   0  0  0  0  0  0  0  0  0  0  0  0
  1  2  1  0  0  0  0
  2  3  2  0  0  0  0
  2  7  1  0  0  0  0
  3  8  1  0  0  0  0
  4  3  1  0  0  0  0
  5  4  2  0  0  0  0
  6  5  1  0  0  0  0
  6  1  2  0  0  0  0
  9 18  1  0  0  0  0
  9  5  1  0  0  0  0
 10  9  2  0  0  0  0
 11 12  2  0  0  0  0
 11 10  1  0  0  0  0
 12 17  1  0  0  0  0
 13 14  2  0  0  0  0
 13 12  1  0  0  0  0
 14 15  1  0  0  0  0
 15 22  1  0  0  0  0
 15 16  2  0  0  0  0
 16 23  1  0  0  0  0
 17 16  1  0  0  0  0
 17 18  2  0  0  0  0
 18 24  1  0  0  0  0
 19 10  1  0  0  0  0
 20 11  1  0  0  0  0
 21 14  1  0  0  0  0
 25 30  2  0  0  0  0
 25 26  1  0  0  0  0
 26 27  2  0  0  0  0
 27 28  1  0  0  0  0
 27 33  1  0  0  0  0
 29  1  1  0  0  0  0
 29 28  2  0  0  0  0
 30 29  1  0  0  0  0
 31 25  1  0  0  0  0
 32 26  1  0  0  0  0
 33 40  1  0  0  0  0
 33 34  2  0  0  0  0
 34 36  1  0  0  0  0
 35 34  1  0  0  0  0
 36 37  1  0  0  0  0
 38 36  2  0  0  0  0
 38 39  1  0  0  0  0
 40 38  1  0  0  0  0
M  END
>  <minimizedAffinity>
-6.34300184

$$$$
