REMARK  Name = 
REMARK  3 active torsions:
REMARK  status: ('A' for Active; 'I' for Inactive)
REMARK    1  A    between atoms: C_2  and  C_7
REMARK    2  A    between atoms: C_3  and  C_13
REMARK    3  A    between atoms: C_12  and  C_23
REMARK                            x       y       z     vdW  Elec       q    Type
REMARK                         _______ _______ _______ _____ _____    ______ ____
ROOT
ATOM      1  C   UNL     1      38.046  31.379  48.464  0.00  0.00    +0.000 A 
ATOM      2  C   UNL     1      38.535  30.662  47.393  0.00  0.00    +0.000 A 
ATOM      3  C   UNL     1      39.337  31.190  46.392  0.00  0.00    +0.000 A 
ATOM      4  C   UNL     1      39.680  32.551  46.464  0.00  0.00    +0.000 A 
ATOM      5  C   UNL     1      39.186  33.274  47.545  0.00  0.00    +0.000 A 
ATOM      6  C   UNL     1      38.394  32.728  48.525  0.00  0.00    +0.000 A 
ATOM      7  H   UNL     1      38.315  29.608  47.267  0.00  0.00    +0.000 HD
ATOM      8  H   UNL     1      39.702  30.595  45.566  0.00  0.00    +0.000 HD
ATOM      9  H   UNL     1      40.299  33.038  45.726  0.00  0.00    +0.000 HD
ATOM     10  H   UNL     1      39.452  34.332  47.603  0.00  0.00    +0.000 HD
ENDROOT
BRANCH   1  12
ATOM     11  C   UNL     1      37.764  30.504  50.720  0.00  0.00    +0.000 A 
ATOM     12  C   UNL     1      37.230  30.666  49.406  0.00  0.00    +0.000 A 
ATOM     13  C   UNL     1      35.977  30.124  49.152  0.00  0.00    +0.000 A 
ATOM     14  N   UNL     1      35.318  29.469  50.155  0.00  0.00    +0.000 NA
ATOM     15  C   UNL     1      35.864  29.334  51.407  0.00  0.00    +0.000 A 
ATOM     16  N   UNL     1      37.085  29.853  51.683  0.00  0.00    +0.000 NA
ATOM     17  H   UNL     1      38.736  30.914  50.949  0.00  0.00    +0.000 HD
ATOM     18  H   UNL     1      35.231  28.792  52.102  0.00  0.00    +0.000 HD
BRANCH  13  19
ATOM     19  C   UNL     1      35.301  30.215  47.836  0.00  0.00    +0.000 C 
ATOM     20  F   UNL     1      34.014  30.775  48.006  0.00  0.00    +0.000 F 
ATOM     21  F   UNL     1      35.947  30.909  46.878  0.00  0.00    +0.000 F 
ATOM     22  F   UNL     1      35.022  28.929  47.361  0.00  0.00    +0.000 F 
ENDBRANCH  13  19
ENDBRANCH   1  12
BRANCH   6  23
ATOM     23  C   UNL     1      37.879  33.479  49.650  0.00  0.00    +0.000 A 
ATOM     24  C   UNL     1      38.656  34.117  50.623  0.00  0.00    +0.000 A 
ATOM     25  H   UNL     1      39.727  34.155  50.696  0.00  0.00    +0.000 HD
ATOM     26  C   UNL     1      37.790  34.730  51.535  0.00  0.00    +0.000 A 
ATOM     27  H   UNL     1      38.106  35.300  52.400  0.00  0.00    +0.000 HD
ATOM     28  C   UNL     1      36.527  34.422  51.054  0.00  0.00    +0.000 A 
ATOM     29  H   UNL     1      35.655  34.787  51.591  0.00  0.00    +0.000 HD
ATOM     30  O   UNL     1      36.621  33.706  49.975  0.00  0.00    +0.000 OA
ENDBRANCH   6  23
TORSDOF 3
