
 OpenBabel03272506593D

 27 29  0  0  0  0  0  0  0  0999 V2000
   36.2370   23.8660   31.7860 C   0  0  0  0  0  0  0  0  0  0  0  0
   35.4700   24.7250   31.0140 C   0  0  0  0  0  0  0  0  0  0  0  0
   35.4630   26.0950   31.0990 C   0  0  0  0  0  0  0  0  0  0  0  0
   36.2920   26.6420   32.0320 N   0  0  0  0  0  0  0  0  0  0  0  0
   37.0540   25.8270   32.8020 C   0  0  0  0  0  0  0  0  0  0  0  0
   37.0220   24.4900   32.6760 N   0  0  0  0  0  0  0  0  0  0  0  0
   34.8020   24.3190   30.2650 H   0  0  0  0  0  0  0  0  0  0  0  0
   34.8440   26.7110   30.4710 H   0  0  0  0  0  0  0  0  0  0  0  0
   34.9590   20.4950   32.0960 C   0  0  0  0  0  0  0  0  0  0  0  0
   35.8550   19.6950   31.3650 C   0  0  0  0  0  0  0  0  0  0  0  0
   36.9370   20.3820   30.7520 C   0  0  0  0  0  0  0  0  0  0  0  0
   37.0380   21.7180   30.9010 N   0  0  0  0  0  0  0  0  0  0  0  0
   36.1560   22.4220   31.6070 C   0  0  0  0  0  0  0  0  0  0  0  0
   35.0820   21.8420   32.2340 N   0  0  0  0  0  0  0  0  0  0  0  0
   34.1080   20.0300   32.5910 H   0  0  0  0  0  0  0  0  0  0  0  0
   37.6530   19.8130   30.1790 H   0  0  0  0  0  0  0  0  0  0  0  0
   35.6860   18.2960   31.2500 N   0  0  0  0  0  0  0  0  0  0  0  0
   35.0820   17.8500   31.9690 H   0  0  0  0  0  0  0  0  0  0  0  0
   36.1700   17.8110   30.4690 H   0  0  0  0  0  0  0  0  0  0  0  0
   37.9770   26.3010   33.8320 C   0  0  0  0  0  0  0  0  0  0  0  0
   37.4450   26.9300   34.9400 C   0  0  0  0  0  0  0  0  0  0  0  0
   36.4440   27.1810   35.2650 H   0  0  0  0  0  0  0  0  0  0  0  0
   38.5300   27.2720   35.7460 C   0  0  0  0  0  0  0  0  0  0  0  0
   38.6480   27.7660   36.6950 H   0  0  0  0  0  0  0  0  0  0  0  0
   39.6590   26.8270   35.0740 C   0  0  0  0  0  0  0  0  0  0  0  0
   40.7160   26.8970   35.3630 H   0  0  0  0  0  0  0  0  0  0  0  0
   39.2970   26.2540   33.9390 O   0  0  0  0  0  0  0  0  0  0  0  0
  1  6  1  0  0  0  0
  2  3  1  0  0  0  0
  2  1  2  0  0  0  0
  3  4  2  0  0  0  0
  4  5  1  0  0  0  0
  5 20  1  0  0  0  0
  6  5  2  0  0  0  0
  7  2  1  0  0  0  0
  8  3  1  0  0  0  0
  9 14  1  0  0  0  0
  9 15  1  0  0  0  0
 10  9  2  0  0  0  0
 11 12  2  0  0  0  0
 11 10  1  0  0  0  0
 12 13  1  0  0  0  0
 13  1  1  0  0  0  0
 13 14  2  0  0  0  0
 16 11  1  0  0  0  0
 17 10  1  0  0  0  0
 17 18  1  0  0  0  0
 19 17  1  0  0  0  0
 20 27  1  0  0  0  0
 20 21  2  0  0  0  0
 21 22  1  0  0  0  0
 21 23  1  0  0  0  0
 23 24  1  0  0  0  0
 25 26  1  0  0  0  0
 25 23  2  0  0  0  0
 27 25  1  0  0  0  0
M  END
>  <minimizedAffinity>
-5.21230078

$$$$

 OpenBabel03272506593D

 27 29  0  0  0  0  0  0  0  0999 V2000
   38.4750   25.3570   35.4550 C   0  0  0  0  0  0  0  0  0  0  0  0
   38.5130   26.6530   35.9460 C   0  0  0  0  0  0  0  0  0  0  0  0
   37.9150   27.7480   35.3740 C   0  0  0  0  0  0  0  0  0  0  0  0
   37.2260   27.5200   34.2200 N   0  0  0  0  0  0  0  0  0  0  0  0
   37.1720   26.2630   33.7160 C   0  0  0  0  0  0  0  0  0  0  0  0
   37.7770   25.2260   34.3180 N   0  0  0  0  0  0  0  0  0  0  0  0
   39.0530   26.8630   36.8610 H   0  0  0  0  0  0  0  0  0  0  0  0
   37.9790   28.7320   35.8030 H   0  0  0  0  0  0  0  0  0  0  0  0
   40.8700   22.7100   36.0510 C   0  0  0  0  0  0  0  0  0  0  0  0
   40.5520   22.2090   37.3260 C   0  0  0  0  0  0  0  0  0  0  0  0
   39.4570   22.8340   37.9800 C   0  0  0  0  0  0  0  0  0  0  0  0
   38.8070   23.8410   37.3600 N   0  0  0  0  0  0  0  0  0  0  0  0
   39.1560   24.2710   36.1500 C   0  0  0  0  0  0  0  0  0  0  0  0
   40.2000   23.7250   35.4450 N   0  0  0  0  0  0  0  0  0  0  0  0
   41.6980   22.2730   35.4960 H   0  0  0  0  0  0  0  0  0  0  0  0
   39.1730   22.4870   38.9610 H   0  0  0  0  0  0  0  0  0  0  0  0
   41.2780   21.1490   37.9160 N   0  0  0  0  0  0  0  0  0  0  0  0
   41.8290   20.5560   37.2630 H   0  0  0  0  0  0  0  0  0  0  0  0
   41.2160   21.0310   38.9460 H   0  0  0  0  0  0  0  0  0  0  0  0
   36.4640   25.9030   32.4890 C   0  0  0  0  0  0  0  0  0  0  0  0
   36.5410   24.5930   32.0570 C   0  0  0  0  0  0  0  0  0  0  0  0
   37.0270   23.6980   32.4220 H   0  0  0  0  0  0  0  0  0  0  0  0
   35.7870   24.5300   30.8860 C   0  0  0  0  0  0  0  0  0  0  0  0
   35.5370   23.7560   30.1810 H   0  0  0  0  0  0  0  0  0  0  0  0
   35.2970   25.8120   30.6780 C   0  0  0  0  0  0  0  0  0  0  0  0
   34.6600   26.1920   29.8700 H   0  0  0  0  0  0  0  0  0  0  0  0
   35.7180   26.6040   31.6490 O   0  0  0  0  0  0  0  0  0  0  0  0
  1  2  1  0  0  0  0
  1 13  1  0  0  0  0
  2  7  1  0  0  0  0
  3  8  1  0  0  0  0
  3  2  2  0  0  0  0
  4  3  1  0  0  0  0
  5  4  2  0  0  0  0
  5  6  1  0  0  0  0
  6  1  2  0  0  0  0
  9 10  1  0  0  0  0
 10 17  1  0  0  0  0
 10 11  2  0  0  0  0
 11 16  1  0  0  0  0
 12 11  1  0  0  0  0
 13 12  2  0  0  0  0
 14  9  2  0  0  0  0
 14 13  1  0  0  0  0
 15  9  1  0  0  0  0
 17 19  1  0  0  0  0
 18 17  1  0  0  0  0
 20  5  1  0  0  0  0
 21 22  1  0  0  0  0
 21 20  2  0  0  0  0
 23 21  1  0  0  0  0
 24 23  1  0  0  0  0
 25 23  2  0  0  0  0
 25 27  1  0  0  0  0
 26 25  1  0  0  0  0
 27 20  1  0  0  0  0
M  END
>  <minimizedAffinity>
-5.14629221

$$$$

 OpenBabel03272506593D

 27 29  0  0  0  0  0  0  0  0999 V2000
   38.4070   24.4770   36.1250 C   0  0  0  0  0  0  0  0  0  0  0  0
   37.7210   24.4620   37.3300 C   0  0  0  0  0  0  0  0  0  0  0  0
   38.0970   23.7790   38.4620 C   0  0  0  0  0  0  0  0  0  0  0  0
   39.2510   23.0600   38.3710 N   0  0  0  0  0  0  0  0  0  0  0  0
   39.9420   23.0560   37.2050 C   0  0  0  0  0  0  0  0  0  0  0  0
   39.5280   23.7430   36.1280 N   0  0  0  0  0  0  0  0  0  0  0  0
   36.8020   25.0240   37.4300 H   0  0  0  0  0  0  0  0  0  0  0  0
   37.5220   23.8050   39.3700 H   0  0  0  0  0  0  0  0  0  0  0  0
   36.9930   27.2510   34.2800 C   0  0  0  0  0  0  0  0  0  0  0  0
   36.9290   26.8090   32.9470 C   0  0  0  0  0  0  0  0  0  0  0  0
   37.4030   25.4910   32.7100 C   0  0  0  0  0  0  0  0  0  0  0  0
   37.8710   24.7630   33.7440 N   0  0  0  0  0  0  0  0  0  0  0  0
   37.9050   25.2380   34.9870 C   0  0  0  0  0  0  0  0  0  0  0  0
   37.4680   26.4990   35.3080 N   0  0  0  0  0  0  0  0  0  0  0  0
   36.6440   28.2520   34.5290 H   0  0  0  0  0  0  0  0  0  0  0  0
   37.3760   25.1040   31.7030 H   0  0  0  0  0  0  0  0  0  0  0  0
   36.4250   27.6280   31.9100 N   0  0  0  0  0  0  0  0  0  0  0  0
   35.8220   28.4200   32.2090 H   0  0  0  0  0  0  0  0  0  0  0  0
   36.6840   27.3890   30.9330 H   0  0  0  0  0  0  0  0  0  0  0  0
   41.1890   22.3220   36.9950 C   0  0  0  0  0  0  0  0  0  0  0  0
   42.2410   22.9890   36.3990 C   0  0  0  0  0  0  0  0  0  0  0  0
   42.3900   23.9910   36.0180 H   0  0  0  0  0  0  0  0  0  0  0  0
   43.2850   22.0680   36.3230 C   0  0  0  0  0  0  0  0  0  0  0  0
   44.2960   22.0910   35.9510 H   0  0  0  0  0  0  0  0  0  0  0  0
   42.8000   20.8940   36.8810 C   0  0  0  0  0  0  0  0  0  0  0  0
   43.3010   19.9270   37.0160 H   0  0  0  0  0  0  0  0  0  0  0  0
   41.5510   21.0780   37.2710 O   0  0  0  0  0  0  0  0  0  0  0  0
  1  6  2  0  0  0  0
  1  2  1  0  0  0  0
  2  7  1  0  0  0  0
  2  3  2  0  0  0  0
  3  8  1  0  0  0  0
  4  3  1  0  0  0  0
  5  4  2  0  0  0  0
  6  5  1  0  0  0  0
  9 15  1  0  0  0  0
  9 14  1  0  0  0  0
 10  9  2  0  0  0  0
 11 10  1  0  0  0  0
 11 12  2  0  0  0  0
 12 13  1  0  0  0  0
 13 14  2  0  0  0  0
 13  1  1  0  0  0  0
 16 11  1  0  0  0  0
 17 18  1  0  0  0  0
 17 10  1  0  0  0  0
 19 17  1  0  0  0  0
 20  5  1  0  0  0  0
 20 27  1  0  0  0  0
 21 20  2  0  0  0  0
 22 21  1  0  0  0  0
 23 21  1  0  0  0  0
 23 25  2  0  0  0  0
 24 23  1  0  0  0  0
 25 26  1  0  0  0  0
 25 27  1  0  0  0  0
M  END
>  <minimizedAffinity>
-4.93108177

$$$$

 OpenBabel03272506593D

 27 29  0  0  0  0  0  0  0  0999 V2000
   37.7760   25.1000   33.7550 C   0  0  0  0  0  0  0  0  0  0  0  0
   37.9080   24.4680   32.5280 C   0  0  0  0  0  0  0  0  0  0  0  0
   37.5930   25.0090   31.3060 C   0  0  0  0  0  0  0  0  0  0  0  0
   37.1110   26.2840   31.3210 N   0  0  0  0  0  0  0  0  0  0  0  0
   36.9710   26.9270   32.5060 C   0  0  0  0  0  0  0  0  0  0  0  0
   37.2940   26.3490   33.6750 N   0  0  0  0  0  0  0  0  0  0  0  0
   38.2890   23.4560   32.4860 H   0  0  0  0  0  0  0  0  0  0  0  0
   37.7180   24.4690   30.3840 H   0  0  0  0  0  0  0  0  0  0  0  0
   38.0830   24.4990   37.3100 C   0  0  0  0  0  0  0  0  0  0  0  0
   38.7500   23.2670   37.4170 C   0  0  0  0  0  0  0  0  0  0  0  0
   39.0960   22.6430   36.1880 C   0  0  0  0  0  0  0  0  0  0  0  0
   38.7730   23.2500   35.0280 N   0  0  0  0  0  0  0  0  0  0  0  0
   38.1400   24.4200   34.9920 C   0  0  0  0  0  0  0  0  0  0  0  0
   37.7680   25.0930   36.1290 N   0  0  0  0  0  0  0  0  0  0  0  0
   37.7900   25.0300   38.2150 H   0  0  0  0  0  0  0  0  0  0  0  0
   39.6090   21.6950   36.2150 H   0  0  0  0  0  0  0  0  0  0  0  0
   39.0560   22.6880   38.6700 N   0  0  0  0  0  0  0  0  0  0  0  0
   39.0610   23.3360   39.4820 H   0  0  0  0  0  0  0  0  0  0  0  0
   39.2540   21.6680   38.6990 H   0  0  0  0  0  0  0  0  0  0  0  0
   36.4650   28.2910   32.6430 C   0  0  0  0  0  0  0  0  0  0  0  0
   35.9560   28.6750   33.8680 C   0  0  0  0  0  0  0  0  0  0  0  0
   35.8260   28.1860   34.8250 H   0  0  0  0  0  0  0  0  0  0  0  0
   35.5520   30.0010   33.7190 C   0  0  0  0  0  0  0  0  0  0  0  0
   35.1020   30.7380   34.3620 H   0  0  0  0  0  0  0  0  0  0  0  0
   35.8420   30.3420   32.4050 C   0  0  0  0  0  0  0  0  0  0  0  0
   35.6820   31.2920   31.8800 H   0  0  0  0  0  0  0  0  0  0  0  0
   36.3840   29.3040   31.7920 O   0  0  0  0  0  0  0  0  0  0  0  0
  1 13  1  0  0  0  0
  2  1  2  0  0  0  0
  3  4  2  0  0  0  0
  3  2  1  0  0  0  0
  4  5  1  0  0  0  0
  5 20  1  0  0  0  0
  5  6  2  0  0  0  0
  6  1  1  0  0  0  0
  7  2  1  0  0  0  0
  8  3  1  0  0  0  0
  9 10  1  0  0  0  0
  9 15  1  0  0  0  0
 10 17  1  0  0  0  0
 11 16  1  0  0  0  0
 11 10  2  0  0  0  0
 12 11  1  0  0  0  0
 13 12  2  0  0  0  0
 13 14  1  0  0  0  0
 14  9  2  0  0  0  0
 17 19  1  0  0  0  0
 17 18  1  0  0  0  0
 20 21  2  0  0  0  0
 21 22  1  0  0  0  0
 23 21  1  0  0  0  0
 23 24  1  0  0  0  0
 25 23  2  0  0  0  0
 26 25  1  0  0  0  0
 27 25  1  0  0  0  0
 27 20  1  0  0  0  0
M  END
>  <minimizedAffinity>
-4.91948366

$$$$

 OpenBabel03272506593D

 27 29  0  0  0  0  0  0  0  0999 V2000
   37.8830   24.2540   33.1150 C   0  0  0  0  0  0  0  0  0  0  0  0
   38.0410   23.0080   32.5290 C   0  0  0  0  0  0  0  0  0  0  0  0
   38.3340   21.8390   33.1880 C   0  0  0  0  0  0  0  0  0  0  0  0
   38.4770   21.9340   34.5400 N   0  0  0  0  0  0  0  0  0  0  0  0
   38.3290   23.1400   35.1410 C   0  0  0  0  0  0  0  0  0  0  0  0
   38.0430   24.2530   34.4460 N   0  0  0  0  0  0  0  0  0  0  0  0
   37.9330   22.9030   31.4570 H   0  0  0  0  0  0  0  0  0  0  0  0
   38.4450   20.8990   32.6780 H   0  0  0  0  0  0  0  0  0  0  0  0
   35.9520   26.5390   31.0800 C   0  0  0  0  0  0  0  0  0  0  0  0
   36.8350   27.5870   30.7680 C   0  0  0  0  0  0  0  0  0  0  0  0
   38.1470   27.4670   31.2980 C   0  0  0  0  0  0  0  0  0  0  0  0
   38.4590   26.3900   32.0480 N   0  0  0  0  0  0  0  0  0  0  0  0
   37.5770   25.4290   32.3090 C   0  0  0  0  0  0  0  0  0  0  0  0
   36.2890   25.4610   31.8370 N   0  0  0  0  0  0  0  0  0  0  0  0
   34.9300   26.5690   30.7030 H   0  0  0  0  0  0  0  0  0  0  0  0
   38.8630   28.2460   31.0880 H   0  0  0  0  0  0  0  0  0  0  0  0
   36.4380   28.6890   29.9750 N   0  0  0  0  0  0  0  0  0  0  0  0
   35.5980   28.5430   29.3810 H   0  0  0  0  0  0  0  0  0  0  0  0
   37.0030   29.5590   30.0350 H   0  0  0  0  0  0  0  0  0  0  0  0
   38.4600   23.3590   36.5800 C   0  0  0  0  0  0  0  0  0  0  0  0
   37.6340   24.2940   37.1720 C   0  0  0  0  0  0  0  0  0  0  0  0
   36.8560   24.9570   36.8150 H   0  0  0  0  0  0  0  0  0  0  0  0
   37.9660   24.2990   38.5260 C   0  0  0  0  0  0  0  0  0  0  0  0
   37.6230   24.8370   39.3930 H   0  0  0  0  0  0  0  0  0  0  0  0
   38.9790   23.3610   38.6730 C   0  0  0  0  0  0  0  0  0  0  0  0
   39.5210   23.0560   39.5780 H   0  0  0  0  0  0  0  0  0  0  0  0
   39.2490   22.8200   37.4980 O   0  0  0  0  0  0  0  0  0  0  0  0
  1  6  1  0  0  0  0
  2  1  2  0  0  0  0
  2  3  1  0  0  0  0
  3  4  2  0  0  0  0
  4  5  1  0  0  0  0
  5 20  1  0  0  0  0
  6  5  2  0  0  0  0
  7  2  1  0  0  0  0
  8  3  1  0  0  0  0
  9 14  1  0  0  0  0
 10  9  2  0  0  0  0
 10 11  1  0  0  0  0
 11 12  2  0  0  0  0
 12 13  1  0  0  0  0
 13  1  1  0  0  0  0
 14 13  2  0  0  0  0
 15  9  1  0  0  0  0
 16 11  1  0  0  0  0
 17 19  1  0  0  0  0
 17 10  1  0  0  0  0
 18 17  1  0  0  0  0
 20 21  2  0  0  0  0
 20 27  1  0  0  0  0
 21 23  1  0  0  0  0
 22 21  1  0  0  0  0
 23 25  2  0  0  0  0
 23 24  1  0  0  0  0
 25 26  1  0  0  0  0
 27 25  1  0  0  0  0
M  END
>  <minimizedAffinity>
-4.81727076

$$$$

 OpenBabel03272506593D

 27 29  0  0  0  0  0  0  0  0999 V2000
   37.1230   26.9600   33.8540 C   0  0  0  0  0  0  0  0  0  0  0  0
   37.1810   27.1550   32.4830 C   0  0  0  0  0  0  0  0  0  0  0  0
   36.7510   28.2730   31.8090 C   0  0  0  0  0  0  0  0  0  0  0  0
   36.2250   29.2690   32.5770 N   0  0  0  0  0  0  0  0  0  0  0  0
   36.1560   29.1060   33.9210 C   0  0  0  0  0  0  0  0  0  0  0  0
   36.5910   27.9900   34.5280 N   0  0  0  0  0  0  0  0  0  0  0  0
   37.5930   26.3810   31.8490 H   0  0  0  0  0  0  0  0  0  0  0  0
   36.8220   28.3670   30.7410 H   0  0  0  0  0  0  0  0  0  0  0  0
   38.2110   24.6630   36.4300 C   0  0  0  0  0  0  0  0  0  0  0  0
   38.5130   23.4700   35.7530 C   0  0  0  0  0  0  0  0  0  0  0  0
   38.3220   23.4930   34.3450 C   0  0  0  0  0  0  0  0  0  0  0  0
   37.8760   24.6230   33.7590 N   0  0  0  0  0  0  0  0  0  0  0  0
   37.6070   25.7250   34.4570 C   0  0  0  0  0  0  0  0  0  0  0  0
   37.7630   25.7920   35.8190 N   0  0  0  0  0  0  0  0  0  0  0  0
   38.3370   24.7120   37.5110 H   0  0  0  0  0  0  0  0  0  0  0  0
   38.5390   22.6010   33.7780 H   0  0  0  0  0  0  0  0  0  0  0  0
   38.9770   22.3200   36.4320 N   0  0  0  0  0  0  0  0  0  0  0  0
   39.3830   22.4820   37.3750 H   0  0  0  0  0  0  0  0  0  0  0  0
   38.8840   21.4020   35.9540 H   0  0  0  0  0  0  0  0  0  0  0  0
   35.6120   30.1050   34.8390 C   0  0  0  0  0  0  0  0  0  0  0  0
   34.2470   30.3090   34.8410 C   0  0  0  0  0  0  0  0  0  0  0  0
   33.4130   29.8880   34.2950 H   0  0  0  0  0  0  0  0  0  0  0  0
   34.0070   31.2970   35.7950 C   0  0  0  0  0  0  0  0  0  0  0  0
   33.1310   31.8000   36.1680 H   0  0  0  0  0  0  0  0  0  0  0  0
   35.2490   31.6330   36.3160 C   0  0  0  0  0  0  0  0  0  0  0  0
   35.5040   32.3670   37.0910 H   0  0  0  0  0  0  0  0  0  0  0  0
   36.1820   30.9060   35.7270 O   0  0  0  0  0  0  0  0  0  0  0  0
  1 13  1  0  0  0  0
  1  6  1  0  0  0  0
  2  1  2  0  0  0  0
  3  2  1  0  0  0  0
  3  4  2  0  0  0  0
  4  5  1  0  0  0  0
  5  6  2  0  0  0  0
  5 20  1  0  0  0  0
  7  2  1  0  0  0  0
  8  3  1  0  0  0  0
  9 15  1  0  0  0  0
 10  9  2  0  0  0  0
 10 17  1  0  0  0  0
 11 10  1  0  0  0  0
 12 11  2  0  0  0  0
 12 13  1  0  0  0  0
 13 14  2  0  0  0  0
 14  9  1  0  0  0  0
 16 11  1  0  0  0  0
 17 18  1  0  0  0  0
 19 17  1  0  0  0  0
 20 21  2  0  0  0  0
 20 27  1  0  0  0  0
 21 23  1  0  0  0  0
 22 21  1  0  0  0  0
 23 24  1  0  0  0  0
 23 25  2  0  0  0  0
 25 26  1  0  0  0  0
 27 25  1  0  0  0  0
M  END
>  <minimizedAffinity>
-4.77931261

$$$$

 OpenBabel03272506593D

 27 29  0  0  0  0  0  0  0  0999 V2000
   38.1640   25.8840   34.6600 C   0  0  0  0  0  0  0  0  0  0  0  0
   37.2030   26.7820   35.0960 C   0  0  0  0  0  0  0  0  0  0  0  0
   36.6480   27.7930   34.3500 C   0  0  0  0  0  0  0  0  0  0  0  0
   37.0950   27.9060   33.0670 N   0  0  0  0  0  0  0  0  0  0  0  0
   38.0350   27.0410   32.6130 C   0  0  0  0  0  0  0  0  0  0  0  0
   38.5450   26.0700   33.3880 N   0  0  0  0  0  0  0  0  0  0  0  0
   36.8300   26.7170   36.1100 H   0  0  0  0  0  0  0  0  0  0  0  0
   35.9030   28.4610   34.7440 H   0  0  0  0  0  0  0  0  0  0  0  0
   40.4240   23.3710   35.9530 C   0  0  0  0  0  0  0  0  0  0  0  0
   39.8090   22.8920   37.1220 C   0  0  0  0  0  0  0  0  0  0  0  0
   38.5590   23.4830   37.4490 C   0  0  0  0  0  0  0  0  0  0  0  0
   38.0520   24.4400   36.6450 N   0  0  0  0  0  0  0  0  0  0  0  0
   38.6840   24.8520   35.5480 C   0  0  0  0  0  0  0  0  0  0  0  0
   39.8940   24.3360   35.1560 N   0  0  0  0  0  0  0  0  0  0  0  0
   41.3840   22.9580   35.6460 H   0  0  0  0  0  0  0  0  0  0  0  0
   38.0450   23.1500   38.3370 H   0  0  0  0  0  0  0  0  0  0  0  0
   40.3990   21.8840   37.9200 N   0  0  0  0  0  0  0  0  0  0  0  0
   41.1210   21.3000   37.4550 H   0  0  0  0  0  0  0  0  0  0  0  0
   40.0770   21.7930   38.9040 H   0  0  0  0  0  0  0  0  0  0  0  0
   38.5870   27.0680   31.2600 C   0  0  0  0  0  0  0  0  0  0  0  0
   38.2910   28.1550   30.4610 C   0  0  0  0  0  0  0  0  0  0  0  0
   37.7120   29.0600   30.5900 H   0  0  0  0  0  0  0  0  0  0  0  0
   38.9350   27.9250   29.2460 C   0  0  0  0  0  0  0  0  0  0  0  0
   39.0160   28.4580   28.3140 H   0  0  0  0  0  0  0  0  0  0  0  0
   39.5850   26.7070   29.3830 C   0  0  0  0  0  0  0  0  0  0  0  0
   40.2060   26.1620   28.6600 H   0  0  0  0  0  0  0  0  0  0  0  0
   39.3590   26.2230   30.5920 O   0  0  0  0  0  0  0  0  0  0  0  0
  1  2  1  0  0  0  0
  1 13  1  0  0  0  0
  2  7  1  0  0  0  0
  3  8  1  0  0  0  0
  3  2  2  0  0  0  0
  4  3  1  0  0  0  0
  5  4  2  0  0  0  0
  5  6  1  0  0  0  0
  6  1  2  0  0  0  0
  9 10  1  0  0  0  0
 10 11  2  0  0  0  0
 10 17  1  0  0  0  0
 11 16  1  0  0  0  0
 12 11  1  0  0  0  0
 13 12  2  0  0  0  0
 14 13  1  0  0  0  0
 14  9  2  0  0  0  0
 15  9  1  0  0  0  0
 17 19  1  0  0  0  0
 18 17  1  0  0  0  0
 20  5  1  0  0  0  0
 21 22  1  0  0  0  0
 21 20  2  0  0  0  0
 23 25  2  0  0  0  0
 23 21  1  0  0  0  0
 24 23  1  0  0  0  0
 25 27  1  0  0  0  0
 26 25  1  0  0  0  0
 27 20  1  0  0  0  0
M  END
>  <minimizedAffinity>
-4.7069273

$$$$

 OpenBabel03272506593D

 27 29  0  0  0  0  0  0  0  0999 V2000
   35.4920   29.6850   32.8970 C   0  0  0  0  0  0  0  0  0  0  0  0
   36.0300   30.4430   31.8690 C   0  0  0  0  0  0  0  0  0  0  0  0
   36.5260   29.9570   30.6840 C   0  0  0  0  0  0  0  0  0  0  0  0
   36.4750   28.6040   30.5240 N   0  0  0  0  0  0  0  0  0  0  0  0
   35.9550   27.8370   31.5130 C   0  0  0  0  0  0  0  0  0  0  0  0
   35.4830   28.3660   32.6540 N   0  0  0  0  0  0  0  0  0  0  0  0
   36.0820   31.5200   31.9680 H   0  0  0  0  0  0  0  0  0  0  0  0
   36.9320   30.5960   29.9210 H   0  0  0  0  0  0  0  0  0  0  0  0
   35.5490   31.6110   35.9600 C   0  0  0  0  0  0  0  0  0  0  0  0
   34.2290   31.5700   36.4430 C   0  0  0  0  0  0  0  0  0  0  0  0
   33.3050   30.8360   35.6520 C   0  0  0  0  0  0  0  0  0  0  0  0
   33.7330   30.2410   34.5200 N   0  0  0  0  0  0  0  0  0  0  0  0
   34.9990   30.3160   34.1150 C   0  0  0  0  0  0  0  0  0  0  0  0
   35.9590   31.0020   34.8160 N   0  0  0  0  0  0  0  0  0  0  0  0
   36.3070   32.1560   36.5200 H   0  0  0  0  0  0  0  0  0  0  0  0
   32.2790   30.7740   35.9790 H   0  0  0  0  0  0  0  0  0  0  0  0
   33.8500   32.2190   37.6400 N   0  0  0  0  0  0  0  0  0  0  0  0
   34.6210   32.4470   38.2980 H   0  0  0  0  0  0  0  0  0  0  0  0
   32.8410   32.4230   37.7840 H   0  0  0  0  0  0  0  0  0  0  0  0
   35.8510   26.3800   31.4510 C   0  0  0  0  0  0  0  0  0  0  0  0
   36.8490   25.6330   32.0430 C   0  0  0  0  0  0  0  0  0  0  0  0
   37.7580   25.8670   32.5820 H   0  0  0  0  0  0  0  0  0  0  0  0
   36.5030   24.2980   31.8380 C   0  0  0  0  0  0  0  0  0  0  0  0
   36.9410   23.3490   32.0970 H   0  0  0  0  0  0  0  0  0  0  0  0
   35.3100   24.3180   31.1300 C   0  0  0  0  0  0  0  0  0  0  0  0
   34.6990   23.4810   30.7680 H   0  0  0  0  0  0  0  0  0  0  0  0
   34.9480   25.5710   30.9160 O   0  0  0  0  0  0  0  0  0  0  0  0
  1 13  1  0  0  0  0
  2  7  1  0  0  0  0
  2  1  2  0  0  0  0
  3  2  1  0  0  0  0
  4  3  2  0  0  0  0
  4  5  1  0  0  0  0
  5  6  2  0  0  0  0
  6  1  1  0  0  0  0
  8  3  1  0  0  0  0
  9 10  1  0  0  0  0
  9 15  1  0  0  0  0
 10 17  1  0  0  0  0
 11 16  1  0  0  0  0
 11 10  2  0  0  0  0
 12 11  1  0  0  0  0
 13 12  2  0  0  0  0
 13 14  1  0  0  0  0
 14  9  2  0  0  0  0
 17 19  1  0  0  0  0
 17 18  1  0  0  0  0
 20  5  1  0  0  0  0
 20 21  2  0  0  0  0
 21 22  1  0  0  0  0
 23 21  1  0  0  0  0
 23 24  1  0  0  0  0
 25 23  2  0  0  0  0
 26 25  1  0  0  0  0
 27 25  1  0  0  0  0
 27 20  1  0  0  0  0
M  END
>  <minimizedAffinity>
-4.70415592

$$$$

 OpenBabel03272506593D

 27 29  0  0  0  0  0  0  0  0999 V2000
   37.7380   23.6360   33.3200 C   0  0  0  0  0  0  0  0  0  0  0  0
   37.3330   22.7110   32.3700 C   0  0  0  0  0  0  0  0  0  0  0  0
   36.6880   22.9970   31.1910 C   0  0  0  0  0  0  0  0  0  0  0  0
   36.4330   24.3150   30.9530 N   0  0  0  0  0  0  0  0  0  0  0  0
   36.8160   25.2410   31.8650 C   0  0  0  0  0  0  0  0  0  0  0  0
   37.4450   24.9060   33.0030 N   0  0  0  0  0  0  0  0  0  0  0  0
   37.5240   21.6580   32.5330 H   0  0  0  0  0  0  0  0  0  0  0  0
   36.3990   22.2340   30.4910 H   0  0  0  0  0  0  0  0  0  0  0  0
   40.2560   22.1170   35.4290 C   0  0  0  0  0  0  0  0  0  0  0  0
   39.8150   22.3410   36.7440 C   0  0  0  0  0  0  0  0  0  0  0  0
   38.5910   23.0500   36.8740 C   0  0  0  0  0  0  0  0  0  0  0  0
   37.9430   23.4550   35.7620 N   0  0  0  0  0  0  0  0  0  0  0  0
   38.4120   23.2110   34.5400 C   0  0  0  0  0  0  0  0  0  0  0  0
   39.5860   22.5330   34.3220 N   0  0  0  0  0  0  0  0  0  0  0  0
   41.1870   21.5780   35.2610 H   0  0  0  0  0  0  0  0  0  0  0  0
   38.2090   23.2490   37.8630 H   0  0  0  0  0  0  0  0  0  0  0  0
   40.5470   21.8880   37.8660 N   0  0  0  0  0  0  0  0  0  0  0  0
   41.2310   21.1270   37.6860 H   0  0  0  0  0  0  0  0  0  0  0  0
   40.3570   22.3370   38.7840 H   0  0  0  0  0  0  0  0  0  0  0  0
   36.5940   26.6780   31.7150 C   0  0  0  0  0  0  0  0  0  0  0  0
   37.6810   27.4740   31.4130 C   0  0  0  0  0  0  0  0  0  0  0  0
   38.7350   27.2930   31.2470 H   0  0  0  0  0  0  0  0  0  0  0  0
   37.1920   28.7770   31.3280 C   0  0  0  0  0  0  0  0  0  0  0  0
   37.6240   29.7420   31.1230 H   0  0  0  0  0  0  0  0  0  0  0  0
   35.8310   28.6910   31.5840 C   0  0  0  0  0  0  0  0  0  0  0  0
   35.0750   29.4860   31.6140 H   0  0  0  0  0  0  0  0  0  0  0  0
   35.5070   27.4290   31.8100 O   0  0  0  0  0  0  0  0  0  0  0  0
  1 13  1  0  0  0  0
  2  7  1  0  0  0  0
  2  1  2  0  0  0  0
  3  2  1  0  0  0  0
  4  3  2  0  0  0  0
  4  5  1  0  0  0  0
  5  6  2  0  0  0  0
  6  1  1  0  0  0  0
  8  3  1  0  0  0  0
  9 10  1  0  0  0  0
 10 11  2  0  0  0  0
 10 17  1  0  0  0  0
 11 16  1  0  0  0  0
 12 11  1  0  0  0  0
 13 12  2  0  0  0  0
 14 13  1  0  0  0  0
 14  9  2  0  0  0  0
 15  9  1  0  0  0  0
 17 19  1  0  0  0  0
 18 17  1  0  0  0  0
 20 27  1  0  0  0  0
 20  5  1  0  0  0  0
 21 20  2  0  0  0  0
 22 21  1  0  0  0  0
 23 21  1  0  0  0  0
 23 25  2  0  0  0  0
 24 23  1  0  0  0  0
 25 26  1  0  0  0  0
 25 27  1  0  0  0  0
M  END
>  <minimizedAffinity>
-4.70362949

$$$$
