
 OpenBabel03272510273D

 44 48  0  0  1  0  0  0  0  0999 V2000
   35.4230   30.0630   47.0320 C   0  0  0  0  0  0  0  0  0  0  0  0
   36.6960   30.2900   47.4960 C   0  0  0  0  0  0  0  0  0  0  0  0
   37.7560   30.5470   46.6100 C   0  0  0  0  0  0  0  0  0  0  0  0
   37.4380   30.5570   45.2510 C   0  0  0  0  0  0  0  0  0  0  0  0
   38.2740   30.7820   44.1950 N   0  0  0  0  0  0  0  0  0  0  0  0
   37.5250   30.6950   43.0890 C   0  0  0  0  0  0  0  0  0  0  0  0
   36.2770   30.4280   43.4230 N   0  0  0  0  0  0  0  0  0  0  0  0
   36.1770   30.3320   44.7600 C   0  0  0  0  0  0  0  0  0  0  0  0
   35.1510   30.0800   45.6790 C   0  0  0  0  0  0  0  0  0  0  0  0
   34.6110   29.8640   47.7230 H   0  0  0  0  0  0  0  0  0  0  0  0
   38.7730   30.7320   46.9440 H   0  0  0  0  0  0  0  0  0  0  0  0
   39.2890   30.9810   44.2630 H   0  0  0  0  0  0  0  0  0  0  0  0
   34.1570   29.9040   45.2920 H   0  0  0  0  0  0  0  0  0  0  0  0
   38.0700   30.7390   50.9730 C   0  0  0  0  0  0  0  0  0  0  0  0
   37.9930   30.8660   49.5860 C   0  0  0  0  0  0  0  0  0  0  0  0
   36.9530   30.2720   48.9240 C   0  0  0  0  0  0  0  0  0  0  0  0
   36.0400   29.5780   49.6910 N   0  0  0  0  0  0  0  0  0  0  0  0
   36.1200   29.4590   51.0270 C   0  0  0  0  0  0  0  0  0  0  0  0
   37.1280   30.0360   51.6530 N   0  0  0  0  0  0  0  0  0  0  0  0
   38.9000   31.2150   51.4760 H   0  0  0  0  0  0  0  0  0  0  0  0
   38.6970   31.4030   48.9750 H   0  0  0  0  0  0  0  0  0  0  0  0
   35.3630   28.8970   51.5570 H   0  0  0  0  0  0  0  0  0  0  0  0
   38.0560   30.8750   41.8110 O   0  0  0  0  0  0  0  0  0  0  0  0
   37.6290   33.1400   41.7730 N   0  0  0  0  0  0  0  0  0  0  0  0
   37.4470   31.9050   41.0390 C   0  0  1  0  0  0  0  0  0  0  0  0
   38.0550   31.9920   39.7210 C   0  0  0  0  0  0  0  0  0  0  0  0
   37.3990   32.9950   38.9870 O   0  0  0  0  0  0  0  0  0  0  0  0
   37.3490   34.2200   39.5890 C   0  0  0  0  0  0  0  0  0  0  0  0
   36.8910   34.1410   41.0240 C   0  0  1  0  0  0  0  0  0  0  0  0
   38.5550   33.5110   41.8780 H   0  0  0  0  0  0  0  0  0  0  0  0
   36.3570   31.7570   40.9630 H   0  0  0  0  0  0  0  0  0  0  0  0
   37.7900   31.0440   39.1600 H   0  0  0  0  0  0  0  0  0  0  0  0
   39.0770   32.1790   39.5270 H   0  0  0  0  0  0  0  0  0  0  0  0
   36.6470   34.8430   39.0350 H   0  0  0  0  0  0  0  0  0  0  0  0
   38.3820   34.6630   39.5880 H   0  0  0  0  0  0  0  0  0  0  0  0
   37.0190   35.1600   41.4630 H   0  0  0  0  0  0  0  0  0  0  0  0
   35.4640   33.7270   41.0250 C   0  0  0  0  0  0  0  0  0  0  0  0
   34.8070   33.5910   42.2530 C   0  0  0  0  0  0  0  0  0  0  0  0
   35.1740   33.7410   43.2600 H   0  0  0  0  0  0  0  0  0  0  0  0
   33.5010   33.2010   42.0020 C   0  0  0  0  0  0  0  0  0  0  0  0
   32.7400   33.0130   42.7480 H   0  0  0  0  0  0  0  0  0  0  0  0
   33.4340   33.1220   40.6250 C   0  0  0  0  0  0  0  0  0  0  0  0
   32.5260   32.8370   40.1100 H   0  0  0  0  0  0  0  0  0  0  0  0
   34.5990   33.4360   40.0800 O   0  0  0  0  0  0  0  0  0  0  0  0
  1  2  1  0  0  0  0
  1 10  1  0  0  0  0
  2 16  1  0  0  0  0
  3 11  1  0  0  0  0
  3  2  2  0  0  0  0
  4  3  1  0  0  0  0
  5 12  1  0  0  0  0
  5  4  1  0  0  0  0
  6  7  2  0  0  0  0
  6  5  1  0  0  0  0
  7  8  1  0  0  0  0
  8  4  2  0  0  0  0
  8  9  1  0  0  0  0
  9  1  2  0  0  0  0
 13  9  1  0  0  0  0
 14 20  1  0  0  0  0
 14 19  1  0  0  0  0
 15 14  2  0  0  0  0
 16 15  1  0  0  0  0
 16 17  2  0  0  0  0
 17 18  1  0  0  0  0
 18 22  1  0  0  0  0
 18 19  2  0  0  0  0
 21 15  1  0  0  0  0
 23  6  1  0  0  0  0
 24 30  1  0  0  0  0
 25 31  1  6  0  0  0
 25 24  1  0  0  0  0
 25 23  1  0  0  0  0
 26 25  1  0  0  0  0
 27 28  1  0  0  0  0
 27 26  1  0  0  0  0
 28 29  1  0  0  0  0
 29 37  1  0  0  0  0
 29 36  1  1  0  0  0
 29 24  1  0  0  0  0
 32 26  1  0  0  0  0
 33 26  1  0  0  0  0
 34 28  1  0  0  0  0
 35 28  1  0  0  0  0
 37 38  2  0  0  0  0
 38 39  1  0  0  0  0
 40 38  1  0  0  0  0
 40 41  1  0  0  0  0
 42 40  2  0  0  0  0
 43 42  1  0  0  0  0
 44 42  1  0  0  0  0
 44 37  1  0  0  0  0
M  END
>  <minimizedAffinity>
-5.0865593

>  <minimizedRMSD>
3.66670513

$$$$
