REMARK  Name = 
REMARK  5 active torsions:
REMARK  status: ('A' for Active; 'I' for Inactive)
REMARK    1  A    between atoms: C_1  and  C_8
REMARK    2  A    between atoms: C_6  and  N_15
REMARK    3  A    between atoms: C_13  and  O_16
REMARK    4  A    between atoms: O_16  and  C_17
REMARK    5  A    between atoms: C_17  and  C_27
REMARK                            x       y       z     vdW  Elec       q    Type
REMARK                         _______ _______ _______ _____ _____    ______ ____
ROOT
ATOM      1  C   UNL     1      38.114  31.886  47.413  0.00  0.00    +0.000 A 
ATOM      2  C   UNL     1      38.582  32.781  48.328  0.00  0.00    +0.000 A 
ATOM      3  C   UNL     1      38.087  32.860  49.632  0.00  0.00    +0.000 A 
ATOM      4  C   UNL     1      37.033  31.935  49.995  0.00  0.00    +0.000 A 
ATOM      5  C   UNL     1      36.608  31.066  49.043  0.00  0.00    +0.000 A 
ATOM      6  C   UNL     1      37.094  31.005  47.790  0.00  0.00    +0.000 A 
ATOM      7  H   UNL     1      39.383  33.497  48.084  0.00  0.00    +0.000 HD
ATOM      8  H   UNL     1      38.505  33.597  50.310  0.00  0.00    +0.000 HD
ATOM      9  H   UNL     1      36.746  32.101  51.019  0.00  0.00    +0.000 HD
ATOM     10  H   UNL     1      35.855  30.469  49.533  0.00  0.00    +0.000 HD
ENDROOT
BRANCH   1  12
ATOM     11  C   UNL     1      39.997  31.267  45.990  0.00  0.00    +0.000 A 
ATOM     12  C   UNL     1      38.745  31.915  46.115  0.00  0.00    +0.000 A 
ATOM     13  C   UNL     1      38.286  32.491  44.959  0.00  0.00    +0.000 A 
ATOM     14  N   UNL     1      38.995  32.422  43.822  0.00  0.00    +0.000 NA
ATOM     15  C   UNL     1      40.156  31.816  43.722  0.00  0.00    +0.000 A 
ATOM     16  N   UNL     1      40.653  31.241  44.805  0.00  0.00    +0.000 NA
ATOM     17  H   UNL     1      40.427  30.791  46.851  0.00  0.00    +0.000 HD
ATOM     18  H   UNL     1      37.328  32.989  45.048  0.00  0.00    +0.000 HD
ATOM     19  H   UNL     1      40.764  31.735  42.826  0.00  0.00    +0.000 HD
ENDBRANCH   1  12
BRANCH   6  22
ATOM     20  C   UNL     1      35.154  29.978  46.944  0.00  0.00    +0.000 C 
ATOM     21  O   UNL     1      34.518  30.651  47.850  0.00  0.00    +0.000 OA
ATOM     22  N   UNL     1      36.597  30.116  46.872  0.00  0.00    +0.000 N 
ATOM     23  H   UNL     1      37.175  29.600  46.204  0.00  0.00    +0.000 HD
BRANCH  20  24
ATOM     24  O   UNL     1      34.452  29.164  46.093  0.00  0.00    +0.000 OA
BRANCH  24  25
ATOM     25  C   UNL     1      33.362  29.571  45.332  0.00  0.00    +0.000 C 
ATOM     26  O   UNL     1      33.375  30.705  44.664  0.00  0.00    +0.000 OA
BRANCH  25  27
ATOM     27  C   UNL     1      32.140  28.738  45.219  0.00  0.00    +0.000 A 
ATOM     28  C   UNL     1      31.567  28.172  44.074  0.00  0.00    +0.000 A 
ATOM     29  H   UNL     1      32.005  28.306  43.087  0.00  0.00    +0.000 HD
ATOM     30  C   UNL     1      30.435  27.476  44.447  0.00  0.00    +0.000 A 
ATOM     31  H   UNL     1      29.849  26.966  43.706  0.00  0.00    +0.000 HD
ATOM     32  C   UNL     1      30.374  27.654  45.810  0.00  0.00    +0.000 A 
ATOM     33  H   UNL     1      29.556  27.201  46.390  0.00  0.00    +0.000 HD
ATOM     34  O   UNL     1      31.364  28.379  46.212  0.00  0.00    +0.000 OA
ENDBRANCH  25  27
ENDBRANCH  24  25
ENDBRANCH  20  24
ENDBRANCH   6  22
TORSDOF 5
