
 OpenBabel03272500573D

 34 36  0  0  0  0  0  0  0  0999 V2000
   38.1050   31.8900   47.4260 C   0  0  0  0  0  0  0  0  0  0  0  0
   38.5640   32.7870   48.3430 C   0  0  0  0  0  0  0  0  0  0  0  0
   38.0630   32.8640   49.6450 C   0  0  0  0  0  0  0  0  0  0  0  0
   37.0130   31.9330   50.0040 C   0  0  0  0  0  0  0  0  0  0  0  0
   36.5970   31.0610   49.0500 C   0  0  0  0  0  0  0  0  0  0  0  0
   37.0880   31.0030   47.7990 C   0  0  0  0  0  0  0  0  0  0  0  0
   39.3620   33.5080   48.1020 H   0  0  0  0  0  0  0  0  0  0  0  0
   38.4750   33.6030   50.3250 H   0  0  0  0  0  0  0  0  0  0  0  0
   36.7210   32.0970   51.0270 H   0  0  0  0  0  0  0  0  0  0  0  0
   35.8450   30.4600   49.5380 H   0  0  0  0  0  0  0  0  0  0  0  0
   39.9950   31.2780   46.0090 C   0  0  0  0  0  0  0  0  0  0  0  0
   38.7400   31.9220   46.1310 C   0  0  0  0  0  0  0  0  0  0  0  0
   38.2840   32.4990   44.9740 C   0  0  0  0  0  0  0  0  0  0  0  0
   38.9980   32.4330   43.8390 N   0  0  0  0  0  0  0  0  0  0  0  0
   40.1610   31.8300   43.7430 C   0  0  0  0  0  0  0  0  0  0  0  0
   40.6550   31.2550   44.8270 N   0  0  0  0  0  0  0  0  0  0  0  0
   40.4230   30.8020   46.8710 H   0  0  0  0  0  0  0  0  0  0  0  0
   37.3250   32.9940   45.0600 H   0  0  0  0  0  0  0  0  0  0  0  0
   40.7720   31.7520   42.8490 H   0  0  0  0  0  0  0  0  0  0  0  0
   35.1570   29.9670   46.9440 C   0  0  0  0  0  0  0  0  0  0  0  0
   34.5130   30.6380   47.8460 O   0  0  0  0  0  0  0  0  0  0  0  0
   36.6000   30.1110   46.8790 N   0  0  0  0  0  0  0  0  0  0  0  0
   37.1830   29.5970   46.2150 H   0  0  0  0  0  0  0  0  0  0  0  0
   34.4630   29.1500   46.0900 O   0  0  0  0  0  0  0  0  0  0  0  0
   33.2670   29.4920   45.4680 C   0  0  0  0  0  0  0  0  0  0  0  0
   33.1740   30.5520   44.6940 O   0  0  0  0  0  0  0  0  0  0  0  0
   32.0450   28.6670   45.6290 C   0  0  0  0  0  0  0  0  0  0  0  0
   31.0510   28.7530   46.6110 C   0  0  0  0  0  0  0  0  0  0  0  0
   31.0930   29.4960   47.4050 H   0  0  0  0  0  0  0  0  0  0  0  0
   30.1030   27.7820   46.3620 C   0  0  0  0  0  0  0  0  0  0  0  0
   29.2520   27.6840   47.0110 H   0  0  0  0  0  0  0  0  0  0  0  0
   30.5690   27.1470   45.2360 C   0  0  0  0  0  0  0  0  0  0  0  0
   30.0040   26.3100   44.7990 H   0  0  0  0  0  0  0  0  0  0  0  0
   31.6790   27.6810   44.8480 O   0  0  0  0  0  0  0  0  0  0  0  0
  1  6  2  0  0  0  0
  1  2  1  0  0  0  0
  2  3  2  0  0  0  0
  3  4  1  0  0  0  0
  3  8  1  0  0  0  0
  4  9  1  0  0  0  0
  5 10  1  0  0  0  0
  5  4  2  0  0  0  0
  6  5  1  0  0  0  0
  7  2  1  0  0  0  0
 11 12  1  0  0  0  0
 11 17  1  0  0  0  0
 12  1  1  0  0  0  0
 13 18  1  0  0  0  0
 13 12  2  0  0  0  0
 14 13  1  0  0  0  0
 15 14  2  0  0  0  0
 15 16  1  0  0  0  0
 16 11  2  0  0  0  0
 19 15  1  0  0  0  0
 20 21  2  0  0  0  0
 22 20  1  0  0  0  0
 22  6  1  0  0  0  0
 23 22  1  0  0  0  0
 24 20  1  0  0  0  0
 25 27  1  0  0  0  0
 25 24  1  0  0  0  0
 26 25  2  0  0  0  0
 27 28  2  0  0  0  0
 28 29  1  0  0  0  0
 30 28  1  0  0  0  0
 30 31  1  0  0  0  0
 32 30  2  0  0  0  0
 33 32  1  0  0  0  0
 34 32  1  0  0  0  0
 34 27  1  0  0  0  0
M  END
>  <minimizedAffinity>
-5.25194693

>  <minimizedRMSD>
0.317839533

$$$$
