
 OpenBabel03272508573D

 39 42  0  0  1  0  0  0  0  0999 V2000
   38.4310   31.8350   44.5670 C   0  0  0  0  0  0  0  0  0  0  0  0
   37.3370   32.4320   44.4360 O   0  0  0  0  0  0  0  0  0  0  0  0
   38.9580   31.5540   45.8780 N   0  0  0  0  0  0  0  0  0  0  0  0
   39.9430   31.2680   46.0470 H   0  0  0  0  0  0  0  0  0  0  0  0
   39.2180   31.4010   43.3920 C   0  0  0  0  0  0  0  0  0  0  0  0
   40.2080   30.4750   43.5650 C   0  0  0  0  0  0  0  0  0  0  0  0
   40.9220   30.0970   42.4390 C   0  0  0  0  0  0  0  0  0  0  0  0
   40.6040   30.6590   41.2380 C   0  0  0  0  0  0  0  0  0  0  0  0
   39.6050   31.5940   41.0540 C   0  0  0  0  0  0  0  0  0  0  0  0
   38.9420   31.9290   42.1750 N   0  0  0  0  0  0  0  0  0  0  0  0
   40.4690   30.0240   44.5060 H   0  0  0  0  0  0  0  0  0  0  0  0
   41.7070   29.3700   42.5430 H   0  0  0  0  0  0  0  0  0  0  0  0
   41.1900   30.3320   40.3820 H   0  0  0  0  0  0  0  0  0  0  0  0
   39.2980   32.1720   39.7500 C   0  0  0  0  0  0  0  0  0  0  0  0
   38.6080   33.2170   39.7050 O   0  0  0  0  0  0  0  0  0  0  0  0
   39.7820   31.5450   38.5230 C   0  0  0  0  0  0  0  0  0  0  0  0
   40.8390   32.0140   37.7690 C   0  0  0  0  0  0  0  0  0  0  0  0
   41.4830   32.8720   37.9120 H   0  0  0  0  0  0  0  0  0  0  0  0
   40.9870   31.1560   36.6970 C   0  0  0  0  0  0  0  0  0  0  0  0
   41.6720   31.1260   35.8600 H   0  0  0  0  0  0  0  0  0  0  0  0
   39.9890   30.1890   36.8620 C   0  0  0  0  0  0  0  0  0  0  0  0
   39.7170   29.3100   36.2600 H   0  0  0  0  0  0  0  0  0  0  0  0
   39.3060   30.4700   37.9590 O   0  0  0  0  0  0  0  0  0  0  0  0
   38.4180   31.1020   48.2600 C   0  0  2  0  0  0  0  0  0  0  0  0
   38.6380   32.5670   48.1370 C   0  0  0  0  0  0  0  0  0  0  0  0
   38.0660   31.6770   47.0040 C   0  0  1  0  0  0  0  0  0  0  0  0
   39.3530   30.5110   48.3810 H   0  0  0  0  0  0  0  0  0  0  0  0
   39.6610   32.9350   48.0300 H   0  0  0  0  0  0  0  0  0  0  0  0
   37.9290   33.2220   48.6560 H   0  0  0  0  0  0  0  0  0  0  0  0
   36.9920   31.8930   46.7810 H   0  0  0  0  0  0  0  0  0  0  0  0
   35.0340   30.2250   49.5340 C   0  0  0  0  0  0  0  0  0  0  0  0
   35.3490   29.5830   50.7830 C   0  0  0  0  0  0  0  0  0  0  0  0
   36.7400   29.4800   51.1530 C   0  0  0  0  0  0  0  0  0  0  0  0
   37.7040   29.9870   50.3210 N   0  0  0  0  0  0  0  0  0  0  0  0
   37.3300   30.5760   49.1660 C   0  0  0  0  0  0  0  0  0  0  0  0
   36.0110   30.7110   48.7470 N   0  0  0  0  0  0  0  0  0  0  0  0
   33.9840   30.2860   49.2860 H   0  0  0  0  0  0  0  0  0  0  0  0
   34.5970   29.1900   51.4260 H   0  0  0  0  0  0  0  0  0  0  0  0
   36.9780   28.9990   52.0880 H   0  0  0  0  0  0  0  0  0  0  0  0
  1  3  1  0  0  0  0
  2  1  2  0  0  0  0
  3  4  1  0  0  0  0
  3 26  1  0  0  0  0
  5  6  1  0  0  0  0
  5  1  1  0  0  0  0
  6 11  1  0  0  0  0
  7 12  1  0  0  0  0
  7  6  2  0  0  0  0
  8  7  1  0  0  0  0
  9  8  2  0  0  0  0
  9 10  1  0  0  0  0
 10  5  2  0  0  0  0
 13  8  1  0  0  0  0
 14  9  1  0  0  0  0
 15 14  2  0  0  0  0
 16 14  1  0  0  0  0
 17 18  1  0  0  0  0
 17 16  2  0  0  0  0
 19 21  2  0  0  0  0
 19 17  1  0  0  0  0
 20 19  1  0  0  0  0
 21 23  1  0  0  0  0
 22 21  1  0  0  0  0
 23 16  1  0  0  0  0
 24 27  1  6  0  0  0
 24 35  1  0  0  0  0
 25 24  1  0  0  0  0
 25 29  1  0  0  0  0
 26 30  1  6  0  0  0
 26 25  1  0  0  0  0
 26 24  1  0  0  0  0
 28 25  1  0  0  0  0
 31 32  1  0  0  0  0
 32 33  2  0  0  0  0
 32 38  1  0  0  0  0
 33 39  1  0  0  0  0
 34 33  1  0  0  0  0
 35 34  2  0  0  0  0
 36 35  1  0  0  0  0
 36 31  2  0  0  0  0
 37 31  1  0  0  0  0
M  END
>  <minimizedAffinity>
-4.94468498

>  <minimizedRMSD>
0.688637078

$$$$
