REMARK  Name = 
REMARK  5 active torsions:
REMARK  status: ('A' for Active; 'I' for Inactive)
REMARK    1  A    between atoms: C_1  and  C_8
REMARK    2  A    between atoms: C_3  and  N_12
REMARK    3  A    between atoms: C_10  and  C_13
REMARK    4  A    between atoms: C_17  and  C_19
REMARK    5  A    between atoms: C_19  and  C_32
REMARK                            x       y       z     vdW  Elec       q    Type
REMARK                         _______ _______ _______ _____ _____    ______ ____
ROOT
ATOM      1  C   UNL     1      38.369  31.908  44.492  0.00  0.00    +0.000 C 
ATOM      2  O   UNL     1      37.247  32.456  44.388  0.00  0.00    +0.000 OA
ATOM      3  N   UNL     1      38.943  31.658  45.790  0.00  0.00    +0.000 N 
ATOM      4  H   UNL     1      39.944  31.416  45.933  0.00  0.00    +0.000 HD
ENDROOT
BRANCH   1   5
ATOM      5  C   UNL     1      39.142  31.501  43.298  0.00  0.00    +0.000 A 
ATOM      6  C   UNL     1      40.143  30.582  43.441  0.00  0.00    +0.000 A 
ATOM      7  C   UNL     1      40.843  30.229  42.298  0.00  0.00    +0.000 A 
ATOM      8  C   UNL     1      40.501  30.808  41.112  0.00  0.00    +0.000 A 
ATOM      9  C   UNL     1      39.491  31.737  40.958  0.00  0.00    +0.000 A 
ATOM     10  N   UNL     1      38.842  32.047  42.095  0.00  0.00    +0.000 NA
ATOM     11  H   UNL     1      40.422  30.118  44.370  0.00  0.00    +0.000 HD
ATOM     12  H   UNL     1      41.636  29.508  42.378  0.00  0.00    +0.000 HD
ATOM     13  H   UNL     1      41.077  30.501  40.241  0.00  0.00    +0.000 HD
BRANCH   9  14
ATOM     14  C   UNL     1      39.159  32.333  39.669  0.00  0.00    +0.000 C 
ATOM     15  O   UNL     1      38.865  33.551  39.630  0.00  0.00    +0.000 OA
BRANCH  14  16
ATOM     16  C   UNL     1      39.167  31.529  38.450  0.00  0.00    +0.000 A 
ATOM     17  C   UNL     1      38.036  31.085  37.797  0.00  0.00    +0.000 A 
ATOM     18  H   UNL     1      36.987  31.223  38.027  0.00  0.00    +0.000 HD
ATOM     19  C   UNL     1      38.457  30.365  36.697  0.00  0.00    +0.000 A 
ATOM     20  H   UNL     1      37.933  29.840  35.910  0.00  0.00    +0.000 HD
ATOM     21  C   UNL     1      39.854  30.412  36.741  0.00  0.00    +0.000 A 
ATOM     22  H   UNL     1      40.621  29.985  36.078  0.00  0.00    +0.000 HD
ATOM     23  O   UNL     1      40.219  31.115  37.801  0.00  0.00    +0.000 OA
ENDBRANCH  14  16
ENDBRANCH   9  14
ENDBRANCH   1   5
BRANCH   3  26
ATOM     24  C   UNL     1      38.449  31.123  48.165  0.00  0.00    +0.000 C 
ATOM     25  C   UNL     1      38.686  32.589  48.092  0.00  0.00    +0.000 C 
ATOM     26  C   UNL     1      38.077  31.750  46.939  0.00  0.00    +0.000 C 
ATOM     27  H   UNL     1      39.378  30.516  48.242  0.00  0.00    +0.000 HD
ATOM     28  H   UNL     1      39.711  32.948  47.976  0.00  0.00    +0.000 HD
ATOM     29  H   UNL     1      37.997  33.233  48.651  0.00  0.00    +0.000 HD
ATOM     30  H   UNL     1      37.002  31.988  46.749  0.00  0.00    +0.000 HD
BRANCH  24  35
ATOM     31  C   UNL     1      35.082  30.247  49.483  0.00  0.00    +0.000 A 
ATOM     32  C   UNL     1      35.415  29.548  50.696  0.00  0.00    +0.000 A 
ATOM     33  C   UNL     1      36.813  29.408  51.028  0.00  0.00    +0.000 A 
ATOM     34  N   UNL     1      37.765  29.934  50.194  0.00  0.00    +0.000 NA
ATOM     35  C   UNL     1      37.374  30.577  49.074  0.00  0.00    +0.000 A 
ATOM     36  N   UNL     1      36.048  30.750  48.693  0.00  0.00    +0.000 NA
ATOM     37  H   UNL     1      34.027  30.335  49.264  0.00  0.00    +0.000 HD
ATOM     38  H   UNL     1      34.672  29.141  51.340  0.00  0.00    +0.000 HD
ATOM     39  H   UNL     1      37.065  28.884  51.936  0.00  0.00    +0.000 HD
ENDBRANCH  24  35
ENDBRANCH   3  26
TORSDOF 5
