
 OpenBabel03272507413D

 40 43  0  0  0  0  0  0  0  0999 V2000
   36.8050   32.2940   49.2800 O   0  0  0  0  0  0  0  0  0  0  0  0
   38.2630   32.2660   47.2930 C   0  0  0  0  0  0  0  0  0  0  0  0
   37.9020   32.7040   48.5590 C   0  0  0  0  0  0  0  0  0  0  0  0
   38.6760   33.6430   49.2160 C   0  0  0  0  0  0  0  0  0  0  0  0
   39.8180   34.1460   48.6010 C   0  0  0  0  0  0  0  0  0  0  0  0
   40.1710   33.7070   47.3460 C   0  0  0  0  0  0  0  0  0  0  0  0
   39.3780   32.7680   46.7140 C   0  0  0  0  0  0  0  0  0  0  0  0
   38.4700   34.0290   50.1820 H   0  0  0  0  0  0  0  0  0  0  0  0
   40.4380   34.8870   49.1050 H   0  0  0  0  0  0  0  0  0  0  0  0
   41.0580   34.1010   46.8700 H   0  0  0  0  0  0  0  0  0  0  0  0
   39.7700   32.3080   45.3660 C   0  0  0  0  0  0  0  0  0  0  0  0
   40.6000   31.2740   45.0050 C   0  0  0  0  0  0  0  0  0  0  0  0
   40.6480   31.2490   43.6160 C   0  0  0  0  0  0  0  0  0  0  0  0
   39.8380   32.2800   43.2150 C   0  0  0  0  0  0  0  0  0  0  0  0
   39.3250   32.8980   44.2680 O   0  0  0  0  0  0  0  0  0  0  0  0
   41.0980   30.6280   45.7410 H   0  0  0  0  0  0  0  0  0  0  0  0
   41.2230   30.5410   43.0410 H   0  0  0  0  0  0  0  0  0  0  0  0
   39.6900   32.4930   42.1570 H   0  0  0  0  0  0  0  0  0  0  0  0
   36.7330   30.5250   46.1700 N   0  0  0  0  0  0  0  0  0  0  0  0
   37.4130   31.2930   46.6790 C   0  0  0  0  0  0  0  0  0  0  0  0
   36.7770   31.2320   50.1170 C   0  0  0  0  0  0  0  0  0  0  0  0
   35.7190   30.3620   49.8580 C   0  0  0  0  0  0  0  0  0  0  0  0
   35.5180   29.2250   50.5990 C   0  0  0  0  0  0  0  0  0  0  0  0
   36.4000   28.9750   51.6050 N   0  0  0  0  0  0  0  0  0  0  0  0
   37.4360   29.8320   51.8540 C   0  0  0  0  0  0  0  0  0  0  0  0
   37.6020   30.9200   51.1210 N   0  0  0  0  0  0  0  0  0  0  0  0
   34.7200   28.5120   50.4500 H   0  0  0  0  0  0  0  0  0  0  0  0
   38.1070   29.5830   52.6680 H   0  0  0  0  0  0  0  0  0  0  0  0
   34.3320   29.4190   48.0520 C   0  0  0  0  0  0  0  0  0  0  0  0
   34.7620   28.2020   47.9730 O   0  0  0  0  0  0  0  0  0  0  0  0
   34.7580   30.5290   48.8410 N   0  0  0  0  0  0  0  0  0  0  0  0
   34.3420   31.4400   48.6380 H   0  0  0  0  0  0  0  0  0  0  0  0
   33.1910   29.6240   47.1280 C   0  0  0  0  0  0  0  0  0  0  0  0
   32.1800   28.7560   46.8330 C   0  0  0  0  0  0  0  0  0  0  0  0
   32.0230   27.7580   47.2180 H   0  0  0  0  0  0  0  0  0  0  0  0
   31.3040   29.3400   45.9110 C   0  0  0  0  0  0  0  0  0  0  0  0
   30.4150   28.9900   45.4460 H   0  0  0  0  0  0  0  0  0  0  0  0
   31.8660   30.5820   45.6960 C   0  0  0  0  0  0  0  0  0  0  0  0
   31.4570   31.3260   45.0320 H   0  0  0  0  0  0  0  0  0  0  0  0
   32.9540   30.7180   46.4120 O   0  0  0  0  0  0  0  0  0  0  0  0
  1 21  1  0  0  0  0
  2  3  1  0  0  0  0
  3  4  2  0  0  0  0
  3  1  1  0  0  0  0
  4  8  1  0  0  0  0
  5  9  1  0  0  0  0
  5  4  1  0  0  0  0
  6  5  2  0  0  0  0
  7  2  2  0  0  0  0
  7  6  1  0  0  0  0
 10  6  1  0  0  0  0
 11  7  1  0  0  0  0
 12 11  2  0  0  0  0
 12 16  1  0  0  0  0
 13 12  1  0  0  0  0
 14 13  2  0  0  0  0
 14 15  1  0  0  0  0
 15 11  1  0  0  0  0
 17 13  1  0  0  0  0
 18 14  1  0  0  0  0
 19 20  3  0  0  0  0
 20  2  1  0  0  0  0
 21 26  1  0  0  0  0
 22 21  2  0  0  0  0
 22 23  1  0  0  0  0
 23 24  2  0  0  0  0
 24 25  1  0  0  0  0
 25 28  1  0  0  0  0
 26 25  2  0  0  0  0
 27 23  1  0  0  0  0
 29 31  1  0  0  0  0
 30 29  2  0  0  0  0
 31 22  1  0  0  0  0
 32 31  1  0  0  0  0
 33 29  1  0  0  0  0
 34 33  2  0  0  0  0
 34 35  1  0  0  0  0
 36 34  1  0  0  0  0
 37 36  1  0  0  0  0
 38 36  2  0  0  0  0
 38 40  1  0  0  0  0
 39 38  1  0  0  0  0
 40 33  1  0  0  0  0
M  END
>  <minimizedAffinity>
-6.03500557

>  <minimizedRMSD>
0.414940953

$$$$
