
 OpenBabel03272508573D

 39 42  0  0  1  0  0  0  0  0999 V2000
   38.3760   31.9050   44.5200 C   0  0  0  0  0  0  0  0  0  0  0  0
   37.2530   32.4490   44.4120 O   0  0  0  0  0  0  0  0  0  0  0  0
   38.9480   31.6590   45.8200 N   0  0  0  0  0  0  0  0  0  0  0  0
   39.9490   31.4210   45.9660 H   0  0  0  0  0  0  0  0  0  0  0  0
   39.1540   31.4980   43.3290 C   0  0  0  0  0  0  0  0  0  0  0  0
   40.1430   30.5670   43.4720 C   0  0  0  0  0  0  0  0  0  0  0  0
   40.8480   30.2150   42.3320 C   0  0  0  0  0  0  0  0  0  0  0  0
   40.5220   30.8070   41.1480 C   0  0  0  0  0  0  0  0  0  0  0  0
   39.5240   31.7490   40.9930 C   0  0  0  0  0  0  0  0  0  0  0  0
   38.8690   32.0570   42.1280 N   0  0  0  0  0  0  0  0  0  0  0  0
   40.4100   30.0930   44.4000 H   0  0  0  0  0  0  0  0  0  0  0  0
   41.6320   29.4840   42.4120 H   0  0  0  0  0  0  0  0  0  0  0  0
   41.1010   30.5000   40.2790 H   0  0  0  0  0  0  0  0  0  0  0  0
   39.2080   32.3580   39.7060 C   0  0  0  0  0  0  0  0  0  0  0  0
   38.7550   33.5270   39.6920 O   0  0  0  0  0  0  0  0  0  0  0  0
   39.4150   31.6240   38.4610 C   0  0  0  0  0  0  0  0  0  0  0  0
   38.5730   30.6420   37.9810 C   0  0  0  0  0  0  0  0  0  0  0  0
   37.6540   30.2380   38.3890 H   0  0  0  0  0  0  0  0  0  0  0  0
   39.1060   30.1940   36.7900 C   0  0  0  0  0  0  0  0  0  0  0  0
   38.7950   29.4470   36.0740 H   0  0  0  0  0  0  0  0  0  0  0  0
   40.2710   30.9450   36.6050 C   0  0  0  0  0  0  0  0  0  0  0  0
   41.0240   30.9410   35.8020 H   0  0  0  0  0  0  0  0  0  0  0  0
   40.4040   31.7760   37.6260 O   0  0  0  0  0  0  0  0  0  0  0  0
   38.4450   31.1200   48.1920 C   0  0  2  0  0  0  0  0  0  0  0  0
   38.6860   32.5850   48.1230 C   0  0  0  0  0  0  0  0  0  0  0  0
   38.0790   31.7500   46.9660 C   0  0  1  0  0  0  0  0  0  0  0  0
   39.3730   30.5110   48.2700 H   0  0  0  0  0  0  0  0  0  0  0  0
   39.7120   32.9430   48.0110 H   0  0  0  0  0  0  0  0  0  0  0  0
   37.9960   33.2290   48.6820 H   0  0  0  0  0  0  0  0  0  0  0  0
   37.0050   31.9910   46.7740 H   0  0  0  0  0  0  0  0  0  0  0  0
   35.0730   30.2440   49.4960 C   0  0  0  0  0  0  0  0  0  0  0  0
   35.4000   29.5450   50.7100 C   0  0  0  0  0  0  0  0  0  0  0  0
   36.7970   29.4050   51.0480 C   0  0  0  0  0  0  0  0  0  0  0  0
   37.7530   29.9300   50.2180 N   0  0  0  0  0  0  0  0  0  0  0  0
   37.3660   30.5740   49.0960 C   0  0  0  0  0  0  0  0  0  0  0  0
   36.0420   30.7470   48.7100 N   0  0  0  0  0  0  0  0  0  0  0  0
   34.0190   30.3330   49.2720 H   0  0  0  0  0  0  0  0  0  0  0  0
   34.6550   29.1380   51.3510 H   0  0  0  0  0  0  0  0  0  0  0  0
   37.0450   28.8800   51.9570 H   0  0  0  0  0  0  0  0  0  0  0  0
  1  3  1  0  0  0  0
  2  1  2  0  0  0  0
  3  4  1  0  0  0  0
  3 26  1  0  0  0  0
  5  6  1  0  0  0  0
  5  1  1  0  0  0  0
  6 11  1  0  0  0  0
  7 12  1  0  0  0  0
  7  6  2  0  0  0  0
  8  7  1  0  0  0  0
  9  8  2  0  0  0  0
  9 10  1  0  0  0  0
 10  5  2  0  0  0  0
 13  8  1  0  0  0  0
 14  9  1  0  0  0  0
 15 14  2  0  0  0  0
 16 14  1  0  0  0  0
 17 18  1  0  0  0  0
 17 16  2  0  0  0  0
 19 17  1  0  0  0  0
 20 19  1  0  0  0  0
 21 19  2  0  0  0  0
 21 23  1  0  0  0  0
 22 21  1  0  0  0  0
 23 16  1  0  0  0  0
 24 27  1  6  0  0  0
 24 35  1  0  0  0  0
 25 24  1  0  0  0  0
 25 29  1  0  0  0  0
 26 30  1  6  0  0  0
 26 25  1  0  0  0  0
 26 24  1  0  0  0  0
 28 25  1  0  0  0  0
 31 32  1  0  0  0  0
 32 33  2  0  0  0  0
 32 38  1  0  0  0  0
 33 39  1  0  0  0  0
 34 33  1  0  0  0  0
 35 34  2  0  0  0  0
 36 35  1  0  0  0  0
 36 31  2  0  0  0  0
 37 31  1  0  0  0  0
M  END
>  <minimizedAffinity>
-4.90686703

>  <minimizedRMSD>
0.209800839

$$$$
