
 OpenBabel03272508573D

 39 42  0  0  1  0  0  0  0  0999 V2000
   38.3750   31.9050   44.5200 C   0  0  0  0  0  0  0  0  0  0  0  0
   37.2490   32.4430   44.4120 O   0  0  0  0  0  0  0  0  0  0  0  0
   38.9490   31.6660   45.8200 N   0  0  0  0  0  0  0  0  0  0  0  0
   39.9510   31.4320   45.9660 H   0  0  0  0  0  0  0  0  0  0  0  0
   39.1530   31.4990   43.3290 C   0  0  0  0  0  0  0  0  0  0  0  0
   40.1440   30.5690   43.4740 C   0  0  0  0  0  0  0  0  0  0  0  0
   40.8490   30.2170   42.3330 C   0  0  0  0  0  0  0  0  0  0  0  0
   40.5220   30.8080   41.1490 C   0  0  0  0  0  0  0  0  0  0  0  0
   39.5230   31.7480   40.9940 C   0  0  0  0  0  0  0  0  0  0  0  0
   38.8680   32.0560   42.1280 N   0  0  0  0  0  0  0  0  0  0  0  0
   40.4110   30.0960   44.4010 H   0  0  0  0  0  0  0  0  0  0  0  0
   41.6340   29.4880   42.4140 H   0  0  0  0  0  0  0  0  0  0  0  0
   41.1020   30.5010   40.2800 H   0  0  0  0  0  0  0  0  0  0  0  0
   39.2060   32.3560   39.7070 C   0  0  0  0  0  0  0  0  0  0  0  0
   38.7640   33.5290   39.6910 O   0  0  0  0  0  0  0  0  0  0  0  0
   39.3990   31.6160   38.4630 C   0  0  0  0  0  0  0  0  0  0  0  0
   38.5510   30.6330   37.9970 C   0  0  0  0  0  0  0  0  0  0  0  0
   37.6380   30.2310   38.4160 H   0  0  0  0  0  0  0  0  0  0  0  0
   39.0710   30.1790   36.8020 C   0  0  0  0  0  0  0  0  0  0  0  0
   38.7520   29.4270   36.0920 H   0  0  0  0  0  0  0  0  0  0  0  0
   40.2350   30.9280   36.6010 C   0  0  0  0  0  0  0  0  0  0  0  0
   40.9790   30.9190   35.7910 H   0  0  0  0  0  0  0  0  0  0  0  0
   40.3800   31.7640   37.6160 O   0  0  0  0  0  0  0  0  0  0  0  0
   38.4470   31.1220   48.1920 C   0  0  2  0  0  0  0  0  0  0  0  0
   38.6890   32.5880   48.1260 C   0  0  0  0  0  0  0  0  0  0  0  0
   38.0800   31.7560   46.9680 C   0  0  1  0  0  0  0  0  0  0  0  0
   39.3730   30.5110   48.2690 H   0  0  0  0  0  0  0  0  0  0  0  0
   39.7160   32.9430   48.0140 H   0  0  0  0  0  0  0  0  0  0  0  0
   38.0010   33.2320   48.6860 H   0  0  0  0  0  0  0  0  0  0  0  0
   37.0060   31.9980   46.7760 H   0  0  0  0  0  0  0  0  0  0  0  0
   35.0730   30.2460   49.4940 C   0  0  0  0  0  0  0  0  0  0  0  0
   35.4010   29.5470   50.7080 C   0  0  0  0  0  0  0  0  0  0  0  0
   36.7970   29.4070   51.0470 C   0  0  0  0  0  0  0  0  0  0  0  0
   37.7530   29.9330   50.2170 N   0  0  0  0  0  0  0  0  0  0  0  0
   37.3670   30.5760   49.0960 C   0  0  0  0  0  0  0  0  0  0  0  0
   36.0430   30.7490   48.7090 N   0  0  0  0  0  0  0  0  0  0  0  0
   34.0190   30.3350   49.2700 H   0  0  0  0  0  0  0  0  0  0  0  0
   34.6550   29.1400   51.3490 H   0  0  0  0  0  0  0  0  0  0  0  0
   37.0450   28.8830   51.9560 H   0  0  0  0  0  0  0  0  0  0  0  0
  1  3  1  0  0  0  0
  2  1  2  0  0  0  0
  3  4  1  0  0  0  0
  3 26  1  0  0  0  0
  5  6  1  0  0  0  0
  5  1  1  0  0  0  0
  6 11  1  0  0  0  0
  7 12  1  0  0  0  0
  7  6  2  0  0  0  0
  8  7  1  0  0  0  0
  9  8  2  0  0  0  0
  9 10  1  0  0  0  0
 10  5  2  0  0  0  0
 13  8  1  0  0  0  0
 14  9  1  0  0  0  0
 15 14  2  0  0  0  0
 16 14  1  0  0  0  0
 17 18  1  0  0  0  0
 17 16  2  0  0  0  0
 19 17  1  0  0  0  0
 20 19  1  0  0  0  0
 21 19  2  0  0  0  0
 21 23  1  0  0  0  0
 22 21  1  0  0  0  0
 23 16  1  0  0  0  0
 24 27  1  6  0  0  0
 24 35  1  0  0  0  0
 25 24  1  0  0  0  0
 25 29  1  0  0  0  0
 26 30  1  6  0  0  0
 26 25  1  0  0  0  0
 26 24  1  0  0  0  0
 28 25  1  0  0  0  0
 31 32  1  0  0  0  0
 32 33  2  0  0  0  0
 32 38  1  0  0  0  0
 33 39  1  0  0  0  0
 34 33  1  0  0  0  0
 35 34  2  0  0  0  0
 36 35  1  0  0  0  0
 36 31  2  0  0  0  0
 37 31  1  0  0  0  0
M  END
>  <minimizedAffinity>
-4.90889168

>  <minimizedRMSD>
0.222398072

$$$$
