
 OpenBabel03272508573D

 39 42  0  0  1  0  0  0  0  0999 V2000
   38.3680   31.9070   44.5230 C   0  0  0  0  0  0  0  0  0  0  0  0
   37.2340   32.4290   44.4140 O   0  0  0  0  0  0  0  0  0  0  0  0
   38.9490   31.6850   45.8220 N   0  0  0  0  0  0  0  0  0  0  0  0
   39.9560   31.4670   45.9660 H   0  0  0  0  0  0  0  0  0  0  0  0
   39.1470   31.5020   43.3320 C   0  0  0  0  0  0  0  0  0  0  0  0
   40.1370   30.5720   43.4760 C   0  0  0  0  0  0  0  0  0  0  0  0
   40.8440   30.2210   42.3360 C   0  0  0  0  0  0  0  0  0  0  0  0
   40.5180   30.8140   41.1520 C   0  0  0  0  0  0  0  0  0  0  0  0
   39.5190   31.7540   40.9970 C   0  0  0  0  0  0  0  0  0  0  0  0
   38.8630   32.0610   42.1310 N   0  0  0  0  0  0  0  0  0  0  0  0
   40.4030   30.0970   44.4030 H   0  0  0  0  0  0  0  0  0  0  0  0
   41.6290   29.4910   42.4170 H   0  0  0  0  0  0  0  0  0  0  0  0
   41.0990   30.5080   40.2840 H   0  0  0  0  0  0  0  0  0  0  0  0
   39.2050   32.3650   39.7100 C   0  0  0  0  0  0  0  0  0  0  0  0
   38.7380   33.5280   39.6970 O   0  0  0  0  0  0  0  0  0  0  0  0
   39.4270   31.6360   38.4640 C   0  0  0  0  0  0  0  0  0  0  0  0
   38.5920   30.6560   37.9710 C   0  0  0  0  0  0  0  0  0  0  0  0
   37.6710   30.2470   38.3680 H   0  0  0  0  0  0  0  0  0  0  0  0
   39.1390   30.2140   36.7830 C   0  0  0  0  0  0  0  0  0  0  0  0
   38.8370   29.4690   36.0600 H   0  0  0  0  0  0  0  0  0  0  0  0
   40.3040   30.9700   36.6130 C   0  0  0  0  0  0  0  0  0  0  0  0
   41.0640   30.9720   35.8190 H   0  0  0  0  0  0  0  0  0  0  0  0
   40.4240   31.7960   37.6390 O   0  0  0  0  0  0  0  0  0  0  0  0
   38.4500   31.1300   48.1920 C   0  0  2  0  0  0  0  0  0  0  0  0
   38.6990   32.5950   48.1330 C   0  0  0  0  0  0  0  0  0  0  0  0
   38.0840   31.7730   46.9720 C   0  0  1  0  0  0  0  0  0  0  0  0
   39.3740   30.5150   48.2630 H   0  0  0  0  0  0  0  0  0  0  0  0
   39.7270   32.9470   48.0210 H   0  0  0  0  0  0  0  0  0  0  0  0
   38.0150   33.2390   48.6990 H   0  0  0  0  0  0  0  0  0  0  0  0
   37.0110   32.0210   46.7840 H   0  0  0  0  0  0  0  0  0  0  0  0
   35.0770   30.2490   49.4900 C   0  0  0  0  0  0  0  0  0  0  0  0
   35.4040   29.5540   50.7060 C   0  0  0  0  0  0  0  0  0  0  0  0
   36.8000   29.4180   51.0480 C   0  0  0  0  0  0  0  0  0  0  0  0
   37.7560   29.9440   50.2190 N   0  0  0  0  0  0  0  0  0  0  0  0
   37.3710   30.5840   49.0950 C   0  0  0  0  0  0  0  0  0  0  0  0
   36.0470   30.7530   48.7050 N   0  0  0  0  0  0  0  0  0  0  0  0
   34.0230   30.3340   49.2630 H   0  0  0  0  0  0  0  0  0  0  0  0
   34.6570   29.1460   51.3460 H   0  0  0  0  0  0  0  0  0  0  0  0
   37.0470   28.8970   51.9590 H   0  0  0  0  0  0  0  0  0  0  0  0
  1  3  1  0  0  0  0
  2  1  2  0  0  0  0
  3  4  1  0  0  0  0
  3 26  1  0  0  0  0
  5  6  1  0  0  0  0
  5  1  1  0  0  0  0
  6 11  1  0  0  0  0
  7 12  1  0  0  0  0
  7  6  2  0  0  0  0
  8  7  1  0  0  0  0
  9  8  2  0  0  0  0
  9 10  1  0  0  0  0
 10  5  2  0  0  0  0
 13  8  1  0  0  0  0
 14  9  1  0  0  0  0
 15 14  2  0  0  0  0
 16 14  1  0  0  0  0
 17 18  1  0  0  0  0
 17 16  2  0  0  0  0
 19 17  1  0  0  0  0
 20 19  1  0  0  0  0
 21 19  2  0  0  0  0
 21 23  1  0  0  0  0
 22 21  1  0  0  0  0
 23 16  1  0  0  0  0
 24 27  1  6  0  0  0
 24 35  1  0  0  0  0
 25 24  1  0  0  0  0
 25 29  1  0  0  0  0
 26 30  1  6  0  0  0
 26 25  1  0  0  0  0
 26 24  1  0  0  0  0
 28 25  1  0  0  0  0
 31 32  1  0  0  0  0
 32 33  2  0  0  0  0
 32 38  1  0  0  0  0
 33 39  1  0  0  0  0
 34 33  1  0  0  0  0
 35 34  2  0  0  0  0
 36 35  1  0  0  0  0
 36 31  2  0  0  0  0
 37 31  1  0  0  0  0
M  END
>  <minimizedAffinity>
-4.91471434

>  <minimizedRMSD>
0.361976326

$$$$
