
 OpenBabel03272508573D

 39 42  0  0  1  0  0  0  0  0999 V2000
   38.3700   31.9060   44.5210 C   0  0  0  0  0  0  0  0  0  0  0  0
   37.2380   32.4330   44.4130 O   0  0  0  0  0  0  0  0  0  0  0  0
   38.9490   31.6790   45.8210 N   0  0  0  0  0  0  0  0  0  0  0  0
   39.9540   31.4570   45.9660 H   0  0  0  0  0  0  0  0  0  0  0  0
   39.1490   31.5010   43.3310 C   0  0  0  0  0  0  0  0  0  0  0  0
   40.1400   30.5710   43.4750 C   0  0  0  0  0  0  0  0  0  0  0  0
   40.8460   30.2200   42.3350 C   0  0  0  0  0  0  0  0  0  0  0  0
   40.5200   30.8120   41.1510 C   0  0  0  0  0  0  0  0  0  0  0  0
   39.5200   31.7520   40.9960 C   0  0  0  0  0  0  0  0  0  0  0  0
   38.8650   32.0590   42.1300 N   0  0  0  0  0  0  0  0  0  0  0  0
   40.4060   30.0970   44.4030 H   0  0  0  0  0  0  0  0  0  0  0  0
   41.6310   29.4910   42.4160 H   0  0  0  0  0  0  0  0  0  0  0  0
   41.1000   30.5060   40.2830 H   0  0  0  0  0  0  0  0  0  0  0  0
   39.2050   32.3610   39.7090 C   0  0  0  0  0  0  0  0  0  0  0  0
   38.7530   33.5300   39.6940 O   0  0  0  0  0  0  0  0  0  0  0  0
   39.4100   31.6250   38.4640 C   0  0  0  0  0  0  0  0  0  0  0  0
   38.5670   30.6430   37.9870 C   0  0  0  0  0  0  0  0  0  0  0  0
   37.6510   30.2380   38.3970 H   0  0  0  0  0  0  0  0  0  0  0  0
   39.0990   30.1940   36.7950 C   0  0  0  0  0  0  0  0  0  0  0  0
   38.7870   29.4450   36.0800 H   0  0  0  0  0  0  0  0  0  0  0  0
   40.2630   30.9460   36.6070 C   0  0  0  0  0  0  0  0  0  0  0  0
   41.0140   30.9410   35.8030 H   0  0  0  0  0  0  0  0  0  0  0  0
   40.3980   31.7770   37.6260 O   0  0  0  0  0  0  0  0  0  0  0  0
   38.4490   31.1280   48.1910 C   0  0  2  0  0  0  0  0  0  0  0  0
   38.6960   32.5930   48.1310 C   0  0  0  0  0  0  0  0  0  0  0  0
   38.0830   31.7680   46.9700 C   0  0  1  0  0  0  0  0  0  0  0  0
   39.3740   30.5150   48.2640 H   0  0  0  0  0  0  0  0  0  0  0  0
   39.7230   32.9470   48.0190 H   0  0  0  0  0  0  0  0  0  0  0  0
   38.0100   33.2370   48.6940 H   0  0  0  0  0  0  0  0  0  0  0  0
   37.0090   32.0140   46.7810 H   0  0  0  0  0  0  0  0  0  0  0  0
   35.0760   30.2510   49.4920 C   0  0  0  0  0  0  0  0  0  0  0  0
   35.4030   29.5520   50.7070 C   0  0  0  0  0  0  0  0  0  0  0  0
   36.7990   29.4120   51.0460 C   0  0  0  0  0  0  0  0  0  0  0  0
   37.7550   29.9390   50.2170 N   0  0  0  0  0  0  0  0  0  0  0  0
   37.3700   30.5820   49.0950 C   0  0  0  0  0  0  0  0  0  0  0  0
   36.0460   30.7550   48.7070 N   0  0  0  0  0  0  0  0  0  0  0  0
   34.0220   30.3390   49.2680 H   0  0  0  0  0  0  0  0  0  0  0  0
   34.6570   29.1450   51.3470 H   0  0  0  0  0  0  0  0  0  0  0  0
   37.0470   28.8880   51.9550 H   0  0  0  0  0  0  0  0  0  0  0  0
  1  3  1  0  0  0  0
  2  1  2  0  0  0  0
  3  4  1  0  0  0  0
  3 26  1  0  0  0  0
  5  6  1  0  0  0  0
  5  1  1  0  0  0  0
  6 11  1  0  0  0  0
  7 12  1  0  0  0  0
  7  6  2  0  0  0  0
  8  7  1  0  0  0  0
  9  8  2  0  0  0  0
  9 10  1  0  0  0  0
 10  5  2  0  0  0  0
 13  8  1  0  0  0  0
 14  9  1  0  0  0  0
 15 14  2  0  0  0  0
 16 14  1  0  0  0  0
 17 18  1  0  0  0  0
 17 16  2  0  0  0  0
 19 17  1  0  0  0  0
 20 19  1  0  0  0  0
 21 19  2  0  0  0  0
 21 23  1  0  0  0  0
 22 21  1  0  0  0  0
 23 16  1  0  0  0  0
 24 27  1  6  0  0  0
 24 35  1  0  0  0  0
 25 24  1  0  0  0  0
 25 29  1  0  0  0  0
 26 30  1  6  0  0  0
 26 25  1  0  0  0  0
 26 24  1  0  0  0  0
 28 25  1  0  0  0  0
 31 32  1  0  0  0  0
 32 33  2  0  0  0  0
 32 38  1  0  0  0  0
 33 39  1  0  0  0  0
 34 33  1  0  0  0  0
 35 34  2  0  0  0  0
 36 35  1  0  0  0  0
 36 31  2  0  0  0  0
 37 31  1  0  0  0  0
M  END
>  <minimizedAffinity>
-4.91168833

>  <minimizedRMSD>
0.223396912

$$$$
