
 OpenBabel03272508593D

 39 42  0  0  1  0  0  0  0  0999 V2000
   37.8820   26.5900   35.3510 C   0  0  0  0  0  0  0  0  0  0  0  0
   38.7370   27.4270   35.7240 O   0  0  0  0  0  0  0  0  0  0  0  0
   36.7320   27.0090   34.5910 N   0  0  0  0  0  0  0  0  0  0  0  0
   35.8940   26.4090   34.4480 H   0  0  0  0  0  0  0  0  0  0  0  0
   38.0190   25.1520   35.6730 C   0  0  0  0  0  0  0  0  0  0  0  0
   38.1070   24.7750   36.9830 C   0  0  0  0  0  0  0  0  0  0  0  0
   38.2350   23.4190   37.2420 C   0  0  0  0  0  0  0  0  0  0  0  0
   38.2650   22.5490   36.1930 C   0  0  0  0  0  0  0  0  0  0  0  0
   38.1750   22.9220   34.8660 C   0  0  0  0  0  0  0  0  0  0  0  0
   38.0540   24.2460   34.6660 N   0  0  0  0  0  0  0  0  0  0  0  0
   38.0850   25.4510   37.8200 H   0  0  0  0  0  0  0  0  0  0  0  0
   38.3060   23.0910   38.2630 H   0  0  0  0  0  0  0  0  0  0  0  0
   38.3660   21.4950   36.4420 H   0  0  0  0  0  0  0  0  0  0  0  0
   38.2130   21.9560   33.7730 C   0  0  0  0  0  0  0  0  0  0  0  0
   39.3090   21.4200   33.4840 O   0  0  0  0  0  0  0  0  0  0  0  0
   37.0010   21.6230   33.0290 C   0  0  0  0  0  0  0  0  0  0  0  0
   35.9830   20.8250   33.5080 C   0  0  0  0  0  0  0  0  0  0  0  0
   35.8700   20.3180   34.4580 H   0  0  0  0  0  0  0  0  0  0  0  0
   35.0250   20.7490   32.5180 C   0  0  0  0  0  0  0  0  0  0  0  0
   34.0700   20.2450   32.4470 H   0  0  0  0  0  0  0  0  0  0  0  0
   35.5240   21.5220   31.4650 C   0  0  0  0  0  0  0  0  0  0  0  0
   35.1150   21.7560   30.4710 H   0  0  0  0  0  0  0  0  0  0  0  0
   36.6980   22.0150   31.8240 O   0  0  0  0  0  0  0  0  0  0  0  0
   35.8150   28.6700   32.9880 C   0  0  2  0  0  0  0  0  0  0  0  0
   35.5000   29.1680   34.3540 C   0  0  0  0  0  0  0  0  0  0  0  0
   36.7550   28.3260   34.0040 C   0  0  1  0  0  0  0  0  0  0  0  0
   35.0890   27.9230   32.5980 H   0  0  0  0  0  0  0  0  0  0  0  0
   34.7000   28.6820   34.9160 H   0  0  0  0  0  0  0  0  0  0  0  0
   35.6600   30.2350   34.5440 H   0  0  0  0  0  0  0  0  0  0  0  0
   37.7060   28.9060   34.0910 H   0  0  0  0  0  0  0  0  0  0  0  0
   36.5130   31.8780   31.2370 C   0  0  0  0  0  0  0  0  0  0  0  0
   36.9910   31.4170   29.9610 C   0  0  0  0  0  0  0  0  0  0  0  0
   37.0490   29.9920   29.7410 C   0  0  0  0  0  0  0  0  0  0  0  0
   36.6550   29.1340   30.7350 N   0  0  0  0  0  0  0  0  0  0  0  0
   36.2180   29.6430   31.9050 C   0  0  0  0  0  0  0  0  0  0  0  0
   36.1340   31.0020   32.1860 N   0  0  0  0  0  0  0  0  0  0  0  0
   36.4810   32.9510   31.3700 H   0  0  0  0  0  0  0  0  0  0  0  0
   37.2960   32.0870   29.1920 H   0  0  0  0  0  0  0  0  0  0  0  0
   37.4080   29.6440   28.7850 H   0  0  0  0  0  0  0  0  0  0  0  0
  1  5  1  0  0  0  0
  1  2  2  0  0  0  0
  3  1  1  0  0  0  0
  4  3  1  0  0  0  0
  5  6  1  0  0  0  0
  6  7  2  0  0  0  0
  6 11  1  0  0  0  0
  7 12  1  0  0  0  0
  8 13  1  0  0  0  0
  8  7  1  0  0  0  0
  9  8  2  0  0  0  0
 10  9  1  0  0  0  0
 10  5  2  0  0  0  0
 14  9  1  0  0  0  0
 15 14  2  0  0  0  0
 16 17  2  0  0  0  0
 16 14  1  0  0  0  0
 17 18  1  0  0  0  0
 19 17  1  0  0  0  0
 20 19  1  0  0  0  0
 21 23  1  0  0  0  0
 21 19  2  0  0  0  0
 22 21  1  0  0  0  0
 23 16  1  0  0  0  0
 24 27  1  6  0  0  0
 24 26  1  0  0  0  0
 24 25  1  0  0  0  0
 25 29  1  0  0  0  0
 25 28  1  0  0  0  0
 26 30  1  6  0  0  0
 26 25  1  0  0  0  0
 26  3  1  0  0  0  0
 31 37  1  0  0  0  0
 31 36  1  0  0  0  0
 32 31  2  0  0  0  0
 33 32  1  0  0  0  0
 33 34  2  0  0  0  0
 34 35  1  0  0  0  0
 35 36  2  0  0  0  0
 35 24  1  0  0  0  0
 38 32  1  0  0  0  0
 39 33  1  0  0  0  0
M  END
>  <minimizedAffinity>
-5.53655195

$$$$

 OpenBabel03272508593D

 39 42  0  0  1  0  0  0  0  0999 V2000
   35.7600   24.9960   31.0410 C   0  0  0  0  0  0  0  0  0  0  0  0
   34.5680   25.2720   30.7710 O   0  0  0  0  0  0  0  0  0  0  0  0
   36.8000   25.9740   30.8450 N   0  0  0  0  0  0  0  0  0  0  0  0
   37.8120   25.7370   30.8400 H   0  0  0  0  0  0  0  0  0  0  0  0
   36.1440   23.6670   31.5680 C   0  0  0  0  0  0  0  0  0  0  0  0
   35.5570   22.5530   31.0390 C   0  0  0  0  0  0  0  0  0  0  0  0
   35.9430   21.3280   31.5610 C   0  0  0  0  0  0  0  0  0  0  0  0
   36.8740   21.3020   32.5560 C   0  0  0  0  0  0  0  0  0  0  0  0
   37.4730   22.4230   33.0960 C   0  0  0  0  0  0  0  0  0  0  0  0
   37.0650   23.5860   32.5580 N   0  0  0  0  0  0  0  0  0  0  0  0
   34.8220   22.5600   30.2540 H   0  0  0  0  0  0  0  0  0  0  0  0
   35.4990   20.4330   31.1650 H   0  0  0  0  0  0  0  0  0  0  0  0
   37.1480   20.3190   32.9360 H   0  0  0  0  0  0  0  0  0  0  0  0
   38.4650   22.3490   34.1630 C   0  0  0  0  0  0  0  0  0  0  0  0
   39.5420   21.7480   33.9400 O   0  0  0  0  0  0  0  0  0  0  0  0
   38.2090   22.9600   35.4650 C   0  0  0  0  0  0  0  0  0  0  0  0
   38.6970   24.1870   35.8640 C   0  0  0  0  0  0  0  0  0  0  0  0
   39.3210   24.9020   35.3430 H   0  0  0  0  0  0  0  0  0  0  0  0
   38.2390   24.4110   37.1460 C   0  0  0  0  0  0  0  0  0  0  0  0
   38.3640   25.2240   37.8470 H   0  0  0  0  0  0  0  0  0  0  0  0
   37.4790   23.2800   37.4660 C   0  0  0  0  0  0  0  0  0  0  0  0
   36.9200   23.0080   38.3730 H   0  0  0  0  0  0  0  0  0  0  0  0
   37.4960   22.4550   36.4320 O   0  0  0  0  0  0  0  0  0  0  0  0
   36.3730   28.2470   31.7530 C   0  0  2  0  0  0  0  0  0  0  0  0
   37.5660   28.3500   30.8710 C   0  0  0  0  0  0  0  0  0  0  0  0
   36.4050   27.3470   30.6470 C   0  0  1  0  0  0  0  0  0  0  0  0
   36.6000   27.8980   32.7850 H   0  0  0  0  0  0  0  0  0  0  0  0
   38.5190   27.9560   31.2320 H   0  0  0  0  0  0  0  0  0  0  0  0
   37.6110   29.2120   30.1950 H   0  0  0  0  0  0  0  0  0  0  0  0
   35.8010   27.5770   29.7350 H   0  0  0  0  0  0  0  0  0  0  0  0
   33.3350   30.2010   32.6420 C   0  0  0  0  0  0  0  0  0  0  0  0
   33.5140   31.3940   31.8560 C   0  0  0  0  0  0  0  0  0  0  0  0
   34.6920   31.4800   31.0260 C   0  0  0  0  0  0  0  0  0  0  0  0
   35.5900   30.4450   31.0100 N   0  0  0  0  0  0  0  0  0  0  0  0
   35.3520   29.3590   31.7750 C   0  0  0  0  0  0  0  0  0  0  0  0
   34.2400   29.2070   32.5960 N   0  0  0  0  0  0  0  0  0  0  0  0
   32.4430   30.1680   33.2510 H   0  0  0  0  0  0  0  0  0  0  0  0
   32.8140   32.1950   31.8710 H   0  0  0  0  0  0  0  0  0  0  0  0
   34.8280   32.3730   30.4370 H   0  0  0  0  0  0  0  0  0  0  0  0
  1  5  1  0  0  0  0
  2  1  2  0  0  0  0
  3  1  1  0  0  0  0
  4  3  1  0  0  0  0
  5 10  1  0  0  0  0
  6  7  1  0  0  0  0
  6  5  2  0  0  0  0
  7  8  2  0  0  0  0
  8 13  1  0  0  0  0
  8  9  1  0  0  0  0
  9 14  1  0  0  0  0
 10  9  2  0  0  0  0
 11  6  1  0  0  0  0
 12  7  1  0  0  0  0
 14 16  1  0  0  0  0
 15 14  2  0  0  0  0
 16 17  2  0  0  0  0
 16 23  1  0  0  0  0
 17 19  1  0  0  0  0
 18 17  1  0  0  0  0
 19 21  2  0  0  0  0
 19 20  1  0  0  0  0
 21 22  1  0  0  0  0
 23 21  1  0  0  0  0
 24 35  1  0  0  0  0
 24 27  1  1  0  0  0
 25 28  1  0  0  0  0
 25 24  1  0  0  0  0
 26 30  1  6  0  0  0
 26  3  1  0  0  0  0
 26 25  1  0  0  0  0
 26 24  1  0  0  0  0
 29 25  1  0  0  0  0
 31 37  1  0  0  0  0
 32 38  1  0  0  0  0
 32 31  2  0  0  0  0
 33 32  1  0  0  0  0
 34 33  2  0  0  0  0
 34 35  1  0  0  0  0
 35 36  2  0  0  0  0
 36 31  1  0  0  0  0
 39 33  1  0  0  0  0
M  END
>  <minimizedAffinity>
-5.53143692

$$$$

 OpenBabel03272508593D

 39 42  0  0  1  0  0  0  0  0999 V2000
   37.9280   27.0700   32.4790 C   0  0  0  0  0  0  0  0  0  0  0  0
   39.1290   27.1470   32.1320 O   0  0  0  0  0  0  0  0  0  0  0  0
   37.4370   25.8990   33.1610 N   0  0  0  0  0  0  0  0  0  0  0  0
   36.4250   25.6870   33.2730 H   0  0  0  0  0  0  0  0  0  0  0  0
   36.9740   28.1670   32.2030 C   0  0  0  0  0  0  0  0  0  0  0  0
   37.1040   28.8790   31.0440 C   0  0  0  0  0  0  0  0  0  0  0  0
   36.1900   29.8980   30.8250 C   0  0  0  0  0  0  0  0  0  0  0  0
   35.2280   30.1320   31.7620 C   0  0  0  0  0  0  0  0  0  0  0  0
   35.0890   29.4180   32.9350 C   0  0  0  0  0  0  0  0  0  0  0  0
   35.9980   28.4400   33.1030 N   0  0  0  0  0  0  0  0  0  0  0  0
   37.8570   28.7040   30.2980 H   0  0  0  0  0  0  0  0  0  0  0  0
   36.2660   30.4760   29.9220 H   0  0  0  0  0  0  0  0  0  0  0  0
   34.5330   30.9420   31.5480 H   0  0  0  0  0  0  0  0  0  0  0  0
   34.0440   29.7030   33.9120 C   0  0  0  0  0  0  0  0  0  0  0  0
   32.9170   29.1780   33.7540 O   0  0  0  0  0  0  0  0  0  0  0  0
   34.3040   30.5810   35.0490 C   0  0  0  0  0  0  0  0  0  0  0  0
   35.5310   31.1360   35.3460 C   0  0  0  0  0  0  0  0  0  0  0  0
   36.4860   31.0500   34.8430 H   0  0  0  0  0  0  0  0  0  0  0  0
   35.3690   31.8980   36.4860 C   0  0  0  0  0  0  0  0  0  0  0  0
   36.0430   32.5050   37.0740 H   0  0  0  0  0  0  0  0  0  0  0  0
   34.0200   31.7610   36.8290 C   0  0  0  0  0  0  0  0  0  0  0  0
   33.4300   32.1810   37.6560 H   0  0  0  0  0  0  0  0  0  0  0  0
   33.4380   30.9700   35.9430 O   0  0  0  0  0  0  0  0  0  0  0  0
   37.9750   23.8930   34.5230 C   0  0  2  0  0  0  0  0  0  0  0  0
   38.3050   23.5590   33.1120 C   0  0  0  0  0  0  0  0  0  0  0  0
   38.4060   24.9850   33.7130 C   0  0  1  0  0  0  0  0  0  0  0  0
   36.9020   23.7570   34.7830 H   0  0  0  0  0  0  0  0  0  0  0  0
   37.4880   23.3540   32.4180 H   0  0  0  0  0  0  0  0  0  0  0  0
   39.2500   23.0320   32.9330 H   0  0  0  0  0  0  0  0  0  0  0  0
   39.4590   25.3490   33.7970 H   0  0  0  0  0  0  0  0  0  0  0  0
   40.9250   22.4780   36.2960 C   0  0  0  0  0  0  0  0  0  0  0  0
   40.5060   22.5560   37.6700 C   0  0  0  0  0  0  0  0  0  0  0  0
   39.1940   23.0950   37.9430 C   0  0  0  0  0  0  0  0  0  0  0  0
   38.4010   23.5100   36.9040 N   0  0  0  0  0  0  0  0  0  0  0  0
   38.8650   23.4040   35.6410 C   0  0  0  0  0  0  0  0  0  0  0  0
   40.1140   22.8950   35.3060 N   0  0  0  0  0  0  0  0  0  0  0  0
   41.9110   22.0690   36.1260 H   0  0  0  0  0  0  0  0  0  0  0  0
   41.1250   22.2340   38.4730 H   0  0  0  0  0  0  0  0  0  0  0  0
   38.8780   23.1560   38.9720 H   0  0  0  0  0  0  0  0  0  0  0  0
  1  3  1  0  0  0  0
  2  1  2  0  0  0  0
  3  4  1  0  0  0  0
  3 26  1  0  0  0  0
  5  1  1  0  0  0  0
  5 10  1  0  0  0  0
  6  5  2  0  0  0  0
  7  6  1  0  0  0  0
  7  8  2  0  0  0  0
  8  9  1  0  0  0  0
  9 10  2  0  0  0  0
  9 14  1  0  0  0  0
 11  6  1  0  0  0  0
 12  7  1  0  0  0  0
 13  8  1  0  0  0  0
 14 16  1  0  0  0  0
 15 14  2  0  0  0  0
 16 17  2  0  0  0  0
 16 23  1  0  0  0  0
 17 19  1  0  0  0  0
 18 17  1  0  0  0  0
 19 21  2  0  0  0  0
 19 20  1  0  0  0  0
 21 22  1  0  0  0  0
 23 21  1  0  0  0  0
 24 27  1  1  0  0  0
 24 35  1  0  0  0  0
 25 26  1  0  0  0  0
 25 24  1  0  0  0  0
 26 30  1  1  0  0  0
 26 24  1  0  0  0  0
 28 25  1  0  0  0  0
 29 25  1  0  0  0  0
 31 32  1  0  0  0  0
 32 33  2  0  0  0  0
 32 38  1  0  0  0  0
 33 39  1  0  0  0  0
 34 33  1  0  0  0  0
 35 34  2  0  0  0  0
 36 35  1  0  0  0  0
 36 31  2  0  0  0  0
 37 31  1  0  0  0  0
M  END
>  <minimizedAffinity>
-5.47136259

$$$$

 OpenBabel03272508593D

 39 42  0  0  1  0  0  0  0  0999 V2000
   36.6700   24.2590   31.4540 C   0  0  0  0  0  0  0  0  0  0  0  0
   37.3620   24.1090   30.4210 O   0  0  0  0  0  0  0  0  0  0  0  0
   35.6880   23.2720   31.8260 N   0  0  0  0  0  0  0  0  0  0  0  0
   34.9450   23.4460   32.5330 H   0  0  0  0  0  0  0  0  0  0  0  0
   36.8310   25.4440   32.3250 C   0  0  0  0  0  0  0  0  0  0  0  0
   36.2740   26.6300   31.9350 C   0  0  0  0  0  0  0  0  0  0  0  0
   36.4490   27.7160   32.7790 C   0  0  0  0  0  0  0  0  0  0  0  0
   37.1550   27.5460   33.9320 C   0  0  0  0  0  0  0  0  0  0  0  0
   37.7210   26.3520   34.3340 C   0  0  0  0  0  0  0  0  0  0  0  0
   37.5250   25.3290   33.4820 N   0  0  0  0  0  0  0  0  0  0  0  0
   35.7140   26.7770   31.0290 H   0  0  0  0  0  0  0  0  0  0  0  0
   36.0220   28.6620   32.5010 H   0  0  0  0  0  0  0  0  0  0  0  0
   37.2670   28.4250   34.5640 H   0  0  0  0  0  0  0  0  0  0  0  0
   38.4720   26.2150   35.5770 C   0  0  0  0  0  0  0  0  0  0  0  0
   39.0700   27.2190   36.0290 O   0  0  0  0  0  0  0  0  0  0  0  0
   38.5260   24.9360   36.2790 C   0  0  0  0  0  0  0  0  0  0  0  0
   37.6120   24.5210   37.2250 C   0  0  0  0  0  0  0  0  0  0  0  0
   36.7300   25.0120   37.6180 H   0  0  0  0  0  0  0  0  0  0  0  0
   38.0040   23.2690   37.6520 C   0  0  0  0  0  0  0  0  0  0  0  0
   37.6000   22.5700   38.3700 H   0  0  0  0  0  0  0  0  0  0  0  0
   39.1650   22.9820   36.9250 C   0  0  0  0  0  0  0  0  0  0  0  0
   39.8290   22.1060   36.9240 H   0  0  0  0  0  0  0  0  0  0  0  0
   39.4270   24.0050   36.1270 O   0  0  0  0  0  0  0  0  0  0  0  0
   36.5360   20.9390   31.7460 C   0  0  2  0  0  0  0  0  0  0  0  0
   35.0750   20.8590   32.0080 C   0  0  0  0  0  0  0  0  0  0  0  0
   35.7480   21.9840   31.1800 C   0  0  1  0  0  0  0  0  0  0  0  0
   37.1520   21.1110   32.6560 H   0  0  0  0  0  0  0  0  0  0  0  0
   34.7080   21.1090   33.0060 H   0  0  0  0  0  0  0  0  0  0  0  0
   34.5100   20.1050   31.4470 H   0  0  0  0  0  0  0  0  0  0  0  0
   35.4820   21.9450   30.0960 H   0  0  0  0  0  0  0  0  0  0  0  0
   37.0460   18.5670   28.9250 C   0  0  0  0  0  0  0  0  0  0  0  0
   38.4010   18.1370   29.1450 C   0  0  0  0  0  0  0  0  0  0  0  0
   39.1020   18.6820   30.2840 C   0  0  0  0  0  0  0  0  0  0  0  0
   38.4690   19.5770   31.1060 N   0  0  0  0  0  0  0  0  0  0  0  0
   37.1960   19.9320   30.8340 C   0  0  0  0  0  0  0  0  0  0  0  0
   36.4610   19.4470   29.7580 N   0  0  0  0  0  0  0  0  0  0  0  0
   36.5490   18.1400   28.0650 H   0  0  0  0  0  0  0  0  0  0  0  0
   38.8880   17.4420   28.5040 H   0  0  0  0  0  0  0  0  0  0  0  0
   40.1180   18.3610   30.4500 H   0  0  0  0  0  0  0  0  0  0  0  0
  1  3  1  0  0  0  0
  1  5  1  0  0  0  0
  2  1  2  0  0  0  0
  3  4  1  0  0  0  0
  5 10  1  0  0  0  0
  6  5  2  0  0  0  0
  6  7  1  0  0  0  0
  7  8  2  0  0  0  0
  8  9  1  0  0  0  0
  8 13  1  0  0  0  0
  9 14  1  0  0  0  0
 10  9  2  0  0  0  0
 11  6  1  0  0  0  0
 12  7  1  0  0  0  0
 14 15  2  0  0  0  0
 14 16  1  0  0  0  0
 16 17  2  0  0  0  0
 17 18  1  0  0  0  0
 17 19  1  0  0  0  0
 19 20  1  0  0  0  0
 21 19  2  0  0  0  0
 22 21  1  0  0  0  0
 23 16  1  0  0  0  0
 23 21  1  0  0  0  0
 24 25  1  0  0  0  0
 24 27  1  1  0  0  0
 25 28  1  0  0  0  0
 26 30  1  6  0  0  0
 26 24  1  0  0  0  0
 26  3  1  0  0  0  0
 26 25  1  0  0  0  0
 29 25  1  0  0  0  0
 31 32  2  0  0  0  0
 31 36  1  0  0  0  0
 32 33  1  0  0  0  0
 33 39  1  0  0  0  0
 33 34  2  0  0  0  0
 35 34  1  0  0  0  0
 35 24  1  0  0  0  0
 36 35  2  0  0  0  0
 37 31  1  0  0  0  0
 38 32  1  0  0  0  0
M  END
>  <minimizedAffinity>
-5.43783236

$$$$

 OpenBabel03272508593D

 39 42  0  0  1  0  0  0  0  0999 V2000
   38.3860   24.0900   34.8110 C   0  0  0  0  0  0  0  0  0  0  0  0
   38.6330   23.2380   33.9260 O   0  0  0  0  0  0  0  0  0  0  0  0
   38.6200   23.7890   36.2010 N   0  0  0  0  0  0  0  0  0  0  0  0
   38.2340   24.3590   36.9800 H   0  0  0  0  0  0  0  0  0  0  0  0
   37.8490   25.4250   34.4680 C   0  0  0  0  0  0  0  0  0  0  0  0
   37.9140   26.4220   35.4000 C   0  0  0  0  0  0  0  0  0  0  0  0
   37.3980   27.6570   35.0380 C   0  0  0  0  0  0  0  0  0  0  0  0
   36.8630   27.8080   33.7940 C   0  0  0  0  0  0  0  0  0  0  0  0
   36.7940   26.8060   32.8460 C   0  0  0  0  0  0  0  0  0  0  0  0
   37.3060   25.6270   33.2440 N   0  0  0  0  0  0  0  0  0  0  0  0
   38.3330   26.3160   36.3840 H   0  0  0  0  0  0  0  0  0  0  0  0
   37.4350   28.4620   35.7500 H   0  0  0  0  0  0  0  0  0  0  0  0
   36.4710   28.7940   33.5530 H   0  0  0  0  0  0  0  0  0  0  0  0
   36.2110   27.0100   31.5250 C   0  0  0  0  0  0  0  0  0  0  0  0
   35.3140   26.2250   31.1370 O   0  0  0  0  0  0  0  0  0  0  0  0
   36.6620   28.1050   30.6710 C   0  0  0  0  0  0  0  0  0  0  0  0
   36.2050   29.4040   30.7550 C   0  0  0  0  0  0  0  0  0  0  0  0
   35.4770   29.8550   31.4160 H   0  0  0  0  0  0  0  0  0  0  0  0
   36.8660   30.1330   29.7870 C   0  0  0  0  0  0  0  0  0  0  0  0
   36.8320   31.1710   29.4880 H   0  0  0  0  0  0  0  0  0  0  0  0
   37.7090   29.2150   29.1500 C   0  0  0  0  0  0  0  0  0  0  0  0
   38.4230   29.3310   28.3220 H   0  0  0  0  0  0  0  0  0  0  0  0
   37.5460   28.0300   29.7150 O   0  0  0  0  0  0  0  0  0  0  0  0
   40.8430   22.7800   36.6630 C   0  0  2  0  0  0  0  0  0  0  0  0
   40.0650   22.7100   37.9280 C   0  0  0  0  0  0  0  0  0  0  0  0
   39.4310   22.6390   36.5150 C   0  0  1  0  0  0  0  0  0  0  0  0
   41.3440   23.7580   36.4920 H   0  0  0  0  0  0  0  0  0  0  0  0
   39.9220   23.6260   38.5060 H   0  0  0  0  0  0  0  0  0  0  0  0
   40.1170   21.7720   38.4930 H   0  0  0  0  0  0  0  0  0  0  0  0
   39.0020   21.6340   36.2810 H   0  0  0  0  0  0  0  0  0  0  0  0
   42.8350   20.4490   34.5560 C   0  0  0  0  0  0  0  0  0  0  0  0
   43.4260   19.5900   35.5480 C   0  0  0  0  0  0  0  0  0  0  0  0
   43.1040   19.8430   36.9330 C   0  0  0  0  0  0  0  0  0  0  0  0
   42.2620   20.8740   37.2570 N   0  0  0  0  0  0  0  0  0  0  0  0
   41.7470   21.6360   36.2700 C   0  0  0  0  0  0  0  0  0  0  0  0
   42.0120   21.4500   34.9170 N   0  0  0  0  0  0  0  0  0  0  0  0
   43.0960   20.2320   33.5300 H   0  0  0  0  0  0  0  0  0  0  0  0
   44.0800   18.7900   35.2910 H   0  0  0  0  0  0  0  0  0  0  0  0
   43.5460   19.2010   37.6780 H   0  0  0  0  0  0  0  0  0  0  0  0
  1  3  1  0  0  0  0
  2  1  2  0  0  0  0
  3 26  1  0  0  0  0
  3  4  1  0  0  0  0
  5  1  1  0  0  0  0
  5  6  1  0  0  0  0
  6 11  1  0  0  0  0
  7  6  2  0  0  0  0
  7 12  1  0  0  0  0
  8  7  1  0  0  0  0
  9 10  1  0  0  0  0
  9  8  2  0  0  0  0
 10  5  2  0  0  0  0
 13  8  1  0  0  0  0
 14  9  1  0  0  0  0
 15 14  2  0  0  0  0
 16 17  2  0  0  0  0
 16 14  1  0  0  0  0
 17 18  1  0  0  0  0
 19 17  1  0  0  0  0
 20 19  1  0  0  0  0
 21 23  1  0  0  0  0
 21 19  2  0  0  0  0
 22 21  1  0  0  0  0
 23 16  1  0  0  0  0
 24 27  1  6  0  0  0
 24 25  1  0  0  0  0
 25 29  1  0  0  0  0
 25 28  1  0  0  0  0
 26 30  1  6  0  0  0
 26 24  1  0  0  0  0
 26 25  1  0  0  0  0
 31 36  2  0  0  0  0
 31 32  1  0  0  0  0
 32 33  2  0  0  0  0
 33 34  1  0  0  0  0
 33 39  1  0  0  0  0
 35 24  1  0  0  0  0
 35 34  2  0  0  0  0
 36 35  1  0  0  0  0
 37 31  1  0  0  0  0
 38 32  1  0  0  0  0
M  END
>  <minimizedAffinity>
-5.43773699

$$$$

 OpenBabel03272508593D

 39 42  0  0  1  0  0  0  0  0999 V2000
   36.8230   26.8370   32.3120 C   0  0  0  0  0  0  0  0  0  0  0  0
   36.8970   26.4800   33.5110 O   0  0  0  0  0  0  0  0  0  0  0  0
   37.2290   25.9430   31.2570 N   0  0  0  0  0  0  0  0  0  0  0  0
   37.3980   26.2550   30.2790 H   0  0  0  0  0  0  0  0  0  0  0  0
   36.3210   28.1760   31.9350 C   0  0  0  0  0  0  0  0  0  0  0  0
   36.7860   28.7580   30.7890 C   0  0  0  0  0  0  0  0  0  0  0  0
   36.2910   30.0130   30.4730 C   0  0  0  0  0  0  0  0  0  0  0  0
   35.3820   30.5910   31.3090 C   0  0  0  0  0  0  0  0  0  0  0  0
   34.9060   30.0120   32.4680 C   0  0  0  0  0  0  0  0  0  0  0  0
   35.4160   28.7950   32.7320 N   0  0  0  0  0  0  0  0  0  0  0  0
   37.5020   28.3120   30.1220 H   0  0  0  0  0  0  0  0  0  0  0  0
   36.6370   30.4960   29.5780 H   0  0  0  0  0  0  0  0  0  0  0  0
   35.0200   31.5770   31.0220 H   0  0  0  0  0  0  0  0  0  0  0  0
   33.9340   30.6670   33.3350 C   0  0  0  0  0  0  0  0  0  0  0  0
   32.7550   30.7930   32.9260 O   0  0  0  0  0  0  0  0  0  0  0  0
   34.3230   31.1680   34.6510 C   0  0  0  0  0  0  0  0  0  0  0  0
   35.5880   31.6090   34.9780 C   0  0  0  0  0  0  0  0  0  0  0  0
   36.4900   31.6740   34.3820 H   0  0  0  0  0  0  0  0  0  0  0  0
   35.5550   31.9970   36.3020 C   0  0  0  0  0  0  0  0  0  0  0  0
   36.2990   32.4010   36.9750 H   0  0  0  0  0  0  0  0  0  0  0  0
   34.2400   31.7650   36.7180 C   0  0  0  0  0  0  0  0  0  0  0  0
   33.7420   31.9210   37.6860 H   0  0  0  0  0  0  0  0  0  0  0  0
   33.5550   31.2740   35.6990 O   0  0  0  0  0  0  0  0  0  0  0  0
   36.5630   23.5640   30.9940 C   0  0  2  0  0  0  0  0  0  0  0  0
   37.9130   23.7050   30.3870 C   0  0  0  0  0  0  0  0  0  0  0  0
   37.4080   24.5500   31.5850 C   0  0  1  0  0  0  0  0  0  0  0  0
   35.7280   23.8520   30.3180 H   0  0  0  0  0  0  0  0  0  0  0  0
   38.0010   24.1970   29.4160 H   0  0  0  0  0  0  0  0  0  0  0  0
   38.6430   22.9190   30.6110 H   0  0  0  0  0  0  0  0  0  0  0  0
   37.9410   24.3150   32.5380 H   0  0  0  0  0  0  0  0  0  0  0  0
   36.4780   21.0620   33.7460 C   0  0  0  0  0  0  0  0  0  0  0  0
   35.5510   20.0900   33.2300 C   0  0  0  0  0  0  0  0  0  0  0  0
   34.9830   20.3310   31.9250 C   0  0  0  0  0  0  0  0  0  0  0  0
   35.3360   21.4570   31.2280 N   0  0  0  0  0  0  0  0  0  0  0  0
   36.2140   22.3220   31.7780 C   0  0  0  0  0  0  0  0  0  0  0  0
   36.8000   22.1530   33.0280 N   0  0  0  0  0  0  0  0  0  0  0  0
   36.8860   20.8510   34.7250 H   0  0  0  0  0  0  0  0  0  0  0  0
   35.2790   19.2180   33.7750 H   0  0  0  0  0  0  0  0  0  0  0  0
   34.2870   19.6050   31.5360 H   0  0  0  0  0  0  0  0  0  0  0  0
  1  2  2  0  0  0  0
  3 26  1  0  0  0  0
  3  1  1  0  0  0  0
  4  3  1  0  0  0  0
  5  1  1  0  0  0  0
  5 10  1  0  0  0  0
  6  5  2  0  0  0  0
  7  6  1  0  0  0  0
  7  8  2  0  0  0  0
  8  9  1  0  0  0  0
  9 10  2  0  0  0  0
  9 14  1  0  0  0  0
 11  6  1  0  0  0  0
 12  7  1  0  0  0  0
 13  8  1  0  0  0  0
 14 16  1  0  0  0  0
 15 14  2  0  0  0  0
 16 17  2  0  0  0  0
 16 23  1  0  0  0  0
 17 19  1  0  0  0  0
 18 17  1  0  0  0  0
 19 21  2  0  0  0  0
 19 20  1  0  0  0  0
 21 22  1  0  0  0  0
 23 21  1  0  0  0  0
 24 27  1  6  0  0  0
 24 26  1  0  0  0  0
 24 35  1  0  0  0  0
 25 29  1  0  0  0  0
 25 24  1  0  0  0  0
 25 26  1  0  0  0  0
 26 30  1  1  0  0  0
 28 25  1  0  0  0  0
 31 37  1  0  0  0  0
 32 31  1  0  0  0  0
 32 38  1  0  0  0  0
 33 32  2  0  0  0  0
 34 35  2  0  0  0  0
 34 33  1  0  0  0  0
 35 36  1  0  0  0  0
 36 31  2  0  0  0  0
 39 33  1  0  0  0  0
M  END
>  <minimizedAffinity>
-5.34949446

$$$$

 OpenBabel03272508593D

 39 42  0  0  1  0  0  0  0  0999 V2000
   38.0190   27.1750   34.6700 C   0  0  0  0  0  0  0  0  0  0  0  0
   37.6210   26.5630   35.6890 O   0  0  0  0  0  0  0  0  0  0  0  0
   39.4270   27.2580   34.3710 N   0  0  0  0  0  0  0  0  0  0  0  0
   39.8230   27.9250   33.6790 H   0  0  0  0  0  0  0  0  0  0  0  0
   37.0700   27.8300   33.7440 C   0  0  0  0  0  0  0  0  0  0  0  0
   37.2720   27.7130   32.3980 C   0  0  0  0  0  0  0  0  0  0  0  0
   36.3600   28.3430   31.5660 C   0  0  0  0  0  0  0  0  0  0  0  0
   35.3270   29.0340   32.1260 C   0  0  0  0  0  0  0  0  0  0  0  0
   35.1140   29.1570   33.4840 C   0  0  0  0  0  0  0  0  0  0  0  0
   36.0250   28.5300   34.2500 N   0  0  0  0  0  0  0  0  0  0  0  0
   38.0830   27.1710   31.9440 H   0  0  0  0  0  0  0  0  0  0  0  0
   36.4930   28.2690   30.5020 H   0  0  0  0  0  0  0  0  0  0  0  0
   34.6350   29.5120   31.4340 H   0  0  0  0  0  0  0  0  0  0  0  0
   33.9950   29.9080   34.0410 C   0  0  0  0  0  0  0  0  0  0  0  0
   32.8730   29.8080   33.4910 O   0  0  0  0  0  0  0  0  0  0  0  0
   34.1760   30.7610   35.2130 C   0  0  0  0  0  0  0  0  0  0  0  0
   33.2080   30.9990   36.1660 C   0  0  0  0  0  0  0  0  0  0  0  0
   32.1910   30.6360   36.2460 H   0  0  0  0  0  0  0  0  0  0  0  0
   33.7590   31.8480   37.1040 C   0  0  0  0  0  0  0  0  0  0  0  0
   33.3800   32.2960   38.0120 H   0  0  0  0  0  0  0  0  0  0  0  0
   35.0640   32.0860   36.6600 C   0  0  0  0  0  0  0  0  0  0  0  0
   35.8780   32.6970   37.0770 H   0  0  0  0  0  0  0  0  0  0  0  0
   35.2560   31.4170   35.5350 O   0  0  0  0  0  0  0  0  0  0  0  0
   40.5690   25.0600   34.5570 C   0  0  2  0  0  0  0  0  0  0  0  0
   41.6220   26.0740   34.2840 C   0  0  0  0  0  0  0  0  0  0  0  0
   40.3190   26.3670   35.0700 C   0  0  1  0  0  0  0  0  0  0  0  0
   40.0480   24.6900   33.6470 H   0  0  0  0  0  0  0  0  0  0  0  0
   41.7110   26.4770   33.2730 H   0  0  0  0  0  0  0  0  0  0  0  0
   42.5460   26.0010   34.8700 H   0  0  0  0  0  0  0  0  0  0  0  0
   40.5010   26.5760   36.1530 H   0  0  0  0  0  0  0  0  0  0  0  0
   40.0350   22.4910   37.1940 C   0  0  0  0  0  0  0  0  0  0  0  0
   41.3170   21.8390   37.2320 C   0  0  0  0  0  0  0  0  0  0  0  0
   42.3430   22.3220   36.3380 C   0  0  0  0  0  0  0  0  0  0  0  0
   42.0700   23.3670   35.4940 N   0  0  0  0  0  0  0  0  0  0  0  0
   40.8430   23.9270   35.5170 C   0  0  0  0  0  0  0  0  0  0  0  0
   39.8100   23.5150   36.3510 N   0  0  0  0  0  0  0  0  0  0  0  0
   39.2900   22.1060   37.8770 H   0  0  0  0  0  0  0  0  0  0  0  0
   41.5230   21.0280   37.8890 H   0  0  0  0  0  0  0  0  0  0  0  0
   43.3040   21.8350   36.3640 H   0  0  0  0  0  0  0  0  0  0  0  0
  1  2  2  0  0  0  0
  3  1  1  0  0  0  0
  3 26  1  0  0  0  0
  4  3  1  0  0  0  0
  5 10  1  0  0  0  0
  5  1  1  0  0  0  0
  6  5  2  0  0  0  0
  7  8  2  0  0  0  0
  7  6  1  0  0  0  0
  8  9  1  0  0  0  0
  9 14  1  0  0  0  0
  9 10  2  0  0  0  0
 11  6  1  0  0  0  0
 12  7  1  0  0  0  0
 13  8  1  0  0  0  0
 14 16  1  0  0  0  0
 15 14  2  0  0  0  0
 16 23  1  0  0  0  0
 16 17  2  0  0  0  0
 17 18  1  0  0  0  0
 17 19  1  0  0  0  0
 19 20  1  0  0  0  0
 21 22  1  0  0  0  0
 21 19  2  0  0  0  0
 23 21  1  0  0  0  0
 24 27  1  6  0  0  0
 24 26  1  0  0  0  0
 24 35  1  0  0  0  0
 25 24  1  0  0  0  0
 25 29  1  0  0  0  0
 25 26  1  0  0  0  0
 26 30  1  1  0  0  0
 28 25  1  0  0  0  0
 31 32  1  0  0  0  0
 31 37  1  0  0  0  0
 32 38  1  0  0  0  0
 33 39  1  0  0  0  0
 33 32  2  0  0  0  0
 34 35  2  0  0  0  0
 34 33  1  0  0  0  0
 35 36  1  0  0  0  0
 36 31  2  0  0  0  0
M  END
>  <minimizedAffinity>
-5.34710598

$$$$

 OpenBabel03272508593D

 39 42  0  0  1  0  0  0  0  0999 V2000
   37.2600   25.9030   33.3190 C   0  0  0  0  0  0  0  0  0  0  0  0
   37.7570   25.3250   34.3140 O   0  0  0  0  0  0  0  0  0  0  0  0
   37.1630   25.2230   32.0520 N   0  0  0  0  0  0  0  0  0  0  0  0
   36.9700   25.7130   31.1560 H   0  0  0  0  0  0  0  0  0  0  0  0
   36.7610   27.2930   33.4040 C   0  0  0  0  0  0  0  0  0  0  0  0
   36.5730   27.8530   34.6370 C   0  0  0  0  0  0  0  0  0  0  0  0
   36.1030   29.1560   34.6720 C   0  0  0  0  0  0  0  0  0  0  0  0
   35.8580   29.7990   33.4950 C   0  0  0  0  0  0  0  0  0  0  0  0
   36.0450   29.2420   32.2460 C   0  0  0  0  0  0  0  0  0  0  0  0
   36.5020   27.9760   32.2640 N   0  0  0  0  0  0  0  0  0  0  0  0
   36.7630   27.3560   35.5720 H   0  0  0  0  0  0  0  0  0  0  0  0
   35.9450   29.6240   35.6260 H   0  0  0  0  0  0  0  0  0  0  0  0
   35.4900   30.8210   33.5710 H   0  0  0  0  0  0  0  0  0  0  0  0
   35.7690   29.9660   31.0110 C   0  0  0  0  0  0  0  0  0  0  0  0
   34.7300   30.6650   30.9460 O   0  0  0  0  0  0  0  0  0  0  0  0
   36.6810   29.8790   29.8730 C   0  0  0  0  0  0  0  0  0  0  0  0
   37.2220   28.7060   29.3910 C   0  0  0  0  0  0  0  0  0  0  0  0
   37.0980   27.6820   29.7220 H   0  0  0  0  0  0  0  0  0  0  0  0
   38.0250   29.0370   28.3190 C   0  0  0  0  0  0  0  0  0  0  0  0
   38.6380   28.4560   27.6440 H   0  0  0  0  0  0  0  0  0  0  0  0
   37.9270   30.4280   28.2050 C   0  0  0  0  0  0  0  0  0  0  0  0
   38.3870   31.1370   27.5020 H   0  0  0  0  0  0  0  0  0  0  0  0
   37.1170   30.8730   29.1510 O   0  0  0  0  0  0  0  0  0  0  0  0
   36.4420   22.9670   31.3010 C   0  0  2  0  0  0  0  0  0  0  0  0
   37.7490   23.2440   30.6480 C   0  0  0  0  0  0  0  0  0  0  0  0
   37.3410   23.7920   32.0400 C   0  0  1  0  0  0  0  0  0  0  0  0
   35.5670   23.4020   30.7690 H   0  0  0  0  0  0  0  0  0  0  0  0
   37.7770   23.9450   29.8110 H   0  0  0  0  0  0  0  0  0  0  0  0
   38.4810   22.4280   30.6340 H   0  0  0  0  0  0  0  0  0  0  0  0
   37.9350   23.3450   32.8740 H   0  0  0  0  0  0  0  0  0  0  0  0
   35.5740   20.1870   33.6160 C   0  0  0  0  0  0  0  0  0  0  0  0
   35.5130   19.0650   32.7170 C   0  0  0  0  0  0  0  0  0  0  0  0
   35.7870   19.3090   31.3200 C   0  0  0  0  0  0  0  0  0  0  0  0
   36.0910   20.5770   30.8990 N   0  0  0  0  0  0  0  0  0  0  0  0
   36.1290   21.5780   31.8030 C   0  0  0  0  0  0  0  0  0  0  0  0
   35.8770   21.4160   33.1610 N   0  0  0  0  0  0  0  0  0  0  0  0
   35.3640   19.9710   34.6540 H   0  0  0  0  0  0  0  0  0  0  0  0
   35.2770   18.0820   33.0490 H   0  0  0  0  0  0  0  0  0  0  0  0
   35.7420   18.4700   30.6450 H   0  0  0  0  0  0  0  0  0  0  0  0
  1  5  1  0  0  0  0
  1  2  2  0  0  0  0
  3  1  1  0  0  0  0
  4  3  1  0  0  0  0
  5  6  1  0  0  0  0
  6  7  2  0  0  0  0
  6 11  1  0  0  0  0
  7 12  1  0  0  0  0
  8 13  1  0  0  0  0
  8  7  1  0  0  0  0
  9 10  1  0  0  0  0
  9  8  2  0  0  0  0
 10  5  2  0  0  0  0
 14  9  1  0  0  0  0
 15 14  2  0  0  0  0
 16 14  1  0  0  0  0
 17 18  1  0  0  0  0
 17 16  2  0  0  0  0
 19 17  1  0  0  0  0
 20 19  1  0  0  0  0
 21 19  2  0  0  0  0
 21 23  1  0  0  0  0
 22 21  1  0  0  0  0
 23 16  1  0  0  0  0
 24 27  1  6  0  0  0
 24 35  1  0  0  0  0
 24 26  1  0  0  0  0
 25 24  1  0  0  0  0
 25 26  1  0  0  0  0
 26  3  1  0  0  0  0
 26 30  1  1  0  0  0
 28 25  1  0  0  0  0
 29 25  1  0  0  0  0
 31 37  1  0  0  0  0
 32 38  1  0  0  0  0
 32 31  2  0  0  0  0
 33 32  1  0  0  0  0
 34 33  2  0  0  0  0
 34 35  1  0  0  0  0
 35 36  2  0  0  0  0
 36 31  1  0  0  0  0
 39 33  1  0  0  0  0
M  END
>  <minimizedAffinity>
-5.30294085

$$$$

 OpenBabel03272508593D

 39 42  0  0  1  0  0  0  0  0999 V2000
   36.1420   28.9040   34.1410 C   0  0  0  0  0  0  0  0  0  0  0  0
   36.6990   27.9640   34.7540 O   0  0  0  0  0  0  0  0  0  0  0  0
   36.3130   29.0500   32.7170 N   0  0  0  0  0  0  0  0  0  0  0  0
   36.0640   29.9180   32.2000 H   0  0  0  0  0  0  0  0  0  0  0  0
   35.2960   29.8910   34.8470 C   0  0  0  0  0  0  0  0  0  0  0  0
   35.8980   30.9190   35.5150 C   0  0  0  0  0  0  0  0  0  0  0  0
   35.0700   31.8220   36.1630 C   0  0  0  0  0  0  0  0  0  0  0  0
   33.7200   31.6380   36.1010 C   0  0  0  0  0  0  0  0  0  0  0  0
   33.1030   30.6020   35.4280 C   0  0  0  0  0  0  0  0  0  0  0  0
   33.9480   29.7530   34.8160 N   0  0  0  0  0  0  0  0  0  0  0  0
   36.9610   31.0760   35.5710 H   0  0  0  0  0  0  0  0  0  0  0  0
   35.5140   32.6420   36.6970 H   0  0  0  0  0  0  0  0  0  0  0  0
   33.1090   32.3700   36.6240 H   0  0  0  0  0  0  0  0  0  0  0  0
   31.6540   30.4420   35.3890 C   0  0  0  0  0  0  0  0  0  0  0  0
   31.0010   31.1040   34.5480 O   0  0  0  0  0  0  0  0  0  0  0  0
   30.9770   29.5320   36.3090 C   0  0  0  0  0  0  0  0  0  0  0  0
   31.5730   28.4490   36.9200 C   0  0  0  0  0  0  0  0  0  0  0  0
   32.5860   28.0710   36.8560 H   0  0  0  0  0  0  0  0  0  0  0  0
   30.6140   27.8450   37.7070 C   0  0  0  0  0  0  0  0  0  0  0  0
   30.6240   26.9800   38.3560 H   0  0  0  0  0  0  0  0  0  0  0  0
   29.4570   28.6120   37.5270 C   0  0  0  0  0  0  0  0  0  0  0  0
   28.4460   28.5180   37.9470 H   0  0  0  0  0  0  0  0  0  0  0  0
   29.7320   29.5980   36.6890 O   0  0  0  0  0  0  0  0  0  0  0  0
   35.9790   27.0200   31.3250 C   0  0  2  0  0  0  0  0  0  0  0  0
   36.6220   28.0400   30.4560 C   0  0  0  0  0  0  0  0  0  0  0  0
   36.8550   27.9330   31.9850 C   0  0  1  0  0  0  0  0  0  0  0  0
   34.8750   27.1230   31.4050 H   0  0  0  0  0  0  0  0  0  0  0  0
   36.0160   28.8710   30.0880 H   0  0  0  0  0  0  0  0  0  0  0  0
   37.4380   27.6990   29.8070 H   0  0  0  0  0  0  0  0  0  0  0  0
   37.8910   27.6080   32.2450 H   0  0  0  0  0  0  0  0  0  0  0  0
   35.7490   23.3070   31.3540 C   0  0  0  0  0  0  0  0  0  0  0  0
   37.0760   22.9280   30.9460 C   0  0  0  0  0  0  0  0  0  0  0  0
   38.0240   23.9840   30.6790 C   0  0  0  0  0  0  0  0  0  0  0  0
   37.6400   25.2920   30.8180 N   0  0  0  0  0  0  0  0  0  0  0  0
   36.3770   25.5680   31.2050 C   0  0  0  0  0  0  0  0  0  0  0  0
   35.4140   24.6040   31.4800 N   0  0  0  0  0  0  0  0  0  0  0  0
   35.0640   22.4930   31.5460 H   0  0  0  0  0  0  0  0  0  0  0  0
   37.3690   21.9110   30.8390 H   0  0  0  0  0  0  0  0  0  0  0  0
   39.0180   23.7020   30.3730 H   0  0  0  0  0  0  0  0  0  0  0  0
  1  2  2  0  0  0  0
  1  5  1  0  0  0  0
  3  1  1  0  0  0  0
  4  3  1  0  0  0  0
  5  6  1  0  0  0  0
  6 11  1  0  0  0  0
  6  7  2  0  0  0  0
  7 12  1  0  0  0  0
  8  7  1  0  0  0  0
  8 13  1  0  0  0  0
  9  8  2  0  0  0  0
 10  5  2  0  0  0  0
 10  9  1  0  0  0  0
 14  9  1  0  0  0  0
 14 16  1  0  0  0  0
 15 14  2  0  0  0  0
 16 23  1  0  0  0  0
 16 17  2  0  0  0  0
 17 19  1  0  0  0  0
 18 17  1  0  0  0  0
 19 20  1  0  0  0  0
 21 19  2  0  0  0  0
 21 22  1  0  0  0  0
 23 21  1  0  0  0  0
 24 27  1  1  0  0  0
 24 26  1  0  0  0  0
 25 24  1  0  0  0  0
 25 26  1  0  0  0  0
 26 30  1  1  0  0  0
 26  3  1  0  0  0  0
 28 25  1  0  0  0  0
 29 25  1  0  0  0  0
 31 36  1  0  0  0  0
 31 37  1  0  0  0  0
 32 31  2  0  0  0  0
 33 34  2  0  0  0  0
 33 32  1  0  0  0  0
 34 35  1  0  0  0  0
 35 24  1  0  0  0  0
 35 36  2  0  0  0  0
 38 32  1  0  0  0  0
 39 33  1  0  0  0  0
M  END
>  <minimizedAffinity>
-5.2924633

$$$$
