
 OpenBabel03272500043D

 34 36  0  0  0  0  0  0  0  0999 V2000
   36.1500   29.2080   49.3180 C   0  0  0  0  0  0  0  0  0  0  0  0
   35.9240   30.3860   48.5550 C   0  0  0  0  0  0  0  0  0  0  0  0
   34.7350   30.4800   47.8440 C   0  0  0  0  0  0  0  0  0  0  0  0
   33.8470   29.4410   47.9150 N   0  0  0  0  0  0  0  0  0  0  0  0
   34.0730   28.3490   48.6300 C   0  0  0  0  0  0  0  0  0  0  0  0
   35.2400   28.2190   49.3490 N   0  0  0  0  0  0  0  0  0  0  0  0
   37.0840   29.1460   49.8700 H   0  0  0  0  0  0  0  0  0  0  0  0
   34.5720   31.3710   47.2720 H   0  0  0  0  0  0  0  0  0  0  0  0
   36.9370   31.3790   48.5650 N   0  0  0  0  0  0  0  0  0  0  0  0
   37.2210   32.1120   49.6350 C   0  0  0  0  0  0  0  0  0  0  0  0
   38.2310   33.0710   49.5730 C   0  0  0  0  0  0  0  0  0  0  0  0
   38.8670   33.1730   48.3550 C   0  0  0  0  0  0  0  0  0  0  0  0
   39.7860   34.0390   48.2830 O   0  0  0  0  0  0  0  0  0  0  0  0
   38.6090   32.4550   47.2610 N   0  0  0  0  0  0  0  0  0  0  0  0
   37.6150   31.5360   47.3840 C   0  0  0  0  0  0  0  0  0  0  0  0
   37.3640   30.8420   46.3350 O   0  0  0  0  0  0  0  0  0  0  0  0
   36.6500   31.9310   50.5190 H   0  0  0  0  0  0  0  0  0  0  0  0
   38.4650   33.6650   50.4310 H   0  0  0  0  0  0  0  0  0  0  0  0
   39.1310   32.5900   46.3860 H   0  0  0  0  0  0  0  0  0  0  0  0
   33.1920   27.2920   48.7090 O   0  0  0  0  0  0  0  0  0  0  0  0
   30.9490   27.3330   47.6560 C   0  0  0  0  0  0  0  0  0  0  0  0
   32.2910   27.0380   47.7250 C   0  0  0  0  0  0  0  0  0  0  0  0
   32.8380   26.3760   46.6230 C   0  0  0  0  0  0  0  0  0  0  0  0
   33.8900   26.0770   46.5320 H   0  0  0  0  0  0  0  0  0  0  0  0
   32.0200   26.0640   45.5580 C   0  0  0  0  0  0  0  0  0  0  0  0
   32.4140   25.5550   44.6970 H   0  0  0  0  0  0  0  0  0  0  0  0
   30.6890   26.3750   45.5300 C   0  0  0  0  0  3  0  0  0  0  0  0
   30.1390   27.0180   46.5910 C   0  0  0  0  0  3  0  0  0  0  0  0
   29.2780   28.7780   48.5040 N   0  0  0  0  0  0  0  0  0  0  0  0
   30.3390   28.0420   48.7440 C   0  0  0  0  0  0  0  0  0  0  0  0
   30.2880   28.3970   50.1080 N   0  0  0  0  0  0  0  0  0  0  0  0
   28.8510   28.8830   47.5800 H   0  0  0  0  0  0  0  0  0  0  0  0
   30.7800   29.2360   50.5410 H   0  0  0  0  0  0  0  0  0  0  0  0
   29.7560   27.8660   50.8600 H   0  0  0  0  0  0  0  0  0  0  0  0
  1  6  1  0  0  0  0
  1  7  1  0  0  0  0
  2  9  1  0  0  0  0
  2  1  2  0  0  0  0
  3  4  2  0  0  0  0
  3  2  1  0  0  0  0
  4  5  1  0  0  0  0
  5 20  1  0  0  0  0
  5  6  2  0  0  0  0
  8  3  1  0  0  0  0
  9 10  1  0  0  0  0
 10 17  1  0  0  0  0
 11 10  2  0  0  0  0
 11 18  1  0  0  0  0
 12 11  1  0  0  0  0
 13 12  2  0  0  0  0
 14 15  1  0  0  0  0
 14 12  1  0  0  0  0
 15  9  1  0  0  0  0
 16 15  2  0  0  0  0
 19 14  1  0  0  0  0
 21 22  1  0  0  0  0
 21 30  1  0  0  0  0
 22 20  1  0  0  0  0
 23 22  2  0  0  0  0
 24 23  1  0  0  0  0
 25 23  1  0  0  0  0
 26 25  1  0  0  0  0
 27 25  2  0  0  0  0
 27 28  1  0  0  0  0
 28 21  2  0  0  0  0
 29 30  2  0  0  0  0
 30 31  1  0  0  0  0
 31 33  1  0  0  0  0
 31 34  1  0  0  0  0
 32 29  1  0  0  0  0
M  END
>  <minimizedAffinity>
-5.95880175

>  <minimizedRMSD>
1.13645554

$$$$
