REMARK  Name = 
REMARK  4 active torsions:
REMARK  status: ('A' for Active; 'I' for Inactive)
REMARK    1  A    between atoms: C_1  and  C_7
REMARK    2  A    between atoms: C_8  and  O_10
REMARK    3  A    between atoms: O_10  and  C_22
REMARK    4  A    between atoms: C_19  and  C_21
REMARK                            x       y       z     vdW  Elec       q    Type
REMARK                         _______ _______ _______ _____ _____    ______ ____
ROOT
ATOM      1  C   UNL     1      36.633  31.038  50.493  0.00  0.00    +0.000 C 
ATOM      2  C   UNL     1      36.145  29.675  50.650  0.00  0.00    +0.000 C 
ATOM      3  C   UNL     1      37.339  30.105  51.483  0.00  0.00    +0.000 C 
ATOM      4  H   UNL     1      36.171  31.951  50.945  0.00  0.00    +0.000 HD
ATOM      5  H   UNL     1      35.185  29.567  51.233  0.00  0.00    +0.000 HD
ATOM      6  H   UNL     1      37.142  30.345  52.527  0.00  0.00    +0.000 HD
ATOM      7  H   UNL     1      38.329  29.720  51.239  0.00  0.00    +0.000 HD
ENDROOT
BRANCH   1   8
ATOM      8  C   UNL     1      37.521  31.407  49.323  0.00  0.00    +0.000 A 
ATOM      9  C   UNL     1      38.161  32.645  49.402  0.00  0.00    +0.000 A 
ATOM     10  C   UNL     1      38.948  32.976  48.314  0.00  0.00    +0.000 A 
ATOM     11  N   UNL     1      39.067  32.116  47.242  0.00  0.00    +0.000 NA
ATOM     12  C   UNL     1      38.425  30.929  47.218  0.00  0.00    +0.000 A 
ATOM     13  N   UNL     1      37.637  30.557  48.268  0.00  0.00    +0.000 NA
ATOM     14  H   UNL     1      38.031  33.279  50.266  0.00  0.00    +0.000 HD
ATOM     15  H   UNL     1      39.459  33.929  48.343  0.00  0.00    +0.000 HD
ATOM     16  H   UNL     1      38.545  30.284  46.358  0.00  0.00    +0.000 HD
ENDBRANCH   1   8
BRANCH   2  17
ATOM     17  O   UNL     1      36.401  28.741  49.684  0.00  0.00    +0.000 OA
BRANCH  17  19
ATOM     18  C   UNL     1      34.782  27.536  48.130  0.00  0.00    +0.000 A 
ATOM     19  C   UNL     1      35.643  27.737  49.180  0.00  0.00    +0.000 A 
ATOM     20  C   UNL     1      35.835  26.619  50.010  0.00  0.00    +0.000 A 
ATOM     21  H   UNL     1      36.465  26.506  50.909  0.00  0.00    +0.000 HD
ATOM     22  C   UNL     1      35.195  25.398  49.780  0.00  0.00    +0.000 A 
ATOM     23  H   UNL     1      35.288  24.497  50.366  0.00  0.00    +0.000 HD
ATOM     24  C   UNL     1      34.343  25.273  48.706  0.00  0.00    +0.000 A 
ATOM     25  C   UNL     1      34.142  26.350  47.884  0.00  0.00    +0.000 A 
BRANCH  18  27
ATOM     26  N   UNL     1      35.672  28.662  46.497  0.00  0.00    +0.000 NA
ATOM     27  C   UNL     1      34.612  28.666  47.241  0.00  0.00    +0.000 C 
ATOM     28  N   UNL     1      33.580  29.653  47.086  0.00  0.00    +0.000 N 
ATOM     29  H   UNL     1      35.868  29.340  45.752  0.00  0.00    +0.000 HD
ATOM     30  H   UNL     1      33.262  29.808  46.091  0.00  0.00    +0.000 HD
ATOM     31  H   UNL     1      33.095  30.238  47.786  0.00  0.00    +0.000 HD
ENDBRANCH  18  27
ENDBRANCH  17  19
ENDBRANCH   2  17
TORSDOF 4
