
     RDKit          3D

 49 51  0  0  0  0  0  0  0  0999 V2000
   37.6519   30.4569   48.5182 Cl  0  0  0  0  0  0  0  0  0  0  0  0
   36.4833   30.3057   47.2075 C   0  0  0  0  0  0  0  0  0  0  0  0
   36.8365   30.6986   45.9523 C   0  0  0  0  0  0  0  0  0  0  0  0
   35.9390   30.5864   44.9267 C   0  0  0  0  0  0  0  0  0  0  0  0
   34.6824   30.0721   45.1889 C   0  0  0  0  0  0  0  0  0  0  0  0
   34.3713   29.6841   46.4932 C   0  0  0  0  0  0  0  0  0  0  0  0
   35.2501   29.7877   47.5281 C   0  0  0  0  0  0  0  0  0  0  0  0
   39.8420   32.8443   45.9538 C   0  0  0  0  0  0  0  0  0  0  0  0
   40.6990   32.1121   45.0821 C   0  0  0  0  0  0  0  0  0  0  0  0
   40.2105   30.9209   44.5355 C   0  0  0  0  0  0  0  0  0  0  0  0
   38.9539   30.5169   44.8551 N   0  0  0  0  0  0  0  0  0  0  0  0
   38.1650   31.2401   45.6895 C   0  0  0  0  0  0  0  0  0  0  0  0
   38.6133   32.3798   46.2213 N   0  0  0  0  0  0  0  0  0  0  0  0
   41.0809   30.2164   43.6751 N   0  0  0  0  0  0  0  0  0  0  0  0
   34.9089   29.3869   48.8744 C   0  0  0  0  0  0  0  0  0  0  0  0
   34.2005   28.1296   49.0897 C   0  0  0  0  0  0  0  0  0  0  0  0
   32.8880   28.3335   49.4320 O   0  0  0  0  0  0  0  0  0  0  0  0
   32.6248   26.6038   47.4684 O   0  0  0  0  0  0  0  0  0  0  0  0
   31.8646   27.5592   48.3562 P   0  0  2  0  0  0  0  0  0  0  0  0
   31.1029   28.7902   47.4344 O   0  0  0  0  0  0  0  0  0  0  0  0
   30.6453   26.7237   49.1295 O   0  0  0  0  0  0  0  0  0  0  0  0
   36.2614   30.9135   43.9304 H   0  0  0  0  0  0  0  0  0  0  0  0
   34.0538   30.0281   44.3060 H   0  0  0  0  0  0  0  0  0  0  0  0
   33.4005   29.3308   46.4849 H   0  0  0  0  0  0  0  0  0  0  0  0
   40.2126   33.7716   46.3838 H   0  0  0  0  0  0  0  0  0  0  0  0
   41.6831   32.5184   44.8901 H   0  0  0  0  0  0  0  0  0  0  0  0
   41.9297   29.9272   44.2231 H   0  0  0  0  0  0  0  0  0  0  0  0
   40.6341   30.1799   42.7291 H   0  0  0  0  0  0  0  0  0  0  0  0
   35.8300   29.3870   49.4936 H   0  0  0  0  0  0  0  0  0  0  0  0
   34.2963   30.2265   49.3204 H   0  0  0  0  0  0  0  0  0  0  0  0
   34.2537   27.5245   48.1375 H   0  0  0  0  0  0  0  0  0  0  0  0
   34.6892   27.4749   49.8510 H   0  0  0  0  0  0  0  0  0  0  0  0
   30.7315   29.4087   48.1125 H   0  0  0  0  0  0  0  0  0  0  0  0
   27.2472   28.5566   49.8584 N   0  0  0  0  0  0  0  0  0  0  0  0
   28.2048   27.7165   49.8922 C   0  0  0  0  0  0  0  0  0  0  0  0
   29.1900   27.6131   50.9404 N   0  0  0  0  0  0  0  0  0  0  0  0
   28.3550   26.7566   48.7947 C   0  0  0  0  0  0  0  0  0  0  0  0
   29.5770   26.2368   48.3863 C   0  0  0  0  0  0  0  0  0  0  0  0
   29.6174   25.3377   47.3418 C   0  0  0  0  0  0  0  0  0  0  0  0
   30.5858   24.9819   47.0838 H   0  0  0  0  0  0  0  0  0  0  0  0
   28.4547   24.9537   46.7036 C   0  0  0  0  0  0  0  0  0  0  0  0
   28.5010   24.2488   45.8871 H   0  0  0  0  0  0  0  0  0  0  0  0
   27.2202   25.4577   47.0913 C   0  0  0  0  0  0  0  0  0  0  0  0
   27.2069   26.3540   48.1369 C   0  0  0  0  0  0  0  0  0  0  0  0
   27.0671   29.2611   50.5799 H   0  0  0  0  0  0  0  0  0  0  0  0
   30.1696   27.8957   51.1054 H   0  0  0  0  0  0  0  0  0  0  0  0
   28.8892   27.1221   51.8100 H   0  0  0  0  0  0  0  0  0  0  0  0
   26.3591   25.1129   46.5481 H   0  0  0  0  0  0  0  0  0  0  0  0
   26.2373   26.7564   48.4494 H   0  0  0  0  0  0  0  0  0  0  0  0
  2  7  2  0
  2  1  1  0
  3  2  1  0
  4  5  1  0
  4  3  2  0
  5  6  2  0
  6  7  1  0
  7 15  1  0
  8 13  2  0
  9  8  1  0
 10 11  1  0
 10  9  2  0
 11 12  2  0
 12  3  1  0
 12 13  1  0
 14 10  1  0
 15 16  1  0
 16 17  1  0
 18 19  2  0
 19 21  1  1
 19 17  1  0
 20 19  1  0
  4 22  1  0
  5 23  1  0
  6 24  1  0
  8 25  1  0
  9 26  1  0
 14 27  1  0
 14 28  1  0
 15 29  1  0
 15 30  1  0
 16 31  1  0
 16 32  1  0
 20 33  1  0
 34 35  2  3
 35 36  1  0
 35 37  1  0
 37 38  2  0
 38 39  1  0
 39 40  1  0
 39 41  2  0
 41 42  1  0
 41 43  1  0
 43 44  2  0
 44 37  1  0
 34 45  1  0
 36 46  1  0
 36 47  1  0
 43 48  1  0
 44 49  1  0
 21 38  1  0
M  ISO  8  22  14  23  14  24  14  25  14  26  14  29   8  30   8  31   8
M  ISO  4  32   8  33   3  40  15  42  16
M  END
>  <DihAtoms>  (1) 
18,20,37,36

>  <DihDeg>  (1) 
179.99962710374405

$$$$
