
     RDKit          3D

 33 34  0  0  0  0  0  0  0  0999 V2000
   35.9466   30.7937   49.6255 C   0  0  0  0  0  0  0  0  0  0  0  0
   36.2177   29.8946   50.6527 C   0  0  0  0  0  0  0  0  0  0  0  0
   37.5027   29.8948   51.1970 C   0  0  0  0  0  0  0  0  0  0  0  0
   38.4404   30.7568   50.7196 N   0  0  0  0  0  0  0  0  0  0  0  0
   38.1231   31.6228   49.7064 C   0  0  0  0  0  0  0  0  0  0  0  0
   36.8873   31.6474   49.1578 N   0  0  0  0  0  0  0  0  0  0  0  0
   35.1367   29.0822   51.0189 N   0  0  0  0  0  0  0  0  0  0  0  0
   34.7337   30.9403   48.9628 O   0  0  0  0  0  0  0  0  0  0  0  0
   35.5309   30.0887   46.5404 O   0  0  0  0  0  0  0  0  0  0  0  0
   34.3813   30.0751   47.5230 P   0  0  1  0  0  0  0  0  0  0  0  0
   33.9938   28.5094   47.9857 O   0  0  0  0  0  0  0  0  0  0  0  0
   33.0727   30.8153   46.7221 O   0  0  0  0  0  0  0  0  0  0  0  0
   37.6633   29.1835   51.9869 H   0  0  0  0  0  0  0  0  0  0  0  0
   38.9093   32.2884   49.3641 H   0  0  0  0  0  0  0  0  0  0  0  0
   35.0687   28.0235   51.0641 H   0  0  0  0  0  0  0  0  0  0  0  0
   34.2156   29.4456   51.3076 H   0  0  0  0  0  0  0  0  0  0  0  0
   33.5422   28.0966   47.1832 H   0  0  0  0  0  0  0  0  0  0  0  0
   34.8819   29.8368   45.2051 N   0  0  0  0  0  0  0  0  0  0  0  0
   35.2168   31.0922   45.0341 C   0  0  0  0  0  0  0  0  0  0  0  0
   36.6055   31.1912   44.7417 N   0  0  0  0  0  0  0  0  0  0  0  0
   34.2514   32.1803   45.1431 C   0  0  0  0  0  0  0  0  0  0  0  0
   33.1724   31.9968   46.0163 C   0  0  0  0  0  0  0  0  0  0  0  0
   32.2948   33.0560   46.0778 C   0  0  0  0  0  0  0  0  0  0  0  0
   31.4556   32.9624   46.7305 H   0  0  0  0  0  0  0  0  0  0  0  0
   32.4375   34.2129   45.3544 C   0  0  0  0  0  0  0  0  0  0  0  0
   31.7022   35.0170   45.4506 H   0  0  0  0  0  0  0  0  0  0  0  0
   33.5074   34.3534   44.5108 C   0  0  0  0  0  0  0  0  0  0  0  0
   34.4141   33.3279   44.4102 C   0  0  0  0  0  0  0  0  0  0  0  0
   35.6543   29.1610   45.1021 H   0  0  0  0  0  0  0  0  0  0  0  0
   37.1369   31.1468   45.6589 H   0  0  0  0  0  0  0  0  0  0  0  0
   37.2426   31.2913   43.9239 H   0  0  0  0  0  0  0  0  0  0  0  0
   33.6437   35.2446   43.9344 H   0  0  0  0  0  0  0  0  0  0  0  0
   35.2887   33.3831   43.7527 H   0  0  0  0  0  0  0  0  0  0  0  0
  1  2  2  0
  2  7  1  0
  2  3  1  0
  4  3  2  0
  5  4  1  0
  6  1  1  0
  6  5  2  0
  8  1  1  0
  9 10  2  0
 10 11  1  1
 10  8  1  0
 12 10  1  0
  3 13  1  0
  5 14  1  0
  7 15  1  0
  7 16  1  0
 11 17  1  0
 18 19  2  3
 19 20  1  0
 19 21  1  0
 21 22  2  0
 22 23  1  0
 23 24  1  0
 23 25  2  0
 25 26  1  0
 25 27  1  0
 27 28  2  0
 28 21  1  0
 18 29  1  0
 20 30  1  0
 20 31  1  0
 27 32  1  0
 28 33  1  0
 12 22  1  0
M  ISO  5  13  14  14  14  17   3  24  15  26  16
M  END
>  <DihAtoms>  (1) 
9,11,21,20

>  <DihDeg>  (1) 
179.98748910546027

$$$$
