
     RDKit          3D

 49 51  0  0  0  0  0  0  0  0999 V2000
   37.6519   30.4569   48.5182 Cl  0  0  0  0  0  0  0  0  0  0  0  0
   36.4833   30.3057   47.2075 C   0  0  0  0  0  0  0  0  0  0  0  0
   36.8365   30.6986   45.9523 C   0  0  0  0  0  0  0  0  0  0  0  0
   35.9390   30.5864   44.9267 C   0  0  0  0  0  0  0  0  0  0  0  0
   34.6824   30.0721   45.1889 C   0  0  0  0  0  0  0  0  0  0  0  0
   34.3713   29.6841   46.4932 C   0  0  0  0  0  0  0  0  0  0  0  0
   35.2501   29.7877   47.5281 C   0  0  0  0  0  0  0  0  0  0  0  0
   39.8420   32.8443   45.9538 C   0  0  0  0  0  0  0  0  0  0  0  0
   40.6990   32.1121   45.0821 C   0  0  0  0  0  0  0  0  0  0  0  0
   40.2105   30.9209   44.5355 C   0  0  0  0  0  0  0  0  0  0  0  0
   38.9539   30.5169   44.8551 N   0  0  0  0  0  0  0  0  0  0  0  0
   38.1650   31.2401   45.6895 C   0  0  0  0  0  0  0  0  0  0  0  0
   38.6133   32.3798   46.2213 N   0  0  0  0  0  0  0  0  0  0  0  0
   41.0809   30.2164   43.6751 N   0  0  0  0  0  0  0  0  0  0  0  0
   34.9089   29.3869   48.8744 C   0  0  0  0  0  0  0  0  0  0  0  0
   34.2005   28.1296   49.0897 C   0  0  0  0  0  0  0  0  0  0  0  0
   32.8880   28.3335   49.4320 O   0  0  0  0  0  0  0  0  0  0  0  0
   32.6248   26.6038   47.4684 O   0  0  0  0  0  0  0  0  0  0  0  0
   31.8646   27.5592   48.3562 P   0  0  2  0  0  0  0  0  0  0  0  0
   31.1029   28.7902   47.4344 O   0  0  0  0  0  0  0  0  0  0  0  0
   30.6453   26.7237   49.1295 O   0  0  0  0  0  0  0  0  0  0  0  0
   36.2614   30.9135   43.9304 H   0  0  0  0  0  0  0  0  0  0  0  0
   34.0538   30.0281   44.3060 H   0  0  0  0  0  0  0  0  0  0  0  0
   33.4005   29.3308   46.4849 H   0  0  0  0  0  0  0  0  0  0  0  0
   40.2126   33.7716   46.3838 H   0  0  0  0  0  0  0  0  0  0  0  0
   41.6831   32.5184   44.8901 H   0  0  0  0  0  0  0  0  0  0  0  0
   41.9297   29.9272   44.2231 H   0  0  0  0  0  0  0  0  0  0  0  0
   40.6341   30.1799   42.7291 H   0  0  0  0  0  0  0  0  0  0  0  0
   35.8300   29.3870   49.4936 H   0  0  0  0  0  0  0  0  0  0  0  0
   34.2963   30.2265   49.3204 H   0  0  0  0  0  0  0  0  0  0  0  0
   34.2537   27.5245   48.1375 H   0  0  0  0  0  0  0  0  0  0  0  0
   34.6892   27.4749   49.8510 H   0  0  0  0  0  0  0  0  0  0  0  0
   30.7315   29.4087   48.1125 H   0  0  0  0  0  0  0  0  0  0  0  0
   28.3992   29.5390   47.5589 N   0  0  0  0  0  0  0  0  0  0  0  0
   28.8538   28.6484   48.3488 C   0  0  0  0  0  0  0  0  0  0  0  0
   29.5403   28.9041   49.5912 N   0  0  0  0  0  0  0  0  0  0  0  0
   28.6870   27.2332   48.0052 C   0  0  0  0  0  0  0  0  0  0  0  0
   29.5770   26.2368   48.3863 C   0  0  0  0  0  0  0  0  0  0  0  0
   29.3346   24.9315   48.0145 C   0  0  0  0  0  0  0  0  0  0  0  0
   30.0572   24.2227   48.3409 H   0  0  0  0  0  0  0  0  0  0  0  0
   28.2168   24.6121   47.2693 C   0  0  0  0  0  0  0  0  0  0  0  0
   28.0393   23.5857   46.9851 H   0  0  0  0  0  0  0  0  0  0  0  0
   27.3112   25.5881   46.8751 C   0  0  0  0  0  0  0  0  0  0  0  0
   27.5760   26.8840   47.2590 C   0  0  0  0  0  0  0  0  0  0  0  0
   28.4708   30.5483   47.7188 H   0  0  0  0  0  0  0  0  0  0  0  0
   30.5108   28.9196   49.9443 H   0  0  0  0  0  0  0  0  0  0  0  0
   28.9403   29.1497   50.4081 H   0  0  0  0  0  0  0  0  0  0  0  0
   26.4648   25.2646   46.2968 H   0  0  0  0  0  0  0  0  0  0  0  0
   26.8668   27.6603   46.9524 H   0  0  0  0  0  0  0  0  0  0  0  0
  2  7  2  0
  2  1  1  0
  3  2  1  0
  4  5  1  0
  4  3  2  0
  5  6  2  0
  6  7  1  0
  7 15  1  0
  8 13  2  0
  9  8  1  0
 10 11  1  0
 10  9  2  0
 11 12  2  0
 12  3  1  0
 12 13  1  0
 14 10  1  0
 15 16  1  0
 16 17  1  0
 18 19  2  0
 19 21  1  1
 19 17  1  0
 20 19  1  0
  4 22  1  0
  5 23  1  0
  6 24  1  0
  8 25  1  0
  9 26  1  0
 14 27  1  0
 14 28  1  0
 15 29  1  0
 15 30  1  0
 16 31  1  0
 16 32  1  0
 20 33  1  0
 34 35  2  3
 35 36  1  0
 35 37  1  0
 37 38  2  0
 38 39  1  0
 39 40  1  0
 39 41  2  0
 41 42  1  0
 41 43  1  0
 43 44  2  0
 44 37  1  0
 34 45  1  0
 36 46  1  0
 36 47  1  0
 43 48  1  0
 44 49  1  0
 21 38  1  0
M  ISO  8  22  14  23  14  24  14  25  14  26  14  29   8  30   8  31   8
M  ISO  4  32   8  33   3  40  15  42  16
M  END
>  <DihAtoms>  (1) 
18,20,37,36

>  <DihDeg>  (1) 
179.99962710374405

$$$$
