
 OpenBabel03272500043D

 34 36  0  0  0  0  0  0  0  0999 V2000
   36.1230   29.2030   49.3760 C   0  0  0  0  0  0  0  0  0  0  0  0
   35.9210   30.3640   48.5810 C   0  0  0  0  0  0  0  0  0  0  0  0
   34.7520   30.4450   47.8370 C   0  0  0  0  0  0  0  0  0  0  0  0
   33.8590   29.4120   47.9070 N   0  0  0  0  0  0  0  0  0  0  0  0
   34.0620   28.3350   48.6530 C   0  0  0  0  0  0  0  0  0  0  0  0
   35.2080   28.2180   49.4050 N   0  0  0  0  0  0  0  0  0  0  0  0
   37.0420   29.1510   49.9540 H   0  0  0  0  0  0  0  0  0  0  0  0
   34.6070   31.3240   47.2410 H   0  0  0  0  0  0  0  0  0  0  0  0
   36.9380   31.3540   48.5960 N   0  0  0  0  0  0  0  0  0  0  0  0
   37.1110   32.1980   49.6060 C   0  0  0  0  0  0  0  0  0  0  0  0
   38.1320   33.1460   49.5530 C   0  0  0  0  0  0  0  0  0  0  0  0
   38.8970   33.1180   48.4080 C   0  0  0  0  0  0  0  0  0  0  0  0
   39.8270   33.9730   48.3450 O   0  0  0  0  0  0  0  0  0  0  0  0
   38.7520   32.2870   47.3750 N   0  0  0  0  0  0  0  0  0  0  0  0
   37.7410   31.3850   47.4860 C   0  0  0  0  0  0  0  0  0  0  0  0
   37.5980   30.5820   46.4950 O   0  0  0  0  0  0  0  0  0  0  0  0
   36.4460   32.1110   50.4370 H   0  0  0  0  0  0  0  0  0  0  0  0
   38.2770   33.8290   50.3640 H   0  0  0  0  0  0  0  0  0  0  0  0
   39.3670   32.3280   46.5520 H   0  0  0  0  0  0  0  0  0  0  0  0
   33.1750   27.2830   48.7320 O   0  0  0  0  0  0  0  0  0  0  0  0
   30.9380   27.3260   47.6670 C   0  0  0  0  0  0  0  0  0  0  0  0
   32.2790   27.0280   47.7440 C   0  0  0  0  0  0  0  0  0  0  0  0
   32.8290   26.3610   46.6470 C   0  0  0  0  0  0  0  0  0  0  0  0
   33.8810   26.0570   46.5620 H   0  0  0  0  0  0  0  0  0  0  0  0
   32.0170   26.0470   45.5800 C   0  0  0  0  0  0  0  0  0  0  0  0
   32.4130   25.5330   44.7230 H   0  0  0  0  0  0  0  0  0  0  0  0
   30.6860   26.3600   45.5430 C   0  0  0  0  0  3  0  0  0  0  0  0
   30.1320   27.0090   46.5980 C   0  0  0  0  0  3  0  0  0  0  0  0
   29.2700   28.7850   48.5000 N   0  0  0  0  0  0  0  0  0  0  0  0
   30.3240   28.0400   48.7500 C   0  0  0  0  0  0  0  0  0  0  0  0
   30.2650   28.3990   50.1120 N   0  0  0  0  0  0  0  0  0  0  0  0
   28.8520   28.8900   47.5720 H   0  0  0  0  0  0  0  0  0  0  0  0
   30.7590   29.2350   50.5480 H   0  0  0  0  0  0  0  0  0  0  0  0
   29.7220   27.8720   50.8600 H   0  0  0  0  0  0  0  0  0  0  0  0
  1  6  1  0  0  0  0
  1  7  1  0  0  0  0
  2  9  1  0  0  0  0
  2  1  2  0  0  0  0
  3  4  2  0  0  0  0
  3  2  1  0  0  0  0
  4  5  1  0  0  0  0
  5 20  1  0  0  0  0
  5  6  2  0  0  0  0
  8  3  1  0  0  0  0
  9 10  1  0  0  0  0
 10 17  1  0  0  0  0
 11 10  2  0  0  0  0
 11 18  1  0  0  0  0
 12 11  1  0  0  0  0
 13 12  2  0  0  0  0
 14 15  1  0  0  0  0
 14 12  1  0  0  0  0
 15  9  1  0  0  0  0
 16 15  2  0  0  0  0
 19 14  1  0  0  0  0
 21 22  1  0  0  0  0
 21 30  1  0  0  0  0
 22 20  1  0  0  0  0
 23 22  2  0  0  0  0
 24 23  1  0  0  0  0
 25 23  1  0  0  0  0
 26 25  1  0  0  0  0
 27 25  2  0  0  0  0
 27 28  1  0  0  0  0
 28 21  2  0  0  0  0
 29 30  2  0  0  0  0
 30 31  1  0  0  0  0
 31 33  1  0  0  0  0
 31 34  1  0  0  0  0
 32 29  1  0  0  0  0
M  END
>  <minimizedAffinity>
-5.91150236

>  <minimizedRMSD>
0.441234946

$$$$
