REMARK  Name = 
REMARK  7 active torsions:
REMARK  status: ('A' for Active; 'I' for Inactive)
REMARK    1  A    between atoms: C_1  and  O_8
REMARK    2  A    between atoms: C_2  and  N_7
REMARK    3  A    between atoms: O_8  and  P_10
REMARK    4  A    between atoms: P_10  and  O_11
REMARK    5  A    between atoms: P_10  and  O_12
REMARK    6  A    between atoms: O_12  and  C_22
REMARK    7  A    between atoms: C_19  and  C_21
REMARK                            x       y       z     vdW  Elec       q    Type
REMARK                         _______ _______ _______ _____ _____    ______ ____
ROOT
ATOM      1  O   UNL     1      35.531  30.089  46.540  0.00  0.00    +0.000 OA
ATOM      2  P   UNL     1      34.381  30.075  47.523  0.00  0.00    +0.000 P 
ENDROOT
BRANCH   2   3
ATOM      3  O   UNL     1      33.994  28.509  47.986  0.00  0.00    +0.000 OA
ATOM      4  H   UNL     1      33.542  28.097  47.183  0.00  0.00    +0.000 HD
ENDBRANCH   2   3
BRANCH   2   5
ATOM      5  O   UNL     1      34.734  30.940  48.963  0.00  0.00    +0.000 OA
BRANCH   5   6
ATOM      6  C   UNL     1      35.947  30.794  49.626  0.00  0.00    +0.000 A 
ATOM      7  C   UNL     1      36.218  29.895  50.653  0.00  0.00    +0.000 A 
ATOM      8  C   UNL     1      37.503  29.895  51.197  0.00  0.00    +0.000 A 
ATOM      9  N   UNL     1      38.440  30.757  50.720  0.00  0.00    +0.000 NA
ATOM     10  C   UNL     1      38.123  31.623  49.706  0.00  0.00    +0.000 A 
ATOM     11  N   UNL     1      36.887  31.647  49.158  0.00  0.00    +0.000 NA
ATOM     12  H   UNL     1      37.663  29.183  51.987  0.00  0.00    +0.000 HD
ATOM     13  H   UNL     1      38.909  32.288  49.364  0.00  0.00    +0.000 HD
BRANCH   7  14
ATOM     14  N   UNL     1      35.137  29.082  51.019  0.00  0.00    +0.000 N 
ATOM     15  H   UNL     1      35.069  28.023  51.064  0.00  0.00    +0.000 HD
ATOM     16  H   UNL     1      34.216  29.446  51.308  0.00  0.00    +0.000 HD
ENDBRANCH   7  14
ENDBRANCH   5   6
ENDBRANCH   2   5
BRANCH   2  17
ATOM     17  O   UNL     1      33.073  30.815  46.722  0.00  0.00    +0.000 OA
BRANCH  17  19
ATOM     18  C   UNL     1      34.047  32.067  44.925  0.00  0.00    +0.000 A 
ATOM     19  C   UNL     1      33.172  31.997  46.016  0.00  0.00    +0.000 A 
ATOM     20  C   UNL     1      32.480  33.159  46.276  0.00  0.00    +0.000 A 
ATOM     21  H   UNL     1      31.801  33.153  47.099  0.00  0.00    +0.000 HD
ATOM     22  C   UNL     1      32.615  34.311  45.543  0.00  0.00    +0.000 A 
ATOM     23  H   UNL     1      32.034  35.200  45.804  0.00  0.00    +0.000 HD
ATOM     24  C   UNL     1      33.481  34.339  44.483  0.00  0.00    +0.000 A 
ATOM     25  C   UNL     1      34.197  33.208  44.179  0.00  0.00    +0.000 A 
BRANCH  18  27
ATOM     26  N   UNL     1      34.355  29.661  44.836  0.00  0.00    +0.000 NA
ATOM     27  C   UNL     1      34.809  30.867  44.600  0.00  0.00    +0.000 C 
ATOM     28  N   UNL     1      36.100  30.794  44.006  0.00  0.00    +0.000 N 
ATOM     29  H   UNL     1      34.987  28.894  44.561  0.00  0.00    +0.000 HD
ATOM     30  H   UNL     1      36.809  30.650  44.781  0.00  0.00    +0.000 HD
ATOM     31  H   UNL     1      36.549  30.838  43.067  0.00  0.00    +0.000 HD
ENDBRANCH  18  27
ENDBRANCH  17  19
ENDBRANCH   2  17
TORSDOF 7
