
     RDKit          3D

 36 38  0  0  0  0  0  0  0  0999 V2000
   37.2739   29.4425   51.1103 Br  0  0  0  0  0  0  0  0  0  0  0  0
   36.0002   29.3188   49.7156 C   0  0  0  0  0  0  0  0  0  0  0  0
   36.0338   30.1891   48.6653 C   0  0  0  0  0  0  0  0  0  0  0  0
   35.0608   30.0361   47.6746 C   0  0  0  0  0  0  0  0  0  0  0  0
   34.0795   29.0696   47.6937 C   0  0  0  0  0  0  0  0  0  0  0  0
   34.0958   28.2081   48.7935 C   0  0  0  0  0  0  0  0  0  0  0  0
   35.0610   28.3458   49.7939 C   0  0  0  0  0  0  0  0  0  0  0  0
   37.8638   33.2357   49.4511 C   0  0  0  0  0  0  0  0  0  0  0  0
   38.9073   33.2741   48.4770 C   0  0  0  0  0  0  0  0  0  0  0  0
   38.9422   32.2316   47.5739 C   0  0  0  0  0  0  0  0  0  0  0  0
   38.0105   31.2440   47.6479 N   0  0  0  0  0  0  0  0  0  0  0  0
   37.0430   31.2398   48.5763 C   0  0  0  0  0  0  0  0  0  0  0  0
   36.9536   32.2481   49.5039 N   0  0  0  0  0  0  0  0  0  0  0  0
   39.7596   34.3404   48.5368 O   0  0  0  0  0  0  0  0  0  0  0  0
   35.0779   30.7258   46.8309 H   0  0  0  0  0  0  0  0  0  0  0  0
   33.3735   29.0224   46.8946 H   0  0  0  0  0  0  0  0  0  0  0  0
   33.3351   27.4362   48.8365 H   0  0  0  0  0  0  0  0  0  0  0  0
   34.9668   27.6107   50.6011 H   0  0  0  0  0  0  0  0  0  0  0  0
   37.7639   34.0231   50.2048 H   0  0  0  0  0  0  0  0  0  0  0  0
   39.7086   32.2523   46.8400 H   0  0  0  0  0  0  0  0  0  0  0  0
   40.0763   34.8343   52.6849 N   0  0  0  0  0  0  0  0  0  0  0  0
   39.9538   35.1865   51.4391 C   0  0  0  0  0  0  0  0  0  0  0  0
   38.6524   35.6103   51.6633 N   0  0  0  0  0  0  0  0  0  0  0  0
   41.1000   34.9854   50.5865 C   0  0  0  0  0  0  0  0  0  0  0  0
   40.8216   34.6079   49.3038 C   0  0  0  0  0  0  0  0  0  0  0  0
   41.9649   34.4338   48.5070 C   0  0  0  0  0  0  0  0  0  0  0  0
   42.0654   34.1378   47.4499 H   0  0  0  0  0  0  0  0  0  0  0  0
   43.2518   34.6395   49.0222 C   0  0  0  0  0  0  0  0  0  0  0  0
   44.1838   34.5306   48.4876 H   0  0  0  0  0  0  0  0  0  0  0  0
   43.4414   35.0204   50.3319 C   0  0  0  0  0  0  0  0  0  0  0  0
   42.3407   35.1983   51.1353 C   0  0  0  0  0  0  0  0  0  0  0  0
   40.9510   34.4195   53.0614 H   0  0  0  0  0  0  0  0  0  0  0  0
   38.3692   36.6122   51.8695 H   0  0  0  0  0  0  0  0  0  0  0  0
   37.7581   35.1157   51.6808 H   0  0  0  0  0  0  0  0  0  0  0  0
   44.4103   35.1922   50.7800 H   0  0  0  0  0  0  0  0  0  0  0  0
   42.4248   35.4954   52.1645 H   0  0  0  0  0  0  0  0  0  0  0  0
  2  7  2  0
  2  1  1  0
  3  2  1  0
  4  5  1  0
  4  3  2  0
  5  6  2  0
  6  7  1  0
  8 13  2  0
  9 14  1  0
  9  8  1  0
 10 11  1  0
 10  9  2  0
 11 12  2  0
 12  3  1  0
 12 13  1  0
  4 15  1  0
  5 16  1  0
  6 17  1  0
  7 18  1  0
  8 19  1  0
 10 20  1  0
 21 22  2  3
 22 23  1  0
 22 24  1  0
 24 25  2  0
 25 26  1  0
 26 27  1  0
 26 28  2  0
 28 29  1  0
 28 30  1  0
 30 31  2  0
 31 24  1  0
 21 32  1  0
 23 33  1  0
 23 34  1  0
 30 35  1  0
 31 36  1  0
 14 25  1  0
M  ISO  8  15  14  16  14  17  14  18  14  19  14  20  14  27  15  29  16
M  END
>  <DihAtoms>  (1) 
8,13,24,23

>  <DihDeg>  (1) 
60.351524560218415

$$$$
