
 OpenBabel03272501443D

 39 40  0  0  0  0  0  0  0  0999 V2000
   35.5490   29.1400   49.0290 C   0  0  0  0  0  0  0  0  0  0  0  0
   35.5210   30.0380   47.9180 C   0  0  0  0  0  0  0  0  0  0  0  0
   34.4200   29.9860   47.0760 C   0  0  0  0  0  0  0  0  0  0  0  0
   33.4380   29.0960   47.3470 N   0  0  0  0  0  0  0  0  0  0  0  0
   33.4800   28.2590   48.3950 C   0  0  0  0  0  0  0  0  0  0  0  0
   34.5370   28.2880   49.2280 N   0  0  0  0  0  0  0  0  0  0  0  0
   36.3160   29.0340   49.7830 H   0  0  0  0  0  0  0  0  0  0  0  0
   34.4200   30.6620   46.2570 H   0  0  0  0  0  0  0  0  0  0  0  0
   37.1880   31.4340   48.9890 C   0  0  0  0  0  0  0  0  0  0  0  0
   36.6630   30.9140   47.8130 C   0  0  0  0  0  0  0  0  0  0  0  0
   37.2790   31.2890   46.6420 C   0  0  0  0  0  0  0  0  0  0  0  0
   38.3710   32.1440   46.6440 C   0  0  0  0  0  0  0  0  0  0  0  0
   39.1500   32.6690   45.6960 N   0  0  0  0  0  0  0  0  0  0  0  0
   40.0780   33.4470   46.2370 C   0  0  0  0  0  0  0  0  0  0  0  0
   39.9200   33.4450   47.5820 N   0  0  0  0  0  0  0  0  0  0  0  0
   38.8710   32.6440   47.8320 C   0  0  0  0  0  0  0  0  0  0  0  0
   38.2730   32.2850   49.0130 C   0  0  0  0  0  0  0  0  0  0  0  0
   36.8150   31.2400   50.0030 H   0  0  0  0  0  0  0  0  0  0  0  0
   36.8810   30.8910   45.7090 H   0  0  0  0  0  0  0  0  0  0  0  0
   38.9760   32.4390   44.6790 H   0  0  0  0  0  0  0  0  0  0  0  0
   40.7960   33.9520   45.5880 H   0  0  0  0  0  0  0  0  0  0  0  0
   38.6990   32.7020   49.9320 H   0  0  0  0  0  0  0  0  0  0  0  0
   32.3660   27.2900   48.6560 C   0  0  0  0  0  0  0  0  0  0  0  0
   32.5020   26.8390   49.6850 H   0  0  0  0  0  0  0  0  0  0  0  0
   31.4200   27.8480   48.7400 H   0  0  0  0  0  0  0  0  0  0  0  0
   31.2600   25.9260   46.8750 C   0  0  0  0  0  0  0  0  0  0  0  0
   32.3610   26.2460   47.6290 C   0  0  0  0  0  0  0  0  0  0  0  0
   33.5270   25.5590   47.3930 C   0  0  0  0  0  0  0  0  0  0  0  0
   34.4250   25.7830   47.9710 H   0  0  0  0  0  0  0  0  0  0  0  0
   33.5190   24.5970   46.4200 C   0  0  0  0  0  0  0  0  0  0  0  0
   34.4090   24.0280   46.1960 H   0  0  0  0  0  0  0  0  0  0  0  0
   32.4200   24.2690   45.6580 C   0  0  0  0  0  3  0  0  0  0  0  0
   31.2450   24.9470   45.8810 C   0  0  0  0  0  3  0  0  0  0  0  0
   28.8800   26.7320   47.6970 N   0  0  0  0  0  0  0  0  0  0  0  0
   29.9930   26.5860   47.0830 C   0  0  0  0  0  3  0  0  0  0  0  0
   29.6580   27.6860   46.2540 N   0  0  0  0  0  1  0  0  0  0  0  0
   28.5930   26.1180   48.4800 H   0  0  0  0  0  0  0  0  0  0  0  0
   30.1460   28.2950   45.5660 H   0  0  0  0  0 15  0  0  0  0  0  0
   29.4090   28.4800   45.6580 H   0  0  0  0  0  0  0  0  0  0  0  0
  1  6  1  0  0  0  0
  1  7  1  0  0  0  0
  2  1  2  0  0  0  0
  3  4  2  0  0  0  0
  3  2  1  0  0  0  0
  4  5  1  0  0  0  0
  5 23  1  0  0  0  0
  5  6  2  0  0  0  0
  8  3  1  0  0  0  0
  9 17  1  0  0  0  0
  9 18  1  0  0  0  0
 10  2  1  0  0  0  0
 10  9  2  0  0  0  0
 11 12  2  0  0  0  0
 11 10  1  0  0  0  0
 12 16  1  0  0  0  0
 13 14  1  0  0  0  0
 13 12  1  0  0  0  0
 14 15  2  0  0  0  0
 15 16  1  0  0  0  0
 16 17  2  0  0  0  0
 17 22  1  0  0  0  0
 19 11  1  0  0  0  0
 20 13  1  0  0  0  0
 21 14  1  0  0  0  0
 23 25  1  0  0  0  0
 23 24  1  0  0  0  0
 26 35  1  0  0  0  0
 26 27  1  0  0  0  0
 27 23  1  0  0  0  0
 28 27  2  0  0  0  0
 28 29  1  0  0  0  0
 30 28  1  0  0  0  0
 31 30  1  0  0  0  0
 32 33  1  0  0  0  0
 32 30  2  0  0  0  0
 33 26  2  0  0  0  0
 34 37  1  0  0  0  0
 35 34  2  0  0  0  0
 39 36  1  0  0  0  0
M  END
>  <minimizedAffinity>
-5.62147379

>  <minimizedRMSD>
1.63436735

$$$$
