
     RDKit          3D

 40 42  0  0  0  0  0  0  0  0999 V2000
   36.9993   31.5572   48.6740 C   0  0  1  0  0  0  0  0  0  0  0  0
   36.2260   30.9136   47.6412 C   0  0  0  0  0  0  0  0  0  0  0  0
   37.1809   30.1196   48.4728 C   0  0  2  0  0  0  0  0  0  0  0  0
   38.1550   32.4493   48.3278 C   0  0  0  0  0  0  0  0  0  0  0  0
   38.5416   33.3749   49.3292 C   0  0  0  0  0  0  0  0  0  0  0  0
   39.5974   34.1787   48.9882 C   0  0  0  0  0  0  0  0  0  0  0  0
   40.1952   34.0530   47.7582 N   0  0  0  0  0  0  0  0  0  0  0  0
   39.7891   33.1565   46.8408 C   0  0  0  0  0  0  0  0  0  0  0  0
   38.7364   32.3349   47.1455 N   0  0  0  0  0  0  0  0  0  0  0  0
   40.3914   33.0284   45.5749 N   0  0  0  0  0  0  0  0  0  0  0  0
   36.5878   29.3073   49.4499 O   0  0  0  0  0  0  0  0  0  0  0  0
   34.6068   27.6729   49.6894 O   0  0  0  0  0  0  0  0  0  0  0  0
   35.0095   28.9589   49.0452 P   0  0  1  0  0  0  0  0  0  0  0  0
   33.9635   30.1571   49.7149 O   0  0  0  0  0  0  0  0  0  0  0  0
   34.8731   28.9447   47.3621 O   0  0  0  0  0  0  0  0  0  0  0  0
   36.5498   31.8305   49.6928 H   0  0  0  0  0  0  0  0  0  0  0  0
   35.1969   31.1684   47.7976 H   0  0  0  0  0  0  0  0  0  0  0  0
   36.5392   31.1009   46.5933 H   0  0  0  0  0  0  0  0  0  0  0  0
   37.8783   29.5975   47.8491 H   0  0  0  0  0  0  0  0  0  0  0  0
   38.0712   33.4736   50.2962 H   0  0  0  0  0  0  0  0  0  0  0  0
   39.9376   34.9071   49.7161 H   0  0  0  0  0  0  0  0  0  0  0  0
   40.9799   32.2876   45.1404 H   0  0  0  0  0  0  0  0  0  0  0  0
   40.0869   33.9286   45.1260 H   0  0  0  0  0  0  0  0  0  0  0  0
   33.8105   29.9361   50.6770 H   0  0  0  0  0  0  0  0  0  0  0  0
   34.9786   31.1758   44.0940 N   0  0  0  0  0  0  0  0  0  0  0  0
   34.8816   30.1710   44.8990 C   0  0  0  0  0  0  0  0  0  0  0  0
   36.1073   29.5976   45.2579 N   0  0  0  0  0  0  0  0  0  0  0  0
   33.6803   29.5769   45.4645 C   0  0  0  0  0  0  0  0  0  0  0  0
   33.6467   28.9498   46.7090 C   0  0  0  0  0  0  0  0  0  0  0  0
   32.4680   28.4077   47.1818 C   0  0  0  0  0  0  0  0  0  0  0  0
   32.5230   27.9401   48.1515 H   0  0  0  0  0  0  0  0  0  0  0  0
   31.3152   28.4842   46.4238 C   0  0  0  0  0  0  0  0  0  0  0  0
   30.3991   28.0460   46.8254 H   0  0  0  0  0  0  0  0  0  0  0  0
   31.3626   29.1105   45.1884 C   0  0  0  0  0  0  0  0  0  0  0  0
   32.5246   29.6489   44.7140 C   0  0  0  0  0  0  0  0  0  0  0  0
   34.1533   31.7136   43.7318 H   0  0  0  0  0  0  0  0  0  0  0  0
   37.0171   29.1805   45.5280 H   0  0  0  0  0  0  0  0  0  0  0  0
   36.1392   28.6418   44.8705 H   0  0  0  0  0  0  0  0  0  0  0  0
   30.4483   29.1677   44.5939 H   0  0  0  0  0  0  0  0  0  0  0  0
   32.5419   30.1353   43.7444 H   0  0  0  0  0  0  0  0  0  0  0  0
  2  3  1  0
  2  1  1  0
  3  1  1  0
  3 11  1  0
  4  1  1  0
  4  5  2  0
  6  5  1  0
  7  6  2  0
  8  9  2  0
  8  7  1  0
  9  4  1  0
 10  8  1  0
 13 11  1  6
 13 12  2  0
 13 14  1  0
 15 13  1  0
  1 16  1  1
  2 17  1  0
  2 18  1  0
  3 19  1  6
  5 20  1  0
  6 21  1  0
 10 22  1  0
 10 23  1  0
 14 24  1  0
 25 26  2  3
 26 27  1  0
 26 28  1  0
 28 29  2  0
 29 30  1  0
 30 31  1  0
 30 32  2  0
 32 33  1  0
 32 34  1  0
 34 35  2  0
 35 28  1  0
 25 36  1  0
 27 37  1  0
 27 38  1  0
 34 39  1  0
 35 40  1  0
 15 29  1  0
M  ISO  8  16  13  17  13  18  13  19  13  20  14  21  14  24   3  31  15
M  ISO  1  33  16
M  END
>  <DihAtoms>  (1) 
12,14,28,27

>  <DihDeg>  (1) 
-179.99998419471476

$$$$
