REMARK  Name = 
REMARK  3 active torsions:
REMARK  status: ('A' for Active; 'I' for Inactive)
REMARK    1  A    between atoms: C_2  and  C_8
REMARK    2  A    between atoms: C_3  and  C_19
REMARK    3  A    between atoms: C_16  and  C_18
REMARK                            x       y       z     vdW  Elec       q    Type
REMARK                         _______ _______ _______ _____ _____    ______ ____
ROOT
ATOM      1  C   UNL     1      35.619  29.014  50.184  0.00  0.00    +0.000 A 
ATOM      2  C   UNL     1      36.279  30.158  49.654  0.00  0.00    +0.000 A 
ATOM      3  C   UNL     1      36.037  30.513  48.338  0.00  0.00    +0.000 A 
ATOM      4  N   UNL     1      35.178  29.755  47.605  0.00  0.00    +0.000 NA
ATOM      5  C   UNL     1      34.557  28.664  48.136  0.00  0.00    +0.000 A 
ATOM      6  N   UNL     1      34.768  28.289  49.408  0.00  0.00    +0.000 NA
ATOM      7  N   UNL     1      33.676  28.017  47.232  0.00  0.00    +0.000 N 
ATOM      8  H   UNL     1      35.803  28.733  51.214  0.00  0.00    +0.000 HD
ATOM      9  H   UNL     1      32.721  28.012  47.676  0.00  0.00    +0.000 HD
ATOM     10  H   UNL     1      33.808  27.599  46.312  0.00  0.00    +0.000 HD
ENDROOT
BRANCH   3  12
ATOM     11  C   UNL     1      37.887  32.251  47.727  0.00  0.00    +0.000 A 
ATOM     12  C   UNL     1      36.657  31.639  47.658  0.00  0.00    +0.000 A 
ATOM     13  C   UNL     1      35.786  32.089  46.651  0.00  0.00    +0.000 A 
ATOM     14  H   UNL     1      34.774  31.774  46.335  0.00  0.00    +0.000 HD
ATOM     15  C   UNL     1      36.147  33.093  45.782  0.00  0.00    +0.000 A 
ATOM     16  H   UNL     1      35.579  33.534  44.972  0.00  0.00    +0.000 HD
ATOM     17  C   UNL     1      37.398  33.703  45.863  0.00  0.00    +0.000 A 
ATOM     18  C   UNL     1      38.259  33.248  46.867  0.00  0.00    +0.000 A 
BRANCH  11  20
ATOM     19  N   UNL     1      38.386  32.564  49.743  0.00  0.00    +0.000 NA
ATOM     20  C   UNL     1      38.721  31.721  48.796  0.00  0.00    +0.000 C 
ATOM     21  N   UNL     1      39.658  30.668  48.980  0.00  0.00    +0.000 N 
ATOM     22  H   UNL     1      38.849  32.423  50.665  0.00  0.00    +0.000 HD
ATOM     23  H   UNL     1      40.362  30.909  49.730  0.00  0.00    +0.000 HD
ATOM     24  H   UNL     1      39.578  29.800  48.396  0.00  0.00    +0.000 HD
ENDBRANCH  11  20
ENDBRANCH   3  12
BRANCH   2  25
ATOM     25  C   UNL     1      37.218  30.898  50.538  0.00  0.00    +0.000 C 
ATOM     26  F   UNL     1      38.535  30.804  50.103  0.00  0.00    +0.000 F 
ATOM     27  F   UNL     1      36.868  32.216  50.501  0.00  0.00    +0.000 F 
ATOM     28  F   UNL     1      37.178  30.466  51.847  0.00  0.00    +0.000 F 
ENDBRANCH   2  25
TORSDOF 3
