REMARK  Name = 
REMARK  3 active torsions:
REMARK  status: ('A' for Active; 'I' for Inactive)
REMARK    1  A    between atoms: C_2  and  C_8
REMARK    2  A    between atoms: C_3  and  C_19
REMARK    3  A    between atoms: C_16  and  C_18
REMARK                            x       y       z     vdW  Elec       q    Type
REMARK                         _______ _______ _______ _____ _____    ______ ____
ROOT
ATOM      1  C   UNL     1      35.619  29.014  50.184  0.00  0.00    +0.000 A 
ATOM      2  C   UNL     1      36.279  30.158  49.654  0.00  0.00    +0.000 A 
ATOM      3  C   UNL     1      36.037  30.513  48.338  0.00  0.00    +0.000 A 
ATOM      4  N   UNL     1      35.178  29.755  47.605  0.00  0.00    +0.000 NA
ATOM      5  C   UNL     1      34.557  28.664  48.136  0.00  0.00    +0.000 A 
ATOM      6  N   UNL     1      34.768  28.289  49.408  0.00  0.00    +0.000 NA
ATOM      7  N   UNL     1      33.676  28.017  47.232  0.00  0.00    +0.000 N 
ATOM      8  H   UNL     1      35.803  28.733  51.214  0.00  0.00    +0.000 HD
ATOM      9  H   UNL     1      32.721  28.012  47.676  0.00  0.00    +0.000 HD
ATOM     10  H   UNL     1      33.808  27.599  46.312  0.00  0.00    +0.000 HD
ENDROOT
BRANCH   3  12
ATOM     11  C   UNL     1      36.366  32.363  46.525  0.00  0.00    +0.000 A 
ATOM     12  C   UNL     1      36.657  31.639  47.658  0.00  0.00    +0.000 A 
ATOM     13  C   UNL     1      37.726  32.103  48.443  0.00  0.00    +0.000 A 
ATOM     14  H   UNL     1      38.160  31.761  49.401  0.00  0.00    +0.000 HD
ATOM     15  C   UNL     1      38.445  33.223  48.091  0.00  0.00    +0.000 A 
ATOM     16  H   UNL     1      39.285  33.683  48.597  0.00  0.00    +0.000 HD
ATOM     17  C   UNL     1      38.137  33.947  46.940  0.00  0.00    +0.000 A 
ATOM     18  C   UNL     1      37.071  33.479  46.166  0.00  0.00    +0.000 A 
BRANCH  11  20
ATOM     19  N   UNL     1      35.917  31.035  44.960  0.00  0.00    +0.000 NA
ATOM     20  C   UNL     1      35.245  31.811  45.776  0.00  0.00    +0.000 C 
ATOM     21  N   UNL     1      33.829  31.930  45.756  0.00  0.00    +0.000 N 
ATOM     22  H   UNL     1      35.351  30.492  44.276  0.00  0.00    +0.000 HD
ATOM     23  H   UNL     1      33.443  31.736  44.792  0.00  0.00    +0.000 HD
ATOM     24  H   UNL     1      33.321  32.182  46.638  0.00  0.00    +0.000 HD
ENDBRANCH  11  20
ENDBRANCH   3  12
BRANCH   2  25
ATOM     25  C   UNL     1      37.218  30.898  50.538  0.00  0.00    +0.000 C 
ATOM     26  F   UNL     1      38.535  30.804  50.103  0.00  0.00    +0.000 F 
ATOM     27  F   UNL     1      36.868  32.216  50.501  0.00  0.00    +0.000 F 
ATOM     28  F   UNL     1      37.178  30.466  51.847  0.00  0.00    +0.000 F 
ENDBRANCH   2  25
TORSDOF 3
