REMARK  Name = 
REMARK  4 active torsions:
REMARK  status: ('A' for Active; 'I' for Inactive)
REMARK    1  A    between atoms: C_2  and  C_11
REMARK    2  A    between atoms: C_14  and  C_16
REMARK    3  A    between atoms: C_16  and  C_30
REMARK    4  A    between atoms: C_27  and  C_29
REMARK                            x       y       z     vdW  Elec       q    Type
REMARK                         _______ _______ _______ _____ _____    ______ ____
ROOT
ATOM      1  C   UNL     1      35.614  29.336  48.754  0.00  0.00    +0.000 A 
ATOM      2  C   UNL     1      35.597  30.053  47.518  0.00  0.00    +0.000 A 
ATOM      3  C   UNL     1      34.481  29.912  46.707  0.00  0.00    +0.000 A 
ATOM      4  N   UNL     1      33.474  29.109  47.123  0.00  0.00    +0.000 NA
ATOM      5  C   UNL     1      33.506  28.442  48.287  0.00  0.00    +0.000 A 
ATOM      6  N   UNL     1      34.577  28.561  49.094  0.00  0.00    +0.000 NA
ATOM      7  H   UNL     1      36.389  29.319  49.506  0.00  0.00    +0.000 HD
ATOM      8  H   UNL     1      34.490  30.453  45.794  0.00  0.00    +0.000 HD
ENDROOT
BRANCH   2  10
ATOM      9  C   UNL     1      37.478  31.327  48.364  0.00  0.00    +0.000 A 
ATOM     10  C   UNL     1      36.766  30.861  47.266  0.00  0.00    +0.000 A 
ATOM     11  C   UNL     1      37.239  31.219  46.026  0.00  0.00    +0.000 A 
ATOM     12  C   UNL     1      38.372  32.007  45.886  0.00  0.00    +0.000 A 
ATOM     13  N   UNL     1      39.045  32.502  44.846  0.00  0.00    +0.000 N 
ATOM     14  C   UNL     1      40.084  33.213  45.262  0.00  0.00    +0.000 A 
ATOM     15  N   UNL     1      40.111  33.196  46.616  0.00  0.00    +0.000 NA
ATOM     16  C   UNL     1      39.059  32.455  47.000  0.00  0.00    +0.000 A 
ATOM     17  C   UNL     1      38.606  32.111  48.248  0.00  0.00    +0.000 A 
ATOM     18  H   UNL     1      37.235  31.137  49.418  0.00  0.00    +0.000 HD
ATOM     19  H   UNL     1      36.694  30.863  45.152  0.00  0.00    +0.000 HD
ATOM     20  H   UNL     1      38.720  32.302  43.860  0.00  0.00    +0.000 HD
ATOM     21  H   UNL     1      40.737  33.686  44.526  0.00  0.00    +0.000 HD
ATOM     22  H   UNL     1      39.178  32.485  49.104  0.00  0.00    +0.000 HD
ENDBRANCH   2  10
BRANCH   5  23
ATOM     23  C   UNL     1      32.365  27.565  48.707  0.00  0.00    +0.000 C 
ATOM     24  H   UNL     1      32.276  27.589  49.835  0.00  0.00    +0.000 HD
ATOM     25  H   UNL     1      31.421  28.018  48.363  0.00  0.00    +0.000 HD
BRANCH  23  27
ATOM     26  C   UNL     1      32.964  25.889  46.950  0.00  0.00    +0.000 A 
ATOM     27  C   UNL     1      32.585  26.198  48.233  0.00  0.00    +0.000 A 
ATOM     28  C   UNL     1      32.421  25.165  49.123  0.00  0.00    +0.000 A 
ATOM     29  H   UNL     1      32.120  25.367  50.153  0.00  0.00    +0.000 HD
ATOM     30  C   UNL     1      32.645  23.891  48.677  0.00  0.00    +0.000 A 
ATOM     31  H   UNL     1      32.529  23.044  49.338  0.00  0.00    +0.000 HD
ATOM     32  C   UNL     1      33.026  23.571  47.394  0.00  0.00    +0.000 A 
ATOM     33  C   UNL     1      33.194  24.593  46.489  0.00  0.00    +0.000 A 
BRANCH  26  35
ATOM     34  N   UNL     1      32.780  28.007  45.378  0.00  0.00    +0.000 NA
ATOM     35  C   UNL     1      33.129  26.918  45.951  0.00  0.00    +0.000 C 
ATOM     36  N   UNL     1      34.224  26.820  45.055  0.00  0.00    +0.000 N 
ATOM     37  H   UNL     1      31.951  28.549  45.676  0.00  0.00    +0.000 HD
ATOM     38  H   UNL     1      35.092  26.252  44.974  0.00  0.00    +0.000 HD
ATOM     39  H   UNL     1      35.011  26.755  44.404  0.00  0.00    +0.000 HD
ENDBRANCH  26  35
ENDBRANCH  23  27
ENDBRANCH   5  23
TORSDOF 4
