
     RDKit          3D

 41 43  0  0  0  0  0  0  0  0999 V2000
   36.4620   29.8945   48.6832 N   0  0  0  0  0  0  0  0  0  0  0  0
   37.5899   30.6598   48.2283 C   0  0  0  0  0  0  0  0  0  0  0  0
   38.1026   31.2855   49.5133 C   0  0  2  0  0  0  0  0  0  0  0  0
   37.1167   30.8976   50.5954 C   0  0  0  0  0  0  0  0  0  0  0  0
   36.7251   29.5327   50.0557 C   0  0  0  0  0  0  0  0  0  0  0  0
   35.2812   29.5438   47.9265 C   0  0  0  0  0  0  0  0  0  0  0  0
   35.2383   30.0096   46.6092 C   0  0  0  0  0  0  0  0  0  0  0  0
   34.0974   29.6710   45.8774 C   0  0  0  0  0  0  0  0  0  0  0  0
   33.1322   28.9199   46.5107 N   0  0  0  0  0  0  0  0  0  0  0  0
   33.2178   28.4964   47.7758 C   0  0  0  0  0  0  0  0  0  0  0  0
   34.3111   28.8179   48.4848 N   0  0  0  0  0  0  0  0  0  0  0  0
   31.9271   27.5371   48.5012 S   0  0  0  0  0  0  0  0  0  0  0  0
   38.2659   32.7726   49.4016 C   0  0  0  0  0  0  0  0  0  0  0  0
   37.1009   33.3382   49.8958 F   0  0  0  0  0  0  0  0  0  0  0  0
   38.3102   33.0808   48.0557 F   0  0  0  0  0  0  0  0  0  0  0  0
   39.3707   33.2566   50.0293 F   0  0  0  0  0  0  0  0  0  0  0  0
   37.2576   31.4836   47.5460 H   0  0  0  0  0  0  0  0  0  0  0  0
   38.3645   30.0123   47.7429 H   0  0  0  0  0  0  0  0  0  0  0  0
   39.0858   30.8404   49.7266 H   0  0  0  0  0  0  0  0  0  0  0  0
   37.5948   30.7411   51.5792 H   0  0  0  0  0  0  0  0  0  0  0  0
   36.2373   31.5533   50.6400 H   0  0  0  0  0  0  0  0  0  0  0  0
   35.7662   29.2523   50.5363 H   0  0  0  0  0  0  0  0  0  0  0  0
   37.5217   28.7959   50.1881 H   0  0  0  0  0  0  0  0  0  0  0  0
   36.0150   30.5952   46.1498 H   0  0  0  0  0  0  0  0  0  0  0  0
   33.9647   29.9817   44.8483 H   0  0  0  0  0  0  0  0  0  0  0  0
   29.3782   25.4159   46.0107 N   0  0  0  0  0  0  0  0  0  0  0  0
   30.0608   25.7290   47.0707 C   0  0  0  0  0  0  0  0  0  0  0  0
   29.5715   26.8522   47.7568 N   0  0  0  0  0  0  0  0  0  0  0  0
   31.2428   25.0185   47.5625 C   0  0  0  0  0  0  0  0  0  0  0  0
   32.1810   25.7760   48.2479 C   0  0  0  0  0  0  0  0  0  0  0  0
   33.3410   25.2439   48.7674 C   0  0  0  0  0  0  0  0  0  0  0  0
   34.0839   25.8102   49.3027 H   0  0  0  0  0  0  0  0  0  0  0  0
   33.5224   23.8766   48.5619 C   0  0  0  0  0  0  0  0  0  0  0  0
   34.4106   23.3970   48.9437 H   0  0  0  0  0  0  0  0  0  0  0  0
   32.6164   23.0908   47.8880 C   0  0  0  0  0  0  0  0  0  0  0  0
   31.4708   23.6741   47.3878 C   0  0  0  0  0  0  0  0  0  0  0  0
   29.6912   24.5822   45.4482 H   0  0  0  0  0  0  0  0  0  0  0  0
   29.3497   27.7071   48.2768 H   0  0  0  0  0  0  0  0  0  0  0  0
   28.5630   27.0849   47.9122 H   0  0  0  0  0  0  0  0  0  0  0  0
   32.7210   22.0413   47.7113 H   0  0  0  0  0  0  0  0  0  0  0  0
   30.6603   23.1981   46.8357 H   0  0  0  0  0  0  0  0  0  0  0  0
  1  5  1  0
  2  1  1  0
  2  3  1  0
  3  4  1  0
  5  4  1  0
  6 11  1  0
  6  1  1  0
  7  6  2  0
  8  9  2  0
  8  7  1  0
  9 10  1  0
 10 11  2  0
 10 12  1  0
 13  3  1  0
 13 14  1  0
 13 16  1  0
 15 13  1  0
  2 17  1  0
  2 18  1  0
  3 19  1  1
  4 20  1  0
  4 21  1  0
  5 22  1  0
  5 23  1  0
  7 24  1  0
  8 25  1  0
 26 27  2  3
 27 28  1  0
 27 29  1  0
 29 30  2  0
 30 31  1  0
 31 32  1  0
 31 33  2  0
 33 34  1  0
 33 35  1  0
 35 36  2  0
 36 29  1  0
 26 37  1  0
 28 38  1  0
 28 39  1  0
 35 40  1  0
 36 41  1  0
 12 30  1  0
M  ISO  8  17  13  18  13  19  13  20  13  21  13  22  13  23  13  24  14
M  ISO  3  25  14  32  15  34  16
M  END
>  <DihAtoms>  (1) 
9,11,29,28

>  <DihDeg>  (1) 
-89.9973704673688

$$$$
