
 OpenBabel03272503303D

 39 41  0  0  1  0  0  0  0  0999 V2000
   35.2540   29.5210   48.0080 C   0  0  0  0  0  0  0  0  0  0  0  0
   35.1610   29.9560   46.6830 C   0  0  0  0  0  0  0  0  0  0  0  0
   33.9880   29.6110   46.0070 C   0  0  0  0  0  0  0  0  0  0  0  0
   33.0430   28.8850   46.6980 N   0  0  0  0  0  0  0  0  0  0  0  0
   33.1780   28.4910   47.9680 C   0  0  0  0  0  0  0  0  0  0  0  0
   34.3020   28.8190   48.6240 N   0  0  0  0  0  0  0  0  0  0  0  0
   35.9240   30.5220   46.1790 H   0  0  0  0  0  0  0  0  0  0  0  0
   33.8170   29.8990   44.9770 H   0  0  0  0  0  0  0  0  0  0  0  0
   36.4680   29.8790   48.7070 N   0  0  0  0  0  0  0  0  0  0  0  0
   37.5580   30.6710   48.2080 C   0  0  0  0  0  0  0  0  0  0  0  0
   38.1290   31.2810   49.4750 C   0  0  2  0  0  0  0  0  0  0  0  0
   37.2090   30.8580   50.6010 C   0  0  0  0  0  0  0  0  0  0  0  0
   36.8110   29.4960   50.0570 C   0  0  0  0  0  0  0  0  0  0  0  0
   37.1760   31.5020   47.5600 H   0  0  0  0  0  0  0  0  0  0  0  0
   38.3150   30.0450   47.6700 H   0  0  0  0  0  0  0  0  0  0  0  0
   39.1290   30.8490   49.6280 H   0  0  0  0  0  0  0  0  0  0  0  0
   37.7420   30.6910   51.5540 H   0  0  0  0  0  0  0  0  0  0  0  0
   36.3220   31.4970   50.7050 H   0  0  0  0  0  0  0  0  0  0  0  0
   35.8830   29.1900   50.5820 H   0  0  0  0  0  0  0  0  0  0  0  0
   37.6250   28.7710   50.1320 H   0  0  0  0  0  0  0  0  0  0  0  0
   38.2620   32.7740   49.3840 C   0  0  0  0  0  0  0  0  0  0  0  0
   37.0880   33.3080   49.8900 F   0  0  0  0  0  0  0  0  0  0  0  0
   38.2940   33.1010   48.0420 F   0  0  0  0  0  0  0  0  0  0  0  0
   39.3600   33.2710   50.0130 F   0  0  0  0  0  0  0  0  0  0  0  0
   31.9090   27.5620   48.7680 S   0  0  0  0  0  0  0  0  0  0  0  0
   29.6770   26.9110   47.2550 C   0  0  0  0  0  0  0  0  0  0  0  0
   30.9750   26.5640   47.6010 C   0  0  0  0  0  0  0  0  0  0  0  0
   31.6200   25.4600   47.0870 C   0  0  0  0  0  0  0  0  0  0  0  0
   32.6250   25.1700   47.3390 H   0  0  0  0  0  0  0  0  0  0  0  0
   30.8810   24.6970   46.1840 C   0  0  0  0  0  0  0  0  0  0  0  0
   31.3270   23.8190   45.7440 H   0  0  0  0  0  0  0  0  0  0  0  0
   29.5920   25.0070   45.8140 C   0  0  0  0  0  3  0  0  0  0  0  0
   28.9940   26.1250   46.3590 C   0  0  0  0  0  3  0  0  0  0  0  0
   29.2780   29.3280   47.4510 N   0  0  0  0  0  0  0  0  0  0  0  0
   29.1310   28.1130   47.8870 C   0  0  0  0  0  0  0  0  0  0  0  0
   28.3750   28.0150   49.0670 N   0  0  0  0  0  0  0  0  0  0  0  0
   29.8340   29.4750   46.5680 H   0  0  0  0  0  0  0  0  0  0  0  0
   27.9170   27.8440   49.9670 H   0  0  0  0  0  0  0  0  0  0  0  0
   27.5190   28.5710   49.2940 H   0  0  0  0  0  0  0  0  0  0  0  0
  1  6  1  0  0  0  0
  1  9  1  0  0  0  0
  2  1  2  0  0  0  0
  3  2  1  0  0  0  0
  3  4  2  0  0  0  0
  4  5  1  0  0  0  0
  5  6  2  0  0  0  0
  5 25  1  0  0  0  0
  7  2  1  0  0  0  0
  8  3  1  0  0  0  0
  9 13  1  0  0  0  0
 10  9  1  0  0  0  0
 10 11  1  0  0  0  0
 11 16  1  1  0  0  0
 11 12  1  0  0  0  0
 12 18  1  0  0  0  0
 12 17  1  0  0  0  0
 13 20  1  0  0  0  0
 13 19  1  0  0  0  0
 13 12  1  0  0  0  0
 14 10  1  0  0  0  0
 15 10  1  0  0  0  0
 21 11  1  0  0  0  0
 21 22  1  0  0  0  0
 21 24  1  0  0  0  0
 23 21  1  0  0  0  0
 26 27  1  0  0  0  0
 26 35  1  0  0  0  0
 27 25  1  0  0  0  0
 28 29  1  0  0  0  0
 28 27  2  0  0  0  0
 30 28  1  0  0  0  0
 31 30  1  0  0  0  0
 32 30  2  0  0  0  0
 32 33  1  0  0  0  0
 33 26  2  0  0  0  0
 34 35  2  0  0  0  0
 35 36  1  0  0  0  0
 36 39  1  0  0  0  0
 36 38  1  0  0  0  0
 37 34  1  0  0  0  0
M  END
>  <minimizedAffinity>
-6.15681887

>  <minimizedRMSD>
1.8430419

$$$$
