
 OpenBabel03272500043D

 34 36  0  0  0  0  0  0  0  0999 V2000
   36.1110   29.2910   49.0300 C   0  0  0  0  0  0  0  0  0  0  0  0
   35.9260   30.2890   48.0340 C   0  0  0  0  0  0  0  0  0  0  0  0
   34.6750   30.3890   47.4410 C   0  0  0  0  0  0  0  0  0  0  0  0
   33.6900   29.5290   47.8420 N   0  0  0  0  0  0  0  0  0  0  0  0
   33.8780   28.6030   48.7710 C   0  0  0  0  0  0  0  0  0  0  0  0
   35.1040   28.4730   49.3830 N   0  0  0  0  0  0  0  0  0  0  0  0
   37.0940   29.2220   49.4880 H   0  0  0  0  0  0  0  0  0  0  0  0
   34.5440   31.1450   46.6920 H   0  0  0  0  0  0  0  0  0  0  0  0
   37.0400   31.1050   47.7100 N   0  0  0  0  0  0  0  0  0  0  0  0
   37.6700   31.8580   48.6040 C   0  0  0  0  0  0  0  0  0  0  0  0
   38.7590   32.6370   48.2140 C   0  0  0  0  0  0  0  0  0  0  0  0
   39.0930   32.5490   46.8800 C   0  0  0  0  0  0  0  0  0  0  0  0
   40.0790   33.2500   46.5110 O   0  0  0  0  0  0  0  0  0  0  0  0
   38.4840   31.8050   45.9560 N   0  0  0  0  0  0  0  0  0  0  0  0
   37.4310   31.0680   46.3970 C   0  0  0  0  0  0  0  0  0  0  0  0
   36.8430   30.3500   45.5120 O   0  0  0  0  0  0  0  0  0  0  0  0
   37.3080   31.8340   49.6080 H   0  0  0  0  0  0  0  0  0  0  0  0
   39.2720   33.2460   48.9290 H   0  0  0  0  0  0  0  0  0  0  0  0
   38.7950   31.7930   44.9760 H   0  0  0  0  0  0  0  0  0  0  0  0
   32.8990   27.7260   49.1840 O   0  0  0  0  0  0  0  0  0  0  0  0
   30.7380   27.1800   48.1000 C   0  0  0  0  0  0  0  0  0  0  0  0
   32.0960   27.0820   48.2980 C   0  0  0  0  0  0  0  0  0  0  0  0
   32.7820   26.1900   47.4680 C   0  0  0  0  0  0  0  0  0  0  0  0
   33.8630   26.0060   47.5070 H   0  0  0  0  0  0  0  0  0  0  0  0
   32.0740   25.4770   46.5250 C   0  0  0  0  0  0  0  0  0  0  0  0
   32.5730   24.7840   45.8740 H   0  0  0  0  0  0  0  0  0  0  0  0
   30.7210   25.6030   46.3620 C   0  0  0  0  0  3  0  0  0  0  0  0
   30.0380   26.4630   47.1560 C   0  0  0  0  0  3  0  0  0  0  0  0
   29.1940   28.9610   48.2980 N   0  0  0  0  0  0  0  0  0  0  0  0
   29.9870   28.1040   48.9000 C   0  0  0  0  0  0  0  0  0  0  0  0
   29.6180   28.6300   50.1540 N   0  0  0  0  0  0  0  0  0  0  0  0
   29.0730   29.0140   47.2830 H   0  0  0  0  0  0  0  0  0  0  0  0
   30.1130   29.4290   50.6530 H   0  0  0  0  0  0  0  0  0  0  0  0
   28.8060   28.2850   50.7480 H   0  0  0  0  0  0  0  0  0  0  0  0
  1  6  1  0  0  0  0
  1  7  1  0  0  0  0
  2  1  2  0  0  0  0
  3  4  2  0  0  0  0
  3  2  1  0  0  0  0
  4  5  1  0  0  0  0
  5 20  1  0  0  0  0
  5  6  2  0  0  0  0
  8  3  1  0  0  0  0
  9  2  1  0  0  0  0
  9 10  1  0  0  0  0
 10 17  1  0  0  0  0
 11 10  2  0  0  0  0
 11 18  1  0  0  0  0
 12 11  1  0  0  0  0
 13 12  2  0  0  0  0
 14 15  1  0  0  0  0
 14 12  1  0  0  0  0
 15  9  1  0  0  0  0
 16 15  2  0  0  0  0
 19 14  1  0  0  0  0
 21 22  1  0  0  0  0
 21 30  1  0  0  0  0
 22 20  1  0  0  0  0
 23 24  1  0  0  0  0
 23 22  2  0  0  0  0
 25 23  1  0  0  0  0
 26 25  1  0  0  0  0
 27 25  2  0  0  0  0
 27 28  1  0  0  0  0
 28 21  2  0  0  0  0
 29 30  2  0  0  0  0
 30 31  1  0  0  0  0
 31 33  1  0  0  0  0
 31 34  1  0  0  0  0
 32 29  1  0  0  0  0
M  END
>  <minimizedAffinity>
-5.93012094

>  <minimizedRMSD>
1.82267761

$$$$
