
 OpenBabel03272504173D

 31 32  0  0  0  0  0  0  0  0999 V2000
   34.3260   28.5990   45.5170 O   0  0  0  0  0  0  0  0  0  0  0  0
   33.7610   28.8820   46.8920 P   0  0  1  0  0  0  0  0  0  0  0  0
   34.1100   27.6370   47.9620 O   0  0  0  0  0  0  0  0  0  0  0  0
   33.5150   26.8700   47.6840 H   0  0  0  0  0  0  0  0  0  0  0  0
   34.3990   30.3170   47.5840 O   0  0  0  0  0  0  0  0  0  0  0  0
   35.4560   30.2880   48.4860 C   0  0  0  0  0  0  0  0  0  0  0  0
   35.3600   30.0720   49.8570 C   0  0  0  0  0  0  0  0  0  0  0  0
   36.5400   30.0780   50.6020 C   0  0  0  0  0  0  0  0  0  0  0  0
   37.7310   30.2910   49.9820 N   0  0  0  0  0  0  0  0  0  0  0  0
   37.7730   30.4980   48.6280 C   0  0  0  0  0  0  0  0  0  0  0  0
   36.6470   30.4980   47.8780 N   0  0  0  0  0  0  0  0  0  0  0  0
   36.4140   29.9070   51.6560 H   0  0  0  0  0  0  0  0  0  0  0  0
   38.7490   30.6630   48.1850 H   0  0  0  0  0  0  0  0  0  0  0  0
   34.0560   29.8700   50.3270 N   0  0  0  0  0  0  0  0  0  0  0  0
   33.6530   29.0620   50.8860 H   0  0  0  0  0  0  0  0  0  0  0  0
   33.2800   30.5330   50.1730 H   0  0  0  0  0  0  0  0  0  0  0  0
   32.0800   29.0510   46.6810 O   0  0  0  0  0  0  0  0  0  0  0  0
   30.1050   30.0270   45.7360 C   0  0  0  0  0  0  0  0  0  0  0  0
   31.4990   29.9980   45.8610 C   0  0  0  0  0  0  0  0  0  0  0  0
   32.1630   30.9530   45.1250 C   0  0  0  0  0  0  0  0  0  0  0  0
   33.2280   30.9700   45.1890 H   0  0  0  0  0  0  0  0  0  0  0  0
   31.5380   31.8750   44.3240 C   0  0  0  0  0  0  0  0  0  0  0  0
   32.1280   32.6080   43.7650 H   0  0  0  0  0  0  0  0  0  0  0  0
   30.1730   31.8700   44.2280 C   0  0  0  0  0  3  0  0  0  0  0  0
   29.4590   30.9390   44.9410 C   0  0  0  0  0  3  0  0  0  0  0  0
   29.2680   29.0610   47.8000 N   0  0  0  0  0  0  0  0  0  0  0  0
   29.3440   29.0380   46.4920 C   0  0  0  0  0  0  0  0  0  0  0  0
   28.5960   27.9420   45.9800 N   0  0  0  0  0  0  0  0  0  0  0  0
   28.7000   28.3080   48.2180 H   0  0  0  0  0  0  0  0  0  0  0  0
   29.1970   27.0710   46.0560 H   0  0  0  0  0  0  0  0  0  0  0  0
   27.6630   27.7380   45.5630 H   0  0  0  0  0  0  0  0  0  0  0  0
  2  1  2  6  0  0  0
  2  5  1  0  0  0  0
  2  3  1  0  0  0  0
  4  3  1  0  0  0  0
  5  6  1  0  0  0  0
  6  7  1  0  0  0  0
  7 14  1  0  0  0  0
  7  8  2  0  0  0  0
  8 12  1  0  0  0  0
  9  8  1  0  0  0  0
 10  9  2  0  0  0  0
 11  6  2  0  0  0  0
 11 10  1  0  0  0  0
 13 10  1  0  0  0  0
 14 15  1  0  0  0  0
 16 14  1  0  0  0  0
 17  2  1  0  0  0  0
 18 19  1  0  0  0  0
 18 27  1  0  0  0  0
 19 17  1  0  0  0  0
 20 21  1  0  0  0  0
 20 19  2  0  0  0  0
 22 20  1  0  0  0  0
 23 22  1  0  0  0  0
 24 22  2  0  0  0  0
 24 25  1  0  0  0  0
 25 18  2  0  0  0  0
 26 29  1  0  0  0  0
 27 26  2  0  0  0  0
 28 30  1  0  0  0  0
 28 27  1  0  0  0  0
 31 28  1  0  0  0  0
M  END
>  <minimizedAffinity>
-4.32544136

>  <minimizedRMSD>
3.60778475

$$$$
