
 OpenBabel03272510113D

 33 35  0  0  0  0  0  0  0  0999 V2000
   37.1080   27.2820   34.1670 C   0  0  0  0  0  0  0  0  0  0  0  0
   37.7850   27.4350   35.3350 C   0  0  0  0  0  0  0  0  0  0  0  0
   38.5320   26.4410   35.9310 C   0  0  0  0  0  0  0  0  0  0  0  0
   38.6210   25.2090   35.3390 C   0  0  0  0  0  0  0  0  0  0  0  0
   37.9210   25.0640   34.1400 C   0  0  0  0  0  0  0  0  0  0  0  0
   37.2040   26.0590   33.5920 N   0  0  0  0  0  0  0  0  0  0  0  0
   37.7440   28.3980   35.8430 H   0  0  0  0  0  0  0  0  0  0  0  0
   39.0750   26.5520   36.8620 H   0  0  0  0  0  0  0  0  0  0  0  0
   37.9420   24.1130   33.6070 H   0  0  0  0  0  0  0  0  0  0  0  0
   35.5460   29.2620   34.2670 C   0  0  0  0  0  0  0  0  0  0  0  0
   36.3250   28.3290   33.5430 C   0  0  0  0  0  0  0  0  0  0  0  0
   36.3250   28.4380   32.1600 C   0  0  0  0  0  0  0  0  0  0  0  0
   35.5840   29.4270   31.5730 N   0  0  0  0  0  0  0  0  0  0  0  0
   34.8620   30.2900   32.2980 C   0  0  0  0  0  0  0  0  0  0  0  0
   34.8320   30.2200   33.6480 N   0  0  0  0  0  0  0  0  0  0  0  0
   35.5740   29.1410   35.3420 H   0  0  0  0  0  0  0  0  0  0  0  0
   36.9030   27.7500   31.5570 H   0  0  0  0  0  0  0  0  0  0  0  0
   34.2920   31.0560   31.7830 H   0  0  0  0  0  0  0  0  0  0  0  0
   39.3230   24.0980   35.7950 O   0  0  0  0  0  0  0  0  0  0  0  0
   41.3790   23.2020   36.4990 C   0  0  0  0  0  0  0  0  0  0  0  0
   40.6980   24.0600   35.6350 C   0  0  0  0  0  0  0  0  0  0  0  0
   41.4590   24.7600   34.7350 C   0  0  0  0  0  0  0  0  0  0  0  0
   40.9130   25.4170   34.0780 H   0  0  0  0  0  0  0  0  0  0  0  0
   42.8180   24.6240   34.6870 C   0  0  0  0  0  0  0  0  0  0  0  0
   43.4120   25.1890   33.9660 H   0  0  0  0  0  0  0  0  0  0  0  0
   43.4870   23.7680   35.5500 C   0  0  0  0  0  3  0  0  0  0  0  0
   42.7470   23.0490   36.4680 C   0  0  0  0  0  3  0  0  0  0  0  0
   39.5910   22.6260   38.1850 N   0  0  0  0  0  0  0  0  0  0  0  0
   40.6640   22.4040   37.5010 C   0  0  0  0  0  0  0  0  0  0  0  0
   41.1450   21.1150   37.8830 N   0  0  0  0  0  0  0  0  0  0  0  0
   39.0350   23.4940   38.1050 H   0  0  0  0  0  0  0  0  0  0  0  0
   41.8840   20.6620   38.4510 H   0  0  0  0  0  0  0  0  0  0  0  0
   40.8330   20.1380   37.6520 H   0  0  0  0  0  0  0  0  0  0  0  0
  1  2  1  0  0  0  0
  2  7  1  0  0  0  0
  2  3  2  0  0  0  0
  3  8  1  0  0  0  0
  4 19  1  0  0  0  0
  4  3  1  0  0  0  0
  5  4  2  0  0  0  0
  6  5  1  0  0  0  0
  6  1  2  0  0  0  0
  9  5  1  0  0  0  0
 10 16  1  0  0  0  0
 11  1  1  0  0  0  0
 11 10  2  0  0  0  0
 12 11  1  0  0  0  0
 13 12  2  0  0  0  0
 13 14  1  0  0  0  0
 14 15  2  0  0  0  0
 15 10  1  0  0  0  0
 17 12  1  0  0  0  0
 18 14  1  0  0  0  0
 20 29  1  0  0  0  0
 21 19  1  0  0  0  0
 21 20  2  0  0  0  0
 22 21  1  0  0  0  0
 23 22  1  0  0  0  0
 24 22  2  0  0  0  0
 24 26  1  0  0  0  0
 25 24  1  0  0  0  0
 26 27  2  0  0  0  0
 27 20  1  0  0  0  0
 29 30  1  0  0  0  0
 29 28  2  0  0  0  0
 30 32  1  0  0  0  0
 31 28  1  0  0  0  0
 33 30  1  0  0  0  0
M  END
>  <minimizedAffinity>
-5.9748621

$$$$

 OpenBabel03272510113D

 33 35  0  0  0  0  0  0  0  0999 V2000
   36.3900   22.8840   31.9810 C   0  0  0  0  0  0  0  0  0  0  0  0
   35.5930   23.7960   31.3650 C   0  0  0  0  0  0  0  0  0  0  0  0
   35.9040   25.1330   31.2370 C   0  0  0  0  0  0  0  0  0  0  0  0
   37.0810   25.6090   31.7490 C   0  0  0  0  0  0  0  0  0  0  0  0
   37.8910   24.6640   32.3800 C   0  0  0  0  0  0  0  0  0  0  0  0
   37.5510   23.3690   32.4850 N   0  0  0  0  0  0  0  0  0  0  0  0
   34.6460   23.4630   30.9420 H   0  0  0  0  0  0  0  0  0  0  0  0
   35.2760   25.8680   30.7480 H   0  0  0  0  0  0  0  0  0  0  0  0
   38.8460   24.9650   32.8150 H   0  0  0  0  0  0  0  0  0  0  0  0
   35.7100   20.8700   33.3420 C   0  0  0  0  0  0  0  0  0  0  0  0
   36.0600   21.4800   32.1150 C   0  0  0  0  0  0  0  0  0  0  0  0
   36.0840   20.6720   30.9870 C   0  0  0  0  0  0  0  0  0  0  0  0
   35.7720   19.3460   31.1150 N   0  0  0  0  0  0  0  0  0  0  0  0
   35.4450   18.8120   32.2970 C   0  0  0  0  0  0  0  0  0  0  0  0
   35.4100   19.5610   33.4230 N   0  0  0  0  0  0  0  0  0  0  0  0
   35.7050   21.5360   34.1950 H   0  0  0  0  0  0  0  0  0  0  0  0
   36.3440   21.0870   30.0220 H   0  0  0  0  0  0  0  0  0  0  0  0
   35.2060   17.7540   32.3450 H   0  0  0  0  0  0  0  0  0  0  0  0
   37.5540   26.9180   31.7120 O   0  0  0  0  0  0  0  0  0  0  0  0
   36.4220   28.9780   31.6840 C   0  0  0  0  0  0  0  0  0  0  0  0
   36.8870   27.8950   32.4310 C   0  0  0  0  0  0  0  0  0  0  0  0
   36.6320   27.9200   33.7790 C   0  0  0  0  0  0  0  0  0  0  0  0
   37.0000   27.0750   34.3360 H   0  0  0  0  0  0  0  0  0  0  0  0
   35.9560   28.9560   34.3610 C   0  0  0  0  0  0  0  0  0  0  0  0
   35.7610   28.9630   35.4350 H   0  0  0  0  0  0  0  0  0  0  0  0
   35.4980   30.0290   33.6100 C   0  0  0  0  0  3  0  0  0  0  0  0
   35.7390   30.0310   32.2500 C   0  0  0  0  0  3  0  0  0  0  0  0
   36.7760   28.1440   29.3280 N   0  0  0  0  0  0  0  0  0  0  0  0
   36.6380   29.0530   30.2350 C   0  0  0  0  0  0  0  0  0  0  0  0
   36.7350   30.3180   29.5800 N   0  0  0  0  0  0  0  0  0  0  0  0
   36.7480   27.1300   29.5300 H   0  0  0  0  0  0  0  0  0  0  0  0
   37.3890   31.1100   29.4410 H   0  0  0  0  0  0  0  0  0  0  0  0
   36.0690   30.8630   28.9760 H   0  0  0  0  0  0  0  0  0  0  0  0
  1 11  1  0  0  0  0
  1  6  1  0  0  0  0
  2  1  2  0  0  0  0
  3  2  1  0  0  0  0
  3  4  2  0  0  0  0
  4  5  1  0  0  0  0
  5  6  2  0  0  0  0
  5  9  1  0  0  0  0
  7  2  1  0  0  0  0
  8  3  1  0  0  0  0
 10 15  1  0  0  0  0
 10 16  1  0  0  0  0
 11 10  2  0  0  0  0
 12 13  2  0  0  0  0
 12 11  1  0  0  0  0
 13 14  1  0  0  0  0
 14 18  1  0  0  0  0
 14 15  2  0  0  0  0
 17 12  1  0  0  0  0
 19  4  1  0  0  0  0
 19 21  1  0  0  0  0
 20 27  2  0  0  0  0
 20 21  1  0  0  0  0
 21 22  2  0  0  0  0
 22 23  1  0  0  0  0
 22 24  1  0  0  0  0
 24 25  1  0  0  0  0
 26 24  2  0  0  0  0
 27 26  1  0  0  0  0
 28 31  1  0  0  0  0
 28 29  2  0  0  0  0
 29 20  1  0  0  0  0
 30 29  1  0  0  0  0
 32 30  1  0  0  0  0
 33 30  1  0  0  0  0
M  END
>  <minimizedAffinity>
-5.76101971

$$$$

 OpenBabel03272510113D

 33 35  0  0  0  0  0  0  0  0999 V2000
   36.6090   27.7810   33.2570 C   0  0  0  0  0  0  0  0  0  0  0  0
   37.0300   27.8620   34.5460 C   0  0  0  0  0  0  0  0  0  0  0  0
   37.6410   26.8290   35.2260 C   0  0  0  0  0  0  0  0  0  0  0  0
   37.8530   25.6330   34.5950 C   0  0  0  0  0  0  0  0  0  0  0  0
   37.4160   25.5610   33.2720 C   0  0  0  0  0  0  0  0  0  0  0  0
   36.8240   26.5920   32.6450 N   0  0  0  0  0  0  0  0  0  0  0  0
   36.8820   28.7950   35.0880 H   0  0  0  0  0  0  0  0  0  0  0  0
   37.9800   26.8830   36.2530 H   0  0  0  0  0  0  0  0  0  0  0  0
   37.5500   24.6410   32.7000 H   0  0  0  0  0  0  0  0  0  0  0  0
   36.5310   29.5080   31.4180 C   0  0  0  0  0  0  0  0  0  0  0  0
   35.9670   28.8680   32.5460 C   0  0  0  0  0  0  0  0  0  0  0  0
   34.7290   29.3200   32.9820 C   0  0  0  0  0  0  0  0  0  0  0  0
   34.1250   30.3470   32.3090 N   0  0  0  0  0  0  0  0  0  0  0  0
   34.6950   30.9230   31.2440 C   0  0  0  0  0  0  0  0  0  0  0  0
   35.9010   30.5150   30.7860 N   0  0  0  0  0  0  0  0  0  0  0  0
   37.4960   29.1250   31.1120 H   0  0  0  0  0  0  0  0  0  0  0  0
   34.2520   28.8660   33.8390 H   0  0  0  0  0  0  0  0  0  0  0  0
   34.1740   31.7340   30.7460 H   0  0  0  0  0  0  0  0  0  0  0  0
   38.4510   24.4910   35.1220 O   0  0  0  0  0  0  0  0  0  0  0  0
   40.3310   23.5570   36.1780 C   0  0  0  0  0  0  0  0  0  0  0  0
   39.8310   24.4390   35.2200 C   0  0  0  0  0  0  0  0  0  0  0  0
   40.7520   25.1460   34.4910 C   0  0  0  0  0  0  0  0  0  0  0  0
   40.3440   25.8200   33.7570 H   0  0  0  0  0  0  0  0  0  0  0  0
   42.0960   24.9930   34.6930 C   0  0  0  0  0  0  0  0  0  0  0  0
   42.8180   25.5630   34.1070 H   0  0  0  0  0  0  0  0  0  0  0  0
   42.5850   24.1140   35.6490 C   0  0  0  0  0  3  0  0  0  0  0  0
   41.6800   23.3880   36.3990 C   0  0  0  0  0  3  0  0  0  0  0  0
   39.3110   22.6340   38.2940 N   0  0  0  0  0  0  0  0  0  0  0  0
   39.4350   22.7510   37.0140 C   0  0  0  0  0  0  0  0  0  0  0  0
   38.4690   21.8850   36.4190 N   0  0  0  0  0  0  0  0  0  0  0  0
   39.8950   23.1540   38.9720 H   0  0  0  0  0  0  0  0  0  0  0  0
   38.3890   20.9720   35.9350 H   0  0  0  0  0  0  0  0  0  0  0  0
   37.4270   21.9550   36.2940 H   0  0  0  0  0  0  0  0  0  0  0  0
  1  2  1  0  0  0  0
  2  7  1  0  0  0  0
  2  3  2  0  0  0  0
  3  8  1  0  0  0  0
  4 19  1  0  0  0  0
  4  3  1  0  0  0  0
  5  4  2  0  0  0  0
  6  1  2  0  0  0  0
  6  5  1  0  0  0  0
  9  5  1  0  0  0  0
 10 11  1  0  0  0  0
 11 12  2  0  0  0  0
 11  1  1  0  0  0  0
 12 17  1  0  0  0  0
 13 12  1  0  0  0  0
 14 13  2  0  0  0  0
 15 14  1  0  0  0  0
 15 10  2  0  0  0  0
 16 10  1  0  0  0  0
 18 14  1  0  0  0  0
 19 21  1  0  0  0  0
 20 27  1  0  0  0  0
 20 29  1  0  0  0  0
 21 20  2  0  0  0  0
 22 24  2  0  0  0  0
 22 21  1  0  0  0  0
 23 22  1  0  0  0  0
 24 26  1  0  0  0  0
 25 24  1  0  0  0  0
 26 27  2  0  0  0  0
 28 31  1  0  0  0  0
 29 28  2  0  0  0  0
 30 29  1  0  0  0  0
 32 30  1  0  0  0  0
 33 30  1  0  0  0  0
M  END
>  <minimizedAffinity>
-5.47664452

$$$$

 OpenBabel03272510113D

 33 35  0  0  0  0  0  0  0  0999 V2000
   37.6850   26.8650   32.7310 C   0  0  0  0  0  0  0  0  0  0  0  0
   38.0150   27.1520   34.0180 C   0  0  0  0  0  0  0  0  0  0  0  0
   38.1640   26.2040   35.0080 C   0  0  0  0  0  0  0  0  0  0  0  0
   37.9770   24.8800   34.7140 C   0  0  0  0  0  0  0  0  0  0  0  0
   37.6390   24.5970   33.3900 C   0  0  0  0  0  0  0  0  0  0  0  0
   37.5020   25.5510   32.4540 N   0  0  0  0  0  0  0  0  0  0  0  0
   38.1740   28.1920   34.2990 H   0  0  0  0  0  0  0  0  0  0  0  0
   38.4270   26.4220   36.0360 H   0  0  0  0  0  0  0  0  0  0  0  0
   37.4730   23.5640   33.0770 H   0  0  0  0  0  0  0  0  0  0  0  0
   38.2580   27.8560   30.4820 C   0  0  0  0  0  0  0  0  0  0  0  0
   37.5290   27.8630   31.6940 C   0  0  0  0  0  0  0  0  0  0  0  0
   36.6180   28.8930   31.8820 C   0  0  0  0  0  0  0  0  0  0  0  0
   36.4710   29.8360   30.9020 N   0  0  0  0  0  0  0  0  0  0  0  0
   37.1820   29.7880   29.7680 C   0  0  0  0  0  0  0  0  0  0  0  0
   38.0810   28.8040   29.5430 N   0  0  0  0  0  0  0  0  0  0  0  0
   38.9570   27.0370   30.3770 H   0  0  0  0  0  0  0  0  0  0  0  0
   36.0330   28.9470   32.7910 H   0  0  0  0  0  0  0  0  0  0  0  0
   37.0270   30.5610   29.0220 H   0  0  0  0  0  0  0  0  0  0  0  0
   38.0860   23.7960   35.5800 O   0  0  0  0  0  0  0  0  0  0  0  0
   39.6010   23.0470   37.2140 C   0  0  0  0  0  0  0  0  0  0  0  0
   39.3410   23.2850   35.8640 C   0  0  0  0  0  0  0  0  0  0  0  0
   40.3470   22.9890   34.9800 C   0  0  0  0  0  0  0  0  0  0  0  0
   40.1250   23.1800   33.9440 H   0  0  0  0  0  0  0  0  0  0  0  0
   41.5460   22.4850   35.4010 C   0  0  0  0  0  0  0  0  0  0  0  0
   42.3380   22.2540   34.6870 H   0  0  0  0  0  0  0  0  0  0  0  0
   41.7960   22.2520   36.7460 C   0  0  0  0  0  3  0  0  0  0  0  0
   40.8010   22.5410   37.6600 C   0  0  0  0  0  3  0  0  0  0  0  0
   38.0420   22.5840   39.1430 N   0  0  0  0  0  0  0  0  0  0  0  0
   38.5970   23.3280   38.2450 C   0  0  0  0  0  0  0  0  0  0  0  0
   38.0450   24.6370   38.3860 N   0  0  0  0  0  0  0  0  0  0  0  0
   38.2600   21.5800   39.2640 H   0  0  0  0  0  0  0  0  0  0  0  0
   37.3670   25.2820   37.9410 H   0  0  0  0  0  0  0  0  0  0  0  0
   38.2060   25.4090   39.0810 H   0  0  0  0  0  0  0  0  0  0  0  0
  1  2  1  0  0  0  0
  2  7  1  0  0  0  0
  2  3  2  0  0  0  0
  3  8  1  0  0  0  0
  4  3  1  0  0  0  0
  4 19  1  0  0  0  0
  5  4  2  0  0  0  0
  6  1  2  0  0  0  0
  6  5  1  0  0  0  0
  9  5  1  0  0  0  0
 10 11  1  0  0  0  0
 11 12  2  0  0  0  0
 11  1  1  0  0  0  0
 12 17  1  0  0  0  0
 13 12  1  0  0  0  0
 14 13  2  0  0  0  0
 15 14  1  0  0  0  0
 15 10  2  0  0  0  0
 16 10  1  0  0  0  0
 18 14  1  0  0  0  0
 19 21  1  0  0  0  0
 20 27  1  0  0  0  0
 20 29  1  0  0  0  0
 21 20  2  0  0  0  0
 22 24  2  0  0  0  0
 22 21  1  0  0  0  0
 23 22  1  0  0  0  0
 24 26  1  0  0  0  0
 25 24  1  0  0  0  0
 26 27  2  0  0  0  0
 28 31  1  0  0  0  0
 29 30  1  0  0  0  0
 29 28  2  0  0  0  0
 30 33  1  0  0  0  0
 32 30  1  0  0  0  0
M  END
>  <minimizedAffinity>
-5.3845129

$$$$

 OpenBabel03272510113D

 33 35  0  0  0  0  0  0  0  0999 V2000
   36.5070   27.9970   33.4900 C   0  0  0  0  0  0  0  0  0  0  0  0
   37.0590   27.9260   34.7290 C   0  0  0  0  0  0  0  0  0  0  0  0
   37.7280   26.8230   35.2150 C   0  0  0  0  0  0  0  0  0  0  0  0
   37.8660   25.7110   34.4280 C   0  0  0  0  0  0  0  0  0  0  0  0
   37.2950   25.7950   33.1580 C   0  0  0  0  0  0  0  0  0  0  0  0
   36.6490   26.8900   32.7220 N   0  0  0  0  0  0  0  0  0  0  0  0
   36.9740   28.7870   35.3910 H   0  0  0  0  0  0  0  0  0  0  0  0
   38.1710   26.7550   36.2010 H   0  0  0  0  0  0  0  0  0  0  0  0
   37.3620   24.9500   32.4700 H   0  0  0  0  0  0  0  0  0  0  0  0
   35.1810   30.1210   33.8110 C   0  0  0  0  0  0  0  0  0  0  0  0
   35.8040   29.1580   32.9830 C   0  0  0  0  0  0  0  0  0  0  0  0
   35.7250   29.3530   31.6110 C   0  0  0  0  0  0  0  0  0  0  0  0
   35.0610   30.4490   31.1340 N   0  0  0  0  0  0  0  0  0  0  0  0
   34.4870   31.3360   31.9560 C   0  0  0  0  0  0  0  0  0  0  0  0
   34.5380   31.1860   33.2990 N   0  0  0  0  0  0  0  0  0  0  0  0
   35.2660   29.9310   34.8730 H   0  0  0  0  0  0  0  0  0  0  0  0
   36.1840   28.6470   30.9310 H   0  0  0  0  0  0  0  0  0  0  0  0
   33.9720   32.1900   31.5270 H   0  0  0  0  0  0  0  0  0  0  0  0
   38.5050   24.5170   34.7510 O   0  0  0  0  0  0  0  0  0  0  0  0
   39.6890   23.3790   36.4330 C   0  0  0  0  0  0  0  0  0  0  0  0
   38.5640   24.1240   36.0770 C   0  0  0  0  0  0  0  0  0  0  0  0
   37.6550   24.3800   37.0710 C   0  0  0  0  0  0  0  0  0  0  0  0
   36.7940   24.9560   36.7750 H   0  0  0  0  0  0  0  0  0  0  0  0
   37.8410   23.9280   38.3480 C   0  0  0  0  0  0  0  0  0  0  0  0
   37.1090   24.1380   39.1290 H   0  0  0  0  0  0  0  0  0  0  0  0
   38.9630   23.1870   38.6920 C   0  0  0  0  0  3  0  0  0  0  0  0
   39.8970   22.9130   37.7120 C   0  0  0  0  0  3  0  0  0  0  0  0
   41.1340   21.9230   34.9620 N   0  0  0  0  0  0  0  0  0  0  0  0
   40.7260   23.0480   35.4490 C   0  0  0  0  0  0  0  0  0  0  0  0
   41.5060   24.0760   34.8410 N   0  0  0  0  0  0  0  0  0  0  0  0
   40.7360   21.0080   35.2340 H   0  0  0  0  0  0  0  0  0  0  0  0
   42.2910   24.7230   35.0410 H   0  0  0  0  0  0  0  0  0  0  0  0
   41.4880   24.5180   33.8870 H   0  0  0  0  0  0  0  0  0  0  0  0
  1  2  1  0  0  0  0
  2  3  2  0  0  0  0
  2  7  1  0  0  0  0
  3  8  1  0  0  0  0
  4 19  1  0  0  0  0
  4  3  1  0  0  0  0
  5  4  2  0  0  0  0
  6  5  1  0  0  0  0
  6  1  2  0  0  0  0
  9  5  1  0  0  0  0
 10 16  1  0  0  0  0
 11  1  1  0  0  0  0
 11 10  2  0  0  0  0
 12 11  1  0  0  0  0
 13 12  2  0  0  0  0
 13 14  1  0  0  0  0
 14 15  2  0  0  0  0
 15 10  1  0  0  0  0
 17 12  1  0  0  0  0
 18 14  1  0  0  0  0
 19 21  1  0  0  0  0
 20 27  1  0  0  0  0
 21 20  2  0  0  0  0
 21 22  1  0  0  0  0
 22 24  2  0  0  0  0
 23 22  1  0  0  0  0
 24 26  1  0  0  0  0
 24 25  1  0  0  0  0
 27 26  2  0  0  0  0
 28 31  1  0  0  0  0
 28 29  2  0  0  0  0
 29 20  1  0  0  0  0
 30 32  1  0  0  0  0
 30 29  1  0  0  0  0
 33 30  1  0  0  0  0
M  END
>  <minimizedAffinity>
-5.35617542

$$$$

 OpenBabel03272510113D

 33 35  0  0  0  0  0  0  0  0999 V2000
   36.5140   27.6980   33.1490 C   0  0  0  0  0  0  0  0  0  0  0  0
   37.1390   27.7690   34.3530 C   0  0  0  0  0  0  0  0  0  0  0  0
   37.8520   26.7320   34.9160 C   0  0  0  0  0  0  0  0  0  0  0  0
   37.9610   25.5410   34.2500 C   0  0  0  0  0  0  0  0  0  0  0  0
   37.3150   25.4790   33.0140 C   0  0  0  0  0  0  0  0  0  0  0  0
   36.6280   26.5140   32.5000 N   0  0  0  0  0  0  0  0  0  0  0  0
   37.0810   28.6970   34.9200 H   0  0  0  0  0  0  0  0  0  0  0  0
   38.3540   26.7780   35.8750 H   0  0  0  0  0  0  0  0  0  0  0  0
   37.3540   24.5640   32.4210 H   0  0  0  0  0  0  0  0  0  0  0  0
   36.1630   29.4710   31.3870 C   0  0  0  0  0  0  0  0  0  0  0  0
   35.7650   28.7890   32.5610 C   0  0  0  0  0  0  0  0  0  0  0  0
   34.5880   29.2030   33.1680 C   0  0  0  0  0  0  0  0  0  0  0  0
   33.8810   30.2330   32.6120 N   0  0  0  0  0  0  0  0  0  0  0  0
   34.2960   30.8500   31.4980 C   0  0  0  0  0  0  0  0  0  0  0  0
   35.4370   30.4800   30.8730 N   0  0  0  0  0  0  0  0  0  0  0  0
   37.0860   29.1160   30.9460 H   0  0  0  0  0  0  0  0  0  0  0  0
   34.2360   28.7160   34.0680 H   0  0  0  0  0  0  0  0  0  0  0  0
   33.6990   31.6620   31.0970 H   0  0  0  0  0  0  0  0  0  0  0  0
   38.6360   24.3960   34.6630 O   0  0  0  0  0  0  0  0  0  0  0  0
   39.7360   23.3290   36.4460 C   0  0  0  0  0  0  0  0  0  0  0  0
   38.6330   24.0630   36.0070 C   0  0  0  0  0  0  0  0  0  0  0  0
   37.6820   24.3670   36.9470 C   0  0  0  0  0  0  0  0  0  0  0  0
   36.8400   24.9340   36.5870 H   0  0  0  0  0  0  0  0  0  0  0  0
   37.8080   23.9720   38.2490 C   0  0  0  0  0  0  0  0  0  0  0  0
   37.0430   24.2200   38.9860 H   0  0  0  0  0  0  0  0  0  0  0  0
   38.9080   23.2420   38.6760 C   0  0  0  0  0  3  0  0  0  0  0  0
   39.8830   22.9200   37.7520 C   0  0  0  0  0  3  0  0  0  0  0  0
   41.3170   21.8040   35.2030 N   0  0  0  0  0  0  0  0  0  0  0  0
   40.8130   22.9480   35.5260 C   0  0  0  0  0  0  0  0  0  0  0  0
   41.5210   23.9410   34.7840 N   0  0  0  0  0  0  0  0  0  0  0  0
   40.9880   20.9060   35.5980 H   0  0  0  0  0  0  0  0  0  0  0  0
   42.2490   24.6710   34.8970 H   0  0  0  0  0  0  0  0  0  0  0  0
   41.4850   24.2430   33.7780 H   0  0  0  0  0  0  0  0  0  0  0  0
  1  2  1  0  0  0  0
  2  3  2  0  0  0  0
  2  7  1  0  0  0  0
  3  8  1  0  0  0  0
  4 19  1  0  0  0  0
  4  3  1  0  0  0  0
  5  4  2  0  0  0  0
  6  5  1  0  0  0  0
  6  1  2  0  0  0  0
  9  5  1  0  0  0  0
 10 11  1  0  0  0  0
 11  1  1  0  0  0  0
 11 12  2  0  0  0  0
 12 17  1  0  0  0  0
 13 12  1  0  0  0  0
 14 13  2  0  0  0  0
 15 10  2  0  0  0  0
 15 14  1  0  0  0  0
 16 10  1  0  0  0  0
 18 14  1  0  0  0  0
 19 21  1  0  0  0  0
 20 27  1  0  0  0  0
 21 20  2  0  0  0  0
 21 22  1  0  0  0  0
 22 24  2  0  0  0  0
 23 22  1  0  0  0  0
 24 26  1  0  0  0  0
 24 25  1  0  0  0  0
 27 26  2  0  0  0  0
 28 29  2  0  0  0  0
 28 31  1  0  0  0  0
 29 20  1  0  0  0  0
 30 32  1  0  0  0  0
 30 29  1  0  0  0  0
 33 30  1  0  0  0  0
M  END
>  <minimizedAffinity>
-5.34556198

$$$$

 OpenBabel03272510113D

 33 35  0  0  0  0  0  0  0  0999 V2000
   36.2480   26.1000   31.6220 C   0  0  0  0  0  0  0  0  0  0  0  0
   35.4410   25.1520   31.0770 C   0  0  0  0  0  0  0  0  0  0  0  0
   35.5820   23.7980   31.2970 C   0  0  0  0  0  0  0  0  0  0  0  0
   36.5860   23.3420   32.1100 C   0  0  0  0  0  0  0  0  0  0  0  0
   37.4080   24.3250   32.6620 C   0  0  0  0  0  0  0  0  0  0  0  0
   37.2370   25.6360   32.4230 N   0  0  0  0  0  0  0  0  0  0  0  0
   34.6280   25.4670   30.4240 H   0  0  0  0  0  0  0  0  0  0  0  0
   34.9450   23.0340   30.8690 H   0  0  0  0  0  0  0  0  0  0  0  0
   38.2310   24.0420   33.3210 H   0  0  0  0  0  0  0  0  0  0  0  0
   36.7260   28.2120   30.3260 C   0  0  0  0  0  0  0  0  0  0  0  0
   36.0970   27.5210   31.3880 C   0  0  0  0  0  0  0  0  0  0  0  0
   35.2950   28.2640   32.2430 C   0  0  0  0  0  0  0  0  0  0  0  0
   35.1540   29.6060   32.0210 N   0  0  0  0  0  0  0  0  0  0  0  0
   35.7680   30.2190   31.0010 C   0  0  0  0  0  0  0  0  0  0  0  0
   36.5590   29.5350   30.1440 N   0  0  0  0  0  0  0  0  0  0  0  0
   37.3420   27.5960   29.6840 H   0  0  0  0  0  0  0  0  0  0  0  0
   34.7900   27.7860   33.0720 H   0  0  0  0  0  0  0  0  0  0  0  0
   35.6230   31.2860   30.8690 H   0  0  0  0  0  0  0  0  0  0  0  0
   36.8740   22.0220   32.4410 O   0  0  0  0  0  0  0  0  0  0  0  0
   36.4460   19.9570   31.4030 C   0  0  0  0  0  0  0  0  0  0  0  0
   37.1990   21.1310   31.4330 C   0  0  0  0  0  0  0  0  0  0  0  0
   38.1660   21.2680   30.4690 C   0  0  0  0  0  0  0  0  0  0  0  0
   38.7350   22.1810   30.5110 H   0  0  0  0  0  0  0  0  0  0  0  0
   38.3800   20.3020   29.5260 C   0  0  0  0  0  0  0  0  0  0  0  0
   39.1530   20.4240   28.7660 H   0  0  0  0  0  0  0  0  0  0  0  0
   37.6260   19.1370   29.5040 C   0  0  0  0  0  3  0  0  0  0  0  0
   36.6450   18.9710   30.4630 C   0  0  0  0  0  3  0  0  0  0  0  0
   35.3490   19.8180   33.6720 N   0  0  0  0  0  0  0  0  0  0  0  0
   35.3860   19.7060   32.3860 C   0  0  0  0  0  0  0  0  0  0  0  0
   34.1010   19.2460   31.9680 N   0  0  0  0  0  0  0  0  0  0  0  0
   36.1540   20.1350   34.2390 H   0  0  0  0  0  0  0  0  0  0  0  0
   33.6160   18.3920   31.6360 H   0  0  0  0  0  0  0  0  0  0  0  0
   33.1690   19.7210   31.8690 H   0  0  0  0  0  0  0  0  0  0  0  0
  1  6  1  0  0  0  0
  2  3  1  0  0  0  0
  2  1  2  0  0  0  0
  3  4  2  0  0  0  0
  4 19  1  0  0  0  0
  4  5  1  0  0  0  0
  5  9  1  0  0  0  0
  6  5  2  0  0  0  0
  7  2  1  0  0  0  0
  8  3  1  0  0  0  0
 10 11  1  0  0  0  0
 11  1  1  0  0  0  0
 11 12  2  0  0  0  0
 12 17  1  0  0  0  0
 13 12  1  0  0  0  0
 14 13  2  0  0  0  0
 15 10  2  0  0  0  0
 15 14  1  0  0  0  0
 16 10  1  0  0  0  0
 18 14  1  0  0  0  0
 20 21  1  0  0  0  0
 20 29  1  0  0  0  0
 21 19  1  0  0  0  0
 22 23  1  0  0  0  0
 22 21  2  0  0  0  0
 24 22  1  0  0  0  0
 25 24  1  0  0  0  0
 26 24  2  0  0  0  0
 26 27  1  0  0  0  0
 27 20  2  0  0  0  0
 28 31  1  0  0  0  0
 29 28  2  0  0  0  0
 30 29  1  0  0  0  0
 32 30  1  0  0  0  0
 33 30  1  0  0  0  0
M  END
>  <minimizedAffinity>
-5.2121172

$$$$

 OpenBabel03272510113D

 33 35  0  0  0  0  0  0  0  0999 V2000
   36.5130   27.2030   32.3370 C   0  0  0  0  0  0  0  0  0  0  0  0
   36.8020   27.4970   33.6320 C   0  0  0  0  0  0  0  0  0  0  0  0
   36.2100   28.5180   34.3440 C   0  0  0  0  0  0  0  0  0  0  0  0
   35.2670   29.3080   33.7430 C   0  0  0  0  0  0  0  0  0  0  0  0
   34.9780   28.9980   32.4130 C   0  0  0  0  0  0  0  0  0  0  0  0
   35.5780   27.9930   31.7540 N   0  0  0  0  0  0  0  0  0  0  0  0
   37.5460   26.8950   34.1520 H   0  0  0  0  0  0  0  0  0  0  0  0
   36.4330   28.7610   35.3760 H   0  0  0  0  0  0  0  0  0  0  0  0
   34.2370   29.5810   31.8640 H   0  0  0  0  0  0  0  0  0  0  0  0
   36.5240   24.8760   31.3610 C   0  0  0  0  0  0  0  0  0  0  0  0
   37.1370   26.1300   31.5920 C   0  0  0  0  0  0  0  0  0  0  0  0
   38.4080   26.3230   31.0690 C   0  0  0  0  0  0  0  0  0  0  0  0
   38.9960   25.3080   30.3650 N   0  0  0  0  0  0  0  0  0  0  0  0
   38.3770   24.1370   30.1690 C   0  0  0  0  0  0  0  0  0  0  0  0
   37.1400   23.9050   30.6630 N   0  0  0  0  0  0  0  0  0  0  0  0
   35.5350   24.7680   31.7870 H   0  0  0  0  0  0  0  0  0  0  0  0
   38.9230   27.2630   31.2150 H   0  0  0  0  0  0  0  0  0  0  0  0
   38.8880   23.3640   29.6040 H   0  0  0  0  0  0  0  0  0  0  0  0
   34.5710   30.3750   34.3040 O   0  0  0  0  0  0  0  0  0  0  0  0
   33.2580   30.9560   36.1650 C   0  0  0  0  0  0  0  0  0  0  0  0
   33.4450   30.1160   35.0670 C   0  0  0  0  0  0  0  0  0  0  0  0
   32.5030   29.1400   34.8700 C   0  0  0  0  0  0  0  0  0  0  0  0
   32.6660   28.5030   34.0170 H   0  0  0  0  0  0  0  0  0  0  0  0
   31.4320   28.9970   35.7080 C   0  0  0  0  0  0  0  0  0  0  0  0
   30.6900   28.2150   35.5400 H   0  0  0  0  0  0  0  0  0  0  0  0
   31.2540   29.8380   36.7980 C   0  0  0  0  0  3  0  0  0  0  0  0
   32.1880   30.8310   37.0220 C   0  0  0  0  0  3  0  0  0  0  0  0
   34.9280   32.2880   37.5100 N   0  0  0  0  0  0  0  0  0  0  0  0
   34.2050   32.0350   36.4700 C   0  0  0  0  0  0  0  0  0  0  0  0
   34.4650   33.0650   35.5170 N   0  0  0  0  0  0  0  0  0  0  0  0
   34.9330   31.6960   38.3580 H   0  0  0  0  0  0  0  0  0  0  0  0
   34.0420   33.9230   35.1170 H   0  0  0  0  0  0  0  0  0  0  0  0
   35.2720   33.2550   34.8720 H   0  0  0  0  0  0  0  0  0  0  0  0
  1  2  1  0  0  0  0
  2  7  1  0  0  0  0
  2  3  2  0  0  0  0
  3  8  1  0  0  0  0
  4 19  1  0  0  0  0
  4  3  1  0  0  0  0
  5  4  2  0  0  0  0
  6  1  2  0  0  0  0
  6  5  1  0  0  0  0
  9  5  1  0  0  0  0
 10 11  1  0  0  0  0
 10 16  1  0  0  0  0
 11  1  1  0  0  0  0
 12 17  1  0  0  0  0
 12 11  2  0  0  0  0
 13 12  1  0  0  0  0
 14 13  2  0  0  0  0
 14 15  1  0  0  0  0
 15 10  2  0  0  0  0
 18 14  1  0  0  0  0
 19 21  1  0  0  0  0
 20 29  1  0  0  0  0
 20 27  1  0  0  0  0
 21 20  2  0  0  0  0
 22 21  1  0  0  0  0
 22 24  2  0  0  0  0
 23 22  1  0  0  0  0
 24 26  1  0  0  0  0
 25 24  1  0  0  0  0
 26 27  2  0  0  0  0
 28 31  1  0  0  0  0
 29 28  2  0  0  0  0
 30 29  1  0  0  0  0
 32 30  1  0  0  0  0
 33 30  1  0  0  0  0
M  END
>  <minimizedAffinity>
-5.19517279

$$$$

 OpenBabel03272510113D

 33 35  0  0  0  0  0  0  0  0999 V2000
   35.4610   29.4460   33.9810 C   0  0  0  0  0  0  0  0  0  0  0  0
   36.3240   28.4240   34.2180 C   0  0  0  0  0  0  0  0  0  0  0  0
   36.7450   27.5290   33.2570 C   0  0  0  0  0  0  0  0  0  0  0  0
   36.2860   27.6460   31.9720 C   0  0  0  0  0  0  0  0  0  0  0  0
   35.4000   28.6980   31.7410 C   0  0  0  0  0  0  0  0  0  0  0  0
   35.0140   29.5500   32.7060 N   0  0  0  0  0  0  0  0  0  0  0  0
   36.7160   28.2910   35.2250 H   0  0  0  0  0  0  0  0  0  0  0  0
   37.4330   26.7110   33.4340 H   0  0  0  0  0  0  0  0  0  0  0  0
   34.9890   28.8580   30.7420 H   0  0  0  0  0  0  0  0  0  0  0  0
   35.8930   31.2530   35.6890 C   0  0  0  0  0  0  0  0  0  0  0  0
   35.0210   30.3840   34.9930 C   0  0  0  0  0  0  0  0  0  0  0  0
   33.6710   30.4470   35.3120 C   0  0  0  0  0  0  0  0  0  0  0  0
   33.2570   31.3330   36.2680 N   0  0  0  0  0  0  0  0  0  0  0  0
   34.1190   32.1390   36.9010 C   0  0  0  0  0  0  0  0  0  0  0  0
   35.4420   32.1100   36.6230 N   0  0  0  0  0  0  0  0  0  0  0  0
   36.9350   31.1710   35.4100 H   0  0  0  0  0  0  0  0  0  0  0  0
   32.9600   29.8050   34.8100 H   0  0  0  0  0  0  0  0  0  0  0  0
   33.7380   32.8240   37.6520 H   0  0  0  0  0  0  0  0  0  0  0  0
   36.6020   26.8390   30.8820 O   0  0  0  0  0  0  0  0  0  0  0  0
   37.7180   24.7750   30.7430 C   0  0  0  0  0  0  0  0  0  0  0  0
   36.5370   25.4630   31.0230 C   0  0  0  0  0  0  0  0  0  0  0  0
   35.4580   24.7070   31.4030 C   0  0  0  0  0  0  0  0  0  0  0  0
   34.5570   25.2590   31.6140 H   0  0  0  0  0  0  0  0  0  0  0  0
   35.5350   23.3460   31.5020 C   0  0  0  0  0  0  0  0  0  0  0  0
   34.6680   22.7570   31.8040 H   0  0  0  0  0  0  0  0  0  0  0  0
   36.7140   22.6700   31.2210 C   0  0  0  0  0  3  0  0  0  0  0  0
   37.8180   23.4050   30.8360 C   0  0  0  0  0  3  0  0  0  0  0  0
   39.7480   26.2580   30.9650 N   0  0  0  0  0  0  0  0  0  0  0  0
   38.9330   25.4840   30.3280 C   0  0  0  0  0  0  0  0  0  0  0  0
   39.4140   25.3810   28.9880 N   0  0  0  0  0  0  0  0  0  0  0  0
   39.6350   26.5060   31.9630 H   0  0  0  0  0  0  0  0  0  0  0  0
   39.2180   25.7240   28.0290 H   0  0  0  0  0  0  0  0  0  0  0  0
   40.2100   24.8500   28.5530 H   0  0  0  0  0  0  0  0  0  0  0  0
  1  2  1  0  0  0  0
  1 11  1  0  0  0  0
  2  7  1  0  0  0  0
  3  8  1  0  0  0  0
  3  2  2  0  0  0  0
  4  3  1  0  0  0  0
  5  4  2  0  0  0  0
  5  6  1  0  0  0  0
  6  1  2  0  0  0  0
  9  5  1  0  0  0  0
 10 15  1  0  0  0  0
 11 12  1  0  0  0  0
 11 10  2  0  0  0  0
 12 13  2  0  0  0  0
 13 14  1  0  0  0  0
 14 18  1  0  0  0  0
 15 14  2  0  0  0  0
 16 10  1  0  0  0  0
 17 12  1  0  0  0  0
 19 21  1  0  0  0  0
 19  4  1  0  0  0  0
 20 27  2  0  0  0  0
 20 21  1  0  0  0  0
 21 22  2  0  0  0  0
 22 24  1  0  0  0  0
 22 23  1  0  0  0  0
 24 25  1  0  0  0  0
 26 24  2  0  0  0  0
 27 26  1  0  0  0  0
 28 31  1  0  0  0  0
 29 20  1  0  0  0  0
 29 28  2  0  0  0  0
 30 29  1  0  0  0  0
 32 30  1  0  0  0  0
 33 30  1  0  0  0  0
M  END
>  <minimizedAffinity>
-5.18659258

$$$$
