
     RDKit          3D

 30 31  0  0  0  0  0  0  0  0999 V2000
   35.6189   29.0135   50.1839 C   0  0  0  0  0  0  0  0  0  0  0  0
   36.2795   30.1583   49.6535 C   0  0  0  0  0  0  0  0  0  0  0  0
   36.0370   30.5130   48.3377 C   0  0  0  0  0  0  0  0  0  0  0  0
   35.1784   29.7548   47.6046 N   0  0  0  0  0  0  0  0  0  0  0  0
   34.5567   28.6640   48.1361 C   0  0  0  0  0  0  0  0  0  0  0  0
   34.7683   28.2890   49.4077 N   0  0  0  0  0  0  0  0  0  0  0  0
   33.6765   28.0171   47.2320 N   0  0  0  0  0  0  0  0  0  0  0  0
   37.2175   30.8983   50.5378 C   0  0  0  0  0  0  0  0  0  0  0  0
   38.5348   30.8037   50.1029 F   0  0  0  0  0  0  0  0  0  0  0  0
   36.8679   32.2156   50.5012 F   0  0  0  0  0  0  0  0  0  0  0  0
   37.1776   30.4656   51.8466 F   0  0  0  0  0  0  0  0  0  0  0  0
   35.8032   28.7330   51.2141 H   0  0  0  0  0  0  0  0  0  0  0  0
   32.7206   28.0115   47.6762 H   0  0  0  0  0  0  0  0  0  0  0  0
   33.8078   27.5994   46.3125 H   0  0  0  0  0  0  0  0  0  0  0  0
   36.5631   30.6812   44.9622 N   0  0  0  0  0  0  0  0  0  0  0  0
   35.6557   31.4372   45.5318 C   0  0  0  0  0  0  0  0  0  0  0  0
   34.2701   31.3658   45.2232 N   0  0  0  0  0  0  0  0  0  0  0  0
   36.5294   32.2034   46.4096 C   0  0  0  0  0  0  0  0  0  0  0  0
   36.6565   31.6388   47.6582 C   0  0  0  0  0  0  0  0  0  0  0  0
   37.4822   32.3145   48.5724 C   0  0  0  0  0  0  0  0  0  0  0  0
   37.7432   32.1293   49.6309 H   0  0  0  0  0  0  0  0  0  0  0  0
   38.1318   33.4805   48.2319 C   0  0  0  0  0  0  0  0  0  0  0  0
   38.7929   34.0947   48.8305 H   0  0  0  0  0  0  0  0  0  0  0  0
   37.9916   34.0407   46.9633 C   0  0  0  0  0  0  0  0  0  0  0  0
   37.1666   33.3623   46.0599 C   0  0  0  0  0  0  0  0  0  0  0  0
   36.2141   30.0036   44.2533 H   0  0  0  0  0  0  0  0  0  0  0  0
   34.1156   31.0287   44.2337 H   0  0  0  0  0  0  0  0  0  0  0  0
   33.5658   31.6340   45.9530 H   0  0  0  0  0  0  0  0  0  0  0  0
   38.4479   34.9424   46.5876 H   0  0  0  0  0  0  0  0  0  0  0  0
   36.9917   33.7163   45.0489 H   0  0  0  0  0  0  0  0  0  0  0  0
  2  1  2  0
  2  8  1  0
  3  2  1  0
  4  5  1  0
  4  3  2  0
  5  6  2  0
  6  1  1  0
  7  5  1  0
  8 11  1  0
  9  8  1  0
 10  8  1  0
  1 12  1  0
  7 13  1  0
  7 14  1  0
 15 16  2  3
 16 17  1  0
 16 18  1  0
 18 19  2  0
 19 20  1  0
 20 21  1  0
 20 22  2  0
 22 23  1  0
 22 24  1  0
 24 25  2  0
 25 18  1  0
 15 26  1  0
 17 27  1  0
 17 28  1  0
 24 29  1  0
 25 30  1  0
  3 19  1  0
M  ISO  3  12  14  21  15  23  16
M  END
>  <DihAtoms>  (1) 
1,2,18,17

>  <DihDeg>  (1) 
108.38468930680575

$$$$
