
 OpenBabel03272501443D

 39 40  0  0  0  0  0  0  0  0999 V2000
   35.3730   29.2050   49.0180 C   0  0  0  0  0  0  0  0  0  0  0  0
   35.3680   29.9880   47.8230 C   0  0  0  0  0  0  0  0  0  0  0  0
   34.2520   29.9060   47.0040 C   0  0  0  0  0  0  0  0  0  0  0  0
   33.2330   29.0960   47.3740 N   0  0  0  0  0  0  0  0  0  0  0  0
   33.2540   28.3660   48.5000 C   0  0  0  0  0  0  0  0  0  0  0  0
   34.3240   28.4270   49.3140 N   0  0  0  0  0  0  0  0  0  0  0  0
   36.1460   29.1360   49.7700 H   0  0  0  0  0  0  0  0  0  0  0  0
   34.2710   30.4960   46.1220 H   0  0  0  0  0  0  0  0  0  0  0  0
   37.1280   31.3860   48.7310 C   0  0  0  0  0  0  0  0  0  0  0  0
   36.5490   30.7920   47.6170 C   0  0  0  0  0  0  0  0  0  0  0  0
   37.1530   31.0300   46.4060 C   0  0  0  0  0  0  0  0  0  0  0  0
   38.2860   31.8250   46.3090 C   0  0  0  0  0  0  0  0  0  0  0  0
   39.0650   32.2250   45.3020 N   0  0  0  0  0  0  0  0  0  0  0  0
   40.0430   32.9990   45.7520 C   0  0  0  0  0  0  0  0  0  0  0  0
   39.9180   33.1240   47.0950 N   0  0  0  0  0  0  0  0  0  0  0  0
   38.8380   32.4030   47.4380 C   0  0  0  0  0  0  0  0  0  0  0  0
   38.2530   32.1800   48.6570 C   0  0  0  0  0  0  0  0  0  0  0  0
   36.7700   31.3020   49.7660 H   0  0  0  0  0  0  0  0  0  0  0  0
   36.7140   30.5720   45.5200 H   0  0  0  0  0  0  0  0  0  0  0  0
   38.8550   31.9160   44.3130 H   0  0  0  0  0  0  0  0  0  0  0  0
   40.7680   33.4080   45.0470 H   0  0  0  0  0  0  0  0  0  0  0  0
   38.7210   32.6540   49.5270 H   0  0  0  0  0  0  0  0  0  0  0  0
   32.1000   27.4830   48.8710 C   0  0  0  0  0  0  0  0  0  0  0  0
   32.4960   26.5410   49.3560 H   0  0  0  0  0  0  0  0  0  0  0  0
   31.5240   27.9670   49.6760 H   0  0  0  0  0  0  0  0  0  0  0  0
   31.5740   26.0890   46.8620 C   0  0  0  0  0  0  0  0  0  0  0  0
   31.3140   27.1620   47.6780 C   0  0  0  0  0  0  0  0  0  0  0  0
   30.2470   27.9690   47.3650 C   0  0  0  0  0  0  0  0  0  0  0  0
   30.0080   28.8320   47.9880 H   0  0  0  0  0  0  0  0  0  0  0  0
   29.5060   27.6520   46.2590 C   0  0  0  0  0  0  0  0  0  0  0  0
   28.6580   28.2560   45.9690 H   0  0  0  0  0  0  0  0  0  0  0  0
   29.7580   26.5790   45.4340 C   0  0  0  0  0  3  0  0  0  0  0  0
   30.8220   25.7620   45.7330 C   0  0  0  0  0  3  0  0  0  0  0  0
   33.9430   24.9390   47.0910 N   0  0  0  0  0  0  0  0  0  0  0  0
   32.6930   25.2130   47.1110 C   0  0  0  0  0  3  0  0  0  0  0  0
   32.4440   23.9460   47.6970 N   0  0  0  0  0  1  0  0  0  0  0  0
   34.6490   25.5980   46.7210 H   0  0  0  0  0  0  0  0  0  0  0  0
   31.6440   23.4670   48.1610 H   0  0  0  0  0 15  0  0  0  0  0  0
   32.2700   23.0310   48.1200 H   0  0  0  0  0  0  0  0  0  0  0  0
  1  6  1  0  0  0  0
  1  7  1  0  0  0  0
  2  1  2  0  0  0  0
  3  4  2  0  0  0  0
  3  2  1  0  0  0  0
  4  5  1  0  0  0  0
  5 23  1  0  0  0  0
  5  6  2  0  0  0  0
  8  3  1  0  0  0  0
  9 18  1  0  0  0  0
 10  2  1  0  0  0  0
 10  9  2  0  0  0  0
 11 10  1  0  0  0  0
 12 11  2  0  0  0  0
 12 16  1  0  0  0  0
 13 14  1  0  0  0  0
 13 12  1  0  0  0  0
 14 15  2  0  0  0  0
 15 16  1  0  0  0  0
 16 17  2  0  0  0  0
 17  9  1  0  0  0  0
 17 22  1  0  0  0  0
 19 11  1  0  0  0  0
 20 13  1  0  0  0  0
 21 14  1  0  0  0  0
 23 24  1  0  0  0  0
 23 25  1  0  0  0  0
 26 35  1  0  0  0  0
 26 27  1  0  0  0  0
 27 23  1  0  0  0  0
 28 27  2  0  0  0  0
 28 29  1  0  0  0  0
 30 28  1  0  0  0  0
 31 30  1  0  0  0  0
 32 33  1  0  0  0  0
 32 30  2  0  0  0  0
 33 26  2  0  0  0  0
 34 35  2  0  0  0  0
 36 39  1  0  0  0  0
 37 34  1  0  0  0  0
M  END
>  <minimizedAffinity>
-5.41006613

>  <minimizedRMSD>
2.18079329

$$$$
