
 OpenBabel03272500473D

 37 40  0  0  1  0  0  0  0  0999 V2000
   38.7870   26.3450   34.5000 C   0  0  1  0  0  0  0  0  0  0  0  0
   38.4660   26.3060   36.0040 C   0  0  0  0  0  0  0  0  0  0  0  0
   38.6890   25.0520   35.2090 C   0  0  2  0  0  0  0  0  0  0  0  0
   39.8220   26.6110   34.1890 H   0  0  0  0  0  0  0  0  0  0  0  0
   39.3290   26.6960   36.6230 H   0  0  0  0  0  0  0  0  0  0  0  0
   37.4500   26.5900   36.3110 H   0  0  0  0  0  0  0  0  0  0  0  0
   37.7630   24.4490   35.0840 H   0  0  0  0  0  0  0  0  0  0  0  0
   39.8040   23.3220   36.6290 C   0  0  0  0  0  0  0  0  0  0  0  0
   39.8620   24.2740   35.6390 C   0  0  0  0  0  0  0  0  0  0  0  0
   41.0540   24.5700   35.0150 C   0  0  0  0  0  0  0  0  0  0  0  0
   41.1110   25.3180   34.2320 H   0  0  0  0  0  0  0  0  0  0  0  0
   42.1700   23.8590   35.4420 C   0  0  0  0  0  0  0  0  0  0  0  0
   43.1150   24.0930   34.9490 H   0  0  0  0  0  0  0  0  0  0  0  0
   42.1290   22.9010   36.4370 C   0  0  0  0  0  3  0  0  0  0  0  0
   40.9240   22.6160   37.0520 C   0  0  0  0  0  3  0  0  0  0  0  0
   37.3590   22.5500   37.0290 N   0  0  0  0  0  0  0  0  0  0  0  0
   38.5830   22.9300   37.3060 C   0  0  0  0  0  0  0  0  0  0  0  0
   38.5140   22.8890   38.7340 N   0  0  0  0  0  0  0  0  0  0  0  0
   36.7830   22.3590   37.8690 H   0  0  0  0  0  0  0  0  0  0  0  0
   39.0830   22.2590   39.3330 H   0  0  0  0  0  0  0  0  0  0  0  0
   37.9100   23.4570   39.4000 H   0  0  0  0  0  0  0  0  0  0  0  0
   36.2000   27.9900   32.6390 C   0  0  0  0  0  0  0  0  0  0  0  0
   36.2070   26.7410   32.0110 C   0  0  0  0  0  0  0  0  0  0  0  0
   37.1870   25.9610   32.6370 C   0  0  0  0  0  0  0  0  0  0  0  0
   37.7290   26.7280   33.5910 N   0  0  0  0  0  0  0  0  0  0  0  0
   37.1330   27.9100   33.5710 N   0  0  0  0  0  0  0  0  0  0  0  0
   35.5850   26.4030   31.1900 H   0  0  0  0  0  0  0  0  0  0  0  0
   37.4680   24.9320   32.4070 H   0  0  0  0  0  0  0  0  0  0  0  0
   34.0150   29.1940   32.7720 C   0  0  0  0  0  0  0  0  0  0  0  0
   35.3070   29.0530   32.2470 C   0  0  0  0  0  0  0  0  0  0  0  0
   35.7110   29.9880   31.3150 C   0  0  0  0  0  0  0  0  0  0  0  0
   34.8420   30.9850   30.9610 N   0  0  0  0  0  0  0  0  0  0  0  0
   33.6110   31.0760   31.4960 C   0  0  0  0  0  0  0  0  0  0  0  0
   33.1840   30.1790   32.4090 N   0  0  0  0  0  0  0  0  0  0  0  0
   33.6910   28.4630   33.5050 H   0  0  0  0  0  0  0  0  0  0  0  0
   36.6800   29.9360   30.8790 H   0  0  0  0  0  0  0  0  0  0  0  0
   33.0820   31.9390   31.0810 H   0  0  0  0  0  0  0  0  0  0  0  0
  1  4  1  6  0  0  0
  1  3  1  0  0  0  0
  1  2  1  0  0  0  0
  2  6  1  0  0  0  0
  2  5  1  0  0  0  0
  3  7  1  6  0  0  0
  3  9  1  0  0  0  0
  3  2  1  0  0  0  0
  8 15  1  0  0  0  0
  8 17  1  0  0  0  0
  9  8  2  0  0  0  0
 10 12  2  0  0  0  0
 10  9  1  0  0  0  0
 11 10  1  0  0  0  0
 12 14  1  0  0  0  0
 13 12  1  0  0  0  0
 14 15  2  0  0  0  0
 16 17  2  0  0  0  0
 16 19  1  0  0  0  0
 17 18  1  0  0  0  0
 18 20  1  0  0  0  0
 18 21  1  0  0  0  0
 22 26  2  0  0  0  0
 23 24  2  0  0  0  0
 23 22  1  0  0  0  0
 24 25  1  0  0  0  0
 25  1  1  0  0  0  0
 26 25  1  0  0  0  0
 27 23  1  0  0  0  0
 28 24  1  0  0  0  0
 29 35  1  0  0  0  0
 30 22  1  0  0  0  0
 30 29  2  0  0  0  0
 31 30  1  0  0  0  0
 32 31  2  0  0  0  0
 32 33  1  0  0  0  0
 33 34  2  0  0  0  0
 34 29  1  0  0  0  0
 36 31  1  0  0  0  0
 37 33  1  0  0  0  0
M  END
>  <minimizedAffinity>
-5.70671177

$$$$

 OpenBabel03272500473D

 37 40  0  0  1  0  0  0  0  0999 V2000
   38.3630   26.7330   34.8430 C   0  0  1  0  0  0  0  0  0  0  0  0
   38.9340   26.9810   33.4370 C   0  0  0  0  0  0  0  0  0  0  0  0
   37.4660   26.7700   33.6690 C   0  0  2  0  0  0  0  0  0  0  0  0
   38.2480   27.6040   35.5270 H   0  0  0  0  0  0  0  0  0  0  0  0
   39.3000   28.0460   33.3190 H   0  0  0  0  0  0  0  0  0  0  0  0
   39.5410   26.1820   32.9900 H   0  0  0  0  0  0  0  0  0  0  0  0
   37.0970   25.8070   33.2550 H   0  0  0  0  0  0  0  0  0  0  0  0
   36.2870   28.2460   32.0300 C   0  0  0  0  0  0  0  0  0  0  0  0
   36.6340   27.9350   33.3240 C   0  0  0  0  0  0  0  0  0  0  0  0
   36.2360   28.7350   34.3730 C   0  0  0  0  0  0  0  0  0  0  0  0
   36.5040   28.4980   35.3970 H   0  0  0  0  0  0  0  0  0  0  0  0
   35.4780   29.8530   34.0450 C   0  0  0  0  0  0  0  0  0  0  0  0
   35.1620   30.4880   34.8750 H   0  0  0  0  0  0  0  0  0  0  0  0
   35.1220   30.1810   32.7510 C   0  0  0  0  0  3  0  0  0  0  0  0
   35.5290   29.3660   31.7100 C   0  0  0  0  0  3  0  0  0  0  0  0
   37.6080   27.2910   30.0110 N   0  0  0  0  0  0  0  0  0  0  0  0
   36.6370   27.4350   30.8800 C   0  0  0  0  0  0  0  0  0  0  0  0
   35.7540   26.4150   30.4030 N   0  0  0  0  0  0  0  0  0  0  0  0
   37.4330   26.5440   29.3140 H   0  0  0  0  0  0  0  0  0  0  0  0
   35.4750   25.5760   30.9480 H   0  0  0  0  0  0  0  0  0  0  0  0
   35.2540   26.3350   29.4680 H   0  0  0  0  0  0  0  0  0  0  0  0
   39.7580   23.6510   36.0350 C   0  0  0  0  0  0  0  0  0  0  0  0
   38.4970   23.6070   36.6380 C   0  0  0  0  0  0  0  0  0  0  0  0
   37.8110   24.7680   36.2630 C   0  0  0  0  0  0  0  0  0  0  0  0
   38.6410   25.4600   35.4720 N   0  0  0  0  0  0  0  0  0  0  0  0
   39.7740   24.7840   35.3550 N   0  0  0  0  0  0  0  0  0  0  0  0
   38.0930   22.8350   37.2830 H   0  0  0  0  0  0  0  0  0  0  0  0
   36.8010   25.0680   36.5470 H   0  0  0  0  0  0  0  0  0  0  0  0
   41.5310   22.1270   35.1540 C   0  0  0  0  0  0  0  0  0  0  0  0
   40.7400   22.6080   36.2070 C   0  0  0  0  0  0  0  0  0  0  0  0
   40.9330   22.0370   37.4480 C   0  0  0  0  0  0  0  0  0  0  0  0
   41.8710   21.0480   37.5810 N   0  0  0  0  0  0  0  0  0  0  0  0
   42.6050   20.6220   36.5380 C   0  0  0  0  0  0  0  0  0  0  0  0
   42.4410   21.1580   35.3100 N   0  0  0  0  0  0  0  0  0  0  0  0
   41.3840   22.5710   34.1750 H   0  0  0  0  0  0  0  0  0  0  0  0
   40.3640   22.3590   38.2880 H   0  0  0  0  0  0  0  0  0  0  0  0
   43.2910   19.8310   36.8570 H   0  0  0  0  0  0  0  0  0  0  0  0
  1 25  1  0  0  0  0
  1  4  1  1  0  0  0
  2  3  1  0  0  0  0
  2  1  1  0  0  0  0
  3  7  1  6  0  0  0
  3  1  1  0  0  0  0
  5  2  1  0  0  0  0
  6  2  1  0  0  0  0
  8  9  1  0  0  0  0
  9  3  1  0  0  0  0
  9 10  2  0  0  0  0
 10 11  1  0  0  0  0
 12 10  1  0  0  0  0
 12 13  1  0  0  0  0
 14 12  2  0  0  0  0
 15  8  2  0  0  0  0
 15 14  1  0  0  0  0
 16 17  2  0  0  0  0
 17  8  1  0  0  0  0
 18 17  1  0  0  0  0
 18 20  1  0  0  0  0
 19 16  1  0  0  0  0
 21 18  1  0  0  0  0
 22 30  1  0  0  0  0
 22 23  1  0  0  0  0
 23 27  1  0  0  0  0
 24 28  1  0  0  0  0
 24 23  2  0  0  0  0
 25 24  1  0  0  0  0
 26 25  1  0  0  0  0
 26 22  2  0  0  0  0
 29 34  2  0  0  0  0
 29 30  1  0  0  0  0
 30 31  2  0  0  0  0
 31 32  1  0  0  0  0
 31 36  1  0  0  0  0
 33 37  1  0  0  0  0
 33 32  2  0  0  0  0
 34 33  1  0  0  0  0
 35 29  1  0  0  0  0
M  END
>  <minimizedAffinity>
-5.70579481

$$$$

 OpenBabel03272500473D

 37 40  0  0  1  0  0  0  0  0999 V2000
   39.9200   24.6670   34.3390 C   0  0  1  0  0  0  0  0  0  0  0  0
   41.3500   25.2280   34.2630 C   0  0  0  0  0  0  0  0  0  0  0  0
   40.8160   24.5880   35.5110 C   0  0  2  0  0  0  0  0  0  0  0  0
   39.7140   23.6820   33.8620 H   0  0  0  0  0  0  0  0  0  0  0  0
   42.0080   24.5980   33.5900 H   0  0  0  0  0  0  0  0  0  0  0  0
   41.4610   26.3190   34.2090 H   0  0  0  0  0  0  0  0  0  0  0  0
   40.6680   25.3140   36.3400 H   0  0  0  0  0  0  0  0  0  0  0  0
   41.0280   22.4710   36.8250 C   0  0  0  0  0  0  0  0  0  0  0  0
   41.5280   23.3610   35.9050 C   0  0  0  0  0  0  0  0  0  0  0  0
   42.7590   23.1550   35.3210 C   0  0  0  0  0  0  0  0  0  0  0  0
   43.1620   23.8510   34.5930 H   0  0  0  0  0  0  0  0  0  0  0  0
   43.4480   22.0140   35.7160 C   0  0  0  0  0  0  0  0  0  0  0  0
   44.4230   21.8500   35.2540 H   0  0  0  0  0  0  0  0  0  0  0  0
   42.9610   21.1100   36.6400 C   0  0  0  0  0  3  0  0  0  0  0  0
   41.7230   21.3320   37.2150 C   0  0  0  0  0  3  0  0  0  0  0  0
   39.1960   22.9590   38.5970 N   0  0  0  0  0  0  0  0  0  0  0  0
   39.7280   22.6000   37.4540 C   0  0  0  0  0  0  0  0  0  0  0  0
   38.5310   22.2730   36.7410 N   0  0  0  0  0  0  0  0  0  0  0  0
   38.1620   22.8940   38.6130 H   0  0  0  0  0  0  0  0  0  0  0  0
   38.2000   22.7650   35.8880 H   0  0  0  0  0  0  0  0  0  0  0  0
   37.8090   21.5180   36.9410 H   0  0  0  0  0  0  0  0  0  0  0  0
   37.4260   27.1460   33.6330 C   0  0  0  0  0  0  0  0  0  0  0  0
   37.1000   26.8310   34.9550 C   0  0  0  0  0  0  0  0  0  0  0  0
   38.0030   25.8520   35.3890 C   0  0  0  0  0  0  0  0  0  0  0  0
   38.8220   25.6090   34.3580 N   0  0  0  0  0  0  0  0  0  0  0  0
   38.4630   26.3790   33.3430 N   0  0  0  0  0  0  0  0  0  0  0  0
   36.3040   27.2440   35.5630 H   0  0  0  0  0  0  0  0  0  0  0  0
   38.0480   25.3710   36.3670 H   0  0  0  0  0  0  0  0  0  0  0  0
   36.8620   28.2840   31.4810 C   0  0  0  0  0  0  0  0  0  0  0  0
   36.6970   28.1250   32.8640 C   0  0  0  0  0  0  0  0  0  0  0  0
   35.7900   28.9580   33.4870 C   0  0  0  0  0  0  0  0  0  0  0  0
   35.1130   29.8790   32.7320 N   0  0  0  0  0  0  0  0  0  0  0  0
   35.3080   29.9900   31.4060 C   0  0  0  0  0  0  0  0  0  0  0  0
   36.1880   29.1910   30.7660 N   0  0  0  0  0  0  0  0  0  0  0  0
   37.5740   27.6320   30.9840 H   0  0  0  0  0  0  0  0  0  0  0  0
   35.6200   28.8880   34.5350 H   0  0  0  0  0  0  0  0  0  0  0  0
   34.6730   30.7810   30.9960 H   0  0  0  0  0  0  0  0  0  0  0  0
  1  4  1  6  0  0  0
  1 25  1  0  0  0  0
  1  3  1  0  0  0  0
  2  1  1  0  0  0  0
  2  3  1  0  0  0  0
  3  9  1  0  0  0  0
  3  7  1  1  0  0  0
  5  2  1  0  0  0  0
  6  2  1  0  0  0  0
  8 15  1  0  0  0  0
  8 17  1  0  0  0  0
  9  8  2  0  0  0  0
 10 12  2  0  0  0  0
 10  9  1  0  0  0  0
 11 10  1  0  0  0  0
 12 14  1  0  0  0  0
 13 12  1  0  0  0  0
 14 15  2  0  0  0  0
 16 19  1  0  0  0  0
 17 16  2  0  0  0  0
 18 21  1  0  0  0  0
 18 17  1  0  0  0  0
 20 18  1  0  0  0  0
 22 23  1  0  0  0  0
 23 24  2  0  0  0  0
 23 27  1  0  0  0  0
 24 28  1  0  0  0  0
 25 24  1  0  0  0  0
 26 22  2  0  0  0  0
 26 25  1  0  0  0  0
 29 30  1  0  0  0  0
 30 31  2  0  0  0  0
 30 22  1  0  0  0  0
 31 36  1  0  0  0  0
 32 31  1  0  0  0  0
 33 32  2  0  0  0  0
 34 33  1  0  0  0  0
 34 29  2  0  0  0  0
 35 29  1  0  0  0  0
 37 33  1  0  0  0  0
M  END
>  <minimizedAffinity>
-5.59088993

$$$$

 OpenBabel03272500473D

 37 40  0  0  1  0  0  0  0  0999 V2000
   37.6110   26.0630   35.4400 C   0  0  1  0  0  0  0  0  0  0  0  0
   38.2150   27.4540   35.6970 C   0  0  0  0  0  0  0  0  0  0  0  0
   38.3460   26.7670   34.3680 C   0  0  2  0  0  0  0  0  0  0  0  0
   36.5150   25.9890   35.2620 H   0  0  0  0  0  0  0  0  0  0  0  0
   37.4110   28.2430   35.8030 H   0  0  0  0  0  0  0  0  0  0  0  0
   39.0790   27.5120   36.3730 H   0  0  0  0  0  0  0  0  0  0  0  0
   39.3880   26.4510   34.1450 H   0  0  0  0  0  0  0  0  0  0  0  0
   38.2380   27.5970   32.0110 C   0  0  0  0  0  0  0  0  0  0  0  0
   37.6800   27.4760   33.2620 C   0  0  0  0  0  0  0  0  0  0  0  0
   36.4630   28.0530   33.5510 C   0  0  0  0  0  0  0  0  0  0  0  0
   36.0140   27.9630   34.5340 H   0  0  0  0  0  0  0  0  0  0  0  0
   35.8480   28.7510   32.5170 C   0  0  0  0  0  0  0  0  0  0  0  0
   34.8840   29.2090   32.7440 H   0  0  0  0  0  0  0  0  0  0  0  0
   36.3950   28.8830   31.2550 C   0  0  0  0  0  3  0  0  0  0  0  0
   37.6180   28.2970   30.9830 C   0  0  0  0  0  3  0  0  0  0  0  0
   40.7820   27.2400   31.6430 N   0  0  0  0  0  0  0  0  0  0  0  0
   39.4950   26.9880   31.6220 C   0  0  0  0  0  0  0  0  0  0  0  0
   39.5270   25.6990   31.0030 N   0  0  0  0  0  0  0  0  0  0  0  0
   41.3590   26.4830   31.2350 H   0  0  0  0  0  0  0  0  0  0  0  0
   39.2080   24.8200   31.4550 H   0  0  0  0  0  0  0  0  0  0  0  0
   39.8610   25.4230   30.0320 H   0  0  0  0  0  0  0  0  0  0  0  0
   39.6640   23.2910   36.4230 C   0  0  0  0  0  0  0  0  0  0  0  0
   38.7190   23.2830   37.4540 C   0  0  0  0  0  0  0  0  0  0  0  0
   37.8230   24.3310   37.2110 C   0  0  0  0  0  0  0  0  0  0  0  0
   38.2320   24.9250   36.0830 N   0  0  0  0  0  0  0  0  0  0  0  0
   39.3110   24.2970   35.6420 N   0  0  0  0  0  0  0  0  0  0  0  0
   38.6590   22.6070   38.3000 H   0  0  0  0  0  0  0  0  0  0  0  0
   36.9590   24.6220   37.8090 H   0  0  0  0  0  0  0  0  0  0  0  0
   41.3640   21.9780   35.1480 C   0  0  0  0  0  0  0  0  0  0  0  0
   40.7460   22.3400   36.3530 C   0  0  0  0  0  0  0  0  0  0  0  0
   41.2170   21.7410   37.5040 C   0  0  0  0  0  0  0  0  0  0  0  0
   42.2450   20.8420   37.4060 N   0  0  0  0  0  0  0  0  0  0  0  0
   42.8050   20.5290   36.2240 C   0  0  0  0  0  0  0  0  0  0  0  0
   42.3680   21.0960   35.0790 N   0  0  0  0  0  0  0  0  0  0  0  0
   40.9990   22.4460   34.2390 H   0  0  0  0  0  0  0  0  0  0  0  0
   40.7900   21.9730   38.4500 H   0  0  0  0  0  0  0  0  0  0  0  0
   43.6040   19.7950   36.3670 H   0  0  0  0  0  0  0  0  0  0  0  0
  1  4  1  6  0  0  0
  1  2  1  0  0  0  0
  1 25  1  0  0  0  0
  2  5  1  0  0  0  0
  2  6  1  0  0  0  0
  3  7  1  6  0  0  0
  3  1  1  0  0  0  0
  3  2  1  0  0  0  0
  8  9  1  0  0  0  0
  9 10  2  0  0  0  0
  9  3  1  0  0  0  0
 10 11  1  0  0  0  0
 12 13  1  0  0  0  0
 12 10  1  0  0  0  0
 14 12  2  0  0  0  0
 15 14  1  0  0  0  0
 15  8  2  0  0  0  0
 17 16  2  0  0  0  0
 17  8  1  0  0  0  0
 18 20  1  0  0  0  0
 18 17  1  0  0  0  0
 19 16  1  0  0  0  0
 21 18  1  0  0  0  0
 22 23  1  0  0  0  0
 23 27  1  0  0  0  0
 24 23  2  0  0  0  0
 24 28  1  0  0  0  0
 25 24  1  0  0  0  0
 26 25  1  0  0  0  0
 26 22  2  0  0  0  0
 29 30  1  0  0  0  0
 30 22  1  0  0  0  0
 30 31  2  0  0  0  0
 31 36  1  0  0  0  0
 32 31  1  0  0  0  0
 33 37  1  0  0  0  0
 33 32  2  0  0  0  0
 34 29  2  0  0  0  0
 34 33  1  0  0  0  0
 35 29  1  0  0  0  0
M  END
>  <minimizedAffinity>
-5.57966709

$$$$

 OpenBabel03272500473D

 37 40  0  0  1  0  0  0  0  0999 V2000
   39.2790   26.0260   34.3490 C   0  0  1  0  0  0  0  0  0  0  0  0
   38.7890   26.2000   35.7970 C   0  0  0  0  0  0  0  0  0  0  0  0
   38.8490   24.8520   35.1390 C   0  0  2  0  0  0  0  0  0  0  0  0
   40.3740   26.0620   34.1560 H   0  0  0  0  0  0  0  0  0  0  0  0
   39.6370   26.4840   36.4910 H   0  0  0  0  0  0  0  0  0  0  0  0
   37.8210   26.6970   35.9460 H   0  0  0  0  0  0  0  0  0  0  0  0
   37.8430   24.4220   34.9420 H   0  0  0  0  0  0  0  0  0  0  0  0
   39.5080   23.2620   36.9520 C   0  0  0  0  0  0  0  0  0  0  0  0
   39.7900   23.9180   35.7770 C   0  0  0  0  0  0  0  0  0  0  0  0
   41.0050   23.7510   35.1490 C   0  0  0  0  0  0  0  0  0  0  0  0
   41.2380   24.2630   34.2220 H   0  0  0  0  0  0  0  0  0  0  0  0
   41.9090   22.8930   35.7690 C   0  0  0  0  0  0  0  0  0  0  0  0
   42.8720   22.7600   35.2730 H   0  0  0  0  0  0  0  0  0  0  0  0
   41.6420   22.2270   36.9500 C   0  0  0  0  0  3  0  0  0  0  0  0
   40.4170   22.4070   37.5650 C   0  0  0  0  0  3  0  0  0  0  0  0
   37.6600   24.0780   38.5800 N   0  0  0  0  0  0  0  0  0  0  0  0
   38.2420   23.3590   37.6510 C   0  0  0  0  0  0  0  0  0  0  0  0
   37.1690   22.4590   37.3560 N   0  0  0  0  0  0  0  0  0  0  0  0
   36.6880   23.7840   38.7840 H   0  0  0  0  0  0  0  0  0  0  0  0
   36.6910   22.3940   36.4370 H   0  0  0  0  0  0  0  0  0  0  0  0
   36.6960   21.7410   37.9830 H   0  0  0  0  0  0  0  0  0  0  0  0
   37.7730   27.7090   31.5630 C   0  0  0  0  0  0  0  0  0  0  0  0
   36.7600   26.8000   31.8860 C   0  0  0  0  0  0  0  0  0  0  0  0
   37.2030   26.0490   32.9810 C   0  0  0  0  0  0  0  0  0  0  0  0
   38.4250   26.5030   33.2830 N   0  0  0  0  0  0  0  0  0  0  0  0
   38.7350   27.4750   32.4380 N   0  0  0  0  0  0  0  0  0  0  0  0
   35.7990   26.6720   31.4020 H   0  0  0  0  0  0  0  0  0  0  0  0
   36.6730   25.2490   33.5000 H   0  0  0  0  0  0  0  0  0  0  0  0
   37.0050   29.8830   30.6020 C   0  0  0  0  0  0  0  0  0  0  0  0
   37.6570   28.6490   30.4750 C   0  0  0  0  0  0  0  0  0  0  0  0
   38.1990   28.3490   29.2420 C   0  0  0  0  0  0  0  0  0  0  0  0
   38.0720   29.2600   28.2270 N   0  0  0  0  0  0  0  0  0  0  0  0
   37.4370   30.4330   28.4010 C   0  0  0  0  0  0  0  0  0  0  0  0
   36.8950   30.7570   29.5940 N   0  0  0  0  0  0  0  0  0  0  0  0
   36.5770   30.1250   31.5690 H   0  0  0  0  0  0  0  0  0  0  0  0
   38.7060   27.4280   29.0810 H   0  0  0  0  0  0  0  0  0  0  0  0
   37.4480   31.0100   27.4720 H   0  0  0  0  0  0  0  0  0  0  0  0
  1  4  1  6  0  0  0
  1  3  1  0  0  0  0
  1  2  1  0  0  0  0
  2  6  1  0  0  0  0
  2  5  1  0  0  0  0
  3  7  1  6  0  0  0
  3  9  1  0  0  0  0
  3  2  1  0  0  0  0
  8 15  1  0  0  0  0
  8 17  1  0  0  0  0
  9  8  2  0  0  0  0
 10 12  2  0  0  0  0
 10  9  1  0  0  0  0
 11 10  1  0  0  0  0
 12 14  1  0  0  0  0
 13 12  1  0  0  0  0
 14 15  2  0  0  0  0
 16 19  1  0  0  0  0
 17 16  2  0  0  0  0
 18 17  1  0  0  0  0
 18 21  1  0  0  0  0
 20 18  1  0  0  0  0
 22 23  1  0  0  0  0
 22 26  2  0  0  0  0
 23 24  2  0  0  0  0
 24 25  1  0  0  0  0
 24 28  1  0  0  0  0
 25  1  1  0  0  0  0
 26 25  1  0  0  0  0
 27 23  1  0  0  0  0
 29 35  1  0  0  0  0
 30 29  1  0  0  0  0
 30 22  1  0  0  0  0
 31 30  2  0  0  0  0
 32 33  2  0  0  0  0
 32 31  1  0  0  0  0
 33 34  1  0  0  0  0
 34 29  2  0  0  0  0
 36 31  1  0  0  0  0
 37 33  1  0  0  0  0
M  END
>  <minimizedAffinity>
-5.45707083

$$$$

 OpenBabel03272500473D

 37 40  0  0  1  0  0  0  0  0999 V2000
   39.2890   24.4920   34.0580 C   0  0  1  0  0  0  0  0  0  0  0  0
   39.0320   24.8040   35.5420 C   0  0  0  0  0  0  0  0  0  0  0  0
   39.9990   23.7390   35.1130 C   0  0  2  0  0  0  0  0  0  0  0  0
   39.9430   25.1830   33.4800 H   0  0  0  0  0  0  0  0  0  0  0  0
   39.4570   25.8110   35.8350 H   0  0  0  0  0  0  0  0  0  0  0  0
   38.0530   24.5240   35.9550 H   0  0  0  0  0  0  0  0  0  0  0  0
   39.6490   22.7120   35.3570 H   0  0  0  0  0  0  0  0  0  0  0  0
   42.0650   23.2610   36.4390 C   0  0  0  0  0  0  0  0  0  0  0  0
   41.3940   24.0080   35.5000 C   0  0  0  0  0  0  0  0  0  0  0  0
   42.0010   25.0840   34.8890 C   0  0  0  0  0  0  0  0  0  0  0  0
   41.4810   25.6790   34.1470 H   0  0  0  0  0  0  0  0  0  0  0  0
   43.3070   25.3600   35.2780 C   0  0  0  0  0  0  0  0  0  0  0  0
   43.7890   26.2120   34.7950 H   0  0  0  0  0  0  0  0  0  0  0  0
   43.9950   24.6200   36.2210 C   0  0  0  0  0  3  0  0  0  0  0  0
   43.3700   23.5430   36.8220 C   0  0  0  0  0  3  0  0  0  0  0  0
   41.6980   20.8000   37.1780 N   0  0  0  0  0  0  0  0  0  0  0  0
   41.5070   22.0950   37.0960 C   0  0  0  0  0  0  0  0  0  0  0  0
   40.3830   22.2130   37.9740 N   0  0  0  0  0  0  0  0  0  0  0  0
   41.0250   20.3200   37.8020 H   0  0  0  0  0  0  0  0  0  0  0  0
   40.3840   22.7500   38.8630 H   0  0  0  0  0  0  0  0  0  0  0  0
   39.4080   21.8000   37.8840 H   0  0  0  0  0  0  0  0  0  0  0  0
   36.9360   22.2090   32.6060 C   0  0  0  0  0  0  0  0  0  0  0  0
   36.5670   23.3940   31.9610 C   0  0  0  0  0  0  0  0  0  0  0  0
   37.4120   24.4070   32.4300 C   0  0  0  0  0  0  0  0  0  0  0  0
   38.2390   23.8330   33.3130 N   0  0  0  0  0  0  0  0  0  0  0  0
   37.9390   22.5460   33.3970 N   0  0  0  0  0  0  0  0  0  0  0  0
   35.7800   23.5400   31.2300 H   0  0  0  0  0  0  0  0  0  0  0  0
   37.4130   25.4600   32.1460 H   0  0  0  0  0  0  0  0  0  0  0  0
   36.9630   19.7430   32.2020 C   0  0  0  0  0  0  0  0  0  0  0  0
   36.2710   20.9520   32.3620 C   0  0  0  0  0  0  0  0  0  0  0  0
   34.8950   20.9030   32.2750 C   0  0  0  0  0  0  0  0  0  0  0  0
   34.2910   19.6950   32.0420 N   0  0  0  0  0  0  0  0  0  0  0  0
   35.0020   18.5630   31.8970 C   0  0  0  0  0  0  0  0  0  0  0  0
   36.3490   18.5760   31.9750 N   0  0  0  0  0  0  0  0  0  0  0  0
   38.0460   19.7750   32.2690 H   0  0  0  0  0  0  0  0  0  0  0  0
   34.3120   21.7850   32.3870 H   0  0  0  0  0  0  0  0  0  0  0  0
   34.3320   17.7170   31.7190 H   0  0  0  0  0  0  0  0  0  0  0  0
  1  4  1  6  0  0  0
  1  3  1  0  0  0  0
  1  2  1  0  0  0  0
  2  5  1  0  0  0  0
  2  6  1  0  0  0  0
  3  7  1  1  0  0  0
  3  9  1  0  0  0  0
  3  2  1  0  0  0  0
  8 15  1  0  0  0  0
  8 17  1  0  0  0  0
  9  8  2  0  0  0  0
 10 12  2  0  0  0  0
 10  9  1  0  0  0  0
 11 10  1  0  0  0  0
 12 14  1  0  0  0  0
 13 12  1  0  0  0  0
 14 15  2  0  0  0  0
 16 19  1  0  0  0  0
 17 16  2  0  0  0  0
 17 18  1  0  0  0  0
 18 20  1  0  0  0  0
 21 18  1  0  0  0  0
 22 26  2  0  0  0  0
 23 24  2  0  0  0  0
 23 22  1  0  0  0  0
 24 25  1  0  0  0  0
 25 26  1  0  0  0  0
 25  1  1  0  0  0  0
 27 23  1  0  0  0  0
 28 24  1  0  0  0  0
 29 35  1  0  0  0  0
 29 30  1  0  0  0  0
 30 22  1  0  0  0  0
 31 30  2  0  0  0  0
 31 36  1  0  0  0  0
 32 31  1  0  0  0  0
 33 34  1  0  0  0  0
 33 32  2  0  0  0  0
 34 29  2  0  0  0  0
 37 33  1  0  0  0  0
M  END
>  <minimizedAffinity>
-5.44393969

$$$$

 OpenBabel03272500473D

 37 40  0  0  1  0  0  0  0  0999 V2000
   35.7790   29.9870   32.7380 C   0  0  1  0  0  0  0  0  0  0  0  0
   34.3410   30.4500   32.4490 C   0  0  0  0  0  0  0  0  0  0  0  0
   34.7030   29.7380   33.7200 C   0  0  2  0  0  0  0  0  0  0  0  0
   36.5220   30.7480   33.0660 H   0  0  0  0  0  0  0  0  0  0  0  0
   34.2530   31.5780   32.4860 H   0  0  0  0  0  0  0  0  0  0  0  0
   33.7890   29.9210   31.6600 H   0  0  0  0  0  0  0  0  0  0  0  0
   34.2690   28.7170   33.7820 H   0  0  0  0  0  0  0  0  0  0  0  0
   33.3430   30.5460   35.6570 C   0  0  0  0  0  0  0  0  0  0  0  0
   34.5120   30.5500   34.9340 C   0  0  0  0  0  0  0  0  0  0  0  0
   35.5680   31.3550   35.3030 C   0  0  0  0  0  0  0  0  0  0  0  0
   36.4940   31.3650   34.7400 H   0  0  0  0  0  0  0  0  0  0  0  0
   35.3770   32.1460   36.4300 C   0  0  0  0  0  0  0  0  0  0  0  0
   36.2120   32.7850   36.7240 H   0  0  0  0  0  0  0  0  0  0  0  0
   34.2080   32.1550   37.1670 C   0  0  0  0  0  3  0  0  0  0  0  0
   33.1600   31.3410   36.7820 C   0  0  0  0  0  3  0  0  0  0  0  0
   31.1820   29.6510   34.5330 N   0  0  0  0  0  0  0  0  0  0  0  0
   32.2050   29.7010   35.3520 C   0  0  0  0  0  0  0  0  0  0  0  0
   31.9690   28.4930   36.0820 N   0  0  0  0  0  0  0  0  0  0  0  0
   30.5810   28.8180   34.6710 H   0  0  0  0  0  0  0  0  0  0  0  0
   32.6100   27.6770   36.0920 H   0  0  0  0  0  0  0  0  0  0  0  0
   31.1490   28.2290   36.7060 H   0  0  0  0  0  0  0  0  0  0  0  0
   36.6590   26.7900   31.3690 C   0  0  0  0  0  0  0  0  0  0  0  0
   37.3440   27.6370   30.4920 C   0  0  0  0  0  0  0  0  0  0  0  0
   37.0970   28.9540   30.9000 C   0  0  0  0  0  0  0  0  0  0  0  0
   36.3000   28.8750   31.9720 N   0  0  0  0  0  0  0  0  0  0  0  0
   36.0590   27.5980   32.2260 N   0  0  0  0  0  0  0  0  0  0  0  0
   37.9600   27.3630   29.6430 H   0  0  0  0  0  0  0  0  0  0  0  0
   37.4700   29.8740   30.4480 H   0  0  0  0  0  0  0  0  0  0  0  0
   37.8520   24.6430   30.9160 C   0  0  0  0  0  0  0  0  0  0  0  0
   36.6900   25.3540   31.2460 C   0  0  0  0  0  0  0  0  0  0  0  0
   35.5420   24.6170   31.4550 C   0  0  0  0  0  0  0  0  0  0  0  0
   35.6000   23.2540   31.3300 N   0  0  0  0  0  0  0  0  0  0  0  0
   36.7420   22.6200   31.0120 C   0  0  0  0  0  0  0  0  0  0  0  0
   37.8830   23.3100   30.8010 N   0  0  0  0  0  0  0  0  0  0  0  0
   38.7590   25.2160   30.7510 H   0  0  0  0  0  0  0  0  0  0  0  0
   34.6270   25.0970   31.7080 H   0  0  0  0  0  0  0  0  0  0  0  0
   36.5730   21.5400   30.9630 H   0  0  0  0  0  0  0  0  0  0  0  0
  1  4  1  1  0  0  0
  1  3  1  0  0  0  0
  2  5  1  0  0  0  0
  2  1  1  0  0  0  0
  2  3  1  0  0  0  0
  3  7  1  1  0  0  0
  3  9  1  0  0  0  0
  6  2  1  0  0  0  0
  8 15  1  0  0  0  0
  9 10  1  0  0  0  0
  9  8  2  0  0  0  0
 10 12  2  0  0  0  0
 11 10  1  0  0  0  0
 12 13  1  0  0  0  0
 12 14  1  0  0  0  0
 15 14  2  0  0  0  0
 16 19  1  0  0  0  0
 16 17  2  0  0  0  0
 17  8  1  0  0  0  0
 17 18  1  0  0  0  0
 18 20  1  0  0  0  0
 18 21  1  0  0  0  0
 22 26  2  0  0  0  0
 23 24  2  0  0  0  0
 23 22  1  0  0  0  0
 24 25  1  0  0  0  0
 25 26  1  0  0  0  0
 25  1  1  0  0  0  0
 27 23  1  0  0  0  0
 28 24  1  0  0  0  0
 29 30  1  0  0  0  0
 30 22  1  0  0  0  0
 30 31  2  0  0  0  0
 31 36  1  0  0  0  0
 32 31  1  0  0  0  0
 33 32  2  0  0  0  0
 34 29  2  0  0  0  0
 34 33  1  0  0  0  0
 35 29  1  0  0  0  0
 37 33  1  0  0  0  0
M  END
>  <minimizedAffinity>
-5.37036562

$$$$

 OpenBabel03272500473D

 37 40  0  0  1  0  0  0  0  0999 V2000
   35.5610   30.0200   33.9640 C   0  0  1  0  0  0  0  0  0  0  0  0
   34.0610   30.1670   33.6570 C   0  0  0  0  0  0  0  0  0  0  0  0
   34.5750   30.0770   35.0640 C   0  0  2  0  0  0  0  0  0  0  0  0
   36.2050   30.9250   33.8900 H   0  0  0  0  0  0  0  0  0  0  0  0
   33.8190   31.1960   33.2510 H   0  0  0  0  0  0  0  0  0  0  0  0
   33.5520   29.3070   33.2010 H   0  0  0  0  0  0  0  0  0  0  0  0
   34.2900   29.1280   35.5690 H   0  0  0  0  0  0  0  0  0  0  0  0
   33.1650   31.4890   36.5720 C   0  0  0  0  0  0  0  0  0  0  0  0
   34.3290   31.2850   35.8680 C   0  0  0  0  0  0  0  0  0  0  0  0
   35.3240   32.2390   35.8590 C   0  0  0  0  0  0  0  0  0  0  0  0
   36.2450   32.0880   35.3090 H   0  0  0  0  0  0  0  0  0  0  0  0
   35.0790   33.3950   36.5920 C   0  0  0  0  0  0  0  0  0  0  0  0
   35.8660   34.1510   36.5850 H   0  0  0  0  0  0  0  0  0  0  0  0
   33.9150   33.6160   37.3030 C   0  0  0  0  0  3  0  0  0  0  0  0
   32.9270   32.6480   37.3010 C   0  0  0  0  0  3  0  0  0  0  0  0
   31.1020   30.0490   35.9370 N   0  0  0  0  0  0  0  0  0  0  0  0
   32.0910   30.5190   36.6580 C   0  0  0  0  0  0  0  0  0  0  0  0
   31.9020   29.7340   37.8390 N   0  0  0  0  0  0  0  0  0  0  0  0
   30.5470   29.3180   36.4190 H   0  0  0  0  0  0  0  0  0  0  0  0
   32.5910   29.0480   38.2060 H   0  0  0  0  0  0  0  0  0  0  0  0
   31.0790   29.7100   38.5120 H   0  0  0  0  0  0  0  0  0  0  0  0
   37.1380   26.7990   33.9970 C   0  0  0  0  0  0  0  0  0  0  0  0
   37.0850   27.0400   32.6200 C   0  0  0  0  0  0  0  0  0  0  0  0
   36.4810   28.2900   32.4350 C   0  0  0  0  0  0  0  0  0  0  0  0
   36.1940   28.7570   33.6560 N   0  0  0  0  0  0  0  0  0  0  0  0
   36.5890   27.8650   34.5520 N   0  0  0  0  0  0  0  0  0  0  0  0
   37.4350   26.4020   31.8170 H   0  0  0  0  0  0  0  0  0  0  0  0
   36.2760   28.7990   31.4920 H   0  0  0  0  0  0  0  0  0  0  0  0
   37.9540   25.4360   35.9240 C   0  0  0  0  0  0  0  0  0  0  0  0
   37.7020   25.5950   34.5540 C   0  0  0  0  0  0  0  0  0  0  0  0
   38.0200   24.5340   33.7300 C   0  0  0  0  0  0  0  0  0  0  0  0
   38.5550   23.4030   34.2880 N   0  0  0  0  0  0  0  0  0  0  0  0
   38.7770   23.3010   35.6100 C   0  0  0  0  0  0  0  0  0  0  0  0
   38.4780   24.3190   36.4440 N   0  0  0  0  0  0  0  0  0  0  0  0
   37.7060   26.2650   36.5780 H   0  0  0  0  0  0  0  0  0  0  0  0
   37.8530   24.5930   32.6820 H   0  0  0  0  0  0  0  0  0  0  0  0
   39.2060   22.3220   35.8460 H   0  0  0  0  0  0  0  0  0  0  0  0
  1  4  1  6  0  0  0
  1  3  1  0  0  0  0
  2  1  1  0  0  0  0
  2  3  1  0  0  0  0
  3  7  1  1  0  0  0
  3  9  1  0  0  0  0
  5  2  1  0  0  0  0
  6  2  1  0  0  0  0
  8 17  1  0  0  0  0
  8 15  1  0  0  0  0
  9  8  2  0  0  0  0
 10  9  1  0  0  0  0
 10 12  2  0  0  0  0
 11 10  1  0  0  0  0
 12 14  1  0  0  0  0
 13 12  1  0  0  0  0
 15 14  2  0  0  0  0
 16 19  1  0  0  0  0
 16 17  2  0  0  0  0
 17 18  1  0  0  0  0
 18 20  1  0  0  0  0
 18 21  1  0  0  0  0
 22 26  2  0  0  0  0
 22 30  1  0  0  0  0
 23 22  1  0  0  0  0
 24 23  2  0  0  0  0
 24 25  1  0  0  0  0
 25  1  1  0  0  0  0
 25 26  1  0  0  0  0
 27 23  1  0  0  0  0
 28 24  1  0  0  0  0
 29 34  1  0  0  0  0
 29 35  1  0  0  0  0
 30 29  2  0  0  0  0
 31 32  2  0  0  0  0
 31 30  1  0  0  0  0
 32 33  1  0  0  0  0
 33 37  1  0  0  0  0
 33 34  2  0  0  0  0
 36 31  1  0  0  0  0
M  END
>  <minimizedAffinity>
-5.36360359

$$$$

 OpenBabel03272500473D

 37 40  0  0  1  0  0  0  0  0999 V2000
   38.4110   26.7700   34.5920 C   0  0  1  0  0  0  0  0  0  0  0  0
   38.1680   27.2310   36.0390 C   0  0  0  0  0  0  0  0  0  0  0  0
   37.6880   25.8990   35.5420 C   0  0  2  0  0  0  0  0  0  0  0  0
   39.4240   26.3980   34.3200 H   0  0  0  0  0  0  0  0  0  0  0  0
   39.1310   27.2540   36.6350 H   0  0  0  0  0  0  0  0  0  0  0  0
   37.4530   28.0500   36.1950 H   0  0  0  0  0  0  0  0  0  0  0  0
   36.5810   25.8390   35.4670 H   0  0  0  0  0  0  0  0  0  0  0  0
   38.9570   23.7440   35.5410 C   0  0  0  0  0  0  0  0  0  0  0  0
   38.3100   24.7490   36.2200 C   0  0  0  0  0  0  0  0  0  0  0  0
   38.1850   24.7080   37.5910 C   0  0  0  0  0  0  0  0  0  0  0  0
   37.6780   25.4950   38.1360 H   0  0  0  0  0  0  0  0  0  0  0  0
   38.7430   23.6060   38.2300 C   0  0  0  0  0  0  0  0  0  0  0  0
   38.6450   23.5710   39.3160 H   0  0  0  0  0  0  0  0  0  0  0  0
   39.3960   22.5860   37.5630 C   0  0  0  0  0  3  0  0  0  0  0  0
   39.5120   22.6450   36.1860 C   0  0  0  0  0  3  0  0  0  0  0  0
   38.4880   23.5330   32.9970 N   0  0  0  0  0  0  0  0  0  0  0  0
   39.1600   23.7360   34.1050 C   0  0  0  0  0  0  0  0  0  0  0  0
   40.4440   24.0200   33.5420 N   0  0  0  0  0  0  0  0  0  0  0  0
   39.0620   23.6350   32.1400 H   0  0  0  0  0  0  0  0  0  0  0  0
   40.9410   24.9270   33.6370 H   0  0  0  0  0  0  0  0  0  0  0  0
   41.0820   23.3970   32.9630 H   0  0  0  0  0  0  0  0  0  0  0  0
   36.0900   28.6230   32.5810 C   0  0  0  0  0  0  0  0  0  0  0  0
   36.9800   28.1810   31.5970 C   0  0  0  0  0  0  0  0  0  0  0  0
   37.9700   27.4240   32.2350 C   0  0  0  0  0  0  0  0  0  0  0  0
   37.6680   27.4260   33.5390 N   0  0  0  0  0  0  0  0  0  0  0  0
   36.5630   28.1350   33.7150 N   0  0  0  0  0  0  0  0  0  0  0  0
   36.9420   28.3700   30.5300 H   0  0  0  0  0  0  0  0  0  0  0  0
   38.8250   26.9240   31.7780 H   0  0  0  0  0  0  0  0  0  0  0  0
   33.6690   29.1920   32.8230 C   0  0  0  0  0  0  0  0  0  0  0  0
   34.9380   29.4370   32.2800 C   0  0  0  0  0  0  0  0  0  0  0  0
   35.0560   30.5120   31.4220 C   0  0  0  0  0  0  0  0  0  0  0  0
   33.9450   31.2670   31.1530 N   0  0  0  0  0  0  0  0  0  0  0  0
   32.7490   30.9890   31.7020 C   0  0  0  0  0  0  0  0  0  0  0  0
   32.5990   29.9450   32.5440 N   0  0  0  0  0  0  0  0  0  0  0  0
   33.5700   28.3480   33.4980 H   0  0  0  0  0  0  0  0  0  0  0  0
   35.9920   30.7510   30.9770 H   0  0  0  0  0  0  0  0  0  0  0  0
   32.0000   31.7080   31.3590 H   0  0  0  0  0  0  0  0  0  0  0  0
  1  4  1  6  0  0  0
  1  3  1  0  0  0  0
  1  2  1  0  0  0  0
  2  6  1  0  0  0  0
  2  5  1  0  0  0  0
  3  7  1  6  0  0  0
  3  2  1  0  0  0  0
  3  9  1  0  0  0  0
  8 15  2  0  0  0  0
  8  9  1  0  0  0  0
  9 10  2  0  0  0  0
 10 11  1  0  0  0  0
 10 12  1  0  0  0  0
 12 13  1  0  0  0  0
 14 12  2  0  0  0  0
 15 14  1  0  0  0  0
 16 17  2  0  0  0  0
 17  8  1  0  0  0  0
 18 20  1  0  0  0  0
 18 17  1  0  0  0  0
 19 16  1  0  0  0  0
 21 18  1  0  0  0  0
 22 26  2  0  0  0  0
 23 24  2  0  0  0  0
 23 22  1  0  0  0  0
 24 25  1  0  0  0  0
 25 26  1  0  0  0  0
 25  1  1  0  0  0  0
 27 23  1  0  0  0  0
 28 24  1  0  0  0  0
 29 35  1  0  0  0  0
 30 22  1  0  0  0  0
 30 29  2  0  0  0  0
 31 30  1  0  0  0  0
 32 31  2  0  0  0  0
 32 33  1  0  0  0  0
 33 34  2  0  0  0  0
 34 29  1  0  0  0  0
 36 31  1  0  0  0  0
 37 33  1  0  0  0  0
M  END
>  <minimizedAffinity>
-5.3571558

$$$$
