
 OpenBabel03272508123D

 39 41  0  0  0  0  0  0  0  0999 V2000
   36.7170   29.4490   44.1420 Cl  0  0  0  0  0  0  0  0  0  0  0  0
   38.3660   29.8270   43.6180 C   0  0  0  0  0  0  0  0  0  0  0  0
   39.3530   30.3260   44.4550 C   0  0  0  0  0  0  0  0  0  0  0  0
   40.6070   30.5770   43.9020 C   0  0  0  0  0  0  0  0  0  0  0  0
   40.8450   30.3320   42.5700 C   0  0  0  0  0  0  0  0  0  0  0  0
   39.8760   29.8390   41.7360 C   0  0  0  0  0  0  0  0  0  0  0  0
   38.6480   29.5890   42.2590 C   0  0  0  0  0  0  0  0  0  0  0  0
   41.3130   30.9660   44.6320 H   0  0  0  0  0  0  0  0  0  0  0  0
   41.8590   30.5690   42.2630 H   0  0  0  0  0  0  0  0  0  0  0  0
   40.1320   29.6680   40.6890 H   0  0  0  0  0  0  0  0  0  0  0  0
   36.8670   30.0480   40.7600 C   0  0  0  0  0  0  0  0  0  0  0  0
   37.6350   29.0620   41.3430 C   0  0  0  0  0  0  0  0  0  0  0  0
   37.3970   27.7390   41.0300 C   0  0  0  0  0  0  0  0  0  0  0  0
   38.0500   27.0360   41.5370 H   0  0  0  0  0  0  0  0  0  0  0  0
   36.3980   27.4040   40.1400 C   0  0  0  0  0  0  0  0  0  0  0  0
   36.2570   26.3420   39.9320 H   0  0  0  0  0  0  0  0  0  0  0  0
   35.6070   28.3640   39.5360 C   0  0  0  0  0  3  0  0  0  0  0  0
   35.8560   29.6930   39.8590 C   0  0  0  0  0  3  0  0  0  0  0  0
   36.2720   32.2120   41.8030 N   0  0  0  0  0  0  0  0  0  0  0  0
   36.9170   31.4920   40.9210 C   0  0  0  0  0  0  0  0  0  0  0  0
   37.7280   32.2910   40.0690 N   0  0  0  0  0  0  0  0  0  0  0  0
   35.6320   31.7800   42.5050 H   0  0  0  0  0  0  0  0  0  0  0  0
   38.2960   32.8850   39.4320 H   0  0  0  0  0  0  0  0  0  0  0  0
   37.0710   32.7630   39.3780 H   0  0  0  0  0  0  0  0  0  0  0  0
   38.9190   30.4970   45.7280 O   0  0  0  0  0  0  0  0  0  0  0  0
   39.4310   32.5790   47.1700 O   0  0  0  0  0  0  0  0  0  0  0  0
   38.3140   31.8820   46.4780 P   0  0  1  0  0  0  0  0  0  0  0  0
   37.7270   32.8490   45.2000 O   0  0  0  0  0  0  0  0  0  0  0  0
   38.3560   33.6080   45.0240 H   0  0  0  0  0  0  0  0  0  0  0  0
   37.0340   31.4480   47.4960 O   0  0  0  0  0  0  0  0  0  0  0  0
   37.5940   30.5130   51.0210 C   0  0  0  0  0  0  0  0  0  0  0  0
   37.6970   31.3060   49.8720 C   0  0  0  0  0  0  0  0  0  0  0  0
   37.0680   30.8530   48.7120 C   0  0  0  0  0  0  0  0  0  0  0  0
   36.3880   29.6660   48.7570 N   0  0  0  0  0  0  0  0  0  0  0  0
   36.3190   28.9400   49.8870 C   0  0  0  0  0  0  0  0  0  0  0  0
   36.9250   29.3690   51.0190 N   0  0  0  0  0  0  0  0  0  0  0  0
   38.1340   30.9900   51.8520 H   0  0  0  0  0  0  0  0  0  0  0  0
   38.2150   32.2490   49.7660 H   0  0  0  0  0  0  0  0  0  0  0  0
   35.7830   28.0020   49.9270 H   0  0  0  0  0  0  0  0  0  0  0  0
  2  1  1  0  0  0  0
  2  3  1  0  0  0  0
  3 25  1  0  0  0  0
  4  3  2  0  0  0  0
  4  8  1  0  0  0  0
  5  4  1  0  0  0  0
  6  7  1  0  0  0  0
  6  5  2  0  0  0  0
  7  2  2  0  0  0  0
  9  5  1  0  0  0  0
 10  6  1  0  0  0  0
 11 20  1  0  0  0  0
 11 12  1  0  0  0  0
 12  7  1  0  0  0  0
 13 12  2  0  0  0  0
 13 14  1  0  0  0  0
 15 13  1  0  0  0  0
 16 15  1  0  0  0  0
 17 18  1  0  0  0  0
 17 15  2  0  0  0  0
 18 11  2  0  0  0  0
 19 22  1  0  0  0  0
 20 19  2  0  0  0  0
 21 20  1  0  0  0  0
 23 21  1  0  0  0  0
 24 21  1  0  0  0  0
 25 27  1  0  0  0  0
 27 26  2  1  0  0  0
 27 30  1  0  0  0  0
 28 27  1  0  0  0  0
 29 28  1  0  0  0  0
 30 33  1  0  0  0  0
 31 37  1  0  0  0  0
 32 31  2  0  0  0  0
 33 34  2  0  0  0  0
 33 32  1  0  0  0  0
 34 35  1  0  0  0  0
 35 39  1  0  0  0  0
 35 36  2  0  0  0  0
 36 31  1  0  0  0  0
 38 32  1  0  0  0  0
M  END
>  <minimizedAffinity>
-4.82160616

>  <minimizedRMSD>
0.956929147

$$$$
