
 OpenBabel03272510073D

 35 37  0  0  0  0  0  0  0  0999 V2000
   39.4070   26.2320   35.5320 C   0  0  0  0  0  0  0  0  0  0  0  0
   39.2530   24.8980   35.1320 C   0  0  0  0  0  0  0  0  0  0  0  0
   38.2750   24.6070   34.1810 C   0  0  0  0  0  0  0  0  0  0  0  0
   37.5160   25.6250   33.6830 N   0  0  0  0  0  0  0  0  0  0  0  0
   37.6900   26.8940   34.0870 C   0  0  0  0  0  0  0  0  0  0  0  0
   38.6210   27.1840   34.9960 N   0  0  0  0  0  0  0  0  0  0  0  0
   36.8580   27.9150   33.5240 N   0  0  0  0  0  0  0  0  0  0  0  0
   36.7960   28.2180   32.1090 C   0  0  0  0  0  0  0  0  0  0  0  0
   35.6390   29.1390   31.9580 C   0  0  0  0  0  0  0  0  0  0  0  0
   34.9090   29.1160   33.2850 C   0  0  0  0  0  0  0  0  0  0  0  0
   35.9660   28.7860   34.2810 C   0  0  0  0  0  0  0  0  0  0  0  0
   40.1660   26.4770   36.2740 H   0  0  0  0  0  0  0  0  0  0  0  0
   38.1690   23.5790   33.8790 H   0  0  0  0  0  0  0  0  0  0  0  0
   36.6720   27.2910   31.4980 H   0  0  0  0  0  0  0  0  0  0  0  0
   37.7300   28.7410   31.7980 H   0  0  0  0  0  0  0  0  0  0  0  0
   34.9640   28.8800   31.1250 H   0  0  0  0  0  0  0  0  0  0  0  0
   36.0010   30.2020   31.8370 H   0  0  0  0  0  0  0  0  0  0  0  0
   34.1790   28.2790   33.2530 H   0  0  0  0  0  0  0  0  0  0  0  0
   34.4320   30.1060   33.4720 H   0  0  0  0  0  0  0  0  0  0  0  0
   35.6050   28.2980   35.1960 H   0  0  0  0  0  0  0  0  0  0  0  0
   36.5140   29.7210   34.5400 H   0  0  0  0  0  0  0  0  0  0  0  0
   39.6160   23.2910   36.8540 C   0  0  0  0  0  0  0  0  0  0  0  0
   40.1410   23.9180   35.7450 C   0  0  0  0  0  0  0  0  0  0  0  0
   41.4030   23.5960   35.2950 C   0  0  0  0  0  0  0  0  0  0  0  0
   41.6650   24.1780   34.4150 H   0  0  0  0  0  0  0  0  0  0  0  0
   42.1880   22.6520   35.9120 C   0  0  0  0  0  0  0  0  0  0  0  0
   43.1280   22.5270   35.4370 H   0  0  0  0  0  0  0  0  0  0  0  0
   41.6670   22.0220   37.0210 C   0  0  0  0  0  3  0  0  0  0  0  0
   40.3980   22.3260   37.5000 C   0  0  0  0  0  3  0  0  0  0  0  0
   37.2920   22.7220   37.2850 N   0  0  0  0  0  0  0  0  0  0  0  0
   38.3310   23.4740   37.5130 C   0  0  0  0  0  0  0  0  0  0  0  0
   37.9290   24.4120   38.4750 N   0  0  0  0  0  0  0  0  0  0  0  0
   37.3320   21.9310   36.5930 H   0  0  0  0  0  0  0  0  0  0  0  0
   37.7610   25.3230   38.9380 H   0  0  0  0  0  0  0  0  0  0  0  0
   37.4830   24.2250   39.3930 H   0  0  0  0  0  0  0  0  0  0  0  0
  1 12  1  0  0  0  0
  2  1  1  0  0  0  0
  2 23  1  0  0  0  0
  3  2  2  0  0  0  0
  4  5  2  0  0  0  0
  4  3  1  0  0  0  0
  5  6  1  0  0  0  0
  6  1  2  0  0  0  0
  7  5  1  0  0  0  0
  7 11  1  0  0  0  0
  8  7  1  0  0  0  0
  9  8  1  0  0  0  0
  9 10  1  0  0  0  0
 10 19  1  0  0  0  0
 10 11  1  0  0  0  0
 11 21  1  0  0  0  0
 11 20  1  0  0  0  0
 13  3  1  0  0  0  0
 14  8  1  0  0  0  0
 15  8  1  0  0  0  0
 16  9  1  0  0  0  0
 17  9  1  0  0  0  0
 18 10  1  0  0  0  0
 22 29  1  0  0  0  0
 22 31  1  0  0  0  0
 23 22  2  0  0  0  0
 24 23  1  0  0  0  0
 24 26  2  0  0  0  0
 25 24  1  0  0  0  0
 26 28  1  0  0  0  0
 27 26  1  0  0  0  0
 28 29  2  0  0  0  0
 30 31  2  0  0  0  0
 31 32  1  0  0  0  0
 32 34  1  0  0  0  0
 32 35  1  0  0  0  0
 33 30  1  0  0  0  0
M  END
>  <minimizedAffinity>
-5.59728336

$$$$

 OpenBabel03272510073D

 35 37  0  0  0  0  0  0  0  0999 V2000
   39.1670   23.4300   35.0040 C   0  0  0  0  0  0  0  0  0  0  0  0
   40.4030   22.9310   34.5720 C   0  0  0  0  0  0  0  0  0  0  0  0
   40.4020   21.8800   33.6550 C   0  0  0  0  0  0  0  0  0  0  0  0
   39.2080   21.3860   33.2200 N   0  0  0  0  0  0  0  0  0  0  0  0
   38.0400   21.8880   33.6530 C   0  0  0  0  0  0  0  0  0  0  0  0
   38.0280   22.8920   34.5300 N   0  0  0  0  0  0  0  0  0  0  0  0
   36.8220   21.3230   33.1560 N   0  0  0  0  0  0  0  0  0  0  0  0
   36.4580   21.2920   31.7540 C   0  0  0  0  0  0  0  0  0  0  0  0
   35.2710   20.3990   31.6790 C   0  0  0  0  0  0  0  0  0  0  0  0
   35.1620   19.7320   33.0350 C   0  0  0  0  0  0  0  0  0  0  0  0
   35.7840   20.7040   33.9750 C   0  0  0  0  0  0  0  0  0  0  0  0
   39.1500   24.2510   35.7200 H   0  0  0  0  0  0  0  0  0  0  0  0
   41.3580   21.5080   33.3280 H   0  0  0  0  0  0  0  0  0  0  0  0
   37.2990   20.9170   31.1230 H   0  0  0  0  0  0  0  0  0  0  0  0
   36.1740   22.3160   31.4200 H   0  0  0  0  0  0  0  0  0  0  0  0
   35.3200   19.6530   30.8680 H   0  0  0  0  0  0  0  0  0  0  0  0
   34.3290   21.0140   31.5750 H   0  0  0  0  0  0  0  0  0  0  0  0
   35.7870   18.8140   33.0090 H   0  0  0  0  0  0  0  0  0  0  0  0
   34.0910   19.5270   33.2700 H   0  0  0  0  0  0  0  0  0  0  0  0
   36.2020   20.2630   34.8900 H   0  0  0  0  0  0  0  0  0  0  0  0
   35.0280   21.4790   34.2380 H   0  0  0  0  0  0  0  0  0  0  0  0
   42.0690   22.9830   36.2760 C   0  0  0  0  0  0  0  0  0  0  0  0
   41.5980   23.5640   35.1190 C   0  0  0  0  0  0  0  0  0  0  0  0
   42.2500   24.6440   34.5660 C   0  0  0  0  0  0  0  0  0  0  0  0
   41.7520   24.9810   33.6610 H   0  0  0  0  0  0  0  0  0  0  0  0
   43.3810   25.1880   35.1250 C   0  0  0  0  0  0  0  0  0  0  0  0
   43.7540   26.0130   34.5720 H   0  0  0  0  0  0  0  0  0  0  0  0
   43.8570   24.6100   36.2810 C   0  0  0  0  0  3  0  0  0  0  0  0
   43.2210   23.5200   36.8630 C   0  0  0  0  0  3  0  0  0  0  0  0
   42.0580   20.6610   37.0000 N   0  0  0  0  0  0  0  0  0  0  0  0
   41.5470   21.8590   37.0400 C   0  0  0  0  0  0  0  0  0  0  0  0
   40.4690   21.7920   37.9350 N   0  0  0  0  0  0  0  0  0  0  0  0
   42.8900   20.4440   36.3940 H   0  0  0  0  0  0  0  0  0  0  0  0
   39.5110   21.8830   38.3140 H   0  0  0  0  0  0  0  0  0  0  0  0
   40.4770   21.4330   38.9080 H   0  0  0  0  0  0  0  0  0  0  0  0
  1 12  1  0  0  0  0
  2  1  1  0  0  0  0
  2 23  1  0  0  0  0
  3  2  2  0  0  0  0
  4  5  2  0  0  0  0
  4  3  1  0  0  0  0
  5  6  1  0  0  0  0
  6  1  2  0  0  0  0
  7  5  1  0  0  0  0
  7 11  1  0  0  0  0
  8  7  1  0  0  0  0
  9  8  1  0  0  0  0
  9 10  1  0  0  0  0
 10 19  1  0  0  0  0
 10 11  1  0  0  0  0
 11 21  1  0  0  0  0
 11 20  1  0  0  0  0
 13  3  1  0  0  0  0
 14  8  1  0  0  0  0
 15  8  1  0  0  0  0
 16  9  1  0  0  0  0
 17  9  1  0  0  0  0
 18 10  1  0  0  0  0
 22 29  1  0  0  0  0
 22 31  1  0  0  0  0
 23 22  2  0  0  0  0
 24 23  1  0  0  0  0
 24 26  2  0  0  0  0
 25 24  1  0  0  0  0
 26 28  1  0  0  0  0
 27 26  1  0  0  0  0
 28 29  2  0  0  0  0
 30 31  2  0  0  0  0
 31 32  1  0  0  0  0
 32 34  1  0  0  0  0
 32 35  1  0  0  0  0
 33 30  1  0  0  0  0
M  END
>  <minimizedAffinity>
-5.38496304

$$$$

 OpenBabel03272510073D

 35 37  0  0  0  0  0  0  0  0999 V2000
   37.4500   25.5360   33.6510 C   0  0  0  0  0  0  0  0  0  0  0  0
   37.8120   26.8800   33.8140 C   0  0  0  0  0  0  0  0  0  0  0  0
   38.8830   27.1720   34.6600 C   0  0  0  0  0  0  0  0  0  0  0  0
   39.5280   26.1470   35.2850 N   0  0  0  0  0  0  0  0  0  0  0  0
   39.1560   24.8680   35.1050 C   0  0  0  0  0  0  0  0  0  0  0  0
   38.1340   24.5760   34.3010 N   0  0  0  0  0  0  0  0  0  0  0  0
   39.8770   23.8400   35.7930 N   0  0  0  0  0  0  0  0  0  0  0  0
   41.2970   23.6030   35.6350 C   0  0  0  0  0  0  0  0  0  0  0  0
   41.6540   22.6400   36.7090 C   0  0  0  0  0  0  0  0  0  0  0  0
   40.4490   22.5650   37.6240 C   0  0  0  0  0  0  0  0  0  0  0  0
   39.2960   22.8930   36.7400 C   0  0  0  0  0  0  0  0  0  0  0  0
   36.6150   25.2900   32.9950 H   0  0  0  0  0  0  0  0  0  0  0  0
   39.1530   28.2080   34.7740 H   0  0  0  0  0  0  0  0  0  0  0  0
   41.8800   24.5530   35.7180 H   0  0  0  0  0  0  0  0  0  0  0  0
   41.4900   23.1390   34.6410 H   0  0  0  0  0  0  0  0  0  0  0  0
   42.5650   22.9090   37.2700 H   0  0  0  0  0  0  0  0  0  0  0  0
   41.7650   21.6020   36.2790 H   0  0  0  0  0  0  0  0  0  0  0  0
   40.5520   23.3690   38.3830 H   0  0  0  0  0  0  0  0  0  0  0  0
   40.3750   21.5460   38.0700 H   0  0  0  0  0  0  0  0  0  0  0  0
   38.4240   23.3190   37.2530 H   0  0  0  0  0  0  0  0  0  0  0  0
   38.9990   21.9730   36.1860 H   0  0  0  0  0  0  0  0  0  0  0  0
   37.4020   28.0080   31.7550 C   0  0  0  0  0  0  0  0  0  0  0  0
   37.0350   27.8680   33.0760 C   0  0  0  0  0  0  0  0  0  0  0  0
   36.0030   28.6190   33.5960 C   0  0  0  0  0  0  0  0  0  0  0  0
   35.8420   28.3880   34.6460 H   0  0  0  0  0  0  0  0  0  0  0  0
   35.3000   29.5280   32.8430 C   0  0  0  0  0  0  0  0  0  0  0  0
   34.5410   30.0180   33.3980 H   0  0  0  0  0  0  0  0  0  0  0  0
   35.6630   29.6710   31.5220 C   0  0  0  0  0  3  0  0  0  0  0  0
   36.6990   28.9280   30.9680 C   0  0  0  0  0  3  0  0  0  0  0  0
   38.2260   26.4150   30.1140 N   0  0  0  0  0  0  0  0  0  0  0  0
   38.4530   27.3430   30.9990 C   0  0  0  0  0  0  0  0  0  0  0  0
   39.8440   27.5230   31.0260 N   0  0  0  0  0  0  0  0  0  0  0  0
   37.2480   26.0910   29.9020 H   0  0  0  0  0  0  0  0  0  0  0  0
   40.8090   27.6030   31.3900 H   0  0  0  0  0  0  0  0  0  0  0  0
   40.4720   27.7120   30.2220 H   0  0  0  0  0  0  0  0  0  0  0  0
  1  2  2  0  0  0  0
  1  6  1  0  0  0  0
  2  3  1  0  0  0  0
  3 13  1  0  0  0  0
  3  4  2  0  0  0  0
  5  4  1  0  0  0  0
  5  7  1  0  0  0  0
  6  5  2  0  0  0  0
  7 11  1  0  0  0  0
  8 14  1  0  0  0  0
  8  7  1  0  0  0  0
  8  9  1  0  0  0  0
  9 16  1  0  0  0  0
  9 10  1  0  0  0  0
 10 19  1  0  0  0  0
 10 18  1  0  0  0  0
 11 20  1  0  0  0  0
 11 10  1  0  0  0  0
 12  1  1  0  0  0  0
 15  8  1  0  0  0  0
 17  9  1  0  0  0  0
 21 11  1  0  0  0  0
 22 23  1  0  0  0  0
 23 24  2  0  0  0  0
 23  2  1  0  0  0  0
 24 25  1  0  0  0  0
 26 27  1  0  0  0  0
 26 24  1  0  0  0  0
 28 26  2  0  0  0  0
 29 28  1  0  0  0  0
 29 22  2  0  0  0  0
 30 31  2  0  0  0  0
 31 32  1  0  0  0  0
 31 22  1  0  0  0  0
 32 34  1  0  0  0  0
 33 30  1  0  0  0  0
 35 32  1  0  0  0  0
M  END
>  <minimizedAffinity>
-5.3137002

$$$$

 OpenBabel03272510073D

 35 37  0  0  0  0  0  0  0  0999 V2000
   37.0330   26.1910   32.7030 C   0  0  0  0  0  0  0  0  0  0  0  0
   36.0880   26.8670   31.9190 C   0  0  0  0  0  0  0  0  0  0  0  0
   35.2910   26.1120   31.0580 C   0  0  0  0  0  0  0  0  0  0  0  0
   35.4600   24.7600   31.0170 N   0  0  0  0  0  0  0  0  0  0  0  0
   36.3740   24.1420   31.7840 C   0  0  0  0  0  0  0  0  0  0  0  0
   37.1430   24.8520   32.6100 N   0  0  0  0  0  0  0  0  0  0  0  0
   36.5010   22.7190   31.6920 N   0  0  0  0  0  0  0  0  0  0  0  0
   35.4240   21.7920   31.9710 C   0  0  0  0  0  0  0  0  0  0  0  0
   35.9160   20.4700   31.5020 C   0  0  0  0  0  0  0  0  0  0  0  0
   37.1800   20.7480   30.7140 C   0  0  0  0  0  0  0  0  0  0  0  0
   37.7150   22.0050   31.3080 C   0  0  0  0  0  0  0  0  0  0  0  0
   37.6650   26.7640   33.3800 H   0  0  0  0  0  0  0  0  0  0  0  0
   34.5670   26.6420   30.4630 H   0  0  0  0  0  0  0  0  0  0  0  0
   34.4820   22.0920   31.4520 H   0  0  0  0  0  0  0  0  0  0  0  0
   35.2420   21.7510   33.0700 H   0  0  0  0  0  0  0  0  0  0  0  0
   35.1850   19.9060   30.8990 H   0  0  0  0  0  0  0  0  0  0  0  0
   36.2470   19.8440   32.3820 H   0  0  0  0  0  0  0  0  0  0  0  0
   36.8830   20.9510   29.6630 H   0  0  0  0  0  0  0  0  0  0  0  0
   37.8840   19.8890   30.8130 H   0  0  0  0  0  0  0  0  0  0  0  0
   38.3420   22.6050   30.6370 H   0  0  0  0  0  0  0  0  0  0  0  0
   38.2840   21.7480   32.2310 H   0  0  0  0  0  0  0  0  0  0  0  0
   36.7130   29.0240   31.1210 C   0  0  0  0  0  0  0  0  0  0  0  0
   36.0160   28.3140   32.0740 C   0  0  0  0  0  0  0  0  0  0  0  0
   35.3180   28.9740   33.0620 C   0  0  0  0  0  0  0  0  0  0  0  0
   34.8260   28.2720   33.7300 H   0  0  0  0  0  0  0  0  0  0  0  0
   35.2790   30.3450   33.1480 C   0  0  0  0  0  0  0  0  0  0  0  0
   34.6970   30.6870   33.9650 H   0  0  0  0  0  0  0  0  0  0  0  0
   35.9740   31.0590   32.1960 C   0  0  0  0  0  3  0  0  0  0  0  0
   36.6870   30.4220   31.1870 C   0  0  0  0  0  3  0  0  0  0  0  0
   38.8050   28.3410   30.0860 N   0  0  0  0  0  0  0  0  0  0  0  0
   37.5220   28.5510   30.0060 C   0  0  0  0  0  0  0  0  0  0  0  0
   37.1550   28.2270   28.6920 N   0  0  0  0  0  0  0  0  0  0  0  0
   39.3310   28.5110   30.9810 H   0  0  0  0  0  0  0  0  0  0  0  0
   36.7490   28.3140   27.7440 H   0  0  0  0  0  0  0  0  0  0  0  0
   37.3500   27.3450   28.1810 H   0  0  0  0  0  0  0  0  0  0  0  0
  1 12  1  0  0  0  0
  2 23  1  0  0  0  0
  2  1  2  0  0  0  0
  3  2  1  0  0  0  0
  4  3  2  0  0  0  0
  4  5  1  0  0  0  0
  5  6  2  0  0  0  0
  6  1  1  0  0  0  0
  7  5  1  0  0  0  0
  7  8  1  0  0  0  0
  8 15  1  0  0  0  0
  9  8  1  0  0  0  0
  9 17  1  0  0  0  0
 10 19  1  0  0  0  0
 10 11  1  0  0  0  0
 10  9  1  0  0  0  0
 11  7  1  0  0  0  0
 11 21  1  0  0  0  0
 13  3  1  0  0  0  0
 14  8  1  0  0  0  0
 16  9  1  0  0  0  0
 18 10  1  0  0  0  0
 20 11  1  0  0  0  0
 22 29  2  0  0  0  0
 22 23  1  0  0  0  0
 23 24  2  0  0  0  0
 24 26  1  0  0  0  0
 24 25  1  0  0  0  0
 26 27  1  0  0  0  0
 28 26  2  0  0  0  0
 29 28  1  0  0  0  0
 30 33  1  0  0  0  0
 31 30  2  0  0  0  0
 31 22  1  0  0  0  0
 32 31  1  0  0  0  0
 34 32  1  0  0  0  0
 35 32  1  0  0  0  0
M  END
>  <minimizedAffinity>
-5.26992798

$$$$

 OpenBabel03272510073D

 35 37  0  0  0  0  0  0  0  0999 V2000
   37.4540   25.7430   32.9550 C   0  0  0  0  0  0  0  0  0  0  0  0
   38.2660   26.8820   32.8610 C   0  0  0  0  0  0  0  0  0  0  0  0
   39.2220   27.0890   33.8560 C   0  0  0  0  0  0  0  0  0  0  0  0
   39.3270   26.1820   34.8690 N   0  0  0  0  0  0  0  0  0  0  0  0
   38.5330   25.1000   34.9280 C   0  0  0  0  0  0  0  0  0  0  0  0
   37.6150   24.8910   33.9850 N   0  0  0  0  0  0  0  0  0  0  0  0
   38.6960   24.1870   36.0200 N   0  0  0  0  0  0  0  0  0  0  0  0
   39.9280   23.4820   36.3080 C   0  0  0  0  0  0  0  0  0  0  0  0
   39.7230   22.8690   37.6470 C   0  0  0  0  0  0  0  0  0  0  0  0
   38.4520   23.4810   38.1980 C   0  0  0  0  0  0  0  0  0  0  0  0
   37.6610   23.8390   36.9880 C   0  0  0  0  0  0  0  0  0  0  0  0
   36.7010   25.5660   32.1870 H   0  0  0  0  0  0  0  0  0  0  0  0
   39.8410   27.9650   33.7710 H   0  0  0  0  0  0  0  0  0  0  0  0
   40.8050   24.1740   36.2980 H   0  0  0  0  0  0  0  0  0  0  0  0
   40.0840   22.6790   35.5520 H   0  0  0  0  0  0  0  0  0  0  0  0
   40.5690   23.0110   38.3400 H   0  0  0  0  0  0  0  0  0  0  0  0
   39.5000   21.7680   37.5390 H   0  0  0  0  0  0  0  0  0  0  0  0
   38.7310   24.4160   38.7280 H   0  0  0  0  0  0  0  0  0  0  0  0
   37.9310   22.7450   38.8530 H   0  0  0  0  0  0  0  0  0  0  0  0
   36.9450   24.6600   37.1270 H   0  0  0  0  0  0  0  0  0  0  0  0
   37.1290   22.9280   36.6290 H   0  0  0  0  0  0  0  0  0  0  0  0
   36.9570   28.5960   31.8470 C   0  0  0  0  0  0  0  0  0  0  0  0
   38.0430   27.7580   31.7180 C   0  0  0  0  0  0  0  0  0  0  0  0
   38.8240   27.7990   30.5840 C   0  0  0  0  0  0  0  0  0  0  0  0
   39.6360   27.0790   30.6410 H   0  0  0  0  0  0  0  0  0  0  0  0
   38.5680   28.6590   29.5430 C   0  0  0  0  0  0  0  0  0  0  0  0
   39.2650   28.5610   28.7500 H   0  0  0  0  0  0  0  0  0  0  0  0
   37.4830   29.4990   29.6670 C   0  0  0  0  0  3  0  0  0  0  0  0
   36.6770   29.4810   30.7990 C   0  0  0  0  0  3  0  0  0  0  0  0
   34.7030   28.6680   32.7570 N   0  0  0  0  0  0  0  0  0  0  0  0
   35.9930   28.7210   32.9310 C   0  0  0  0  0  0  0  0  0  0  0  0
   36.1930   28.9040   34.3070 N   0  0  0  0  0  0  0  0  0  0  0  0
   34.2870   28.5340   31.8010 H   0  0  0  0  0  0  0  0  0  0  0  0
   36.5340   29.3080   35.1970 H   0  0  0  0  0  0  0  0  0  0  0  0
   35.8070   28.3350   35.0830 H   0  0  0  0  0  0  0  0  0  0  0  0
  1  6  1  0  0  0  0
  2  1  2  0  0  0  0
  2  3  1  0  0  0  0
  3  4  2  0  0  0  0
  4  5  1  0  0  0  0
  5  7  1  0  0  0  0
  6  5  2  0  0  0  0
  7  8  1  0  0  0  0
  7 11  1  0  0  0  0
  8  9  1  0  0  0  0
  9 10  1  0  0  0  0
  9 16  1  0  0  0  0
 10 18  1  0  0  0  0
 10 19  1  0  0  0  0
 11 20  1  0  0  0  0
 11 10  1  0  0  0  0
 12  1  1  0  0  0  0
 13  3  1  0  0  0  0
 14  8  1  0  0  0  0
 15  8  1  0  0  0  0
 17  9  1  0  0  0  0
 21 11  1  0  0  0  0
 22 31  1  0  0  0  0
 23 22  1  0  0  0  0
 23  2  1  0  0  0  0
 24 25  1  0  0  0  0
 24 23  2  0  0  0  0
 26 28  2  0  0  0  0
 26 24  1  0  0  0  0
 27 26  1  0  0  0  0
 28 29  1  0  0  0  0
 29 22  2  0  0  0  0
 30 31  2  0  0  0  0
 31 32  1  0  0  0  0
 32 35  1  0  0  0  0
 32 34  1  0  0  0  0
 33 30  1  0  0  0  0
M  END
>  <minimizedAffinity>
-5.23787069

$$$$

 OpenBabel03272510073D

 35 37  0  0  0  0  0  0  0  0999 V2000
   37.8350   25.3100   34.2650 C   0  0  0  0  0  0  0  0  0  0  0  0
   38.6020   25.6020   35.4000 C   0  0  0  0  0  0  0  0  0  0  0  0
   38.5420   26.8970   35.9160 C   0  0  0  0  0  0  0  0  0  0  0  0
   37.7450   27.8160   35.3010 N   0  0  0  0  0  0  0  0  0  0  0  0
   37.0210   27.5020   34.2130 C   0  0  0  0  0  0  0  0  0  0  0  0
   37.0710   26.2690   33.7100 N   0  0  0  0  0  0  0  0  0  0  0  0
   36.2050   28.5160   33.6150 N   0  0  0  0  0  0  0  0  0  0  0  0
   35.1380   29.2080   34.3080 C   0  0  0  0  0  0  0  0  0  0  0  0
   34.7510   30.3270   33.4090 C   0  0  0  0  0  0  0  0  0  0  0  0
   35.8160   30.3880   32.3330 C   0  0  0  0  0  0  0  0  0  0  0  0
   36.3260   28.9920   32.2410 C   0  0  0  0  0  0  0  0  0  0  0  0
   37.8710   24.3040   33.8480 H   0  0  0  0  0  0  0  0  0  0  0  0
   39.1330   27.1080   36.7910 H   0  0  0  0  0  0  0  0  0  0  0  0
   35.4720   29.5760   35.3080 H   0  0  0  0  0  0  0  0  0  0  0  0
   34.2710   28.5210   34.4390 H   0  0  0  0  0  0  0  0  0  0  0  0
   34.6430   31.2980   33.9210 H   0  0  0  0  0  0  0  0  0  0  0  0
   33.7940   30.0760   32.8650 H   0  0  0  0  0  0  0  0  0  0  0  0
   36.6340   31.0410   32.7060 H   0  0  0  0  0  0  0  0  0  0  0  0
   35.3680   30.7490   31.3780 H   0  0  0  0  0  0  0  0  0  0  0  0
   37.3550   28.8980   31.8700 H   0  0  0  0  0  0  0  0  0  0  0  0
   35.6350   28.4020   31.5960 H   0  0  0  0  0  0  0  0  0  0  0  0
   40.6930   24.4610   35.4780 C   0  0  0  0  0  0  0  0  0  0  0  0
   39.4020   24.5170   35.9550 C   0  0  0  0  0  0  0  0  0  0  0  0
   38.9630   23.6000   36.8850 C   0  0  0  0  0  0  0  0  0  0  0  0
   37.9260   23.7830   37.1550 H   0  0  0  0  0  0  0  0  0  0  0  0
   39.7710   22.6050   37.3790 C   0  0  0  0  0  0  0  0  0  0  0  0
   39.2760   21.9890   38.0860 H   0  0  0  0  0  0  0  0  0  0  0  0
   41.0640   22.5460   36.9050 C   0  0  0  0  0  3  0  0  0  0  0  0
   41.5350   23.4550   35.9660 C   0  0  0  0  0  3  0  0  0  0  0  0
   41.4560   25.0000   33.2330 N   0  0  0  0  0  0  0  0  0  0  0  0
   41.3670   25.3000   34.4970 C   0  0  0  0  0  0  0  0  0  0  0  0
   42.0210   26.5310   34.6520 N   0  0  0  0  0  0  0  0  0  0  0  0
   41.0390   24.1120   32.8520 H   0  0  0  0  0  0  0  0  0  0  0  0
   42.6720   27.2500   35.0130 H   0  0  0  0  0  0  0  0  0  0  0  0
   41.8550   27.4060   34.1210 H   0  0  0  0  0  0  0  0  0  0  0  0
  1  2  1  0  0  0  0
  2  3  2  0  0  0  0
  2 23  1  0  0  0  0
  3 13  1  0  0  0  0
  4  3  1  0  0  0  0
  5  4  2  0  0  0  0
  6  5  1  0  0  0  0
  6  1  2  0  0  0  0
  7  5  1  0  0  0  0
  7  8  1  0  0  0  0
  8 15  1  0  0  0  0
  8 14  1  0  0  0  0
  9 16  1  0  0  0  0
  9  8  1  0  0  0  0
 10 18  1  0  0  0  0
 10  9  1  0  0  0  0
 11 10  1  0  0  0  0
 11  7  1  0  0  0  0
 12  1  1  0  0  0  0
 17  9  1  0  0  0  0
 19 10  1  0  0  0  0
 20 11  1  0  0  0  0
 21 11  1  0  0  0  0
 22 23  2  0  0  0  0
 22 29  1  0  0  0  0
 23 24  1  0  0  0  0
 24 25  1  0  0  0  0
 24 26  2  0  0  0  0
 26 27  1  0  0  0  0
 28 26  1  0  0  0  0
 29 28  2  0  0  0  0
 30 31  2  0  0  0  0
 31 32  1  0  0  0  0
 31 22  1  0  0  0  0
 32 34  1  0  0  0  0
 33 30  1  0  0  0  0
 35 32  1  0  0  0  0
M  END
>  <minimizedAffinity>
-5.18499136

$$$$

 OpenBabel03272510073D

 35 37  0  0  0  0  0  0  0  0999 V2000
   39.1970   24.1850   33.7400 C   0  0  0  0  0  0  0  0  0  0  0  0
   39.8830   24.6570   34.8670 C   0  0  0  0  0  0  0  0  0  0  0  0
   39.7760   26.0120   35.1790 C   0  0  0  0  0  0  0  0  0  0  0  0
   39.0130   26.8140   34.3830 N   0  0  0  0  0  0  0  0  0  0  0  0
   38.3660   26.3290   33.3100 C   0  0  0  0  0  0  0  0  0  0  0  0
   38.4620   25.0360   33.0000 N   0  0  0  0  0  0  0  0  0  0  0  0
   37.5830   27.2270   32.5160 N   0  0  0  0  0  0  0  0  0  0  0  0
   36.4650   27.9930   33.0270 C   0  0  0  0  0  0  0  0  0  0  0  0
   36.1290   28.9600   31.9480 C   0  0  0  0  0  0  0  0  0  0  0  0
   37.2630   28.8810   30.9470 C   0  0  0  0  0  0  0  0  0  0  0  0
   37.7910   27.4970   31.0970 C   0  0  0  0  0  0  0  0  0  0  0  0
   39.2700   23.1290   33.4810 H   0  0  0  0  0  0  0  0  0  0  0  0
   40.3050   26.3620   36.0490 H   0  0  0  0  0  0  0  0  0  0  0  0
   36.7280   28.5110   33.9810 H   0  0  0  0  0  0  0  0  0  0  0  0
   35.5980   27.3170   33.2020 H   0  0  0  0  0  0  0  0  0  0  0  0
   35.9780   29.9940   32.3020 H   0  0  0  0  0  0  0  0  0  0  0  0
   35.2130   28.6120   31.3870 H   0  0  0  0  0  0  0  0  0  0  0  0
   38.0470   29.5980   31.2700 H   0  0  0  0  0  0  0  0  0  0  0  0
   36.8760   29.0880   29.9210 H   0  0  0  0  0  0  0  0  0  0  0  0
   38.8440   27.3690   30.8120 H   0  0  0  0  0  0  0  0  0  0  0  0
   37.1500   26.8050   30.5040 H   0  0  0  0  0  0  0  0  0  0  0  0
   39.9420   23.0420   36.6190 C   0  0  0  0  0  0  0  0  0  0  0  0
   40.6540   23.6810   35.6270 C   0  0  0  0  0  0  0  0  0  0  0  0
   41.9790   23.3730   35.4130 C   0  0  0  0  0  0  0  0  0  0  0  0
   42.3920   23.9630   34.5980 H   0  0  0  0  0  0  0  0  0  0  0  0
   42.6480   22.4320   36.1580 C   0  0  0  0  0  0  0  0  0  0  0  0
   43.6600   22.3180   35.8620 H   0  0  0  0  0  0  0  0  0  0  0  0
   41.9400   21.7900   37.1500 C   0  0  0  0  0  3  0  0  0  0  0  0
   40.6020   22.0800   37.3910 C   0  0  0  0  0  3  0  0  0  0  0  0
   38.1620   24.1200   37.8770 N   0  0  0  0  0  0  0  0  0  0  0  0
   38.5560   23.2090   37.0330 C   0  0  0  0  0  0  0  0  0  0  0  0
   37.4040   22.5020   36.6570 N   0  0  0  0  0  0  0  0  0  0  0  0
   38.8440   24.7920   38.3130 H   0  0  0  0  0  0  0  0  0  0  0  0
   36.7610   21.7110   36.4810 H   0  0  0  0  0  0  0  0  0  0  0  0
   36.5160   22.8910   36.2890 H   0  0  0  0  0  0  0  0  0  0  0  0
  1  2  1  0  0  0  0
  2  3  2  0  0  0  0
  2 23  1  0  0  0  0
  3 13  1  0  0  0  0
  4  3  1  0  0  0  0
  5  4  2  0  0  0  0
  6  5  1  0  0  0  0
  6  1  2  0  0  0  0
  7  8  1  0  0  0  0
  7  5  1  0  0  0  0
  8 15  1  0  0  0  0
  8 14  1  0  0  0  0
  9 16  1  0  0  0  0
  9  8  1  0  0  0  0
 10 11  1  0  0  0  0
 10 18  1  0  0  0  0
 10  9  1  0  0  0  0
 11  7  1  0  0  0  0
 12  1  1  0  0  0  0
 17  9  1  0  0  0  0
 19 10  1  0  0  0  0
 20 11  1  0  0  0  0
 21 11  1  0  0  0  0
 22 31  1  0  0  0  0
 22 29  1  0  0  0  0
 23 22  2  0  0  0  0
 24 23  1  0  0  0  0
 24 26  2  0  0  0  0
 25 24  1  0  0  0  0
 26 28  1  0  0  0  0
 27 26  1  0  0  0  0
 28 29  2  0  0  0  0
 30 33  1  0  0  0  0
 31 30  2  0  0  0  0
 32 31  1  0  0  0  0
 34 32  1  0  0  0  0
 35 32  1  0  0  0  0
M  END
>  <minimizedAffinity>
-5.17706203

$$$$

 OpenBabel03272510073D

 35 37  0  0  0  0  0  0  0  0999 V2000
   38.4360   26.6950   35.8640 C   0  0  0  0  0  0  0  0  0  0  0  0
   38.4870   25.4240   35.2780 C   0  0  0  0  0  0  0  0  0  0  0  0
   37.7740   25.2180   34.0960 C   0  0  0  0  0  0  0  0  0  0  0  0
   37.0650   26.2540   33.5640 N   0  0  0  0  0  0  0  0  0  0  0  0
   37.0390   27.4630   34.1510 C   0  0  0  0  0  0  0  0  0  0  0  0
   37.7150   27.6710   35.2810 N   0  0  0  0  0  0  0  0  0  0  0  0
   36.2740   28.5070   33.5400 N   0  0  0  0  0  0  0  0  0  0  0  0
   36.5060   29.0010   32.1980 C   0  0  0  0  0  0  0  0  0  0  0  0
   35.3410   29.8720   31.8960 C   0  0  0  0  0  0  0  0  0  0  0  0
   34.3350   29.6270   33.0020 C   0  0  0  0  0  0  0  0  0  0  0  0
   35.1650   29.2180   34.1700 C   0  0  0  0  0  0  0  0  0  0  0  0
   38.9870   26.8740   36.7870 H   0  0  0  0  0  0  0  0  0  0  0  0
   37.8230   24.2380   33.6540 H   0  0  0  0  0  0  0  0  0  0  0  0
   36.5990   28.1620   31.4660 H   0  0  0  0  0  0  0  0  0  0  0  0
   37.4390   29.6090   32.1810 H   0  0  0  0  0  0  0  0  0  0  0  0
   34.8930   29.6970   30.9030 H   0  0  0  0  0  0  0  0  0  0  0  0
   35.6320   30.9590   31.9950 H   0  0  0  0  0  0  0  0  0  0  0  0
   33.7030   28.7670   32.6980 H   0  0  0  0  0  0  0  0  0  0  0  0
   33.7490   30.5560   33.1940 H   0  0  0  0  0  0  0  0  0  0  0  0
   34.6500   28.5890   34.9080 H   0  0  0  0  0  0  0  0  0  0  0  0
   35.5630   30.1340   34.6620 H   0  0  0  0  0  0  0  0  0  0  0  0
   40.6080   24.3730   35.5520 C   0  0  0  0  0  0  0  0  0  0  0  0
   39.2910   24.4150   35.9560 C   0  0  0  0  0  0  0  0  0  0  0  0
   38.8340   23.5570   36.9320 C   0  0  0  0  0  0  0  0  0  0  0  0
   37.7790   23.7200   37.1340 H   0  0  0  0  0  0  0  0  0  0  0  0
   39.6490   22.6340   37.5440 C   0  0  0  0  0  0  0  0  0  0  0  0
   39.1380   22.0560   38.2710 H   0  0  0  0  0  0  0  0  0  0  0  0
   40.9660   22.5890   37.1440 C   0  0  0  0  0  3  0  0  0  0  0  0
   41.4570   23.4410   36.1610 C   0  0  0  0  0  3  0  0  0  0  0  0
   41.9740   26.2440   34.8120 N   0  0  0  0  0  0  0  0  0  0  0  0
   41.3050   25.1590   34.5440 C   0  0  0  0  0  0  0  0  0  0  0  0
   41.4250   24.9600   33.1610 N   0  0  0  0  0  0  0  0  0  0  0  0
   42.0400   26.6150   35.7940 H   0  0  0  0  0  0  0  0  0  0  0  0
   41.1620   24.8000   32.1730 H   0  0  0  0  0  0  0  0  0  0  0  0
   42.2980   24.9230   32.6010 H   0  0  0  0  0  0  0  0  0  0  0  0
  1 12  1  0  0  0  0
  2  1  2  0  0  0  0
  2 23  1  0  0  0  0
  3  2  1  0  0  0  0
  4  3  2  0  0  0  0
  4  5  1  0  0  0  0
  5  6  2  0  0  0  0
  6  1  1  0  0  0  0
  7  5  1  0  0  0  0
  7 11  1  0  0  0  0
  8  7  1  0  0  0  0
  9 17  1  0  0  0  0
  9  8  1  0  0  0  0
  9 10  1  0  0  0  0
 10 19  1  0  0  0  0
 10 11  1  0  0  0  0
 11 21  1  0  0  0  0
 11 20  1  0  0  0  0
 13  3  1  0  0  0  0
 14  8  1  0  0  0  0
 15  8  1  0  0  0  0
 16  9  1  0  0  0  0
 18 10  1  0  0  0  0
 22 23  2  0  0  0  0
 22 29  1  0  0  0  0
 23 24  1  0  0  0  0
 24 25  1  0  0  0  0
 24 26  2  0  0  0  0
 26 27  1  0  0  0  0
 28 26  1  0  0  0  0
 29 28  2  0  0  0  0
 30 33  1  0  0  0  0
 31 30  2  0  0  0  0
 31 22  1  0  0  0  0
 32 31  1  0  0  0  0
 34 32  1  0  0  0  0
 35 32  1  0  0  0  0
M  END
>  <minimizedAffinity>
-5.1742444

$$$$

 OpenBabel03272510073D

 35 37  0  0  0  0  0  0  0  0999 V2000
   38.9280   27.1110   34.7110 C   0  0  0  0  0  0  0  0  0  0  0  0
   37.7610   26.7450   34.0260 C   0  0  0  0  0  0  0  0  0  0  0  0
   37.4130   25.3940   34.0020 C   0  0  0  0  0  0  0  0  0  0  0  0
   38.2130   24.4940   34.6400 N   0  0  0  0  0  0  0  0  0  0  0  0
   39.3260   24.8790   35.2890 C   0  0  0  0  0  0  0  0  0  0  0  0
   39.6700   26.1670   35.3190 N   0  0  0  0  0  0  0  0  0  0  0  0
   40.1220   23.8820   35.9380 N   0  0  0  0  0  0  0  0  0  0  0  0
   39.6330   23.0140   36.9890 C   0  0  0  0  0  0  0  0  0  0  0  0
   40.6950   21.9890   37.1740 C   0  0  0  0  0  0  0  0  0  0  0  0
   41.6520   22.1630   36.0130 C   0  0  0  0  0  0  0  0  0  0  0  0
   41.5230   23.6000   35.6420 C   0  0  0  0  0  0  0  0  0  0  0  0
   39.2160   28.1620   34.7390 H   0  0  0  0  0  0  0  0  0  0  0  0
   36.5120   25.1260   33.4760 H   0  0  0  0  0  0  0  0  0  0  0  0
   38.6540   22.5520   36.7120 H   0  0  0  0  0  0  0  0  0  0  0  0
   39.5120   23.5970   37.9300 H   0  0  0  0  0  0  0  0  0  0  0  0
   40.3160   20.9550   37.2290 H   0  0  0  0  0  0  0  0  0  0  0  0
   41.3010   22.2220   38.0970 H   0  0  0  0  0  0  0  0  0  0  0  0
   41.2770   21.5440   35.1710 H   0  0  0  0  0  0  0  0  0  0  0  0
   42.6850   21.8900   36.3310 H   0  0  0  0  0  0  0  0  0  0  0  0
   41.7700   23.8330   34.5980 H   0  0  0  0  0  0  0  0  0  0  0  0
   42.1620   24.2030   36.3270 H   0  0  0  0  0  0  0  0  0  0  0  0
   37.2460   27.9730   32.0500 C   0  0  0  0  0  0  0  0  0  0  0  0
   37.0010   27.8170   33.3970 C   0  0  0  0  0  0  0  0  0  0  0  0
   36.0930   28.6310   34.0380 C   0  0  0  0  0  0  0  0  0  0  0  0
   36.0170   28.3780   35.0930 H   0  0  0  0  0  0  0  0  0  0  0  0
   35.3970   29.6200   33.3850 C   0  0  0  0  0  0  0  0  0  0  0  0
   34.7410   30.1510   34.0260 H   0  0  0  0  0  0  0  0  0  0  0  0
   35.6390   29.7790   32.0370 C   0  0  0  0  0  3  0  0  0  0  0  0
   36.5490   28.9740   31.3630 C   0  0  0  0  0  3  0  0  0  0  0  0
   37.7940   26.2520   30.4220 N   0  0  0  0  0  0  0  0  0  0  0  0
   38.1580   27.2510   31.1740 C   0  0  0  0  0  0  0  0  0  0  0  0
   39.5270   27.4390   30.9360 N   0  0  0  0  0  0  0  0  0  0  0  0
   36.8000   25.9070   30.4160 H   0  0  0  0  0  0  0  0  0  0  0  0
   40.5410   27.5520   31.1130 H   0  0  0  0  0  0  0  0  0  0  0  0
   39.9990   27.5620   30.0200 H   0  0  0  0  0  0  0  0  0  0  0  0
  1 12  1  0  0  0  0
  1  6  1  0  0  0  0
  2  1  2  0  0  0  0
  3  2  1  0  0  0  0
  3  4  2  0  0  0  0
  4  5  1  0  0  0  0
  5  6  2  0  0  0  0
  5  7  1  0  0  0  0
  7  8  1  0  0  0  0
  8  9  1  0  0  0  0
  8 15  1  0  0  0  0
  9 16  1  0  0  0  0
  9 17  1  0  0  0  0
 10 19  1  0  0  0  0
 10  9  1  0  0  0  0
 11  7  1  0  0  0  0
 11 10  1  0  0  0  0
 11 21  1  0  0  0  0
 13  3  1  0  0  0  0
 14  8  1  0  0  0  0
 18 10  1  0  0  0  0
 20 11  1  0  0  0  0
 22 23  1  0  0  0  0
 23  2  1  0  0  0  0
 23 24  2  0  0  0  0
 24 25  1  0  0  0  0
 26 27  1  0  0  0  0
 26 24  1  0  0  0  0
 28 26  2  0  0  0  0
 29 28  1  0  0  0  0
 29 22  2  0  0  0  0
 30 31  2  0  0  0  0
 31 22  1  0  0  0  0
 32 34  1  0  0  0  0
 32 31  1  0  0  0  0
 33 30  1  0  0  0  0
 35 32  1  0  0  0  0
M  END
>  <minimizedAffinity>
-5.10261393

$$$$
