
 OpenBabel03272500273D

 39 41  0  0  0  0  0  0  0  0999 V2000
   39.6780   31.7520   45.0470 C   0  0  0  0  0  0  0  0  0  0  0  0
   39.6120   33.0540   44.6700 C   0  0  0  0  0  0  0  0  0  0  0  0
   39.6070   33.4260   43.3220 C   0  0  0  0  0  0  0  0  0  0  0  0
   39.6720   32.3830   42.4310 N   0  0  0  0  0  0  0  0  0  0  0  0
   39.7360   31.1020   42.8080 C   0  0  0  0  0  0  0  0  0  0  0  0
   39.7370   30.8310   44.1210 N   0  0  0  0  0  0  0  0  0  0  0  0
   39.5620   33.9130   45.3220 H   0  0  0  0  0  0  0  0  0  0  0  0
   39.5570   34.4330   42.9700 H   0  0  0  0  0  0  0  0  0  0  0  0
   39.1850   30.0460   40.6970 C   0  0  0  0  0  0  0  0  0  0  0  0
   39.8040   29.9490   41.9170 C   0  0  0  0  0  0  0  0  0  0  0  0
   40.4660   28.7870   42.2600 C   0  0  0  0  0  0  0  0  0  0  0  0
   40.9490   28.7070   43.2100 H   0  0  0  0  0  0  0  0  0  0  0  0
   40.4660   27.7670   41.3360 C   0  0  0  0  0  0  0  0  0  0  0  0
   40.9960   26.8810   41.6530 H   0  0  0  0  0  0  0  0  0  0  0  0
   39.8650   27.7920   40.0870 C   0  0  0  0  0  3  0  0  0  0  0  0
   39.2200   28.9730   39.7960 C   0  0  0  0  0  3  0  0  0  0  0  0
   38.9460   31.9340   39.2310 N   0  0  0  0  0  0  0  0  0  0  0  0
   38.4270   31.1480   40.1490 C   0  0  0  0  0  0  0  0  0  0  0  0
   37.1940   31.8370   40.1610 N   0  0  0  0  0  0  0  0  0  0  0  0
   38.3850   32.7100   38.8440 H   0  0  0  0  0  0  0  0  0  0  0  0
   36.3560   31.3520   39.7230 H   0  0  0  0  0  0  0  0  0  0  0  0
   36.9280   32.7710   40.5300 H   0  0  0  0  0  0  0  0  0  0  0  0
   39.6830   31.3900   46.4350 C   0  0  0  0  0  0  0  0  0  0  0  0
   40.7520   31.4560   46.8000 H   0  0  0  0  0  0  0  0  0  0  0  0
   39.4530   30.2880   46.5370 H   0  0  0  0  0  0  0  0  0  0  0  0
   38.8200   32.0870   47.3910 C   0  0  0  0  0  0  0  0  0  0  0  0
   38.1360   32.7820   46.8660 H   0  0  0  0  0  0  0  0  0  0  0  0
   39.4020   32.7540   48.0930 H   0  0  0  0  0  0  0  0  0  0  0  0
   38.0250   31.2090   48.2820 C   0  0  0  0  0  0  0  0  0  0  0  0
   36.9070   30.5520   47.7920 C   0  0  0  0  0  0  0  0  0  0  0  0
   36.3630   29.8150   48.8180 C   0  0  0  0  0  0  0  0  0  0  0  0
   37.1430   30.0320   49.8890 N   0  0  0  0  0  0  0  0  0  0  0  0
   38.1100   30.8540   49.5460 N   0  0  0  0  0  0  0  0  0  0  0  0
   36.4420   30.5360   46.8080 H   0  0  0  0  0  0  0  0  0  0  0  0
   35.4870   29.1800   48.7970 H   0  0  0  0  0  0  0  0  0  0  0  0
   36.9830   29.4710   51.2360 C   0  0  0  0  0  0  0  0  0  0  0  0
   37.7920   28.3780   51.3950 F   0  0  0  0  0  0  0  0  0  0  0  0
   35.6710   29.1120   51.4920 F   0  0  0  0  0  0  0  0  0  0  0  0
   37.3570   30.4050   52.1890 F   0  0  0  0  0  0  0  0  0  0  0  0
  1 23  1  0  0  0  0
  2  1  1  0  0  0  0
  2  7  1  0  0  0  0
  3  2  2  0  0  0  0
  4  5  2  0  0  0  0
  4  3  1  0  0  0  0
  5  6  1  0  0  0  0
  6  1  2  0  0  0  0
  8  3  1  0  0  0  0
  9 10  1  0  0  0  0
 10 11  2  0  0  0  0
 10  5  1  0  0  0  0
 11 12  1  0  0  0  0
 13 14  1  0  0  0  0
 13 11  1  0  0  0  0
 15 13  2  0  0  0  0
 16 15  1  0  0  0  0
 16  9  2  0  0  0  0
 17 18  2  0  0  0  0
 18 19  1  0  0  0  0
 18  9  1  0  0  0  0
 19 22  1  0  0  0  0
 20 17  1  0  0  0  0
 21 19  1  0  0  0  0
 23 25  1  0  0  0  0
 23 24  1  0  0  0  0
 23 26  1  0  0  0  0
 26 28  1  0  0  0  0
 26 29  1  0  0  0  0
 27 26  1  0  0  0  0
 29 33  2  0  0  0  0
 30 29  1  0  0  0  0
 30 31  2  0  0  0  0
 31 32  1  0  0  0  0
 32 36  1  0  0  0  0
 33 32  1  0  0  0  0
 34 30  1  0  0  0  0
 35 31  1  0  0  0  0
 36 37  1  0  0  0  0
 36 38  1  0  0  0  0
 36 39  1  0  0  0  0
M  END
>  <minimizedAffinity>
-5.70452452

>  <minimizedRMSD>
1.16297781

$$$$
