
 OpenBabel03262523143D

 34 36  0  0  0  0  0  0  0  0999 V2000
   38.3080   25.5540   33.5820 C   0  0  0  0  0  0  0  0  0  0  0  0
   38.6540   26.8770   33.7930 C   0  0  0  0  0  0  0  0  0  0  0  0
   39.6990   27.0480   34.6610 C   0  0  0  0  0  0  0  0  0  0  0  0
   40.3520   25.9880   35.2750 C   0  0  0  0  0  0  0  0  0  0  0  0
   39.9410   24.6990   35.0080 C   0  0  0  0  0  0  0  0  0  0  0  0
   38.9170   24.5020   34.1600 N   0  0  0  0  0  0  0  0  0  0  0  0
   38.1180   27.6550   33.2940 H   0  0  0  0  0  0  0  0  0  0  0  0
   39.9510   28.1160   34.8070 H   0  0  0  0  0  0  0  0  0  0  0  0
   41.1260   26.3590   35.9040 H   0  0  0  0  0  0  0  0  0  0  0  0
   35.8820   23.6850   31.5360 C   0  0  0  0  0  0  0  0  0  0  0  0
   35.1330   24.7140   30.9570 C   0  0  0  0  0  0  0  0  0  0  0  0
   35.4620   26.0260   31.2670 C   0  0  0  0  0  0  0  0  0  0  0  0
   36.4940   26.2280   32.1160 N   0  0  0  0  0  0  0  0  0  0  0  0
   37.2080   25.2530   32.6680 C   0  0  0  0  0  0  0  0  0  0  0  0
   36.8740   23.9740   32.3560 N   0  0  0  0  0  0  0  0  0  0  0  0
   34.3280   24.4390   30.2890 H   0  0  0  0  0  0  0  0  0  0  0  0
   34.8840   26.8340   30.8210 H   0  0  0  0  0  0  0  0  0  0  0  0
   35.6320   22.2960   31.2880 N   0  0  0  0  0  0  0  0  0  0  0  0
   36.1080   21.6010   30.6780 H   0  0  0  0  0  0  0  0  0  0  0  0
   34.8060   22.1800   31.9170 H   0  0  0  0  0  0  0  0  0  0  0  0
   40.1780   22.9350   36.7650 C   0  0  0  0  0  0  0  0  0  0  0  0
   40.6630   23.6390   35.6890 C   0  0  0  0  0  0  0  0  0  0  0  0
   41.9210   23.2380   35.3140 C   0  0  0  0  0  0  0  0  0  0  0  0
   42.4530   23.6760   34.4940 H   0  0  0  0  0  0  0  0  0  0  0  0
   42.6250   22.2380   35.9430 C   0  0  0  0  0  0  0  0  0  0  0  0
   43.6100   21.9350   35.6370 H   0  0  0  0  0  0  0  0  0  0  0  0
   42.0910   21.5660   37.0160 C   0  0  0  0  0  3  0  0  0  0  0  0
   40.8330   21.9310   37.4310 C   0  0  0  0  0  3  0  0  0  0  0  0
   37.6960   23.6760   37.2660 N   0  0  0  0  0  0  0  0  0  0  0  0
   38.8770   23.2300   37.3240 C   0  0  0  0  0  0  0  0  0  0  0  0
   38.5640   22.9070   38.6960 N   0  0  0  0  0  0  0  0  0  0  0  0
   37.1180   23.6100   38.1270 H   0  0  0  0  0  0  0  0  0  0  0  0
   38.1200   22.4120   39.4900 H   0  0  0  0  0  0  0  0  0  0  0  0
   38.9880   23.4280   39.5000 H   0  0  0  0  0  0  0  0  0  0  0  0
  1  2  2  0  0  0  0
  1  6  1  0  0  0  0
  2  3  1  0  0  0  0
  3  8  1  0  0  0  0
  3  4  2  0  0  0  0
  4  9  1  0  0  0  0
  5  4  1  0  0  0  0
  5 22  1  0  0  0  0
  6  5  2  0  0  0  0
  7  2  1  0  0  0  0
 10 15  1  0  0  0  0
 11 12  1  0  0  0  0
 11 10  2  0  0  0  0
 12 13  2  0  0  0  0
 13 14  1  0  0  0  0
 14  1  1  0  0  0  0
 15 14  2  0  0  0  0
 16 11  1  0  0  0  0
 17 12  1  0  0  0  0
 18 10  1  0  0  0  0
 18 20  1  0  0  0  0
 19 18  1  0  0  0  0
 21 30  1  0  0  0  0
 21 28  1  0  0  0  0
 22 21  2  0  0  0  0
 23 22  1  0  0  0  0
 23 25  2  0  0  0  0
 24 23  1  0  0  0  0
 25 27  1  0  0  0  0
 26 25  1  0  0  0  0
 27 28  2  0  0  0  0
 29 30  2  0  0  0  0
 29 32  1  0  0  0  0
 30 31  1  0  0  0  0
 31 33  1  0  0  0  0
 31 34  1  0  0  0  0
M  END
>  <minimizedAffinity>
-6.3564682

$$$$

 OpenBabel03262523143D

 34 36  0  0  0  0  0  0  0  0999 V2000
   37.3730   24.8240   32.6320 C   0  0  0  0  0  0  0  0  0  0  0  0
   36.4370   25.6230   31.9990 C   0  0  0  0  0  0  0  0  0  0  0  0
   35.4860   24.9240   31.3050 C   0  0  0  0  0  0  0  0  0  0  0  0
   35.4630   23.5380   31.2430 C   0  0  0  0  0  0  0  0  0  0  0  0
   36.4360   22.8180   31.9050 C   0  0  0  0  0  0  0  0  0  0  0  0
   37.3820   23.4790   32.5940 N   0  0  0  0  0  0  0  0  0  0  0  0
   36.5020   26.6870   32.0800 H   0  0  0  0  0  0  0  0  0  0  0  0
   34.7540   25.5920   30.8120 H   0  0  0  0  0  0  0  0  0  0  0  0
   34.6390   23.2180   30.6500 H   0  0  0  0  0  0  0  0  0  0  0  0
   39.0960   26.8530   35.1780 C   0  0  0  0  0  0  0  0  0  0  0  0
   40.4410   26.6490   34.8540 C   0  0  0  0  0  0  0  0  0  0  0  0
   40.7440   25.8280   33.7770 C   0  0  0  0  0  0  0  0  0  0  0  0
   39.7120   25.2730   33.1030 N   0  0  0  0  0  0  0  0  0  0  0  0
   38.4330   25.4650   33.4080 C   0  0  0  0  0  0  0  0  0  0  0  0
   38.1520   26.2700   34.4650 N   0  0  0  0  0  0  0  0  0  0  0  0
   41.1880   27.1430   35.4600 H   0  0  0  0  0  0  0  0  0  0  0  0
   41.7880   25.6630   33.5170 H   0  0  0  0  0  0  0  0  0  0  0  0
   38.6670   27.6780   36.2680 N   0  0  0  0  0  0  0  0  0  0  0  0
   38.2880   28.6460   36.3010 H   0  0  0  0  0  0  0  0  0  0  0  0
   38.8530   27.0060   37.0450 H   0  0  0  0  0  0  0  0  0  0  0  0
   36.3250   20.5100   32.8610 C   0  0  0  0  0  0  0  0  0  0  0  0
   36.3560   21.3730   31.7920 C   0  0  0  0  0  0  0  0  0  0  0  0
   36.3050   20.7240   30.5830 C   0  0  0  0  0  0  0  0  0  0  0  0
   36.3180   21.2390   29.6430 H   0  0  0  0  0  0  0  0  0  0  0  0
   36.2300   19.3580   30.4490 C   0  0  0  0  0  0  0  0  0  0  0  0
   36.1900   18.8640   29.4950 H   0  0  0  0  0  0  0  0  0  0  0  0
   36.2010   18.5410   31.5540 C   0  0  0  0  0  3  0  0  0  0  0  0
   36.2500   19.1430   32.7890 C   0  0  0  0  0  3  0  0  0  0  0  0
   36.8990   21.7030   35.1430 N   0  0  0  0  0  0  0  0  0  0  0  0
   36.3950   21.0020   34.2180 C   0  0  0  0  0  0  0  0  0  0  0  0
   35.4490   20.5710   35.2190 N   0  0  0  0  0  0  0  0  0  0  0  0
   36.4510   21.6490   36.0790 H   0  0  0  0  0  0  0  0  0  0  0  0
   34.6560   20.6310   35.8830 H   0  0  0  0  0  0  0  0  0  0  0  0
   35.4580   19.5980   35.6090 H   0  0  0  0  0  0  0  0  0  0  0  0
  1 14  1  0  0  0  0
  2  7  1  0  0  0  0
  2  1  2  0  0  0  0
  3  2  1  0  0  0  0
  4  3  2  0  0  0  0
  4  5  1  0  0  0  0
  5  6  2  0  0  0  0
  6  1  1  0  0  0  0
  8  3  1  0  0  0  0
  9  4  1  0  0  0  0
 10 18  1  0  0  0  0
 11 10  1  0  0  0  0
 11 16  1  0  0  0  0
 12 11  2  0  0  0  0
 13 14  2  0  0  0  0
 13 12  1  0  0  0  0
 14 15  1  0  0  0  0
 15 10  2  0  0  0  0
 17 12  1  0  0  0  0
 18 19  1  0  0  0  0
 18 20  1  0  0  0  0
 21 30  1  0  0  0  0
 22  5  1  0  0  0  0
 22 21  2  0  0  0  0
 23 22  1  0  0  0  0
 24 23  1  0  0  0  0
 25 23  2  0  0  0  0
 25 27  1  0  0  0  0
 26 25  1  0  0  0  0
 27 28  2  0  0  0  0
 28 21  1  0  0  0  0
 29 32  1  0  0  0  0
 30 29  2  0  0  0  0
 30 31  1  0  0  0  0
 31 34  1  0  0  0  0
 31 33  1  0  0  0  0
M  END
>  <minimizedAffinity>
-5.94365263

$$$$

 OpenBabel03262523143D

 34 36  0  0  0  0  0  0  0  0999 V2000
   37.4920   24.3190   32.9290 C   0  0  0  0  0  0  0  0  0  0  0  0
   36.8450   23.3240   32.2180 C   0  0  0  0  0  0  0  0  0  0  0  0
   37.2200   22.0550   32.5660 C   0  0  0  0  0  0  0  0  0  0  0  0
   38.1670   21.7890   33.5460 C   0  0  0  0  0  0  0  0  0  0  0  0
   38.7650   22.8420   34.2060 C   0  0  0  0  0  0  0  0  0  0  0  0
   38.4150   24.0990   33.8840 N   0  0  0  0  0  0  0  0  0  0  0  0
   36.1230   23.5850   31.4740 H   0  0  0  0  0  0  0  0  0  0  0  0
   36.6830   21.2850   31.9790 H   0  0  0  0  0  0  0  0  0  0  0  0
   38.2970   20.7380   33.6440 H   0  0  0  0  0  0  0  0  0  0  0  0
   36.6910   27.4110   31.0960 C   0  0  0  0  0  0  0  0  0  0  0  0
   36.5420   28.3370   32.1340 C   0  0  0  0  0  0  0  0  0  0  0  0
   36.7170   27.8990   33.4390 C   0  0  0  0  0  0  0  0  0  0  0  0
   37.0230   26.5960   33.6260 N   0  0  0  0  0  0  0  0  0  0  0  0
   37.1650   25.7140   32.6440 C   0  0  0  0  0  0  0  0  0  0  0  0
   36.9900   26.1560   31.3710 N   0  0  0  0  0  0  0  0  0  0  0  0
   36.2970   29.3560   31.8700 H   0  0  0  0  0  0  0  0  0  0  0  0
   36.6030   28.6120   34.2530 H   0  0  0  0  0  0  0  0  0  0  0  0
   36.5320   27.7500   29.7130 N   0  0  0  0  0  0  0  0  0  0  0  0
   37.2230   27.9310   28.9570 H   0  0  0  0  0  0  0  0  0  0  0  0
   35.4890   27.7630   29.6820 H   0  0  0  0  0  0  0  0  0  0  0  0
   39.5810   22.6780   36.5650 C   0  0  0  0  0  0  0  0  0  0  0  0
   39.7500   22.4920   35.2140 C   0  0  0  0  0  0  0  0  0  0  0  0
   40.9650   21.9340   34.9020 C   0  0  0  0  0  0  0  0  0  0  0  0
   41.2670   21.7170   33.8970 H   0  0  0  0  0  0  0  0  0  0  0  0
   41.9160   21.5950   35.8360 C   0  0  0  0  0  0  0  0  0  0  0  0
   42.8630   21.1590   35.5760 H   0  0  0  0  0  0  0  0  0  0  0  0
   41.6930   21.8040   37.1760 C   0  0  0  0  0  3  0  0  0  0  0  0
   40.4900   22.3600   37.5410 C   0  0  0  0  0  3  0  0  0  0  0  0
   37.4190   24.1050   37.0620 N   0  0  0  0  0  0  0  0  0  0  0  0
   38.3750   23.2780   37.0890 C   0  0  0  0  0  0  0  0  0  0  0  0
   37.7750   22.8010   38.3130 N   0  0  0  0  0  0  0  0  0  0  0  0
   36.7300   24.0620   37.8390 H   0  0  0  0  0  0  0  0  0  0  0  0
   37.0850   22.3340   38.9270 H   0  0  0  0  0  0  0  0  0  0  0  0
   38.2190   22.9620   39.2480 H   0  0  0  0  0  0  0  0  0  0  0  0
  1  6  1  0  0  0  0
  2  3  1  0  0  0  0
  2  1  2  0  0  0  0
  3  4  2  0  0  0  0
  4  9  1  0  0  0  0
  4  5  1  0  0  0  0
  5 22  1  0  0  0  0
  6  5  2  0  0  0  0
  7  2  1  0  0  0  0
  8  3  1  0  0  0  0
 10 15  2  0  0  0  0
 10 11  1  0  0  0  0
 11 12  2  0  0  0  0
 12 13  1  0  0  0  0
 12 17  1  0  0  0  0
 14  1  1  0  0  0  0
 14 13  2  0  0  0  0
 15 14  1  0  0  0  0
 16 11  1  0  0  0  0
 18 10  1  0  0  0  0
 19 18  1  0  0  0  0
 20 18  1  0  0  0  0
 21 30  1  0  0  0  0
 21 28  1  0  0  0  0
 22 21  2  0  0  0  0
 23 22  1  0  0  0  0
 23 25  2  0  0  0  0
 24 23  1  0  0  0  0
 25 27  1  0  0  0  0
 26 25  1  0  0  0  0
 27 28  2  0  0  0  0
 29 30  2  0  0  0  0
 29 32  1  0  0  0  0
 30 31  1  0  0  0  0
 31 33  1  0  0  0  0
 31 34  1  0  0  0  0
M  END
>  <minimizedAffinity>
-5.90504932

$$$$

 OpenBabel03262523143D

 34 36  0  0  0  0  0  0  0  0999 V2000
   40.0130   23.1990   36.9570 C   0  0  0  0  0  0  0  0  0  0  0  0
   39.3330   22.9820   38.1420 C   0  0  0  0  0  0  0  0  0  0  0  0
   38.1620   23.6820   38.2500 C   0  0  0  0  0  0  0  0  0  0  0  0
   37.6980   24.5350   37.2580 C   0  0  0  0  0  0  0  0  0  0  0  0
   38.4400   24.6940   36.1070 C   0  0  0  0  0  0  0  0  0  0  0  0
   39.5950   24.0180   35.9750 N   0  0  0  0  0  0  0  0  0  0  0  0
   39.7360   22.3130   38.8730 H   0  0  0  0  0  0  0  0  0  0  0  0
   37.6430   23.4840   39.2080 H   0  0  0  0  0  0  0  0  0  0  0  0
   36.7740   24.9670   37.5600 H   0  0  0  0  0  0  0  0  0  0  0  0
   42.6320   20.6120   37.0470 C   0  0  0  0  0  0  0  0  0  0  0  0
   43.6500   21.1980   36.2890 C   0  0  0  0  0  0  0  0  0  0  0  0
   43.4340   22.4620   35.7590 C   0  0  0  0  0  0  0  0  0  0  0  0
   42.2440   23.0520   36.0120 N   0  0  0  0  0  0  0  0  0  0  0  0
   41.2750   22.4980   36.7330 C   0  0  0  0  0  0  0  0  0  0  0  0
   41.5000   21.2600   37.2440 N   0  0  0  0  0  0  0  0  0  0  0  0
   44.5630   20.6370   36.1490 H   0  0  0  0  0  0  0  0  0  0  0  0
   44.2200   22.9270   35.1670 H   0  0  0  0  0  0  0  0  0  0  0  0
   42.7440   19.3120   37.6410 N   0  0  0  0  0  0  0  0  0  0  0  0
   42.9410   19.0060   38.6160 H   0  0  0  0  0  0  0  0  0  0  0  0
   42.5670   18.7420   36.7840 H   0  0  0  0  0  0  0  0  0  0  0  0
   37.6150   25.2610   33.8150 C   0  0  0  0  0  0  0  0  0  0  0  0
   37.9000   25.6060   35.1140 C   0  0  0  0  0  0  0  0  0  0  0  0
   37.6200   26.9220   35.3890 C   0  0  0  0  0  0  0  0  0  0  0  0
   37.7790   27.3630   36.3520 H   0  0  0  0  0  0  0  0  0  0  0  0
   37.1100   27.8050   34.4670 C   0  0  0  0  0  0  0  0  0  0  0  0
   36.8960   28.8330   34.6980 H   0  0  0  0  0  0  0  0  0  0  0  0
   36.8430   27.4060   33.1800 C   0  0  0  0  0  3  0  0  0  0  0  0
   37.1060   26.0960   32.8540 C   0  0  0  0  0  3  0  0  0  0  0  0
   38.5240   22.8460   33.2680 N   0  0  0  0  0  0  0  0  0  0  0  0
   37.8660   23.9230   33.3270 C   0  0  0  0  0  0  0  0  0  0  0  0
   36.9820   23.3000   32.3710 N   0  0  0  0  0  0  0  0  0  0  0  0
   38.1660   22.1020   32.6360 H   0  0  0  0  0  0  0  0  0  0  0  0
   36.2680   22.6450   32.0060 H   0  0  0  0  0  0  0  0  0  0  0  0
   36.9310   23.6160   31.3730 H   0  0  0  0  0  0  0  0  0  0  0  0
  1  2  1  0  0  0  0
  2  3  2  0  0  0  0
  2  7  1  0  0  0  0
  3  8  1  0  0  0  0
  4  9  1  0  0  0  0
  4  3  1  0  0  0  0
  5  4  2  0  0  0  0
  6  5  1  0  0  0  0
  6  1  2  0  0  0  0
 10 15  1  0  0  0  0
 10 18  1  0  0  0  0
 11 10  2  0  0  0  0
 12 13  2  0  0  0  0
 12 11  1  0  0  0  0
 13 14  1  0  0  0  0
 14  1  1  0  0  0  0
 14 15  2  0  0  0  0
 16 11  1  0  0  0  0
 17 12  1  0  0  0  0
 18 19  1  0  0  0  0
 20 18  1  0  0  0  0
 21 22  1  0  0  0  0
 22 23  2  0  0  0  0
 22  5  1  0  0  0  0
 23 24  1  0  0  0  0
 25 26  1  0  0  0  0
 25 23  1  0  0  0  0
 27 25  2  0  0  0  0
 28 27  1  0  0  0  0
 28 21  2  0  0  0  0
 29 30  2  0  0  0  0
 30 21  1  0  0  0  0
 31 30  1  0  0  0  0
 32 29  1  0  0  0  0
 33 31  1  0  0  0  0
 34 31  1  0  0  0  0
M  END
>  <minimizedAffinity>
-5.8856535

$$$$

 OpenBabel03262523143D

 34 36  0  0  0  0  0  0  0  0999 V2000
   36.6550   27.9130   33.5250 C   0  0  0  0  0  0  0  0  0  0  0  0
   36.7430   28.3160   32.2040 C   0  0  0  0  0  0  0  0  0  0  0  0
   36.2020   29.5500   31.9600 C   0  0  0  0  0  0  0  0  0  0  0  0
   35.6170   30.3270   32.9510 C   0  0  0  0  0  0  0  0  0  0  0  0
   35.5720   29.8470   34.2430 C   0  0  0  0  0  0  0  0  0  0  0  0
   36.0960   28.6380   34.5100 N   0  0  0  0  0  0  0  0  0  0  0  0
   37.2040   27.6770   31.4810 H   0  0  0  0  0  0  0  0  0  0  0  0
   36.2900   29.8410   30.8960 H   0  0  0  0  0  0  0  0  0  0  0  0
   35.2670   31.2390   32.5310 H   0  0  0  0  0  0  0  0  0  0  0  0
   37.9160   25.1120   35.5570 C   0  0  0  0  0  0  0  0  0  0  0  0
   38.2340   24.1610   34.5820 C   0  0  0  0  0  0  0  0  0  0  0  0
   38.0170   24.4850   33.2500 C   0  0  0  0  0  0  0  0  0  0  0  0
   37.5090   25.7070   32.9770 N   0  0  0  0  0  0  0  0  0  0  0  0
   37.2060   26.6130   33.9000 C   0  0  0  0  0  0  0  0  0  0  0  0
   37.4230   26.2820   35.2000 N   0  0  0  0  0  0  0  0  0  0  0  0
   38.6360   23.2140   34.9110 H   0  0  0  0  0  0  0  0  0  0  0  0
   38.2610   23.7510   32.4830 H   0  0  0  0  0  0  0  0  0  0  0  0
   38.0970   24.8870   36.9610 N   0  0  0  0  0  0  0  0  0  0  0  0
   38.8290   25.2040   37.6280 H   0  0  0  0  0  0  0  0  0  0  0  0
   37.2530   24.2940   37.1250 H   0  0  0  0  0  0  0  0  0  0  0  0
   33.6130   30.6460   35.5770 C   0  0  0  0  0  0  0  0  0  0  0  0
   34.9400   30.7080   35.2270 C   0  0  0  0  0  0  0  0  0  0  0  0
   35.6250   31.6830   35.9090 C   0  0  0  0  0  0  0  0  0  0  0  0
   36.6700   31.8730   35.7640 H   0  0  0  0  0  0  0  0  0  0  0  0
   35.0500   32.5120   36.8440 C   0  0  0  0  0  0  0  0  0  0  0  0
   35.6000   33.2710   37.3700 H   0  0  0  0  0  0  0  0  0  0  0  0
   33.7160   32.4050   37.1560 C   0  0  0  0  0  3  0  0  0  0  0  0
   32.9850   31.4430   36.4990 C   0  0  0  0  0  3  0  0  0  0  0  0
   32.0980   29.2140   33.9590 N   0  0  0  0  0  0  0  0  0  0  0  0
   32.7200   29.6980   34.9480 C   0  0  0  0  0  0  0  0  0  0  0  0
   32.0950   28.6440   35.7100 N   0  0  0  0  0  0  0  0  0  0  0  0
   31.5000   28.3830   34.1330 H   0  0  0  0  0  0  0  0  0  0  0  0
   31.9010   27.6820   36.0420 H   0  0  0  0  0  0  0  0  0  0  0  0
   31.3390   28.8370   36.4090 H   0  0  0  0  0  0  0  0  0  0  0  0
  1 14  1  0  0  0  0
  1  6  1  0  0  0  0
  2  1  2  0  0  0  0
  3  2  1  0  0  0  0
  3  4  2  0  0  0  0
  4  5  1  0  0  0  0
  5  6  2  0  0  0  0
  5 22  1  0  0  0  0
  7  2  1  0  0  0  0
  8  3  1  0  0  0  0
  9  4  1  0  0  0  0
 10 18  1  0  0  0  0
 11 16  1  0  0  0  0
 11 10  2  0  0  0  0
 12 11  1  0  0  0  0
 13 12  2  0  0  0  0
 13 14  1  0  0  0  0
 14 15  2  0  0  0  0
 15 10  1  0  0  0  0
 17 12  1  0  0  0  0
 18 20  1  0  0  0  0
 18 19  1  0  0  0  0
 21 28  1  0  0  0  0
 22 21  2  0  0  0  0
 22 23  1  0  0  0  0
 23 25  2  0  0  0  0
 24 23  1  0  0  0  0
 25 27  1  0  0  0  0
 25 26  1  0  0  0  0
 28 27  2  0  0  0  0
 29 32  1  0  0  0  0
 29 30  2  0  0  0  0
 30 21  1  0  0  0  0
 30 31  1  0  0  0  0
 31 33  1  0  0  0  0
 31 34  1  0  0  0  0
M  END
>  <minimizedAffinity>
-5.85124063

$$$$

 OpenBabel03262523143D

 34 36  0  0  0  0  0  0  0  0999 V2000
   40.2420   22.8750   36.6880 C   0  0  0  0  0  0  0  0  0  0  0  0
   39.5570   22.8600   37.8900 C   0  0  0  0  0  0  0  0  0  0  0  0
   38.3590   23.5220   37.8580 C   0  0  0  0  0  0  0  0  0  0  0  0
   37.8750   24.1530   36.7210 C   0  0  0  0  0  0  0  0  0  0  0  0
   38.6240   24.1200   35.5630 C   0  0  0  0  0  0  0  0  0  0  0  0
   39.8050   23.4760   35.5670 N   0  0  0  0  0  0  0  0  0  0  0  0
   39.9760   22.3580   38.7360 H   0  0  0  0  0  0  0  0  0  0  0  0
   37.8380   23.4890   38.8340 H   0  0  0  0  0  0  0  0  0  0  0  0
   36.9330   24.5980   36.9310 H   0  0  0  0  0  0  0  0  0  0  0  0
   42.8690   20.3200   37.0530 C   0  0  0  0  0  0  0  0  0  0  0  0
   43.9610   20.9300   36.4300 C   0  0  0  0  0  0  0  0  0  0  0  0
   43.7910   22.2000   35.8960 C   0  0  0  0  0  0  0  0  0  0  0  0
   42.5720   22.7710   36.0140 N   0  0  0  0  0  0  0  0  0  0  0  0
   41.5320   22.1940   36.6050 C   0  0  0  0  0  0  0  0  0  0  0  0
   41.7120   20.9510   37.1230 N   0  0  0  0  0  0  0  0  0  0  0  0
   44.8930   20.3830   36.3920 H   0  0  0  0  0  0  0  0  0  0  0  0
   44.6360   22.6840   35.4090 H   0  0  0  0  0  0  0  0  0  0  0  0
   42.9280   19.0120   37.6380 N   0  0  0  0  0  0  0  0  0  0  0  0
   43.0110   18.6940   38.6240 H   0  0  0  0  0  0  0  0  0  0  0  0
   42.8630   18.4540   36.7580 H   0  0  0  0  0  0  0  0  0  0  0  0
   38.0940   26.1670   34.2280 C   0  0  0  0  0  0  0  0  0  0  0  0
   38.0620   24.8050   34.4140 C   0  0  0  0  0  0  0  0  0  0  0  0
   37.4330   24.1440   33.3880 C   0  0  0  0  0  0  0  0  0  0  0  0
   37.3170   23.0780   33.3650 H   0  0  0  0  0  0  0  0  0  0  0  0
   36.8920   24.7700   32.2900 C   0  0  0  0  0  0  0  0  0  0  0  0
   36.4030   24.2370   31.4940 H   0  0  0  0  0  0  0  0  0  0  0  0
   36.9530   26.1360   32.1550 C   0  0  0  0  0  3  0  0  0  0  0  0
   37.5720   26.8460   33.1560 C   0  0  0  0  0  3  0  0  0  0  0  0
   38.6500   27.8220   36.2050 N   0  0  0  0  0  0  0  0  0  0  0  0
   38.6920   27.0390   35.2130 C   0  0  0  0  0  0  0  0  0  0  0  0
   40.1170   27.2680   35.2410 N   0  0  0  0  0  0  0  0  0  0  0  0
   39.5520   28.2170   36.5390 H   0  0  0  0  0  0  0  0  0  0  0  0
   41.0930   27.2160   35.5830 H   0  0  0  0  0  0  0  0  0  0  0  0
   40.6040   27.8280   34.5010 H   0  0  0  0  0  0  0  0  0  0  0  0
  1  2  1  0  0  0  0
  2  7  1  0  0  0  0
  3  2  2  0  0  0  0
  3  8  1  0  0  0  0
  4  9  1  0  0  0  0
  4  3  1  0  0  0  0
  5  6  1  0  0  0  0
  5  4  2  0  0  0  0
  6  1  2  0  0  0  0
 10 15  1  0  0  0  0
 10 18  1  0  0  0  0
 11 10  2  0  0  0  0
 12 13  2  0  0  0  0
 12 11  1  0  0  0  0
 13 14  1  0  0  0  0
 14  1  1  0  0  0  0
 14 15  2  0  0  0  0
 16 11  1  0  0  0  0
 17 12  1  0  0  0  0
 18 19  1  0  0  0  0
 20 18  1  0  0  0  0
 21 22  1  0  0  0  0
 21 30  1  0  0  0  0
 22  5  1  0  0  0  0
 23 22  2  0  0  0  0
 24 23  1  0  0  0  0
 25 23  1  0  0  0  0
 26 25  1  0  0  0  0
 27 25  2  0  0  0  0
 27 28  1  0  0  0  0
 28 21  2  0  0  0  0
 29 32  1  0  0  0  0
 30 31  1  0  0  0  0
 30 29  2  0  0  0  0
 31 33  1  0  0  0  0
 34 31  1  0  0  0  0
M  END
>  <minimizedAffinity>
-5.83972359

$$$$

 OpenBabel03262523143D

 34 36  0  0  0  0  0  0  0  0999 V2000
   42.1560   25.0160   34.7510 C   0  0  0  0  0  0  0  0  0  0  0  0
   43.2810   25.8050   34.5840 C   0  0  0  0  0  0  0  0  0  0  0  0
   43.0500   26.9650   33.8950 C   0  0  0  0  0  0  0  0  0  0  0  0
   41.8000   27.3180   33.4060 C   0  0  0  0  0  0  0  0  0  0  0  0
   40.7320   26.4710   33.6180 C   0  0  0  0  0  0  0  0  0  0  0  0
   40.9300   25.3250   34.2910 N   0  0  0  0  0  0  0  0  0  0  0  0
   44.2200   25.4850   34.9810 H   0  0  0  0  0  0  0  0  0  0  0  0
   43.9690   27.5720   33.7800 H   0  0  0  0  0  0  0  0  0  0  0  0
   41.8610   28.2550   32.9070 H   0  0  0  0  0  0  0  0  0  0  0  0
   41.4250   22.1970   37.0050 C   0  0  0  0  0  0  0  0  0  0  0  0
   42.5450   21.3780   36.8240 C   0  0  0  0  0  0  0  0  0  0  0  0
   43.5310   21.7950   35.9420 C   0  0  0  0  0  0  0  0  0  0  0  0
   43.3470   22.9750   35.3080 N   0  0  0  0  0  0  0  0  0  0  0  0
   42.2850   23.7550   35.4780 C   0  0  0  0  0  0  0  0  0  0  0  0
   41.3270   23.3340   36.3440 N   0  0  0  0  0  0  0  0  0  0  0  0
   42.5910   20.4540   37.3830 H   0  0  0  0  0  0  0  0  0  0  0  0
   44.4060   21.1650   35.7940 H   0  0  0  0  0  0  0  0  0  0  0  0
   40.3460   21.8670   37.8890 N   0  0  0  0  0  0  0  0  0  0  0  0
   40.1020   22.2000   38.8440 H   0  0  0  0  0  0  0  0  0  0  0  0
   39.8610   21.1730   37.2780 H   0  0  0  0  0  0  0  0  0  0  0  0
   38.3560   27.2210   33.8330 C   0  0  0  0  0  0  0  0  0  0  0  0
   39.4550   26.8980   33.0740 C   0  0  0  0  0  0  0  0  0  0  0  0
   39.2250   27.0200   31.7260 C   0  0  0  0  0  0  0  0  0  0  0  0
   39.9700   26.8110   30.9850 H   0  0  0  0  0  0  0  0  0  0  0  0
   38.0250   27.4220   31.1870 C   0  0  0  0  0  0  0  0  0  0  0  0
   37.8600   27.5120   30.1280 H   0  0  0  0  0  0  0  0  0  0  0  0
   36.9580   27.7330   31.9940 C   0  0  0  0  0  3  0  0  0  0  0  0
   37.1370   27.6270   33.3530 C   0  0  0  0  0  3  0  0  0  0  0  0
   38.5500   27.6110   36.4350 N   0  0  0  0  0  0  0  0  0  0  0  0
   38.3940   27.1310   35.2760 C   0  0  0  0  0  0  0  0  0  0  0  0
   38.1320   25.8840   35.9530 N   0  0  0  0  0  0  0  0  0  0  0  0
   38.4310   26.9620   37.2390 H   0  0  0  0  0  0  0  0  0  0  0  0
   37.6230   25.1910   36.5300 H   0  0  0  0  0  0  0  0  0  0  0  0
   38.8070   25.0820   35.9210 H   0  0  0  0  0  0  0  0  0  0  0  0
  1 14  1  0  0  0  0
  2  1  1  0  0  0  0
  2  7  1  0  0  0  0
  3  2  2  0  0  0  0
  4  5  2  0  0  0  0
  4  3  1  0  0  0  0
  5  6  1  0  0  0  0
  6  1  2  0  0  0  0
  8  3  1  0  0  0  0
  9  4  1  0  0  0  0
 10 18  1  0  0  0  0
 11 10  1  0  0  0  0
 11 16  1  0  0  0  0
 12 11  2  0  0  0  0
 13 14  2  0  0  0  0
 13 12  1  0  0  0  0
 14 15  1  0  0  0  0
 15 10  2  0  0  0  0
 17 12  1  0  0  0  0
 18 19  1  0  0  0  0
 20 18  1  0  0  0  0
 21 30  1  0  0  0  0
 22  5  1  0  0  0  0
 22 21  2  0  0  0  0
 23 22  1  0  0  0  0
 24 23  1  0  0  0  0
 25 23  2  0  0  0  0
 25 27  1  0  0  0  0
 26 25  1  0  0  0  0
 27 28  2  0  0  0  0
 28 21  1  0  0  0  0
 29 32  1  0  0  0  0
 30 31  1  0  0  0  0
 30 29  2  0  0  0  0
 31 33  1  0  0  0  0
 34 31  1  0  0  0  0
M  END
>  <minimizedAffinity>
-5.80160618

$$$$

 OpenBabel03262523143D

 34 36  0  0  0  0  0  0  0  0999 V2000
   36.0490   28.0950   32.0070 C   0  0  0  0  0  0  0  0  0  0  0  0
   36.4420   28.8680   30.9300 C   0  0  0  0  0  0  0  0  0  0  0  0
   36.3240   30.2160   31.1380 C   0  0  0  0  0  0  0  0  0  0  0  0
   35.8500   30.7580   32.3240 C   0  0  0  0  0  0  0  0  0  0  0  0
   35.4790   29.9130   33.3490 C   0  0  0  0  0  0  0  0  0  0  0  0
   35.5850   28.5850   33.1720 N   0  0  0  0  0  0  0  0  0  0  0  0
   36.8000   28.3980   30.0390 H   0  0  0  0  0  0  0  0  0  0  0  0
   36.6480   30.8040   30.2580 H   0  0  0  0  0  0  0  0  0  0  0  0
   35.8450   31.8190   32.2570 H   0  0  0  0  0  0  0  0  0  0  0  0
   37.1580   24.6190   32.5090 C   0  0  0  0  0  0  0  0  0  0  0  0
   36.2800   23.9080   31.6840 C   0  0  0  0  0  0  0  0  0  0  0  0
   35.3260   24.6190   30.9690 C   0  0  0  0  0  0  0  0  0  0  0  0
   35.3060   25.9620   31.1160 N   0  0  0  0  0  0  0  0  0  0  0  0
   36.1380   26.6400   31.8980 C   0  0  0  0  0  0  0  0  0  0  0  0
   37.0660   25.9320   32.5920 N   0  0  0  0  0  0  0  0  0  0  0  0
   36.3850   22.8340   31.6400 H   0  0  0  0  0  0  0  0  0  0  0  0
   34.6380   24.0750   30.3250 H   0  0  0  0  0  0  0  0  0  0  0  0
   38.1810   23.9910   33.2920 N   0  0  0  0  0  0  0  0  0  0  0  0
   39.2070   23.8970   33.1510 H   0  0  0  0  0  0  0  0  0  0  0  0
   37.5780   23.6420   34.0700 H   0  0  0  0  0  0  0  0  0  0  0  0
   33.6900   30.4640   35.0080 C   0  0  0  0  0  0  0  0  0  0  0  0
   34.9860   30.5470   34.5590 C   0  0  0  0  0  0  0  0  0  0  0  0
   35.7860   31.3030   35.3800 C   0  0  0  0  0  0  0  0  0  0  0  0
   36.8260   31.4740   35.1860 H   0  0  0  0  0  0  0  0  0  0  0  0
   35.3440   31.9140   36.5300 C   0  0  0  0  0  0  0  0  0  0  0  0
   35.9830   32.5030   37.1620 H   0  0  0  0  0  0  0  0  0  0  0  0
   34.0350   31.7970   36.9320 C   0  0  0  0  0  3  0  0  0  0  0  0
   33.1920   31.0500   36.1440 C   0  0  0  0  0  3  0  0  0  0  0  0
   32.2670   29.1040   33.2520 N   0  0  0  0  0  0  0  0  0  0  0  0
   32.6890   29.7310   34.2650 C   0  0  0  0  0  0  0  0  0  0  0  0
   31.3860   29.4680   34.8270 N   0  0  0  0  0  0  0  0  0  0  0  0
   31.2960   28.7350   33.2900 H   0  0  0  0  0  0  0  0  0  0  0  0
   30.6080   28.9220   35.2360 H   0  0  0  0  0  0  0  0  0  0  0  0
   30.6770   30.2280   34.9640 H   0  0  0  0  0  0  0  0  0  0  0  0
  1  6  1  0  0  0  0
  2  3  1  0  0  0  0
  2  1  2  0  0  0  0
  3  4  2  0  0  0  0
  4  5  1  0  0  0  0
  5 22  1  0  0  0  0
  6  5  2  0  0  0  0
  7  2  1  0  0  0  0
  8  3  1  0  0  0  0
  9  4  1  0  0  0  0
 10 15  1  0  0  0  0
 10 18  1  0  0  0  0
 11 10  2  0  0  0  0
 12 13  2  0  0  0  0
 12 11  1  0  0  0  0
 13 14  1  0  0  0  0
 14  1  1  0  0  0  0
 14 15  2  0  0  0  0
 16 11  1  0  0  0  0
 17 12  1  0  0  0  0
 18 20  1  0  0  0  0
 19 18  1  0  0  0  0
 21 28  1  0  0  0  0
 22 21  2  0  0  0  0
 22 23  1  0  0  0  0
 23 25  2  0  0  0  0
 24 23  1  0  0  0  0
 25 27  1  0  0  0  0
 25 26  1  0  0  0  0
 28 27  2  0  0  0  0
 29 32  1  0  0  0  0
 29 30  2  0  0  0  0
 30 31  1  0  0  0  0
 30 21  1  0  0  0  0
 31 34  1  0  0  0  0
 31 33  1  0  0  0  0
M  END
>  <minimizedAffinity>
-5.76869965

$$$$

 OpenBabel03262523143D

 34 36  0  0  0  0  0  0  0  0999 V2000
   38.0030   23.9420   33.1520 C   0  0  0  0  0  0  0  0  0  0  0  0
   39.2670   23.9240   33.7150 C   0  0  0  0  0  0  0  0  0  0  0  0
   39.7120   25.1530   34.1240 C   0  0  0  0  0  0  0  0  0  0  0  0
   38.9620   26.3120   33.9860 C   0  0  0  0  0  0  0  0  0  0  0  0
   37.7100   26.2390   33.4120 C   0  0  0  0  0  0  0  0  0  0  0  0
   37.2480   25.0450   33.0020 N   0  0  0  0  0  0  0  0  0  0  0  0
   39.8010   23.0020   33.7970 H   0  0  0  0  0  0  0  0  0  0  0  0
   40.7240   25.1030   34.5700 H   0  0  0  0  0  0  0  0  0  0  0  0
   39.5070   27.1400   34.3710 H   0  0  0  0  0  0  0  0  0  0  0  0
   36.1930   20.7350   33.1120 C   0  0  0  0  0  0  0  0  0  0  0  0
   36.3410   20.3300   31.7820 C   0  0  0  0  0  0  0  0  0  0  0  0
   37.0540   21.1500   30.9190 C   0  0  0  0  0  0  0  0  0  0  0  0
   37.5640   22.2960   31.4220 N   0  0  0  0  0  0  0  0  0  0  0  0
   37.4250   22.6840   32.6850 C   0  0  0  0  0  0  0  0  0  0  0  0
   36.7240   21.8710   33.5180 N   0  0  0  0  0  0  0  0  0  0  0  0
   35.8930   19.3930   31.4850 H   0  0  0  0  0  0  0  0  0  0  0  0
   37.1760   20.8440   29.8810 H   0  0  0  0  0  0  0  0  0  0  0  0
   35.4770   19.9690   34.0900 N   0  0  0  0  0  0  0  0  0  0  0  0
   35.7980   19.3440   34.8560 H   0  0  0  0  0  0  0  0  0  0  0  0
   34.5080   20.2290   33.8010 H   0  0  0  0  0  0  0  0  0  0  0  0
   36.7170   28.1240   32.1030 C   0  0  0  0  0  0  0  0  0  0  0  0
   36.9830   27.4900   33.2920 C   0  0  0  0  0  0  0  0  0  0  0  0
   36.4870   28.1680   34.3780 C   0  0  0  0  0  0  0  0  0  0  0  0
   36.6000   27.8190   35.3860 H   0  0  0  0  0  0  0  0  0  0  0  0
   35.7970   29.3540   34.2920 C   0  0  0  0  0  0  0  0  0  0  0  0
   35.4140   29.8730   35.1520 H   0  0  0  0  0  0  0  0  0  0  0  0
   35.5590   29.9440   33.0740 C   0  0  0  0  0  3  0  0  0  0  0  0
   36.0350   29.3050   31.9540 C   0  0  0  0  0  3  0  0  0  0  0  0
   37.8960   26.8070   30.1440 N   0  0  0  0  0  0  0  0  0  0  0  0
   37.1810   27.5770   30.8470 C   0  0  0  0  0  0  0  0  0  0  0  0
   36.6460   28.0400   29.5890 N   0  0  0  0  0  0  0  0  0  0  0  0
   37.7800   26.8590   29.1120 H   0  0  0  0  0  0  0  0  0  0  0  0
   36.1080   28.0130   28.7040 H   0  0  0  0  0  0  0  0  0  0  0  0
   36.8610   28.9940   29.2110 H   0  0  0  0  0  0  0  0  0  0  0  0
  1  2  1  0  0  0  0
  2  7  1  0  0  0  0
  2  3  2  0  0  0  0
  3  8  1  0  0  0  0
  4  3  1  0  0  0  0
  4  9  1  0  0  0  0
  5  4  2  0  0  0  0
  6  1  2  0  0  0  0
  6  5  1  0  0  0  0
 10 15  1  0  0  0  0
 10 18  1  0  0  0  0
 11 10  2  0  0  0  0
 12 13  2  0  0  0  0
 12 11  1  0  0  0  0
 13 14  1  0  0  0  0
 14  1  1  0  0  0  0
 14 15  2  0  0  0  0
 16 11  1  0  0  0  0
 17 12  1  0  0  0  0
 18 19  1  0  0  0  0
 20 18  1  0  0  0  0
 21 22  1  0  0  0  0
 22  5  1  0  0  0  0
 22 23  2  0  0  0  0
 23 24  1  0  0  0  0
 25 23  1  0  0  0  0
 25 26  1  0  0  0  0
 27 25  2  0  0  0  0
 28 21  2  0  0  0  0
 28 27  1  0  0  0  0
 29 30  2  0  0  0  0
 30 21  1  0  0  0  0
 31 30  1  0  0  0  0
 32 29  1  0  0  0  0
 33 31  1  0  0  0  0
 34 31  1  0  0  0  0
M  END
>  <minimizedAffinity>
-5.55691671

$$$$
