
 OpenBabel03262520233D

 37 39  0  0  0  0  0  0  0  0999 V2000
   40.0250   24.6660   34.8900 C   0  0  0  0  0  0  0  0  0  0  0  0
   40.8100   25.8270   34.8400 C   0  0  0  0  0  0  0  0  0  0  0  0
   40.5930   26.8990   34.0470 C   0  0  0  0  0  0  0  0  0  0  0  0
   39.5460   26.9210   33.2060 C   0  0  0  0  0  0  0  0  0  0  0  0
   38.7780   25.8100   33.2370 C   0  0  0  0  0  0  0  0  0  0  0  0
   39.0420   24.8010   34.0310 N   0  0  0  0  0  0  0  0  0  0  0  0
   41.7180   25.9010   35.5150 H   0  0  0  0  0  0  0  0  0  0  0  0
   41.2950   27.7770   34.0950 H   0  0  0  0  0  0  0  0  0  0  0  0
   39.3600   27.7870   32.6050 H   0  0  0  0  0  0  0  0  0  0  0  0
   41.6200   23.0360   35.5080 C   0  0  0  0  0  0  0  0  0  0  0  0
   40.3520   23.6060   35.8290 C   0  0  0  0  0  0  0  0  0  0  0  0
   39.7050   23.1020   36.9240 C   0  0  0  0  0  0  0  0  0  0  0  0
   40.3280   22.0970   37.6190 N   0  0  0  0  0  0  0  0  0  0  0  0
   41.5130   21.5720   37.3110 C   0  0  0  0  0  0  0  0  0  0  0  0
   42.1500   22.0610   36.2400 N   0  0  0  0  0  0  0  0  0  0  0  0
   41.9890   20.5650   38.1620 N   0  0  0  0  0  0  0  0  0  0  0  0
   42.2400   23.3260   34.6830 H   0  0  0  0  0  0  0  0  0  0  0  0
   42.3180   19.7300   37.6000 H   0  0  0  0  0  0  0  0  0  0  0  0
   42.0050   20.6540   39.2110 H   0  0  0  0  0  0  0  0  0  0  0  0
   38.4000   23.6470   37.3040 C   0  0  0  0  0  0  0  0  0  0  0  0
   38.0490   23.1480   38.4710 F   0  0  0  0  0  0  0  0  0  0  0  0
   38.3550   25.0290   37.3460 F   0  0  0  0  0  0  0  0  0  0  0  0
   37.4010   23.2730   36.3600 F   0  0  0  0  0  0  0  0  0  0  0  0
   36.5770   26.5580   32.2460 C   0  0  0  0  0  0  0  0  0  0  0  0
   37.5410   25.6070   32.4460 C   0  0  0  0  0  0  0  0  0  0  0  0
   37.2650   24.4190   31.8200 C   0  0  0  0  0  0  0  0  0  0  0  0
   37.9730   23.5850   31.9090 H   0  0  0  0  0  0  0  0  0  0  0  0
   36.1480   24.1570   31.0610 C   0  0  0  0  0  0  0  0  0  0  0  0
   36.0000   23.2030   30.6000 H   0  0  0  0  0  0  0  0  0  0  0  0
   35.2090   25.1530   30.8980 C   0  0  0  0  0  3  0  0  0  0  0  0
   35.4360   26.3690   31.5040 C   0  0  0  0  0  3  0  0  0  0  0  0
   37.1440   28.6850   31.7320 N   0  0  0  0  0  0  0  0  0  0  0  0
   36.7350   27.9200   32.7260 C   0  0  0  0  0  0  0  0  0  0  0  0
   36.4000   28.0230   34.1220 N   0  0  0  0  0  0  0  0  0  0  0  0
   37.2820   29.6920   32.0010 H   0  0  0  0  0  0  0  0  0  0  0  0
   37.0960   27.5630   34.7690 H   0  0  0  0  0  0  0  0  0  0  0  0
   35.5170   28.5310   34.4260 H   0  0  0  0  0  0  0  0  0  0  0  0
  1 11  1  0  0  0  0
  2  1  1  0  0  0  0
  2  7  1  0  0  0  0
  3  8  1  0  0  0  0
  3  2  2  0  0  0  0
  4  5  2  0  0  0  0
  4  3  1  0  0  0  0
  5  6  1  0  0  0  0
  6  1  2  0  0  0  0
  9  4  1  0  0  0  0
 10 11  2  0  0  0  0
 10 15  1  0  0  0  0
 11 12  1  0  0  0  0
 12 20  1  0  0  0  0
 12 13  2  0  0  0  0
 14 13  1  0  0  0  0
 14 16  1  0  0  0  0
 15 14  2  0  0  0  0
 16 19  1  0  0  0  0
 17 10  1  0  0  0  0
 18 16  1  0  0  0  0
 20 22  1  0  0  0  0
 20 21  1  0  0  0  0
 23 20  1  0  0  0  0
 24 25  1  0  0  0  0
 24 33  1  0  0  0  0
 25  5  1  0  0  0  0
 26 27  1  0  0  0  0
 26 25  2  0  0  0  0
 28 26  1  0  0  0  0
 29 28  1  0  0  0  0
 30 28  2  0  0  0  0
 30 31  1  0  0  0  0
 31 24  2  0  0  0  0
 32 35  1  0  0  0  0
 32 33  2  0  0  0  0
 33 34  1  0  0  0  0
 34 37  1  0  0  0  0
 34 36  1  0  0  0  0
M  END
>  <minimizedAffinity>
-6.75502157

$$$$

 OpenBabel03262520233D

 37 39  0  0  0  0  0  0  0  0999 V2000
   39.9330   24.6290   34.9020 C   0  0  0  0  0  0  0  0  0  0  0  0
   40.6340   25.8440   34.9060 C   0  0  0  0  0  0  0  0  0  0  0  0
   40.3550   26.9250   34.1440 C   0  0  0  0  0  0  0  0  0  0  0  0
   39.3260   26.9010   33.2820 C   0  0  0  0  0  0  0  0  0  0  0  0
   38.6390   25.7370   33.2600 C   0  0  0  0  0  0  0  0  0  0  0  0
   38.9600   24.7230   34.0270 N   0  0  0  0  0  0  0  0  0  0  0  0
   41.5210   25.9600   35.6030 H   0  0  0  0  0  0  0  0  0  0  0  0
   40.9920   27.8480   34.2360 H   0  0  0  0  0  0  0  0  0  0  0  0
   39.0900   27.7720   32.7060 H   0  0  0  0  0  0  0  0  0  0  0  0
   41.5730   23.0100   35.4220 C   0  0  0  0  0  0  0  0  0  0  0  0
   40.3170   23.5650   35.8120 C   0  0  0  0  0  0  0  0  0  0  0  0
   39.7310   23.0440   36.9340 C   0  0  0  0  0  0  0  0  0  0  0  0
   40.3990   22.0380   37.5870 N   0  0  0  0  0  0  0  0  0  0  0  0
   41.5720   21.5290   37.2150 C   0  0  0  0  0  0  0  0  0  0  0  0
   42.1490   22.0340   36.1180 N   0  0  0  0  0  0  0  0  0  0  0  0
   42.1000   20.5190   38.0300 N   0  0  0  0  0  0  0  0  0  0  0  0
   42.1470   23.3140   34.5700 H   0  0  0  0  0  0  0  0  0  0  0  0
   42.4080   19.6920   37.4450 H   0  0  0  0  0  0  0  0  0  0  0  0
   42.1680   20.5980   39.0780 H   0  0  0  0  0  0  0  0  0  0  0  0
   38.4430   23.5720   37.3850 C   0  0  0  0  0  0  0  0  0  0  0  0
   38.1600   23.0660   38.5670 F   0  0  0  0  0  0  0  0  0  0  0  0
   38.3840   24.9540   37.4350 F   0  0  0  0  0  0  0  0  0  0  0  0
   37.3990   23.1900   36.4940 F   0  0  0  0  0  0  0  0  0  0  0  0
   37.1040   24.2560   31.9050 C   0  0  0  0  0  0  0  0  0  0  0  0
   37.4350   25.4740   32.4360 C   0  0  0  0  0  0  0  0  0  0  0  0
   36.5240   26.4550   32.1460 C   0  0  0  0  0  0  0  0  0  0  0  0
   36.6870   27.4720   32.5250 H   0  0  0  0  0  0  0  0  0  0  0  0
   35.3800   26.2870   31.3990 C   0  0  0  0  0  0  0  0  0  0  0  0
   34.7130   27.1020   31.2140 H   0  0  0  0  0  0  0  0  0  0  0  0
   35.1010   25.0390   30.8870 C   0  0  0  0  0  3  0  0  0  0  0  0
   35.9830   24.0130   31.1490 C   0  0  0  0  0  3  0  0  0  0  0  0
   38.8700   22.9670   31.3300 N   0  0  0  0  0  0  0  0  0  0  0  0
   37.8770   23.0600   32.1930 C   0  0  0  0  0  0  0  0  0  0  0  0
   37.3320   22.3470   33.3190 N   0  0  0  0  0  0  0  0  0  0  0  0
   39.4790   22.1220   31.4730 H   0  0  0  0  0  0  0  0  0  0  0  0
   36.4070   21.8760   33.1270 H   0  0  0  0  0  0  0  0  0  0  0  0
   37.8570   22.3240   34.2430 H   0  0  0  0  0  0  0  0  0  0  0  0
  1  2  1  0  0  0  0
  1 11  1  0  0  0  0
  2  7  1  0  0  0  0
  3  8  1  0  0  0  0
  3  2  2  0  0  0  0
  4  3  1  0  0  0  0
  5  4  2  0  0  0  0
  5  6  1  0  0  0  0
  6  1  2  0  0  0  0
  9  4  1  0  0  0  0
 10 11  2  0  0  0  0
 10 15  1  0  0  0  0
 11 12  1  0  0  0  0
 12 20  1  0  0  0  0
 12 13  2  0  0  0  0
 14 13  1  0  0  0  0
 14 16  1  0  0  0  0
 15 14  2  0  0  0  0
 16 19  1  0  0  0  0
 17 10  1  0  0  0  0
 18 16  1  0  0  0  0
 20 22  1  0  0  0  0
 20 21  1  0  0  0  0
 23 20  1  0  0  0  0
 24 33  1  0  0  0  0
 24 25  1  0  0  0  0
 25  5  1  0  0  0  0
 26 25  2  0  0  0  0
 26 27  1  0  0  0  0
 28 26  1  0  0  0  0
 29 28  1  0  0  0  0
 30 31  1  0  0  0  0
 30 28  2  0  0  0  0
 31 24  2  0  0  0  0
 32 35  1  0  0  0  0
 32 33  2  0  0  0  0
 33 34  1  0  0  0  0
 34 37  1  0  0  0  0
 36 34  1  0  0  0  0
M  END
>  <minimizedAffinity>
-6.55013657

$$$$

 OpenBabel03262520233D

 37 39  0  0  0  0  0  0  0  0999 V2000
   37.7580   24.6890   33.4920 C   0  0  0  0  0  0  0  0  0  0  0  0
   37.3150   23.8210   32.4840 C   0  0  0  0  0  0  0  0  0  0  0  0
   36.6070   24.1720   31.3880 C   0  0  0  0  0  0  0  0  0  0  0  0
   36.2630   25.4530   31.1830 C   0  0  0  0  0  0  0  0  0  0  0  0
   36.6770   26.3070   32.1460 C   0  0  0  0  0  0  0  0  0  0  0  0
   37.3630   25.9030   33.1870 N   0  0  0  0  0  0  0  0  0  0  0  0
   37.5580   22.7170   32.5700 H   0  0  0  0  0  0  0  0  0  0  0  0
   36.3070   23.3820   30.6440 H   0  0  0  0  0  0  0  0  0  0  0  0
   35.7310   25.7290   30.2960 H   0  0  0  0  0  0  0  0  0  0  0  0
   37.9240   23.0340   35.1700 C   0  0  0  0  0  0  0  0  0  0  0  0
   38.5540   24.1780   34.5950 C   0  0  0  0  0  0  0  0  0  0  0  0
   39.7500   24.5640   35.1350 C   0  0  0  0  0  0  0  0  0  0  0  0
   40.2420   23.8210   36.1780 N   0  0  0  0  0  0  0  0  0  0  0  0
   39.6460   22.7530   36.7070 C   0  0  0  0  0  0  0  0  0  0  0  0
   38.4750   22.3720   36.1830 N   0  0  0  0  0  0  0  0  0  0  0  0
   40.3230   22.1170   37.7560 N   0  0  0  0  0  0  0  0  0  0  0  0
   36.9880   22.6180   34.8550 H   0  0  0  0  0  0  0  0  0  0  0  0
   39.6700   21.9490   38.5720 H   0  0  0  0  0  0  0  0  0  0  0  0
   41.3420   21.8540   37.7120 H   0  0  0  0  0  0  0  0  0  0  0  0
   40.4450   25.7300   34.5870 C   0  0  0  0  0  0  0  0  0  0  0  0
   41.6440   25.8090   35.1250 F   0  0  0  0  0  0  0  0  0  0  0  0
   40.5440   25.7330   33.2070 F   0  0  0  0  0  0  0  0  0  0  0  0
   39.7510   26.9310   34.9100 F   0  0  0  0  0  0  0  0  0  0  0  0
   36.9960   28.6270   31.1980 C   0  0  0  0  0  0  0  0  0  0  0  0
   36.4700   27.7740   32.1300 C   0  0  0  0  0  0  0  0  0  0  0  0
   35.6980   28.4090   33.0670 C   0  0  0  0  0  0  0  0  0  0  0  0
   35.2210   27.8220   33.8630 H   0  0  0  0  0  0  0  0  0  0  0  0
   35.4490   29.7620   33.1140 C   0  0  0  0  0  0  0  0  0  0  0  0
   34.8340   30.1880   33.8780 H   0  0  0  0  0  0  0  0  0  0  0  0
   36.0100   30.5720   32.1510 C   0  0  0  0  0  3  0  0  0  0  0  0
   36.7940   29.9860   31.1810 C   0  0  0  0  0  3  0  0  0  0  0  0
   36.9580   28.1190   28.9960 N   0  0  0  0  0  0  0  0  0  0  0  0
   37.7470   28.1410   30.0530 C   0  0  0  0  0  0  0  0  0  0  0  0
   39.1070   27.8350   30.4120 N   0  0  0  0  0  0  0  0  0  0  0  0
   37.4300   27.7760   28.1210 H   0  0  0  0  0  0  0  0  0  0  0  0
   39.2110   26.9810   31.0240 H   0  0  0  0  0  0  0  0  0  0  0  0
   39.9030   28.4470   30.0640 H   0  0  0  0  0  0  0  0  0  0  0  0
  1 11  1  0  0  0  0
  2  7  1  0  0  0  0
  2  1  2  0  0  0  0
  3  2  1  0  0  0  0
  4  3  2  0  0  0  0
  4  5  1  0  0  0  0
  5  6  2  0  0  0  0
  6  1  1  0  0  0  0
  8  3  1  0  0  0  0
  9  4  1  0  0  0  0
 10 15  1  0  0  0  0
 11 12  1  0  0  0  0
 11 10  2  0  0  0  0
 12 13  2  0  0  0  0
 13 14  1  0  0  0  0
 14 16  1  0  0  0  0
 15 14  2  0  0  0  0
 16 18  1  0  0  0  0
 17 10  1  0  0  0  0
 19 16  1  0  0  0  0
 20 23  1  0  0  0  0
 20 21  1  0  0  0  0
 20 12  1  0  0  0  0
 22 20  1  0  0  0  0
 24 25  1  0  0  0  0
 25  5  1  0  0  0  0
 25 26  2  0  0  0  0
 26 28  1  0  0  0  0
 26 27  1  0  0  0  0
 28 29  1  0  0  0  0
 30 28  2  0  0  0  0
 31 24  2  0  0  0  0
 31 30  1  0  0  0  0
 32 33  2  0  0  0  0
 33 34  1  0  0  0  0
 33 24  1  0  0  0  0
 34 36  1  0  0  0  0
 35 32  1  0  0  0  0
 37 34  1  0  0  0  0
M  END
>  <minimizedAffinity>
-6.20813894

$$$$

 OpenBabel03262520233D

 37 39  0  0  0  0  0  0  0  0999 V2000
   37.6550   24.1970   33.3610 C   0  0  0  0  0  0  0  0  0  0  0  0
   37.0590   23.1740   32.6090 C   0  0  0  0  0  0  0  0  0  0  0  0
   36.5210   23.3040   31.3760 C   0  0  0  0  0  0  0  0  0  0  0  0
   36.5250   24.4950   30.7560 C   0  0  0  0  0  0  0  0  0  0  0  0
   37.0930   25.4960   31.4650 C   0  0  0  0  0  0  0  0  0  0  0  0
   37.5980   25.3040   32.6590 N   0  0  0  0  0  0  0  0  0  0  0  0
   37.0080   22.1310   33.0500 H   0  0  0  0  0  0  0  0  0  0  0  0
   36.0680   22.4070   30.8700 H   0  0  0  0  0  0  0  0  0  0  0  0
   36.1270   24.5840   29.7660 H   0  0  0  0  0  0  0  0  0  0  0  0
   38.6190   22.5280   34.7280 C   0  0  0  0  0  0  0  0  0  0  0  0
   38.2370   23.9010   34.6590 C   0  0  0  0  0  0  0  0  0  0  0  0
   38.4920   24.6720   35.7600 C   0  0  0  0  0  0  0  0  0  0  0  0
   39.0940   24.0630   36.8320 N   0  0  0  0  0  0  0  0  0  0  0  0
   39.4490   22.7800   36.8850 C   0  0  0  0  0  0  0  0  0  0  0  0
   39.2000   22.0210   35.8110 N   0  0  0  0  0  0  0  0  0  0  0  0
   40.0730   22.3540   38.0660 N   0  0  0  0  0  0  0  0  0  0  0  0
   38.4820   21.8060   33.9470 H   0  0  0  0  0  0  0  0  0  0  0  0
   39.6230   21.4650   38.4230 H   0  0  0  0  0  0  0  0  0  0  0  0
   40.8760   22.8680   38.5130 H   0  0  0  0  0  0  0  0  0  0  0  0
   38.1230   26.0890   35.7490 C   0  0  0  0  0  0  0  0  0  0  0  0
   38.9340   26.7390   34.9410 F   0  0  0  0  0  0  0  0  0  0  0  0
   36.8080   26.3280   35.3920 F   0  0  0  0  0  0  0  0  0  0  0  0
   38.2630   26.6580   37.0470 F   0  0  0  0  0  0  0  0  0  0  0  0
   38.3800   27.3590   30.3440 C   0  0  0  0  0  0  0  0  0  0  0  0
   37.2670   26.8880   30.9860 C   0  0  0  0  0  0  0  0  0  0  0  0
   36.2900   27.8360   31.1380 C   0  0  0  0  0  0  0  0  0  0  0  0
   35.3490   27.5680   31.6370 H   0  0  0  0  0  0  0  0  0  0  0  0
   36.3710   29.1420   30.7120 C   0  0  0  0  0  0  0  0  0  0  0  0
   35.5650   29.8280   30.8660 H   0  0  0  0  0  0  0  0  0  0  0  0
   37.5190   29.5610   30.0760 C   0  0  0  0  0  3  0  0  0  0  0  0
   38.5340   28.6470   29.8930 C   0  0  0  0  0  3  0  0  0  0  0  0
   39.3480   26.1220   28.7180 N   0  0  0  0  0  0  0  0  0  0  0  0
   39.4810   26.4840   29.9790 C   0  0  0  0  0  0  0  0  0  0  0  0
   40.3740   26.2790   31.0900 N   0  0  0  0  0  0  0  0  0  0  0  0
   40.1110   25.4840   28.3760 H   0  0  0  0  0  0  0  0  0  0  0  0
   39.9720   25.6860   31.8650 H   0  0  0  0  0  0  0  0  0  0  0  0
   41.3470   26.7080   31.0810 H   0  0  0  0  0  0  0  0  0  0  0  0
  1 11  1  0  0  0  0
  2  7  1  0  0  0  0
  2  1  2  0  0  0  0
  3  2  1  0  0  0  0
  4  3  2  0  0  0  0
  4  5  1  0  0  0  0
  5  6  2  0  0  0  0
  6  1  1  0  0  0  0
  8  3  1  0  0  0  0
  9  4  1  0  0  0  0
 10 15  1  0  0  0  0
 11 10  2  0  0  0  0
 11 12  1  0  0  0  0
 12 13  2  0  0  0  0
 13 14  1  0  0  0  0
 14 16  1  0  0  0  0
 15 14  2  0  0  0  0
 16 18  1  0  0  0  0
 16 19  1  0  0  0  0
 17 10  1  0  0  0  0
 20 12  1  0  0  0  0
 20 23  1  0  0  0  0
 21 20  1  0  0  0  0
 22 20  1  0  0  0  0
 24 25  1  0  0  0  0
 25 26  2  0  0  0  0
 25  5  1  0  0  0  0
 26 27  1  0  0  0  0
 28 29  1  0  0  0  0
 28 26  1  0  0  0  0
 30 28  2  0  0  0  0
 31 30  1  0  0  0  0
 31 24  2  0  0  0  0
 32 33  2  0  0  0  0
 33 24  1  0  0  0  0
 33 34  1  0  0  0  0
 34 36  1  0  0  0  0
 35 32  1  0  0  0  0
 37 34  1  0  0  0  0
M  END
>  <minimizedAffinity>
-6.18676186

$$$$

 OpenBabel03262520233D

 37 39  0  0  0  0  0  0  0  0999 V2000
   37.6670   22.3810   32.2450 C   0  0  0  0  0  0  0  0  0  0  0  0
   37.4070   23.7040   31.8610 C   0  0  0  0  0  0  0  0  0  0  0  0
   37.8250   24.8160   32.5060 C   0  0  0  0  0  0  0  0  0  0  0  0
   38.5630   24.7160   33.6230 C   0  0  0  0  0  0  0  0  0  0  0  0
   38.8220   23.4480   34.0130 C   0  0  0  0  0  0  0  0  0  0  0  0
   38.3870   22.4090   33.3420 N   0  0  0  0  0  0  0  0  0  0  0  0
   36.7900   23.8910   30.9270 H   0  0  0  0  0  0  0  0  0  0  0  0
   37.5520   25.8290   32.1000 H   0  0  0  0  0  0  0  0  0  0  0  0
   38.9190   25.6000   34.1100 H   0  0  0  0  0  0  0  0  0  0  0  0
   38.1590   20.9490   30.4310 C   0  0  0  0  0  0  0  0  0  0  0  0
   37.1910   21.2790   31.4270 C   0  0  0  0  0  0  0  0  0  0  0  0
   36.0500   20.5240   31.4570 C   0  0  0  0  0  0  0  0  0  0  0  0
   35.9350   19.5160   30.5330 N   0  0  0  0  0  0  0  0  0  0  0  0
   36.8450   19.2160   29.6080 C   0  0  0  0  0  0  0  0  0  0  0  0
   37.9620   19.9530   29.5730 N   0  0  0  0  0  0  0  0  0  0  0  0
   36.5470   18.1340   28.7680 N   0  0  0  0  0  0  0  0  0  0  0  0
   39.0950   21.4510   30.2860 H   0  0  0  0  0  0  0  0  0  0  0  0
   36.7030   18.3970   27.7540 H   0  0  0  0  0  0  0  0  0  0  0  0
   36.2160   17.2000   29.1240 H   0  0  0  0  0  0  0  0  0  0  0  0
   35.0210   20.8140   32.4570 C   0  0  0  0  0  0  0  0  0  0  0  0
   33.9400   20.1170   32.1760 F   0  0  0  0  0  0  0  0  0  0  0  0
   35.4150   20.5710   33.7610 F   0  0  0  0  0  0  0  0  0  0  0  0
   34.6620   22.1920   32.4290 F   0  0  0  0  0  0  0  0  0  0  0  0
   39.1820   22.9110   36.4550 C   0  0  0  0  0  0  0  0  0  0  0  0
   39.6530   23.0680   35.1800 C   0  0  0  0  0  0  0  0  0  0  0  0
   40.9970   22.8220   35.0670 C   0  0  0  0  0  0  0  0  0  0  0  0
   41.4820   22.9150   34.0860 H   0  0  0  0  0  0  0  0  0  0  0  0
   41.8310   22.4560   36.0980 C   0  0  0  0  0  0  0  0  0  0  0  0
   42.8730   22.2790   35.9330 H   0  0  0  0  0  0  0  0  0  0  0  0
   41.3000   22.3170   37.3620 C   0  0  0  0  0  3  0  0  0  0  0  0
   39.9540   22.5500   37.5330 C   0  0  0  0  0  3  0  0  0  0  0  0
   37.5250   24.1850   37.3160 N   0  0  0  0  0  0  0  0  0  0  0  0
   37.7660   23.0100   36.7660 C   0  0  0  0  0  0  0  0  0  0  0  0
   37.0630   21.8140   36.3850 N   0  0  0  0  0  0  0  0  0  0  0  0
   36.5160   24.3350   37.5710 H   0  0  0  0  0  0  0  0  0  0  0  0
   37.2820   20.9730   36.9850 H   0  0  0  0  0  0  0  0  0  0  0  0
   36.3900   21.8270   35.5620 H   0  0  0  0  0  0  0  0  0  0  0  0
  1  6  1  0  0  0  0
  2  1  2  0  0  0  0
  2  3  1  0  0  0  0
  3  4  2  0  0  0  0
  4  5  1  0  0  0  0
  4  9  1  0  0  0  0
  5 25  1  0  0  0  0
  6  5  2  0  0  0  0
  7  2  1  0  0  0  0
  8  3  1  0  0  0  0
 10 11  1  0  0  0  0
 11 12  2  0  0  0  0
 11  1  1  0  0  0  0
 12 20  1  0  0  0  0
 13 12  1  0  0  0  0
 14 13  2  0  0  0  0
 15 14  1  0  0  0  0
 15 10  2  0  0  0  0
 16 19  1  0  0  0  0
 16 14  1  0  0  0  0
 17 10  1  0  0  0  0
 18 16  1  0  0  0  0
 20 22  1  0  0  0  0
 21 20  1  0  0  0  0
 23 20  1  0  0  0  0
 24 33  1  0  0  0  0
 24 31  1  0  0  0  0
 25 24  2  0  0  0  0
 26 25  1  0  0  0  0
 26 28  2  0  0  0  0
 27 26  1  0  0  0  0
 28 30  1  0  0  0  0
 29 28  1  0  0  0  0
 30 31  2  0  0  0  0
 32 35  1  0  0  0  0
 33 32  2  0  0  0  0
 34 33  1  0  0  0  0
 34 36  1  0  0  0  0
 37 34  1  0  0  0  0
M  END
>  <minimizedAffinity>
-6.17010355

$$$$

 OpenBabel03262520233D

 37 39  0  0  0  0  0  0  0  0999 V2000
   38.1050   24.2580   33.3310 C   0  0  0  0  0  0  0  0  0  0  0  0
   37.3200   23.3480   32.6080 C   0  0  0  0  0  0  0  0  0  0  0  0
   37.1110   23.3650   31.2720 C   0  0  0  0  0  0  0  0  0  0  0  0
   37.6780   24.3130   30.5090 C   0  0  0  0  0  0  0  0  0  0  0  0
   38.4360   25.2020   31.1870 C   0  0  0  0  0  0  0  0  0  0  0  0
   38.6000   25.1310   32.4860 N   0  0  0  0  0  0  0  0  0  0  0  0
   36.8000   22.5100   33.1680 H   0  0  0  0  0  0  0  0  0  0  0  0
   36.4580   22.5780   30.8030 H   0  0  0  0  0  0  0  0  0  0  0  0
   37.5350   24.3010   29.4480 H   0  0  0  0  0  0  0  0  0  0  0  0
   38.4990   22.7150   35.0770 C   0  0  0  0  0  0  0  0  0  0  0  0
   38.2790   24.0900   34.7640 C   0  0  0  0  0  0  0  0  0  0  0  0
   38.2940   24.9740   35.8080 C   0  0  0  0  0  0  0  0  0  0  0  0
   38.5200   24.4660   37.0620 N   0  0  0  0  0  0  0  0  0  0  0  0
   38.7260   23.1810   37.3440 C   0  0  0  0  0  0  0  0  0  0  0  0
   38.7110   22.3120   36.3260 N   0  0  0  0  0  0  0  0  0  0  0  0
   38.9610   22.8670   38.6890 N   0  0  0  0  0  0  0  0  0  0  0  0
   38.5140   21.9120   34.3670 H   0  0  0  0  0  0  0  0  0  0  0  0
   38.3500   22.0580   38.9940 H   0  0  0  0  0  0  0  0  0  0  0  0
   39.6550   23.3820   39.2910 H   0  0  0  0  0  0  0  0  0  0  0  0
   38.0750   26.3980   35.5490 C   0  0  0  0  0  0  0  0  0  0  0  0
   38.0730   27.0480   36.6940 F   0  0  0  0  0  0  0  0  0  0  0  0
   38.9950   26.9640   34.6840 F   0  0  0  0  0  0  0  0  0  0  0  0
   36.8080   26.6120   34.9330 F   0  0  0  0  0  0  0  0  0  0  0  0
   38.7020   27.5530   30.3000 C   0  0  0  0  0  0  0  0  0  0  0  0
   39.2060   26.3100   30.5730 C   0  0  0  0  0  0  0  0  0  0  0  0
   40.5270   26.1760   30.2340 C   0  0  0  0  0  0  0  0  0  0  0  0
   41.0360   25.2200   30.4120 H   0  0  0  0  0  0  0  0  0  0  0  0
   41.3100   27.1580   29.6710 C   0  0  0  0  0  0  0  0  0  0  0  0
   42.3380   26.9800   29.4330 H   0  0  0  0  0  0  0  0  0  0  0  0
   40.7470   28.3890   29.4150 C   0  0  0  0  0  3  0  0  0  0  0  0
   39.4220   28.5800   29.7390 C   0  0  0  0  0  3  0  0  0  0  0  0
   36.5760   27.9190   29.6280 N   0  0  0  0  0  0  0  0  0  0  0  0
   37.3560   27.9360   30.6910 C   0  0  0  0  0  0  0  0  0  0  0  0
   37.2820   28.2140   32.1010 N   0  0  0  0  0  0  0  0  0  0  0  0
   35.5790   28.1870   29.8290 H   0  0  0  0  0  0  0  0  0  0  0  0
   37.7730   29.1010   32.3940 H   0  0  0  0  0  0  0  0  0  0  0  0
   36.7630   27.5520   32.7510 H   0  0  0  0  0  0  0  0  0  0  0  0
  1 11  1  0  0  0  0
  2  7  1  0  0  0  0
  2  1  1  0  0  0  0
  3  2  2  0  0  0  0
  4  5  2  0  0  0  0
  4  3  1  0  0  0  0
  5  6  1  0  0  0  0
  6  1  2  0  0  0  0
  8  3  1  0  0  0  0
  9  4  1  0  0  0  0
 10 15  1  0  0  0  0
 11 10  2  0  0  0  0
 11 12  1  0  0  0  0
 12 13  2  0  0  0  0
 13 14  1  0  0  0  0
 14 16  1  0  0  0  0
 15 14  2  0  0  0  0
 16 18  1  0  0  0  0
 16 19  1  0  0  0  0
 17 10  1  0  0  0  0
 20 12  1  0  0  0  0
 20 21  1  0  0  0  0
 22 20  1  0  0  0  0
 23 20  1  0  0  0  0
 24 25  1  0  0  0  0
 24 33  1  0  0  0  0
 25  5  1  0  0  0  0
 26 27  1  0  0  0  0
 26 25  2  0  0  0  0
 28 26  1  0  0  0  0
 29 28  1  0  0  0  0
 30 28  2  0  0  0  0
 30 31  1  0  0  0  0
 31 24  2  0  0  0  0
 32 35  1  0  0  0  0
 32 33  2  0  0  0  0
 33 34  1  0  0  0  0
 34 36  1  0  0  0  0
 34 37  1  0  0  0  0
M  END
>  <minimizedAffinity>
-6.16517925

$$$$

 OpenBabel03262520233D

 37 39  0  0  0  0  0  0  0  0999 V2000
   34.7430   29.7300   33.0310 C   0  0  0  0  0  0  0  0  0  0  0  0
   35.1900   30.5770   32.0070 C   0  0  0  0  0  0  0  0  0  0  0  0
   35.9220   30.2080   30.9320 C   0  0  0  0  0  0  0  0  0  0  0  0
   36.2870   28.9270   30.7680 C   0  0  0  0  0  0  0  0  0  0  0  0
   35.8680   28.0930   31.7460 C   0  0  0  0  0  0  0  0  0  0  0  0
   35.1600   28.5150   32.7650 N   0  0  0  0  0  0  0  0  0  0  0  0
   34.9310   31.6800   32.0590 H   0  0  0  0  0  0  0  0  0  0  0  0
   36.2230   30.9820   30.1730 H   0  0  0  0  0  0  0  0  0  0  0  0
   36.8370   28.6340   29.8970 H   0  0  0  0  0  0  0  0  0  0  0  0
   32.5440   29.9900   33.8540 C   0  0  0  0  0  0  0  0  0  0  0  0
   33.9220   30.2590   34.1070 C   0  0  0  0  0  0  0  0  0  0  0  0
   34.2230   30.9120   35.2710 C   0  0  0  0  0  0  0  0  0  0  0  0
   33.1790   31.2500   36.0940 N   0  0  0  0  0  0  0  0  0  0  0  0
   31.8950   30.9930   35.8490 C   0  0  0  0  0  0  0  0  0  0  0  0
   31.5950   30.3560   34.7110 N   0  0  0  0  0  0  0  0  0  0  0  0
   30.9790   31.4020   36.8280 N   0  0  0  0  0  0  0  0  0  0  0  0
   32.1580   29.4910   32.9870 H   0  0  0  0  0  0  0  0  0  0  0  0
   30.1770   31.9350   36.3870 H   0  0  0  0  0  0  0  0  0  0  0  0
   31.0980   31.1940   37.8530 H   0  0  0  0  0  0  0  0  0  0  0  0
   35.6200   31.2150   35.5860 C   0  0  0  0  0  0  0  0  0  0  0  0
   35.6790   31.7910   36.7690 F   0  0  0  0  0  0  0  0  0  0  0  0
   36.4590   30.1150   35.5530 F   0  0  0  0  0  0  0  0  0  0  0  0
   36.1670   32.1260   34.6380 F   0  0  0  0  0  0  0  0  0  0  0  0
   37.0470   26.0010   32.5310 C   0  0  0  0  0  0  0  0  0  0  0  0
   36.0960   26.6290   31.7730 C   0  0  0  0  0  0  0  0  0  0  0  0
   35.3390   25.7610   31.0300 C   0  0  0  0  0  0  0  0  0  0  0  0
   34.5420   26.1550   30.3860 H   0  0  0  0  0  0  0  0  0  0  0  0
   35.4810   24.3930   31.0100 C   0  0  0  0  0  0  0  0  0  0  0  0
   34.8510   23.7770   30.4030 H   0  0  0  0  0  0  0  0  0  0  0  0
   36.4590   23.8170   31.7920 C   0  0  0  0  0  3  0  0  0  0  0  0
   37.2490   24.6420   32.5610 C   0  0  0  0  0  3  0  0  0  0  0  0
   39.0370   27.0000   32.9150 N   0  0  0  0  0  0  0  0  0  0  0  0
   37.8750   26.7290   33.4780 C   0  0  0  0  0  0  0  0  0  0  0  0
   37.1870   26.9320   34.7250 N   0  0  0  0  0  0  0  0  0  0  0  0
   39.6980   27.5290   33.5400 H   0  0  0  0  0  0  0  0  0  0  0  0
   37.0570   26.0530   35.2960 H   0  0  0  0  0  0  0  0  0  0  0  0
   36.8580   27.9040   35.0030 H   0  0  0  0  0  0  0  0  0  0  0  0
  1 11  1  0  0  0  0
  2  7  1  0  0  0  0
  2  1  2  0  0  0  0
  3  2  1  0  0  0  0
  4  3  2  0  0  0  0
  4  5  1  0  0  0  0
  5 25  1  0  0  0  0
  5  6  2  0  0  0  0
  6  1  1  0  0  0  0
  8  3  1  0  0  0  0
  9  4  1  0  0  0  0
 10 11  2  0  0  0  0
 10 15  1  0  0  0  0
 11 12  1  0  0  0  0
 12 20  1  0  0  0  0
 12 13  2  0  0  0  0
 14 13  1  0  0  0  0
 14 16  1  0  0  0  0
 15 14  2  0  0  0  0
 16 19  1  0  0  0  0
 17 10  1  0  0  0  0
 18 16  1  0  0  0  0
 20 21  1  0  0  0  0
 22 20  1  0  0  0  0
 23 20  1  0  0  0  0
 24 31  1  0  0  0  0
 24 33  1  0  0  0  0
 25 24  2  0  0  0  0
 26 25  1  0  0  0  0
 27 26  1  0  0  0  0
 28 26  2  0  0  0  0
 28 30  1  0  0  0  0
 29 28  1  0  0  0  0
 30 31  2  0  0  0  0
 32 33  2  0  0  0  0
 32 35  1  0  0  0  0
 33 34  1  0  0  0  0
 34 37  1  0  0  0  0
 34 36  1  0  0  0  0
M  END
>  <minimizedAffinity>
-6.07777166

$$$$

 OpenBabel03262520233D

 37 39  0  0  0  0  0  0  0  0999 V2000
   36.1250   28.4400   32.3710 C   0  0  0  0  0  0  0  0  0  0  0  0
   36.5920   29.2660   31.3400 C   0  0  0  0  0  0  0  0  0  0  0  0
   36.5160   30.6150   31.3050 C   0  0  0  0  0  0  0  0  0  0  0  0
   35.9530   31.2890   32.3200 C   0  0  0  0  0  0  0  0  0  0  0  0
   35.4920   30.5110   33.3240 C   0  0  0  0  0  0  0  0  0  0  0  0
   35.5970   29.2040   33.2980 N   0  0  0  0  0  0  0  0  0  0  0  0
   37.0850   28.7870   30.4370 H   0  0  0  0  0  0  0  0  0  0  0  0
   36.9290   31.1720   30.4180 H   0  0  0  0  0  0  0  0  0  0  0  0
   35.9250   32.3590   32.3020 H   0  0  0  0  0  0  0  0  0  0  0  0
   35.5390   26.4550   31.2320 C   0  0  0  0  0  0  0  0  0  0  0  0
   36.3160   27.0020   32.2960 C   0  0  0  0  0  0  0  0  0  0  0  0
   37.0900   26.1290   33.0110 C   0  0  0  0  0  0  0  0  0  0  0  0
   37.0540   24.8070   32.6440 N   0  0  0  0  0  0  0  0  0  0  0  0
   36.3260   24.3070   31.6480 C   0  0  0  0  0  0  0  0  0  0  0  0
   35.5660   25.1570   30.9460 N   0  0  0  0  0  0  0  0  0  0  0  0
   36.4440   22.9290   31.4190 N   0  0  0  0  0  0  0  0  0  0  0  0
   34.8870   27.0130   30.5890 H   0  0  0  0  0  0  0  0  0  0  0  0
   35.4880   22.4820   31.3390 H   0  0  0  0  0  0  0  0  0  0  0  0
   37.3710   22.4340   31.3410 H   0  0  0  0  0  0  0  0  0  0  0  0
   37.9110   26.6300   34.1140 C   0  0  0  0  0  0  0  0  0  0  0  0
   38.8000   27.4770   33.6390 F   0  0  0  0  0  0  0  0  0  0  0  0
   37.1870   27.2260   35.1320 F   0  0  0  0  0  0  0  0  0  0  0  0
   38.6230   25.5670   34.7390 F   0  0  0  0  0  0  0  0  0  0  0  0
   33.5300   31.0460   34.8240 C   0  0  0  0  0  0  0  0  0  0  0  0
   34.8760   31.0110   34.5760 C   0  0  0  0  0  0  0  0  0  0  0  0
   35.6300   31.4770   35.6220 C   0  0  0  0  0  0  0  0  0  0  0  0
   36.7240   31.4920   35.5340 H   0  0  0  0  0  0  0  0  0  0  0  0
   35.1340   31.9460   36.8160 C   0  0  0  0  0  0  0  0  0  0  0  0
   35.7860   32.2950   37.5900 H   0  0  0  0  0  0  0  0  0  0  0  0
   33.7700   31.9620   37.0070 C   0  0  0  0  0  3  0  0  0  0  0  0
   32.9630   31.5020   35.9900 C   0  0  0  0  0  3  0  0  0  0  0  0
   32.4020   29.2060   34.1530 N   0  0  0  0  0  0  0  0  0  0  0  0
   32.5650   30.4890   33.8920 C   0  0  0  0  0  0  0  0  0  0  0  0
   32.0840   31.4910   32.9780 N   0  0  0  0  0  0  0  0  0  0  0  0
   31.7140   28.7280   33.5170 H   0  0  0  0  0  0  0  0  0  0  0  0
   32.7990   31.8100   32.2690 H   0  0  0  0  0  0  0  0  0  0  0  0
   31.0850   31.8470   33.0500 H   0  0  0  0  0  0  0  0  0  0  0  0
  1  6  1  0  0  0  0
  2  1  2  0  0  0  0
  3  2  1  0  0  0  0
  3  4  2  0  0  0  0
  4  5  1  0  0  0  0
  5 25  1  0  0  0  0
  6  5  2  0  0  0  0
  7  2  1  0  0  0  0
  8  3  1  0  0  0  0
  9  4  1  0  0  0  0
 10 11  1  0  0  0  0
 11  1  1  0  0  0  0
 11 12  2  0  0  0  0
 12 20  1  0  0  0  0
 13 12  1  0  0  0  0
 14 13  2  0  0  0  0
 15 10  2  0  0  0  0
 15 14  1  0  0  0  0
 16 14  1  0  0  0  0
 17 10  1  0  0  0  0
 18 16  1  0  0  0  0
 19 16  1  0  0  0  0
 20 23  1  0  0  0  0
 20 22  1  0  0  0  0
 21 20  1  0  0  0  0
 24 31  1  0  0  0  0
 25 24  2  0  0  0  0
 25 26  1  0  0  0  0
 26 28  2  0  0  0  0
 27 26  1  0  0  0  0
 28 30  1  0  0  0  0
 28 29  1  0  0  0  0
 31 30  2  0  0  0  0
 33 32  2  0  0  0  0
 33 24  1  0  0  0  0
 34 37  1  0  0  0  0
 34 33  1  0  0  0  0
 35 32  1  0  0  0  0
 36 34  1  0  0  0  0
M  END
>  <minimizedAffinity>
-5.96542501

$$$$

 OpenBabel03262520233D

 37 39  0  0  0  0  0  0  0  0999 V2000
   37.6910   24.0610   32.4820 C   0  0  0  0  0  0  0  0  0  0  0  0
   39.0870   24.0730   32.3500 C   0  0  0  0  0  0  0  0  0  0  0  0
   39.8770   25.1700   32.3520 C   0  0  0  0  0  0  0  0  0  0  0  0
   39.3390   26.3930   32.4910 C   0  0  0  0  0  0  0  0  0  0  0  0
   37.9940   26.4040   32.6170 C   0  0  0  0  0  0  0  0  0  0  0  0
   37.2830   25.3020   32.6070 N   0  0  0  0  0  0  0  0  0  0  0  0
   39.6320   23.0860   32.2270 H   0  0  0  0  0  0  0  0  0  0  0  0
   40.9900   25.0540   32.2380 H   0  0  0  0  0  0  0  0  0  0  0  0
   39.9730   27.2550   32.5260 H   0  0  0  0  0  0  0  0  0  0  0  0
   36.2790   22.6000   31.2780 C   0  0  0  0  0  0  0  0  0  0  0  0
   36.9730   22.7990   32.5090 C   0  0  0  0  0  0  0  0  0  0  0  0
   36.8720   21.8070   33.4450 C   0  0  0  0  0  0  0  0  0  0  0  0
   36.1150   20.7080   33.1230 N   0  0  0  0  0  0  0  0  0  0  0  0
   35.4720   20.5320   31.9700 C   0  0  0  0  0  0  0  0  0  0  0  0
   35.5670   21.5000   31.0510 N   0  0  0  0  0  0  0  0  0  0  0  0
   34.7690   19.3280   31.8260 N   0  0  0  0  0  0  0  0  0  0  0  0
   36.2650   23.2870   30.4550 H   0  0  0  0  0  0  0  0  0  0  0  0
   33.7860   19.5110   31.4790 H   0  0  0  0  0  0  0  0  0  0  0  0
   35.1870   18.3850   32.0410 H   0  0  0  0  0  0  0  0  0  0  0  0
   37.5630   21.9530   34.7280 C   0  0  0  0  0  0  0  0  0  0  0  0
   38.8160   21.5770   34.5870 F   0  0  0  0  0  0  0  0  0  0  0  0
   37.5090   23.2310   35.2560 F   0  0  0  0  0  0  0  0  0  0  0  0
   36.9730   21.1180   35.7190 F   0  0  0  0  0  0  0  0  0  0  0  0
   36.7690   28.4740   31.8440 C   0  0  0  0  0  0  0  0  0  0  0  0
   37.1680   27.6160   32.8330 C   0  0  0  0  0  0  0  0  0  0  0  0
   36.7130   27.9740   34.0750 C   0  0  0  0  0  0  0  0  0  0  0  0
   36.9700   27.3550   34.9430 H   0  0  0  0  0  0  0  0  0  0  0  0
   35.9360   29.0750   34.3530 C   0  0  0  0  0  0  0  0  0  0  0  0
   35.6170   29.2920   35.3510 H   0  0  0  0  0  0  0  0  0  0  0  0
   35.5680   29.9050   33.3170 C   0  0  0  0  0  3  0  0  0  0  0  0
   35.9950   29.5920   32.0460 C   0  0  0  0  0  3  0  0  0  0  0  0
   36.2230   27.2750   30.0070 N   0  0  0  0  0  0  0  0  0  0  0  0
   37.0460   28.2100   30.4420 C   0  0  0  0  0  0  0  0  0  0  0  0
   38.1200   29.0370   29.9580 N   0  0  0  0  0  0  0  0  0  0  0  0
   36.3610   27.0260   28.9950 H   0  0  0  0  0  0  0  0  0  0  0  0
   39.0700   28.7810   30.3420 H   0  0  0  0  0  0  0  0  0  0  0  0
   37.9220   29.8240   29.2720 H   0  0  0  0  0  0  0  0  0  0  0  0
  1 11  1  0  0  0  0
  1  6  1  0  0  0  0
  2  3  1  0  0  0  0
  2  1  2  0  0  0  0
  3  4  2  0  0  0  0
  4  9  1  0  0  0  0
  4  5  1  0  0  0  0
  5 25  1  0  0  0  0
  6  5  2  0  0  0  0
  7  2  1  0  0  0  0
  8  3  1  0  0  0  0
 10 11  1  0  0  0  0
 11 12  2  0  0  0  0
 12 20  1  0  0  0  0
 13 12  1  0  0  0  0
 14 13  2  0  0  0  0
 15 10  2  0  0  0  0
 15 14  1  0  0  0  0
 16 14  1  0  0  0  0
 16 19  1  0  0  0  0
 17 10  1  0  0  0  0
 18 16  1  0  0  0  0
 20 22  1  0  0  0  0
 20 23  1  0  0  0  0
 21 20  1  0  0  0  0
 24 31  2  0  0  0  0
 24 25  1  0  0  0  0
 25 26  2  0  0  0  0
 26 28  1  0  0  0  0
 26 27  1  0  0  0  0
 28 29  1  0  0  0  0
 30 28  2  0  0  0  0
 31 30  1  0  0  0  0
 32 33  2  0  0  0  0
 33 24  1  0  0  0  0
 34 36  1  0  0  0  0
 34 33  1  0  0  0  0
 35 32  1  0  0  0  0
 37 34  1  0  0  0  0
M  END
>  <minimizedAffinity>
-5.94882631

$$$$
