REMARK  Name = 
REMARK  4 active torsions:
REMARK  status: ('A' for Active; 'I' for Inactive)
REMARK    1  A    between atoms: C_2  and  N_13
REMARK    2  A    between atoms: C_3  and  C_7
REMARK    3  A    between atoms: C_17  and  C_36
REMARK    4  A    between atoms: C_33  and  C_35
REMARK                            x       y       z     vdW  Elec       q    Type
REMARK                         _______ _______ _______ _____ _____    ______ ____
ROOT
ATOM      1  N   UNL     1      36.802  31.271  48.578  0.00  0.00    +0.000 N 
ATOM      2  C   UNL     1      37.578  32.484  48.944  0.00  0.00    +0.000 C 
ATOM      3  C   UNL     1      38.744  31.871  49.706  0.00  0.00    +0.000 C 
ATOM      4  C   UNL     1      38.126  30.697  50.425  0.00  0.00    +0.000 C 
ATOM      5  C   UNL     1      36.725  30.587  49.866  0.00  0.00    +0.000 C 
ATOM      6  H   UNL     1      36.939  33.115  49.564  0.00  0.00    +0.000 HD
ATOM      7  H   UNL     1      37.884  33.023  48.040  0.00  0.00    +0.000 HD
ATOM      8  H   UNL     1      39.120  32.564  50.486  0.00  0.00    +0.000 HD
ATOM      9  H   UNL     1      39.531  31.566  48.986  0.00  0.00    +0.000 HD
ATOM     10  H   UNL     1      38.118  30.826  51.524  0.00  0.00    +0.000 HD
ATOM     11  H   UNL     1      38.723  29.764  50.221  0.00  0.00    +0.000 HD
ATOM     12  H   UNL     1      36.062  31.190  50.508  0.00  0.00    +0.000 HD
ENDROOT
BRANCH   1  14
ATOM     13  C   UNL     1      34.930  30.162  47.590  0.00  0.00    +0.000 A 
ATOM     14  C   UNL     1      36.221  30.730  47.403  0.00  0.00    +0.000 A 
ATOM     15  C   UNL     1      36.780  30.659  46.123  0.00  0.00    +0.000 A 
ATOM     16  N   UNL     1      36.076  30.055  45.128  0.00  0.00    +0.000 NA
ATOM     17  C   UNL     1      34.852  29.526  45.354  0.00  0.00    +0.000 A 
ATOM     18  N   UNL     1      34.288  29.579  46.564  0.00  0.00    +0.000 NA
ATOM     19  H   UNL     1      34.415  30.174  48.538  0.00  0.00    +0.000 HD
ATOM     20  H   UNL     1      34.265  29.035  44.579  0.00  0.00    +0.000 HD
BRANCH  15  21
ATOM     21  C   UNL     1      38.067  31.227  45.827  0.00  0.00    +0.000 A 
ATOM     22  C   UNL     1      38.127  32.450  45.197  0.00  0.00    +0.000 A 
ATOM     23  C   UNL     1      39.306  33.085  44.871  0.00  0.00    +0.000 A 
ATOM     24  C   UNL     1      40.471  32.416  45.216  0.00  0.00    +0.000 A 
ATOM     25  C   UNL     1      40.494  31.182  45.851  0.00  0.00    +0.000 A 
ATOM     26  C   UNL     1      39.248  30.607  46.147  0.00  0.00    +0.000 A 
ATOM     27  H   UNL     1      37.203  32.971  44.928  0.00  0.00    +0.000 HD
ATOM     28  H   UNL     1      39.344  34.046  44.376  0.00  0.00    +0.000 HD
ATOM     29  H   UNL     1      41.440  32.844  44.996  0.00  0.00    +0.000 HD
ATOM     30  H   UNL     1      41.420  30.685  46.108  0.00  0.00    +0.000 HD
ATOM     31  H   UNL     1      39.219  29.649  46.641  0.00  0.00    +0.000 HD
ENDBRANCH  15  21
ENDBRANCH   1  14
BRANCH   5  33
ATOM     32  C   UNL     1      37.082  28.221  50.421  0.00  0.00    +0.000 A 
ATOM     33  C   UNL     1      36.284  29.182  49.787  0.00  0.00    +0.000 A 
ATOM     34  C   UNL     1      35.182  28.686  49.143  0.00  0.00    +0.000 A 
ATOM     35  H   UNL     1      34.553  29.390  48.642  0.00  0.00    +0.000 HD
ATOM     36  C   UNL     1      34.851  27.349  49.101  0.00  0.00    +0.000 A 
ATOM     37  H   UNL     1      33.955  27.031  48.567  0.00  0.00    +0.000 HD
ATOM     38  C   UNL     1      35.651  26.421  49.733  0.00  0.00    +0.000 A 
ATOM     39  C   UNL     1      36.770  26.880  50.392  0.00  0.00    +0.000 A 
BRANCH  32  41
ATOM     40  N   UNL     1      38.699  27.806  52.175  0.00  0.00    +0.000 NA
ATOM     41  C   UNL     1      38.302  28.505  51.163  0.00  0.00    +0.000 C 
ATOM     42  N   UNL     1      39.351  29.432  51.133  0.00  0.00    +0.000 N 
ATOM     43  H   UNL     1      39.563  28.033  52.674  0.00  0.00    +0.000 HD
ATOM     44  H   UNL     1      39.930  29.118  50.301  0.00  0.00    +0.000 HD
ATOM     45  H   UNL     1      39.523  30.236  51.773  0.00  0.00    +0.000 HD
ENDBRANCH  32  41
ENDBRANCH   5  33
TORSDOF 4
