
     RDKit          3D

 25 26  0  0  0  0  0  0  0  0999 V2000
   37.2962   30.1823   51.4105 C   0  0  0  0  0  0  0  0  0  0  0  0
   38.0680   30.6804   50.3508 C   0  0  0  0  0  0  0  0  0  0  0  0
   37.6723   30.3387   49.0427 C   0  0  0  0  0  0  0  0  0  0  0  0
   36.5768   29.5543   48.8801 N   0  0  0  0  0  0  0  0  0  0  0  0
   35.8608   29.0960   49.9432 C   0  0  0  0  0  0  0  0  0  0  0  0
   36.2200   29.4093   51.2008 N   0  0  0  0  0  0  0  0  0  0  0  0
   37.5653   30.4212   52.4430 H   0  0  0  0  0  0  0  0  0  0  0  0
   38.2680   30.7182   48.2302 H   0  0  0  0  0  0  0  0  0  0  0  0
   35.0202   28.4856   49.6300 H   0  0  0  0  0  0  0  0  0  0  0  0
   39.4824   33.2845   47.5050 N   0  0  0  0  0  0  0  0  0  0  0  0
   38.8303   32.8547   48.5527 C   0  0  0  0  0  0  0  0  0  0  0  0
   37.4283   32.7977   48.3144 N   0  0  0  0  0  0  0  0  0  0  0  0
   39.5429   32.5086   49.7760 C   0  0  0  0  0  0  0  0  0  0  0  0
   39.2251   31.5068   50.6688 C   0  0  0  0  0  0  0  0  0  0  0  0
   39.9656   31.2754   51.8099 C   0  0  0  0  0  0  0  0  0  0  0  0
   39.6623   30.4671   52.4771 H   0  0  0  0  0  0  0  0  0  0  0  0
   41.0643   32.0606   52.0849 C   0  0  0  0  0  0  0  0  0  0  0  0
   41.6635   31.8970   52.9787 H   0  0  0  0  0  0  0  0  0  0  0  0
   41.3893   33.0683   51.1919 C   0  0  0  0  0  0  0  0  0  0  0  0
   40.6505   33.3090   50.0417 C   0  0  0  0  0  0  0  0  0  0  0  0
   40.5056   33.3939   47.4842 H   0  0  0  0  0  0  0  0  0  0  0  0
   36.9194   33.5656   47.8125 H   0  0  0  0  0  0  0  0  0  0  0  0
   36.4327   32.4908   48.2861 H   0  0  0  0  0  0  0  0  0  0  0  0
   42.2472   33.6815   51.4060 H   0  0  0  0  0  0  0  0  0  0  0  0
   40.9502   34.1177   49.3707 H   0  0  0  0  0  0  0  0  0  0  0  0
  2  1  2  0
  3  2  1  0
  4  3  2  0
  4  5  1  0
  5  6  2  0
  6  1  1  0
  1  7  1  0
  3  8  1  0
  5  9  1  0
 10 11  2  3
 11 12  1  0
 11 13  1  0
 13 14  2  0
 14 15  1  0
 15 16  1  0
 15 17  2  0
 17 18  1  0
 17 19  1  0
 19 20  2  0
 20 13  1  0
 10 21  1  0
 12 22  1  0
 12 23  1  0
 19 24  1  0
 20 25  1  0
  2 14  1  0
M  ISO  5   7  14   8  14   9  14  16  15  18  16
M  END
>  <DihAtoms>  (1) 
0,1,13,12

>  <DihDeg>  (1) 
-132.12412199457964

$$$$
