REMARK  Name = 
REMARK  5 active torsions:
REMARK  status: ('A' for Active; 'I' for Inactive)
REMARK    1  A    between atoms: C_1  and  C_6
REMARK    2  A    between atoms: C_1  and  C_8
REMARK    3  A    between atoms: C_8  and  C_9
REMARK    4  A    between atoms: C_12  and  C_26
REMARK    5  A    between atoms: C_23  and  C_25
REMARK                            x       y       z     vdW  Elec       q    Type
REMARK                         _______ _______ _______ _____ _____    ______ ____
ROOT
ATOM      1  C   UNL     1      34.811  28.839  48.624  0.00  0.00    +0.000 A 
ATOM      2  C   UNL     1      34.572  29.412  47.321  0.00  0.00    +0.000 A 
ATOM      3  S   UNL     1      32.960  28.782  46.975  0.00  0.00    +0.000 S 
ATOM      4  C   UNL     1      32.806  27.846  48.590  0.00  0.00    +0.000 A 
ATOM      5  N   UNL     1      33.851  28.099  49.106  0.00  0.00    +0.000 NA
ATOM      6  H   UNL     1      35.250  30.048  46.767  0.00  0.00    +0.000 HD
ENDROOT
BRANCH   4   8
ATOM      7  C   UNL     1      30.735  26.855  47.761  0.00  0.00    +0.000 A 
ATOM      8  C   UNL     1      31.559  27.095  48.818  0.00  0.00    +0.000 A 
ATOM      9  C   UNL     1      31.171  26.618  50.048  0.00  0.00    +0.000 A 
ATOM     10  H   UNL     1      31.808  26.795  50.904  0.00  0.00    +0.000 HD
ATOM     11  C   UNL     1      30.002  25.937  50.166  0.00  0.00    +0.000 A 
ATOM     12  H   UNL     1      29.750  25.586  51.157  0.00  0.00    +0.000 HD
ATOM     13  C   UNL     1      29.184  25.704  49.092  0.00  0.00    +0.000 A 
ATOM     14  C   UNL     1      29.544  26.168  47.848  0.00  0.00    +0.000 A 
BRANCH   7  16
ATOM     15  N   UNL     1      31.993  27.607  45.584  0.00  0.00    +0.000 NA
ATOM     16  C   UNL     1      31.093  27.323  46.455  0.00  0.00    +0.000 C 
ATOM     17  N   UNL     1      30.081  27.719  45.507  0.00  0.00    +0.000 N 
ATOM     18  H   UNL     1      31.714  27.967  44.646  0.00  0.00    +0.000 HD
ATOM     19  H   UNL     1      29.640  28.586  45.078  0.00  0.00    +0.000 HD
ATOM     20  H   UNL     1      29.545  26.939  45.028  0.00  0.00    +0.000 HD
ENDBRANCH   7  16
ENDBRANCH   4   8
BRANCH   1  21
ATOM     21  C   UNL     1      36.112  29.134  49.307  0.00  0.00    +0.000 C 
ATOM     22  H   UNL     1      36.340  28.347  50.055  0.00  0.00    +0.000 HD
ATOM     23  H   UNL     1      36.950  29.056  48.552  0.00  0.00    +0.000 HD
BRANCH  21  24
ATOM     24  C   UNL     1      36.107  30.459  49.981  0.00  0.00    +0.000 C 
ATOM     25  H   UNL     1      35.130  30.941  49.916  0.00  0.00    +0.000 HD
ATOM     26  H   UNL     1      36.329  30.361  51.079  0.00  0.00    +0.000 HD
BRANCH  24  31
ATOM     27  C   UNL     1      38.238  33.380  49.169  0.00  0.00    +0.000 A 
ATOM     28  C   UNL     1      39.009  32.929  48.100  0.00  0.00    +0.000 A 
ATOM     29  C   UNL     1      38.789  31.612  47.661  0.00  0.00    +0.000 A 
ATOM     30  N   UNL     1      37.848  30.870  48.301  0.00  0.00    +0.000 NA
ATOM     31  C   UNL     1      37.130  31.370  49.339  0.00  0.00    +0.000 A 
ATOM     32  N   UNL     1      37.318  32.618  49.776  0.00  0.00    +0.000 NA
ATOM     33  H   UNL     1      38.360  34.374  49.548  0.00  0.00    +0.000 HD
ATOM     34  H   UNL     1      39.729  33.595  47.660  0.00  0.00    +0.000 HD
ATOM     35  H   UNL     1      39.369  31.240  46.840  0.00  0.00    +0.000 HD
ENDBRANCH  24  31
ENDBRANCH  21  24
ENDBRANCH   1  21
TORSDOF 5
