
 OpenBabel03262520073D

 23 22  0  0  0  0  0  0  0  0999 V2000
   34.8070   29.5470   48.1550 C   0  0  0  0  0  0  0  0  0  0  0  0
   35.8480   30.2370   47.5740 C   0  0  0  0  0  0  0  0  0  0  0  0
   35.8690   30.2490   46.1920 C   0  0  0  0  0  0  0  0  0  0  0  0
   36.6780   30.7850   45.6950 H   0  0  0  0  0  0  0  0  0  0  0  0
   34.8840   29.5940   45.5190 C   0  0  0  0  0  0  0  0  0  0  0  0
   34.9710   29.6490   44.4440 H   0  0  0  0  0  0  0  0  0  0  0  0
   33.8410   28.9020   46.0980 C   0  0  0  0  0  3  0  0  0  0  0  0
   33.8080   28.8820   47.4750 C   0  0  0  0  0  3  0  0  0  0  0  0
   38.2700   30.8230   50.2440 C   0  0  0  0  0  0  0  0  0  0  0  0
   38.8070   32.0930   49.9460 C   0  0  0  0  0  0  0  0  0  0  0  0
   38.3250   32.7460   48.8130 C   0  0  0  0  0  0  0  0  0  0  0  0
   37.3750   32.1290   48.0690 N   0  0  0  0  0  0  0  0  0  0  0  0
   36.8700   30.9190   48.3620 C   0  0  0  0  0  0  0  0  0  0  0  0
   37.3350   30.2870   49.4560 N   0  0  0  0  0  0  0  0  0  0  0  0
   38.6600   30.3520   51.1150 H   0  0  0  0  0  0  0  0  0  0  0  0
   39.5640   32.6210   50.5120 H   0  0  0  0  0  0  0  0  0  0  0  0
   38.6450   33.7150   48.4690 H   0  0  0  0  0  0  0  0  0  0  0  0
   34.9620   29.2160   50.8080 N   0  0  0  0  0  2  0  0  0  0  0  0
   34.6770   29.4550   49.5860 C   0  0  0  0  0  2  0  0  0  0  0  0
   33.5520   29.8340   50.3430 N   0  0  0  0  0  1  0  0  0  0  0  0
   34.2390   29.4330   51.5580 H   0  0  0  0  0  0  0  0  0  0  0  0
   32.8300   30.3770   49.8150 H   0  0  0  0  0 15  0  0  0  0  0  0
   32.6320   30.3090   50.4070 H   0  0  0  0  0  0  0  0  0  0  0  0
  1 19  1  0  0  0  0
  2  1  1  0  0  0  0
  2 13  1  0  0  0  0
  3  2  2  0  0  0  0
  4  3  1  0  0  0  0
  5  7  2  0  0  0  0
  5  3  1  0  0  0  0
  6  5  1  0  0  0  0
  7  8  1  0  0  0  0
  8  1  2  0  0  0  0
  9 15  1  0  0  0  0
 10  9  1  0  0  0  0
 10 16  1  0  0  0  0
 11 10  2  0  0  0  0
 12 13  2  0  0  0  0
 12 11  1  0  0  0  0
 13 14  1  0  0  0  0
 14  9  2  0  0  0  0
 17 11  1  0  0  0  0
 18 21  1  0  0  0  0
 19 18  1  0  0  0  0
 20 23  1  0  0  0  0
M  END
>  <minimizedAffinity>
-4.65278149

>  <minimizedRMSD>
3.03320599

$$$$
