
 OpenBabel03272508123D

 39 41  0  0  0  0  0  0  0  0999 V2000
   36.7140   29.4470   44.1400 Cl  0  0  0  0  0  0  0  0  0  0  0  0
   38.3630   29.8250   43.6190 C   0  0  0  0  0  0  0  0  0  0  0  0
   39.3500   30.3240   44.4570 C   0  0  0  0  0  0  0  0  0  0  0  0
   40.6050   30.5750   43.9060 C   0  0  0  0  0  0  0  0  0  0  0  0
   40.8440   30.3300   42.5740 C   0  0  0  0  0  0  0  0  0  0  0  0
   39.8760   29.8380   41.7390 C   0  0  0  0  0  0  0  0  0  0  0  0
   38.6470   29.5880   42.2600 C   0  0  0  0  0  0  0  0  0  0  0  0
   41.3090   30.9630   44.6370 H   0  0  0  0  0  0  0  0  0  0  0  0
   41.8590   30.5670   42.2680 H   0  0  0  0  0  0  0  0  0  0  0  0
   40.1330   29.6670   40.6910 H   0  0  0  0  0  0  0  0  0  0  0  0
   36.8690   30.0480   40.7580 C   0  0  0  0  0  0  0  0  0  0  0  0
   37.6350   29.0610   41.3420 C   0  0  0  0  0  0  0  0  0  0  0  0
   37.3990   27.7380   41.0290 C   0  0  0  0  0  0  0  0  0  0  0  0
   38.0510   27.0350   41.5360 H   0  0  0  0  0  0  0  0  0  0  0  0
   36.4000   27.4040   40.1370 C   0  0  0  0  0  0  0  0  0  0  0  0
   36.2590   26.3420   39.9280 H   0  0  0  0  0  0  0  0  0  0  0  0
   35.6110   28.3640   39.5320 C   0  0  0  0  0  3  0  0  0  0  0  0
   35.8600   29.6930   39.8560 C   0  0  0  0  0  3  0  0  0  0  0  0
   36.2730   32.2110   41.8010 N   0  0  0  0  0  0  0  0  0  0  0  0
   36.9190   31.4920   40.9190 C   0  0  0  0  0  0  0  0  0  0  0  0
   37.7320   32.2910   40.0700 N   0  0  0  0  0  0  0  0  0  0  0  0
   35.6310   31.7790   42.5010 H   0  0  0  0  0  0  0  0  0  0  0  0
   38.3010   32.8850   39.4330 H   0  0  0  0  0  0  0  0  0  0  0  0
   37.0770   32.7630   39.3770 H   0  0  0  0  0  0  0  0  0  0  0  0
   38.9140   30.4940   45.7300 O   0  0  0  0  0  0  0  0  0  0  0  0
   39.4300   32.5750   47.1730 O   0  0  0  0  0  0  0  0  0  0  0  0
   38.3110   31.8800   46.4800 P   0  0  1  0  0  0  0  0  0  0  0  0
   37.7260   32.8490   45.2030 O   0  0  0  0  0  0  0  0  0  0  0  0
   38.3560   33.6070   45.0270 H   0  0  0  0  0  0  0  0  0  0  0  0
   37.0310   31.4470   47.4980 O   0  0  0  0  0  0  0  0  0  0  0  0
   37.5870   30.5150   51.0250 C   0  0  0  0  0  0  0  0  0  0  0  0
   37.6900   31.3080   49.8760 C   0  0  0  0  0  0  0  0  0  0  0  0
   37.0640   30.8530   48.7140 C   0  0  0  0  0  0  0  0  0  0  0  0
   36.3870   29.6640   48.7590 N   0  0  0  0  0  0  0  0  0  0  0  0
   36.3170   28.9390   49.8890 C   0  0  0  0  0  0  0  0  0  0  0  0
   36.9200   29.3700   51.0220 N   0  0  0  0  0  0  0  0  0  0  0  0
   38.1240   30.9940   51.8560 H   0  0  0  0  0  0  0  0  0  0  0  0
   38.2060   32.2520   49.7700 H   0  0  0  0  0  0  0  0  0  0  0  0
   35.7840   27.9990   49.9280 H   0  0  0  0  0  0  0  0  0  0  0  0
  2  1  1  0  0  0  0
  2  3  1  0  0  0  0
  3 25  1  0  0  0  0
  4  3  2  0  0  0  0
  4  8  1  0  0  0  0
  5  4  1  0  0  0  0
  6  7  1  0  0  0  0
  6  5  2  0  0  0  0
  7  2  2  0  0  0  0
  9  5  1  0  0  0  0
 10  6  1  0  0  0  0
 11 20  1  0  0  0  0
 11 12  1  0  0  0  0
 12  7  1  0  0  0  0
 13 12  2  0  0  0  0
 13 14  1  0  0  0  0
 15 13  1  0  0  0  0
 16 15  1  0  0  0  0
 17 18  1  0  0  0  0
 17 15  2  0  0  0  0
 18 11  2  0  0  0  0
 19 22  1  0  0  0  0
 20 19  2  0  0  0  0
 21 20  1  0  0  0  0
 23 21  1  0  0  0  0
 24 21  1  0  0  0  0
 25 27  1  0  0  0  0
 27 26  2  1  0  0  0
 27 30  1  0  0  0  0
 28 27  1  0  0  0  0
 29 28  1  0  0  0  0
 30 33  1  0  0  0  0
 31 37  1  0  0  0  0
 32 31  2  0  0  0  0
 33 34  2  0  0  0  0
 33 32  1  0  0  0  0
 34 35  1  0  0  0  0
 35 39  1  0  0  0  0
 35 36  2  0  0  0  0
 36 31  1  0  0  0  0
 38 32  1  0  0  0  0
M  END
>  <minimizedAffinity>
-4.82516813

>  <minimizedRMSD>
0.342973858

$$$$
