
 OpenBabel03272503233D

 35 37  0  0  1  0  0  0  0  0999 V2000
   36.5190   29.5810   49.2390 N   0  0  0  0  0  0  0  0  0  0  0  0
   37.7880   30.0440   48.8860 C   0  0  2  0  0  0  0  0  0  0  0  0
   38.3390   30.6310   50.1780 C   0  0  0  0  0  0  0  0  0  0  0  0
   37.2380   30.5000   51.1860 C   0  0  0  0  0  0  0  0  0  0  0  0
   36.5800   29.2510   50.6770 C   0  0  0  0  0  0  0  0  0  0  0  0
   38.4030   29.0380   48.8380 H   0  0  0  0  0  0  0  0  0  0  0  0
   39.2090   30.0760   50.5790 H   0  0  0  0  0  0  0  0  0  0  0  0
   38.7060   31.6620   50.0500 H   0  0  0  0  0  0  0  0  0  0  0  0
   37.6480   30.2840   52.2170 H   0  0  0  0  0  0  0  0  0  0  0  0
   36.5400   31.3450   51.2530 H   0  0  0  0  0  0  0  0  0  0  0  0
   37.2950   28.4130   50.8210 H   0  0  0  0  0  0  0  0  0  0  0  0
   35.5940   29.0630   51.0940 H   0  0  0  0  0  0  0  0  0  0  0  0
   35.3490   29.3590   48.4900 C   0  0  0  0  0  0  0  0  0  0  0  0
   34.9120   30.4350   47.7430 C   0  0  0  0  0  0  0  0  0  0  0  0
   33.7920   30.3550   46.9250 C   0  0  0  0  0  0  0  0  0  0  0  0
   33.1620   29.1370   46.9160 N   0  0  0  0  0  0  0  0  0  0  0  0
   33.5940   28.0990   47.6440 C   0  0  0  0  0  0  0  0  0  0  0  0
   34.6970   28.2050   48.4410 N   0  0  0  0  0  0  0  0  0  0  0  0
   35.2410   31.4370   47.5980 H   0  0  0  0  0  0  0  0  0  0  0  0
   33.3170   31.0670   46.2900 H   0  0  0  0  0  0  0  0  0  0  0  0
   33.0570   27.1480   47.6040 H   0  0  0  0  0  0  0  0  0  0  0  0
   38.3810   32.1180   47.5350 C   0  0  0  0  0  0  0  0  0  0  0  0
   38.1770   30.7430   47.7150 C   0  0  0  0  0  0  0  0  0  0  0  0
   38.4340   30.0800   46.5010 C   0  0  0  0  0  0  0  0  0  0  0  0
   38.3170   28.9860   46.4780 H   0  0  0  0  0  0  0  0  0  0  0  0
   38.8150   30.6550   45.3380 C   0  0  0  0  0  0  0  0  0  0  0  0
   38.9900   30.0680   44.4510 H   0  0  0  0  0  0  0  0  0  0  0  0
   38.9830   32.0150   45.2800 C   0  0  0  0  0  3  0  0  0  0  0  0
   38.7660   32.7700   46.3860 C   0  0  0  0  0  3  0  0  0  0  0  0
   37.4960   33.4460   49.6460 N   0  0  0  0  0  0  0  0  0  0  0  0
   38.1440   32.9860   48.6670 C   0  0  0  0  0  0  0  0  0  0  0  0
   39.1450   33.9630   49.0350 N   0  0  0  0  0  0  0  0  0  0  0  0
   37.9400   34.2240   50.1930 H   0  0  0  0  0  0  0  0  0  0  0  0
   39.3180   34.8110   48.4180 H   0  0  0  0  0  0  0  0  0  0  0  0
   39.8980   34.4080   49.6040 H   0  0  0  0  0  0  0  0  0  0  0  0
  1  5  1  0  0  0  0
  2  6  1  6  0  0  0
  2  1  1  0  0  0  0
  2  3  1  0  0  0  0
  3  7  1  0  0  0  0
  3  4  1  0  0  0  0
  4 10  1  0  0  0  0
  4  9  1  0  0  0  0
  5 11  1  0  0  0  0
  5 12  1  0  0  0  0
  5  4  1  0  0  0  0
  8  3  1  0  0  0  0
 13  1  1  0  0  0  0
 14 13  2  0  0  0  0
 15 14  1  0  0  0  0
 16 15  2  0  0  0  0
 16 17  1  0  0  0  0
 17 18  2  0  0  0  0
 18 13  1  0  0  0  0
 19 14  1  0  0  0  0
 20 15  1  0  0  0  0
 21 17  1  0  0  0  0
 22 23  1  0  0  0  0
 22 31  1  0  0  0  0
 23  2  1  0  0  0  0
 24 23  2  0  0  0  0
 25 24  1  0  0  0  0
 26 24  1  0  0  0  0
 27 26  1  0  0  0  0
 28 26  2  0  0  0  0
 28 29  1  0  0  0  0
 29 22  2  0  0  0  0
 30 33  1  0  0  0  0
 31 32  1  0  0  0  0
 31 30  2  0  0  0  0
 32 35  1  0  0  0  0
 34 32  1  0  0  0  0
M  END
>  <minimizedAffinity>
-5.66120052

>  <minimizedRMSD>
1.01019585

$$$$
