
 OpenBabel03272510073D

 35 37  0  0  0  0  0  0  0  0999 V2000
   36.0270   29.0080   48.1520 C   0  0  0  0  0  0  0  0  0  0  0  0
   35.8370   30.1760   47.4010 C   0  0  0  0  0  0  0  0  0  0  0  0
   34.5400   30.4880   46.9920 C   0  0  0  0  0  0  0  0  0  0  0  0
   33.5200   29.6530   47.3390 N   0  0  0  0  0  0  0  0  0  0  0  0
   33.7360   28.5410   48.0610 C   0  0  0  0  0  0  0  0  0  0  0  0
   34.9710   28.2310   48.4570 N   0  0  0  0  0  0  0  0  0  0  0  0
   32.6200   27.7070   48.3900 N   0  0  0  0  0  0  0  0  0  0  0  0
   31.4710   28.1550   49.1510 C   0  0  0  0  0  0  0  0  0  0  0  0
   30.4700   27.0640   49.0250 C   0  0  0  0  0  0  0  0  0  0  0  0
   30.9990   26.1300   47.9550 C   0  0  0  0  0  0  0  0  0  0  0  0
   32.4770   26.3040   48.0130 C   0  0  0  0  0  0  0  0  0  0  0  0
   37.0330   28.7480   48.4790 H   0  0  0  0  0  0  0  0  0  0  0  0
   34.4060   31.3900   46.4190 H   0  0  0  0  0  0  0  0  0  0  0  0
   31.0780   29.1260   48.7610 H   0  0  0  0  0  0  0  0  0  0  0  0
   31.7570   28.2760   50.2210 H   0  0  0  0  0  0  0  0  0  0  0  0
   29.4520   27.4130   48.7830 H   0  0  0  0  0  0  0  0  0  0  0  0
   30.4460   26.4480   49.9710 H   0  0  0  0  0  0  0  0  0  0  0  0
   30.6360   26.5030   46.9740 H   0  0  0  0  0  0  0  0  0  0  0  0
   30.6780   25.0850   48.1730 H   0  0  0  0  0  0  0  0  0  0  0  0
   33.0070   26.0810   47.0790 H   0  0  0  0  0  0  0  0  0  0  0  0
   32.8770   25.6710   48.8380 H   0  0  0  0  0  0  0  0  0  0  0  0
   37.7420   31.3490   48.2260 C   0  0  0  0  0  0  0  0  0  0  0  0
   37.0210   30.9750   47.1130 C   0  0  0  0  0  0  0  0  0  0  0  0
   37.4410   31.3480   45.8550 C   0  0  0  0  0  0  0  0  0  0  0  0
   36.7650   30.9760   45.0890 H   0  0  0  0  0  0  0  0  0  0  0  0
   38.5760   32.0950   45.6460 C   0  0  0  0  0  0  0  0  0  0  0  0
   38.7530   32.2930   44.6200 H   0  0  0  0  0  0  0  0  0  0  0  0
   39.2990   32.4700   46.7570 C   0  0  0  0  0  3  0  0  0  0  0  0
   38.9010   32.1090   48.0400 C   0  0  0  0  0  3  0  0  0  0  0  0
   38.2710   30.3660   50.3870 N   0  0  0  0  0  0  0  0  0  0  0  0
   37.4880   31.0870   49.6370 C   0  0  0  0  0  0  0  0  0  0  0  0
   36.4400   31.5130   50.4660 N   0  0  0  0  0  0  0  0  0  0  0  0
   39.1430   29.9230   49.9980 H   0  0  0  0  0  0  0  0  0  0  0  0
   35.4800   31.6840   50.8130 H   0  0  0  0  0  0  0  0  0  0  0  0
   36.5130   31.9980   51.3790 H   0  0  0  0  0  0  0  0  0  0  0  0
  1  6  1  0  0  0  0
  1 12  1  0  0  0  0
  2  1  2  0  0  0  0
  3  4  2  0  0  0  0
  3  2  1  0  0  0  0
  4  5  1  0  0  0  0
  5  7  1  0  0  0  0
  5  6  2  0  0  0  0
  7  8  1  0  0  0  0
  8 15  1  0  0  0  0
  9  8  1  0  0  0  0
  9 17  1  0  0  0  0
 10 11  1  0  0  0  0
 10 19  1  0  0  0  0
 10  9  1  0  0  0  0
 11  7  1  0  0  0  0
 11 21  1  0  0  0  0
 13  3  1  0  0  0  0
 14  8  1  0  0  0  0
 16  9  1  0  0  0  0
 18 10  1  0  0  0  0
 20 11  1  0  0  0  0
 22 31  1  0  0  0  0
 23  2  1  0  0  0  0
 23 22  2  0  0  0  0
 24 23  1  0  0  0  0
 25 24  1  0  0  0  0
 26 24  2  0  0  0  0
 26 28  1  0  0  0  0
 27 26  1  0  0  0  0
 28 29  2  0  0  0  0
 29 22  1  0  0  0  0
 31 30  2  0  0  0  0
 31 32  1  0  0  0  0
 32 34  1  0  0  0  0
 32 35  1  0  0  0  0
 33 30  1  0  0  0  0
M  END
>  <minimizedAffinity>
-4.87145185

>  <minimizedRMSD>
4.57117081

$$$$
