
 OpenBabel03272505123D

 44 47  0  0  0  0  0  0  0  0999 V2000
   33.7890   29.1880   44.5330 Cl  0  0  0  0  0  0  0  0  0  0  0  0
   33.8230   27.9720   45.7960 C   0  0  0  0  0  0  0  0  0  0  0  0
   33.9460   28.2220   47.1560 C   0  0  0  0  0  0  0  0  0  0  0  0
   33.9590   27.1790   48.0390 C   0  0  0  0  0  0  0  0  0  0  0  0
   33.8530   25.8960   47.6070 C   0  0  0  0  0  0  0  0  0  0  0  0
   33.7270   25.5820   46.2580 C   0  0  0  0  0  0  0  0  0  0  0  0
   33.7160   26.6440   45.3760 C   0  0  0  0  0  0  0  0  0  0  0  0
   34.0580   27.4880   49.0730 H   0  0  0  0  0  0  0  0  0  0  0  0
   33.8680   25.0930   48.3480 H   0  0  0  0  0  0  0  0  0  0  0  0
   33.6460   24.5560   45.9510 H   0  0  0  0  0  0  0  0  0  0  0  0
   32.4060   26.1210   43.2660 C   0  0  0  0  0  0  0  0  0  0  0  0
   33.5810   26.2580   43.9720 C   0  0  0  0  0  0  0  0  0  0  0  0
   34.7890   26.0180   43.3300 C   0  0  0  0  0  0  0  0  0  0  0  0
   35.8010   26.0800   43.7370 H   0  0  0  0  0  0  0  0  0  0  0  0
   34.7970   25.6440   41.9950 C   0  0  0  0  0  0  0  0  0  0  0  0
   35.7040   25.4360   41.4170 H   0  0  0  0  0  0  0  0  0  0  0  0
   33.6320   25.5010   41.2690 C   0  0  0  0  0  3  0  0  0  0  0  0
   32.4490   25.7460   41.9330 C   0  0  0  0  0  3  0  0  0  0  0  0
   30.7080   27.5870   44.0150 N   0  0  0  0  0  0  0  0  0  0  0  0
   31.1810   26.3870   43.9950 C   0  0  0  0  0  0  0  0  0  0  0  0
   30.5810   25.2670   44.6510 N   0  0  0  0  0  0  0  0  0  0  0  0
   29.8160   27.7290   44.5560 H   0  0  0  0  0  0  0  0  0  0  0  0
   30.1250   24.7960   43.8230 H   0  0  0  0  0  0  0  0  0  0  0  0
   30.3460   24.6660   45.4720 H   0  0  0  0  0  0  0  0  0  0  0  0
   34.0740   29.9610   47.5640 S   0  0  0  0  0  0  0  0  0  0  0  0
   36.4080   30.9010   45.7360 Cl  0  0  0  0  0  0  0  0  0  0  0  0
   36.7060   30.7870   47.4390 C   0  0  0  0  0  0  0  0  0  0  0  0
   37.9640   31.1200   47.8940 C   0  0  0  0  0  0  0  0  0  0  0  0
   38.2050   31.0300   49.2570 C   0  0  0  0  0  0  0  0  0  0  0  0
   37.2180   30.6240   50.0990 C   0  0  0  0  0  0  0  0  0  0  0  0
   35.9630   30.3000   49.5800 C   0  0  0  0  0  0  0  0  0  0  0  0
   35.6560   30.3660   48.2500 C   0  0  0  0  0  0  0  0  0  0  0  0
   39.1950   31.2920   49.6140 H   0  0  0  0  0  0  0  0  0  0  0  0
   37.4320   30.5620   51.1600 H   0  0  0  0  0  0  0  0  0  0  0  0
   35.1930   29.9800   50.2750 H   0  0  0  0  0  0  0  0  0  0  0  0
   40.2240   33.3220   46.0700 C   0  0  0  0  0  0  0  0  0  0  0  0
   40.9190   32.4600   45.1990 C   0  0  0  0  0  0  0  0  0  0  0  0
   40.5920   31.0950   45.2560 C   0  0  0  0  0  0  0  0  0  0  0  0
   39.6330   30.6820   46.1330 N   0  0  0  0  0  0  0  0  0  0  0  0
   39.0020   31.5550   46.9400 C   0  0  0  0  0  0  0  0  0  0  0  0
   39.2960   32.8550   46.9060 N   0  0  0  0  0  0  0  0  0  0  0  0
   40.4380   34.3860   46.0670 H   0  0  0  0  0  0  0  0  0  0  0  0
   41.6740   32.8550   44.5230 H   0  0  0  0  0  0  0  0  0  0  0  0
   41.0970   30.4030   44.6110 H   0  0  0  0  0  0  0  0  0  0  0  0
  1  2  1  0  0  0  0
  2  3  1  0  0  0  0
  3 25  1  0  0  0  0
  3  4  2  0  0  0  0
  4  8  1  0  0  0  0
  5  4  1  0  0  0  0
  5  9  1  0  0  0  0
  6  5  2  0  0  0  0
  7  2  2  0  0  0  0
  7  6  1  0  0  0  0
 10  6  1  0  0  0  0
 11 12  1  0  0  0  0
 11 20  1  0  0  0  0
 12  7  1  0  0  0  0
 13 14  1  0  0  0  0
 13 12  2  0  0  0  0
 15 13  1  0  0  0  0
 16 15  1  0  0  0  0
 17 18  1  0  0  0  0
 17 15  2  0  0  0  0
 18 11  2  0  0  0  0
 19 22  1  0  0  0  0
 20 19  2  0  0  0  0
 20 21  1  0  0  0  0
 21 24  1  0  0  0  0
 23 21  1  0  0  0  0
 25 32  1  0  0  0  0
 26 27  1  0  0  0  0
 27 28  2  0  0  0  0
 27 32  1  0  0  0  0
 28 29  1  0  0  0  0
 29 33  1  0  0  0  0
 29 30  2  0  0  0  0
 30 34  1  0  0  0  0
 31 30  1  0  0  0  0
 31 35  1  0  0  0  0
 32 31  2  0  0  0  0
 36 41  1  0  0  0  0
 37 38  1  0  0  0  0
 37 36  2  0  0  0  0
 38 39  2  0  0  0  0
 39 40  1  0  0  0  0
 40 28  1  0  0  0  0
 41 40  2  0  0  0  0
 42 36  1  0  0  0  0
 43 37  1  0  0  0  0
 44 38  1  0  0  0  0
M  END
>  <minimizedAffinity>
-5.56615877

>  <minimizedRMSD>
0.638692141

$$$$
