
     RDKit          3D

 48 52  0  0  0  0  0  0  0  0999 V2000
   37.5460   32.0455   48.5014 C   0  0  1  0  0  0  0  0  0  0  0  0
   38.7546   32.8131   48.8215 C   0  0  0  0  0  0  0  0  0  0  0  0
   38.9254   31.6446   47.9167 C   0  0  2  0  0  0  0  0  0  0  0  0
   39.2901   32.0996   46.5473 C   0  0  0  0  0  0  0  0  0  0  0  0
   39.7442   33.4205   46.5821 C   0  0  0  0  0  0  0  0  0  0  0  0
   40.2201   34.0402   45.4459 C   0  0  0  0  0  0  0  0  0  0  0  0
   40.2605   33.3598   44.2308 C   0  0  0  0  0  0  0  0  0  0  0  0
   39.8096   32.0603   44.2221 C   0  0  0  0  0  0  0  0  0  0  0  0
   39.7829   31.2752   43.0879 C   0  0  0  0  0  0  0  0  0  0  0  0
   39.3218   29.9722   43.0666 C   0  0  0  0  0  0  0  0  0  0  0  0
   38.8567   29.4076   44.2441 C   0  0  0  0  0  0  0  0  0  0  0  0
   38.8784   30.1805   45.3819 C   0  0  0  0  0  0  0  0  0  0  0  0
   39.3439   31.4686   45.3567 C   0  0  0  0  0  0  0  0  0  0  0  0
   35.2677   29.6102   50.2014 C   0  0  0  0  0  0  0  0  0  0  0  0
   35.7915   30.5063   49.2451 C   0  0  0  0  0  0  0  0  0  0  0  0
   37.0391   31.0756   49.5014 C   0  0  0  0  0  0  0  0  0  0  0  0
   37.6995   30.7471   50.6512 N   0  0  0  0  0  0  0  0  0  0  0  0
   37.1759   29.8896   51.5455 C   0  0  0  0  0  0  0  0  0  0  0  0
   35.9409   29.3143   51.3152 N   0  0  0  0  0  0  0  0  0  0  0  0
   36.8759   32.3618   47.7262 H   0  0  0  0  0  0  0  0  0  0  0  0
   39.1037   32.7107   49.8955 H   0  0  0  0  0  0  0  0  0  0  0  0
   38.6481   33.8683   48.5372 H   0  0  0  0  0  0  0  0  0  0  0  0
   39.0717   30.5866   48.0561 H   0  0  0  0  0  0  0  0  0  0  0  0
   39.8718   34.1944   47.3115 H   0  0  0  0  0  0  0  0  0  0  0  0
   40.6027   35.0393   45.2960 H   0  0  0  0  0  0  0  0  0  0  0  0
   40.6004   33.6923   43.2498 H   0  0  0  0  0  0  0  0  0  0  0  0
   40.1427   31.6927   42.1474 H   0  0  0  0  0  0  0  0  0  0  0  0
   39.3327   29.4182   42.1324 H   0  0  0  0  0  0  0  0  0  0  0  0
   38.4912   28.4093   44.2839 H   0  0  0  0  0  0  0  0  0  0  0  0
   38.5039   29.7140   46.3112 H   0  0  0  0  0  0  0  0  0  0  0  0
   34.2999   29.1815   49.9823 H   0  0  0  0  0  0  0  0  0  0  0  0
   35.2240   30.7271   48.3516 H   0  0  0  0  0  0  0  0  0  0  0  0
   38.8796   26.0864   52.1018 N   0  0  0  0  0  0  0  0  0  0  0  0
   38.7856   27.3838   51.8765 C   0  0  0  0  0  0  0  0  0  0  0  0
   39.0307   27.1384   50.5195 N   0  0  0  0  0  0  0  0  0  0  0  0
   38.5190   28.2864   52.9746 C   0  0  0  0  0  0  0  0  0  0  0  0
   37.7747   29.4118   52.7737 C   0  0  0  0  0  0  0  0  0  0  0  0
   37.6066   30.1090   53.9750 C   0  0  0  0  0  0  0  0  0  0  0  0
   37.0254   31.0466   53.9881 H   0  0  0  0  0  0  0  0  0  0  0  0
   38.1074   29.7351   55.1794 C   0  0  0  0  0  0  0  0  0  0  0  0
   37.9400   30.3209   56.0678 H   0  0  0  0  0  0  0  0  0  0  0  0
   38.8432   28.5980   55.3001 C   0  0  0  0  0  0  0  0  0  0  0  0
   39.0536   27.8549   54.1669 C   0  0  0  0  0  0  0  0  0  0  0  0
   39.0746   25.4741   51.2803 H   0  0  0  0  0  0  0  0  0  0  0  0
   39.9856   27.1491   50.0497 H   0  0  0  0  0  0  0  0  0  0  0  0
   38.3058   26.9143   49.7763 H   0  0  0  0  0  0  0  0  0  0  0  0
   39.2333   28.3147   56.2562 H   0  0  0  0  0  0  0  0  0  0  0  0
   39.6378   26.9563   54.2760 H   0  0  0  0  0  0  0  0  0  0  0  0
  1  2  1  0
  1 16  1  0
  3  1  1  0
  3  2  1  0
  4  5  2  0
  4  3  1  0
  6  5  1  0
  7  6  2  0
  8  7  1  0
  8 13  2  0
  9  8  1  0
 10  9  2  0
 10 11  1  0
 11 12  2  0
 13 12  1  0
 13  4  1  0
 14 19  2  0
 15 16  2  0
 15 14  1  0
 16 17  1  0
 17 18  2  0
 19 18  1  0
  1 20  1  6
  2 21  1  0
  2 22  1  0
  3 23  1  1
  5 24  1  0
  6 25  1  0
  7 26  1  0
  9 27  1  0
 10 28  1  0
 11 29  1  0
 12 30  1  0
 14 31  1  0
 15 32  1  0
 33 34  2  3
 34 35  1  0
 34 36  1  0
 36 37  2  0
 37 38  1  0
 38 39  1  0
 38 40  2  0
 40 41  1  0
 40 42  1  0
 42 43  2  0
 43 36  1  0
 33 44  1  0
 35 45  1  0
 35 46  1  0
 42 47  1  0
 43 48  1  0
 18 37  1  0
M  ISO  8  20  13  21  13  22  13  23  13  24  14  25  14  26  14  27  14
M  ISO  7  28  14  29  14  30  14  31  14  32  14  39  15  41  16
M  END
>  <DihAtoms>  (1) 
16,17,36,35

>  <DihDeg>  (1) 
-17.717467363315556

$$$$
