
 OpenBabel03272506073D

 35 37  0  0  0  0  0  0  0  0999 V2000
   33.6220   28.7230   48.0790 C   0  0  0  0  0  0  0  0  0  0  0  0
   33.5550   29.7730   47.0910 C   0  0  0  0  0  0  0  0  0  0  0  0
   32.1180   29.2840   46.1890 S   0  0  0  0  0  0  0  0  0  0  0  0
   31.7890   27.7610   47.2290 C   0  0  0  0  0  0  0  0  0  0  0  0
   32.6870   27.8170   48.0130 N   0  0  0  0  0  0  0  0  0  0  0  0
   34.2400   30.6040   46.9920 H   0  0  0  0  0  0  0  0  0  0  0  0
   29.4730   27.0810   47.5890 C   0  0  0  0  0  0  0  0  0  0  0  0
   30.6210   26.9390   46.8700 C   0  0  0  0  0  0  0  0  0  0  0  0
   30.6190   26.0240   45.8420 C   0  0  0  0  0  0  0  0  0  0  0  0
   31.5180   25.8920   45.2570 H   0  0  0  0  0  0  0  0  0  0  0  0
   29.4950   25.3070   45.5840 C   0  0  0  0  0  0  0  0  0  0  0  0
   29.5530   24.6040   44.7660 H   0  0  0  0  0  0  0  0  0  0  0  0
   28.3480   25.4620   46.3170 C   0  0  0  0  0  3  0  0  0  0  0  0
   28.3170   26.3690   47.3510 C   0  0  0  0  0  3  0  0  0  0  0  0
   29.0580   29.1690   49.1230 N   0  0  0  0  0  0  0  0  0  0  0  0
   29.4170   28.0240   48.6660 C   0  0  0  0  0  0  0  0  0  0  0  0
   29.9940   27.7150   49.9520 N   0  0  0  0  0  0  0  0  0  0  0  0
   29.2780   29.4270   50.1100 H   0  0  0  0  0  0  0  0  0  0  0  0
   30.8410   27.9340   50.5550 H   0  0  0  0  0  0  0  0  0  0  0  0
   29.4490   27.0470   50.5710 H   0  0  0  0  0  0  0  0  0  0  0  0
   34.7350   28.7570   49.0830 C   0  0  0  0  0  0  0  0  0  0  0  0
   34.5780   27.9760   49.8560 H   0  0  0  0  0  0  0  0  0  0  0  0
   35.6990   28.4590   48.5740 H   0  0  0  0  0  0  0  0  0  0  0  0
   34.8550   30.0810   49.7470 C   0  0  0  0  0  0  0  0  0  0  0  0
   34.0340   30.7460   49.4720 H   0  0  0  0  0  0  0  0  0  0  0  0
   34.8090   29.9840   50.8670 H   0  0  0  0  0  0  0  0  0  0  0  0
   37.7380   32.4010   49.5590 C   0  0  0  0  0  0  0  0  0  0  0  0
   38.5270   31.8530   48.5500 C   0  0  0  0  0  0  0  0  0  0  0  0
   38.0580   30.6800   47.9350 C   0  0  0  0  0  0  0  0  0  0  0  0
   36.8770   30.1590   48.3600 N   0  0  0  0  0  0  0  0  0  0  0  0
   36.1560   30.7430   49.3510 C   0  0  0  0  0  0  0  0  0  0  0  0
   36.5780   31.8590   49.9520 N   0  0  0  0  0  0  0  0  0  0  0  0
   38.0430   33.2940   50.0650 H   0  0  0  0  0  0  0  0  0  0  0  0
   39.4480   32.3420   48.2850 H   0  0  0  0  0  0  0  0  0  0  0  0
   38.6460   30.2370   47.1550 H   0  0  0  0  0  0  0  0  0  0  0  0
  1 21  1  0  0  0  0
  2  1  2  0  0  0  0
  3  2  1  0  0  0  0
  3  4  1  0  0  0  0
  4  5  2  0  0  0  0
  5  1  1  0  0  0  0
  6  2  1  0  0  0  0
  7 16  1  0  0  0  0
  8  4  1  0  0  0  0
  8  7  2  0  0  0  0
  9  8  1  0  0  0  0
 10  9  1  0  0  0  0
 11  9  2  0  0  0  0
 11 13  1  0  0  0  0
 12 11  1  0  0  0  0
 13 14  2  0  0  0  0
 14  7  1  0  0  0  0
 15 18  1  0  0  0  0
 16 15  2  0  0  0  0
 16 17  1  0  0  0  0
 17 19  1  0  0  0  0
 17 20  1  0  0  0  0
 21 24  1  0  0  0  0
 21 22  1  0  0  0  0
 23 21  1  0  0  0  0
 24 26  1  0  0  0  0
 25 24  1  0  0  0  0
 27 32  1  0  0  0  0
 27 33  1  0  0  0  0
 28 27  2  0  0  0  0
 29 30  2  0  0  0  0
 29 28  1  0  0  0  0
 30 31  1  0  0  0  0
 31 24  1  0  0  0  0
 31 32  2  0  0  0  0
 34 28  1  0  0  0  0
 35 29  1  0  0  0  0
M  END
>  <minimizedAffinity>
-5.25844574

>  <minimizedRMSD>
1.99736381

$$$$
