REMARK  Name = 
REMARK  3 active torsions:
REMARK  status: ('A' for Active; 'I' for Inactive)
REMARK    1  A    between atoms: C_1  and  N_7
REMARK    2  A    between atoms: C_8  and  C_26
REMARK    3  A    between atoms: C_23  and  C_25
REMARK                            x       y       z     vdW  Elec       q    Type
REMARK                         _______ _______ _______ _____ _____    ______ ____
ROOT
ATOM      1  N   UNL     1      36.641  29.641  49.346  0.00  0.00    +0.000 N 
ATOM      2  C   UNL     1      37.650  30.488  48.883  0.00  0.00    +0.000 C 
ATOM      3  C   UNL     1      38.323  30.989  50.154  0.00  0.00    +0.000 C 
ATOM      4  C   UNL     1      37.541  30.399  51.288  0.00  0.00    +0.000 C 
ATOM      5  C   UNL     1      37.102  29.115  50.647  0.00  0.00    +0.000 C 
ATOM      6  H   UNL     1      38.460  29.713  48.514  0.00  0.00    +0.000 HD
ATOM      7  H   UNL     1      39.367  30.640  50.268  0.00  0.00    +0.000 HD
ATOM      8  H   UNL     1      38.395  32.088  50.187  0.00  0.00    +0.000 HD
ATOM      9  H   UNL     1      38.212  30.143  52.160  0.00  0.00    +0.000 HD
ATOM     10  H   UNL     1      36.695  30.995  51.655  0.00  0.00    +0.000 HD
ATOM     11  H   UNL     1      38.009  28.496  50.481  0.00  0.00    +0.000 HD
ATOM     12  H   UNL     1      36.309  28.597  51.180  0.00  0.00    +0.000 HD
ENDROOT
BRANCH   1  13
ATOM     13  C   UNL     1      35.420  29.226  48.784  0.00  0.00    +0.000 A 
ATOM     14  C   UNL     1      34.972  29.984  47.721  0.00  0.00    +0.000 A 
ATOM     15  C   UNL     1      33.801  29.675  47.040  0.00  0.00    +0.000 A 
ATOM     16  N   UNL     1      33.133  28.569  47.501  0.00  0.00    +0.000 NA
ATOM     17  C   UNL     1      33.577  27.840  48.533  0.00  0.00    +0.000 A 
ATOM     18  N   UNL     1      34.730  28.167  49.185  0.00  0.00    +0.000 NA
ATOM     19  H   UNL     1      35.322  30.849  47.208  0.00  0.00    +0.000 HD
ATOM     20  H   UNL     1      33.309  30.136  46.214  0.00  0.00    +0.000 HD
ATOM     21  H   UNL     1      33.009  26.967  48.864  0.00  0.00    +0.000 HD
ENDBRANCH   1  13
BRANCH   2  23
ATOM     22  C   UNL     1      38.356  32.604  47.658  0.00  0.00    +0.000 A 
ATOM     23  C   UNL     1      37.588  31.445  47.839  0.00  0.00    +0.000 A 
ATOM     24  C   UNL     1      36.680  31.328  46.771  0.00  0.00    +0.000 A 
ATOM     25  H   UNL     1      36.000  30.462  46.768  0.00  0.00    +0.000 HD
ATOM     26  C   UNL     1      36.550  32.182  45.730  0.00  0.00    +0.000 A 
ATOM     27  H   UNL     1      35.822  32.014  44.953  0.00  0.00    +0.000 HD
ATOM     28  C   UNL     1      37.359  33.287  45.660  0.00  0.00    +0.000 A 
ATOM     29  C   UNL     1      38.279  33.514  46.630  0.00  0.00    +0.000 A 
BRANCH  22  31
ATOM     30  N   UNL     1      39.806  32.987  49.839  0.00  0.00    +0.000 NA
ATOM     31  C   UNL     1      39.341  32.921  48.668  0.00  0.00    +0.000 C 
ATOM     32  N   UNL     1      40.597  33.521  48.273  0.00  0.00    +0.000 N 
ATOM     33  H   UNL     1      40.766  33.397  49.951  0.00  0.00    +0.000 HD
ATOM     34  H   UNL     1      40.625  34.525  47.926  0.00  0.00    +0.000 HD
ATOM     35  H   UNL     1      41.624  33.586  48.096  0.00  0.00    +0.000 HD
ENDBRANCH  22  31
ENDBRANCH   2  23
TORSDOF 3
