
     RDKit          3D

 46 49  0  0  0  0  0  0  0  0999 V2000
   36.3942   30.9036   45.7010 Cl  0  0  0  0  0  0  0  0  0  0  0  0
   36.6839   30.7588   47.4032 C   0  0  0  0  0  0  0  0  0  0  0  0
   37.9400   31.0807   47.8695 C   0  0  0  0  0  0  0  0  0  0  0  0
   38.1747   30.9656   49.2324 C   0  0  0  0  0  0  0  0  0  0  0  0
   37.1827   30.5468   50.0625 C   0  0  0  0  0  0  0  0  0  0  0  0
   35.9302   30.2349   49.5309 C   0  0  0  0  0  0  0  0  0  0  0  0
   35.6289   30.3251   48.2010 C   0  0  0  0  0  0  0  0  0  0  0  0
   40.1985   33.3144   46.0831 C   0  0  0  0  0  0  0  0  0  0  0  0
   40.9105   32.4636   45.2131 C   0  0  0  0  0  0  0  0  0  0  0  0
   40.5927   31.0958   45.2566 C   0  0  0  0  0  0  0  0  0  0  0  0
   39.6301   30.6687   46.1216 N   0  0  0  0  0  0  0  0  0  0  0  0
   38.9837   31.5306   46.9291 C   0  0  0  0  0  0  0  0  0  0  0  0
   39.2672   32.8335   46.9066 N   0  0  0  0  0  0  0  0  0  0  0  0
   34.0502   29.9362   47.5007 S   0  0  0  0  0  0  0  0  0  0  0  0
   33.7553   29.1716   44.4677 Cl  0  0  0  0  0  0  0  0  0  0  0  0
   33.7826   27.9534   45.7291 C   0  0  0  0  0  0  0  0  0  0  0  0
   33.9088   28.1994   47.0885 C   0  0  0  0  0  0  0  0  0  0  0  0
   33.9159   27.1543   47.9701 C   0  0  0  0  0  0  0  0  0  0  0  0
   33.8008   25.8716   47.5349 C   0  0  0  0  0  0  0  0  0  0  0  0
   33.6714   25.5616   46.1847 C   0  0  0  0  0  0  0  0  0  0  0  0
   33.6657   26.6260   45.3056 C   0  0  0  0  0  0  0  0  0  0  0  0
   39.1628   31.2188   49.5994 H   0  0  0  0  0  0  0  0  0  0  0  0
   37.3923   30.4655   51.1231 H   0  0  0  0  0  0  0  0  0  0  0  0
   35.1560   29.9028   50.2166 H   0  0  0  0  0  0  0  0  0  0  0  0
   40.4048   34.3797   46.0899 H   0  0  0  0  0  0  0  0  0  0  0  0
   41.6678   32.8697   44.5465 H   0  0  0  0  0  0  0  0  0  0  0  0
   41.1101   30.4135   44.6118 H   0  0  0  0  0  0  0  0  0  0  0  0
   34.0192   27.4603   49.0038 H   0  0  0  0  0  0  0  0  0  0  0  0
   33.8112   25.0682   48.2743 H   0  0  0  0  0  0  0  0  0  0  0  0
   33.5826   24.5376   45.8757 H   0  0  0  0  0  0  0  0  0  0  0  0
   31.1431   25.9119   45.2578 N   0  0  0  0  0  0  0  0  0  0  0  0
   31.4001   25.1746   44.2310 C   0  0  0  0  0  0  0  0  0  0  0  0
   30.6928   23.9794   43.8921 N   0  0  0  0  0  0  0  0  0  0  0  0
   32.4759   25.5566   43.3369 C   0  0  0  0  0  0  0  0  0  0  0  0
   33.5273   26.2443   43.9005 C   0  0  0  0  0  0  0  0  0  0  0  0
   34.5891   26.6385   43.0964 C   0  0  0  0  0  0  0  0  0  0  0  0
   35.4910   27.1846   43.3800 H   0  0  0  0  0  0  0  0  0  0  0  0
   34.5774   26.3363   41.7442 C   0  0  0  0  0  0  0  0  0  0  0  0
   35.3729   26.6099   41.0426 H   0  0  0  0  0  0  0  0  0  0  0  0
   33.5348   25.6482   41.1570 C   0  0  0  0  0  0  0  0  0  0  0  0
   32.4949   25.2701   41.9806 C   0  0  0  0  0  0  0  0  0  0  0  0
   30.3529   25.5928   45.8766 H   0  0  0  0  0  0  0  0  0  0  0  0
   30.0758   24.3463   43.1177 H   0  0  0  0  0  0  0  0  0  0  0  0
   30.4494   22.9669   43.9796 H   0  0  0  0  0  0  0  0  0  0  0  0
   33.5232   25.4087   40.0905 H   0  0  0  0  0  0  0  0  0  0  0  0
   31.6668   24.7350   41.5667 H   0  0  0  0  0  0  0  0  0  0  0  0
  1  2  1  0
  2  3  2  0
  2  7  1  0
  3  4  1  0
  4  5  2  0
  6  5  1  0
  7  6  2  0
  8 13  2  0
  9 10  2  0
  9  8  1  0
 10 11  1  0
 11 12  2  0
 12  3  1  0
 13 12  1  0
 14  7  1  0
 15 16  1  0
 16 17  2  0
 17 14  1  0
 17 18  1  0
 19 18  2  0
 20 19  1  0
 21 16  1  0
 21 20  2  0
  4 22  1  0
  5 23  1  0
  6 24  1  0
  8 25  1  0
  9 26  1  0
 10 27  1  0
 18 28  1  0
 19 29  1  0
 20 30  1  0
 31 32  2  3
 32 33  1  0
 32 34  1  0
 34 35  2  0
 35 36  1  0
 36 37  1  0
 36 38  2  0
 38 39  1  0
 38 40  1  0
 40 41  2  0
 41 34  1  0
 31 42  1  0
 33 43  1  0
 33 44  1  0
 40 45  1  0
 41 46  1  0
 21 35  1  0
M  ISO  8  22  14  23  14  24  14  25  14  26  14  27  14  28  14  29  14
M  ISO  3  30  14  37  15  39  16
M  END
>  <DihAtoms>  (1) 
15,20,34,33

>  <DihDeg>  (1) 
89.99934657477944

$$$$
