
     RDKit          3D

 25 26  0  0  0  0  0  0  0  0999 V2000
   37.2986   30.1842   51.4165 C   0  0  0  0  0  0  0  0  0  0  0  0
   38.0687   30.6806   50.3443 C   0  0  0  0  0  0  0  0  0  0  0  0
   37.6707   30.3382   49.0530 C   0  0  0  0  0  0  0  0  0  0  0  0
   36.5753   29.5543   48.9029 N   0  0  0  0  0  0  0  0  0  0  0  0
   35.8488   29.0870   49.9319 C   0  0  0  0  0  0  0  0  0  0  0  0
   36.2319   29.4168   51.1794 N   0  0  0  0  0  0  0  0  0  0  0  0
   37.6297   30.4641   52.3888 H   0  0  0  0  0  0  0  0  0  0  0  0
   38.9476   31.3075   50.4190 H   0  0  0  0  0  0  0  0  0  0  0  0
   38.1638   30.6459   48.1474 H   0  0  0  0  0  0  0  0  0  0  0  0
   33.4697   30.9236   51.6271 N   0  0  0  0  0  0  0  0  0  0  0  0
   33.2337   29.8873   50.9203 C   0  0  0  0  0  0  0  0  0  0  0  0
   32.0626   30.6671   50.8925 N   0  0  0  0  0  0  0  0  0  0  0  0
   33.4279   28.6228   50.2569 C   0  0  0  0  0  0  0  0  0  0  0  0
   34.6668   28.2411   49.7917 C   0  0  0  0  0  0  0  0  0  0  0  0
   34.7283   27.0037   49.1790 C   0  0  0  0  0  0  0  0  0  0  0  0
   35.6923   26.6662   48.7976 H   0  0  0  0  0  0  0  0  0  0  0  0
   33.5876   26.2682   49.0814 C   0  0  0  0  0  0  0  0  0  0  0  0
   33.7182   25.3138   48.5906 H   0  0  0  0  0  0  0  0  0  0  0  0
   32.3455   26.6469   49.5457 C   0  0  0  0  0  0  0  0  0  0  0  0
   32.2711   27.8790   50.1587 C   0  0  0  0  0  0  0  0  0  0  0  0
   32.7052   31.6556   51.7402 H   0  0  0  0  0  0  0  0  0  0  0  0
   31.3483   30.3617   50.1917 H   0  0  0  0  0  0  0  0  0  0  0  0
   31.1246   30.8637   50.4948 H   0  0  0  0  0  0  0  0  0  0  0  0
   31.4985   25.9855   49.4172 H   0  0  0  0  0  0  0  0  0  0  0  0
   31.3033   28.1891   50.5277 H   0  0  0  0  0  0  0  0  0  0  0  0
  2  1  2  0
  3  2  1  0
  4  3  2  0
  4  5  1  0
  5  6  2  0
  6  1  1  0
  1  7  1  0
  2  8  1  0
  3  9  1  0
 10 11  2  3
 11 12  1  0
 11 13  1  0
 13 14  2  0
 14 15  1  0
 15 16  1  0
 15 17  2  0
 17 18  1  0
 17 19  1  0
 19 20  2  0
 20 13  1  0
 10 21  1  0
 12 22  1  0
 12 23  1  0
 19 24  1  0
 20 25  1  0
  5 14  1  0
M  ISO  5   7  14   8  14   9  14  16  15  18  16
M  END
>  <DihAtoms>  (1) 
3,4,13,12

>  <DihDeg>  (1) 
0.21988659255471538

$$$$
