
     RDKit          3D

 37 39  0  0  0  0  0  0  0  0999 V2000
   36.1068   30.4585   49.9813 C   0  0  0  0  0  0  0  0  0  0  0  0
   38.2377   33.3802   49.1692 C   0  0  0  0  0  0  0  0  0  0  0  0
   39.0087   32.9290   48.0997 C   0  0  0  0  0  0  0  0  0  0  0  0
   38.7888   31.6118   47.6610 C   0  0  0  0  0  0  0  0  0  0  0  0
   37.8480   30.8697   48.3010 N   0  0  0  0  0  0  0  0  0  0  0  0
   37.1295   31.3705   49.3389 C   0  0  0  0  0  0  0  0  0  0  0  0
   37.3182   32.6179   49.7757 N   0  0  0  0  0  0  0  0  0  0  0  0
   36.1125   29.1337   49.3066 C   0  0  0  0  0  0  0  0  0  0  0  0
   34.8109   28.8391   48.6242 C   0  0  0  0  0  0  0  0  0  0  0  0
   34.5723   29.4115   47.3210 C   0  0  0  0  0  0  0  0  0  0  0  0
   32.9596   28.7816   46.9755 S   0  0  0  0  0  0  0  0  0  0  0  0
   32.8060   27.8456   48.5905 C   0  0  0  0  0  0  0  0  0  0  0  0
   33.8508   28.0988   49.1056 N   0  0  0  0  0  0  0  0  0  0  0  0
   35.1301   30.9413   49.9165 H   0  0  0  0  0  0  0  0  0  0  0  0
   36.3287   30.3614   51.0794 H   0  0  0  0  0  0  0  0  0  0  0  0
   38.3599   34.3744   49.5478 H   0  0  0  0  0  0  0  0  0  0  0  0
   39.7291   33.5948   47.6599 H   0  0  0  0  0  0  0  0  0  0  0  0
   39.3688   31.2401   46.8399 H   0  0  0  0  0  0  0  0  0  0  0  0
   36.3405   28.3471   50.0549 H   0  0  0  0  0  0  0  0  0  0  0  0
   36.9495   29.0562   48.5523 H   0  0  0  0  0  0  0  0  0  0  0  0
   35.2497   30.0477   46.7671 H   0  0  0  0  0  0  0  0  0  0  0  0
   34.1646   25.1073   49.2308 N   0  0  0  0  0  0  0  0  0  0  0  0
   32.9029   25.0899   48.9966 C   0  0  0  0  0  0  0  0  0  0  0  0
   33.0307   23.7351   48.5189 N   0  0  0  0  0  0  0  0  0  0  0  0
   31.6297   25.7487   49.0103 C   0  0  0  0  0  0  0  0  0  0  0  0
   31.5595   27.0949   48.8183 C   0  0  0  0  0  0  0  0  0  0  0  0
   30.3134   27.6769   48.8472 C   0  0  0  0  0  0  0  0  0  0  0  0
   30.2302   28.7448   48.6975 H   0  0  0  0  0  0  0  0  0  0  0  0
   29.2164   26.9056   49.0616 C   0  0  0  0  0  0  0  0  0  0  0  0
   28.2655   27.4185   49.0736 H   0  0  0  0  0  0  0  0  0  0  0  0
   29.3048   25.5515   49.2530 C   0  0  0  0  0  0  0  0  0  0  0  0
   30.5364   24.9396   49.2298 C   0  0  0  0  0  0  0  0  0  0  0  0
   34.7435   24.2645   49.0238 H   0  0  0  0  0  0  0  0  0  0  0  0
   33.3701   23.1816   47.6780 H   0  0  0  0  0  0  0  0  0  0  0  0
   32.6939   22.9666   49.1682 H   0  0  0  0  0  0  0  0  0  0  0  0
   28.3922   25.0131   49.4162 H   0  0  0  0  0  0  0  0  0  0  0  0
   30.6316   23.8744   49.3779 H   0  0  0  0  0  0  0  0  0  0  0  0
  2  7  2  0
  3  2  1  0
  4  3  2  0
  4  5  1  0
  5  6  2  0
  6  7  1  0
  6  1  1  0
  8  1  1  0
  9 13  1  0
  9  8  1  0
 10  9  2  0
 11 10  1  0
 11 12  1  0
 12 13  2  0
  1 14  1  0
  1 15  1  0
  2 16  1  0
  3 17  1  0
  4 18  1  0
  8 19  1  0
  8 20  1  0
 10 21  1  0
 22 23  2  3
 23 24  1  0
 23 25  1  0
 25 26  2  0
 26 27  1  0
 27 28  1  0
 27 29  2  0
 29 30  1  0
 29 31  1  0
 31 32  2  0
 32 25  1  0
 22 33  1  0
 24 34  1  0
 24 35  1  0
 31 36  1  0
 32 37  1  0
 12 26  1  0
M  ISO  8  14   8  15   8  16  14  17  14  18  14  19   8  20   8  21  14
M  ISO  2  28  15  30  16
M  END
>  <DihAtoms>  (1) 
10,11,25,24

>  <DihDeg>  (1) 
-179.88679876883268

$$$$
