
 OpenBabel03262523133D

 34 36  0  0  0  0  0  0  0  0999 V2000
   34.6520   28.9290   48.3260 C   0  0  0  0  0  0  0  0  0  0  0  0
   34.5980   27.5870   48.6550 C   0  0  0  0  0  0  0  0  0  0  0  0
   33.5890   26.9010   48.0340 C   0  0  0  0  0  0  0  0  0  0  0  0
   32.7000   27.5000   47.1520 C   0  0  0  0  0  0  0  0  0  0  0  0
   32.8260   28.8460   46.8800 C   0  0  0  0  0  0  0  0  0  0  0  0
   33.8080   29.5440   47.4770 N   0  0  0  0  0  0  0  0  0  0  0  0
   35.3080   27.1760   49.3400 H   0  0  0  0  0  0  0  0  0  0  0  0
   33.5750   25.8310   48.3180 H   0  0  0  0  0  0  0  0  0  0  0  0
   32.0060   26.7770   46.7950 H   0  0  0  0  0  0  0  0  0  0  0  0
   37.1640   30.2010   50.7010 C   0  0  0  0  0  0  0  0  0  0  0  0
   37.6580   31.3250   50.0320 C   0  0  0  0  0  0  0  0  0  0  0  0
   37.1310   31.6360   48.7860 C   0  0  0  0  0  0  0  0  0  0  0  0
   36.1660   30.8270   48.2950 N   0  0  0  0  0  0  0  0  0  0  0  0
   35.6950   29.7580   48.9270 C   0  0  0  0  0  0  0  0  0  0  0  0
   36.2200   29.4660   50.1450 N   0  0  0  0  0  0  0  0  0  0  0  0
   38.4310   31.9040   50.5180 H   0  0  0  0  0  0  0  0  0  0  0  0
   37.5090   32.5090   48.2580 H   0  0  0  0  0  0  0  0  0  0  0  0
   37.6340   29.7840   51.9900 N   0  0  0  0  0  0  0  0  0  0  0  0
   37.2330   29.8890   52.9440 H   0  0  0  0  0  0  0  0  0  0  0  0
   38.5240   29.3320   51.6840 H   0  0  0  0  0  0  0  0  0  0  0  0
   30.5100   29.5050   46.2020 C   0  0  0  0  0  0  0  0  0  0  0  0
   31.8590   29.4090   45.9550 C   0  0  0  0  0  0  0  0  0  0  0  0
   32.2110   29.9040   44.7240 C   0  0  0  0  0  0  0  0  0  0  0  0
   33.2210   29.9110   44.3640 H   0  0  0  0  0  0  0  0  0  0  0  0
   31.3160   30.4410   43.8290 C   0  0  0  0  0  0  0  0  0  0  0  0
   31.6060   30.8250   42.8680 H   0  0  0  0  0  0  0  0  0  0  0  0
   29.9750   30.5120   44.1290 C   0  0  0  0  0  3  0  0  0  0  0  0
   29.5720   30.0280   45.3510 C   0  0  0  0  0  3  0  0  0  0  0  0
   29.9540   28.3050   48.4850 N   0  0  0  0  0  0  0  0  0  0  0  0
   29.9430   29.0130   47.4380 C   0  0  0  0  0  0  0  0  0  0  0  0
   28.6530   29.4680   47.8990 N   0  0  0  0  0  0  0  0  0  0  0  0
   29.1310   28.3720   49.1150 H   0  0  0  0  0  0  0  0  0  0  0  0
   27.9650   29.9680   48.4900 H   0  0  0  0  0  0  0  0  0  0  0  0
   27.7620   29.1930   47.4210 H   0  0  0  0  0  0  0  0  0  0  0  0
  1  2  1  0  0  0  0
  1 14  1  0  0  0  0
  2  7  1  0  0  0  0
  3  8  1  0  0  0  0
  3  2  2  0  0  0  0
  4  3  1  0  0  0  0
  5  4  2  0  0  0  0
  5  6  1  0  0  0  0
  6  1  2  0  0  0  0
  9  4  1  0  0  0  0
 10 18  1  0  0  0  0
 11 16  1  0  0  0  0
 11 10  2  0  0  0  0
 12 11  1  0  0  0  0
 13 12  2  0  0  0  0
 13 14  1  0  0  0  0
 14 15  2  0  0  0  0
 15 10  1  0  0  0  0
 17 12  1  0  0  0  0
 18 19  1  0  0  0  0
 20 18  1  0  0  0  0
 21 30  1  0  0  0  0
 22 21  1  0  0  0  0
 22  5  1  0  0  0  0
 23 22  2  0  0  0  0
 24 23  1  0  0  0  0
 25 27  2  0  0  0  0
 25 23  1  0  0  0  0
 26 25  1  0  0  0  0
 27 28  1  0  0  0  0
 28 21  2  0  0  0  0
 29 32  1  0  0  0  0
 30 31  1  0  0  0  0
 30 29  2  0  0  0  0
 31 33  1  0  0  0  0
 34 31  1  0  0  0  0
M  END
>  <minimizedAffinity>
-5.32670546

>  <minimizedRMSD>
0.855543911

$$$$
