
     RDKit          3D

 25 26  0  0  0  0  0  0  0  0999 V2000
   37.2962   30.1823   51.4105 C   0  0  0  0  0  0  0  0  0  0  0  0
   38.0680   30.6804   50.3508 C   0  0  0  0  0  0  0  0  0  0  0  0
   37.6723   30.3387   49.0427 C   0  0  0  0  0  0  0  0  0  0  0  0
   36.5768   29.5543   48.8801 N   0  0  0  0  0  0  0  0  0  0  0  0
   35.8608   29.0960   49.9432 C   0  0  0  0  0  0  0  0  0  0  0  0
   36.2200   29.4093   51.2008 N   0  0  0  0  0  0  0  0  0  0  0  0
   37.5653   30.4212   52.4430 H   0  0  0  0  0  0  0  0  0  0  0  0
   38.2680   30.7182   48.2302 H   0  0  0  0  0  0  0  0  0  0  0  0
   35.0202   28.4856   49.6300 H   0  0  0  0  0  0  0  0  0  0  0  0
   40.5947   31.8017   47.3112 N   0  0  0  0  0  0  0  0  0  0  0  0
   39.6293   31.8761   48.1887 C   0  0  0  0  0  0  0  0  0  0  0  0
   38.3490   31.7942   47.5724 N   0  0  0  0  0  0  0  0  0  0  0  0
   39.9294   32.0328   49.6062 C   0  0  0  0  0  0  0  0  0  0  0  0
   39.2251   31.5068   50.6688 C   0  0  0  0  0  0  0  0  0  0  0  0
   39.5927   31.7323   51.9795 C   0  0  0  0  0  0  0  0  0  0  0  0
   38.9936   31.2883   52.7761 H   0  0  0  0  0  0  0  0  0  0  0  0
   40.6985   32.5063   52.2578 C   0  0  0  0  0  0  0  0  0  0  0  0
   41.0076   32.6981   53.2836 H   0  0  0  0  0  0  0  0  0  0  0  0
   41.4106   33.0373   51.1950 C   0  0  0  0  0  0  0  0  0  0  0  0
   41.0487   32.8162   49.8733 C   0  0  0  0  0  0  0  0  0  0  0  0
   41.5913   31.8426   47.5654 H   0  0  0  0  0  0  0  0  0  0  0  0
   38.1261   32.3094   46.6862 H   0  0  0  0  0  0  0  0  0  0  0  0
   37.3580   31.5520   47.3590 H   0  0  0  0  0  0  0  0  0  0  0  0
   42.2743   33.6414   51.4117 H   0  0  0  0  0  0  0  0  0  0  0  0
   41.6453   33.2593   49.0722 H   0  0  0  0  0  0  0  0  0  0  0  0
  2  1  2  0
  3  2  1  0
  4  3  2  0
  4  5  1  0
  5  6  2  0
  6  1  1  0
  1  7  1  0
  3  8  1  0
  5  9  1  0
 10 11  2  3
 11 12  1  0
 11 13  1  0
 13 14  2  0
 14 15  1  0
 15 16  1  0
 15 17  2  0
 17 18  1  0
 17 19  1  0
 19 20  2  0
 20 13  1  0
 10 21  1  0
 12 22  1  0
 12 23  1  0
 19 24  1  0
 20 25  1  0
  2 14  1  0
M  ISO  5   7  14   8  14   9  14  16  15  18  16
M  END
>  <DihAtoms>  (1) 
0,1,13,12

>  <DihDeg>  (1) 
-132.12412199457964

$$$$
