
     RDKit          3D

 37 39  0  0  0  0  0  0  0  0999 V2000
   38.0868   33.1344   49.5130 C   0  0  0  0  0  0  0  0  0  0  0  0
   38.9312   33.0715   48.3991 C   0  0  0  0  0  0  0  0  0  0  0  0
   38.7052   32.0570   47.4362 C   0  0  0  0  0  0  0  0  0  0  0  0
   37.6804   31.2038   47.6525 N   0  0  0  0  0  0  0  0  0  0  0  0
   36.8875   31.2845   48.7258 C   0  0  0  0  0  0  0  0  0  0  0  0
   37.0969   32.2428   49.6390 N   0  0  0  0  0  0  0  0  0  0  0  0
   35.8311   30.3375   48.8921 N   0  0  0  0  0  0  0  0  0  0  0  0
   34.7686   30.1455   47.9165 C   0  0  0  0  0  0  0  0  0  0  0  0
   33.9860   28.9935   48.4097 C   0  0  0  0  0  0  0  0  0  0  0  0
   34.8775   28.3177   49.4424 C   0  0  0  0  0  0  0  0  0  0  0  0
   35.6500   29.4518   50.0128 C   0  0  1  0  0  0  0  0  0  0  0  0
   38.2139   33.8935   50.2845 H   0  0  0  0  0  0  0  0  0  0  0  0
   39.7188   33.7847   48.3039 H   0  0  0  0  0  0  0  0  0  0  0  0
   39.3542   32.0011   46.5702 H   0  0  0  0  0  0  0  0  0  0  0  0
   34.1965   31.0702   47.7364 H   0  0  0  0  0  0  0  0  0  0  0  0
   35.2731   29.8420   46.9544 H   0  0  0  0  0  0  0  0  0  0  0  0
   33.0976   29.3926   48.9463 H   0  0  0  0  0  0  0  0  0  0  0  0
   33.6472   28.2741   47.6436 H   0  0  0  0  0  0  0  0  0  0  0  0
   35.4931   27.5318   48.9690 H   0  0  0  0  0  0  0  0  0  0  0  0
   34.1963   27.8684   50.1927 H   0  0  0  0  0  0  0  0  0  0  0  0
   34.9594   29.9889   50.7082 H   0  0  0  0  0  0  0  0  0  0  0  0
   38.4894   32.3469   50.8551 N   0  0  0  0  0  0  0  0  0  0  0  0
   37.5227   31.4675   50.9737 C   0  0  0  0  0  0  0  0  0  0  0  0
   36.4048   32.3439   50.9179 N   0  0  0  0  0  0  0  0  0  0  0  0
   37.7244   30.0322   51.1145 C   0  0  0  0  0  0  0  0  0  0  0  0
   36.8818   29.0215   50.6796 C   0  0  0  0  0  0  0  0  0  0  0  0
   37.2863   27.7484   50.9256 C   0  0  0  0  0  0  0  0  0  0  0  0
   36.6641   26.9508   50.6103 H   0  0  0  0  0  0  0  0  0  0  0  0
   38.4640   27.4369   51.5696 C   0  0  0  0  0  0  0  0  0  0  0  0
   38.7416   26.4002   51.7417 H   0  0  0  0  0  0  0  0  0  0  0  0
   39.3000   28.4433   52.0009 C   0  0  0  0  0  0  0  0  0  0  0  0
   38.9079   29.7435   51.7612 C   0  0  0  0  0  0  0  0  0  0  0  0
   38.1828   33.3363   50.7634 H   0  0  0  0  0  0  0  0  0  0  0  0
   36.0088   32.8123   50.0815 H   0  0  0  0  0  0  0  0  0  0  0  0
   36.0677   32.4146   51.9002 H   0  0  0  0  0  0  0  0  0  0  0  0
   40.2190   28.1450   52.5046 H   0  0  0  0  0  0  0  0  0  0  0  0
   39.6315   30.4758   52.1376 H   0  0  0  0  0  0  0  0  0  0  0  0
  1  6  2  0
  2  1  1  0
  3  4  1  0
  3  2  2  0
  4  5  2  0
  5  7  1  0
  5  6  1  0
  7 11  1  0
  8  9  1  0
  8  7  1  0
  9 10  1  0
 10 11  1  0
  1 12  1  0
  2 13  1  0
  3 14  1  0
  8 15  1  0
  8 16  1  0
  9 17  1  0
  9 18  1  0
 10 19  1  0
 10 20  1  0
 11 21  1  1
 22 23  2  3
 23 24  1  0
 23 25  1  0
 25 26  2  0
 26 27  1  0
 27 28  1  0
 27 29  2  0
 29 30  1  0
 29 31  1  0
 31 32  2  0
 32 25  1  0
 22 33  1  0
 24 34  1  0
 24 35  1  0
 31 36  1  0
 32 37  1  0
 11 26  1  0
M  ISO  8  12  14  13  14  14  14  15  13  16  13  17  13  18  13  19  13
M  ISO  4  20  13  21  13  28  15  30  16
M  END
>  <DihAtoms>  (1) 
6,10,25,24

>  <DihDeg>  (1) 
144.63557430140784

$$$$
