
     RDKit          3D

 43 45  0  0  0  0  0  0  0  0999 V2000
   35.1225   28.6322   49.1988 C   0  0  0  0  0  0  0  0  0  0  0  0
   34.1927   28.1461   48.1704 C   0  0  0  0  0  0  0  0  0  0  0  0
   33.5520   29.1067   47.3695 C   0  0  0  0  0  0  0  0  0  0  0  0
   32.6413   28.6881   46.3908 C   0  0  0  0  0  0  0  0  0  0  0  0
   32.4170   27.3552   46.2598 N   0  0  0  0  0  0  0  0  0  0  0  0
   33.0362   26.4462   47.0317 C   0  0  0  0  0  0  0  0  0  0  0  0
   33.9120   26.8542   47.9720 N   0  0  0  0  0  0  0  0  0  0  0  0
   35.6879   29.8595   48.8836 N   0  0  0  0  0  0  0  0  0  0  0  0
   35.2811   30.9516   49.7496 C   0  0  0  0  0  0  0  0  0  0  0  0
   36.4671   31.7696   50.1740 C   0  0  0  0  0  0  0  0  0  0  0  0
   37.5622   30.8162   50.5916 C   0  0  0  0  0  0  0  0  0  0  0  0
   38.0865   30.1293   49.3737 C   0  0  0  0  0  0  0  0  0  0  0  0
   36.9695   30.0419   48.3556 C   0  0  1  0  0  0  0  0  0  0  0  0
   34.4292   28.8272   50.1034 H   0  0  0  0  0  0  0  0  0  0  0  0
   35.7388   27.8093   49.5560 H   0  0  0  0  0  0  0  0  0  0  0  0
   33.7107   30.1743   47.4511 H   0  0  0  0  0  0  0  0  0  0  0  0
   32.1309   29.4088   45.7567 H   0  0  0  0  0  0  0  0  0  0  0  0
   32.8231   25.3897   46.8882 H   0  0  0  0  0  0  0  0  0  0  0  0
   34.7113   30.5876   50.6102 H   0  0  0  0  0  0  0  0  0  0  0  0
   34.6207   31.6352   49.1655 H   0  0  0  0  0  0  0  0  0  0  0  0
   36.1471   32.2865   51.1238 H   0  0  0  0  0  0  0  0  0  0  0  0
   36.7787   32.5475   49.4701 H   0  0  0  0  0  0  0  0  0  0  0  0
   37.0560   30.0527   51.2356 H   0  0  0  0  0  0  0  0  0  0  0  0
   38.3618   31.3061   51.1887 H   0  0  0  0  0  0  0  0  0  0  0  0
   38.9338   30.7194   48.9648 H   0  0  0  0  0  0  0  0  0  0  0  0
   38.4683   29.1593   49.6827 H   0  0  0  0  0  0  0  0  0  0  0  0
   36.9327   31.1518   48.0044 H   0  0  0  0  0  0  0  0  0  0  0  0
   40.1795   30.4868   48.3061 N   0  0  0  0  0  0  0  0  0  0  0  0
   39.6697   30.1193   47.1849 C   0  0  0  0  0  0  0  0  0  0  0  0
   40.6794   30.7958   46.4094 N   0  0  0  0  0  0  0  0  0  0  0  0
   38.5896   29.3722   46.5724 C   0  0  0  0  0  0  0  0  0  0  0  0
   37.2956   29.3223   47.1269 C   0  0  0  0  0  0  0  0  0  0  0  0
   36.4756   28.5417   46.3713 C   0  0  0  0  0  0  0  0  0  0  0  0
   35.4674   28.3877   46.6503 H   0  0  0  0  0  0  0  0  0  0  0  0
   36.8136   27.8729   45.2170 C   0  0  0  0  0  0  0  0  0  0  0  0
   36.1166   27.2619   44.6525 H   0  0  0  0  0  0  0  0  0  0  0  0
   38.0973   27.9606   44.7224 C   0  0  0  0  0  0  0  0  0  0  0  0
   38.9941   28.7248   45.4173 C   0  0  0  0  0  0  0  0  0  0  0  0
   41.0344   31.0719   48.3698 H   0  0  0  0  0  0  0  0  0  0  0  0
   41.5354   30.2780   46.1046 H   0  0  0  0  0  0  0  0  0  0  0  0
   40.6126   31.8130   46.1173 H   0  0  0  0  0  0  0  0  0  0  0  0
   38.3684   27.4387   43.8180 H   0  0  0  0  0  0  0  0  0  0  0  0
   39.9838   28.7714   45.0049 H   0  0  0  0  0  0  0  0  0  0  0  0
  2  1  1  0
  3  2  2  0
  4  3  1  0
  5  4  2  0
  5  6  1  0
  6  7  2  0
  7  2  1  0
  8  1  1  0
  8  9  1  0
  9 10  1  0
 10 11  1  0
 12 11  1  0
 13  8  1  0
 13 12  1  0
  1 14  1  0
  1 15  1  0
  3 16  1  0
  4 17  1  0
  6 18  1  0
  9 19  1  0
  9 20  1  0
 10 21  1  0
 10 22  1  0
 11 23  1  0
 11 24  1  0
 12 25  1  0
 12 26  1  0
 13 27  1  6
 28 29  2  3
 29 30  1  0
 29 31  1  0
 31 32  2  0
 32 33  1  0
 33 34  1  0
 33 35  2  0
 35 36  1  0
 35 37  1  0
 37 38  2  0
 38 31  1  0
 28 39  1  0
 30 40  1  0
 30 41  1  0
 37 42  1  0
 38 43  1  0
 13 32  1  0
M  ISO  8  14   8  15   8  16  14  17  14  18  14  19  13  20  13  21  13
M  ISO  8  22  13  23  13  24  13  25  13  26  13  27  13  34  15  36  16
M  END
>  <DihAtoms>  (1) 
7,12,31,30

>  <DihDeg>  (1) 
124.38815833513209

$$$$
