
 OpenBabel03272508413D

 47 50  0  0  1  0  0  0  0  0999 V2000
   39.5170   26.8640   34.9650 Cl  0  0  0  0  0  0  0  0  0  0  0  0
   38.6350   25.6900   33.9890 C   0  0  0  0  0  0  0  0  0  0  0  0
   37.6660   26.1650   33.1480 C   0  0  0  0  0  0  0  0  0  0  0  0
   36.8770   25.3510   32.3200 C   0  0  0  0  0  0  0  0  0  0  0  0
   37.1390   23.9760   32.3940 C   0  0  0  0  0  0  0  0  0  0  0  0
   38.1260   23.4820   33.2460 C   0  0  0  0  0  0  0  0  0  0  0  0
   38.8670   24.3500   34.0380 C   0  0  0  0  0  0  0  0  0  0  0  0
   36.0890   25.4440   31.6120 H   0  0  0  0  0  0  0  0  0  0  0  0
   36.6830   23.1670   31.8740 H   0  0  0  0  0  0  0  0  0  0  0  0
   38.4050   22.4470   33.3760 H   0  0  0  0  0  0  0  0  0  0  0  0
   35.4950   29.1390   33.5880 N   0  0  0  0  0  0  0  0  0  0  0  0
   36.1110   27.8410   33.8500 C   0  0  0  0  0  0  0  0  0  0  0  0
   37.3290   27.5780   33.0860 C   0  0  2  0  0  0  0  0  0  0  0  0
   37.1830   27.9700   31.6580 N   0  0  0  0  0  0  0  0  0  0  0  0
   36.7750   29.3920   31.6420 C   0  0  0  0  0  0  0  0  0  0  0  0
   35.3650   29.3420   32.1870 C   0  0  0  0  0  0  0  0  0  0  0  0
   36.2280   27.7250   34.9250 H   0  0  0  0  0  0  0  0  0  0  0  0
   35.3030   27.1580   33.4130 H   0  0  0  0  0  0  0  0  0  0  0  0
   38.2090   28.1900   33.3510 H   0  0  0  0  0  0  0  0  0  0  0  0
   38.1010   27.9440   31.2180 H   0  0  0  0  0  0  0  0  0  0  0  0
   36.8630   29.8130   30.6420 H   0  0  0  0  0  0  0  0  0  0  0  0
   37.4260   29.9920   32.3200 H   0  0  0  0  0  0  0  0  0  0  0  0
   34.8380   28.5110   31.6670 H   0  0  0  0  0  0  0  0  0  0  0  0
   34.8890   30.3120   31.9520 H   0  0  0  0  0  0  0  0  0  0  0  0
   35.0900   30.0180   34.6220 C   0  0  0  0  0  0  0  0  0  0  0  0
   35.9940   30.8450   35.2900 C   0  0  0  0  0  0  0  0  0  0  0  0
   35.5130   31.6830   36.2900 C   0  0  0  0  0  0  0  0  0  0  0  0
   34.1550   31.6520   36.5710 N   0  0  0  0  0  0  0  0  0  0  0  0
   33.3250   30.8310   35.8930 C   0  0  0  0  0  0  0  0  0  0  0  0
   33.7670   30.0290   34.9410 N   0  0  0  0  0  0  0  0  0  0  0  0
   37.0370   30.8190   35.0200 H   0  0  0  0  0  0  0  0  0  0  0  0
   36.1860   32.3270   36.8160 H   0  0  0  0  0  0  0  0  0  0  0  0
   32.2770   30.8400   36.1470 H   0  0  0  0  0  0  0  0  0  0  0  0
   39.5130   23.3680   36.1610 C   0  0  0  0  0  0  0  0  0  0  0  0
   39.9100   23.9010   34.9480 C   0  0  0  0  0  0  0  0  0  0  0  0
   41.2770   23.9790   34.6620 C   0  0  0  0  0  0  0  0  0  0  0  0
   41.5470   24.4040   33.6990 H   0  0  0  0  0  0  0  0  0  0  0  0
   42.2200   23.5290   35.5850 C   0  0  0  0  0  0  0  0  0  0  0  0
   43.2620   23.5980   35.3460 H   0  0  0  0  0  0  0  0  0  0  0  0
   41.7770   23.0020   36.7860 C   0  0  0  0  0  3  0  0  0  0  0  0
   40.4230   22.9060   37.1090 C   0  0  0  0  0  3  0  0  0  0  0  0
   37.4340   24.2460   37.0580 N   0  0  0  0  0  0  0  0  0  0  0  0
   38.1050   23.2540   36.5280 C   0  0  0  0  0  0  0  0  0  0  0  0
   37.3460   22.0660   36.3430 N   0  0  0  0  0  0  0  0  0  0  0  0
   36.4290   24.0100   37.2670 H   0  0  0  0  0  0  0  0  0  0  0  0
   36.6000   21.5660   35.8390 H   0  0  0  0  0  0  0  0  0  0  0  0
   37.8120   21.4770   37.0930 H   0  0  0  0  0  0  0  0  0  0  0  0
  2  7  1  0  0  0  0
  2  1  1  0  0  0  0
  3  2  2  0  0  0  0
  4  5  2  0  0  0  0
  4  3  1  0  0  0  0
  5  6  1  0  0  0  0
  6 10  1  0  0  0  0
  6  7  2  0  0  0  0
  7 35  1  0  0  0  0
  8  4  1  0  0  0  0
  9  5  1  0  0  0  0
 11 12  1  0  0  0  0
 11 25  1  0  0  0  0
 12 17  1  0  0  0  0
 13  3  1  0  0  0  0
 13 19  1  1  0  0  0
 13 12  1  0  0  0  0
 14 13  1  0  0  0  0
 15 14  1  0  0  0  0
 15 16  1  0  0  0  0
 15 22  1  0  0  0  0
 16 11  1  0  0  0  0
 18 12  1  0  0  0  0
 20 14  1  0  0  0  0
 21 15  1  0  0  0  0
 23 16  1  0  0  0  0
 24 16  1  0  0  0  0
 25 30  2  0  0  0  0
 25 26  1  0  0  0  0
 26 27  2  0  0  0  0
 27 28  1  0  0  0  0
 27 32  1  0  0  0  0
 29 33  1  0  0  0  0
 29 28  2  0  0  0  0
 30 29  1  0  0  0  0
 31 26  1  0  0  0  0
 34 43  1  0  0  0  0
 34 41  1  0  0  0  0
 35 34  2  0  0  0  0
 36 35  1  0  0  0  0
 36 38  2  0  0  0  0
 37 36  1  0  0  0  0
 38 40  1  0  0  0  0
 39 38  1  0  0  0  0
 40 41  2  0  0  0  0
 42 45  1  0  0  0  0
 43 42  2  0  0  0  0
 44 43  1  0  0  0  0
 44 47  1  0  0  0  0
 46 44  1  0  0  0  0
M  END
>  <minimizedAffinity>
-6.30562687

$$$$

 OpenBabel03272508413D

 47 50  0  0  1  0  0  0  0  0999 V2000
   38.3500   26.9680   35.7860 Cl  0  0  0  0  0  0  0  0  0  0  0  0
   37.8770   25.9220   34.4470 C   0  0  0  0  0  0  0  0  0  0  0  0
   37.2740   26.5080   33.3670 C   0  0  0  0  0  0  0  0  0  0  0  0
   36.8340   25.8030   32.2350 C   0  0  0  0  0  0  0  0  0  0  0  0
   37.0520   24.4180   32.2610 C   0  0  0  0  0  0  0  0  0  0  0  0
   37.6680   23.8130   33.3550 C   0  0  0  0  0  0  0  0  0  0  0  0
   38.0750   24.5760   34.4420 C   0  0  0  0  0  0  0  0  0  0  0  0
   36.3530   25.9890   31.3070 H   0  0  0  0  0  0  0  0  0  0  0  0
   36.8130   23.6780   31.5340 H   0  0  0  0  0  0  0  0  0  0  0  0
   37.8810   22.7600   33.4720 H   0  0  0  0  0  0  0  0  0  0  0  0
   35.2090   29.5430   33.8870 N   0  0  0  0  0  0  0  0  0  0  0  0
   35.7870   28.2230   34.1210 C   0  0  0  0  0  0  0  0  0  0  0  0
   36.9820   27.9310   33.3300 C   0  0  2  0  0  0  0  0  0  0  0  0
   36.8230   28.3480   31.9100 N   0  0  0  0  0  0  0  0  0  0  0  0
   36.4610   29.7820   31.9210 C   0  0  0  0  0  0  0  0  0  0  0  0
   35.0600   29.7700   32.4920 C   0  0  0  0  0  0  0  0  0  0  0  0
   35.9200   28.0890   35.1910 H   0  0  0  0  0  0  0  0  0  0  0  0
   34.9500   27.5730   33.6890 H   0  0  0  0  0  0  0  0  0  0  0  0
   37.8860   28.5110   33.5870 H   0  0  0  0  0  0  0  0  0  0  0  0
   37.7310   28.2980   31.4530 H   0  0  0  0  0  0  0  0  0  0  0  0
   36.5450   30.2140   30.9250 H   0  0  0  0  0  0  0  0  0  0  0  0
   37.1440   30.3510   32.5950 H   0  0  0  0  0  0  0  0  0  0  0  0
   34.4970   28.9640   31.9700 H   0  0  0  0  0  0  0  0  0  0  0  0
   34.6120   30.7580   32.2780 H   0  0  0  0  0  0  0  0  0  0  0  0
   34.8520   30.4210   34.9400 C   0  0  0  0  0  0  0  0  0  0  0  0
   35.7810   31.2650   35.5510 C   0  0  0  0  0  0  0  0  0  0  0  0
   35.3460   32.1000   36.5740 C   0  0  0  0  0  0  0  0  0  0  0  0
   34.0080   32.0490   36.9340 N   0  0  0  0  0  0  0  0  0  0  0  0
   33.1520   31.2130   36.3090 C   0  0  0  0  0  0  0  0  0  0  0  0
   33.5500   30.4140   35.3350 N   0  0  0  0  0  0  0  0  0  0  0  0
   36.8070   31.2520   35.2200 H   0  0  0  0  0  0  0  0  0  0  0  0
   36.0390   32.7560   37.0580 H   0  0  0  0  0  0  0  0  0  0  0  0
   32.1210   31.2070   36.6230 H   0  0  0  0  0  0  0  0  0  0  0  0
   40.0760   23.7320   35.5260 C   0  0  0  0  0  0  0  0  0  0  0  0
   38.7230   24.0070   35.6150 C   0  0  0  0  0  0  0  0  0  0  0  0
   38.0560   23.7280   36.8120 C   0  0  0  0  0  0  0  0  0  0  0  0
   36.9940   23.9580   36.8390 H   0  0  0  0  0  0  0  0  0  0  0  0
   38.7440   23.1820   37.8950 C   0  0  0  0  0  0  0  0  0  0  0  0
   38.2130   22.9750   38.8030 H   0  0  0  0  0  0  0  0  0  0  0  0
   40.0960   22.9230   37.7610 C   0  0  0  0  0  3  0  0  0  0  0  0
   40.7980   23.1870   36.5850 C   0  0  0  0  0  3  0  0  0  0  0  0
   41.3660   25.1680   34.0530 N   0  0  0  0  0  0  0  0  0  0  0  0
   40.8370   23.9970   34.3100 C   0  0  0  0  0  0  0  0  0  0  0  0
   41.0700   23.0160   33.3070 N   0  0  0  0  0  0  0  0  0  0  0  0
   41.8860   25.2020   33.1370 H   0  0  0  0  0  0  0  0  0  0  0  0
   41.7270   22.3890   32.8240 H   0  0  0  0  0  0  0  0  0  0  0  0
   40.0790   22.9540   32.9320 H   0  0  0  0  0  0  0  0  0  0  0  0
  2  1  1  0  0  0  0
  3  2  2  0  0  0  0
  4  5  2  0  0  0  0
  4  3  1  0  0  0  0
  5  6  1  0  0  0  0
  6 10  1  0  0  0  0
  6  7  2  0  0  0  0
  7  2  1  0  0  0  0
  7 35  1  0  0  0  0
  8  4  1  0  0  0  0
  9  5  1  0  0  0  0
 11 12  1  0  0  0  0
 11 25  1  0  0  0  0
 12 17  1  0  0  0  0
 13  3  1  0  0  0  0
 13 19  1  1  0  0  0
 13 12  1  0  0  0  0
 14 15  1  0  0  0  0
 14 13  1  0  0  0  0
 15 16  1  0  0  0  0
 15 22  1  0  0  0  0
 16 11  1  0  0  0  0
 18 12  1  0  0  0  0
 20 14  1  0  0  0  0
 21 15  1  0  0  0  0
 23 16  1  0  0  0  0
 24 16  1  0  0  0  0
 25 30  2  0  0  0  0
 25 26  1  0  0  0  0
 26 27  2  0  0  0  0
 27 28  1  0  0  0  0
 27 32  1  0  0  0  0
 29 33  1  0  0  0  0
 29 28  2  0  0  0  0
 30 29  1  0  0  0  0
 31 26  1  0  0  0  0
 34 35  2  0  0  0  0
 34 41  1  0  0  0  0
 35 36  1  0  0  0  0
 36 37  1  0  0  0  0
 36 38  2  0  0  0  0
 38 39  1  0  0  0  0
 40 38  1  0  0  0  0
 41 40  2  0  0  0  0
 42 43  2  0  0  0  0
 43 34  1  0  0  0  0
 44 43  1  0  0  0  0
 45 42  1  0  0  0  0
 46 44  1  0  0  0  0
 47 44  1  0  0  0  0
M  END
>  <minimizedAffinity>
-6.16228056

$$$$

 OpenBabel03272508413D

 47 50  0  0  1  0  0  0  0  0999 V2000
   36.3500   27.9190   34.4850 Cl  0  0  0  0  0  0  0  0  0  0  0  0
   36.2990   28.8070   32.9620 C   0  0  0  0  0  0  0  0  0  0  0  0
   36.9110   28.2400   31.8770 C   0  0  0  0  0  0  0  0  0  0  0  0
   36.9620   28.8330   30.6050 C   0  0  0  0  0  0  0  0  0  0  0  0
   36.3290   30.0790   30.4910 C   0  0  0  0  0  0  0  0  0  0  0  0
   35.7000   30.6630   31.5900 C   0  0  0  0  0  0  0  0  0  0  0  0
   35.6920   30.0160   32.8190 C   0  0  0  0  0  0  0  0  0  0  0  0
   37.3560   28.6340   29.6380 H   0  0  0  0  0  0  0  0  0  0  0  0
   36.2320   30.7170   29.6460 H   0  0  0  0  0  0  0  0  0  0  0  0
   35.1860   31.6120   31.6070 H   0  0  0  0  0  0  0  0  0  0  0  0
   37.3630   24.6810   32.8140 N   0  0  0  0  0  0  0  0  0  0  0  0
   36.7100   25.9070   32.3650 C   0  0  0  0  0  0  0  0  0  0  0  0
   37.6250   26.9780   31.9720 C   0  0  2  0  0  0  0  0  0  0  0  0
   38.7440   27.1340   32.9410 N   0  0  0  0  0  0  0  0  0  0  0  0
   39.3990   25.8130   33.0570 C   0  0  0  0  0  0  0  0  0  0  0  0
   38.3600   24.9860   33.7800 C   0  0  0  0  0  0  0  0  0  0  0  0
   35.9760   25.6490   31.6050 H   0  0  0  0  0  0  0  0  0  0  0  0
   36.2330   26.2380   33.3520 H   0  0  0  0  0  0  0  0  0  0  0  0
   38.2090   26.8010   31.0510 H   0  0  0  0  0  0  0  0  0  0  0  0
   39.4430   27.7520   32.5330 H   0  0  0  0  0  0  0  0  0  0  0  0
   40.3560   25.8950   33.5710 H   0  0  0  0  0  0  0  0  0  0  0  0
   39.5950   25.3840   32.0460 H   0  0  0  0  0  0  0  0  0  0  0  0
   37.9810   25.5980   34.6290 H   0  0  0  0  0  0  0  0  0  0  0  0
   38.8670   24.0760   34.1530 H   0  0  0  0  0  0  0  0  0  0  0  0
   37.0000   23.3980   32.3340 C   0  0  0  0  0  0  0  0  0  0  0  0
   35.8670   23.1940   31.5440 C   0  0  0  0  0  0  0  0  0  0  0  0
   35.5850   21.9040   31.1100 C   0  0  0  0  0  0  0  0  0  0  0  0
   36.4480   20.8850   31.4850 N   0  0  0  0  0  0  0  0  0  0  0  0
   37.5310   21.1400   32.2510 C   0  0  0  0  0  0  0  0  0  0  0  0
   37.8120   22.3600   32.6720 N   0  0  0  0  0  0  0  0  0  0  0  0
   35.2390   24.0330   31.2900 H   0  0  0  0  0  0  0  0  0  0  0  0
   34.7230   21.7220   30.5040 H   0  0  0  0  0  0  0  0  0  0  0  0
   38.1730   20.3160   32.5190 H   0  0  0  0  0  0  0  0  0  0  0  0
   33.6750   30.4930   34.0810 C   0  0  0  0  0  0  0  0  0  0  0  0
   35.0540   30.5700   34.0040 C   0  0  0  0  0  0  0  0  0  0  0  0
   35.7560   31.1680   35.0560 C   0  0  0  0  0  0  0  0  0  0  0  0
   36.8360   31.2080   34.9560 H   0  0  0  0  0  0  0  0  0  0  0  0
   35.0750   31.6780   36.1610 C   0  0  0  0  0  0  0  0  0  0  0  0
   35.6310   32.1320   36.9560 H   0  0  0  0  0  0  0  0  0  0  0  0
   33.6950   31.5790   36.1960 C   0  0  0  0  0  3  0  0  0  0  0  0
   32.9590   30.9900   35.1680 C   0  0  0  0  0  3  0  0  0  0  0  0
   32.6590   28.5930   32.9620 N   0  0  0  0  0  0  0  0  0  0  0  0
   32.8780   29.8830   33.0230 C   0  0  0  0  0  0  0  0  0  0  0  0
   32.2720   30.6300   31.9750 N   0  0  0  0  0  0  0  0  0  0  0  0
   32.0660   28.3050   32.1410 H   0  0  0  0  0  0  0  0  0  0  0  0
   31.4180   30.9990   31.5350 H   0  0  0  0  0  0  0  0  0  0  0  0
   33.1590   30.8920   31.4530 H   0  0  0  0  0  0  0  0  0  0  0  0
  2  1  1  0  0  0  0
  3 13  1  0  0  0  0
  3  2  2  0  0  0  0
  4  3  1  0  0  0  0
  5  4  2  0  0  0  0
  5  6  1  0  0  0  0
  6 10  1  0  0  0  0
  6  7  2  0  0  0  0
  7  2  1  0  0  0  0
  7 35  1  0  0  0  0
  8  4  1  0  0  0  0
  9  5  1  0  0  0  0
 11 16  1  0  0  0  0
 12 11  1  0  0  0  0
 12 18  1  0  0  0  0
 13 19  1  6  0  0  0
 13 12  1  0  0  0  0
 13 14  1  0  0  0  0
 14 15  1  0  0  0  0
 15 21  1  0  0  0  0
 15 16  1  0  0  0  0
 16 24  1  0  0  0  0
 16 23  1  0  0  0  0
 17 12  1  0  0  0  0
 20 14  1  0  0  0  0
 22 15  1  0  0  0  0
 25 30  1  0  0  0  0
 25 11  1  0  0  0  0
 26 25  2  0  0  0  0
 27 28  2  0  0  0  0
 27 26  1  0  0  0  0
 28 29  1  0  0  0  0
 29 33  1  0  0  0  0
 29 30  2  0  0  0  0
 31 26  1  0  0  0  0
 32 27  1  0  0  0  0
 34 41  1  0  0  0  0
 35 34  2  0  0  0  0
 35 36  1  0  0  0  0
 36 38  2  0  0  0  0
 37 36  1  0  0  0  0
 38 40  1  0  0  0  0
 38 39  1  0  0  0  0
 41 40  2  0  0  0  0
 42 43  2  0  0  0  0
 43 34  1  0  0  0  0
 44 43  1  0  0  0  0
 45 42  1  0  0  0  0
 46 44  1  0  0  0  0
 47 44  1  0  0  0  0
M  END
>  <minimizedAffinity>
-6.12610102

$$$$

 OpenBabel03272508413D

 47 50  0  0  1  0  0  0  0  0999 V2000
   39.9970   25.3740   34.3000 Cl  0  0  0  0  0  0  0  0  0  0  0  0
   38.8770   24.1610   33.6810 C   0  0  0  0  0  0  0  0  0  0  0  0
   37.9970   24.5490   32.7080 C   0  0  0  0  0  0  0  0  0  0  0  0
   37.0420   23.6990   32.1280 C   0  0  0  0  0  0  0  0  0  0  0  0
   37.0330   22.3810   32.6070 C   0  0  0  0  0  0  0  0  0  0  0  0
   37.9280   21.9750   33.5960 C   0  0  0  0  0  0  0  0  0  0  0  0
   38.8450   22.8750   34.1240 C   0  0  0  0  0  0  0  0  0  0  0  0
   36.2690   23.7320   31.4000 H   0  0  0  0  0  0  0  0  0  0  0  0
   36.4150   21.5600   32.3300 H   0  0  0  0  0  0  0  0  0  0  0  0
   38.0040   20.9890   34.0300 H   0  0  0  0  0  0  0  0  0  0  0  0
   36.3970   27.8270   32.0410 N   0  0  0  0  0  0  0  0  0  0  0  0
   36.7310   26.5780   32.7200 C   0  0  0  0  0  0  0  0  0  0  0  0
   37.9400   25.9190   32.2270 C   0  0  2  0  0  0  0  0  0  0  0  0
   37.9960   25.9050   30.7400 N   0  0  0  0  0  0  0  0  0  0  0  0
   37.8670   27.3090   30.2920 C   0  0  0  0  0  0  0  0  0  0  0  0
   36.4310   27.6390   30.6320 C   0  0  0  0  0  0  0  0  0  0  0  0
   36.7290   26.7570   33.7920 H   0  0  0  0  0  0  0  0  0  0  0  0
   35.8500   25.9350   32.3740 H   0  0  0  0  0  0  0  0  0  0  0  0
   38.8920   26.4360   32.4380 H   0  0  0  0  0  0  0  0  0  0  0  0
   38.9270   25.6100   30.4530 H   0  0  0  0  0  0  0  0  0  0  0  0
   38.1210   27.4080   29.2380 H   0  0  0  0  0  0  0  0  0  0  0  0
   38.5580   27.9680   30.8690 H   0  0  0  0  0  0  0  0  0  0  0  0
   35.8040   26.7880   30.2840 H   0  0  0  0  0  0  0  0  0  0  0  0
   36.1690   28.5640   30.0850 H   0  0  0  0  0  0  0  0  0  0  0  0
   36.0760   29.0180   32.7390 C   0  0  0  0  0  0  0  0  0  0  0  0
   35.8650   29.0360   34.1180 C   0  0  0  0  0  0  0  0  0  0  0  0
   35.5590   30.2480   34.7260 C   0  0  0  0  0  0  0  0  0  0  0  0
   35.4810   31.3790   33.9260 N   0  0  0  0  0  0  0  0  0  0  0  0
   35.6960   31.3030   32.5950 C   0  0  0  0  0  0  0  0  0  0  0  0
   35.9870   30.1590   32.0030 N   0  0  0  0  0  0  0  0  0  0  0  0
   35.9410   28.1180   34.6790 H   0  0  0  0  0  0  0  0  0  0  0  0
   35.3920   30.2880   35.7820 H   0  0  0  0  0  0  0  0  0  0  0  0
   35.6240   32.2080   32.0140 H   0  0  0  0  0  0  0  0  0  0  0  0
   39.4100   22.6650   36.4750 C   0  0  0  0  0  0  0  0  0  0  0  0
   39.8050   22.5170   35.1580 C   0  0  0  0  0  0  0  0  0  0  0  0
   41.0910   22.0360   34.8910 C   0  0  0  0  0  0  0  0  0  0  0  0
   41.3620   21.9340   33.8430 H   0  0  0  0  0  0  0  0  0  0  0  0
   41.9570   21.7130   35.9350 C   0  0  0  0  0  0  0  0  0  0  0  0
   42.9380   21.3460   35.7080 H   0  0  0  0  0  0  0  0  0  0  0  0
   41.5190   21.8770   37.2370 C   0  0  0  0  0  3  0  0  0  0  0  0
   40.2450   22.3530   37.5460 C   0  0  0  0  0  3  0  0  0  0  0  0
   37.8380   24.4320   37.0270 N   0  0  0  0  0  0  0  0  0  0  0  0
   38.0840   23.1600   36.8300 C   0  0  0  0  0  0  0  0  0  0  0  0
   36.9530   22.3130   36.9910 N   0  0  0  0  0  0  0  0  0  0  0  0
   36.8340   24.6330   37.2760 H   0  0  0  0  0  0  0  0  0  0  0  0
   36.0420   21.9840   36.6440 H   0  0  0  0  0  0  0  0  0  0  0  0
   37.2550   21.8390   37.8920 H   0  0  0  0  0  0  0  0  0  0  0  0
  2  7  1  0  0  0  0
  2  1  1  0  0  0  0
  3  2  2  0  0  0  0
  4  5  2  0  0  0  0
  4  3  1  0  0  0  0
  5  6  1  0  0  0  0
  6 10  1  0  0  0  0
  6  7  2  0  0  0  0
  7 35  1  0  0  0  0
  8  4  1  0  0  0  0
  9  5  1  0  0  0  0
 11 12  1  0  0  0  0
 11 25  1  0  0  0  0
 12 17  1  0  0  0  0
 13 19  1  1  0  0  0
 13  3  1  0  0  0  0
 13 12  1  0  0  0  0
 14 13  1  0  0  0  0
 15 16  1  0  0  0  0
 15 14  1  0  0  0  0
 15 22  1  0  0  0  0
 16 11  1  0  0  0  0
 18 12  1  0  0  0  0
 20 14  1  0  0  0  0
 21 15  1  0  0  0  0
 23 16  1  0  0  0  0
 24 16  1  0  0  0  0
 25 26  1  0  0  0  0
 26 31  1  0  0  0  0
 26 27  2  0  0  0  0
 27 32  1  0  0  0  0
 28 27  1  0  0  0  0
 29 28  2  0  0  0  0
 30 29  1  0  0  0  0
 30 25  2  0  0  0  0
 33 29  1  0  0  0  0
 34 43  1  0  0  0  0
 34 41  1  0  0  0  0
 35 34  2  0  0  0  0
 36 35  1  0  0  0  0
 36 38  2  0  0  0  0
 37 36  1  0  0  0  0
 38 40  1  0  0  0  0
 39 38  1  0  0  0  0
 40 41  2  0  0  0  0
 42 45  1  0  0  0  0
 43 44  1  0  0  0  0
 43 42  2  0  0  0  0
 44 47  1  0  0  0  0
 46 44  1  0  0  0  0
M  END
>  <minimizedAffinity>
-6.10831499

$$$$

 OpenBabel03272508413D

 47 50  0  0  1  0  0  0  0  0999 V2000
   34.9700   29.0310   33.8050 Cl  0  0  0  0  0  0  0  0  0  0  0  0
   35.7010   29.4710   32.2610 C   0  0  0  0  0  0  0  0  0  0  0  0
   36.1740   28.4580   31.4730 C   0  0  0  0  0  0  0  0  0  0  0  0
   36.7890   28.6550   30.2260 C   0  0  0  0  0  0  0  0  0  0  0  0
   36.8990   29.9890   29.8080 C   0  0  0  0  0  0  0  0  0  0  0  0
   36.4170   31.0280   30.6030 C   0  0  0  0  0  0  0  0  0  0  0  0
   35.8210   30.7550   31.8270 C   0  0  0  0  0  0  0  0  0  0  0  0
   37.2340   28.0850   29.4480 H   0  0  0  0  0  0  0  0  0  0  0  0
   37.3180   30.3900   28.9160 H   0  0  0  0  0  0  0  0  0  0  0  0
   36.4510   32.0820   30.3730 H   0  0  0  0  0  0  0  0  0  0  0  0
   37.5640   25.2930   32.8140 N   0  0  0  0  0  0  0  0  0  0  0  0
   37.3460   26.7250   32.6330 C   0  0  0  0  0  0  0  0  0  0  0  0
   36.1290   27.0690   31.8980 C   0  0  2  0  0  0  0  0  0  0  0  0
   35.9440   26.2080   30.6980 N   0  0  0  0  0  0  0  0  0  0  0  0
   35.9720   24.8060   31.1670 C   0  0  0  0  0  0  0  0  0  0  0  0
   37.4160   24.6160   31.5730 C   0  0  0  0  0  0  0  0  0  0  0  0
   37.4330   27.2130   33.6000 H   0  0  0  0  0  0  0  0  0  0  0  0
   38.2210   26.9610   31.9340 H   0  0  0  0  0  0  0  0  0  0  0  0
   35.1760   26.8610   32.4160 H   0  0  0  0  0  0  0  0  0  0  0  0
   35.0050   26.3570   30.3330 H   0  0  0  0  0  0  0  0  0  0  0  0
   35.6230   24.1270   30.3900 H   0  0  0  0  0  0  0  0  0  0  0  0
   35.3040   24.6770   32.0520 H   0  0  0  0  0  0  0  0  0  0  0  0
   38.0470   25.0400   30.7600 H   0  0  0  0  0  0  0  0  0  0  0  0
   37.5870   23.5280   31.6720 H   0  0  0  0  0  0  0  0  0  0  0  0
   37.8910   24.7200   34.0680 C   0  0  0  0  0  0  0  0  0  0  0  0
   37.9380   25.4750   35.2400 C   0  0  0  0  0  0  0  0  0  0  0  0
   38.2620   24.8340   36.4310 C   0  0  0  0  0  0  0  0  0  0  0  0
   38.5230   23.4720   36.3890 N   0  0  0  0  0  0  0  0  0  0  0  0
   38.4630   22.7900   35.2250 C   0  0  0  0  0  0  0  0  0  0  0  0
   38.1560   23.3850   34.0870 N   0  0  0  0  0  0  0  0  0  0  0  0
   37.7240   26.5310   35.2000 H   0  0  0  0  0  0  0  0  0  0  0  0
   38.3050   25.3920   37.3430 H   0  0  0  0  0  0  0  0  0  0  0  0
   38.6730   21.7330   35.2420 H   0  0  0  0  0  0  0  0  0  0  0  0
   33.9580   32.1140   32.5850 C   0  0  0  0  0  0  0  0  0  0  0  0
   35.2980   31.7920   32.7050 C   0  0  0  0  0  0  0  0  0  0  0  0
   36.0710   32.4700   33.6530 C   0  0  0  0  0  0  0  0  0  0  0  0
   37.1180   32.1870   33.7150 H   0  0  0  0  0  0  0  0  0  0  0  0
   35.5000   33.4540   34.4600 C   0  0  0  0  0  0  0  0  0  0  0  0
   36.1110   33.9610   35.1790 H   0  0  0  0  0  0  0  0  0  0  0  0
   34.1560   33.7430   34.3050 C   0  0  0  0  0  3  0  0  0  0  0  0
   33.3500   33.0900   33.3720 C   0  0  0  0  0  3  0  0  0  0  0  0
   32.3170   30.4410   31.9460 N   0  0  0  0  0  0  0  0  0  0  0  0
   33.0900   31.4490   31.6200 C   0  0  0  0  0  0  0  0  0  0  0  0
   33.0070   31.8320   30.2530 N   0  0  0  0  0  0  0  0  0  0  0  0
   31.7500   30.0690   31.1400 H   0  0  0  0  0  0  0  0  0  0  0  0
   32.4660   32.2600   29.4890 H   0  0  0  0  0  0  0  0  0  0  0  0
   33.9670   31.4940   29.9490 H   0  0  0  0  0  0  0  0  0  0  0  0
  2  1  1  0  0  0  0
  3 13  1  0  0  0  0
  3  2  2  0  0  0  0
  4  3  1  0  0  0  0
  5  4  2  0  0  0  0
  5  6  1  0  0  0  0
  6  7  2  0  0  0  0
  7  2  1  0  0  0  0
  7 35  1  0  0  0  0
  8  4  1  0  0  0  0
  9  5  1  0  0  0  0
 10  6  1  0  0  0  0
 11 25  1  0  0  0  0
 12 11  1  0  0  0  0
 12 17  1  0  0  0  0
 13 19  1  1  0  0  0
 13 12  1  0  0  0  0
 14 15  1  0  0  0  0
 14 13  1  0  0  0  0
 15 16  1  0  0  0  0
 15 22  1  0  0  0  0
 16 24  1  0  0  0  0
 16 11  1  0  0  0  0
 18 12  1  0  0  0  0
 20 14  1  0  0  0  0
 21 15  1  0  0  0  0
 23 16  1  0  0  0  0
 25 30  2  0  0  0  0
 25 26  1  0  0  0  0
 26 27  2  0  0  0  0
 27 32  1  0  0  0  0
 28 27  1  0  0  0  0
 29 33  1  0  0  0  0
 29 28  2  0  0  0  0
 30 29  1  0  0  0  0
 31 26  1  0  0  0  0
 34 35  2  0  0  0  0
 34 41  1  0  0  0  0
 35 36  1  0  0  0  0
 36 37  1  0  0  0  0
 36 38  2  0  0  0  0
 38 39  1  0  0  0  0
 40 38  1  0  0  0  0
 41 40  2  0  0  0  0
 43 42  2  0  0  0  0
 43 34  1  0  0  0  0
 44 43  1  0  0  0  0
 45 42  1  0  0  0  0
 46 44  1  0  0  0  0
 47 44  1  0  0  0  0
M  END
>  <minimizedAffinity>
-5.94398832

$$$$

 OpenBabel03272508413D

 47 49  0  0  1  0  0  0  0  0999 V2000
   38.0190   27.2570   33.3600 Cl  0  0  0  0  0 15  0  0  0  0  0  0
   36.8200   26.4460   32.3520 C   0  0  0  0  0  3  0  0  0  0  0  0
   36.8940   25.0830   32.2520 C   0  0  0  0  0  0  0  0  0  0  0  0
   36.0180   24.3040   31.4800 C   0  0  0  0  0  0  0  0  0  0  0  0
   35.0220   25.0130   30.7920 C   0  0  0  0  0  0  0  0  0  0  0  0
   34.9370   26.4010   30.8910 C   0  0  0  0  0  0  0  0  0  0  0  0
   35.8420   27.1050   31.6740 C   0  0  0  0  0  0  0  0  0  0  0  0
   35.8560   23.2850   31.2250 H   0  0  0  0  0  0  0  0  0  0  0  0
   34.2510   24.6550   30.1520 H   0  0  0  0  0  0  0  0  0  0  0  0
   34.2110   27.0370   30.4050 H   0  0  0  0  0  0  0  0  0  0  0  0
   39.3840   24.3520   34.9000 N   0  0  0  0  0  0  0  0  0  0  0  0
   38.1470   24.8040   34.2700 C   0  0  0  0  0  0  0  0  0  0  0  0
   37.9460   24.3210   32.9040 C   0  0  2  0  0  0  0  0  0  0  0  0
   39.1870   24.4280   32.0910 N   0  0  0  0  0  0  0  0  0  0  0  0
   40.2450   23.6980   32.8220 C   0  0  0  0  0  0  0  0  0  0  0  0
   40.4850   24.5770   34.0300 C   0  0  0  0  0  0  0  0  0  0  0  0
   37.3200   24.5920   34.9420 H   0  0  0  0  0  0  0  0  0  0  0  0
   38.3770   25.9220   34.1850 H   0  0  0  0  0  0  0  0  0  0  0  0
   37.7530   23.2400   32.7970 H   0  0  0  0  0  0  0  0  0  0  0  0
   39.0510   23.9150   31.2220 H   0  0  0  0  0  0  0  0  0  0  0  0
   41.1190   23.5400   32.1920 H   0  0  0  0  0  0  0  0  0  0  0  0
   39.8760   22.6960   33.1450 H   0  0  0  0  0  0  0  0  0  0  0  0
   40.5550   25.6270   33.6660 H   0  0  0  0  0  0  0  0  0  0  0  0
   41.4420   24.2570   34.4820 H   0  0  0  0  0  0  0  0  0  0  0  0
   39.4220   23.7940   36.2020 C   0  0  0  0  0  0  0  0  0  0  0  0
   38.4470   24.0770   37.1600 C   0  0  0  0  0  0  0  0  0  0  0  0
   38.5560   23.4840   38.4130 C   0  0  0  0  0  0  0  0  0  0  0  0
   39.6320   22.6390   38.6440 N   0  0  0  0  0  0  0  0  0  0  0  0
   40.5470   22.4010   37.6800 C   0  0  0  0  0  0  0  0  0  0  0  0
   40.4570   22.9580   36.4850 N   0  0  0  0  0  0  0  0  0  0  0  0
   37.6370   24.7430   36.9120 H   0  0  0  0  0  0  0  0  0  0  0  0
   37.8210   23.6840   39.1630 H   0  0  0  0  0  0  0  0  0  0  0  0
   41.3670   21.7390   37.9060 H   0  0  0  0  0  0  0  0  0  0  0  0
   36.6260   29.2970   30.9860 C   0  0  0  0  0  0  0  0  0  0  0  0
   35.8090   28.5530   31.8190 C   0  0  0  0  0  0  0  0  0  0  0  0
   35.0040   29.2230   32.7460 C   0  0  0  0  0  0  0  0  0  0  0  0
   34.3770   28.6020   33.3800 H   0  0  0  0  0  0  0  0  0  0  0  0
   35.0260   30.6140   32.8270 C   0  0  0  0  0  0  0  0  0  0  0  0
   34.4000   31.1080   33.5440 H   0  0  0  0  0  0  0  0  0  0  0  0
   35.8580   31.3180   31.9740 C   0  0  0  0  0  3  0  0  0  0  0  0
   36.6770   30.6880   31.0370 C   0  0  0  0  0  3  0  0  0  0  0  0
   38.7660   28.4450   30.2150 N   0  0  0  0  0  0  0  0  0  0  0  0
   37.4930   28.6670   29.9960 C   0  0  0  0  0  0  0  0  0  0  0  0
   37.0360   28.2440   28.7170 N   0  0  0  0  0  0  0  0  0  0  0  0
   39.2570   27.9840   29.4050 H   0  0  0  0  0  0  0  0  0  0  0  0
   36.8050   27.4740   28.0750 H   0  0  0  0  0  0  0  0  0  0  0  0
   36.8840   29.2050   28.2920 H   0  0  0  0  0  0  0  0  0  0  0  0
  3  2  1  0  0  0  0
  3 13  1  0  0  0  0
  4  3  2  0  0  0  0
  5  6  2  0  0  0  0
  5  4  1  0  0  0  0
  6  7  1  0  0  0  0
  7 35  1  0  0  0  0
  7  2  2  0  0  0  0
  8  4  1  0  0  0  0
  9  5  1  0  0  0  0
 10  6  1  0  0  0  0
 11 25  1  0  0  0  0
 12 11  1  0  0  0  0
 12 17  1  0  0  0  0
 13 19  1  1  0  0  0
 13 12  1  0  0  0  0
 14 15  1  0  0  0  0
 14 13  1  0  0  0  0
 15 22  1  0  0  0  0
 15 16  1  0  0  0  0
 16 24  1  0  0  0  0
 16 11  1  0  0  0  0
 18 12  1  0  0  0  0
 20 14  1  0  0  0  0
 21 15  1  0  0  0  0
 23 16  1  0  0  0  0
 25 30  2  0  0  0  0
 25 26  1  0  0  0  0
 26 27  2  0  0  0  0
 27 28  1  0  0  0  0
 27 32  1  0  0  0  0
 29 33  1  0  0  0  0
 29 28  2  0  0  0  0
 30 29  1  0  0  0  0
 31 26  1  0  0  0  0
 34 41  2  0  0  0  0
 34 35  1  0  0  0  0
 35 36  2  0  0  0  0
 36 38  1  0  0  0  0
 36 37  1  0  0  0  0
 38 39  1  0  0  0  0
 40 38  2  0  0  0  0
 41 40  1  0  0  0  0
 43 42  2  0  0  0  0
 43 34  1  0  0  0  0
 44 43  1  0  0  0  0
 45 42  1  0  0  0  0
 46 44  1  0  0  0  0
 47 44  1  0  0  0  0
M  END
>  <minimizedAffinity>
-5.89835691

$$$$

 OpenBabel03272508413D

 47 50  0  0  1  0  0  0  0  0999 V2000
   38.6600   26.5790   35.2750 Cl  0  0  0  0  0  0  0  0  0  0  0  0
   38.2230   25.2470   34.2050 C   0  0  0  0  0  0  0  0  0  0  0  0
   37.9450   25.5480   32.8990 C   0  0  0  0  0  0  0  0  0  0  0  0
   37.5730   24.5980   31.9360 C   0  0  0  0  0  0  0  0  0  0  0  0
   37.5000   23.2720   32.3890 C   0  0  0  0  0  0  0  0  0  0  0  0
   37.7840   22.9550   33.7160 C   0  0  0  0  0  0  0  0  0  0  0  0
   38.1450   23.9520   34.6140 C   0  0  0  0  0  0  0  0  0  0  0  0
   37.3050   24.5530   30.9090 H   0  0  0  0  0  0  0  0  0  0  0  0
   37.2450   22.3850   31.8590 H   0  0  0  0  0  0  0  0  0  0  0  0
   37.7590   21.9720   34.1620 H   0  0  0  0  0  0  0  0  0  0  0  0
   36.4390   28.7790   31.8780 N   0  0  0  0  0  0  0  0  0  0  0  0
   36.6520   27.5410   32.6220 C   0  0  0  0  0  0  0  0  0  0  0  0
   37.9560   26.9160   32.4080 C   0  0  2  0  0  0  0  0  0  0  0  0
   38.3350   26.9030   30.9690 N   0  0  0  0  0  0  0  0  0  0  0  0
   38.2680   28.3020   30.4940 C   0  0  0  0  0  0  0  0  0  0  0  0
   36.7840   28.5920   30.5120 C   0  0  0  0  0  0  0  0  0  0  0  0
   36.4120   27.7210   33.6670 H   0  0  0  0  0  0  0  0  0  0  0  0
   35.8850   26.8730   32.0970 H   0  0  0  0  0  0  0  0  0  0  0  0
   38.8260   27.4600   32.8170 H   0  0  0  0  0  0  0  0  0  0  0  0
   39.3140   26.6340   30.8930 H   0  0  0  0  0  0  0  0  0  0  0  0
   38.7420   28.4070   29.5200 H   0  0  0  0  0  0  0  0  0  0  0  0
   38.7990   28.9810   31.2030 H   0  0  0  0  0  0  0  0  0  0  0  0
   36.2710   27.7230   30.0420 H   0  0  0  0  0  0  0  0  0  0  0  0
   36.6220   29.5090   29.9150 H   0  0  0  0  0  0  0  0  0  0  0  0
   35.9420   29.9610   32.4820 C   0  0  0  0  0  0  0  0  0  0  0  0
   36.0890   31.2160   31.8880 C   0  0  0  0  0  0  0  0  0  0  0  0
   35.5680   32.3250   32.5450 C   0  0  0  0  0  0  0  0  0  0  0  0
   34.9270   32.1240   33.7590 N   0  0  0  0  0  0  0  0  0  0  0  0
   34.8140   30.8870   34.2870 C   0  0  0  0  0  0  0  0  0  0  0  0
   35.3050   29.8230   33.6760 N   0  0  0  0  0  0  0  0  0  0  0  0
   36.5990   31.2990   30.9420 H   0  0  0  0  0  0  0  0  0  0  0  0
   35.6670   33.2980   32.1110 H   0  0  0  0  0  0  0  0  0  0  0  0
   34.3090   30.7790   35.2340 H   0  0  0  0  0  0  0  0  0  0  0  0
   39.7350   23.2620   36.3130 C   0  0  0  0  0  0  0  0  0  0  0  0
   38.4540   23.6890   36.0120 C   0  0  0  0  0  0  0  0  0  0  0  0
   37.5330   23.8440   37.0530 C   0  0  0  0  0  0  0  0  0  0  0  0
   36.5390   24.1810   36.7740 H   0  0  0  0  0  0  0  0  0  0  0  0
   37.9020   23.5720   38.3700 C   0  0  0  0  0  0  0  0  0  0  0  0
   37.1820   23.6980   39.1530 H   0  0  0  0  0  0  0  0  0  0  0  0
   39.1950   23.1480   38.6250 C   0  0  0  0  0  3  0  0  0  0  0  0
   40.1420   22.9810   37.6150 C   0  0  0  0  0  3  0  0  0  0  0  0
   40.9770   21.9170   34.7180 N   0  0  0  0  0  0  0  0  0  0  0  0
   40.7470   23.0780   35.2790 C   0  0  0  0  0  0  0  0  0  0  0  0
   41.5670   24.1350   34.7940 N   0  0  0  0  0  0  0  0  0  0  0  0
   41.7370   21.9440   33.9890 H   0  0  0  0  0  0  0  0  0  0  0  0
   41.8140   24.7790   34.0300 H   0  0  0  0  0  0  0  0  0  0  0  0
   42.1650   24.2640   35.6620 H   0  0  0  0  0  0  0  0  0  0  0  0
  2  7  1  0  0  0  0
  2  1  1  0  0  0  0
  3  2  2  0  0  0  0
  4  5  2  0  0  0  0
  4  3  1  0  0  0  0
  5  6  1  0  0  0  0
  6 10  1  0  0  0  0
  6  7  2  0  0  0  0
  7 35  1  0  0  0  0
  8  4  1  0  0  0  0
  9  5  1  0  0  0  0
 11 25  1  0  0  0  0
 11 12  1  0  0  0  0
 12 17  1  0  0  0  0
 13 12  1  0  0  0  0
 13 19  1  1  0  0  0
 13  3  1  0  0  0  0
 14 13  1  0  0  0  0
 15 16  1  0  0  0  0
 15 14  1  0  0  0  0
 15 22  1  0  0  0  0
 16 11  1  0  0  0  0
 18 12  1  0  0  0  0
 20 14  1  0  0  0  0
 21 15  1  0  0  0  0
 23 16  1  0  0  0  0
 24 16  1  0  0  0  0
 25 30  1  0  0  0  0
 26 25  2  0  0  0  0
 26 27  1  0  0  0  0
 27 28  2  0  0  0  0
 28 29  1  0  0  0  0
 29 33  1  0  0  0  0
 30 29  2  0  0  0  0
 31 26  1  0  0  0  0
 32 27  1  0  0  0  0
 34 41  1  0  0  0  0
 35 34  2  0  0  0  0
 35 36  1  0  0  0  0
 36 38  2  0  0  0  0
 37 36  1  0  0  0  0
 38 40  1  0  0  0  0
 38 39  1  0  0  0  0
 41 40  2  0  0  0  0
 42 43  2  0  0  0  0
 43 34  1  0  0  0  0
 44 43  1  0  0  0  0
 44 47  1  0  0  0  0
 45 42  1  0  0  0  0
 46 44  1  0  0  0  0
M  END
>  <minimizedAffinity>
-5.82849455

$$$$

 OpenBabel03272508413D

 47 50  0  0  1  0  0  0  0  0999 V2000
   36.4520   27.8980   34.2320 Cl  0  0  0  0  0  0  0  0  0  0  0  0
   36.9050   28.3470   32.5880 C   0  0  0  0  0  0  0  0  0  0  0  0
   36.1590   29.3120   31.9670 C   0  0  0  0  0  0  0  0  0  0  0  0
   36.3920   29.7640   30.6590 C   0  0  0  0  0  0  0  0  0  0  0  0
   37.4690   29.1620   29.9920 C   0  0  0  0  0  0  0  0  0  0  0  0
   38.2370   28.1810   30.6180 C   0  0  0  0  0  0  0  0  0  0  0  0
   37.9440   27.7830   31.9160 C   0  0  0  0  0  0  0  0  0  0  0  0
   35.9880   30.4550   29.9600 H   0  0  0  0  0  0  0  0  0  0  0  0
   37.8420   29.3300   29.0100 H   0  0  0  0  0  0  0  0  0  0  0  0
   39.0830   27.6590   30.1950 H   0  0  0  0  0  0  0  0  0  0  0  0
   34.2420   30.7850   34.7790 N   0  0  0  0  0  0  0  0  0  0  0  0
   35.3720   30.4590   33.9130 C   0  0  0  0  0  0  0  0  0  0  0  0
   35.0020   29.9170   32.6060 C   0  0  2  0  0  0  0  0  0  0  0  0
   33.9270   28.8940   32.7140 N   0  0  0  0  0  0  0  0  0  0  0  0
   32.7990   29.5290   33.4270 C   0  0  0  0  0  0  0  0  0  0  0  0
   33.3370   29.6900   34.8310 C   0  0  0  0  0  0  0  0  0  0  0  0
   36.0300   31.3220   33.8650 H   0  0  0  0  0  0  0  0  0  0  0  0
   35.8190   29.5890   34.5070 H   0  0  0  0  0  0  0  0  0  0  0  0
   34.5100   30.6210   31.9110 H   0  0  0  0  0  0  0  0  0  0  0  0
   33.5800   28.6880   31.7790 H   0  0  0  0  0  0  0  0  0  0  0  0
   31.8970   28.9240   33.3500 H   0  0  0  0  0  0  0  0  0  0  0  0
   32.5720   30.5290   32.9870 H   0  0  0  0  0  0  0  0  0  0  0  0
   33.8210   28.7280   35.1120 H   0  0  0  0  0  0  0  0  0  0  0  0
   32.4740   29.8980   35.4910 H   0  0  0  0  0  0  0  0  0  0  0  0
   34.1280   32.0230   35.4580 C   0  0  0  0  0  0  0  0  0  0  0  0
   34.4870   32.1710   36.7980 C   0  0  0  0  0  0  0  0  0  0  0  0
   34.3490   33.4230   37.3870 C   0  0  0  0  0  0  0  0  0  0  0  0
   33.8600   34.4610   36.6080 N   0  0  0  0  0  0  0  0  0  0  0  0
   33.5280   34.2610   35.3150 C   0  0  0  0  0  0  0  0  0  0  0  0
   33.6530   33.0780   34.7410 N   0  0  0  0  0  0  0  0  0  0  0  0
   34.8610   31.3210   37.3440 H   0  0  0  0  0  0  0  0  0  0  0  0
   34.6180   33.5620   38.4130 H   0  0  0  0  0  0  0  0  0  0  0  0
   33.1510   35.0980   34.7490 H   0  0  0  0  0  0  0  0  0  0  0  0
   38.3830   25.4420   32.3820 C   0  0  0  0  0  0  0  0  0  0  0  0
   38.7050   26.7650   32.6260 C   0  0  0  0  0  0  0  0  0  0  0  0
   39.7320   27.0530   33.5310 C   0  0  0  0  0  0  0  0  0  0  0  0
   39.9530   28.1040   33.6940 H   0  0  0  0  0  0  0  0  0  0  0  0
   40.4170   26.0230   34.1740 C   0  0  0  0  0  0  0  0  0  0  0  0
   41.2010   26.2650   34.8640 H   0  0  0  0  0  0  0  0  0  0  0  0
   40.0620   24.7140   33.9000 C   0  0  0  0  0  3  0  0  0  0  0  0
   39.0440   24.3850   33.0040 C   0  0  0  0  0  3  0  0  0  0  0  0
   37.5710   24.6890   30.2210 N   0  0  0  0  0  0  0  0  0  0  0  0
   37.3250   25.0660   31.4520 C   0  0  0  0  0  0  0  0  0  0  0  0
   35.9450   25.0760   31.7960 N   0  0  0  0  0  0  0  0  0  0  0  0
   36.7040   24.4490   29.6730 H   0  0  0  0  0  0  0  0  0  0  0  0
   35.0830   24.5500   31.9980 H   0  0  0  0  0  0  0  0  0  0  0  0
   35.8170   26.1280   31.8540 H   0  0  0  0  0  0  0  0  0  0  0  0
  2  1  1  0  0  0  0
  3  2  1  0  0  0  0
  3 13  1  0  0  0  0
  4  3  2  0  0  0  0
  5  6  2  0  0  0  0
  5  4  1  0  0  0  0
  6  7  1  0  0  0  0
  7  2  2  0  0  0  0
  7 35  1  0  0  0  0
  8  4  1  0  0  0  0
  9  5  1  0  0  0  0
 10  6  1  0  0  0  0
 11 16  1  0  0  0  0
 11 25  1  0  0  0  0
 12 18  1  0  0  0  0
 12 11  1  0  0  0  0
 13 19  1  6  0  0  0
 13 14  1  0  0  0  0
 13 12  1  0  0  0  0
 14 15  1  0  0  0  0
 15 16  1  0  0  0  0
 16 23  1  0  0  0  0
 16 24  1  0  0  0  0
 17 12  1  0  0  0  0
 20 14  1  0  0  0  0
 21 15  1  0  0  0  0
 22 15  1  0  0  0  0
 25 26  1  0  0  0  0
 26 31  1  0  0  0  0
 26 27  2  0  0  0  0
 27 32  1  0  0  0  0
 28 27  1  0  0  0  0
 29 28  2  0  0  0  0
 30 29  1  0  0  0  0
 30 25  2  0  0  0  0
 33 29  1  0  0  0  0
 34 35  2  0  0  0  0
 34 41  1  0  0  0  0
 35 36  1  0  0  0  0
 36 37  1  0  0  0  0
 36 38  2  0  0  0  0
 38 39  1  0  0  0  0
 40 38  1  0  0  0  0
 41 40  2  0  0  0  0
 42 43  2  0  0  0  0
 43 44  1  0  0  0  0
 43 34  1  0  0  0  0
 44 47  1  0  0  0  0
 44 46  1  0  0  0  0
 45 42  1  0  0  0  0
M  END
>  <minimizedAffinity>
-5.79571581

$$$$

 OpenBabel03272508413D

 47 50  0  0  1  0  0  0  0  0999 V2000
   38.1590   27.4810   35.3130 Cl  0  0  0  0  0  0  0  0  0  0  0  0
   37.5190   26.6080   33.9200 C   0  0  0  0  0  0  0  0  0  0  0  0
   36.7630   27.3130   33.0230 C   0  0  0  0  0  0  0  0  0  0  0  0
   36.1800   26.7520   31.8760 C   0  0  0  0  0  0  0  0  0  0  0  0
   36.4210   25.3840   31.6800 C   0  0  0  0  0  0  0  0  0  0  0  0
   37.1930   24.6590   32.5870 C   0  0  0  0  0  0  0  0  0  0  0  0
   37.7360   25.2830   33.7020 C   0  0  0  0  0  0  0  0  0  0  0  0
   35.5710   27.0440   31.0560 H   0  0  0  0  0  0  0  0  0  0  0  0
   36.0940   24.7410   30.8980 H   0  0  0  0  0  0  0  0  0  0  0  0
   37.4370   23.6080   32.5270 H   0  0  0  0  0  0  0  0  0  0  0  0
   34.6430   30.1850   34.0270 N   0  0  0  0  0  0  0  0  0  0  0  0
   35.2420   28.8530   34.0410 C   0  0  0  0  0  0  0  0  0  0  0  0
   36.4470   28.7170   33.2220 C   0  0  2  0  0  0  0  0  0  0  0  0
   36.2880   29.3630   31.8910 N   0  0  0  0  0  0  0  0  0  0  0  0
   35.9020   30.7690   32.1390 C   0  0  0  0  0  0  0  0  0  0  0  0
   34.4980   30.6400   32.6880 C   0  0  0  0  0  0  0  0  0  0  0  0
   35.3710   28.5440   35.0740 H   0  0  0  0  0  0  0  0  0  0  0  0
   34.4190   28.2710   33.5000 H   0  0  0  0  0  0  0  0  0  0  0  0
   37.3390   29.2600   33.5800 H   0  0  0  0  0  0  0  0  0  0  0  0
   37.2000   29.4050   31.4400 H   0  0  0  0  0  0  0  0  0  0  0  0
   35.9840   31.3630   31.2310 H   0  0  0  0  0  0  0  0  0  0  0  0
   36.5710   31.2290   32.9050 H   0  0  0  0  0  0  0  0  0  0  0  0
   33.9520   29.9230   32.0340 H   0  0  0  0  0  0  0  0  0  0  0  0
   34.0340   31.6420   32.6390 H   0  0  0  0  0  0  0  0  0  0  0  0
   34.2650   30.8680   35.2090 C   0  0  0  0  0  0  0  0  0  0  0  0
   35.1730   31.6210   35.9540 C   0  0  0  0  0  0  0  0  0  0  0  0
   34.7190   32.2650   37.1000 C   0  0  0  0  0  0  0  0  0  0  0  0
   33.3820   32.1230   37.4420 N   0  0  0  0  0  0  0  0  0  0  0  0
   32.5460   31.3810   36.6830 C   0  0  0  0  0  0  0  0  0  0  0  0
   32.9630   30.7640   35.5920 N   0  0  0  0  0  0  0  0  0  0  0  0
   36.1990   31.6880   35.6300 H   0  0  0  0  0  0  0  0  0  0  0  0
   35.3950   32.8480   37.6880 H   0  0  0  0  0  0  0  0  0  0  0  0
   31.5160   31.2990   36.9890 H   0  0  0  0  0  0  0  0  0  0  0  0
   39.9140   24.5260   34.4610 C   0  0  0  0  0  0  0  0  0  0  0  0
   38.5500   24.5840   34.6860 C   0  0  0  0  0  0  0  0  0  0  0  0
   38.0300   23.9760   35.8340 C   0  0  0  0  0  0  0  0  0  0  0  0
   36.9550   24.0450   35.9730 H   0  0  0  0  0  0  0  0  0  0  0  0
   38.8730   23.3240   36.7330 C   0  0  0  0  0  0  0  0  0  0  0  0
   38.4540   22.8650   37.6060 H   0  0  0  0  0  0  0  0  0  0  0  0
   40.2310   23.2910   36.4670 C   0  0  0  0  0  3  0  0  0  0  0  0
   40.7890   23.8840   35.3350 C   0  0  0  0  0  3  0  0  0  0  0  0
   40.7230   24.4770   32.1720 N   0  0  0  0  0  0  0  0  0  0  0  0
   40.5260   25.1370   33.2870 C   0  0  0  0  0  0  0  0  0  0  0  0
   40.9600   26.4910   33.2500 N   0  0  0  0  0  0  0  0  0  0  0  0
   41.1740   25.0540   31.4150 H   0  0  0  0  0  0  0  0  0  0  0  0
   40.8300   27.4480   32.8960 H   0  0  0  0  0  0  0  0  0  0  0  0
   41.7920   26.3950   33.9020 H   0  0  0  0  0  0  0  0  0  0  0  0
  2  1  1  0  0  0  0
  3 13  1  0  0  0  0
  3  2  2  0  0  0  0
  4  3  1  0  0  0  0
  5  4  2  0  0  0  0
  5  6  1  0  0  0  0
  6  7  2  0  0  0  0
  7  2  1  0  0  0  0
  7 35  1  0  0  0  0
  8  4  1  0  0  0  0
  9  5  1  0  0  0  0
 10  6  1  0  0  0  0
 11 12  1  0  0  0  0
 11 25  1  0  0  0  0
 12 17  1  0  0  0  0
 13 19  1  1  0  0  0
 13 12  1  0  0  0  0
 14 15  1  0  0  0  0
 14 13  1  0  0  0  0
 15 16  1  0  0  0  0
 15 22  1  0  0  0  0
 16 11  1  0  0  0  0
 18 12  1  0  0  0  0
 20 14  1  0  0  0  0
 21 15  1  0  0  0  0
 23 16  1  0  0  0  0
 24 16  1  0  0  0  0
 25 30  2  0  0  0  0
 25 26  1  0  0  0  0
 26 27  2  0  0  0  0
 27 28  1  0  0  0  0
 27 32  1  0  0  0  0
 29 33  1  0  0  0  0
 29 28  2  0  0  0  0
 30 29  1  0  0  0  0
 31 26  1  0  0  0  0
 34 35  2  0  0  0  0
 34 41  1  0  0  0  0
 35 36  1  0  0  0  0
 36 37  1  0  0  0  0
 36 38  2  0  0  0  0
 38 39  1  0  0  0  0
 40 38  1  0  0  0  0
 41 40  2  0  0  0  0
 42 43  2  0  0  0  0
 43 34  1  0  0  0  0
 44 43  1  0  0  0  0
 44 47  1  0  0  0  0
 45 42  1  0  0  0  0
 46 44  1  0  0  0  0
M  END
>  <minimizedAffinity>
-5.75996208

$$$$
