
     RDKit          3D

 37 39  0  0  0  0  0  0  0  0999 V2000
   35.4204   29.2256   48.7844 C   0  0  0  0  0  0  0  0  0  0  0  0
   34.9720   29.9843   47.7215 C   0  0  0  0  0  0  0  0  0  0  0  0
   33.8007   29.6746   47.0400 C   0  0  0  0  0  0  0  0  0  0  0  0
   33.1332   28.5686   47.5013 N   0  0  0  0  0  0  0  0  0  0  0  0
   33.5771   27.8405   48.5334 C   0  0  0  0  0  0  0  0  0  0  0  0
   34.7300   28.1673   49.1847 N   0  0  0  0  0  0  0  0  0  0  0  0
   36.6411   29.6413   49.3462 N   0  0  0  0  0  0  0  0  0  0  0  0
   37.6502   30.4881   48.8829 C   0  0  2  0  0  0  0  0  0  0  0  0
   38.3231   30.9894   50.1539 C   0  0  0  0  0  0  0  0  0  0  0  0
   37.5407   30.3991   51.2883 C   0  0  0  0  0  0  0  0  0  0  0  0
   37.1025   29.1152   50.6474 C   0  0  0  0  0  0  0  0  0  0  0  0
   35.3222   30.8491   47.2084 H   0  0  0  0  0  0  0  0  0  0  0  0
   33.3090   30.1363   46.2140 H   0  0  0  0  0  0  0  0  0  0  0  0
   33.0094   26.9671   48.8644 H   0  0  0  0  0  0  0  0  0  0  0  0
   38.4597   29.7134   48.5139 H   0  0  0  0  0  0  0  0  0  0  0  0
   39.3674   30.6400   50.2676 H   0  0  0  0  0  0  0  0  0  0  0  0
   38.3951   32.0881   50.1869 H   0  0  0  0  0  0  0  0  0  0  0  0
   38.2119   30.1428   52.1599 H   0  0  0  0  0  0  0  0  0  0  0  0
   36.6954   30.9946   51.6546 H   0  0  0  0  0  0  0  0  0  0  0  0
   38.0094   28.4956   50.4809 H   0  0  0  0  0  0  0  0  0  0  0  0
   36.3086   28.5974   51.1797 H   0  0  0  0  0  0  0  0  0  0  0  0
   37.4053   33.5240   50.4734 N   0  0  0  0  0  0  0  0  0  0  0  0
   37.6590   33.4370   49.2404 C   0  0  0  0  0  0  0  0  0  0  0  0
   38.4146   34.6540   49.4407 N   0  0  0  0  0  0  0  0  0  0  0  0
   37.6017   32.8443   47.9231 C   0  0  0  0  0  0  0  0  0  0  0  0
   37.5882   31.4449   47.8385 C   0  0  0  0  0  0  0  0  0  0  0  0
   37.5064   31.0694   46.4857 C   0  0  0  0  0  0  0  0  0  0  0  0
   37.4858   29.9942   46.2513 H   0  0  0  0  0  0  0  0  0  0  0  0
   37.4493   31.9049   45.4229 C   0  0  0  0  0  0  0  0  0  0  0  0
   37.3873   31.5279   44.4150 H   0  0  0  0  0  0  0  0  0  0  0  0
   37.4701   33.2603   45.6288 C   0  0  0  0  0  0  0  0  0  0  0  0
   37.5471   33.7514   46.8906 C   0  0  0  0  0  0  0  0  0  0  0  0
   37.8153   34.3403   50.9902 H   0  0  0  0  0  0  0  0  0  0  0  0
   38.0659   35.5737   49.0388 H   0  0  0  0  0  0  0  0  0  0  0  0
   39.1899   35.2659   49.7796 H   0  0  0  0  0  0  0  0  0  0  0  0
   37.4232   33.8996   44.7648 H   0  0  0  0  0  0  0  0  0  0  0  0
   37.5633   34.8158   47.0466 H   0  0  0  0  0  0  0  0  0  0  0  0
  1  6  1  0
  1  7  1  0
  2  1  2  0
  3  4  2  0
  3  2  1  0
  4  5  1  0
  5  6  2  0
  7 11  1  0
  8  7  1  0
  8  9  1  0
  9 10  1  0
 11 10  1  0
  2 12  1  0
  3 13  1  0
  5 14  1  0
  8 15  1  6
  9 16  1  0
  9 17  1  0
 10 18  1  0
 10 19  1  0
 11 20  1  0
 11 21  1  0
 22 23  2  3
 23 24  1  0
 23 25  1  0
 25 26  2  0
 26 27  1  0
 27 28  1  0
 27 29  2  0
 29 30  1  0
 29 31  1  0
 31 32  2  0
 32 25  1  0
 22 33  1  0
 24 34  1  0
 24 35  1  0
 31 36  1  0
 32 37  1  0
  8 26  1  0
M  ISO  8  12  14  13  14  14  14  15  13  16  13  17  13  18  13  19  13
M  ISO  4  20  13  21  13  28  15  30  16
M  END
>  <DihAtoms>  (1) 
6,7,25,24

>  <DihDeg>  (1) 
79.28539406408

$$$$
