
 OpenBabel03272508123D

 39 41  0  0  0  0  0  0  0  0999 V2000
   36.7410   29.3700   43.9620 Cl  0  0  0  0  0  0  0  0  0  0  0  0
   38.3860   29.8140   43.4780 C   0  0  0  0  0  0  0  0  0  0  0  0
   39.3400   30.3290   44.3440 C   0  0  0  0  0  0  0  0  0  0  0  0
   40.5950   30.6330   43.8210 C   0  0  0  0  0  0  0  0  0  0  0  0
   40.8660   30.4230   42.4890 C   0  0  0  0  0  0  0  0  0  0  0  0
   39.9310   29.9150   41.6270 C   0  0  0  0  0  0  0  0  0  0  0  0
   38.7010   29.6130   42.1210 C   0  0  0  0  0  0  0  0  0  0  0  0
   41.2730   31.0310   44.5710 H   0  0  0  0  0  0  0  0  0  0  0  0
   41.8770   30.6990   42.2060 H   0  0  0  0  0  0  0  0  0  0  0  0
   40.2120   29.7730   40.5810 H   0  0  0  0  0  0  0  0  0  0  0  0
   37.7860   27.6980   41.0620 C   0  0  0  0  0  0  0  0  0  0  0  0
   37.7250   29.0700   41.1750 C   0  0  0  0  0  0  0  0  0  0  0  0
   36.8020   29.7750   40.4280 C   0  0  0  0  0  0  0  0  0  0  0  0
   36.8280   30.8500   40.5840 H   0  0  0  0  0  0  0  0  0  0  0  0
   35.9460   29.1110   39.5750 C   0  0  0  0  0  0  0  0  0  0  0  0
   35.2380   29.7220   39.0120 H   0  0  0  0  0  0  0  0  0  0  0  0
   35.9770   27.7360   39.4350 C   0  0  0  0  0  3  0  0  0  0  0  0
   36.9110   27.0380   40.1920 C   0  0  0  0  0  3  0  0  0  0  0  0
   39.8010   26.2780   41.2940 N   0  0  0  0  0  0  0  0  0  0  0  0
   38.6550   26.7410   41.7280 C   0  0  0  0  0  0  0  0  0  0  0  0
   38.3000   26.1920   42.9910 N   0  0  0  0  0  0  0  0  0  0  0  0
   40.2060   26.5800   40.3820 H   0  0  0  0  0  0  0  0  0  0  0  0
   38.0330   25.7650   43.9000 H   0  0  0  0  0  0  0  0  0  0  0  0
   37.9640   25.2000   42.8080 H   0  0  0  0  0  0  0  0  0  0  0  0
   38.8760   30.4590   45.6110 O   0  0  0  0  0  0  0  0  0  0  0  0
   39.4170   32.5020   47.0990 O   0  0  0  0  0  0  0  0  0  0  0  0
   38.2880   31.8300   46.4020 P   0  0  1  0  0  0  0  0  0  0  0  0
   37.6940   32.8320   45.1550 O   0  0  0  0  0  0  0  0  0  0  0  0
   38.3260   33.5910   44.9910 H   0  0  0  0  0  0  0  0  0  0  0  0
   37.0160   31.3780   47.4230 O   0  0  0  0  0  0  0  0  0  0  0  0
   37.6090   30.5340   50.9660 C   0  0  0  0  0  0  0  0  0  0  0  0
   37.7000   31.2980   49.7960 C   0  0  0  0  0  0  0  0  0  0  0  0
   37.0620   30.8140   48.6530 C   0  0  0  0  0  0  0  0  0  0  0  0
   36.3840   29.6270   48.7340 N   0  0  0  0  0  0  0  0  0  0  0  0
   36.3270   28.9300   49.8830 C   0  0  0  0  0  0  0  0  0  0  0  0
   36.9410   29.3890   50.9990 N   0  0  0  0  0  0  0  0  0  0  0  0
   38.1540   31.0330   51.7790 H   0  0  0  0  0  0  0  0  0  0  0  0
   38.2150   32.2390   49.6610 H   0  0  0  0  0  0  0  0  0  0  0  0
   35.7930   27.9930   49.9510 H   0  0  0  0  0  0  0  0  0  0  0  0
  2  1  1  0  0  0  0
  2  3  1  0  0  0  0
  3 25  1  0  0  0  0
  4  3  2  0  0  0  0
  4  8  1  0  0  0  0
  5  4  1  0  0  0  0
  6  7  1  0  0  0  0
  6  5  2  0  0  0  0
  7  2  2  0  0  0  0
  9  5  1  0  0  0  0
 10  6  1  0  0  0  0
 11 12  1  0  0  0  0
 11 20  1  0  0  0  0
 12  7  1  0  0  0  0
 13 14  1  0  0  0  0
 13 12  2  0  0  0  0
 15 13  1  0  0  0  0
 16 15  1  0  0  0  0
 17 15  2  0  0  0  0
 17 18  1  0  0  0  0
 18 11  2  0  0  0  0
 19 20  2  0  0  0  0
 20 21  1  0  0  0  0
 21 23  1  0  0  0  0
 22 19  1  0  0  0  0
 24 21  1  0  0  0  0
 25 27  1  0  0  0  0
 27 26  2  1  0  0  0
 27 30  1  0  0  0  0
 28 27  1  0  0  0  0
 29 28  1  0  0  0  0
 30 33  1  0  0  0  0
 31 36  1  0  0  0  0
 31 37  1  0  0  0  0
 32 31  2  0  0  0  0
 33 34  2  0  0  0  0
 33 32  1  0  0  0  0
 34 35  1  0  0  0  0
 35 39  1  0  0  0  0
 35 36  2  0  0  0  0
 38 32  1  0  0  0  0
M  END
>  <minimizedAffinity>
-5.02712107

>  <minimizedRMSD>
0.592125893

$$$$
