
 OpenBabel03272500273D

 39 41  0  0  0  0  0  0  0  0999 V2000
   39.8130   31.8310   45.0680 C   0  0  0  0  0  0  0  0  0  0  0  0
   39.5720   33.0800   44.5980 C   0  0  0  0  0  0  0  0  0  0  0  0
   39.5170   33.3490   43.2270 C   0  0  0  0  0  0  0  0  0  0  0  0
   39.7230   32.2620   42.4120 N   0  0  0  0  0  0  0  0  0  0  0  0
   39.9600   31.0320   42.8810 C   0  0  0  0  0  0  0  0  0  0  0  0
   39.9960   30.8600   44.2100 N   0  0  0  0  0  0  0  0  0  0  0  0
   39.4050   33.9710   45.1870 H   0  0  0  0  0  0  0  0  0  0  0  0
   39.3310   34.3120   42.8030 H   0  0  0  0  0  0  0  0  0  0  0  0
   39.1410   28.9620   41.9240 C   0  0  0  0  0  0  0  0  0  0  0  0
   40.1840   29.8370   42.0750 C   0  0  0  0  0  0  0  0  0  0  0  0
   41.3980   29.5710   41.4700 C   0  0  0  0  0  0  0  0  0  0  0  0
   42.2130   30.2500   41.5850 H   0  0  0  0  0  0  0  0  0  0  0  0
   41.4900   28.4130   40.7320 C   0  0  0  0  0  0  0  0  0  0  0  0
   42.4570   28.2510   40.2810 H   0  0  0  0  0  0  0  0  0  0  0  0
   40.4800   27.4840   40.5350 C   0  0  0  0  0  3  0  0  0  0  0  0
   39.2950   27.7980   41.1590 C   0  0  0  0  0  3  0  0  0  0  0  0
   36.7590   28.6830   41.7700 N   0  0  0  0  0  0  0  0  0  0  0  0
   37.8080   29.0320   42.4820 C   0  0  0  0  0  0  0  0  0  0  0  0
   37.0350   29.3440   43.6220 N   0  0  0  0  0  0  0  0  0  0  0  0
   35.8170   28.7310   42.1880 H   0  0  0  0  0  0  0  0  0  0  0  0
   37.0900   28.6810   44.4490 H   0  0  0  0  0  0  0  0  0  0  0  0
   36.3900   30.1340   43.8250 H   0  0  0  0  0  0  0  0  0  0  0  0
   39.8660   31.5750   46.4780 C   0  0  0  0  0  0  0  0  0  0  0  0
   40.9210   31.7900   46.8230 H   0  0  0  0  0  0  0  0  0  0  0  0
   39.7650   30.4650   46.6630 H   0  0  0  0  0  0  0  0  0  0  0  0
   38.9320   32.2370   47.3920 C   0  0  0  0  0  0  0  0  0  0  0  0
   38.2470   32.9060   46.8340 H   0  0  0  0  0  0  0  0  0  0  0  0
   39.4540   32.9250   48.1200 H   0  0  0  0  0  0  0  0  0  0  0  0
   38.1300   31.3270   48.2440 C   0  0  0  0  0  0  0  0  0  0  0  0
   37.0400   30.6560   47.7110 C   0  0  0  0  0  0  0  0  0  0  0  0
   36.4830   29.8910   48.7080 C   0  0  0  0  0  0  0  0  0  0  0  0
   37.2260   30.1050   49.8050 N   0  0  0  0  0  0  0  0  0  0  0  0
   38.1860   30.9520   49.5040 N   0  0  0  0  0  0  0  0  0  0  0  0
   36.6050   30.6480   46.7130 H   0  0  0  0  0  0  0  0  0  0  0  0
   35.6210   29.2390   48.6500 H   0  0  0  0  0  0  0  0  0  0  0  0
   37.0390   29.5180   51.1370 C   0  0  0  0  0  0  0  0  0  0  0  0
   37.8300   28.4100   51.2830 F   0  0  0  0  0  0  0  0  0  0  0  0
   35.7180   29.1730   51.3670 F   0  0  0  0  0  0  0  0  0  0  0  0
   37.4130   30.4260   52.1150 F   0  0  0  0  0  0  0  0  0  0  0  0
  1 23  1  0  0  0  0
  2  1  1  0  0  0  0
  2  7  1  0  0  0  0
  3  2  2  0  0  0  0
  4  5  2  0  0  0  0
  4  3  1  0  0  0  0
  5  6  1  0  0  0  0
  6  1  2  0  0  0  0
  8  3  1  0  0  0  0
  9 10  1  0  0  0  0
  9 18  1  0  0  0  0
 10  5  1  0  0  0  0
 11 12  1  0  0  0  0
 11 10  2  0  0  0  0
 13 11  1  0  0  0  0
 14 13  1  0  0  0  0
 15 13  2  0  0  0  0
 15 16  1  0  0  0  0
 16  9  2  0  0  0  0
 17 20  1  0  0  0  0
 17 18  2  0  0  0  0
 18 19  1  0  0  0  0
 19 22  1  0  0  0  0
 19 21  1  0  0  0  0
 23 25  1  0  0  0  0
 23 24  1  0  0  0  0
 23 26  1  0  0  0  0
 26 28  1  0  0  0  0
 26 29  1  0  0  0  0
 27 26  1  0  0  0  0
 29 33  2  0  0  0  0
 30 29  1  0  0  0  0
 30 31  2  0  0  0  0
 31 32  1  0  0  0  0
 32 36  1  0  0  0  0
 33 32  1  0  0  0  0
 34 30  1  0  0  0  0
 35 31  1  0  0  0  0
 36 37  1  0  0  0  0
 36 38  1  0  0  0  0
 36 39  1  0  0  0  0
M  END
>  <minimizedAffinity>
-6.03669643

>  <minimizedRMSD>
1.22014225

$$$$
