
 OpenBabel03272509343D

 46 50  0  0  1  0  0  0  0  0999 V2000
   37.6410   27.5840   34.2180 C   0  0  1  0  0  0  0  0  0  0  0  0
   38.0100   27.5970   35.6390 C   0  0  0  0  0  0  0  0  0  0  0  0
   37.3420   26.3690   35.1330 C   0  0  2  0  0  0  0  0  0  0  0  0
   38.3560   27.3300   33.4610 H   0  0  0  0  0  0  0  0  0  0  0  0
   37.4020   28.3110   36.2750 H   0  0  0  0  0  0  0  0  0  0  0  0
   39.0870   27.7640   35.7730 H   0  0  0  0  0  0  0  0  0  0  0  0
   36.3200   26.0610   34.9860 H   0  0  0  0  0  0  0  0  0  0  0  0
   38.2900   25.2210   35.1440 C   0  0  0  0  0  0  0  0  0  0  0  0
   38.8800   25.0700   33.8880 C   0  0  0  0  0  0  0  0  0  0  0  0
   39.8590   24.1240   33.6690 C   0  0  0  0  0  0  0  0  0  0  0  0
   40.2860   23.2930   34.7020 C   0  0  0  0  0  0  0  0  0  0  0  0
   39.6910   23.4620   35.9320 C   0  0  0  0  0  0  0  0  0  0  0  0
   40.0090   22.7010   37.0380 C   0  0  0  0  0  0  0  0  0  0  0  0
   39.4090   22.8560   38.2740 C   0  0  0  0  0  0  0  0  0  0  0  0
   38.4320   23.8260   38.4260 C   0  0  0  0  0  0  0  0  0  0  0  0
   38.1060   24.5920   37.3310 C   0  0  0  0  0  0  0  0  0  0  0  0
   38.7260   24.4030   36.1230 C   0  0  0  0  0  0  0  0  0  0  0  0
   38.8150   25.5310   32.9220 H   0  0  0  0  0  0  0  0  0  0  0  0
   40.4120   23.8750   32.7750 H   0  0  0  0  0  0  0  0  0  0  0  0
   41.0360   22.5030   34.7050 H   0  0  0  0  0  0  0  0  0  0  0  0
   40.7750   21.9300   36.9470 H   0  0  0  0  0  0  0  0  0  0  0  0
   39.7150   22.2170   39.0980 H   0  0  0  0  0  0  0  0  0  0  0  0
   37.9390   23.9880   39.3560 H   0  0  0  0  0  0  0  0  0  0  0  0
   37.3250   25.3600   37.4710 H   0  0  0  0  0  0  0  0  0  0  0  0
   35.0840   29.1860   32.0040 C   0  0  0  0  0  0  0  0  0  0  0  0
   36.2210   28.4670   32.4280 C   0  0  0  0  0  0  0  0  0  0  0  0
   36.4170   28.3070   33.8000 C   0  0  0  0  0  0  0  0  0  0  0  0
   35.5100   28.8440   34.6710 N   0  0  0  0  0  0  0  0  0  0  0  0
   34.4350   29.5260   34.2380 C   0  0  0  0  0  0  0  0  0  0  0  0
   34.2210   29.6990   32.8840 N   0  0  0  0  0  0  0  0  0  0  0  0
   34.9530   29.2980   30.9370 H   0  0  0  0  0  0  0  0  0  0  0  0
   36.9030   28.0630   31.6930 H   0  0  0  0  0  0  0  0  0  0  0  0
   33.4600   31.0480   36.0130 C   0  0  0  0  0  0  0  0  0  0  0  0
   33.3710   30.1040   35.0320 C   0  0  0  0  0  0  0  0  0  0  0  0
   32.0450   29.6910   34.8690 C   0  0  0  0  0  0  0  0  0  0  0  0
   31.7970   28.9270   34.1120 H   0  0  0  0  0  0  0  0  0  0  0  0
   30.9830   30.1540   35.5750 C   0  0  0  0  0  0  0  0  0  0  0  0
   29.9840   29.7920   35.3960 H   0  0  0  0  0  0  0  0  0  0  0  0
   31.1510   31.0990   36.5380 C   0  0  0  0  0  3  0  0  0  0  0  0
   32.4240   31.5570   36.7610 C   0  0  0  0  0  3  0  0  0  0  0  0
   34.8620   32.3060   37.4900 N   0  0  0  0  0  0  0  0  0  0  0  0
   34.7480   31.5910   36.3860 C   0  0  0  0  0  0  0  0  0  0  0  0
   36.1150   31.7810   36.1530 N   0  0  0  0  0  0  0  0  0  0  0  0
   35.8090   32.6800   37.7180 H   0  0  0  0  0  0  0  0  0  0  0  0
   36.5430   32.5650   35.5730 H   0  0  0  0  0  0  0  0  0  0  0  0
   36.9080   31.1730   36.5140 H   0  0  0  0  0  0  0  0  0  0  0  0
  1  4  1  6  0  0  0
  1  3  1  0  0  0  0
  1  2  1  0  0  0  0
  2  6  1  0  0  0  0
  2  5  1  0  0  0  0
  3  7  1  1  0  0  0
  3  8  1  0  0  0  0
  3  2  1  0  0  0  0
  8 17  1  0  0  0  0
  9  8  2  0  0  0  0
 10  9  1  0  0  0  0
 10 11  2  0  0  0  0
 11 20  1  0  0  0  0
 11 12  1  0  0  0  0
 12 17  2  0  0  0  0
 12 13  1  0  0  0  0
 13 14  2  0  0  0  0
 14 15  1  0  0  0  0
 14 22  1  0  0  0  0
 15 23  1  0  0  0  0
 16 24  1  0  0  0  0
 16 15  2  0  0  0  0
 17 16  1  0  0  0  0
 18  9  1  0  0  0  0
 19 10  1  0  0  0  0
 21 13  1  0  0  0  0
 25 26  2  0  0  0  0
 25 30  1  0  0  0  0
 26 27  1  0  0  0  0
 27  1  1  0  0  0  0
 27 28  2  0  0  0  0
 29 28  1  0  0  0  0
 29 34  1  0  0  0  0
 30 29  2  0  0  0  0
 31 25  1  0  0  0  0
 32 26  1  0  0  0  0
 33 42  1  0  0  0  0
 33 40  1  0  0  0  0
 34 33  2  0  0  0  0
 35 34  1  0  0  0  0
 35 37  2  0  0  0  0
 36 35  1  0  0  0  0
 37 39  1  0  0  0  0
 38 37  1  0  0  0  0
 39 40  2  0  0  0  0
 41 44  1  0  0  0  0
 42 41  2  0  0  0  0
 43 42  1  0  0  0  0
 43 46  1  0  0  0  0
 45 43  1  0  0  0  0
M  END
>  <minimizedAffinity>
-7.50817823

$$$$

 OpenBabel03272509343D

 46 50  0  0  1  0  0  0  0  0999 V2000
   37.5150   25.8240   33.1760 C   0  0  1  0  0  0  0  0  0  0  0  0
   38.7510   25.5050   32.4520 C   0  0  0  0  0  0  0  0  0  0  0  0
   38.8940   25.8950   33.8800 C   0  0  2  0  0  0  0  0  0  0  0  0
   36.9040   25.0510   33.6000 H   0  0  0  0  0  0  0  0  0  0  0  0
   39.0400   26.2620   31.6610 H   0  0  0  0  0  0  0  0  0  0  0  0
   38.7230   24.4880   32.0380 H   0  0  0  0  0  0  0  0  0  0  0  0
   38.9690   26.8290   34.4120 H   0  0  0  0  0  0  0  0  0  0  0  0
   39.3530   24.7340   34.6910 C   0  0  0  0  0  0  0  0  0  0  0  0
   40.2980   23.9920   33.9800 C   0  0  0  0  0  0  0  0  0  0  0  0
   40.9340   22.9120   34.5540 C   0  0  0  0  0  0  0  0  0  0  0  0
   40.6490   22.5340   35.8640 C   0  0  0  0  0  0  0  0  0  0  0  0
   39.7150   23.2820   36.5450 C   0  0  0  0  0  0  0  0  0  0  0  0
   39.3290   23.0130   37.8420 C   0  0  0  0  0  0  0  0  0  0  0  0
   38.3850   23.7520   38.5300 C   0  0  0  0  0  0  0  0  0  0  0  0
   37.7830   24.8260   37.8950 C   0  0  0  0  0  0  0  0  0  0  0  0
   38.1590   25.1040   36.6020 C   0  0  0  0  0  0  0  0  0  0  0  0
   39.1000   24.3450   35.9570 C   0  0  0  0  0  0  0  0  0  0  0  0
   40.7550   24.0140   33.0110 H   0  0  0  0  0  0  0  0  0  0  0  0
   41.6780   22.2380   34.1550 H   0  0  0  0  0  0  0  0  0  0  0  0
   41.0510   21.7190   36.4650 H   0  0  0  0  0  0  0  0  0  0  0  0
   39.7860   22.1740   38.3670 H   0  0  0  0  0  0  0  0  0  0  0  0
   38.1340   23.4770   39.5510 H   0  0  0  0  0  0  0  0  0  0  0  0
   37.0500   25.4280   38.3790 H   0  0  0  0  0  0  0  0  0  0  0  0
   37.6690   25.9640   36.1110 H   0  0  0  0  0  0  0  0  0  0  0  0
   36.3620   28.9400   31.4520 C   0  0  0  0  0  0  0  0  0  0  0  0
   36.9040   27.6550   31.6670 C   0  0  0  0  0  0  0  0  0  0  0  0
   36.9010   27.1570   32.9710 C   0  0  0  0  0  0  0  0  0  0  0  0
   36.3770   27.9210   33.9760 N   0  0  0  0  0  0  0  0  0  0  0  0
   35.8670   29.1430   33.7410 C   0  0  0  0  0  0  0  0  0  0  0  0
   35.8600   29.6580   32.4580 N   0  0  0  0  0  0  0  0  0  0  0  0
   36.3750   29.3050   30.4340 H   0  0  0  0  0  0  0  0  0  0  0  0
   37.3030   27.0960   30.8330 H   0  0  0  0  0  0  0  0  0  0  0  0
   33.9080   30.2280   34.9250 C   0  0  0  0  0  0  0  0  0  0  0  0
   35.2370   30.0400   34.6870 C   0  0  0  0  0  0  0  0  0  0  0  0
   36.0040   30.8870   35.4940 C   0  0  0  0  0  0  0  0  0  0  0  0
   37.1050   30.8620   35.4260 H   0  0  0  0  0  0  0  0  0  0  0  0
   35.5120   31.7750   36.3940 C   0  0  0  0  0  0  0  0  0  0  0  0
   36.1620   32.3990   36.9860 H   0  0  0  0  0  0  0  0  0  0  0  0
   34.1710   31.9050   36.5770 C   0  0  0  0  0  3  0  0  0  0  0  0
   33.3480   31.1100   35.8210 C   0  0  0  0  0  3  0  0  0  0  0  0
   31.8760   28.9700   34.7880 N   0  0  0  0  0  0  0  0  0  0  0  0
   32.9210   29.4880   34.1700 C   0  0  0  0  0  0  0  0  0  0  0  0
   32.4360   28.9620   32.9660 N   0  0  0  0  0  0  0  0  0  0  0  0
   31.1910   28.4420   34.2040 H   0  0  0  0  0  0  0  0  0  0  0  0
   32.6920   28.0130   32.5560 H   0  0  0  0  0  0  0  0  0  0  0  0
   31.7570   29.4320   32.2990 H   0  0  0  0  0  0  0  0  0  0  0  0
  1  4  1  1  0  0  0
  1  3  1  0  0  0  0
  2  1  1  0  0  0  0
  2  3  1  0  0  0  0
  3  7  1  1  0  0  0
  3  8  1  0  0  0  0
  5  2  1  0  0  0  0
  6  2  1  0  0  0  0
  8 17  1  0  0  0  0
  9 10  1  0  0  0  0
  9  8  2  0  0  0  0
 10 11  2  0  0  0  0
 11 20  1  0  0  0  0
 11 12  1  0  0  0  0
 12 13  1  0  0  0  0
 13 21  1  0  0  0  0
 13 14  2  0  0  0  0
 14 22  1  0  0  0  0
 15 23  1  0  0  0  0
 15 14  1  0  0  0  0
 16 15  2  0  0  0  0
 17 12  2  0  0  0  0
 17 16  1  0  0  0  0
 18  9  1  0  0  0  0
 19 10  1  0  0  0  0
 24 16  1  0  0  0  0
 25 26  2  0  0  0  0
 25 30  1  0  0  0  0
 26 27  1  0  0  0  0
 27  1  1  0  0  0  0
 27 28  2  0  0  0  0
 29 28  1  0  0  0  0
 29 34  1  0  0  0  0
 30 29  2  0  0  0  0
 31 25  1  0  0  0  0
 32 26  1  0  0  0  0
 33 40  1  0  0  0  0
 34 33  2  0  0  0  0
 34 35  1  0  0  0  0
 35 37  2  0  0  0  0
 36 35  1  0  0  0  0
 37 39  1  0  0  0  0
 37 38  1  0  0  0  0
 40 39  2  0  0  0  0
 42 41  2  0  0  0  0
 42 33  1  0  0  0  0
 43 42  1  0  0  0  0
 44 41  1  0  0  0  0
 45 43  1  0  0  0  0
 46 43  1  0  0  0  0
M  END
>  <minimizedAffinity>
-7.01179743

$$$$

 OpenBabel03272509343D

 46 50  0  0  1  0  0  0  0  0999 V2000
   37.4540   25.8560   34.1070 C   0  0  1  0  0  0  0  0  0  0  0  0
   38.7400   25.4170   33.5530 C   0  0  0  0  0  0  0  0  0  0  0  0
   38.7620   25.9790   34.9300 C   0  0  2  0  0  0  0  0  0  0  0  0
   36.7770   25.1580   34.5610 H   0  0  0  0  0  0  0  0  0  0  0  0
   39.1310   26.0620   32.7080 H   0  0  0  0  0  0  0  0  0  0  0  0
   38.7130   24.3580   33.2650 H   0  0  0  0  0  0  0  0  0  0  0  0
   38.8210   26.9700   35.3490 H   0  0  0  0  0  0  0  0  0  0  0  0
   39.0980   24.9170   35.9180 C   0  0  0  0  0  0  0  0  0  0  0  0
   38.1040   24.8350   36.8950 C   0  0  0  0  0  0  0  0  0  0  0  0
   38.1480   23.8680   37.8770 C   0  0  0  0  0  0  0  0  0  0  0  0
   39.1900   22.9440   37.9160 C   0  0  0  0  0  0  0  0  0  0  0  0
   40.1570   23.0440   36.9420 C   0  0  0  0  0  0  0  0  0  0  0  0
   41.2480   22.2040   36.8680 C   0  0  0  0  0  0  0  0  0  0  0  0
   42.2300   22.3040   35.8990 C   0  0  0  0  0  0  0  0  0  0  0  0
   42.1250   23.2990   34.9410 C   0  0  0  0  0  0  0  0  0  0  0  0
   41.0420   24.1430   35.0030 C   0  0  0  0  0  0  0  0  0  0  0  0
   40.0920   24.0090   35.9820 C   0  0  0  0  0  0  0  0  0  0  0  0
   37.1920   25.3410   37.1410 H   0  0  0  0  0  0  0  0  0  0  0  0
   37.4750   23.6640   38.6970 H   0  0  0  0  0  0  0  0  0  0  0  0
   39.3800   22.1260   38.6110 H   0  0  0  0  0  0  0  0  0  0  0  0
   41.3570   21.4110   37.6090 H   0  0  0  0  0  0  0  0  0  0  0  0
   43.0600   21.6030   35.9090 H   0  0  0  0  0  0  0  0  0  0  0  0
   42.8520   23.4200   34.1730 H   0  0  0  0  0  0  0  0  0  0  0  0
   40.9740   24.9300   34.2310 H   0  0  0  0  0  0  0  0  0  0  0  0
   36.5810   28.7570   31.9100 C   0  0  0  0  0  0  0  0  0  0  0  0
   37.0520   27.4960   32.3330 C   0  0  0  0  0  0  0  0  0  0  0  0
   36.9120   27.1680   33.6820 C   0  0  0  0  0  0  0  0  0  0  0  0
   36.3280   28.0660   34.5310 N   0  0  0  0  0  0  0  0  0  0  0  0
   35.8890   29.2610   34.0990 C   0  0  0  0  0  0  0  0  0  0  0  0
   36.0180   29.6100   32.7680 N   0  0  0  0  0  0  0  0  0  0  0  0
   36.7000   28.9900   30.8610 H   0  0  0  0  0  0  0  0  0  0  0  0
   37.5040   26.8250   31.6160 H   0  0  0  0  0  0  0  0  0  0  0  0
   33.8780   30.5750   34.9050 C   0  0  0  0  0  0  0  0  0  0  0  0
   35.2110   30.2880   34.8640 C   0  0  0  0  0  0  0  0  0  0  0  0
   35.9290   31.1690   35.6780 C   0  0  0  0  0  0  0  0  0  0  0  0
   37.0250   31.0750   35.7570 H   0  0  0  0  0  0  0  0  0  0  0  0
   35.3920   32.1740   36.4150 C   0  0  0  0  0  0  0  0  0  0  0  0
   36.0050   32.8180   37.0240 H   0  0  0  0  0  0  0  0  0  0  0  0
   34.0510   32.3990   36.4070 C   0  0  0  0  0  3  0  0  0  0  0  0
   33.2750   31.5770   35.6310 C   0  0  0  0  0  3  0  0  0  0  0  0
   31.9030   29.2430   34.6770 N   0  0  0  0  0  0  0  0  0  0  0  0
   32.9440   29.8170   34.1030 C   0  0  0  0  0  0  0  0  0  0  0  0
   32.5150   29.3040   32.8730 N   0  0  0  0  0  0  0  0  0  0  0  0
   31.2570   28.7040   34.0600 H   0  0  0  0  0  0  0  0  0  0  0  0
   32.8200   28.3780   32.4460 H   0  0  0  0  0  0  0  0  0  0  0  0
   31.8370   29.7650   32.1980 H   0  0  0  0  0  0  0  0  0  0  0  0
  1  4  1  1  0  0  0
  1  3  1  0  0  0  0
  2  1  1  0  0  0  0
  2  3  1  0  0  0  0
  3  7  1  1  0  0  0
  3  8  1  0  0  0  0
  5  2  1  0  0  0  0
  6  2  1  0  0  0  0
  8 17  2  0  0  0  0
  8  9  1  0  0  0  0
  9 18  1  0  0  0  0
  9 10  2  0  0  0  0
 10 11  1  0  0  0  0
 10 19  1  0  0  0  0
 11 20  1  0  0  0  0
 12 11  2  0  0  0  0
 13 12  1  0  0  0  0
 13 21  1  0  0  0  0
 14 22  1  0  0  0  0
 14 13  2  0  0  0  0
 15 16  2  0  0  0  0
 15 14  1  0  0  0  0
 16 17  1  0  0  0  0
 17 12  1  0  0  0  0
 23 15  1  0  0  0  0
 24 16  1  0  0  0  0
 25 26  2  0  0  0  0
 25 30  1  0  0  0  0
 26 27  1  0  0  0  0
 27  1  1  0  0  0  0
 27 28  2  0  0  0  0
 29 28  1  0  0  0  0
 29 34  1  0  0  0  0
 30 29  2  0  0  0  0
 31 25  1  0  0  0  0
 32 26  1  0  0  0  0
 33 40  1  0  0  0  0
 34 33  2  0  0  0  0
 34 35  1  0  0  0  0
 35 36  1  0  0  0  0
 35 37  2  0  0  0  0
 37 38  1  0  0  0  0
 39 37  1  0  0  0  0
 40 39  2  0  0  0  0
 42 41  2  0  0  0  0
 42 33  1  0  0  0  0
 43 42  1  0  0  0  0
 44 41  1  0  0  0  0
 45 43  1  0  0  0  0
 46 43  1  0  0  0  0
M  END
>  <minimizedAffinity>
-7.00054026

$$$$

 OpenBabel03272509343D

 46 50  0  0  1  0  0  0  0  0999 V2000
   37.5180   26.5390   32.1680 C   0  0  1  0  0  0  0  0  0  0  0  0
   37.3190   25.5640   33.2470 C   0  0  0  0  0  0  0  0  0  0  0  0
   36.6150   25.2940   31.9650 C   0  0  2  0  0  0  0  0  0  0  0  0
   38.3810   26.4970   31.5330 H   0  0  0  0  0  0  0  0  0  0  0  0
   36.7080   25.9490   34.1200 H   0  0  0  0  0  0  0  0  0  0  0  0
   38.2740   25.1410   33.5860 H   0  0  0  0  0  0  0  0  0  0  0  0
   35.6810   25.6050   31.5270 H   0  0  0  0  0  0  0  0  0  0  0  0
   37.1850   24.0870   31.3050 C   0  0  0  0  0  0  0  0  0  0  0  0
   38.3820   24.4090   30.6610 C   0  0  0  0  0  0  0  0  0  0  0  0
   39.1430   23.4380   30.0460 C   0  0  0  0  0  0  0  0  0  0  0  0
   38.7350   22.1060   30.0540 C   0  0  0  0  0  0  0  0  0  0  0  0
   37.5540   21.8130   30.6960 C   0  0  0  0  0  0  0  0  0  0  0  0
   37.0260   20.5410   30.7700 C   0  0  0  0  0  0  0  0  0  0  0  0
   35.8360   20.2390   31.4040 C   0  0  0  0  0  0  0  0  0  0  0  0
   35.1190   21.2620   32.0030 C   0  0  0  0  0  0  0  0  0  0  0  0
   35.6330   22.5360   31.9360 C   0  0  0  0  0  0  0  0  0  0  0  0
   36.8190   22.7900   31.2970 C   0  0  0  0  0  0  0  0  0  0  0  0
   38.9790   25.2820   30.4900 H   0  0  0  0  0  0  0  0  0  0  0  0
   40.0780   23.5100   29.5100 H   0  0  0  0  0  0  0  0  0  0  0  0
   39.2060   21.2230   29.6230 H   0  0  0  0  0  0  0  0  0  0  0  0
   37.5690   19.7160   30.3070 H   0  0  0  0  0  0  0  0  0  0  0  0
   35.4860   19.2100   31.4200 H   0  0  0  0  0  0  0  0  0  0  0  0
   34.1960   21.0850   32.5040 H   0  0  0  0  0  0  0  0  0  0  0  0
   35.0490   23.3390   32.4200 H   0  0  0  0  0  0  0  0  0  0  0  0
   35.8660   29.6930   31.0160 C   0  0  0  0  0  0  0  0  0  0  0  0
   36.5580   28.4640   30.9960 C   0  0  0  0  0  0  0  0  0  0  0  0
   36.7520   27.8060   32.2120 C   0  0  0  0  0  0  0  0  0  0  0  0
   36.2680   28.3680   33.3600 N   0  0  0  0  0  0  0  0  0  0  0  0
   35.6120   29.5420   33.3480 C   0  0  0  0  0  0  0  0  0  0  0  0
   35.4090   30.2140   32.1570 N   0  0  0  0  0  0  0  0  0  0  0  0
   35.7270   30.1850   30.0630 H   0  0  0  0  0  0  0  0  0  0  0  0
   36.9160   28.0670   30.0570 H   0  0  0  0  0  0  0  0  0  0  0  0
   33.6900   30.2770   34.8250 C   0  0  0  0  0  0  0  0  0  0  0  0
   35.0050   30.2320   34.4680 C   0  0  0  0  0  0  0  0  0  0  0  0
   35.7780   31.0020   35.3430 C   0  0  0  0  0  0  0  0  0  0  0  0
   36.8690   31.0740   35.1940 H   0  0  0  0  0  0  0  0  0  0  0  0
   35.3030   31.7000   36.4050 C   0  0  0  0  0  0  0  0  0  0  0  0
   35.9570   32.2740   37.0420 H   0  0  0  0  0  0  0  0  0  0  0  0
   33.9760   31.6950   36.7000 C   0  0  0  0  0  3  0  0  0  0  0  0
   33.1490   30.9640   35.8870 C   0  0  0  0  0  3  0  0  0  0  0  0
   31.6790   28.9930   34.6300 N   0  0  0  0  0  0  0  0  0  0  0  0
   32.6960   29.5870   34.0330 C   0  0  0  0  0  0  0  0  0  0  0  0
   32.1860   29.1610   32.8010 N   0  0  0  0  0  0  0  0  0  0  0  0
   30.9880   28.5050   34.0200 H   0  0  0  0  0  0  0  0  0  0  0  0
   32.4470   28.2590   32.2990 H   0  0  0  0  0  0  0  0  0  0  0  0
   31.4790   29.6750   32.1980 H   0  0  0  0  0  0  0  0  0  0  0  0
  1  4  1  6  0  0  0
  1 27  1  0  0  0  0
  1  2  1  0  0  0  0
  2  6  1  0  0  0  0
  2  5  1  0  0  0  0
  3  7  1  6  0  0  0
  3  1  1  0  0  0  0
  3  2  1  0  0  0  0
  8  3  1  0  0  0  0
  9  8  2  0  0  0  0
 10 11  2  0  0  0  0
 10  9  1  0  0  0  0
 11 12  1  0  0  0  0
 12 13  2  0  0  0  0
 12 17  1  0  0  0  0
 13 14  1  0  0  0  0
 14 22  1  0  0  0  0
 14 15  2  0  0  0  0
 15 23  1  0  0  0  0
 16 15  1  0  0  0  0
 16 24  1  0  0  0  0
 17  8  1  0  0  0  0
 17 16  2  0  0  0  0
 18  9  1  0  0  0  0
 19 10  1  0  0  0  0
 20 11  1  0  0  0  0
 21 13  1  0  0  0  0
 25 30  1  0  0  0  0
 26 25  2  0  0  0  0
 26 27  1  0  0  0  0
 27 28  2  0  0  0  0
 29 28  1  0  0  0  0
 29 34  1  0  0  0  0
 30 29  2  0  0  0  0
 31 25  1  0  0  0  0
 32 26  1  0  0  0  0
 33 40  1  0  0  0  0
 34 33  2  0  0  0  0
 34 35  1  0  0  0  0
 35 37  2  0  0  0  0
 36 35  1  0  0  0  0
 37 39  1  0  0  0  0
 37 38  1  0  0  0  0
 40 39  2  0  0  0  0
 42 41  2  0  0  0  0
 42 33  1  0  0  0  0
 43 42  1  0  0  0  0
 44 41  1  0  0  0  0
 45 43  1  0  0  0  0
 46 43  1  0  0  0  0
M  END
>  <minimizedAffinity>
-6.86242437

$$$$

 OpenBabel03272509343D

 46 50  0  0  1  0  0  0  0  0999 V2000
   37.4910   27.5930   34.1150 C   0  0  1  0  0  0  0  0  0  0  0  0
   38.2190   27.5430   35.3890 C   0  0  0  0  0  0  0  0  0  0  0  0
   37.2390   26.4530   35.1330 C   0  0  2  0  0  0  0  0  0  0  0  0
   37.9270   27.2140   33.2110 H   0  0  0  0  0  0  0  0  0  0  0  0
   37.9330   28.3550   36.1240 H   0  0  0  0  0  0  0  0  0  0  0  0
   39.3050   27.5140   35.2300 H   0  0  0  0  0  0  0  0  0  0  0  0
   36.1780   26.3330   35.2720 H   0  0  0  0  0  0  0  0  0  0  0  0
   37.9450   25.1540   34.9540 C   0  0  0  0  0  0  0  0  0  0  0  0
   38.1470   24.8980   33.5970 C   0  0  0  0  0  0  0  0  0  0  0  0
   38.8550   23.7910   33.1780 C   0  0  0  0  0  0  0  0  0  0  0  0
   39.3890   22.8990   34.1050 C   0  0  0  0  0  0  0  0  0  0  0  0
   39.1780   23.1730   35.4370 C   0  0  0  0  0  0  0  0  0  0  0  0
   39.6400   22.3700   36.4580 C   0  0  0  0  0  0  0  0  0  0  0  0
   39.4240   22.6310   37.7980 C   0  0  0  0  0  0  0  0  0  0  0  0
   38.7040   23.7610   38.1520 C   0  0  0  0  0  0  0  0  0  0  0  0
   38.2380   24.5710   37.1420 C   0  0  0  0  0  0  0  0  0  0  0  0
   38.4750   24.2730   35.8260 C   0  0  0  0  0  0  0  0  0  0  0  0
   37.9100   25.3610   32.6600 H   0  0  0  0  0  0  0  0  0  0  0  0
   39.1010   23.4460   32.1840 H   0  0  0  0  0  0  0  0  0  0  0  0
   39.9660   21.9870   33.9520 H   0  0  0  0  0  0  0  0  0  0  0  0
   40.2100   21.4730   36.2100 H   0  0  0  0  0  0  0  0  0  0  0  0
   39.8210   21.9490   38.5450 H   0  0  0  0  0  0  0  0  0  0  0  0
   38.5090   24.0100   39.1680 H   0  0  0  0  0  0  0  0  0  0  0  0
   37.6660   25.4670   37.4430 H   0  0  0  0  0  0  0  0  0  0  0  0
   34.5260   29.3520   32.6580 C   0  0  0  0  0  0  0  0  0  0  0  0
   35.5990   28.4500   32.8150 C   0  0  0  0  0  0  0  0  0  0  0  0
   36.3440   28.5240   33.9930 C   0  0  0  0  0  0  0  0  0  0  0  0
   36.0090   29.4520   34.9390 N   0  0  0  0  0  0  0  0  0  0  0  0
   34.9800   30.3000   34.7610 C   0  0  0  0  0  0  0  0  0  0  0  0
   34.2290   30.2480   33.6020 N   0  0  0  0  0  0  0  0  0  0  0  0
   33.9630   29.2770   31.7380 H   0  0  0  0  0  0  0  0  0  0  0  0
   35.8170   27.7360   32.0350 H   0  0  0  0  0  0  0  0  0  0  0  0
   33.3300   31.2710   36.4190 C   0  0  0  0  0  0  0  0  0  0  0  0
   34.4790   31.2950   35.6860 C   0  0  0  0  0  0  0  0  0  0  0  0
   35.1780   32.4860   35.9090 C   0  0  0  0  0  0  0  0  0  0  0  0
   36.1350   32.6670   35.3890 H   0  0  0  0  0  0  0  0  0  0  0  0
   34.7850   33.4870   36.7360 C   0  0  0  0  0  0  0  0  0  0  0  0
   35.3740   34.3800   36.8630 H   0  0  0  0  0  0  0  0  0  0  0  0
   33.6240   33.3900   37.4370 C   0  0  0  0  0  3  0  0  0  0  0  0
   32.8780   32.2510   37.2730 C   0  0  0  0  0  3  0  0  0  0  0  0
   31.7780   29.7260   37.3850 N   0  0  0  0  0  0  0  0  0  0  0  0
   32.4220   30.1510   36.3130 C   0  0  0  0  0  0  0  0  0  0  0  0
   31.7900   29.1480   35.5680 N   0  0  0  0  0  0  0  0  0  0  0  0
   31.1350   28.9130   37.2620 H   0  0  0  0  0  0  0  0  0  0  0  0
   32.1770   28.1720   35.3860 H   0  0  0  0  0  0  0  0  0  0  0  0
   30.8490   29.2190   35.0820 H   0  0  0  0  0  0  0  0  0  0  0  0
  1  4  1  6  0  0  0
  1  3  1  0  0  0  0
  1  2  1  0  0  0  0
  2  5  1  0  0  0  0
  3  7  1  1  0  0  0
  3  2  1  0  0  0  0
  6  2  1  0  0  0  0
  8  3  1  0  0  0  0
  8 17  1  0  0  0  0
  9  8  2  0  0  0  0
 10  9  1  0  0  0  0
 10 11  2  0  0  0  0
 11 12  1  0  0  0  0
 12 17  2  0  0  0  0
 12 13  1  0  0  0  0
 13 14  2  0  0  0  0
 14 15  1  0  0  0  0
 14 22  1  0  0  0  0
 15 23  1  0  0  0  0
 16 24  1  0  0  0  0
 16 15  2  0  0  0  0
 17 16  1  0  0  0  0
 18  9  1  0  0  0  0
 19 10  1  0  0  0  0
 20 11  1  0  0  0  0
 21 13  1  0  0  0  0
 25 26  2  0  0  0  0
 25 30  1  0  0  0  0
 26 27  1  0  0  0  0
 27  1  1  0  0  0  0
 27 28  2  0  0  0  0
 29 28  1  0  0  0  0
 29 34  1  0  0  0  0
 30 29  2  0  0  0  0
 31 25  1  0  0  0  0
 32 26  1  0  0  0  0
 33 40  1  0  0  0  0
 34 35  1  0  0  0  0
 34 33  2  0  0  0  0
 35 37  2  0  0  0  0
 36 35  1  0  0  0  0
 37 38  1  0  0  0  0
 37 39  1  0  0  0  0
 40 39  2  0  0  0  0
 42 33  1  0  0  0  0
 42 41  2  0  0  0  0
 43 42  1  0  0  0  0
 44 41  1  0  0  0  0
 45 43  1  0  0  0  0
 46 43  1  0  0  0  0
M  END
>  <minimizedAffinity>
-6.82232475

$$$$

 OpenBabel03272509343D

 46 50  0  0  1  0  0  0  0  0999 V2000
   38.8430   26.5180   32.9710 C   0  0  1  0  0  0  0  0  0  0  0  0
   39.5290   26.9270   31.7390 C   0  0  0  0  0  0  0  0  0  0  0  0
   38.0460   26.8340   31.6790 C   0  0  2  0  0  0  0  0  0  0  0  0
   38.6210   27.2260   33.7450 H   0  0  0  0  0  0  0  0  0  0  0  0
   40.1350   26.1070   31.2460 H   0  0  0  0  0  0  0  0  0  0  0  0
   40.1360   27.8290   31.8980 H   0  0  0  0  0  0  0  0  0  0  0  0
   37.3370   26.0430   31.5010 H   0  0  0  0  0  0  0  0  0  0  0  0
   37.4490   28.1880   31.5110 C   0  0  0  0  0  0  0  0  0  0  0  0
   37.7880   28.7130   30.2630 C   0  0  0  0  0  0  0  0  0  0  0  0
   37.2840   29.9250   29.8390 C   0  0  0  0  0  0  0  0  0  0  0  0
   36.4190   30.6560   30.6500 C   0  0  0  0  0  0  0  0  0  0  0  0
   36.0980   30.1170   31.8750 C   0  0  0  0  0  0  0  0  0  0  0  0
   35.2640   30.7380   32.7810 C   0  0  0  0  0  0  0  0  0  0  0  0
   34.9450   30.2100   34.0180 C   0  0  0  0  0  0  0  0  0  0  0  0
   35.4850   28.9880   34.3830 C   0  0  0  0  0  0  0  0  0  0  0  0
   36.3190   28.3580   33.4880 C   0  0  0  0  0  0  0  0  0  0  0  0
   36.6090   28.9190   32.2720 C   0  0  0  0  0  0  0  0  0  0  0  0
   38.3770   28.4240   29.4160 H   0  0  0  0  0  0  0  0  0  0  0  0
   37.4390   30.4700   28.9190 H   0  0  0  0  0  0  0  0  0  0  0  0
   35.9350   31.6170   30.4760 H   0  0  0  0  0  0  0  0  0  0  0  0
   34.8240   31.7020   32.5210 H   0  0  0  0  0  0  0  0  0  0  0  0
   34.2790   30.7610   34.6770 H   0  0  0  0  0  0  0  0  0  0  0  0
   35.2730   28.5360   35.3230 H   0  0  0  0  0  0  0  0  0  0  0  0
   36.7400   27.3840   33.7960 H   0  0  0  0  0  0  0  0  0  0  0  0
   39.9060   23.2370   34.4230 C   0  0  0  0  0  0  0  0  0  0  0  0
   39.8800   24.6110   34.1060 C   0  0  0  0  0  0  0  0  0  0  0  0
   38.8240   25.0790   33.3230 C   0  0  0  0  0  0  0  0  0  0  0  0
   37.8660   24.2000   32.9010 N   0  0  0  0  0  0  0  0  0  0  0  0
   37.9170   22.8940   33.2180 C   0  0  0  0  0  0  0  0  0  0  0  0
   38.9540   22.4070   33.9910 N   0  0  0  0  0  0  0  0  0  0  0  0
   40.7340   22.8970   35.0300 H   0  0  0  0  0  0  0  0  0  0  0  0
   40.6640   25.2590   34.4700 H   0  0  0  0  0  0  0  0  0  0  0  0
   36.2240   21.0820   33.7330 C   0  0  0  0  0  0  0  0  0  0  0  0
   36.9580   21.8610   32.8880 C   0  0  0  0  0  0  0  0  0  0  0  0
   36.6950   21.5240   31.5560 C   0  0  0  0  0  0  0  0  0  0  0  0
   37.2090   22.0610   30.7410 H   0  0  0  0  0  0  0  0  0  0  0  0
   35.8330   20.5610   31.1440 C   0  0  0  0  0  0  0  0  0  0  0  0
   35.6760   20.3520   30.0980 H   0  0  0  0  0  0  0  0  0  0  0  0
   35.1330   19.8240   32.0480 C   0  0  0  0  0  3  0  0  0  0  0  0
   35.3360   20.0930   33.3770 C   0  0  0  0  0  3  0  0  0  0  0  0
   35.4710   20.6840   35.9700 N   0  0  0  0  0  0  0  0  0  0  0  0
   36.3670   21.2250   35.1640 C   0  0  0  0  0  0  0  0  0  0  0  0
   37.0490   21.7050   36.2890 N   0  0  0  0  0  0  0  0  0  0  0  0
   35.6140   20.8150   36.9950 H   0  0  0  0  0  0  0  0  0  0  0  0
   36.9100   22.6610   36.7380 H   0  0  0  0  0  0  0  0  0  0  0  0
   37.7960   21.1920   36.8420 H   0  0  0  0  0  0  0  0  0  0  0  0
  1 27  1  0  0  0  0
  1  4  1  1  0  0  0
  2  6  1  0  0  0  0
  2  1  1  0  0  0  0
  3  7  1  6  0  0  0
  3  2  1  0  0  0  0
  3  1  1  0  0  0  0
  5  2  1  0  0  0  0
  8  3  1  0  0  0  0
  8 17  1  0  0  0  0
  9  8  2  0  0  0  0
 10  9  1  0  0  0  0
 10 11  2  0  0  0  0
 11 12  1  0  0  0  0
 12 17  2  0  0  0  0
 12 13  1  0  0  0  0
 13 14  2  0  0  0  0
 14 15  1  0  0  0  0
 14 22  1  0  0  0  0
 15 23  1  0  0  0  0
 16 24  1  0  0  0  0
 16 15  2  0  0  0  0
 17 16  1  0  0  0  0
 18  9  1  0  0  0  0
 19 10  1  0  0  0  0
 20 11  1  0  0  0  0
 21 13  1  0  0  0  0
 25 31  1  0  0  0  0
 26 25  1  0  0  0  0
 26 32  1  0  0  0  0
 27 26  2  0  0  0  0
 28 29  2  0  0  0  0
 28 27  1  0  0  0  0
 29 30  1  0  0  0  0
 30 25  2  0  0  0  0
 33 42  1  0  0  0  0
 34 29  1  0  0  0  0
 34 33  2  0  0  0  0
 35 34  1  0  0  0  0
 36 35  1  0  0  0  0
 37 35  2  0  0  0  0
 37 39  1  0  0  0  0
 38 37  1  0  0  0  0
 39 40  2  0  0  0  0
 40 33  1  0  0  0  0
 41 44  1  0  0  0  0
 42 41  2  0  0  0  0
 42 43  1  0  0  0  0
 43 45  1  0  0  0  0
 43 46  1  0  0  0  0
M  END
>  <minimizedAffinity>
-6.78587627

$$$$

 OpenBabel03272509343D

 46 50  0  0  1  0  0  0  0  0999 V2000
   37.7540   27.2640   34.1950 C   0  0  1  0  0  0  0  0  0  0  0  0
   38.0850   27.2410   35.6250 C   0  0  0  0  0  0  0  0  0  0  0  0
   37.2800   26.1030   35.1060 C   0  0  2  0  0  0  0  0  0  0  0  0
   38.4500   26.9170   33.4580 H   0  0  0  0  0  0  0  0  0  0  0  0
   37.5560   28.0300   36.2420 H   0  0  0  0  0  0  0  0  0  0  0  0
   39.1710   27.2720   35.7860 H   0  0  0  0  0  0  0  0  0  0  0  0
   36.2320   25.9250   34.9340 H   0  0  0  0  0  0  0  0  0  0  0  0
   38.0760   24.8450   35.1470 C   0  0  0  0  0  0  0  0  0  0  0  0
   38.6280   24.6640   36.4160 C   0  0  0  0  0  0  0  0  0  0  0  0
   39.3410   23.5250   36.7270 C   0  0  0  0  0  0  0  0  0  0  0  0
   39.5270   22.5230   35.7780 C   0  0  0  0  0  0  0  0  0  0  0  0
   38.9720   22.7230   34.5350 C   0  0  0  0  0  0  0  0  0  0  0  0
   39.0880   21.8200   33.4990 C   0  0  0  0  0  0  0  0  0  0  0  0
   38.5430   22.0170   32.2440 C   0  0  0  0  0  0  0  0  0  0  0  0
   37.8370   23.1840   31.9970 C   0  0  0  0  0  0  0  0  0  0  0  0
   37.7140   24.0930   33.0210 C   0  0  0  0  0  0  0  0  0  0  0  0
   38.2720   23.8560   34.2510 C   0  0  0  0  0  0  0  0  0  0  0  0
   38.6590   25.1910   37.3490 H   0  0  0  0  0  0  0  0  0  0  0  0
   39.8290   23.2270   37.6440 H   0  0  0  0  0  0  0  0  0  0  0  0
   40.0560   21.5730   35.8520 H   0  0  0  0  0  0  0  0  0  0  0  0
   39.6380   20.8930   33.6650 H   0  0  0  0  0  0  0  0  0  0  0  0
   38.6780   21.2570   31.4790 H   0  0  0  0  0  0  0  0  0  0  0  0
   37.3970   23.3860   31.0490 H   0  0  0  0  0  0  0  0  0  0  0  0
   37.1480   25.0170   32.8070 H   0  0  0  0  0  0  0  0  0  0  0  0
   35.5910   29.3210   31.9370 C   0  0  0  0  0  0  0  0  0  0  0  0
   36.6160   28.4630   32.3870 C   0  0  0  0  0  0  0  0  0  0  0  0
   36.6420   28.1330   33.7430 C   0  0  0  0  0  0  0  0  0  0  0  0
   35.6840   28.6440   34.5720 N   0  0  0  0  0  0  0  0  0  0  0  0
   34.7180   29.4610   34.1160 C   0  0  0  0  0  0  0  0  0  0  0  0
   34.6730   29.8040   32.7780 N   0  0  0  0  0  0  0  0  0  0  0  0
   35.5910   29.5630   30.8840 H   0  0  0  0  0  0  0  0  0  0  0  0
   37.3460   28.0870   31.6840 H   0  0  0  0  0  0  0  0  0  0  0  0
   33.6550   30.9860   35.8370 C   0  0  0  0  0  0  0  0  0  0  0  0
   33.6160   30.0360   34.8590 C   0  0  0  0  0  0  0  0  0  0  0  0
   32.3020   29.6120   34.6390 C   0  0  0  0  0  0  0  0  0  0  0  0
   32.0930   28.8420   33.8770 H   0  0  0  0  0  0  0  0  0  0  0  0
   31.2060   30.0710   35.2950 C   0  0  0  0  0  0  0  0  0  0  0  0
   30.2180   29.7010   35.0740 H   0  0  0  0  0  0  0  0  0  0  0  0
   31.3250   31.0230   36.2590 C   0  0  0  0  0  3  0  0  0  0  0  0
   32.5830   31.4910   36.5360 C   0  0  0  0  0  3  0  0  0  0  0  0
   34.9850   32.2460   37.3770 N   0  0  0  0  0  0  0  0  0  0  0  0
   34.9210   31.5400   36.2630 C   0  0  0  0  0  0  0  0  0  0  0  0
   36.2930   31.7480   36.0840 N   0  0  0  0  0  0  0  0  0  0  0  0
   35.9180   32.6280   37.6450 H   0  0  0  0  0  0  0  0  0  0  0  0
   36.7340   32.5430   35.5290 H   0  0  0  0  0  0  0  0  0  0  0  0
   37.0800   31.1470   36.4690 H   0  0  0  0  0  0  0  0  0  0  0  0
  1  4  1  6  0  0  0
  1  3  1  0  0  0  0
  1  2  1  0  0  0  0
  2  6  1  0  0  0  0
  2  5  1  0  0  0  0
  3  7  1  1  0  0  0
  3  8  1  0  0  0  0
  3  2  1  0  0  0  0
  8  9  1  0  0  0  0
  9 10  2  0  0  0  0
  9 18  1  0  0  0  0
 10 19  1  0  0  0  0
 11 20  1  0  0  0  0
 11 10  1  0  0  0  0
 12 11  2  0  0  0  0
 13 21  1  0  0  0  0
 13 12  1  0  0  0  0
 14 13  2  0  0  0  0
 15 14  1  0  0  0  0
 15 16  2  0  0  0  0
 16 17  1  0  0  0  0
 17 12  1  0  0  0  0
 17  8  2  0  0  0  0
 22 14  1  0  0  0  0
 23 15  1  0  0  0  0
 24 16  1  0  0  0  0
 25 26  2  0  0  0  0
 25 30  1  0  0  0  0
 26 27  1  0  0  0  0
 27  1  1  0  0  0  0
 27 28  2  0  0  0  0
 29 28  1  0  0  0  0
 29 34  1  0  0  0  0
 30 29  2  0  0  0  0
 31 25  1  0  0  0  0
 32 26  1  0  0  0  0
 33 42  1  0  0  0  0
 33 40  1  0  0  0  0
 34 33  2  0  0  0  0
 35 34  1  0  0  0  0
 35 37  2  0  0  0  0
 36 35  1  0  0  0  0
 37 39  1  0  0  0  0
 38 37  1  0  0  0  0
 39 40  2  0  0  0  0
 41 44  1  0  0  0  0
 42 41  2  0  0  0  0
 43 42  1  0  0  0  0
 43 46  1  0  0  0  0
 45 43  1  0  0  0  0
M  END
>  <minimizedAffinity>
-6.78456211

$$$$

 OpenBabel03272509343D

 46 50  0  0  1  0  0  0  0  0999 V2000
   37.8380   25.7000   35.8390 C   0  0  1  0  0  0  0  0  0  0  0  0
   38.5650   26.9060   35.4260 C   0  0  0  0  0  0  0  0  0  0  0  0
   38.3480   25.8650   34.3850 C   0  0  2  0  0  0  0  0  0  0  0  0
   36.7660   25.6810   35.8720 H   0  0  0  0  0  0  0  0  0  0  0  0
   39.6020   27.0040   35.8720 H   0  0  0  0  0  0  0  0  0  0  0  0
   37.9700   27.8120   35.5970 H   0  0  0  0  0  0  0  0  0  0  0  0
   38.8600   24.9650   34.0880 H   0  0  0  0  0  0  0  0  0  0  0  0
   37.4100   26.3640   33.3420 C   0  0  0  0  0  0  0  0  0  0  0  0
   37.4360   27.7590   33.2970 C   0  0  0  0  0  0  0  0  0  0  0  0
   36.7110   28.4550   32.3520 C   0  0  0  0  0  0  0  0  0  0  0  0
   35.9350   27.7790   31.4140 C   0  0  0  0  0  0  0  0  0  0  0  0
   35.9270   26.4040   31.4770 C   0  0  0  0  0  0  0  0  0  0  0  0
   35.1950   25.6100   30.6190 C   0  0  0  0  0  0  0  0  0  0  0  0
   35.1730   24.2290   30.6810 C   0  0  0  0  0  0  0  0  0  0  0  0
   35.9240   23.5910   31.6550 C   0  0  0  0  0  0  0  0  0  0  0  0
   36.6590   24.3710   32.5170 C   0  0  0  0  0  0  0  0  0  0  0  0
   36.6510   25.7390   32.4200 C   0  0  0  0  0  0  0  0  0  0  0  0
   37.9180   28.5590   33.8220 H   0  0  0  0  0  0  0  0  0  0  0  0
   36.6170   29.5170   32.1780 H   0  0  0  0  0  0  0  0  0  0  0  0
   35.3080   28.1640   30.6100 H   0  0  0  0  0  0  0  0  0  0  0  0
   34.5940   26.0850   29.8420 H   0  0  0  0  0  0  0  0  0  0  0  0
   34.5690   23.6740   29.9680 H   0  0  0  0  0  0  0  0  0  0  0  0
   35.9430   22.5310   31.7470 H   0  0  0  0  0  0  0  0  0  0  0  0
   37.2520   23.8460   33.2870 H   0  0  0  0  0  0  0  0  0  0  0  0
   38.7080   23.2800   38.5590 C   0  0  0  0  0  0  0  0  0  0  0  0
   38.0080   24.2430   37.8020 C   0  0  0  0  0  0  0  0  0  0  0  0
   38.5720   24.6570   36.5940 C   0  0  0  0  0  0  0  0  0  0  0  0
   39.7620   24.1180   36.1940 N   0  0  0  0  0  0  0  0  0  0  0  0
   40.4070   23.2010   36.9370 C   0  0  0  0  0  0  0  0  0  0  0  0
   39.8700   22.7770   38.1380 N   0  0  0  0  0  0  0  0  0  0  0  0
   38.2530   22.9750   39.4910 H   0  0  0  0  0  0  0  0  0  0  0  0
   37.0690   24.6330   38.1680 H   0  0  0  0  0  0  0  0  0  0  0  0
   42.6980   22.9540   35.8850 C   0  0  0  0  0  0  0  0  0  0  0  0
   41.6400   22.5100   36.6220 C   0  0  0  0  0  0  0  0  0  0  0  0
   41.8640   21.2020   37.0630 C   0  0  0  0  0  0  0  0  0  0  0  0
   41.1020   20.6900   37.6750 H   0  0  0  0  0  0  0  0  0  0  0  0
   42.9730   20.4630   36.8050 C   0  0  0  0  0  0  0  0  0  0  0  0
   43.0820   19.4580   37.1780 H   0  0  0  0  0  0  0  0  0  0  0  0
   43.9890   20.9760   36.0620 C   0  0  0  0  0  3  0  0  0  0  0  0
   43.8460   22.2560   35.5900 C   0  0  0  0  0  3  0  0  0  0  0  0
   42.2860   24.4110   34.0320 N   0  0  0  0  0  0  0  0  0  0  0  0
   42.6680   24.2700   35.2870 C   0  0  0  0  0  0  0  0  0  0  0  0
   42.8620   25.6550   35.3560 N   0  0  0  0  0  0  0  0  0  0  0  0
   42.2820   25.3790   33.6410 H   0  0  0  0  0  0  0  0  0  0  0  0
   43.7760   26.1650   35.1590 H   0  0  0  0  0  0  0  0  0  0  0  0
   42.1340   26.3840   35.6160 H   0  0  0  0  0  0  0  0  0  0  0  0
  1  4  1  1  0  0  0
  1 27  1  0  0  0  0
  2  6  1  0  0  0  0
  2  1  1  0  0  0  0
  2  5  1  0  0  0  0
  3  7  1  6  0  0  0
  3  2  1  0  0  0  0
  3  1  1  0  0  0  0
  8  3  1  0  0  0  0
  9  8  1  0  0  0  0
  9 18  1  0  0  0  0
 10  9  2  0  0  0  0
 11 12  2  0  0  0  0
 11 10  1  0  0  0  0
 12 17  1  0  0  0  0
 13 14  2  0  0  0  0
 13 12  1  0  0  0  0
 14 15  1  0  0  0  0
 15 23  1  0  0  0  0
 15 16  2  0  0  0  0
 16 24  1  0  0  0  0
 17 16  1  0  0  0  0
 17  8  2  0  0  0  0
 19 10  1  0  0  0  0
 20 11  1  0  0  0  0
 21 13  1  0  0  0  0
 22 14  1  0  0  0  0
 25 31  1  0  0  0  0
 26 32  1  0  0  0  0
 26 25  2  0  0  0  0
 27 26  1  0  0  0  0
 28 27  2  0  0  0  0
 28 29  1  0  0  0  0
 29 30  2  0  0  0  0
 30 25  1  0  0  0  0
 33 34  1  0  0  0  0
 34 29  1  0  0  0  0
 34 35  2  0  0  0  0
 35 36  1  0  0  0  0
 37 35  1  0  0  0  0
 37 38  1  0  0  0  0
 39 37  2  0  0  0  0
 40 33  2  0  0  0  0
 40 39  1  0  0  0  0
 41 42  2  0  0  0  0
 42 43  1  0  0  0  0
 42 33  1  0  0  0  0
 43 46  1  0  0  0  0
 44 41  1  0  0  0  0
 45 43  1  0  0  0  0
M  END
>  <minimizedAffinity>
-6.78448009

$$$$

 OpenBabel03272509343D

 46 50  0  0  1  0  0  0  0  0999 V2000
   35.0420   30.3170   33.6640 C   0  0  1  0  0  0  0  0  0  0  0  0
   34.2080   29.8450   34.7750 C   0  0  0  0  0  0  0  0  0  0  0  0
   35.4420   30.5930   35.1350 C   0  0  2  0  0  0  0  0  0  0  0  0
   34.8160   31.2290   33.1480 H   0  0  0  0  0  0  0  0  0  0  0  0
   34.2060   28.7210   34.9150 H   0  0  0  0  0  0  0  0  0  0  0  0
   33.1850   30.2390   34.7060 H   0  0  0  0  0  0  0  0  0  0  0  0
   36.4790   30.3340   35.2720 H   0  0  0  0  0  0  0  0  0  0  0  0
   35.0930   31.9050   35.7460 C   0  0  0  0  0  0  0  0  0  0  0  0
   33.9910   31.7650   36.5920 C   0  0  0  0  0  0  0  0  0  0  0  0
   33.5280   32.8280   37.3400 C   0  0  0  0  0  0  0  0  0  0  0  0
   34.1530   34.0700   37.2700 C   0  0  0  0  0  0  0  0  0  0  0  0
   35.2380   34.1830   36.4310 C   0  0  0  0  0  0  0  0  0  0  0  0
   35.9420   35.3560   36.2560 C   0  0  0  0  0  0  0  0  0  0  0  0
   37.0270   35.4810   35.4080 C   0  0  0  0  0  0  0  0  0  0  0  0
   37.4420   34.3740   34.6850 C   0  0  0  0  0  0  0  0  0  0  0  0
   36.7470   33.1980   34.8500 C   0  0  0  0  0  0  0  0  0  0  0  0
   35.6770   33.1190   35.7020 C   0  0  0  0  0  0  0  0  0  0  0  0
   33.3190   30.9880   36.8950 H   0  0  0  0  0  0  0  0  0  0  0  0
   32.7010   32.8950   38.0320 H   0  0  0  0  0  0  0  0  0  0  0  0
   33.9220   35.0040   37.7820 H   0  0  0  0  0  0  0  0  0  0  0  0
   35.6380   36.2430   36.8120 H   0  0  0  0  0  0  0  0  0  0  0  0
   37.5300   36.4400   35.3250 H   0  0  0  0  0  0  0  0  0  0  0  0
   38.2700   34.4150   34.0180 H   0  0  0  0  0  0  0  0  0  0  0  0
   37.0920   32.3260   34.2660 H   0  0  0  0  0  0  0  0  0  0  0  0
   37.2400   28.7790   31.0530 C   0  0  0  0  0  0  0  0  0  0  0  0
   36.4150   29.7020   31.7300 C   0  0  0  0  0  0  0  0  0  0  0  0
   35.9390   29.3470   32.9930 C   0  0  0  0  0  0  0  0  0  0  0  0
   36.2880   28.1350   33.5210 N   0  0  0  0  0  0  0  0  0  0  0  0
   37.0750   27.2750   32.8520 C   0  0  0  0  0  0  0  0  0  0  0  0
   37.5570   27.6030   31.5990 N   0  0  0  0  0  0  0  0  0  0  0  0
   37.5960   29.0750   30.0760 H   0  0  0  0  0  0  0  0  0  0  0  0
   36.1750   30.6470   31.2640 H   0  0  0  0  0  0  0  0  0  0  0  0
   38.3470   25.7050   34.3800 C   0  0  0  0  0  0  0  0  0  0  0  0
   37.5640   25.9870   33.2990 C   0  0  0  0  0  0  0  0  0  0  0  0
   37.2750   24.8200   32.5850 C   0  0  0  0  0  0  0  0  0  0  0  0
   36.6490   24.8720   31.6770 H   0  0  0  0  0  0  0  0  0  0  0  0
   37.7020   23.5730   32.9070 C   0  0  0  0  0  0  0  0  0  0  0  0
   37.4390   22.7140   32.3120 H   0  0  0  0  0  0  0  0  0  0  0  0
   38.4800   23.3700   34.0040 C   0  0  0  0  0  3  0  0  0  0  0  0
   38.8100   24.4660   34.7590 C   0  0  0  0  0  3  0  0  0  0  0  0
   40.0980   27.0460   35.3090 N   0  0  0  0  0  0  0  0  0  0  0  0
   38.8090   26.7690   35.2420 C   0  0  0  0  0  0  0  0  0  0  0  0
   38.5690   27.7910   36.1680 N   0  0  0  0  0  0  0  0  0  0  0  0
   40.3860   27.8200   35.9460 H   0  0  0  0  0  0  0  0  0  0  0  0
   38.5170   27.6720   37.2250 H   0  0  0  0  0  0  0  0  0  0  0  0
   38.4020   28.8170   35.9490 H   0  0  0  0  0  0  0  0  0  0  0  0
  1  4  1  6  0  0  0
  1  2  1  0  0  0  0
  1  3  1  0  0  0  0
  2  5  1  0  0  0  0
  2  3  1  0  0  0  0
  3  7  1  1  0  0  0
  3  8  1  0  0  0  0
  6  2  1  0  0  0  0
  8  9  1  0  0  0  0
  9 18  1  0  0  0  0
  9 10  2  0  0  0  0
 10 19  1  0  0  0  0
 11 10  1  0  0  0  0
 11 20  1  0  0  0  0
 12 11  2  0  0  0  0
 13 12  1  0  0  0  0
 13 21  1  0  0  0  0
 14 13  2  0  0  0  0
 15 16  2  0  0  0  0
 15 14  1  0  0  0  0
 16 17  1  0  0  0  0
 17  8  2  0  0  0  0
 17 12  1  0  0  0  0
 22 14  1  0  0  0  0
 23 15  1  0  0  0  0
 24 16  1  0  0  0  0
 25 30  2  0  0  0  0
 25 26  1  0  0  0  0
 26 27  2  0  0  0  0
 27 28  1  0  0  0  0
 27  1  1  0  0  0  0
 29 34  1  0  0  0  0
 29 28  2  0  0  0  0
 30 29  1  0  0  0  0
 31 25  1  0  0  0  0
 32 26  1  0  0  0  0
 33 40  1  0  0  0  0
 33 42  1  0  0  0  0
 34 33  2  0  0  0  0
 35 37  2  0  0  0  0
 35 34  1  0  0  0  0
 36 35  1  0  0  0  0
 37 39  1  0  0  0  0
 38 37  1  0  0  0  0
 39 40  2  0  0  0  0
 41 44  1  0  0  0  0
 42 41  2  0  0  0  0
 42 43  1  0  0  0  0
 43 45  1  0  0  0  0
 46 43  1  0  0  0  0
M  END
>  <minimizedAffinity>
-6.7801857

$$$$
