REMARK  Name = 
REMARK  6 active torsions:
REMARK  status: ('A' for Active; 'I' for Inactive)
REMARK    1  A    between atoms: C_1  and  C_2
REMARK    2  A    between atoms: C_1  and  C_11
REMARK    3  A    between atoms: N_5  and  C_7
REMARK    4  A    between atoms: C_11  and  C_12
REMARK    5  A    between atoms: C_16  and  C_30
REMARK    6  A    between atoms: C_27  and  C_29
REMARK                            x       y       z     vdW  Elec       q    Type
REMARK                         _______ _______ _______ _____ _____    ______ ____
ROOT
ATOM      1  C   UNL     1      39.810  31.768  45.022  0.00  0.00    +0.000 A 
ATOM      2  C   UNL     1      39.249  32.864  44.453  0.00  0.00    +0.000 A 
ATOM      3  C   UNL     1      39.206  33.028  43.065  0.00  0.00    +0.000 A 
ATOM      4  N   UNL     1      39.769  32.005  42.341  0.00  0.00    +0.000 NA
ATOM      5  C   UNL     1      40.320  30.926  42.907  0.00  0.00    +0.000 A 
ATOM      6  N   UNL     1      40.320  30.847  44.245  0.00  0.00    +0.000 NA
ATOM      7  H   UNL     1      38.795  33.698  44.968  0.00  0.00    +0.000 HD
ATOM      8  H   UNL     1      38.778  33.869  42.565  0.00  0.00    +0.000 HD
ENDROOT
BRANCH   5  10
ATOM      9  C   UNL     1      40.434  29.482  40.964  0.00  0.00    +0.000 A 
ATOM     10  C   UNL     1      40.931  29.806  42.200  0.00  0.00    +0.000 A 
ATOM     11  C   UNL     1      41.980  29.080  42.730  0.00  0.00    +0.000 A 
ATOM     12  H   UNL     1      42.370  29.329  43.693  0.00  0.00    +0.000 HD
ATOM     13  C   UNL     1      42.476  28.046  41.969  0.00  0.00    +0.000 A 
ATOM     14  H   UNL     1      43.294  27.510  42.428  0.00  0.00    +0.000 HD
ATOM     15  C   UNL     1      42.026  27.661  40.716  0.00  0.00    +0.000 A 
ATOM     16  C   UNL     1      40.981  28.418  40.235  0.00  0.00    +0.000 A 
BRANCH   9  18
ATOM     17  N   UNL     1      39.393  30.229  38.932  0.00  0.00    +0.000 NA
ATOM     18  C   UNL     1      39.340  30.088  40.238  0.00  0.00    +0.000 C 
ATOM     19  N   UNL     1      38.053  30.661  40.332  0.00  0.00    +0.000 N 
ATOM     20  H   UNL     1      38.597  30.655  38.430  0.00  0.00    +0.000 HD
ATOM     21  H   UNL     1      37.240  30.012  40.546  0.00  0.00    +0.000 HD
ATOM     22  H   UNL     1      37.724  31.642  40.229  0.00  0.00    +0.000 HD
ENDBRANCH   9  18
ENDBRANCH   5  10
BRANCH   1  23
ATOM     23  C   UNL     1      39.845  31.618  46.448  0.00  0.00    +0.000 C 
ATOM     24  H   UNL     1      40.867  31.951  46.800  0.00  0.00    +0.000 HD
ATOM     25  H   UNL     1      39.837  30.519  46.711  0.00  0.00    +0.000 HD
BRANCH  23  26
ATOM     26  C   UNL     1      38.831  32.256  47.290  0.00  0.00    +0.000 C 
ATOM     27  H   UNL     1      38.120  32.840  46.672  0.00  0.00    +0.000 HD
ATOM     28  H   UNL     1      39.272  33.020  47.995  0.00  0.00    +0.000 HD
BRANCH  26  29
ATOM     29  C   UNL     1      38.066  31.336  48.165  0.00  0.00    +0.000 A 
ATOM     30  C   UNL     1      36.970  30.651  47.664  0.00  0.00    +0.000 A 
ATOM     31  C   UNL     1      36.452  29.878  48.677  0.00  0.00    +0.000 A 
ATOM     32  N   UNL     1      37.225  30.102  49.752  0.00  0.00    +0.000 N 
ATOM     33  N   UNL     1      38.164  30.962  49.423  0.00  0.00    +0.000 NA
ATOM     34  H   UNL     1      36.505  30.637  46.680  0.00  0.00    +0.000 HD
ATOM     35  H   UNL     1      35.598  29.215  48.645  0.00  0.00    +0.000 HD
BRANCH  32  36
ATOM     36  C   UNL     1      37.085  29.513  51.089  0.00  0.00    +0.000 C 
ATOM     37  F   UNL     1      37.860  28.389  51.196  0.00  0.00    +0.000 F 
ATOM     38  F   UNL     1      35.769  29.192  51.375  0.00  0.00    +0.000 F 
ATOM     39  F   UNL     1      37.519  30.409  52.053  0.00  0.00    +0.000 F 
ENDBRANCH  32  36
ENDBRANCH  26  29
ENDBRANCH  23  26
ENDBRANCH   1  23
TORSDOF 6
