REMARK  Name = 
REMARK  2 active torsions:
REMARK  status: ('A' for Active; 'I' for Inactive)
REMARK    1  A    between atoms: C_5  and  C_14
REMARK    2  A    between atoms: C_11  and  C_13
REMARK                            x       y       z     vdW  Elec       q    Type
REMARK                         _______ _______ _______ _____ _____    ______ ____
ROOT
ATOM      1  C   UNL     1      33.428  28.623  50.257  0.00  0.00    +0.000 A 
ATOM      2  C   UNL     1      34.667  28.241  49.792  0.00  0.00    +0.000 A 
ATOM      3  C   UNL     1      34.728  27.004  49.179  0.00  0.00    +0.000 A 
ATOM      4  H   UNL     1      35.692  26.666  48.798  0.00  0.00    +0.000 HD
ATOM      5  C   UNL     1      33.588  26.268  49.081  0.00  0.00    +0.000 A 
ATOM      6  H   UNL     1      33.718  25.314  48.591  0.00  0.00    +0.000 HD
ATOM      7  C   UNL     1      32.346  26.647  49.546  0.00  0.00    +0.000 A 
ATOM      8  C   UNL     1      32.271  27.879  50.159  0.00  0.00    +0.000 A 
ENDROOT
BRANCH   2  13
ATOM      9  C   UNL     1      37.299  30.184  51.416  0.00  0.00    +0.000 A 
ATOM     10  C   UNL     1      38.069  30.681  50.344  0.00  0.00    +0.000 A 
ATOM     11  C   UNL     1      37.671  30.338  49.053  0.00  0.00    +0.000 A 
ATOM     12  N   UNL     1      36.575  29.554  48.903  0.00  0.00    +0.000 NA
ATOM     13  C   UNL     1      35.849  29.087  49.932  0.00  0.00    +0.000 A 
ATOM     14  N   UNL     1      36.232  29.417  51.179  0.00  0.00    +0.000 NA
ATOM     15  H   UNL     1      37.630  30.464  52.389  0.00  0.00    +0.000 HD
ATOM     16  H   UNL     1      38.948  31.308  50.419  0.00  0.00    +0.000 HD
ATOM     17  H   UNL     1      38.164  30.646  48.147  0.00  0.00    +0.000 HD
ENDBRANCH   2  13
BRANCH   1  19
ATOM     18  N   UNL     1      33.470  30.924  51.627  0.00  0.00    +0.000 NA
ATOM     19  C   UNL     1      33.234  29.887  50.920  0.00  0.00    +0.000 C 
ATOM     20  N   UNL     1      32.063  30.667  50.892  0.00  0.00    +0.000 N 
ATOM     21  H   UNL     1      32.705  31.656  51.740  0.00  0.00    +0.000 HD
ATOM     22  H   UNL     1      31.348  30.362  50.192  0.00  0.00    +0.000 HD
ATOM     23  H   UNL     1      31.125  30.864  50.495  0.00  0.00    +0.000 HD
ENDBRANCH   1  19
TORSDOF 2
