
     RDKit          3D

 49 52  0  0  0  0  0  0  0  0999 V2000
   34.6279   30.0508   45.6591 N   0  0  0  0  0  0  0  0  0  0  0  0
   35.0348   30.0711   47.0612 C   0  0  0  0  0  0  0  0  0  0  0  0
   36.2690   30.8086   47.3285 C   0  0  2  0  0  0  0  0  0  0  0  0
   37.3275   30.4968   46.3295 N   0  0  0  0  0  0  0  0  0  0  0  0
   36.7550   30.7728   44.9947 C   0  0  0  0  0  0  0  0  0  0  0  0
   35.7262   29.6762   44.8378 C   0  0  0  0  0  0  0  0  0  0  0  0
   33.3086   30.3541   45.2394 C   0  0  0  0  0  0  0  0  0  0  0  0
   33.0480   31.0680   44.0695 C   0  0  0  0  0  0  0  0  0  0  0  0
   31.7238   31.3193   43.7257 C   0  0  0  0  0  0  0  0  0  0  0  0
   30.7299   30.8443   44.5689 N   0  0  0  0  0  0  0  0  0  0  0  0
   31.0397   30.1582   45.6900 C   0  0  0  0  0  0  0  0  0  0  0  0
   32.2930   29.9118   46.0294 N   0  0  0  0  0  0  0  0  0  0  0  0
   38.2523   32.7189   48.4449 Cl  0  0  0  0  0  0  0  0  0  0  0  0
   37.6674   31.2926   49.3024 C   0  0  0  0  0  0  0  0  0  0  0  0
   36.7704   30.4885   48.6536 C   0  0  0  0  0  0  0  0  0  0  0  0
   36.2096   29.3277   49.2125 C   0  0  0  0  0  0  0  0  0  0  0  0
   36.6307   29.0170   50.5126 C   0  0  0  0  0  0  0  0  0  0  0  0
   37.5472   29.8294   51.1800 C   0  0  0  0  0  0  0  0  0  0  0  0
   38.0569   30.9639   50.5632 C   0  0  0  0  0  0  0  0  0  0  0  0
   34.1875   30.3907   47.6616 H   0  0  0  0  0  0  0  0  0  0  0  0
   35.2866   28.9631   47.1986 H   0  0  0  0  0  0  0  0  0  0  0  0
   36.2159   31.9045   47.1968 H   0  0  0  0  0  0  0  0  0  0  0  0
   38.0888   31.1637   46.4447 H   0  0  0  0  0  0  0  0  0  0  0  0
   37.5311   30.7835   44.2310 H   0  0  0  0  0  0  0  0  0  0  0  0
   36.2556   31.7706   44.9833 H   0  0  0  0  0  0  0  0  0  0  0  0
   36.2082   28.7230   45.1518 H   0  0  0  0  0  0  0  0  0  0  0  0
   35.4489   29.6379   43.7680 H   0  0  0  0  0  0  0  0  0  0  0  0
   33.8701   31.4080   43.4601 H   0  0  0  0  0  0  0  0  0  0  0  0
   31.4983   31.8641   42.8340 H   0  0  0  0  0  0  0  0  0  0  0  0
   30.2341   29.8086   46.3148 H   0  0  0  0  0  0  0  0  0  0  0  0
   35.5210   28.5615   48.9547 H   0  0  0  0  0  0  0  0  0  0  0  0
   36.3560   28.2032   51.1412 H   0  0  0  0  0  0  0  0  0  0  0  0
   37.9344   29.6785   52.1769 H   0  0  0  0  0  0  0  0  0  0  0  0
   36.6965   33.1609   49.9231 N   0  0  0  0  0  0  0  0  0  0  0  0
   37.3379   33.6686   50.9469 C   0  0  0  0  0  0  0  0  0  0  0  0
   36.6562   34.7375   51.5935 N   0  0  0  0  0  0  0  0  0  0  0  0
   38.6403   33.1738   51.3803 C   0  0  0  0  0  0  0  0  0  0  0  0
   39.0148   31.8543   51.2034 C   0  0  0  0  0  0  0  0  0  0  0  0
   40.2785   31.4483   51.6429 C   0  0  0  0  0  0  0  0  0  0  0  0
   40.5337   30.4038   51.4852 H   0  0  0  0  0  0  0  0  0  0  0  0
   41.1439   32.3592   52.2485 C   0  0  0  0  0  0  0  0  0  0  0  0
   42.1077   32.0268   52.5779 H   0  0  0  0  0  0  0  0  0  0  0  0
   40.7271   33.6690   52.4047 C   0  0  0  0  0  0  0  0  0  0  0  0
   39.4751   34.1138   51.9802 C   0  0  0  0  0  0  0  0  0  0  0  0
   35.7699   33.6243   49.7349 H   0  0  0  0  0  0  0  0  0  0  0  0
   35.8744   35.0547   52.1812 H   0  0  0  0  0  0  0  0  0  0  0  0
   37.2991   35.5245   51.2879 H   0  0  0  0  0  0  0  0  0  0  0  0
   41.3681   34.4059   52.8693 H   0  0  0  0  0  0  0  0  0  0  0  0
   39.1539   35.1408   52.1051 H   0  0  0  0  0  0  0  0  0  0  0  0
  1  2  1  0
  2  3  1  0
  3 15  1  0
  4  3  1  0
  5  4  1  0
  6  5  1  0
  6  1  1  0
  7  1  1  0
  7 12  1  0
  8  7  2  0
  9  8  1  0
  9 10  2  0
 10 11  1  0
 11 12  2  0
 13 14  1  0
 14 19  2  0
 15 16  2  0
 15 14  1  0
 16 17  1  0
 17 18  2  0
 19 18  1  0
  2 20  1  0
  2 21  1  0
  3 22  1  1
  4 23  1  0
  5 24  1  0
  5 25  1  0
  6 26  1  0
  6 27  1  0
  8 28  1  0
  9 29  1  0
 11 30  1  0
 16 31  1  0
 17 32  1  0
 18 33  1  0
 34 35  2  3
 35 36  1  0
 35 37  1  0
 37 38  2  0
 38 39  1  0
 39 40  1  0
 39 41  2  0
 41 42  1  0
 41 43  1  0
 43 44  2  0
 44 37  1  0
 34 45  1  0
 36 46  1  0
 36 47  1  0
 43 48  1  0
 44 49  1  0
 19 38  1  0
M  ISO  8  20  13  21  13  22  13  23   5  24  13  25  13  26  13  27  13
M  ISO  8  28  14  29  14  30  14  31  14  32  14  33  14  40  15  42  16
M  END
>  <DihAtoms>  (1) 
13,18,37,36

>  <DihDeg>  (1) 
-89.99389727519099

$$$$
