
 OpenBabel03272506073D

 35 37  0  0  0  0  0  0  0  0999 V2000
   38.7530   23.5710   33.0500 C   0  0  0  0  0  0  0  0  0  0  0  0
   39.7760   23.9640   32.1110 C   0  0  0  0  0  0  0  0  0  0  0  0
   39.2970   25.6300   31.7800 S   0  0  0  0  0  0  0  0  0  0  0  0
   37.8120   25.5970   32.9210 C   0  0  0  0  0  0  0  0  0  0  0  0
   37.8670   24.4830   33.3430 N   0  0  0  0  0  0  0  0  0  0  0  0
   40.5880   23.3440   31.7520 H   0  0  0  0  0  0  0  0  0  0  0  0
   36.9590   27.4880   34.2060 C   0  0  0  0  0  0  0  0  0  0  0  0
   37.0080   26.8280   33.0170 C   0  0  0  0  0  0  0  0  0  0  0  0
   36.2930   27.3560   31.9670 C   0  0  0  0  0  0  0  0  0  0  0  0
   36.3150   26.8500   31.0110 H   0  0  0  0  0  0  0  0  0  0  0  0
   35.5770   28.4960   32.1470 C   0  0  0  0  0  0  0  0  0  0  0  0
   35.0360   28.8620   31.2870 H   0  0  0  0  0  0  0  0  0  0  0  0
   35.5380   29.1480   33.3510 C   0  0  0  0  0  3  0  0  0  0  0  0
   36.2430   28.6460   34.4210 C   0  0  0  0  0  3  0  0  0  0  0  0
   38.0130   26.0110   36.1030 N   0  0  0  0  0  0  0  0  0  0  0  0
   37.6890   26.9870   35.3330 C   0  0  0  0  0  0  0  0  0  0  0  0
   38.5320   27.8570   36.1160 N   0  0  0  0  0  0  0  0  0  0  0  0
   38.6690   26.1720   36.8970 H   0  0  0  0  0  0  0  0  0  0  0  0
   38.5570   28.3710   37.0460 H   0  0  0  0  0  0  0  0  0  0  0  0
   39.4660   28.1250   35.6910 H   0  0  0  0  0  0  0  0  0  0  0  0
   38.7880   22.1790   33.6050 C   0  0  0  0  0  0  0  0  0  0  0  0
   38.6400   21.4380   32.7930 H   0  0  0  0  0  0  0  0  0  0  0  0
   39.8270   21.9650   33.9960 H   0  0  0  0  0  0  0  0  0  0  0  0
   37.7560   21.9640   34.6530 C   0  0  0  0  0  0  0  0  0  0  0  0
   36.8460   22.5300   34.4460 H   0  0  0  0  0  0  0  0  0  0  0  0
   37.4420   20.8860   34.7040 H   0  0  0  0  0  0  0  0  0  0  0  0
   40.0000   22.6820   37.5130 C   0  0  0  0  0  0  0  0  0  0  0  0
   39.1410   23.2150   38.4710 C   0  0  0  0  0  0  0  0  0  0  0  0
   37.7830   23.3250   38.1250 C   0  0  0  0  0  0  0  0  0  0  0  0
   37.3990   22.9080   36.8900 N   0  0  0  0  0  0  0  0  0  0  0  0
   38.2890   22.3980   36.0010 C   0  0  0  0  0  0  0  0  0  0  0  0
   39.5840   22.2820   36.3040 N   0  0  0  0  0  0  0  0  0  0  0  0
   41.0450   22.5740   37.7190 H   0  0  0  0  0  0  0  0  0  0  0  0
   39.5430   23.5160   39.4220 H   0  0  0  0  0  0  0  0  0  0  0  0
   37.1000   23.7320   38.8440 H   0  0  0  0  0  0  0  0  0  0  0  0
  1  5  1  0  0  0  0
  1 21  1  0  0  0  0
  2  1  2  0  0  0  0
  3  2  1  0  0  0  0
  3  4  1  0  0  0  0
  4  8  1  0  0  0  0
  4  5  2  0  0  0  0
  6  2  1  0  0  0  0
  7 14  1  0  0  0  0
  7 16  1  0  0  0  0
  8  7  2  0  0  0  0
  9 11  2  0  0  0  0
  9  8  1  0  0  0  0
 10  9  1  0  0  0  0
 11 13  1  0  0  0  0
 12 11  1  0  0  0  0
 13 14  2  0  0  0  0
 15 18  1  0  0  0  0
 16 15  2  0  0  0  0
 16 17  1  0  0  0  0
 17 19  1  0  0  0  0
 20 17  1  0  0  0  0
 21 23  1  0  0  0  0
 21 24  1  0  0  0  0
 22 21  1  0  0  0  0
 24 26  1  0  0  0  0
 24 31  1  0  0  0  0
 25 24  1  0  0  0  0
 27 33  1  0  0  0  0
 27 28  1  0  0  0  0
 28 34  1  0  0  0  0
 29 28  2  0  0  0  0
 29 35  1  0  0  0  0
 30 29  1  0  0  0  0
 31 32  1  0  0  0  0
 31 30  2  0  0  0  0
 32 27  2  0  0  0  0
M  END
>  <minimizedAffinity>
-5.57247686

$$$$

 OpenBabel03272506073D

 35 37  0  0  0  0  0  0  0  0999 V2000
   38.7110   24.4090   33.3150 C   0  0  0  0  0  0  0  0  0  0  0  0
   39.9780   25.0660   33.1010 C   0  0  0  0  0  0  0  0  0  0  0  0
   39.4700   26.7560   33.0660 S   0  0  0  0  0  0  0  0  0  0  0  0
   37.6560   26.3820   33.3380 C   0  0  0  0  0  0  0  0  0  0  0  0
   37.6720   25.1920   33.4100 N   0  0  0  0  0  0  0  0  0  0  0  0
   40.9410   24.5830   32.9980 H   0  0  0  0  0  0  0  0  0  0  0  0
   35.9820   27.8210   32.2960 C   0  0  0  0  0  0  0  0  0  0  0  0
   36.7310   27.5280   33.3940 C   0  0  0  0  0  0  0  0  0  0  0  0
   36.5800   28.3320   34.5000 C   0  0  0  0  0  0  0  0  0  0  0  0
   37.1640   28.1210   35.3850 H   0  0  0  0  0  0  0  0  0  0  0  0
   35.7050   29.3700   34.4610 C   0  0  0  0  0  0  0  0  0  0  0  0
   35.6290   29.9660   35.3590 H   0  0  0  0  0  0  0  0  0  0  0  0
   34.9570   29.6510   33.3480 C   0  0  0  0  0  3  0  0  0  0  0  0
   35.0860   28.8650   32.2250 C   0  0  0  0  0  3  0  0  0  0  0  0
   36.0070   25.8670   30.5430 N   0  0  0  0  0  0  0  0  0  0  0  0
   36.0950   27.0130   31.1170 C   0  0  0  0  0  0  0  0  0  0  0  0
   36.4880   27.5920   29.8560 N   0  0  0  0  0  0  0  0  0  0  0  0
   36.2200   25.7790   29.5260 H   0  0  0  0  0  0  0  0  0  0  0  0
   37.3220   27.6640   29.2010 H   0  0  0  0  0  0  0  0  0  0  0  0
   35.7530   28.1560   29.3410 H   0  0  0  0  0  0  0  0  0  0  0  0
   38.6890   22.9140   33.4120 C   0  0  0  0  0  0  0  0  0  0  0  0
   38.4020   22.4700   32.4360 H   0  0  0  0  0  0  0  0  0  0  0  0
   39.7410   22.5410   33.5920 H   0  0  0  0  0  0  0  0  0  0  0  0
   37.7520   22.4300   34.4590 C   0  0  0  0  0  0  0  0  0  0  0  0
   36.7870   22.9370   34.4020 H   0  0  0  0  0  0  0  0  0  0  0  0
   37.5320   21.3340   34.3390 H   0  0  0  0  0  0  0  0  0  0  0  0
   40.0440   22.5320   37.3700 C   0  0  0  0  0  0  0  0  0  0  0  0
   39.2940   23.1810   38.3480 C   0  0  0  0  0  0  0  0  0  0  0  0
   37.9930   23.5820   37.9980 C   0  0  0  0  0  0  0  0  0  0  0  0
   37.5540   23.3150   36.7400 N   0  0  0  0  0  0  0  0  0  0  0  0
   38.3380   22.6790   35.8320 C   0  0  0  0  0  0  0  0  0  0  0  0
   39.5770   22.2850   36.1380 N   0  0  0  0  0  0  0  0  0  0  0  0
   41.0410   22.2020   37.5770 H   0  0  0  0  0  0  0  0  0  0  0  0
   39.7310   23.3450   39.3160 H   0  0  0  0  0  0  0  0  0  0  0  0
   37.3940   24.0840   38.7320 H   0  0  0  0  0  0  0  0  0  0  0  0
  1  5  1  0  0  0  0
  1 21  1  0  0  0  0
  2  1  2  0  0  0  0
  3  2  1  0  0  0  0
  3  4  1  0  0  0  0
  4  8  1  0  0  0  0
  4  5  2  0  0  0  0
  6  2  1  0  0  0  0
  7  8  1  0  0  0  0
  8  9  2  0  0  0  0
  9 10  1  0  0  0  0
 11  9  1  0  0  0  0
 11 12  1  0  0  0  0
 13 11  2  0  0  0  0
 14  7  2  0  0  0  0
 14 13  1  0  0  0  0
 15 16  2  0  0  0  0
 16  7  1  0  0  0  0
 17 16  1  0  0  0  0
 18 15  1  0  0  0  0
 19 17  1  0  0  0  0
 20 17  1  0  0  0  0
 21 23  1  0  0  0  0
 21 24  1  0  0  0  0
 22 21  1  0  0  0  0
 24 31  1  0  0  0  0
 25 24  1  0  0  0  0
 26 24  1  0  0  0  0
 27 33  1  0  0  0  0
 27 28  1  0  0  0  0
 28 34  1  0  0  0  0
 29 28  2  0  0  0  0
 29 35  1  0  0  0  0
 30 29  1  0  0  0  0
 31 32  1  0  0  0  0
 31 30  2  0  0  0  0
 32 27  2  0  0  0  0
M  END
>  <minimizedAffinity>
-5.55953836

$$$$

 OpenBabel03272506073D

 35 37  0  0  0  0  0  0  0  0999 V2000
   37.5520   24.8480   33.1580 C   0  0  0  0  0  0  0  0  0  0  0  0
   36.7100   25.5580   32.2250 C   0  0  0  0  0  0  0  0  0  0  0  0
   35.9040   24.2100   31.4180 S   0  0  0  0  0  0  0  0  0  0  0  0
   36.7780   22.8850   32.4130 C   0  0  0  0  0  0  0  0  0  0  0  0
   37.4690   23.5470   33.1250 N   0  0  0  0  0  0  0  0  0  0  0  0
   36.6450   26.6320   32.1090 H   0  0  0  0  0  0  0  0  0  0  0  0
   36.2760   20.6120   33.1440 C   0  0  0  0  0  0  0  0  0  0  0  0
   36.4410   21.4830   32.1120 C   0  0  0  0  0  0  0  0  0  0  0  0
   36.2850   20.9940   30.8360 C   0  0  0  0  0  0  0  0  0  0  0  0
   36.4120   21.6660   29.9980 H   0  0  0  0  0  0  0  0  0  0  0  0
   35.9760   19.6840   30.6510 C   0  0  0  0  0  0  0  0  0  0  0  0
   35.8660   19.3590   29.6270 H   0  0  0  0  0  0  0  0  0  0  0  0
   35.8120   18.8200   31.7010 C   0  0  0  0  0  3  0  0  0  0  0  0
   35.9620   19.2790   32.9900 C   0  0  0  0  0  3  0  0  0  0  0  0
   37.0660   21.7420   35.3770 N   0  0  0  0  0  0  0  0  0  0  0  0
   36.4210   21.0670   34.4950 C   0  0  0  0  0  0  0  0  0  0  0  0
   35.4710   20.6850   35.5120 N   0  0  0  0  0  0  0  0  0  0  0  0
   36.7250   21.7680   36.3620 H   0  0  0  0  0  0  0  0  0  0  0  0
   35.3650   20.0300   36.3420 H   0  0  0  0  0  0  0  0  0  0  0  0
   34.5320   21.1770   35.4980 H   0  0  0  0  0  0  0  0  0  0  0  0
   38.4340   25.6440   34.0720 C   0  0  0  0  0  0  0  0  0  0  0  0
   39.4510   25.2010   34.1040 H   0  0  0  0  0  0  0  0  0  0  0  0
   38.5890   26.6730   33.6300 H   0  0  0  0  0  0  0  0  0  0  0  0
   37.8920   25.7190   35.4540 C   0  0  0  0  0  0  0  0  0  0  0  0
   38.0810   26.6930   35.9080 H   0  0  0  0  0  0  0  0  0  0  0  0
   36.7760   25.5870   35.4640 H   0  0  0  0  0  0  0  0  0  0  0  0
   38.6380   23.3910   38.2380 C   0  0  0  0  0  0  0  0  0  0  0  0
   39.7800   22.7230   37.8020 C   0  0  0  0  0  0  0  0  0  0  0  0
   40.2910   23.0810   36.5430 C   0  0  0  0  0  0  0  0  0  0  0  0
   39.6450   24.0460   35.8380 N   0  0  0  0  0  0  0  0  0  0  0  0
   38.5340   24.6580   36.3200 C   0  0  0  0  0  0  0  0  0  0  0  0
   38.0270   24.3380   37.5140 N   0  0  0  0  0  0  0  0  0  0  0  0
   38.2010   23.1610   39.1890 H   0  0  0  0  0  0  0  0  0  0  0  0
   40.2180   21.9730   38.4360 H   0  0  0  0  0  0  0  0  0  0  0  0
   41.1690   22.5820   36.1840 H   0  0  0  0  0  0  0  0  0  0  0  0
  1 21  1  0  0  0  0
  2  1  2  0  0  0  0
  3  2  1  0  0  0  0
  3  4  1  0  0  0  0
  4  5  2  0  0  0  0
  5  1  1  0  0  0  0
  6  2  1  0  0  0  0
  7 16  1  0  0  0  0
  8  4  1  0  0  0  0
  8  7  2  0  0  0  0
  9  8  1  0  0  0  0
 10  9  1  0  0  0  0
 11  9  2  0  0  0  0
 11 13  1  0  0  0  0
 12 11  1  0  0  0  0
 13 14  2  0  0  0  0
 14  7  1  0  0  0  0
 15 18  1  0  0  0  0
 16 15  2  0  0  0  0
 16 17  1  0  0  0  0
 17 19  1  0  0  0  0
 20 17  1  0  0  0  0
 21 22  1  0  0  0  0
 21 24  1  0  0  0  0
 23 21  1  0  0  0  0
 24 26  1  0  0  0  0
 24 25  1  0  0  0  0
 24 31  1  0  0  0  0
 27 33  1  0  0  0  0
 28 27  1  0  0  0  0
 28 34  1  0  0  0  0
 29 28  2  0  0  0  0
 30 31  2  0  0  0  0
 30 29  1  0  0  0  0
 31 32  1  0  0  0  0
 32 27  2  0  0  0  0
 35 29  1  0  0  0  0
M  END
>  <minimizedAffinity>
-5.42016649

$$$$

 OpenBabel03272506073D

 35 37  0  0  0  0  0  0  0  0999 V2000
   38.9280   25.9320   34.8120 C   0  0  0  0  0  0  0  0  0  0  0  0
   39.9070   26.8850   34.3460 C   0  0  0  0  0  0  0  0  0  0  0  0
   41.4030   26.0070   34.6750 S   0  0  0  0  0  0  0  0  0  0  0  0
   40.5480   24.4980   35.3810 C   0  0  0  0  0  0  0  0  0  0  0  0
   39.4020   24.8140   35.2880 N   0  0  0  0  0  0  0  0  0  0  0  0
   39.7010   27.8590   33.9220 H   0  0  0  0  0  0  0  0  0  0  0  0
   40.8920   22.4820   36.7130 C   0  0  0  0  0  0  0  0  0  0  0  0
   41.4050   23.3900   35.8390 C   0  0  0  0  0  0  0  0  0  0  0  0
   42.7080   23.2170   35.4340 C   0  0  0  0  0  0  0  0  0  0  0  0
   43.1400   23.9250   34.7400 H   0  0  0  0  0  0  0  0  0  0  0  0
   43.4260   22.1660   35.9100 C   0  0  0  0  0  0  0  0  0  0  0  0
   44.4430   22.0830   35.5560 H   0  0  0  0  0  0  0  0  0  0  0  0
   42.8940   21.2600   36.7890 C   0  0  0  0  0  3  0  0  0  0  0  0
   41.5930   21.4060   37.2130 C   0  0  0  0  0  3  0  0  0  0  0  0
   38.2770   22.5810   36.9180 N   0  0  0  0  0  0  0  0  0  0  0  0
   39.5370   22.6090   37.1640 C   0  0  0  0  0  0  0  0  0  0  0  0
   39.2410   22.9170   38.5420 N   0  0  0  0  0  0  0  0  0  0  0  0
   37.5940   22.7640   37.6840 H   0  0  0  0  0  0  0  0  0  0  0  0
   38.9260   23.7200   39.1620 H   0  0  0  0  0  0  0  0  0  0  0  0
   39.3480   22.1270   39.2410 H   0  0  0  0  0  0  0  0  0  0  0  0
   37.4760   26.2910   34.7110 C   0  0  0  0  0  0  0  0  0  0  0  0
   36.8480   25.4640   35.1000 H   0  0  0  0  0  0  0  0  0  0  0  0
   37.2630   27.1580   35.4050 H   0  0  0  0  0  0  0  0  0  0  0  0
   37.0670   26.5980   33.3150 C   0  0  0  0  0  0  0  0  0  0  0  0
   37.9030   26.5040   32.6200 H   0  0  0  0  0  0  0  0  0  0  0  0
   36.2830   25.8790   32.9510 H   0  0  0  0  0  0  0  0  0  0  0  0
   36.0530   29.9340   32.0610 C   0  0  0  0  0  0  0  0  0  0  0  0
   35.5450   30.5640   33.1950 C   0  0  0  0  0  0  0  0  0  0  0  0
   35.5550   29.8310   34.3950 C   0  0  0  0  0  0  0  0  0  0  0  0
   36.0540   28.5670   34.3720 N   0  0  0  0  0  0  0  0  0  0  0  0
   36.5340   28.0110   33.2300 C   0  0  0  0  0  0  0  0  0  0  0  0
   36.5380   28.6850   32.0770 N   0  0  0  0  0  0  0  0  0  0  0  0
   36.0730   30.4420   31.1190 H   0  0  0  0  0  0  0  0  0  0  0  0
   35.1730   31.5690   33.1100 H   0  0  0  0  0  0  0  0  0  0  0  0
   35.1700   30.2920   35.2820 H   0  0  0  0  0  0  0  0  0  0  0  0
  1  5  1  0  0  0  0
  2  3  1  0  0  0  0
  2  1  2  0  0  0  0
  3  4  1  0  0  0  0
  4  8  1  0  0  0  0
  5  4  2  0  0  0  0
  6  2  1  0  0  0  0
  7 16  1  0  0  0  0
  7 14  1  0  0  0  0
  8  7  2  0  0  0  0
  9  8  1  0  0  0  0
  9 11  2  0  0  0  0
 10  9  1  0  0  0  0
 11 13  1  0  0  0  0
 12 11  1  0  0  0  0
 13 14  2  0  0  0  0
 15 16  2  0  0  0  0
 15 18  1  0  0  0  0
 16 17  1  0  0  0  0
 17 19  1  0  0  0  0
 17 20  1  0  0  0  0
 21  1  1  0  0  0  0
 21 22  1  0  0  0  0
 21 23  1  0  0  0  0
 24 21  1  0  0  0  0
 25 24  1  0  0  0  0
 26 24  1  0  0  0  0
 27 32  2  0  0  0  0
 27 28  1  0  0  0  0
 28 29  2  0  0  0  0
 29 35  1  0  0  0  0
 30 29  1  0  0  0  0
 31 24  1  0  0  0  0
 31 30  2  0  0  0  0
 32 31  1  0  0  0  0
 33 27  1  0  0  0  0
 34 28  1  0  0  0  0
M  END
>  <minimizedAffinity>
-5.38152647

$$$$

 OpenBabel03272506073D

 35 37  0  0  0  0  0  0  0  0999 V2000
   37.3720   24.7970   32.6930 C   0  0  0  0  0  0  0  0  0  0  0  0
   36.3670   24.2800   31.7950 C   0  0  0  0  0  0  0  0  0  0  0  0
   35.5740   25.7750   31.2940 S   0  0  0  0  0  0  0  0  0  0  0  0
   36.6660   26.8890   32.3300 C   0  0  0  0  0  0  0  0  0  0  0  0
   37.3870   26.0920   32.8470 N   0  0  0  0  0  0  0  0  0  0  0  0
   36.2050   23.2390   31.5460 H   0  0  0  0  0  0  0  0  0  0  0  0
   36.8880   29.0480   31.2140 C   0  0  0  0  0  0  0  0  0  0  0  0
   36.4030   28.3370   32.2690 C   0  0  0  0  0  0  0  0  0  0  0  0
   35.6930   29.0240   33.2250 C   0  0  0  0  0  0  0  0  0  0  0  0
   35.2970   28.4820   34.0740 H   0  0  0  0  0  0  0  0  0  0  0  0
   35.5000   30.3620   33.0880 C   0  0  0  0  0  0  0  0  0  0  0  0
   34.9350   30.8460   33.8710 H   0  0  0  0  0  0  0  0  0  0  0  0
   35.9950   31.0620   32.0200 C   0  0  0  0  0  3  0  0  0  0  0  0
   36.7100   30.4040   31.0460 C   0  0  0  0  0  3  0  0  0  0  0  0
   38.7020   27.7930   29.7910 N   0  0  0  0  0  0  0  0  0  0  0  0
   37.6310   28.3830   30.1840 C   0  0  0  0  0  0  0  0  0  0  0  0
   37.0620   28.1810   28.8740 N   0  0  0  0  0  0  0  0  0  0  0  0
   38.7680   27.4350   28.8140 H   0  0  0  0  0  0  0  0  0  0  0  0
   37.1130   28.5580   27.8810 H   0  0  0  0  0  0  0  0  0  0  0  0
   36.3380   27.4120   28.7810 H   0  0  0  0  0  0  0  0  0  0  0  0
   38.2990   23.8280   33.3620 C   0  0  0  0  0  0  0  0  0  0  0  0
   37.7230   23.1130   33.9850 H   0  0  0  0  0  0  0  0  0  0  0  0
   38.7880   23.1820   32.5740 H   0  0  0  0  0  0  0  0  0  0  0  0
   39.3090   24.5100   34.2130 C   0  0  0  0  0  0  0  0  0  0  0  0
   40.3270   24.2850   33.8900 H   0  0  0  0  0  0  0  0  0  0  0  0
   39.2080   25.6280   34.1530 H   0  0  0  0  0  0  0  0  0  0  0  0
   39.8160   22.8270   37.4750 C   0  0  0  0  0  0  0  0  0  0  0  0
   38.7890   23.3380   38.2650 C   0  0  0  0  0  0  0  0  0  0  0  0
   37.9200   24.2660   37.6650 C   0  0  0  0  0  0  0  0  0  0  0  0
   38.1360   24.6020   36.3670 N   0  0  0  0  0  0  0  0  0  0  0  0
   39.1580   24.0670   35.6520 C   0  0  0  0  0  0  0  0  0  0  0  0
   39.9980   23.1820   36.1960 N   0  0  0  0  0  0  0  0  0  0  0  0
   40.5090   22.1160   37.8760 H   0  0  0  0  0  0  0  0  0  0  0  0
   38.7020   23.0080   39.2840 H   0  0  0  0  0  0  0  0  0  0  0  0
   37.1210   24.6750   38.2510 H   0  0  0  0  0  0  0  0  0  0  0  0
  1  5  1  0  0  0  0
  1 21  1  0  0  0  0
  2  1  2  0  0  0  0
  3  2  1  0  0  0  0
  3  4  1  0  0  0  0
  4  5  2  0  0  0  0
  6  2  1  0  0  0  0
  7  8  1  0  0  0  0
  8  4  1  0  0  0  0
  8  9  2  0  0  0  0
  9 10  1  0  0  0  0
 11  9  1  0  0  0  0
 11 12  1  0  0  0  0
 13 11  2  0  0  0  0
 14  7  2  0  0  0  0
 14 13  1  0  0  0  0
 15 16  2  0  0  0  0
 16  7  1  0  0  0  0
 17 16  1  0  0  0  0
 18 15  1  0  0  0  0
 19 17  1  0  0  0  0
 20 17  1  0  0  0  0
 21 22  1  0  0  0  0
 21 24  1  0  0  0  0
 23 21  1  0  0  0  0
 24 31  1  0  0  0  0
 25 24  1  0  0  0  0
 26 24  1  0  0  0  0
 27 33  1  0  0  0  0
 27 28  1  0  0  0  0
 28 34  1  0  0  0  0
 29 35  1  0  0  0  0
 29 28  2  0  0  0  0
 30 29  1  0  0  0  0
 31 32  1  0  0  0  0
 31 30  2  0  0  0  0
 32 27  2  0  0  0  0
M  END
>  <minimizedAffinity>
-5.33463287

$$$$

 OpenBabel03272506073D

 35 37  0  0  0  0  0  0  0  0999 V2000
   37.5730   24.1870   32.4660 C   0  0  0  0  0  0  0  0  0  0  0  0
   37.2300   25.5080   32.9360 C   0  0  0  0  0  0  0  0  0  0  0  0
   38.2720   25.6340   34.3550 S   0  0  0  0  0  0  0  0  0  0  0  0
   39.0270   23.9320   34.1490 C   0  0  0  0  0  0  0  0  0  0  0  0
   38.4670   23.5470   33.1680 N   0  0  0  0  0  0  0  0  0  0  0  0
   36.5140   26.1820   32.4850 H   0  0  0  0  0  0  0  0  0  0  0  0
   39.6290   22.7530   36.1990 C   0  0  0  0  0  0  0  0  0  0  0  0
   40.0300   23.5140   35.1440 C   0  0  0  0  0  0  0  0  0  0  0  0
   41.3610   23.8520   35.0730 C   0  0  0  0  0  0  0  0  0  0  0  0
   41.7040   24.4570   34.2440 H   0  0  0  0  0  0  0  0  0  0  0  0
   42.2160   23.4240   36.0370 C   0  0  0  0  0  0  0  0  0  0  0  0
   43.2480   23.7210   35.9280 H   0  0  0  0  0  0  0  0  0  0  0  0
   41.7960   22.6580   37.0930 C   0  0  0  0  0  3  0  0  0  0  0  0
   40.4710   22.3020   37.1930 C   0  0  0  0  0  3  0  0  0  0  0  0
   37.2340   21.7350   35.8630 N   0  0  0  0  0  0  0  0  0  0  0  0
   38.2550   22.3650   36.3200 C   0  0  0  0  0  0  0  0  0  0  0  0
   37.4590   22.7990   37.4420 N   0  0  0  0  0  0  0  0  0  0  0  0
   36.3320   21.7590   36.3860 H   0  0  0  0  0  0  0  0  0  0  0  0
   36.6970   23.4950   37.6980 H   0  0  0  0  0  0  0  0  0  0  0  0
   37.6290   22.3080   38.3660 H   0  0  0  0  0  0  0  0  0  0  0  0
   36.8930   23.6660   31.2370 C   0  0  0  0  0  0  0  0  0  0  0  0
   36.8090   24.4690   30.4750 H   0  0  0  0  0  0  0  0  0  0  0  0
   37.5540   22.8870   30.7530 H   0  0  0  0  0  0  0  0  0  0  0  0
   35.5380   23.1280   31.5270 C   0  0  0  0  0  0  0  0  0  0  0  0
   35.0730   23.6390   32.3720 H   0  0  0  0  0  0  0  0  0  0  0  0
   34.8420   23.2780   30.6560 H   0  0  0  0  0  0  0  0  0  0  0  0
   35.5240   19.8890   33.3280 C   0  0  0  0  0  0  0  0  0  0  0  0
   35.8100   18.9630   32.3280 C   0  0  0  0  0  0  0  0  0  0  0  0
   36.0080   19.4620   31.0290 C   0  0  0  0  0  0  0  0  0  0  0  0
   35.9090   20.8030   30.8340 N   0  0  0  0  0  0  0  0  0  0  0  0
   35.6260   21.6530   31.8540 C   0  0  0  0  0  0  0  0  0  0  0  0
   35.4340   21.2060   33.0970 N   0  0  0  0  0  0  0  0  0  0  0  0
   35.3640   19.5690   34.3370 H   0  0  0  0  0  0  0  0  0  0  0  0
   35.8680   17.9210   32.5850 H   0  0  0  0  0  0  0  0  0  0  0  0
   36.2300   18.7710   30.2400 H   0  0  0  0  0  0  0  0  0  0  0  0
  1  2  2  0  0  0  0
  1  5  1  0  0  0  0
  2  3  1  0  0  0  0
  4  3  1  0  0  0  0
  4  8  1  0  0  0  0
  5  4  2  0  0  0  0
  6  2  1  0  0  0  0
  7 16  1  0  0  0  0
  7 14  1  0  0  0  0
  8  7  2  0  0  0  0
  9  8  1  0  0  0  0
  9 11  2  0  0  0  0
 10  9  1  0  0  0  0
 11 13  1  0  0  0  0
 12 11  1  0  0  0  0
 13 14  2  0  0  0  0
 15 16  2  0  0  0  0
 15 18  1  0  0  0  0
 16 17  1  0  0  0  0
 17 19  1  0  0  0  0
 17 20  1  0  0  0  0
 21 24  1  0  0  0  0
 21  1  1  0  0  0  0
 22 21  1  0  0  0  0
 23 21  1  0  0  0  0
 24 31  1  0  0  0  0
 24 25  1  0  0  0  0
 26 24  1  0  0  0  0
 27 33  1  0  0  0  0
 28 34  1  0  0  0  0
 28 27  2  0  0  0  0
 29 28  1  0  0  0  0
 30 29  2  0  0  0  0
 30 31  1  0  0  0  0
 31 32  2  0  0  0  0
 32 27  1  0  0  0  0
 35 29  1  0  0  0  0
M  END
>  <minimizedAffinity>
-5.28813314

$$$$

 OpenBabel03272506073D

 35 37  0  0  0  0  0  0  0  0999 V2000
   36.5340   28.8580   32.2660 C   0  0  0  0  0  0  0  0  0  0  0  0
   36.4840   29.9440   31.3170 C   0  0  0  0  0  0  0  0  0  0  0  0
   35.6890   31.1890   32.2830 S   0  0  0  0  0  0  0  0  0  0  0  0
   35.5250   30.1220   33.8130 C   0  0  0  0  0  0  0  0  0  0  0  0
   36.0250   29.1040   33.4420 N   0  0  0  0  0  0  0  0  0  0  0  0
   36.8540   29.9230   30.3000 H   0  0  0  0  0  0  0  0  0  0  0  0
   33.5660   30.4800   35.2230 C   0  0  0  0  0  0  0  0  0  0  0  0
   34.8840   30.7280   34.9930 C   0  0  0  0  0  0  0  0  0  0  0  0
   35.5430   31.5420   35.8840 C   0  0  0  0  0  0  0  0  0  0  0  0
   36.5910   31.7550   35.7240 H   0  0  0  0  0  0  0  0  0  0  0  0
   34.8700   32.0600   36.9450 C   0  0  0  0  0  0  0  0  0  0  0  0
   35.4410   32.6920   37.6110 H   0  0  0  0  0  0  0  0  0  0  0  0
   33.5430   31.8000   37.1630 C   0  0  0  0  0  3  0  0  0  0  0  0
   32.8550   30.9890   36.2880 C   0  0  0  0  0  3  0  0  0  0  0  0
   32.6480   29.1520   33.1530 N   0  0  0  0  0  0  0  0  0  0  0  0
   32.8300   29.6340   34.3290 C   0  0  0  0  0  0  0  0  0  0  0  0
   31.7070   28.8600   34.7980 N   0  0  0  0  0  0  0  0  0  0  0  0
   31.8710   28.4780   32.9820 H   0  0  0  0  0  0  0  0  0  0  0  0
   30.6440   28.8470   34.7800 H   0  0  0  0  0  0  0  0  0  0  0  0
   31.9280   27.9900   35.3620 H   0  0  0  0  0  0  0  0  0  0  0  0
   37.1550   27.5630   31.8390 C   0  0  0  0  0  0  0  0  0  0  0  0
   36.5320   27.0770   31.0600 H   0  0  0  0  0  0  0  0  0  0  0  0
   38.1360   27.7780   31.3200 H   0  0  0  0  0  0  0  0  0  0  0  0
   37.3350   26.6210   32.9750 C   0  0  0  0  0  0  0  0  0  0  0  0
   38.3680   26.6030   33.3250 H   0  0  0  0  0  0  0  0  0  0  0  0
   36.7150   26.9270   33.8620 H   0  0  0  0  0  0  0  0  0  0  0  0
   37.2100   22.9340   32.6230 C   0  0  0  0  0  0  0  0  0  0  0  0
   36.1730   22.7320   31.7150 C   0  0  0  0  0  0  0  0  0  0  0  0
   35.5180   23.8750   31.2250 C   0  0  0  0  0  0  0  0  0  0  0  0
   35.9330   25.0920   31.6640 N   0  0  0  0  0  0  0  0  0  0  0  0
   36.9520   25.2200   32.5520 C   0  0  0  0  0  0  0  0  0  0  0  0
   37.5920   24.1510   33.0330 N   0  0  0  0  0  0  0  0  0  0  0  0
   37.7470   22.1030   33.0310 H   0  0  0  0  0  0  0  0  0  0  0  0
   35.9200   21.7280   31.4290 H   0  0  0  0  0  0  0  0  0  0  0  0
   34.7160   23.7480   30.5250 H   0  0  0  0  0  0  0  0  0  0  0  0
  1  5  1  0  0  0  0
  2  1  2  0  0  0  0
  2  3  1  0  0  0  0
  3  4  1  0  0  0  0
  4  8  1  0  0  0  0
  5  4  2  0  0  0  0
  6  2  1  0  0  0  0
  7 14  1  0  0  0  0
  8  7  2  0  0  0  0
  8  9  1  0  0  0  0
  9 11  2  0  0  0  0
 10  9  1  0  0  0  0
 11 13  1  0  0  0  0
 11 12  1  0  0  0  0
 14 13  2  0  0  0  0
 15 16  2  0  0  0  0
 16 17  1  0  0  0  0
 16  7  1  0  0  0  0
 17 20  1  0  0  0  0
 18 15  1  0  0  0  0
 19 17  1  0  0  0  0
 21  1  1  0  0  0  0
 21 24  1  0  0  0  0
 22 21  1  0  0  0  0
 23 21  1  0  0  0  0
 24 25  1  0  0  0  0
 24 26  1  0  0  0  0
 27 33  1  0  0  0  0
 27 32  1  0  0  0  0
 28 27  2  0  0  0  0
 29 30  2  0  0  0  0
 29 28  1  0  0  0  0
 30 31  1  0  0  0  0
 31 24  1  0  0  0  0
 31 32  2  0  0  0  0
 34 28  1  0  0  0  0
 35 29  1  0  0  0  0
M  END
>  <minimizedAffinity>
-5.22671509

$$$$

 OpenBabel03272506073D

 35 37  0  0  0  0  0  0  0  0999 V2000
   38.8150   24.7900   34.0850 C   0  0  0  0  0  0  0  0  0  0  0  0
   40.1040   24.1730   33.8850 C   0  0  0  0  0  0  0  0  0  0  0  0
   39.6200   22.5890   33.2760 S   0  0  0  0  0  0  0  0  0  0  0  0
   37.7820   22.9420   33.3620 C   0  0  0  0  0  0  0  0  0  0  0  0
   37.7790   24.0580   33.7820 N   0  0  0  0  0  0  0  0  0  0  0  0
   41.0680   24.6250   34.0810 H   0  0  0  0  0  0  0  0  0  0  0  0
   36.3060   21.0690   33.8820 C   0  0  0  0  0  0  0  0  0  0  0  0
   36.8690   21.8680   32.9340 C   0  0  0  0  0  0  0  0  0  0  0  0
   36.5490   21.6170   31.6200 C   0  0  0  0  0  0  0  0  0  0  0  0
   36.9830   22.2380   30.8480 H   0  0  0  0  0  0  0  0  0  0  0  0
   35.6980   20.6030   31.3170 C   0  0  0  0  0  0  0  0  0  0  0  0
   35.4840   20.4550   30.2680 H   0  0  0  0  0  0  0  0  0  0  0  0
   35.1390   19.8080   32.2830 C   0  0  0  0  0  3  0  0  0  0  0  0
   35.4400   20.0330   33.6070 C   0  0  0  0  0  3  0  0  0  0  0  0
   37.3650   21.7710   36.1780 N   0  0  0  0  0  0  0  0  0  0  0  0
   36.5990   21.2880   35.2670 C   0  0  0  0  0  0  0  0  0  0  0  0
   35.7180   20.7960   36.2980 N   0  0  0  0  0  0  0  0  0  0  0  0
   37.1140   21.6540   37.1840 H   0  0  0  0  0  0  0  0  0  0  0  0
   35.6380   20.0210   37.0200 H   0  0  0  0  0  0  0  0  0  0  0  0
   34.8180   21.3350   36.4530 H   0  0  0  0  0  0  0  0  0  0  0  0
   38.7680   26.1930   34.6110 C   0  0  0  0  0  0  0  0  0  0  0  0
   39.3830   26.2790   35.5300 H   0  0  0  0  0  0  0  0  0  0  0  0
   39.2710   26.8810   33.8690 H   0  0  0  0  0  0  0  0  0  0  0  0
   37.3810   26.6360   34.9110 C   0  0  0  0  0  0  0  0  0  0  0  0
   36.6760   25.8030   34.8830 H   0  0  0  0  0  0  0  0  0  0  0  0
   37.3040   27.0690   35.9460 H   0  0  0  0  0  0  0  0  0  0  0  0
   37.0290   28.6410   31.8150 C   0  0  0  0  0  0  0  0  0  0  0  0
   36.0570   29.5820   32.1490 C   0  0  0  0  0  0  0  0  0  0  0  0
   35.5240   29.5200   33.4480 C   0  0  0  0  0  0  0  0  0  0  0  0
   35.9860   28.5570   34.2870 N   0  0  0  0  0  0  0  0  0  0  0  0
   36.9370   27.6680   33.8980 C   0  0  0  0  0  0  0  0  0  0  0  0
   37.4610   27.7050   32.6700 N   0  0  0  0  0  0  0  0  0  0  0  0
   37.4720   28.6380   30.8400 H   0  0  0  0  0  0  0  0  0  0  0  0
   35.7590   30.3060   31.4120 H   0  0  0  0  0  0  0  0  0  0  0  0
   34.7750   30.2320   33.7300 H   0  0  0  0  0  0  0  0  0  0  0  0
  1 21  1  0  0  0  0
  2  6  1  0  0  0  0
  2  1  2  0  0  0  0
  3  4  1  0  0  0  0
  3  2  1  0  0  0  0
  4  5  2  0  0  0  0
  5  1  1  0  0  0  0
  7 16  1  0  0  0  0
  8  4  1  0  0  0  0
  8  7  2  0  0  0  0
  9  8  1  0  0  0  0
 10  9  1  0  0  0  0
 11  9  2  0  0  0  0
 11 13  1  0  0  0  0
 12 11  1  0  0  0  0
 13 14  2  0  0  0  0
 14  7  1  0  0  0  0
 15 18  1  0  0  0  0
 16 15  2  0  0  0  0
 16 17  1  0  0  0  0
 17 20  1  0  0  0  0
 17 19  1  0  0  0  0
 21 24  1  0  0  0  0
 21 22  1  0  0  0  0
 23 21  1  0  0  0  0
 24 26  1  0  0  0  0
 25 24  1  0  0  0  0
 27 28  2  0  0  0  0
 27 32  1  0  0  0  0
 28 29  1  0  0  0  0
 29 35  1  0  0  0  0
 29 30  2  0  0  0  0
 31 30  1  0  0  0  0
 31 24  1  0  0  0  0
 32 31  2  0  0  0  0
 33 27  1  0  0  0  0
 34 28  1  0  0  0  0
M  END
>  <minimizedAffinity>
-5.20221281

$$$$

 OpenBabel03272506073D

 35 37  0  0  0  0  0  0  0  0999 V2000
   35.8800   29.2120   32.1450 C   0  0  0  0  0  0  0  0  0  0  0  0
   35.3700   30.1790   31.2020 C   0  0  0  0  0  0  0  0  0  0  0  0
   34.1080   30.9470   32.1690 S   0  0  0  0  0  0  0  0  0  0  0  0
   34.4150   29.8990   33.6900 C   0  0  0  0  0  0  0  0  0  0  0  0
   35.3080   29.2020   33.3170 N   0  0  0  0  0  0  0  0  0  0  0  0
   35.7180   30.3310   30.1890 H   0  0  0  0  0  0  0  0  0  0  0  0
   33.9750   31.0790   35.7810 C   0  0  0  0  0  0  0  0  0  0  0  0
   33.5670   30.1550   34.8680 C   0  0  0  0  0  0  0  0  0  0  0  0
   32.3780   29.5080   35.1060 C   0  0  0  0  0  0  0  0  0  0  0  0
   32.0310   28.7690   34.3960 H   0  0  0  0  0  0  0  0  0  0  0  0
   31.6610   29.8070   36.2210 C   0  0  0  0  0  0  0  0  0  0  0  0
   30.7360   29.2670   36.3540 H   0  0  0  0  0  0  0  0  0  0  0  0
   32.0850   30.7410   37.1300 C   0  0  0  0  0  3  0  0  0  0  0  0
   33.2720   31.4050   36.9200 C   0  0  0  0  0  3  0  0  0  0  0  0
   35.8460   32.7780   35.0710 N   0  0  0  0  0  0  0  0  0  0  0  0
   35.2040   31.7890   35.5800 C   0  0  0  0  0  0  0  0  0  0  0  0
   36.4380   31.3110   36.1560 N   0  0  0  0  0  0  0  0  0  0  0  0
   36.8720   32.8680   35.2310 H   0  0  0  0  0  0  0  0  0  0  0  0
   37.3390   30.8140   35.8900 H   0  0  0  0  0  0  0  0  0  0  0  0
   36.5720   31.4700   37.1960 H   0  0  0  0  0  0  0  0  0  0  0  0
   37.0040   28.3180   31.7140 C   0  0  0  0  0  0  0  0  0  0  0  0
   36.7770   27.8650   30.7280 H   0  0  0  0  0  0  0  0  0  0  0  0
   37.9250   28.9480   31.5300 H   0  0  0  0  0  0  0  0  0  0  0  0
   37.2710   27.2360   32.6980 C   0  0  0  0  0  0  0  0  0  0  0  0
   38.3400   27.0990   32.8660 H   0  0  0  0  0  0  0  0  0  0  0  0
   36.8290   27.4780   33.7030 H   0  0  0  0  0  0  0  0  0  0  0  0
   35.1710   24.7160   30.9730 C   0  0  0  0  0  0  0  0  0  0  0  0
   35.7450   23.5040   31.3530 C   0  0  0  0  0  0  0  0  0  0  0  0
   36.8590   23.5620   32.2080 C   0  0  0  0  0  0  0  0  0  0  0  0
   37.3020   24.7840   32.6050 N   0  0  0  0  0  0  0  0  0  0  0  0
   36.6970   25.9290   32.1970 C   0  0  0  0  0  0  0  0  0  0  0  0
   35.6370   25.9030   31.3850 N   0  0  0  0  0  0  0  0  0  0  0  0
   34.3210   24.7360   30.3230 H   0  0  0  0  0  0  0  0  0  0  0  0
   35.3190   22.5880   30.9850 H   0  0  0  0  0  0  0  0  0  0  0  0
   37.3190   22.6440   32.5160 H   0  0  0  0  0  0  0  0  0  0  0  0
  1  5  1  0  0  0  0
  2  1  2  0  0  0  0
  2  3  1  0  0  0  0
  3  4  1  0  0  0  0
  4  8  1  0  0  0  0
  5  4  2  0  0  0  0
  6  2  1  0  0  0  0
  7 14  1  0  0  0  0
  8  9  1  0  0  0  0
  8  7  2  0  0  0  0
  9 11  2  0  0  0  0
 10  9  1  0  0  0  0
 11 12  1  0  0  0  0
 11 13  1  0  0  0  0
 14 13  2  0  0  0  0
 15 18  1  0  0  0  0
 15 16  2  0  0  0  0
 16  7  1  0  0  0  0
 16 17  1  0  0  0  0
 17 20  1  0  0  0  0
 19 17  1  0  0  0  0
 21  1  1  0  0  0  0
 21 24  1  0  0  0  0
 22 21  1  0  0  0  0
 23 21  1  0  0  0  0
 24 25  1  0  0  0  0
 24 26  1  0  0  0  0
 27 28  2  0  0  0  0
 27 32  1  0  0  0  0
 28 29  1  0  0  0  0
 29 35  1  0  0  0  0
 29 30  2  0  0  0  0
 31 30  1  0  0  0  0
 31 24  1  0  0  0  0
 32 31  2  0  0  0  0
 33 27  1  0  0  0  0
 34 28  1  0  0  0  0
M  END
>  <minimizedAffinity>
-5.12948465

$$$$
