
 OpenBabel03262520083D

 23 22  0  0  0  0  0  0  0  0999 V2000
   37.9390   26.1390   34.3010 C   0  0  0  0  0  0  0  0  0  0  0  0
   38.0650   24.7800   34.4820 C   0  0  0  0  0  0  0  0  0  0  0  0
   37.7940   23.9950   33.3770 C   0  0  0  0  0  0  0  0  0  0  0  0
   37.8830   22.9130   33.4810 H   0  0  0  0  0  0  0  0  0  0  0  0
   37.4320   24.6060   32.2160 C   0  0  0  0  0  0  0  0  0  0  0  0
   37.2360   23.9240   31.4010 H   0  0  0  0  0  0  0  0  0  0  0  0
   37.3060   25.9660   32.0310 C   0  0  0  0  0  3  0  0  0  0  0  0
   37.5720   26.7600   33.1250 C   0  0  0  0  0  3  0  0  0  0  0  0
   37.9070   23.8870   38.0200 C   0  0  0  0  0  0  0  0  0  0  0  0
   39.0860   23.1430   38.2380 C   0  0  0  0  0  0  0  0  0  0  0  0
   39.9370   22.9520   37.1510 C   0  0  0  0  0  0  0  0  0  0  0  0
   39.5860   23.4890   35.9560 N   0  0  0  0  0  0  0  0  0  0  0  0
   38.4610   24.1950   35.7600 C   0  0  0  0  0  0  0  0  0  0  0  0
   37.6390   24.3810   36.8080 N   0  0  0  0  0  0  0  0  0  0  0  0
   37.2790   24.0140   38.8700 H   0  0  0  0  0  0  0  0  0  0  0  0
   39.4030   22.6990   39.1730 H   0  0  0  0  0  0  0  0  0  0  0  0
   40.8650   22.4080   37.1750 H   0  0  0  0  0  0  0  0  0  0  0  0
   38.6950   27.5760   36.4300 N   0  0  0  0  0  2  0  0  0  0  0  0
   38.1870   27.0650   35.3760 C   0  0  0  0  0  2  0  0  0  0  0  0
   37.5350   28.2950   35.5800 N   0  0  0  0  0  1  0  0  0  0  0  0
   38.3390   28.5210   36.7670 H   0  0  0  0  0  0  0  0  0  0  0  0
   36.9420   28.6150   34.7790 H   0  0  0  0  0 15  0  0  0  0  0  0
   36.9060   29.0450   35.2350 H   0  0  0  0  0  0  0  0  0  0  0  0
  1  2  1  0  0  0  0
  1 19  1  0  0  0  0
  2 13  1  0  0  0  0
  3  4  1  0  0  0  0
  3  2  2  0  0  0  0
  5  3  1  0  0  0  0
  6  5  1  0  0  0  0
  7  5  2  0  0  0  0
  7  8  1  0  0  0  0
  8  1  2  0  0  0  0
  9 10  1  0  0  0  0
  9 15  1  0  0  0  0
 10 16  1  0  0  0  0
 11 17  1  0  0  0  0
 11 10  2  0  0  0  0
 12 11  1  0  0  0  0
 13 12  2  0  0  0  0
 13 14  1  0  0  0  0
 14  9  2  0  0  0  0
 18 21  1  0  0  0  0
 19 18  1  0  0  0  0
 23 20  1  0  0  0  0
M  END
>  <minimizedAffinity>
-4.60556746

$$$$

 OpenBabel03262520083D

 23 22  0  0  0  0  0  0  0  0999 V2000
   39.9060   23.0890   36.9760 C   0  0  0  0  0  0  0  0  0  0  0  0
   40.1010   23.7410   35.7780 C   0  0  0  0  0  0  0  0  0  0  0  0
   41.2460   23.4000   35.0840 C   0  0  0  0  0  0  0  0  0  0  0  0
   41.4350   23.8950   34.1310 H   0  0  0  0  0  0  0  0  0  0  0  0
   42.0780   22.4660   35.6180 C   0  0  0  0  0  0  0  0  0  0  0  0
   42.9510   22.2550   35.0150 H   0  0  0  0  0  0  0  0  0  0  0  0
   41.8860   21.8100   36.8160 C   0  0  0  0  0  3  0  0  0  0  0  0
   40.7490   22.1430   37.5190 C   0  0  0  0  0  3  0  0  0  0  0  0
   37.6150   25.2730   33.5850 C   0  0  0  0  0  0  0  0  0  0  0  0
   37.3470   26.5200   34.1880 C   0  0  0  0  0  0  0  0  0  0  0  0
   38.0340   26.8270   35.3620 C   0  0  0  0  0  0  0  0  0  0  0  0
   38.9130   25.9180   35.8510 N   0  0  0  0  0  0  0  0  0  0  0  0
   39.1600   24.7340   35.2670 C   0  0  0  0  0  0  0  0  0  0  0  0
   38.4980   24.4360   34.1340 N   0  0  0  0  0  0  0  0  0  0  0  0
   37.0740   25.0690   32.6900 H   0  0  0  0  0  0  0  0  0  0  0  0
   36.6560   27.2720   33.8320 H   0  0  0  0  0  0  0  0  0  0  0  0
   37.9280   27.7380   35.9250 H   0  0  0  0  0  0  0  0  0  0  0  0
   37.6920   23.9180   38.2340 N   0  0  0  0  0  2  0  0  0  0  0  0
   38.7540   23.3600   37.7990 C   0  0  0  0  0  2  0  0  0  0  0  0
   38.3590   22.6350   38.9380 N   0  0  0  0  0  1  0  0  0  0  0  0
   37.2210   23.5210   39.1020 H   0  0  0  0  0  0  0  0  0  0  0  0
   38.8670   21.7320   39.0810 H   0  0  0  0  0 15  0  0  0  0  0  0
   38.4530   21.8010   39.5480 H   0  0  0  0  0  0  0  0  0  0  0  0
  1  8  1  0  0  0  0
  1 19  1  0  0  0  0
  2  1  2  0  0  0  0
  3  5  2  0  0  0  0
  3  2  1  0  0  0  0
  4  3  1  0  0  0  0
  5  7  1  0  0  0  0
  6  5  1  0  0  0  0
  7  8  2  0  0  0  0
  9 14  2  0  0  0  0
  9 10  1  0  0  0  0
 10 11  2  0  0  0  0
 11 12  1  0  0  0  0
 11 17  1  0  0  0  0
 13  2  1  0  0  0  0
 13 12  2  0  0  0  0
 14 13  1  0  0  0  0
 15  9  1  0  0  0  0
 16 10  1  0  0  0  0
 18 21  1  0  0  0  0
 19 18  1  0  0  0  0
 20 23  1  0  0  0  0
M  END
>  <minimizedAffinity>
-4.56823015

$$$$

 OpenBabel03262520083D

 23 22  0  0  0  0  0  0  0  0999 V2000
   36.7320   27.6800   32.3700 C   0  0  0  0  0  0  0  0  0  0  0  0
   36.0050   28.5460   33.1570 C   0  0  0  0  0  0  0  0  0  0  0  0
   36.2970   28.5250   34.5080 C   0  0  0  0  0  0  0  0  0  0  0  0
   35.7420   29.1960   35.1640 H   0  0  0  0  0  0  0  0  0  0  0  0
   37.2600   27.6720   34.9530 C   0  0  0  0  0  0  0  0  0  0  0  0
   37.4280   27.7150   36.0200 H   0  0  0  0  0  0  0  0  0  0  0  0
   37.9900   26.8050   34.1680 C   0  0  0  0  0  3  0  0  0  0  0  0
   37.7070   26.8160   32.8200 C   0  0  0  0  0  3  0  0  0  0  0  0
   32.7100   30.0050   32.5640 C   0  0  0  0  0  0  0  0  0  0  0  0
   32.9560   31.0450   31.6440 C   0  0  0  0  0  0  0  0  0  0  0  0
   34.2730   31.2390   31.2300 C   0  0  0  0  0  0  0  0  0  0  0  0
   35.2330   30.4230   31.7300 N   0  0  0  0  0  0  0  0  0  0  0  0
   34.9860   29.4340   32.6060 C   0  0  0  0  0  0  0  0  0  0  0  0
   33.7150   29.2460   33.0070 N   0  0  0  0  0  0  0  0  0  0  0  0
   31.6940   29.8840   32.8610 H   0  0  0  0  0  0  0  0  0  0  0  0
   32.2210   31.7180   31.2210 H   0  0  0  0  0  0  0  0  0  0  0  0
   34.6020   31.9920   30.5350 H   0  0  0  0  0  0  0  0  0  0  0  0
   36.5310   27.9150   29.7100 N   0  0  0  0  0  2  0  0  0  0  0  0
   36.5170   27.6010   30.9470 C   0  0  0  0  0  2  0  0  0  0  0  0
   35.8870   26.5470   30.2600 N   0  0  0  0  0  1  0  0  0  0  0  0
   36.0980   27.2450   29.0040 H   0  0  0  0  0  0  0  0  0  0  0  0
   35.7180   25.6890   30.8340 H   0  0  0  0  0 15  0  0  0  0  0  0
   35.5010   25.5840   30.2540 H   0  0  0  0  0  0  0  0  0  0  0  0
  1  8  2  0  0  0  0
  1  2  1  0  0  0  0
  2  3  2  0  0  0  0
  3  5  1  0  0  0  0
  3  4  1  0  0  0  0
  5  6  1  0  0  0  0
  7  5  2  0  0  0  0
  8  7  1  0  0  0  0
  9 15  1  0  0  0  0
  9 14  1  0  0  0  0
 10  9  2  0  0  0  0
 11 10  1  0  0  0  0
 11 12  2  0  0  0  0
 12 13  1  0  0  0  0
 13 14  2  0  0  0  0
 13  2  1  0  0  0  0
 16 10  1  0  0  0  0
 17 11  1  0  0  0  0
 18 19  1  0  0  0  0
 19  1  1  0  0  0  0
 21 18  1  0  0  0  0
 23 20  1  0  0  0  0
M  END
>  <minimizedAffinity>
-4.52852821

$$$$

 OpenBabel03262520083D

 23 22  0  0  0  0  0  0  0  0999 V2000
   36.1850   20.9800   33.9320 C   0  0  0  0  0  0  0  0  0  0  0  0
   37.1930   21.7160   33.3500 C   0  0  0  0  0  0  0  0  0  0  0  0
   37.2680   21.6560   31.9710 C   0  0  0  0  0  0  0  0  0  0  0  0
   38.0540   22.2250   31.4740 H   0  0  0  0  0  0  0  0  0  0  0  0
   36.3630   20.8910   31.3030 C   0  0  0  0  0  0  0  0  0  0  0  0
   36.4890   20.8960   30.2290 H   0  0  0  0  0  0  0  0  0  0  0  0
   35.3520   20.1540   31.8810 C   0  0  0  0  0  3  0  0  0  0  0  0
   35.2670   20.2050   33.2550 C   0  0  0  0  0  3  0  0  0  0  0  0
   40.2080   22.5770   35.2240 C   0  0  0  0  0  0  0  0  0  0  0  0
   39.9940   23.9130   35.6230 C   0  0  0  0  0  0  0  0  0  0  0  0
   38.7970   24.5150   35.2380 C   0  0  0  0  0  0  0  0  0  0  0  0
   37.9150   23.7880   34.5090 N   0  0  0  0  0  0  0  0  0  0  0  0
   38.1300   22.5160   34.1350 C   0  0  0  0  0  0  0  0  0  0  0  0
   39.2840   21.9330   34.5060 N   0  0  0  0  0  0  0  0  0  0  0  0
   41.1320   22.1470   35.5330 H   0  0  0  0  0  0  0  0  0  0  0  0
   40.6690   24.5280   36.2030 H   0  0  0  0  0  0  0  0  0  0  0  0
   38.5040   25.5240   35.4720 H   0  0  0  0  0  0  0  0  0  0  0  0
   35.4900   20.7120   36.5040 N   0  0  0  0  0  2  0  0  0  0  0  0
   36.0040   20.9540   35.3610 C   0  0  0  0  0  2  0  0  0  0  0  0
   36.8660   21.5220   36.3170 N   0  0  0  0  0  1  0  0  0  0  0  0
   35.9890   21.0590   37.3770 H   0  0  0  0  0  0  0  0  0  0  0  0
   37.7900   21.8390   35.9420 H   0  0  0  0  0 15  0  0  0  0  0  0
   37.7760   21.9600   36.5570 H   0  0  0  0  0  0  0  0  0  0  0  0
  1 19  1  0  0  0  0
  2  1  1  0  0  0  0
  2 13  1  0  0  0  0
  3  2  2  0  0  0  0
  4  3  1  0  0  0  0
  5  7  2  0  0  0  0
  5  3  1  0  0  0  0
  6  5  1  0  0  0  0
  7  8  1  0  0  0  0
  8  1  2  0  0  0  0
  9 15  1  0  0  0  0
  9 10  1  0  0  0  0
 10 16  1  0  0  0  0
 11 17  1  0  0  0  0
 11 10  2  0  0  0  0
 12 11  1  0  0  0  0
 13 14  1  0  0  0  0
 13 12  2  0  0  0  0
 14  9  2  0  0  0  0
 18 21  1  0  0  0  0
 19 18  1  0  0  0  0
 20 23  1  0  0  0  0
M  END
>  <minimizedAffinity>
-4.40987301

$$$$

 OpenBabel03262520083D

 23 22  0  0  0  0  0  0  0  0999 V2000
   40.0810   26.3760   34.7990 C   0  0  0  0  0  0  0  0  0  0  0  0
   40.2450   25.0350   35.0710 C   0  0  0  0  0  0  0  0  0  0  0  0
   41.4670   24.4920   34.7200 C   0  0  0  0  0  0  0  0  0  0  0  0
   41.6350   23.4330   34.9190 H   0  0  0  0  0  0  0  0  0  0  0  0
   42.3980   25.3010   34.1460 C   0  0  0  0  0  0  0  0  0  0  0  0
   43.3250   24.8010   33.9010 H   0  0  0  0  0  0  0  0  0  0  0  0
   42.2380   26.6430   33.8730 C   0  0  0  0  0  3  0  0  0  0  0  0
   41.0250   27.1960   34.2170 C   0  0  0  0  0  3  0  0  0  0  0  0
   37.7970   22.3580   35.4910 C   0  0  0  0  0  0  0  0  0  0  0  0
   37.2170   22.6180   36.7500 C   0  0  0  0  0  0  0  0  0  0  0  0
   37.6810   23.7270   37.4540 C   0  0  0  0  0  0  0  0  0  0  0  0
   38.6530   24.4880   36.8930 N   0  0  0  0  0  0  0  0  0  0  0  0
   39.1970   24.2300   35.6920 C   0  0  0  0  0  0  0  0  0  0  0  0
   38.7510   23.1590   35.0110 N   0  0  0  0  0  0  0  0  0  0  0  0
   37.4210   21.5030   34.9790 H   0  0  0  0  0  0  0  0  0  0  0  0
   36.4410   22.0390   37.2330 H   0  0  0  0  0  0  0  0  0  0  0  0
   37.3290   24.0420   38.4220 H   0  0  0  0  0  0  0  0  0  0  0  0
   37.6740   27.5340   34.9820 N   0  0  0  0  0  2  0  0  0  0  0  0
   38.8520   27.0590   35.1110 C   0  0  0  0  0  2  0  0  0  0  0  0
   38.5440   27.7030   36.3240 N   0  0  0  0  0  1  0  0  0  0  0  0
   37.2420   28.0670   35.7950 H   0  0  0  0  0  0  0  0  0  0  0  0
   39.2150   27.5130   37.1040 H   0  0  0  0  0 15  0  0  0  0  0  0
   38.7690   27.8980   37.3180 H   0  0  0  0  0  0  0  0  0  0  0  0
  1  2  1  0  0  0  0
  1 19  1  0  0  0  0
  2 13  1  0  0  0  0
  3  4  1  0  0  0  0
  3  2  2  0  0  0  0
  5  3  1  0  0  0  0
  6  5  1  0  0  0  0
  7  5  2  0  0  0  0
  7  8  1  0  0  0  0
  8  1  2  0  0  0  0
  9 10  1  0  0  0  0
 10 16  1  0  0  0  0
 10 11  2  0  0  0  0
 11 17  1  0  0  0  0
 12 11  1  0  0  0  0
 13 12  2  0  0  0  0
 14  9  2  0  0  0  0
 14 13  1  0  0  0  0
 15  9  1  0  0  0  0
 18 19  1  0  0  0  0
 18 21  1  0  0  0  0
 20 23  1  0  0  0  0
M  END
>  <minimizedAffinity>
-4.36028719

$$$$

 OpenBabel03262520083D

 23 22  0  0  0  0  0  0  0  0999 V2000
   38.8280   24.5940   36.0210 C   0  0  0  0  0  0  0  0  0  0  0  0
   40.0800   24.5870   35.4460 C   0  0  0  0  0  0  0  0  0  0  0  0
   40.5180   25.7950   34.9380 C   0  0  0  0  0  0  0  0  0  0  0  0
   41.5050   25.8290   34.4740 H   0  0  0  0  0  0  0  0  0  0  0  0
   39.7030   26.8790   35.0390 C   0  0  0  0  0  0  0  0  0  0  0  0
   40.1180   27.7840   34.6170 H   0  0  0  0  0  0  0  0  0  0  0  0
   38.4500   26.8910   35.6140 C   0  0  0  0  0  3  0  0  0  0  0  0
   38.0000   25.6930   36.1240 C   0  0  0  0  0  3  0  0  0  0  0  0
   42.3120   21.9100   36.5370 C   0  0  0  0  0  0  0  0  0  0  0  0
   42.4840   21.1160   35.3850 C   0  0  0  0  0  0  0  0  0  0  0  0
   41.8200   21.5130   34.2250 C   0  0  0  0  0  0  0  0  0  0  0  0
   41.0550   22.6310   34.2710 N   0  0  0  0  0  0  0  0  0  0  0  0
   40.8990   23.3810   35.3750 C   0  0  0  0  0  0  0  0  0  0  0  0
   41.5400   22.9990   36.4950 N   0  0  0  0  0  0  0  0  0  0  0  0
   42.8330   21.5790   37.4060 H   0  0  0  0  0  0  0  0  0  0  0  0
   43.0840   20.2190   35.3040 H   0  0  0  0  0  0  0  0  0  0  0  0
   41.8610   21.0030   33.2780 H   0  0  0  0  0  0  0  0  0  0  0  0
   37.5590   22.3320   36.6850 N   0  0  0  0  0  2  0  0  0  0  0  0
   38.2530   23.3980   36.5810 C   0  0  0  0  0  2  0  0  0  0  0  0
   38.4920   22.8870   37.8710 N   0  0  0  0  0  1  0  0  0  0  0  0
   37.5950   21.7800   37.5940 H   0  0  0  0  0  0  0  0  0  0  0  0
   39.2830   23.3420   38.3830 H   0  0  0  0  0 15  0  0  0  0  0  0
   39.0390   22.8990   38.7530 H   0  0  0  0  0  0  0  0  0  0  0  0
  1  8  1  0  0  0  0
  1 19  1  0  0  0  0
  2  1  2  0  0  0  0
  3  5  2  0  0  0  0
  3  2  1  0  0  0  0
  4  3  1  0  0  0  0
  5  7  1  0  0  0  0
  6  5  1  0  0  0  0
  7  8  2  0  0  0  0
  9 15  1  0  0  0  0
 10  9  2  0  0  0  0
 11 12  2  0  0  0  0
 11 10  1  0  0  0  0
 12 13  1  0  0  0  0
 13  2  1  0  0  0  0
 13 14  2  0  0  0  0
 14  9  1  0  0  0  0
 16 10  1  0  0  0  0
 17 11  1  0  0  0  0
 18 21  1  0  0  0  0
 19 18  1  0  0  0  0
 20 23  1  0  0  0  0
M  END
>  <minimizedAffinity>
-4.35291576

$$$$

 OpenBabel03262520083D

 23 22  0  0  0  0  0  0  0  0999 V2000
   38.6430   25.2360   36.0560 C   0  0  0  0  0  0  0  0  0  0  0  0
   39.7330   24.7360   35.3780 C   0  0  0  0  0  0  0  0  0  0  0  0
   40.1920   23.5020   35.7980 C   0  0  0  0  0  0  0  0  0  0  0  0
   41.0550   23.0730   35.2860 H   0  0  0  0  0  0  0  0  0  0  0  0
   39.5510   22.8830   36.8260 C   0  0  0  0  0  0  0  0  0  0  0  0
   39.9710   21.9240   37.0950 H   0  0  0  0  0  0  0  0  0  0  0  0
   38.4590   23.3790   37.5060 C   0  0  0  0  0  3  0  0  0  0  0  0
   37.9920   24.6090   37.0980 C   0  0  0  0  0  3  0  0  0  0  0  0
   41.8230   27.2000   33.6750 C   0  0  0  0  0  0  0  0  0  0  0  0
   41.6420   26.9150   32.3060 C   0  0  0  0  0  0  0  0  0  0  0  0
   40.7920   25.8610   31.9750 C   0  0  0  0  0  0  0  0  0  0  0  0
   40.1910   25.1780   32.9800 N   0  0  0  0  0  0  0  0  0  0  0  0
   40.3700   25.4600   34.2810 C   0  0  0  0  0  0  0  0  0  0  0  0
   41.1910   26.4760   34.6020 N   0  0  0  0  0  0  0  0  0  0  0  0
   42.4790   28.0110   33.8940 H   0  0  0  0  0  0  0  0  0  0  0  0
   42.1010   27.4330   31.4740 H   0  0  0  0  0  0  0  0  0  0  0  0
   40.5640   25.5350   30.9750 H   0  0  0  0  0  0  0  0  0  0  0  0
   37.3050   27.3880   35.1910 N   0  0  0  0  0  2  0  0  0  0  0  0
   38.0720   26.5150   35.7190 C   0  0  0  0  0  2  0  0  0  0  0  0
   38.5140   27.7690   36.1810 N   0  0  0  0  0  1  0  0  0  0  0  0
   37.4670   28.4170   35.4120 H   0  0  0  0  0  0  0  0  0  0  0  0
   39.2100   27.7280   36.9610 H   0  0  0  0  0 15  0  0  0  0  0  0
   39.1020   28.3310   36.8250 H   0  0  0  0  0  0  0  0  0  0  0  0
  1  8  1  0  0  0  0
  2  3  1  0  0  0  0
  2  1  2  0  0  0  0
  3  5  2  0  0  0  0
  4  3  1  0  0  0  0
  5  6  1  0  0  0  0
  5  7  1  0  0  0  0
  8  7  2  0  0  0  0
  9 15  1  0  0  0  0
  9 14  1  0  0  0  0
 10  9  2  0  0  0  0
 11 10  1  0  0  0  0
 11 12  2  0  0  0  0
 12 13  1  0  0  0  0
 13 14  2  0  0  0  0
 13  2  1  0  0  0  0
 16 10  1  0  0  0  0
 17 11  1  0  0  0  0
 18 21  1  0  0  0  0
 18 19  1  0  0  0  0
 19  1  1  0  0  0  0
 20 23  1  0  0  0  0
M  END
>  <minimizedAffinity>
-4.29707479

$$$$

 OpenBabel03262520083D

 23 22  0  0  0  0  0  0  0  0999 V2000
   36.0850   28.5160   32.0680 C   0  0  0  0  0  0  0  0  0  0  0  0
   36.6840   27.9710   33.1820 C   0  0  0  0  0  0  0  0  0  0  0  0
   36.3410   28.5420   34.3930 C   0  0  0  0  0  0  0  0  0  0  0  0
   36.7950   28.1370   35.2980 H   0  0  0  0  0  0  0  0  0  0  0  0
   35.4570   29.5770   34.3990 C   0  0  0  0  0  0  0  0  0  0  0  0
   35.2420   29.9670   35.3830 H   0  0  0  0  0  0  0  0  0  0  0  0
   34.8560   30.1240   33.2860 C   0  0  0  0  0  3  0  0  0  0  0  0
   35.1900   29.5650   32.0720 C   0  0  0  0  0  3  0  0  0  0  0  0
   37.8840   24.5260   32.9910 C   0  0  0  0  0  0  0  0  0  0  0  0
   39.2870   24.6550   32.9360 C   0  0  0  0  0  0  0  0  0  0  0  0
   39.8160   25.9440   32.9650 C   0  0  0  0  0  0  0  0  0  0  0  0
   38.9590   26.9920   33.0450 N   0  0  0  0  0  0  0  0  0  0  0  0
   37.6240   26.8570   33.0970 C   0  0  0  0  0  0  0  0  0  0  0  0
   37.1110   25.6130   33.0690 N   0  0  0  0  0  0  0  0  0  0  0  0
   37.5120   23.5290   32.9670 H   0  0  0  0  0  0  0  0  0  0  0  0
   40.0060   23.8480   32.8720 H   0  0  0  0  0  0  0  0  0  0  0  0
   40.8640   26.1880   32.9300 H   0  0  0  0  0  0  0  0  0  0  0  0
   36.8070   27.9580   29.5500 N   0  0  0  0  0  2  0  0  0  0  0  0
   36.3640   28.0150   30.7450 C   0  0  0  0  0  2  0  0  0  0  0  0
   35.9660   26.7680   30.2300 N   0  0  0  0  0  1  0  0  0  0  0  0
   36.6150   27.0860   28.9710 H   0  0  0  0  0  0  0  0  0  0  0  0
   35.5810   26.1020   30.9390 H   0  0  0  0  0 15  0  0  0  0  0  0
   35.5700   25.8210   30.3790 H   0  0  0  0  0  0  0  0  0  0  0  0
  1  8  2  0  0  0  0
  1  2  1  0  0  0  0
  2  3  2  0  0  0  0
  3  5  1  0  0  0  0
  3  4  1  0  0  0  0
  5  6  1  0  0  0  0
  7  5  2  0  0  0  0
  8  7  1  0  0  0  0
  9 14  1  0  0  0  0
 10 11  1  0  0  0  0
 10  9  2  0  0  0  0
 11 12  2  0  0  0  0
 12 13  1  0  0  0  0
 13  2  1  0  0  0  0
 14 13  2  0  0  0  0
 15  9  1  0  0  0  0
 16 10  1  0  0  0  0
 17 11  1  0  0  0  0
 18 19  1  0  0  0  0
 19  1  1  0  0  0  0
 20 23  1  0  0  0  0
 21 18  1  0  0  0  0
M  END
>  <minimizedAffinity>
-4.27431536

$$$$

 OpenBabel03262520083D

 23 22  0  0  0  0  0  0  0  0999 V2000
   36.3600   24.9090   31.8570 C   0  0  0  0  0  0  0  0  0  0  0  0
   37.2430   24.4810   32.8250 C   0  0  0  0  0  0  0  0  0  0  0  0
   37.3820   23.1130   32.9540 C   0  0  0  0  0  0  0  0  0  0  0  0
   38.0710   22.7350   33.7100 H   0  0  0  0  0  0  0  0  0  0  0  0
   36.6560   22.3040   32.1350 C   0  0  0  0  0  0  0  0  0  0  0  0
   36.8200   21.2480   32.3000 H   0  0  0  0  0  0  0  0  0  0  0  0
   35.7730   22.7280   31.1650 C   0  0  0  0  0  3  0  0  0  0  0  0
   35.6240   24.0900   31.0270 C   0  0  0  0  0  3  0  0  0  0  0  0
   37.8960   26.9420   35.4440 C   0  0  0  0  0  0  0  0  0  0  0  0
   39.2770   27.2020   35.3330 C   0  0  0  0  0  0  0  0  0  0  0  0
   39.9830   26.5190   34.3440 C   0  0  0  0  0  0  0  0  0  0  0  0
   39.3060   25.6510   33.5510 N   0  0  0  0  0  0  0  0  0  0  0  0
   37.9890   25.4120   33.6670 C   0  0  0  0  0  0  0  0  0  0  0  0
   37.3070   26.0710   34.6210 N   0  0  0  0  0  0  0  0  0  0  0  0
   37.3860   27.4790   36.2090 H   0  0  0  0  0  0  0  0  0  0  0  0
   39.8550   27.8850   35.9420 H   0  0  0  0  0  0  0  0  0  0  0  0
   41.0360   26.6200   34.1480 H   0  0  0  0  0  0  0  0  0  0  0  0
   35.8850   27.5440   31.8580 N   0  0  0  0  0  2  0  0  0  0  0  0
   36.1200   26.3110   31.6270 C   0  0  0  0  0  2  0  0  0  0  0  0
   36.0800   26.9520   30.3750 N   0  0  0  0  0  1  0  0  0  0  0  0
   35.8130   28.2170   31.0360 H   0  0  0  0  0  0  0  0  0  0  0  0
   36.4180   26.3710   29.5740 H   0  0  0  0  0 15  0  0  0  0  0  0
   36.2470   26.9320   29.3520 H   0  0  0  0  0  0  0  0  0  0  0  0
  1  2  1  0  0  0  0
  2  3  2  0  0  0  0
  2 13  1  0  0  0  0
  3  4  1  0  0  0  0
  5  6  1  0  0  0  0
  5  3  1  0  0  0  0
  7  5  2  0  0  0  0
  8  7  1  0  0  0  0
  8  1  2  0  0  0  0
  9 15  1  0  0  0  0
 10  9  1  0  0  0  0
 10 16  1  0  0  0  0
 11 10  2  0  0  0  0
 12 13  2  0  0  0  0
 12 11  1  0  0  0  0
 13 14  1  0  0  0  0
 14  9  2  0  0  0  0
 17 11  1  0  0  0  0
 19  1  1  0  0  0  0
 19 18  1  0  0  0  0
 21 18  1  0  0  0  0
 23 20  1  0  0  0  0
M  END
>  <minimizedAffinity>
-4.2676549

$$$$
