
 OpenBabel03272505123D

 44 47  0  0  0  0  0  0  0  0999 V2000
   33.3770   29.4510   44.6770 Cl  0  0  0  0  0  0  0  0  0  0  0  0
   33.5900   28.1520   45.8360 C   0  0  0  0  0  0  0  0  0  0  0  0
   33.8960   28.3090   47.1800 C   0  0  0  0  0  0  0  0  0  0  0  0
   34.0350   27.2080   47.9780 C   0  0  0  0  0  0  0  0  0  0  0  0
   33.8770   25.9560   47.4750 C   0  0  0  0  0  0  0  0  0  0  0  0
   33.5690   25.7340   46.1370 C   0  0  0  0  0  0  0  0  0  0  0  0
   33.4320   26.8540   45.3420 C   0  0  0  0  0  0  0  0  0  0  0  0
   34.2730   27.4470   49.0070 H   0  0  0  0  0  0  0  0  0  0  0  0
   33.9970   25.1050   48.1490 H   0  0  0  0  0  0  0  0  0  0  0  0
   33.4520   24.7310   45.7720 H   0  0  0  0  0  0  0  0  0  0  0  0
   34.0060   26.3620   42.9200 C   0  0  0  0  0  0  0  0  0  0  0  0
   33.1090   26.5630   43.9450 C   0  0  0  0  0  0  0  0  0  0  0  0
   31.7480   26.4950   43.6770 C   0  0  0  0  0  0  0  0  0  0  0  0
   30.9110   26.6300   44.3670 H   0  0  0  0  0  0  0  0  0  0  0  0
   31.3110   26.2270   42.3900 C   0  0  0  0  0  0  0  0  0  0  0  0
   30.2590   26.1570   42.0960 H   0  0  0  0  0  0  0  0  0  0  0  0
   32.1930   26.0200   41.3470 C   0  0  0  0  0  3  0  0  0  0  0  0
   33.5380   26.0940   41.6430 C   0  0  0  0  0  3  0  0  0  0  0  0
   36.0390   25.3740   43.6200 N   0  0  0  0  0  0  0  0  0  0  0  0
   35.4130   26.4460   43.2660 C   0  0  0  0  0  0  0  0  0  0  0  0
   36.0050   27.7440   43.1850 N   0  0  0  0  0  0  0  0  0  0  0  0
   37.0570   25.4880   43.8610 H   0  0  0  0  0  0  0  0  0  0  0  0
   36.1380   27.8190   42.1410 H   0  0  0  0  0  0  0  0  0  0  0  0
   36.3730   28.6420   43.5730 H   0  0  0  0  0  0  0  0  0  0  0  0
   34.0710   30.0170   47.6880 S   0  0  0  0  0  0  0  0  0  0  0  0
   36.3500   30.9410   45.7850 Cl  0  0  0  0  0  0  0  0  0  0  0  0
   36.7170   30.7740   47.4700 C   0  0  0  0  0  0  0  0  0  0  0  0
   38.0020   31.0600   47.8780 C   0  0  0  0  0  0  0  0  0  0  0  0
   38.2990   30.9270   49.2270 C   0  0  0  0  0  0  0  0  0  0  0  0
   37.3370   30.5260   50.1000 C   0  0  0  0  0  0  0  0  0  0  0  0
   36.0530   30.2510   49.6280 C   0  0  0  0  0  0  0  0  0  0  0  0
   35.6910   30.3600   48.3140 C   0  0  0  0  0  0  0  0  0  0  0  0
   39.3100   31.1520   49.5480 H   0  0  0  0  0  0  0  0  0  0  0  0
   37.5950   30.4300   51.1490 H   0  0  0  0  0  0  0  0  0  0  0  0
   35.3040   29.9330   50.3470 H   0  0  0  0  0  0  0  0  0  0  0  0
   40.2040   33.2560   45.9780 C   0  0  0  0  0  0  0  0  0  0  0  0
   40.8740   32.3910   45.0900 C   0  0  0  0  0  0  0  0  0  0  0  0
   40.5490   31.0260   45.1620 C   0  0  0  0  0  0  0  0  0  0  0  0
   39.6180   30.6160   46.0700 N   0  0  0  0  0  0  0  0  0  0  0  0
   39.0110   31.4920   46.8920 C   0  0  0  0  0  0  0  0  0  0  0  0
   39.3020   32.7920   46.8440 N   0  0  0  0  0  0  0  0  0  0  0  0
   40.4180   34.3200   45.9650 H   0  0  0  0  0  0  0  0  0  0  0  0
   41.6080   32.7840   44.3900 H   0  0  0  0  0  0  0  0  0  0  0  0
   41.0350   30.3320   44.5050 H   0  0  0  0  0  0  0  0  0  0  0  0
  1  2  1  0  0  0  0
  2  3  1  0  0  0  0
  3 25  1  0  0  0  0
  3  4  2  0  0  0  0
  4  8  1  0  0  0  0
  5  4  1  0  0  0  0
  5  9  1  0  0  0  0
  6  5  2  0  0  0  0
  7  2  2  0  0  0  0
  7  6  1  0  0  0  0
 10  6  1  0  0  0  0
 11 20  1  0  0  0  0
 11 12  1  0  0  0  0
 12  7  1  0  0  0  0
 13 12  2  0  0  0  0
 13 14  1  0  0  0  0
 15 13  1  0  0  0  0
 16 15  1  0  0  0  0
 17 18  1  0  0  0  0
 17 15  2  0  0  0  0
 18 11  2  0  0  0  0
 19 22  1  0  0  0  0
 20 19  2  0  0  0  0
 21 20  1  0  0  0  0
 21 24  1  0  0  0  0
 23 21  1  0  0  0  0
 25 32  1  0  0  0  0
 26 27  1  0  0  0  0
 27 28  2  0  0  0  0
 27 32  1  0  0  0  0
 28 29  1  0  0  0  0
 29 33  1  0  0  0  0
 29 30  2  0  0  0  0
 30 34  1  0  0  0  0
 31 30  1  0  0  0  0
 31 35  1  0  0  0  0
 32 31  2  0  0  0  0
 36 41  1  0  0  0  0
 37 38  1  0  0  0  0
 37 36  2  0  0  0  0
 38 39  2  0  0  0  0
 39 40  1  0  0  0  0
 40 28  1  0  0  0  0
 41 40  2  0  0  0  0
 42 36  1  0  0  0  0
 43 37  1  0  0  0  0
 44 38  1  0  0  0  0
M  END
>  <minimizedAffinity>
-5.50178528

>  <minimizedRMSD>
0.608080506

$$$$
