
 OpenBabel03272505123D

 44 47  0  0  0  0  0  0  0  0999 V2000
   33.5660   29.1100   44.3140 Cl  0  0  0  0  0  0  0  0  0  0  0  0
   33.6930   27.8660   45.5450 C   0  0  0  0  0  0  0  0  0  0  0  0
   33.8900   28.0860   46.9010 C   0  0  0  0  0  0  0  0  0  0  0  0
   33.9700   27.0230   47.7560 C   0  0  0  0  0  0  0  0  0  0  0  0
   33.8590   25.7480   47.3000 C   0  0  0  0  0  0  0  0  0  0  0  0
   33.6600   25.4640   45.9530 C   0  0  0  0  0  0  0  0  0  0  0  0
   33.5820   26.5450   45.0990 C   0  0  0  0  0  0  0  0  0  0  0  0
   34.1240   27.3100   48.7900 H   0  0  0  0  0  0  0  0  0  0  0  0
   33.9290   24.9300   48.0190 H   0  0  0  0  0  0  0  0  0  0  0  0
   33.5780   24.4440   45.6270 H   0  0  0  0  0  0  0  0  0  0  0  0
   34.3490   25.9760   42.7490 C   0  0  0  0  0  0  0  0  0  0  0  0
   33.3720   26.1900   43.6960 C   0  0  0  0  0  0  0  0  0  0  0  0
   32.0370   26.0680   43.3330 C   0  0  0  0  0  0  0  0  0  0  0  0
   31.1490   26.2030   43.9520 H   0  0  0  0  0  0  0  0  0  0  0  0
   31.7070   25.7360   42.0280 C   0  0  0  0  0  0  0  0  0  0  0  0
   30.6810   25.6200   41.6620 H   0  0  0  0  0  0  0  0  0  0  0  0
   32.6680   25.5160   41.0620 C   0  0  0  0  0  3  0  0  0  0  0  0
   33.9850   25.6440   41.4530 C   0  0  0  0  0  3  0  0  0  0  0  0
   36.3360   25.0910   43.6760 N   0  0  0  0  0  0  0  0  0  0  0  0
   35.7220   26.1180   43.1930 C   0  0  0  0  0  0  0  0  0  0  0  0
   36.2970   27.4190   43.0580 N   0  0  0  0  0  0  0  0  0  0  0  0
   37.3320   25.2450   43.9860 H   0  0  0  0  0  0  0  0  0  0  0  0
   36.5100   27.4180   42.0240 H   0  0  0  0  0  0  0  0  0  0  0  0
   36.6190   28.3520   43.4030 H   0  0  0  0  0  0  0  0  0  0  0  0
   34.0150   29.8170   47.3420 S   0  0  0  0  0  0  0  0  0  0  0  0
   36.3650   30.8170   45.5670 Cl  0  0  0  0  0  0  0  0  0  0  0  0
   36.6450   30.6550   47.2700 C   0  0  0  0  0  0  0  0  0  0  0  0
   37.8960   30.9780   47.7480 C   0  0  0  0  0  0  0  0  0  0  0  0
   38.1240   30.8500   49.1100 C   0  0  0  0  0  0  0  0  0  0  0  0
   37.1290   30.4170   49.9290 C   0  0  0  0  0  0  0  0  0  0  0  0
   35.8810   30.1040   49.3870 C   0  0  0  0  0  0  0  0  0  0  0  0
   35.5880   30.2070   48.0560 C   0  0  0  0  0  0  0  0  0  0  0  0
   39.1080   31.1040   49.4860 H   0  0  0  0  0  0  0  0  0  0  0  0
   37.3320   30.3240   50.9900 H   0  0  0  0  0  0  0  0  0  0  0  0
   35.1050   29.7600   50.0650 H   0  0  0  0  0  0  0  0  0  0  0  0
   40.1480   33.2440   45.9920 C   0  0  0  0  0  0  0  0  0  0  0  0
   40.8750   32.4060   45.1240 C   0  0  0  0  0  0  0  0  0  0  0  0
   40.5710   31.0350   45.1570 C   0  0  0  0  0  0  0  0  0  0  0  0
   39.6050   30.5930   46.0120 N   0  0  0  0  0  0  0  0  0  0  0  0
   38.9440   31.4440   46.8180 C   0  0  0  0  0  0  0  0  0  0  0  0
   39.2140   32.7500   46.8060 N   0  0  0  0  0  0  0  0  0  0  0  0
   40.3430   34.3120   46.0070 H   0  0  0  0  0  0  0  0  0  0  0  0
   41.6340   32.8230   44.4660 H   0  0  0  0  0  0  0  0  0  0  0  0
   41.1000   30.3610   44.5130 H   0  0  0  0  0  0  0  0  0  0  0  0
  1  2  1  0  0  0  0
  2  3  1  0  0  0  0
  3 25  1  0  0  0  0
  3  4  2  0  0  0  0
  4  8  1  0  0  0  0
  5  4  1  0  0  0  0
  5  9  1  0  0  0  0
  6  5  2  0  0  0  0
  7  2  2  0  0  0  0
  7  6  1  0  0  0  0
 10  6  1  0  0  0  0
 11 20  1  0  0  0  0
 11 12  1  0  0  0  0
 12  7  1  0  0  0  0
 13 12  2  0  0  0  0
 13 14  1  0  0  0  0
 15 13  1  0  0  0  0
 16 15  1  0  0  0  0
 17 18  1  0  0  0  0
 17 15  2  0  0  0  0
 18 11  2  0  0  0  0
 19 22  1  0  0  0  0
 20 19  2  0  0  0  0
 21 20  1  0  0  0  0
 21 24  1  0  0  0  0
 23 21  1  0  0  0  0
 25 32  1  0  0  0  0
 26 27  1  0  0  0  0
 27 28  2  0  0  0  0
 27 32  1  0  0  0  0
 28 29  1  0  0  0  0
 29 33  1  0  0  0  0
 29 30  2  0  0  0  0
 30 34  1  0  0  0  0
 31 30  1  0  0  0  0
 31 35  1  0  0  0  0
 32 31  2  0  0  0  0
 36 42  1  0  0  0  0
 36 41  1  0  0  0  0
 37 38  1  0  0  0  0
 37 36  2  0  0  0  0
 38 39  2  0  0  0  0
 39 40  1  0  0  0  0
 40 28  1  0  0  0  0
 41 40  2  0  0  0  0
 43 37  1  0  0  0  0
 44 38  1  0  0  0  0
M  END
>  <minimizedAffinity>
-5.47658157

>  <minimizedRMSD>
0.94613868

$$$$
