
     RDKit          3D

 43 47  0  0  0  0  0  0  0  0999 V2000
   37.3684   31.0575   47.1414 N   0  0  0  0  0  0  0  0  0  0  0  0
   36.7795   30.7253   45.9671 C   0  0  0  0  0  0  0  0  0  0  0  0
   37.2417   31.2014   44.7459 C   0  0  0  0  0  0  0  0  0  0  0  0
   38.3587   32.0533   44.7660 C   0  0  0  0  0  0  0  0  0  0  0  0
   38.8092   32.5059   43.6902 O   0  0  0  0  0  0  0  0  0  0  0  0
   38.9469   32.3830   45.9603 N   0  0  0  0  0  0  0  0  0  0  0  0
   38.4124   31.8637   47.0607 C   0  0  0  0  0  0  0  0  0  0  0  0
   38.9894   32.1982   48.1225 O   0  0  0  0  0  0  0  0  0  0  0  0
   37.2399   29.4832   50.5091 C   0  0  0  0  0  0  0  0  0  0  0  0
   37.7351   29.9671   49.2761 C   0  0  0  0  0  0  0  0  0  0  0  0
   36.8954   30.5729   48.3664 C   0  0  0  0  0  0  0  0  0  0  0  0
   35.6038   30.6799   48.7021 N   0  0  0  0  0  0  0  0  0  0  0  0
   35.0880   30.2270   49.8787 C   0  0  0  0  0  0  0  0  0  0  0  0
   35.9362   29.6262   50.7743 N   0  0  0  0  0  0  0  0  0  0  0  0
   36.6440   30.8729   43.4678 C   0  0  0  0  0  0  0  0  0  0  0  0
   37.0067   29.7633   42.7300 C   0  0  0  0  0  0  0  0  0  0  0  0
   36.4651   29.4114   41.5092 C   0  0  0  0  0  0  0  0  0  0  0  0
   35.4744   30.2404   40.9786 C   0  0  0  0  0  0  0  0  0  0  0  0
   35.1407   31.3398   41.7482 C   0  0  0  0  0  0  0  0  0  0  0  0
   35.6951   31.6384   42.9266 N   0  0  0  0  0  0  0  0  0  0  0  0
   40.0974   33.2618   45.9679 C   0  0  0  0  0  0  0  0  0  0  0  0
   39.9596   34.2399   45.0318 F   0  0  0  0  0  0  0  0  0  0  0  0
   41.2907   32.6065   45.6854 F   0  0  0  0  0  0  0  0  0  0  0  0
   40.1824   33.8721   47.2207 F   0  0  0  0  0  0  0  0  0  0  0  0
   35.9150   30.0664   45.9475 H   0  0  0  0  0  0  0  0  0  0  0  0
   37.9024   29.0075   51.2221 H   0  0  0  0  0  0  0  0  0  0  0  0
   38.7950   29.8419   49.0793 H   0  0  0  0  0  0  0  0  0  0  0  0
   34.0444   30.3846   50.0004 H   0  0  0  0  0  0  0  0  0  0  0  0
   37.7856   29.1256   43.1636 H   0  0  0  0  0  0  0  0  0  0  0  0
   36.8440   28.5141   41.0413 H   0  0  0  0  0  0  0  0  0  0  0  0
   35.0523   29.9767   40.0392 H   0  0  0  0  0  0  0  0  0  0  0  0
   34.1306   32.1945   41.2180 N   0  0  0  0  0  0  0  0  0  0  0  0
   34.3396   33.5226   40.9783 C   0  0  0  0  0  0  0  0  0  0  0  0
   35.2447   34.0742   41.1475 H   0  0  0  0  0  0  0  0  0  0  0  0
   33.2471   34.1449   40.4751 N   0  0  0  0  0  0  0  0  0  0  0  0
   32.3071   33.1701   40.3928 C   0  0  0  0  0  0  0  0  0  0  0  0
   31.0009   33.0929   39.9819 C   0  0  0  0  0  0  0  0  0  0  0  0
   30.5379   34.0170   39.6153 H   0  0  0  0  0  0  0  0  0  0  0  0
   30.2945   31.9416   40.0173 N   0  0  0  0  0  0  0  0  0  0  0  0
   30.8703   30.7915   40.4733 C   0  0  0  0  0  0  0  0  0  0  0  0
   30.2072   29.9375   40.4539 H   0  0  0  0  0  0  0  0  0  0  0  0
   32.1625   30.8253   40.8897 N   0  0  0  0  0  0  0  0  0  0  0  0
   32.8531   31.9823   40.8479 C   0  0  0  0  0  0  0  0  0  0  0  0
  1 11  1  0
  2  1  1  0
  3  4  1  0
  3  2  2  0
  4  6  1  0
  5  4  2  0
  6 21  1  0
  6  7  1  0
  7  1  1  0
  7  8  2  0
  9 14  2  0
 10  9  1  0
 11 12  1  0
 11 10  2  0
 12 13  2  0
 13 14  1  0
 15  3  1  0
 16 15  2  0
 17 16  1  0
 18 17  2  0
 18 19  1  0
 19 20  2  0
 20 15  1  0
 21 24  1  0
 22 21  1  0
 23 21  1  0
  2 25  1  0
  9 26  1  0
 10 27  1  0
 13 28  1  0
 16 29  1  0
 17 30  1  0
 18 31  1  0
 32 33  1  0
 33 34  1  0
 33 35  2  0
 35 36  1  0
 36 37  2  0
 37 38  1  0
 37 39  1  0
 39 40  2  0
 40 41  1  0
 40 42  1  0
 42 43  2  0
 43 32  1  0
 43 36  1  0
 19 32  1  0
M  ISO  8  25  14  26  14  27  14  28  14  29  14  30  14  31  14  34  15
M  ISO  2  38  16  41  16
M  END
>  <DihAtoms>  (1) 
17,18,31,32

>  <DihDeg>  (1) 
147.98103853558538

$$$$
