
 OpenBabel03272507023D

 49 53  0  0  1  0  0  0  0  0999 V2000
   36.4470   23.4110   30.9020 C   0  0  2  0  0  0  0  0  0  0  0  0
   37.6880   24.1020   31.3590 C   0  0  0  0  0  0  0  0  0  0  0  0
   37.4090   25.2030   32.3390 C   0  0  2  0  0  0  0  0  0  0  0  0
   36.4320   26.2150   31.8630 C   0  0  0  0  0  0  0  0  0  0  0  0
   35.2920   25.6100   31.0720 C   0  0  0  0  0  0  0  0  0  0  0  0
   35.1820   24.1140   31.3090 C   0  0  0  0  0  0  0  0  0  0  0  0
   36.3600   23.2990   29.7800 H   0  0  0  0  0  0  0  0  0  0  0  0
   38.1970   24.3900   30.4480 H   0  0  0  0  0  0  0  0  0  0  0  0
   38.3790   23.4530   31.9160 H   0  0  0  0  0  0  0  0  0  0  0  0
   36.9850   24.7010   33.2350 H   0  0  0  0  0  0  0  0  0  0  0  0
   36.8810   27.1050   31.3760 H   0  0  0  0  0  0  0  0  0  0  0  0
   35.9380   26.6430   32.7870 H   0  0  0  0  0  0  0  0  0  0  0  0
   35.5410   25.7450   29.9990 H   0  0  0  0  0  0  0  0  0  0  0  0
   34.3420   26.1160   31.2370 H   0  0  0  0  0  0  0  0  0  0  0  0
   34.3520   23.7460   30.6780 H   0  0  0  0  0  0  0  0  0  0  0  0
   34.9460   23.9510   32.3770 H   0  0  0  0  0  0  0  0  0  0  0  0
   38.6580   25.7560   32.6970 N   0  0  1  0  0  0  0  0  0  0  0  0
   38.8270   27.1600   32.4710 C   0  0  0  0  0  0  0  0  0  0  0  0
   40.3370   27.2990   32.6750 C   0  0  0  0  0  0  0  0  0  0  0  0
   40.5220   26.3750   33.8680 C   0  0  0  0  0  0  0  0  0  0  0  0
   39.4060   25.3100   33.7050 C   0  0  1  0  0  0  0  0  0  0  0  0
   38.3140   27.7750   33.2440 H   0  0  0  0  0  0  0  0  0  0  0  0
   38.6130   27.4560   31.4410 H   0  0  0  0  0  0  0  0  0  0  0  0
   40.5440   28.3520   32.9370 H   0  0  0  0  0  0  0  0  0  0  0  0
   40.8680   26.9300   31.7910 H   0  0  0  0  0  0  0  0  0  0  0  0
   41.5260   25.9330   33.8980 H   0  0  0  0  0  0  0  0  0  0  0  0
   40.4120   26.9770   34.7610 H   0  0  0  0  0  0  0  0  0  0  0  0
   40.0230   24.4740   33.2060 H   0  0  0  0  0  0  0  0  0  0  0  0
   39.0950   24.8400   34.9750 N   0  0  0  0  0  0  0  0  0  0  0  0
   38.0270   25.2190   35.7500 C   0  0  0  0  0  0  0  0  0  0  0  0
   37.2290   25.9480   35.5380 H   0  0  0  0  0  0  0  0  0  0  0  0
   37.9560   24.6170   36.9160 N   0  0  0  0  0  0  0  0  0  0  0  0
   39.0040   23.7780   36.9820 C   0  0  0  0  0  0  0  0  0  0  0  0
   39.4850   22.8820   37.9260 C   0  0  0  0  0  0  0  0  0  0  0  0
   38.9590   22.7560   38.8630 H   0  0  0  0  0  0  0  0  0  0  0  0
   40.5980   22.1550   37.7140 N   0  0  0  0  0  0  0  0  0  0  0  0
   41.2550   22.3090   36.5500 C   0  0  0  0  0  0  0  0  0  0  0  0
   42.1650   21.8240   36.1810 H   0  0  0  0  0  0  0  0  0  0  0  0
   40.7950   23.1620   35.6540 N   0  0  0  0  0  0  0  0  0  0  0  0
   39.6930   23.9190   35.7970 C   0  0  0  0  0  0  0  0  0  0  0  0
   36.3760   22.0230   31.4110 C   0  0  0  0  0  0  0  0  0  0  0  0
   35.3280   21.7860   32.3020 C   0  0  0  0  0  0  0  0  0  0  0  0
   35.2120   20.4800   32.8010 C   0  0  0  0  0  0  0  0  0  0  0  0
   36.1200   19.5160   32.3970 N   0  0  0  0  0  0  0  0  0  0  0  0
   37.1290   19.8040   31.5210 C   0  0  0  0  0  0  0  0  0  0  0  0
   37.2290   21.0360   31.0570 N   0  0  0  0  0  0  0  0  0  0  0  0
   34.5270   22.3010   32.7870 H   0  0  0  0  0  0  0  0  0  0  0  0
   34.5280   20.0260   33.4750 H   0  0  0  0  0  0  0  0  0  0  0  0
   37.8300   19.0590   31.2100 H   0  0  0  0  0  0  0  0  0  0  0  0
  1  7  1  6  0  0  0
  1  6  1  0  0  0  0
  1  2  1  0  0  0  0
  1 41  1  0  0  0  0
  2  9  1  0  0  0  0
  2  3  1  0  0  0  0
  3 17  1  0  0  0  0
  3 10  1  1  0  0  0
  4  3  1  0  0  0  0
  4 12  1  0  0  0  0
  5 14  1  0  0  0  0
  5  6  1  0  0  0  0
  5  4  1  0  0  0  0
  6 16  1  0  0  0  0
  8  2  1  0  0  0  0
 11  4  1  0  0  0  0
 13  5  1  0  0  0  0
 15  6  1  0  0  0  0
 17 18  1  1  0  0  0
 17 21  1  0  0  0  0
 18 19  1  0  0  0  0
 18 22  1  0  0  0  0
 19 24  1  0  0  0  0
 19 20  1  0  0  0  0
 20 26  1  0  0  0  0
 20 27  1  0  0  0  0
 21 28  1  6  0  0  0
 21 20  1  0  0  0  0
 21 29  1  0  0  0  0
 23 18  1  0  0  0  0
 25 19  1  0  0  0  0
 29 30  1  0  0  0  0
 29 40  1  0  0  0  0
 30 32  2  0  0  0  0
 31 30  1  0  0  0  0
 32 33  1  0  0  0  0
 33 34  1  0  0  0  0
 34 35  1  0  0  0  0
 36 34  2  0  0  0  0
 37 36  1  0  0  0  0
 38 37  1  0  0  0  0
 39 40  1  0  0  0  0
 39 37  2  0  0  0  0
 40 33  2  0  0  0  0
 41 42  1  0  0  0  0
 42 47  1  0  0  0  0
 42 43  2  0  0  0  0
 43 48  1  0  0  0  0
 44 43  1  0  0  0  0
 45 44  2  0  0  0  0
 46 41  2  0  0  0  0
 46 45  1  0  0  0  0
 49 45  1  0  0  0  0
M  END
>  <minimizedAffinity>
-6.2227459

$$$$

 OpenBabel03272507023D

 49 53  0  0  1  0  0  0  0  0999 V2000
   37.9120   26.2900   33.5140 C   0  0  2  0  0  0  0  0  0  0  0  0
   38.7000   25.2090   34.1750 C   0  0  0  0  0  0  0  0  0  0  0  0
   38.3620   25.0520   35.6270 C   0  0  2  0  0  0  0  0  0  0  0  0
   38.4820   26.3000   36.4230 C   0  0  0  0  0  0  0  0  0  0  0  0
   38.0100   27.5270   35.6730 C   0  0  0  0  0  0  0  0  0  0  0  0
   37.1480   27.1530   34.4800 C   0  0  0  0  0  0  0  0  0  0  0  0
   38.5320   27.0190   32.9120 H   0  0  0  0  0  0  0  0  0  0  0  0
   39.7330   25.4380   33.9450 H   0  0  0  0  0  0  0  0  0  0  0  0
   38.5010   24.2040   33.7720 H   0  0  0  0  0  0  0  0  0  0  0  0
   37.3010   24.7220   35.6510 H   0  0  0  0  0  0  0  0  0  0  0  0
   39.4610   26.4420   36.9250 H   0  0  0  0  0  0  0  0  0  0  0  0
   37.7570   26.2010   37.2860 H   0  0  0  0  0  0  0  0  0  0  0  0
   38.9180   28.0220   35.2680 H   0  0  0  0  0  0  0  0  0  0  0  0
   37.5180   28.2570   36.3130 H   0  0  0  0  0  0  0  0  0  0  0  0
   36.8720   28.0950   33.9710 H   0  0  0  0  0  0  0  0  0  0  0  0
   36.2410   26.6460   34.8570 H   0  0  0  0  0  0  0  0  0  0  0  0
   39.1600   23.9960   36.1200 N   0  0  1  0  0  0  0  0  0  0  0  0
   38.9320   23.5970   37.4760 C   0  0  0  0  0  0  0  0  0  0  0  0
   40.1460   22.6980   37.7140 C   0  0  0  0  0  0  0  0  0  0  0  0
   40.1980   21.9750   36.3780 C   0  0  0  0  0  0  0  0  0  0  0  0
   39.6160   22.9970   35.3660 C   0  0  1  0  0  0  0  0  0  0  0  0
   38.0140   22.9760   37.5830 H   0  0  0  0  0  0  0  0  0  0  0  0
   39.0020   24.4270   38.1840 H   0  0  0  0  0  0  0  0  0  0  0  0
   39.8970   22.0110   38.5420 H   0  0  0  0  0  0  0  0  0  0  0  0
   41.0390   23.3130   37.8760 H   0  0  0  0  0  0  0  0  0  0  0  0
   41.2150   21.6560   36.1180 H   0  0  0  0  0  0  0  0  0  0  0  0
   39.5980   21.0790   36.4750 H   0  0  0  0  0  0  0  0  0  0  0  0
   40.6020   23.4260   34.9540 H   0  0  0  0  0  0  0  0  0  0  0  0
   39.0560   22.2710   34.3220 N   0  0  0  0  0  0  0  0  0  0  0  0
   39.6350   22.0080   33.1050 C   0  0  0  0  0  0  0  0  0  0  0  0
   40.6200   22.3100   32.7160 H   0  0  0  0  0  0  0  0  0  0  0  0
   38.8950   21.2900   32.2900 N   0  0  0  0  0  0  0  0  0  0  0  0
   37.7490   21.0270   32.9410 C   0  0  0  0  0  0  0  0  0  0  0  0
   36.5850   20.3340   32.6370 C   0  0  0  0  0  0  0  0  0  0  0  0
   36.4820   19.8550   31.6730 H   0  0  0  0  0  0  0  0  0  0  0  0
   35.5670   20.2360   33.5120 N   0  0  0  0  0  0  0  0  0  0  0  0
   35.6910   20.8300   34.7130 C   0  0  0  0  0  0  0  0  0  0  0  0
   34.9950   20.8720   35.5580 H   0  0  0  0  0  0  0  0  0  0  0  0
   36.8000   21.4880   35.0000 N   0  0  0  0  0  0  0  0  0  0  0  0
   37.8540   21.6260   34.1770 C   0  0  0  0  0  0  0  0  0  0  0  0
   36.9450   25.7420   32.5360 C   0  0  0  0  0  0  0  0  0  0  0  0
   36.1780   26.7060   31.8800 C   0  0  0  0  0  0  0  0  0  0  0  0
   35.2560   26.2350   30.9330 C   0  0  0  0  0  0  0  0  0  0  0  0
   35.1550   24.8720   30.7030 N   0  0  0  0  0  0  0  0  0  0  0  0
   35.9320   23.9730   31.3760 C   0  0  0  0  0  0  0  0  0  0  0  0
   36.7970   24.4270   32.2650 N   0  0  0  0  0  0  0  0  0  0  0  0
   36.0250   27.7640   31.8580 H   0  0  0  0  0  0  0  0  0  0  0  0
   34.5600   26.7270   30.2990 H   0  0  0  0  0  0  0  0  0  0  0  0
   35.8530   22.9220   31.1980 H   0  0  0  0  0  0  0  0  0  0  0  0
  1  7  1  6  0  0  0
  1  2  1  0  0  0  0
  1  6  1  0  0  0  0
  2  3  1  0  0  0  0
  3 10  1  1  0  0  0
  3 17  1  0  0  0  0
  3  4  1  0  0  0  0
  4 11  1  0  0  0  0
  4 12  1  0  0  0  0
  5 14  1  0  0  0  0
  5  4  1  0  0  0  0
  6 16  1  0  0  0  0
  6  5  1  0  0  0  0
  8  2  1  0  0  0  0
  9  2  1  0  0  0  0
 13  5  1  0  0  0  0
 15  6  1  0  0  0  0
 17 18  1  1  0  0  0
 18 22  1  0  0  0  0
 18 19  1  0  0  0  0
 18 23  1  0  0  0  0
 19 25  1  0  0  0  0
 19 24  1  0  0  0  0
 20 27  1  0  0  0  0
 20 19  1  0  0  0  0
 21 28  1  6  0  0  0
 21 17  1  0  0  0  0
 21 20  1  0  0  0  0
 26 20  1  0  0  0  0
 29 21  1  0  0  0  0
 30 29  1  0  0  0  0
 31 30  1  0  0  0  0
 32 33  1  0  0  0  0
 32 30  2  0  0  0  0
 33 40  1  0  0  0  0
 34 33  2  0  0  0  0
 34 36  1  0  0  0  0
 35 34  1  0  0  0  0
 36 37  2  0  0  0  0
 37 39  1  0  0  0  0
 37 38  1  0  0  0  0
 40 29  1  0  0  0  0
 40 39  2  0  0  0  0
 41  1  1  0  0  0  0
 42 41  2  0  0  0  0
 43 42  1  0  0  0  0
 44 43  2  0  0  0  0
 44 45  1  0  0  0  0
 45 46  2  0  0  0  0
 46 41  1  0  0  0  0
 47 42  1  0  0  0  0
 48 43  1  0  0  0  0
 49 45  1  0  0  0  0
M  END
>  <minimizedAffinity>
-6.18040419

$$$$

 OpenBabel03272507023D

 49 53  0  0  1  0  0  0  0  0999 V2000
   38.6520   26.1180   35.4680 C   0  0  2  0  0  0  0  0  0  0  0  0
   37.5210   25.9610   34.5080 C   0  0  0  0  0  0  0  0  0  0  0  0
   37.9830   25.6480   33.1160 C   0  0  2  0  0  0  0  0  0  0  0  0
   38.9620   26.6170   32.5620 C   0  0  0  0  0  0  0  0  0  0  0  0
   39.9620   27.1000   33.5910 C   0  0  0  0  0  0  0  0  0  0  0  0
   39.9990   26.1850   34.8030 C   0  0  0  0  0  0  0  0  0  0  0  0
   38.6020   27.0530   36.1010 H   0  0  0  0  0  0  0  0  0  0  0  0
   36.9300   26.8610   34.6260 H   0  0  0  0  0  0  0  0  0  0  0  0
   36.8570   25.1140   34.7370 H   0  0  0  0  0  0  0  0  0  0  0  0
   38.4730   24.6530   33.1820 H   0  0  0  0  0  0  0  0  0  0  0  0
   38.5200   27.4380   31.9610 H   0  0  0  0  0  0  0  0  0  0  0  0
   39.5870   26.0470   31.8100 H   0  0  0  0  0  0  0  0  0  0  0  0
   39.6000   28.0870   33.9480 H   0  0  0  0  0  0  0  0  0  0  0  0
   40.9550   27.2640   33.1780 H   0  0  0  0  0  0  0  0  0  0  0  0
   40.7250   26.6210   35.5150 H   0  0  0  0  0  0  0  0  0  0  0  0
   40.3460   25.1890   34.4710 H   0  0  0  0  0  0  0  0  0  0  0  0
   36.8220   25.5120   32.3220 N   0  0  1  0  0  0  0  0  0  0  0  0
   36.6030   26.5170   31.3260 C   0  0  0  0  0  0  0  0  0  0  0  0
   35.1600   26.2070   30.9240 C   0  0  0  0  0  0  0  0  0  0  0  0
   35.2140   24.6890   30.9200 C   0  0  0  0  0  0  0  0  0  0  0  0
   36.2860   24.3400   31.9870 C   0  0  1  0  0  0  0  0  0  0  0  0
   37.2510   26.3740   30.4330 H   0  0  0  0  0  0  0  0  0  0  0  0
   36.6130   27.5320   31.7330 H   0  0  0  0  0  0  0  0  0  0  0  0
   35.0000   26.6140   29.9100 H   0  0  0  0  0  0  0  0  0  0  0  0
   34.4710   26.5860   31.6880 H   0  0  0  0  0  0  0  0  0  0  0  0
   34.2390   24.2380   31.1390 H   0  0  0  0  0  0  0  0  0  0  0  0
   35.4900   24.3790   29.9200 H   0  0  0  0  0  0  0  0  0  0  0  0
   35.5890   24.1210   32.8790 H   0  0  0  0  0  0  0  0  0  0  0  0
   36.8390   23.1160   31.6330 N   0  0  0  0  0  0  0  0  0  0  0  0
   37.8970   22.9110   30.7830 C   0  0  0  0  0  0  0  0  0  0  0  0
   38.5010   23.6420   30.2230 H   0  0  0  0  0  0  0  0  0  0  0  0
   38.2310   21.6500   30.6190 N   0  0  0  0  0  0  0  0  0  0  0  0
   37.3870   20.9260   31.3740 C   0  0  0  0  0  0  0  0  0  0  0  0
   37.2150   19.5730   31.6300 C   0  0  0  0  0  0  0  0  0  0  0  0
   37.8670   18.8500   31.1580 H   0  0  0  0  0  0  0  0  0  0  0  0
   36.2520   19.1220   32.4550 N   0  0  0  0  0  0  0  0  0  0  0  0
   35.4380   20.0170   33.0440 C   0  0  0  0  0  0  0  0  0  0  0  0
   34.6040   19.8670   33.7390 H   0  0  0  0  0  0  0  0  0  0  0  0
   35.6050   21.3040   32.7990 N   0  0  0  0  0  0  0  0  0  0  0  0
   36.5430   21.8250   31.9880 C   0  0  0  0  0  0  0  0  0  0  0  0
   38.6900   25.0140   36.4530 C   0  0  0  0  0  0  0  0  0  0  0  0
   39.5160   23.9470   36.0950 C   0  0  0  0  0  0  0  0  0  0  0  0
   39.5950   22.8820   37.0050 C   0  0  0  0  0  0  0  0  0  0  0  0
   38.8660   22.9390   38.1810 N   0  0  0  0  0  0  0  0  0  0  0  0
   38.0710   24.0090   38.4800 C   0  0  0  0  0  0  0  0  0  0  0  0
   38.0050   25.0060   37.6180 N   0  0  0  0  0  0  0  0  0  0  0  0
   40.1500   23.6280   35.2950 H   0  0  0  0  0  0  0  0  0  0  0  0
   40.1310   21.9650   36.9940 H   0  0  0  0  0  0  0  0  0  0  0  0
   37.5090   24.0520   39.3880 H   0  0  0  0  0  0  0  0  0  0  0  0
  1  7  1  1  0  0  0
  1 41  1  0  0  0  0
  2  8  1  0  0  0  0
  2  9  1  0  0  0  0
  2  1  1  0  0  0  0
  3 10  1  1  0  0  0
  3  2  1  0  0  0  0
  4  3  1  0  0  0  0
  4  5  1  0  0  0  0
  5 13  1  0  0  0  0
  5  6  1  0  0  0  0
  6  1  1  0  0  0  0
  6 15  1  0  0  0  0
 11  4  1  0  0  0  0
 12  4  1  0  0  0  0
 14  5  1  0  0  0  0
 16  6  1  0  0  0  0
 17 18  1  6  0  0  0
 17  3  1  0  0  0  0
 18 23  1  0  0  0  0
 19 18  1  0  0  0  0
 19 25  1  0  0  0  0
 20 19  1  0  0  0  0
 20 26  1  0  0  0  0
 20 21  1  0  0  0  0
 21 17  1  0  0  0  0
 21 28  1  1  0  0  0
 22 18  1  0  0  0  0
 24 19  1  0  0  0  0
 27 20  1  0  0  0  0
 29 21  1  0  0  0  0
 29 40  1  0  0  0  0
 30 29  1  0  0  0  0
 31 30  1  0  0  0  0
 32 30  2  0  0  0  0
 32 33  1  0  0  0  0
 33 34  2  0  0  0  0
 33 40  1  0  0  0  0
 34 36  1  0  0  0  0
 35 34  1  0  0  0  0
 36 37  2  0  0  0  0
 37 38  1  0  0  0  0
 39 37  1  0  0  0  0
 40 39  2  0  0  0  0
 41 46  1  0  0  0  0
 42 41  2  0  0  0  0
 42 43  1  0  0  0  0
 43 44  2  0  0  0  0
 44 45  1  0  0  0  0
 45 49  1  0  0  0  0
 46 45  2  0  0  0  0
 47 42  1  0  0  0  0
 48 43  1  0  0  0  0
M  END
>  <minimizedAffinity>
-6.11893845

$$$$

 OpenBabel03272507023D

 49 53  0  0  1  0  0  0  0  0999 V2000
   38.6950   26.0960   35.1020 C   0  0  2  0  0  0  0  0  0  0  0  0
   37.6510   25.8000   34.0780 C   0  0  0  0  0  0  0  0  0  0  0  0
   38.2300   25.5280   32.7220 C   0  0  2  0  0  0  0  0  0  0  0  0
   39.1240   26.5980   32.2120 C   0  0  0  0  0  0  0  0  0  0  0  0
   39.9960   27.2040   33.2900 C   0  0  0  0  0  0  0  0  0  0  0  0
   40.0640   26.3130   34.5180 C   0  0  0  0  0  0  0  0  0  0  0  0
   38.4990   27.0260   35.7140 H   0  0  0  0  0  0  0  0  0  0  0  0
   36.9540   26.6260   34.1450 H   0  0  0  0  0  0  0  0  0  0  0  0
   37.0750   24.8840   34.2820 H   0  0  0  0  0  0  0  0  0  0  0  0
   38.8270   24.5970   32.8360 H   0  0  0  0  0  0  0  0  0  0  0  0
   38.6290   27.3550   31.5700 H   0  0  0  0  0  0  0  0  0  0  0  0
   39.8550   26.0960   31.5080 H   0  0  0  0  0  0  0  0  0  0  0  0
   39.5020   28.1460   33.6080 H   0  0  0  0  0  0  0  0  0  0  0  0
   40.9880   27.4780   32.9350 H   0  0  0  0  0  0  0  0  0  0  0  0
   40.6890   26.8360   35.2650 H   0  0  0  0  0  0  0  0  0  0  0  0
   40.5420   25.3600   34.2250 H   0  0  0  0  0  0  0  0  0  0  0  0
   37.1440   25.2500   31.8630 N   0  0  1  0  0  0  0  0  0  0  0  0
   36.2170   24.2510   32.3030 C   0  0  0  0  0  0  0  0  0  0  0  0
   35.4140   24.0260   31.0210 C   0  0  0  0  0  0  0  0  0  0  0  0
   35.2930   25.4620   30.5370 C   0  0  0  0  0  0  0  0  0  0  0  0
   36.5760   26.1550   31.0680 C   0  0  1  0  0  0  0  0  0  0  0  0
   35.5230   24.6350   33.0840 H   0  0  0  0  0  0  0  0  0  0  0  0
   36.6970   23.3020   32.5530 H   0  0  0  0  0  0  0  0  0  0  0  0
   34.4330   23.6070   31.3080 H   0  0  0  0  0  0  0  0  0  0  0  0
   35.9930   23.4110   30.3220 H   0  0  0  0  0  0  0  0  0  0  0  0
   35.2000   25.5250   29.4460 H   0  0  0  0  0  0  0  0  0  0  0  0
   34.3820   25.8670   30.9580 H   0  0  0  0  0  0  0  0  0  0  0  0
   37.2240   26.0920   30.1170 H   0  0  0  0  0  0  0  0  0  0  0  0
   36.2790   27.5020   31.2320 N   0  0  0  0  0  0  0  0  0  0  0  0
   35.5550   28.0630   32.2540 C   0  0  0  0  0  0  0  0  0  0  0  0
   35.0730   27.5820   33.1200 H   0  0  0  0  0  0  0  0  0  0  0  0
   35.4220   29.3680   32.1790 N   0  0  0  0  0  0  0  0  0  0  0  0
   36.0720   29.7590   31.0690 C   0  0  0  0  0  0  0  0  0  0  0  0
   36.2980   30.9770   30.4430 C   0  0  0  0  0  0  0  0  0  0  0  0
   35.8990   31.8850   30.8750 H   0  0  0  0  0  0  0  0  0  0  0  0
   37.0050   31.0680   29.3010 N   0  0  0  0  0  0  0  0  0  0  0  0
   37.5020   29.9410   28.7600 C   0  0  0  0  0  0  0  0  0  0  0  0
   38.0960   29.7940   27.8510 H   0  0  0  0  0  0  0  0  0  0  0  0
   37.2860   28.7840   29.3590 N   0  0  0  0  0  0  0  0  0  0  0  0
   36.5910   28.6180   30.4980 C   0  0  0  0  0  0  0  0  0  0  0  0
   38.7990   25.0140   36.1060 C   0  0  0  0  0  0  0  0  0  0  0  0
   39.7540   24.0400   35.8110 C   0  0  0  0  0  0  0  0  0  0  0  0
   39.8980   23.0000   36.7420 C   0  0  0  0  0  0  0  0  0  0  0  0
   39.1040   22.9910   37.8780 N   0  0  0  0  0  0  0  0  0  0  0  0
   38.1830   23.9720   38.1150 C   0  0  0  0  0  0  0  0  0  0  0  0
   38.0560   24.9460   37.2330 N   0  0  0  0  0  0  0  0  0  0  0  0
   40.4610   23.7830   35.0520 H   0  0  0  0  0  0  0  0  0  0  0  0
   40.5300   22.1480   36.7760 H   0  0  0  0  0  0  0  0  0  0  0  0
   37.5710   23.9630   38.9920 H   0  0  0  0  0  0  0  0  0  0  0  0
  1  7  1  1  0  0  0
  1 41  1  0  0  0  0
  2  8  1  0  0  0  0
  2  9  1  0  0  0  0
  2  1  1  0  0  0  0
  3 10  1  1  0  0  0
  3  2  1  0  0  0  0
  4  3  1  0  0  0  0
  4  5  1  0  0  0  0
  5 13  1  0  0  0  0
  5  6  1  0  0  0  0
  6  1  1  0  0  0  0
  6 15  1  0  0  0  0
 11  4  1  0  0  0  0
 12  4  1  0  0  0  0
 14  5  1  0  0  0  0
 16  6  1  0  0  0  0
 17 18  1  1  0  0  0
 17  3  1  0  0  0  0
 18 23  1  0  0  0  0
 18 22  1  0  0  0  0
 19 24  1  0  0  0  0
 19 18  1  0  0  0  0
 20 27  1  0  0  0  0
 20 19  1  0  0  0  0
 20 21  1  0  0  0  0
 21 28  1  6  0  0  0
 21 29  1  0  0  0  0
 21 17  1  0  0  0  0
 25 19  1  0  0  0  0
 26 20  1  0  0  0  0
 29 30  1  0  0  0  0
 30 31  1  0  0  0  0
 32 30  2  0  0  0  0
 33 32  1  0  0  0  0
 34 35  1  0  0  0  0
 34 33  2  0  0  0  0
 36 34  1  0  0  0  0
 37 36  2  0  0  0  0
 37 39  1  0  0  0  0
 38 37  1  0  0  0  0
 39 40  2  0  0  0  0
 40 33  1  0  0  0  0
 40 29  1  0  0  0  0
 41 46  1  0  0  0  0
 42 41  2  0  0  0  0
 42 43  1  0  0  0  0
 43 48  1  0  0  0  0
 43 44  2  0  0  0  0
 44 45  1  0  0  0  0
 45 49  1  0  0  0  0
 46 45  2  0  0  0  0
 47 42  1  0  0  0  0
M  END
>  <minimizedAffinity>
-5.93070316

$$$$

 OpenBabel03272507023D

 49 53  0  0  1  0  0  0  0  0999 V2000
   37.0720   27.0480   31.5040 C   0  0  2  0  0  0  0  0  0  0  0  0
   36.7200   25.6050   31.6520 C   0  0  0  0  0  0  0  0  0  0  0  0
   37.7970   24.8120   32.3290 C   0  0  2  0  0  0  0  0  0  0  0  0
   39.1340   24.9250   31.6930 C   0  0  0  0  0  0  0  0  0  0  0  0
   39.4340   26.3230   31.1930 C   0  0  0  0  0  0  0  0  0  0  0  0
   38.5100   27.3500   31.8230 C   0  0  0  0  0  0  0  0  0  0  0  0
   36.9210   27.4620   30.4630 H   0  0  0  0  0  0  0  0  0  0  0  0
   36.4430   25.2840   30.6550 H   0  0  0  0  0  0  0  0  0  0  0  0
   35.8460   25.4250   32.2960 H   0  0  0  0  0  0  0  0  0  0  0  0
   37.8630   25.2230   33.3600 H   0  0  0  0  0  0  0  0  0  0  0  0
   39.3670   24.1340   30.9510 H   0  0  0  0  0  0  0  0  0  0  0  0
   39.8940   24.7500   32.5120 H   0  0  0  0  0  0  0  0  0  0  0  0
   39.2180   26.3250   30.1040 H   0  0  0  0  0  0  0  0  0  0  0  0
   40.4810   26.6000   31.3030 H   0  0  0  0  0  0  0  0  0  0  0  0
   38.7720   28.3320   31.3870 H   0  0  0  0  0  0  0  0  0  0  0  0
   38.6980   27.3580   32.9130 H   0  0  0  0  0  0  0  0  0  0  0  0
   37.3300   23.4820   32.4170 N   0  0  1  0  0  0  0  0  0  0  0  0
   37.3480   22.7140   31.2080 C   0  0  0  0  0  0  0  0  0  0  0  0
   36.5110   21.5050   31.6290 C   0  0  0  0  0  0  0  0  0  0  0  0
   37.0440   21.3000   33.0370 C   0  0  0  0  0  0  0  0  0  0  0  0
   37.4550   22.7220   33.5030 C   0  0  1  0  0  0  0  0  0  0  0  0
   38.3700   22.3570   30.9520 H   0  0  0  0  0  0  0  0  0  0  0  0
   36.8200   23.2010   30.3840 H   0  0  0  0  0  0  0  0  0  0  0  0
   36.7770   20.6650   30.9630 H   0  0  0  0  0  0  0  0  0  0  0  0
   35.4480   21.7720   31.6330 H   0  0  0  0  0  0  0  0  0  0  0  0
   36.3020   20.8370   33.6990 H   0  0  0  0  0  0  0  0  0  0  0  0
   37.8800   20.6150   32.9680 H   0  0  0  0  0  0  0  0  0  0  0  0
   36.5110   22.9950   34.1070 H   0  0  0  0  0  0  0  0  0  0  0  0
   38.4700   22.5730   34.4400 N   0  0  0  0  0  0  0  0  0  0  0  0
   39.7390   22.1050   34.2040 C   0  0  0  0  0  0  0  0  0  0  0  0
   40.1970   21.7600   33.2640 H   0  0  0  0  0  0  0  0  0  0  0  0
   40.5140   22.0670   35.2650 N   0  0  0  0  0  0  0  0  0  0  0  0
   39.7800   22.5220   36.2950 C   0  0  0  0  0  0  0  0  0  0  0  0
   40.0100   22.7220   37.6490 C   0  0  0  0  0  0  0  0  0  0  0  0
   40.9780   22.4890   38.0700 H   0  0  0  0  0  0  0  0  0  0  0  0
   39.0560   23.2030   38.4680 N   0  0  0  0  0  0  0  0  0  0  0  0
   37.8490   23.4950   37.9490 C   0  0  0  0  0  0  0  0  0  0  0  0
   36.9480   23.8900   38.4310 H   0  0  0  0  0  0  0  0  0  0  0  0
   37.6340   23.3040   36.6610 N   0  0  0  0  0  0  0  0  0  0  0  0
   38.5380   22.8280   35.7850 C   0  0  0  0  0  0  0  0  0  0  0  0
   36.2290   27.9070   32.3640 C   0  0  0  0  0  0  0  0  0  0  0  0
   36.6660   28.0110   33.6850 C   0  0  0  0  0  0  0  0  0  0  0  0
   35.9050   28.8270   34.5360 C   0  0  0  0  0  0  0  0  0  0  0  0
   34.7850   29.4710   34.0350 N   0  0  0  0  0  0  0  0  0  0  0  0
   34.4020   29.3330   32.7310 C   0  0  0  0  0  0  0  0  0  0  0  0
   35.1260   28.5640   31.9390 N   0  0  0  0  0  0  0  0  0  0  0  0
   37.4340   27.6410   34.3310 H   0  0  0  0  0  0  0  0  0  0  0  0
   36.0010   29.0840   35.5620 H   0  0  0  0  0  0  0  0  0  0  0  0
   33.5380   29.8300   32.3460 H   0  0  0  0  0  0  0  0  0  0  0  0
  1  7  1  6  0  0  0
  1  2  1  0  0  0  0
  1  6  1  0  0  0  0
  1 41  1  0  0  0  0
  2  9  1  0  0  0  0
  2  3  1  0  0  0  0
  3 17  1  0  0  0  0
  3 10  1  1  0  0  0
  4  3  1  0  0  0  0
  4 12  1  0  0  0  0
  5 14  1  0  0  0  0
  5  4  1  0  0  0  0
  5  6  1  0  0  0  0
  6 16  1  0  0  0  0
  8  2  1  0  0  0  0
 11  4  1  0  0  0  0
 13  5  1  0  0  0  0
 15  6  1  0  0  0  0
 17 18  1  6  0  0  0
 17 21  1  0  0  0  0
 18 19  1  0  0  0  0
 19 25  1  0  0  0  0
 19 20  1  0  0  0  0
 20 21  1  0  0  0  0
 20 26  1  0  0  0  0
 21 28  1  1  0  0  0
 21 29  1  0  0  0  0
 22 18  1  0  0  0  0
 23 18  1  0  0  0  0
 24 19  1  0  0  0  0
 27 20  1  0  0  0  0
 29 40  1  0  0  0  0
 30 29  1  0  0  0  0
 30 32  2  0  0  0  0
 31 30  1  0  0  0  0
 32 33  1  0  0  0  0
 33 34  1  0  0  0  0
 34 35  1  0  0  0  0
 34 36  2  0  0  0  0
 37 38  1  0  0  0  0
 37 36  1  0  0  0  0
 39 37  2  0  0  0  0
 40 33  2  0  0  0  0
 40 39  1  0  0  0  0
 41 42  1  0  0  0  0
 42 47  1  0  0  0  0
 42 43  2  0  0  0  0
 43 48  1  0  0  0  0
 44 43  1  0  0  0  0
 45 44  2  0  0  0  0
 46 41  2  0  0  0  0
 46 45  1  0  0  0  0
 49 45  1  0  0  0  0
M  END
>  <minimizedAffinity>
-5.81519508

$$$$

 OpenBabel03272507023D

 49 53  0  0  1  0  0  0  0  0999 V2000
   39.6860   26.4490   34.9630 C   0  0  2  0  0  0  0  0  0  0  0  0
   38.9900   27.0880   33.8080 C   0  0  0  0  0  0  0  0  0  0  0  0
   39.7450   26.9340   32.5210 C   0  0  2  0  0  0  0  0  0  0  0  0
   41.1490   27.4150   32.5720 C   0  0  0  0  0  0  0  0  0  0  0  0
   41.8340   27.0990   33.8850 C   0  0  0  0  0  0  0  0  0  0  0  0
   41.0930   26.0190   34.6540 C   0  0  0  0  0  0  0  0  0  0  0  0
   39.7860   27.1120   35.8730 H   0  0  0  0  0  0  0  0  0  0  0  0
   38.7930   28.1030   34.1290 H   0  0  0  0  0  0  0  0  0  0  0  0
   38.0150   26.6360   33.5700 H   0  0  0  0  0  0  0  0  0  0  0  0
   39.7560   25.8420   32.3120 H   0  0  0  0  0  0  0  0  0  0  0  0
   41.2970   28.4630   32.2410 H   0  0  0  0  0  0  0  0  0  0  0  0
   41.7220   26.8140   31.8040 H   0  0  0  0  0  0  0  0  0  0  0  0
   41.7840   28.0210   34.5010 H   0  0  0  0  0  0  0  0  0  0  0  0
   42.8900   26.8600   33.7690 H   0  0  0  0  0  0  0  0  0  0  0  0
   41.6350   25.8700   35.6060 H   0  0  0  0  0  0  0  0  0  0  0  0
   41.1180   25.0910   34.0540 H   0  0  0  0  0  0  0  0  0  0  0  0
   38.9740   27.5640   31.5190 N   0  0  1  0  0  0  0  0  0  0  0  0
   39.6730   27.9870   30.3430 C   0  0  0  0  0  0  0  0  0  0  0  0
   38.6080   28.8620   29.6800 C   0  0  0  0  0  0  0  0  0  0  0  0
   37.3750   28.0140   29.9480 C   0  0  0  0  0  0  0  0  0  0  0  0
   37.6970   27.2770   31.2750 C   0  0  1  0  0  0  0  0  0  0  0  0
   39.9000   27.1390   29.6590 H   0  0  0  0  0  0  0  0  0  0  0  0
   40.5280   28.6320   30.5620 H   0  0  0  0  0  0  0  0  0  0  0  0
   38.8410   28.9170   28.6020 H   0  0  0  0  0  0  0  0  0  0  0  0
   38.5510   29.8310   30.1910 H   0  0  0  0  0  0  0  0  0  0  0  0
   36.4620   28.6180   30.0120 H   0  0  0  0  0  0  0  0  0  0  0  0
   37.2560   27.3450   29.1050 H   0  0  0  0  0  0  0  0  0  0  0  0
   37.1420   27.9710   32.0080 H   0  0  0  0  0  0  0  0  0  0  0  0
   36.9810   26.0860   31.2700 N   0  0  0  0  0  0  0  0  0  0  0  0
   35.6190   25.9500   31.3670 C   0  0  0  0  0  0  0  0  0  0  0  0
   34.8410   26.7220   31.4700 H   0  0  0  0  0  0  0  0  0  0  0  0
   35.1890   24.7080   31.3310 N   0  0  0  0  0  0  0  0  0  0  0  0
   36.2760   23.9270   31.2030 C   0  0  0  0  0  0  0  0  0  0  0  0
   36.4960   22.5600   31.1130 C   0  0  0  0  0  0  0  0  0  0  0  0
   35.6560   21.8780   31.1390 H   0  0  0  0  0  0  0  0  0  0  0  0
   37.7330   22.0450   30.9910 N   0  0  0  0  0  0  0  0  0  0  0  0
   38.7810   22.8900   30.9580 C   0  0  0  0  0  0  0  0  0  0  0  0
   39.8530   22.6850   30.8660 H   0  0  0  0  0  0  0  0  0  0  0  0
   38.5680   24.1900   31.0440 N   0  0  0  0  0  0  0  0  0  0  0  0
   37.3630   24.7730   31.1660 C   0  0  0  0  0  0  0  0  0  0  0  0
   38.9500   25.2640   35.4570 C   0  0  0  0  0  0  0  0  0  0  0  0
   39.0630   24.1330   34.6450 C   0  0  0  0  0  0  0  0  0  0  0  0
   38.3920   22.9800   35.0800 C   0  0  0  0  0  0  0  0  0  0  0  0
   37.6690   23.0190   36.2610 N   0  0  0  0  0  0  0  0  0  0  0  0
   37.5930   24.1550   37.0160 C   0  0  0  0  0  0  0  0  0  0  0  0
   38.2270   25.2350   36.5980 N   0  0  0  0  0  0  0  0  0  0  0  0
   39.5070   23.8210   33.7240 H   0  0  0  0  0  0  0  0  0  0  0  0
   38.3070   22.0020   34.6740 H   0  0  0  0  0  0  0  0  0  0  0  0
   37.0340   24.1850   37.9270 H   0  0  0  0  0  0  0  0  0  0  0  0
  1 41  1  0  0  0  0
  1  7  1  1  0  0  0
  2  8  1  0  0  0  0
  2  1  1  0  0  0  0
  3 10  1  6  0  0  0
  3  4  1  0  0  0  0
  3  2  1  0  0  0  0
  4  5  1  0  0  0  0
  5 13  1  0  0  0  0
  5  6  1  0  0  0  0
  6  1  1  0  0  0  0
  6 15  1  0  0  0  0
  9  2  1  0  0  0  0
 11  4  1  0  0  0  0
 12  4  1  0  0  0  0
 14  5  1  0  0  0  0
 16  6  1  0  0  0  0
 17 18  1  6  0  0  0
 17  3  1  0  0  0  0
 18 23  1  0  0  0  0
 19 20  1  0  0  0  0
 19 25  1  0  0  0  0
 19 18  1  0  0  0  0
 20 26  1  0  0  0  0
 20 21  1  0  0  0  0
 21 17  1  0  0  0  0
 21 28  1  1  0  0  0
 22 18  1  0  0  0  0
 24 19  1  0  0  0  0
 27 20  1  0  0  0  0
 29 21  1  0  0  0  0
 29 30  1  0  0  0  0
 30 31  1  0  0  0  0
 32 30  2  0  0  0  0
 33 32  1  0  0  0  0
 34 35  1  0  0  0  0
 34 33  2  0  0  0  0
 36 34  1  0  0  0  0
 37 36  2  0  0  0  0
 37 39  1  0  0  0  0
 38 37  1  0  0  0  0
 39 40  2  0  0  0  0
 40 33  1  0  0  0  0
 40 29  1  0  0  0  0
 41 46  1  0  0  0  0
 42 43  1  0  0  0  0
 42 41  2  0  0  0  0
 43 44  2  0  0  0  0
 44 45  1  0  0  0  0
 45 49  1  0  0  0  0
 46 45  2  0  0  0  0
 47 42  1  0  0  0  0
 48 43  1  0  0  0  0
M  END
>  <minimizedAffinity>
-5.76947165

$$$$

 OpenBabel03272507023D

 49 53  0  0  1  0  0  0  0  0999 V2000
   38.5670   26.1190   35.4460 C   0  0  2  0  0  0  0  0  0  0  0  0
   37.4460   25.8970   34.4870 C   0  0  0  0  0  0  0  0  0  0  0  0
   37.9240   25.6120   33.0940 C   0  0  2  0  0  0  0  0  0  0  0  0
   38.8450   26.6360   32.5400 C   0  0  0  0  0  0  0  0  0  0  0  0
   39.8160   27.1760   33.5680 C   0  0  0  0  0  0  0  0  0  0  0  0
   39.9070   26.2650   34.7800 C   0  0  0  0  0  0  0  0  0  0  0  0
   38.4630   27.0500   36.0790 H   0  0  0  0  0  0  0  0  0  0  0  0
   36.8040   26.7620   34.6050 H   0  0  0  0  0  0  0  0  0  0  0  0
   36.8320   25.0130   34.7160 H   0  0  0  0  0  0  0  0  0  0  0  0
   38.4710   24.6470   33.1610 H   0  0  0  0  0  0  0  0  0  0  0  0
   38.3550   27.4290   31.9390 H   0  0  0  0  0  0  0  0  0  0  0  0
   39.5010   26.1030   31.7870 H   0  0  0  0  0  0  0  0  0  0  0  0
   39.3970   28.1410   33.9260 H   0  0  0  0  0  0  0  0  0  0  0  0
   40.7980   27.3980   33.1540 H   0  0  0  0  0  0  0  0  0  0  0  0
   40.6070   26.7420   35.4920 H   0  0  0  0  0  0  0  0  0  0  0  0
   40.3110   25.2910   34.4480 H   0  0  0  0  0  0  0  0  0  0  0  0
   36.7720   25.4080   32.3020 N   0  0  1  0  0  0  0  0  0  0  0  0
   36.4410   26.4450   31.3710 C   0  0  0  0  0  0  0  0  0  0  0  0
   35.0320   26.0170   30.9600 C   0  0  0  0  0  0  0  0  0  0  0  0
   35.2370   24.5140   30.8630 C   0  0  0  0  0  0  0  0  0  0  0  0
   36.3510   24.2110   31.8990 C   0  0  1  0  0  0  0  0  0  0  0  0
   37.0890   26.4210   30.4660 H   0  0  0  0  0  0  0  0  0  0  0  0
   36.3550   27.4290   31.8400 H   0  0  0  0  0  0  0  0  0  0  0  0
   34.8190   26.4660   29.9740 H   0  0  0  0  0  0  0  0  0  0  0  0
   34.3180   26.2770   31.7510 H   0  0  0  0  0  0  0  0  0  0  0  0
   34.3140   23.9560   31.0600 H   0  0  0  0  0  0  0  0  0  0  0  0
   35.5290   24.2960   29.8430 H   0  0  0  0  0  0  0  0  0  0  0  0
   35.6920   23.8690   32.7800 H   0  0  0  0  0  0  0  0  0  0  0  0
   37.0190   23.0720   31.4660 N   0  0  0  0  0  0  0  0  0  0  0  0
   36.8160   21.7870   31.9060 C   0  0  0  0  0  0  0  0  0  0  0  0
   36.1150   21.4070   32.6650 H   0  0  0  0  0  0  0  0  0  0  0  0
   37.5770   20.8850   31.3280 N   0  0  0  0  0  0  0  0  0  0  0  0
   38.3500   21.5400   30.4450 C   0  0  0  0  0  0  0  0  0  0  0  0
   39.3400   21.1700   29.5460 C   0  0  0  0  0  0  0  0  0  0  0  0
   39.6260   20.1300   29.4590 H   0  0  0  0  0  0  0  0  0  0  0  0
   39.9650   22.0720   28.7660 N   0  0  0  0  0  0  0  0  0  0  0  0
   39.6120   23.3660   28.8700 C   0  0  0  0  0  0  0  0  0  0  0  0
   39.9880   24.2480   28.3390 H   0  0  0  0  0  0  0  0  0  0  0  0
   38.6700   23.7150   29.7270 N   0  0  0  0  0  0  0  0  0  0  0  0
   38.0050   22.8700   30.5340 C   0  0  0  0  0  0  0  0  0  0  0  0
   38.6690   25.0200   36.4310 C   0  0  0  0  0  0  0  0  0  0  0  0
   39.5250   23.9830   36.0540 C   0  0  0  0  0  0  0  0  0  0  0  0
   39.6650   22.9230   36.9630 C   0  0  0  0  0  0  0  0  0  0  0  0
   38.9640   22.9560   38.1570 N   0  0  0  0  0  0  0  0  0  0  0  0
   38.1380   23.9970   38.4740 C   0  0  0  0  0  0  0  0  0  0  0  0
   38.0140   24.9900   37.6120 N   0  0  0  0  0  0  0  0  0  0  0  0
   40.1500   23.6860   35.2390 H   0  0  0  0  0  0  0  0  0  0  0  0
   40.2350   22.0280   36.9400 H   0  0  0  0  0  0  0  0  0  0  0  0
   37.5970   24.0220   39.3960 H   0  0  0  0  0  0  0  0  0  0  0  0
  1  7  1  1  0  0  0
  1 41  1  0  0  0  0
  2  8  1  0  0  0  0
  2  9  1  0  0  0  0
  2  1  1  0  0  0  0
  3 10  1  1  0  0  0
  3  2  1  0  0  0  0
  4  3  1  0  0  0  0
  4  5  1  0  0  0  0
  5 13  1  0  0  0  0
  5  6  1  0  0  0  0
  6  1  1  0  0  0  0
  6 15  1  0  0  0  0
 11  4  1  0  0  0  0
 12  4  1  0  0  0  0
 14  5  1  0  0  0  0
 16  6  1  0  0  0  0
 17 18  1  6  0  0  0
 17  3  1  0  0  0  0
 18 23  1  0  0  0  0
 19 18  1  0  0  0  0
 19 25  1  0  0  0  0
 20 19  1  0  0  0  0
 20 26  1  0  0  0  0
 20 21  1  0  0  0  0
 21 17  1  0  0  0  0
 21 28  1  1  0  0  0
 22 18  1  0  0  0  0
 24 19  1  0  0  0  0
 27 20  1  0  0  0  0
 29 21  1  0  0  0  0
 29 30  1  0  0  0  0
 30 31  1  0  0  0  0
 32 30  2  0  0  0  0
 33 40  1  0  0  0  0
 33 32  1  0  0  0  0
 34 33  2  0  0  0  0
 35 34  1  0  0  0  0
 36 37  2  0  0  0  0
 36 34  1  0  0  0  0
 37 39  1  0  0  0  0
 38 37  1  0  0  0  0
 39 40  2  0  0  0  0
 40 29  1  0  0  0  0
 41 46  1  0  0  0  0
 42 41  2  0  0  0  0
 42 43  1  0  0  0  0
 43 44  2  0  0  0  0
 44 45  1  0  0  0  0
 45 49  1  0  0  0  0
 46 45  2  0  0  0  0
 47 42  1  0  0  0  0
 48 43  1  0  0  0  0
M  END
>  <minimizedAffinity>
-5.72083092

$$$$

 OpenBabel03272507023D

 49 53  0  0  1  0  0  0  0  0999 V2000
   36.5550   23.5270   31.0380 C   0  0  2  0  0  0  0  0  0  0  0  0
   37.6430   24.3030   31.7040 C   0  0  0  0  0  0  0  0  0  0  0  0
   37.1170   25.3750   32.6110 C   0  0  2  0  0  0  0  0  0  0  0  0
   36.1710   26.3180   31.9620 C   0  0  0  0  0  0  0  0  0  0  0  0
   35.2350   25.6380   30.9850 C   0  0  0  0  0  0  0  0  0  0  0  0
   35.1920   24.1370   31.2090 C   0  0  0  0  0  0  0  0  0  0  0  0
   36.6770   23.4170   29.9200 H   0  0  0  0  0  0  0  0  0  0  0  0
   38.2840   24.6310   30.8950 H   0  0  0  0  0  0  0  0  0  0  0  0
   38.2690   23.7010   32.3800 H   0  0  0  0  0  0  0  0  0  0  0  0
   36.5770   24.8390   33.4210 H   0  0  0  0  0  0  0  0  0  0  0  0
   36.6350   27.2400   31.5560 H   0  0  0  0  0  0  0  0  0  0  0  0
   35.4920   26.7040   32.7800 H   0  0  0  0  0  0  0  0  0  0  0  0
   35.6610   25.7970   29.9720 H   0  0  0  0  0  0  0  0  0  0  0  0
   34.2380   26.0740   30.9750 H   0  0  0  0  0  0  0  0  0  0  0  0
   34.5160   23.7140   30.4430 H   0  0  0  0  0  0  0  0  0  0  0  0
   34.7810   23.9520   32.2200 H   0  0  0  0  0  0  0  0  0  0  0  0
   38.2410   26.0140   33.1810 N   0  0  1  0  0  0  0  0  0  0  0  0
   39.0390   25.2300   34.0740 C   0  0  0  0  0  0  0  0  0  0  0  0
   39.9200   26.3170   34.6930 C   0  0  0  0  0  0  0  0  0  0  0  0
   40.2030   27.1540   33.4570 C   0  0  0  0  0  0  0  0  0  0  0  0
   38.9470   26.9610   32.5670 C   0  0  1  0  0  0  0  0  0  0  0  0
   39.6990   24.5150   33.5330 H   0  0  0  0  0  0  0  0  0  0  0  0
   38.4600   24.7840   34.8870 H   0  0  0  0  0  0  0  0  0  0  0  0
   40.8340   25.8300   35.0760 H   0  0  0  0  0  0  0  0  0  0  0  0
   39.3480   26.8790   35.4410 H   0  0  0  0  0  0  0  0  0  0  0  0
   40.3880   28.2070   33.7030 H   0  0  0  0  0  0  0  0  0  0  0  0
   41.1090   26.7680   33.0080 H   0  0  0  0  0  0  0  0  0  0  0  0
   38.3740   27.9210   32.8500 H   0  0  0  0  0  0  0  0  0  0  0  0
   39.3440   27.1370   31.2470 N   0  0  0  0  0  0  0  0  0  0  0  0
   40.3890   26.5080   30.6170 C   0  0  0  0  0  0  0  0  0  0  0  0
   41.1030   25.7670   31.0090 H   0  0  0  0  0  0  0  0  0  0  0  0
   40.5520   26.8470   29.3580 N   0  0  0  0  0  0  0  0  0  0  0  0
   39.5950   27.7480   29.0740 C   0  0  0  0  0  0  0  0  0  0  0  0
   39.2360   28.4740   27.9470 C   0  0  0  0  0  0  0  0  0  0  0  0
   39.7970   28.3550   27.0300 H   0  0  0  0  0  0  0  0  0  0  0  0
   38.2000   29.3340   27.9560 N   0  0  0  0  0  0  0  0  0  0  0  0
   37.5000   29.4860   29.0950 C   0  0  0  0  0  0  0  0  0  0  0  0
   36.6360   30.1220   29.3160 H   0  0  0  0  0  0  0  0  0  0  0  0
   37.8440   28.7930   30.1650 N   0  0  0  0  0  0  0  0  0  0  0  0
   38.8640   27.9190   30.2280 C   0  0  0  0  0  0  0  0  0  0  0  0
   36.4940   22.1350   31.5360 C   0  0  0  0  0  0  0  0  0  0  0  0
   35.3400   21.8300   32.2600 C   0  0  0  0  0  0  0  0  0  0  0  0
   35.2300   20.5170   32.7420 C   0  0  0  0  0  0  0  0  0  0  0  0
   36.2460   19.6120   32.4830 N   0  0  0  0  0  0  0  0  0  0  0  0
   37.3560   19.9660   31.7680 C   0  0  0  0  0  0  0  0  0  0  0  0
   37.4490   21.2040   31.3200 N   0  0  0  0  0  0  0  0  0  0  0  0
   34.4450   22.2930   32.6170 H   0  0  0  0  0  0  0  0  0  0  0  0
   34.4820   20.0190   33.3060 H   0  0  0  0  0  0  0  0  0  0  0  0
   38.1400   19.2670   31.5700 H   0  0  0  0  0  0  0  0  0  0  0  0
  1  7  1  6  0  0  0
  1  6  1  0  0  0  0
  1 41  1  0  0  0  0
  1  2  1  0  0  0  0
  2  9  1  0  0  0  0
  2  3  1  0  0  0  0
  3 17  1  0  0  0  0
  3 10  1  1  0  0  0
  4  3  1  0  0  0  0
  4 12  1  0  0  0  0
  5  6  1  0  0  0  0
  5  4  1  0  0  0  0
  6 16  1  0  0  0  0
  8  2  1  0  0  0  0
 11  4  1  0  0  0  0
 13  5  1  0  0  0  0
 14  5  1  0  0  0  0
 15  6  1  0  0  0  0
 17 18  1  6  0  0  0
 18 19  1  0  0  0  0
 18 23  1  0  0  0  0
 19 24  1  0  0  0  0
 19 25  1  0  0  0  0
 20 26  1  0  0  0  0
 20 19  1  0  0  0  0
 21 28  1  1  0  0  0
 21 17  1  0  0  0  0
 21 20  1  0  0  0  0
 22 18  1  0  0  0  0
 27 20  1  0  0  0  0
 29 21  1  0  0  0  0
 30 31  1  0  0  0  0
 30 29  1  0  0  0  0
 32 30  2  0  0  0  0
 33 32  1  0  0  0  0
 33 40  1  0  0  0  0
 34 36  1  0  0  0  0
 34 33  2  0  0  0  0
 35 34  1  0  0  0  0
 36 37  2  0  0  0  0
 37 38  1  0  0  0  0
 37 39  1  0  0  0  0
 39 40  2  0  0  0  0
 40 29  1  0  0  0  0
 41 42  1  0  0  0  0
 42 47  1  0  0  0  0
 42 43  2  0  0  0  0
 43 48  1  0  0  0  0
 44 43  1  0  0  0  0
 45 44  2  0  0  0  0
 46 41  2  0  0  0  0
 46 45  1  0  0  0  0
 49 45  1  0  0  0  0
M  END
>  <minimizedAffinity>
-5.59172678

$$$$

 OpenBabel03272507023D

 49 53  0  0  1  0  0  0  0  0999 V2000
   39.3410   26.3320   31.5180 C   0  0  2  0  0  0  0  0  0  0  0  0
   38.8090   24.9440   31.6460 C   0  0  0  0  0  0  0  0  0  0  0  0
   37.4840   24.8940   32.3450 C   0  0  2  0  0  0  0  0  0  0  0  0
   37.4690   25.5470   33.6780 C   0  0  0  0  0  0  0  0  0  0  0  0
   38.2920   26.8170   33.7230 C   0  0  0  0  0  0  0  0  0  0  0  0
   38.5800   27.3440   32.3280 C   0  0  0  0  0  0  0  0  0  0  0  0
   40.4150   26.4540   31.8500 H   0  0  0  0  0  0  0  0  0  0  0  0
   39.6130   24.3790   32.1020 H   0  0  0  0  0  0  0  0  0  0  0  0
   38.5910   24.4600   30.6810 H   0  0  0  0  0  0  0  0  0  0  0  0
   36.7780   25.4370   31.6810 H   0  0  0  0  0  0  0  0  0  0  0  0
   37.6620   24.8680   34.5340 H   0  0  0  0  0  0  0  0  0  0  0  0
   36.4070   25.8950   33.8530 H   0  0  0  0  0  0  0  0  0  0  0  0
   39.2720   26.5460   34.1700 H   0  0  0  0  0  0  0  0  0  0  0  0
   37.8600   27.5840   34.3630 H   0  0  0  0  0  0  0  0  0  0  0  0
   39.2060   28.2480   32.4460 H   0  0  0  0  0  0  0  0  0  0  0  0
   37.6170   27.6100   31.8560 H   0  0  0  0  0  0  0  0  0  0  0  0
   37.0930   23.5370   32.3830 N   0  0  1  0  0  0  0  0  0  0  0  0
   37.0680   22.8410   31.1320 C   0  0  0  0  0  0  0  0  0  0  0  0
   36.3250   21.5650   31.5330 C   0  0  0  0  0  0  0  0  0  0  0  0
   36.9650   21.3110   32.8880 C   0  0  0  0  0  0  0  0  0  0  0  0
   37.3320   22.7250   33.4110 C   0  0  1  0  0  0  0  0  0  0  0  0
   38.0870   22.5560   30.7870 H   0  0  0  0  0  0  0  0  0  0  0  0
   36.4590   23.3440   30.3750 H   0  0  0  0  0  0  0  0  0  0  0  0
   36.5880   20.7810   30.8020 H   0  0  0  0  0  0  0  0  0  0  0  0
   35.2530   21.7720   31.6230 H   0  0  0  0  0  0  0  0  0  0  0  0
   36.2940   20.7700   33.5680 H   0  0  0  0  0  0  0  0  0  0  0  0
   37.8280   20.6780   32.7220 H   0  0  0  0  0  0  0  0  0  0  0  0
   36.4200   22.9100   34.0910 H   0  0  0  0  0  0  0  0  0  0  0  0
   38.4160   22.5790   34.2680 N   0  0  0  0  0  0  0  0  0  0  0  0
   39.6760   22.1520   33.9290 C   0  0  0  0  0  0  0  0  0  0  0  0
   40.0730   21.8430   32.9490 H   0  0  0  0  0  0  0  0  0  0  0  0
   40.5270   22.1080   34.9290 N   0  0  0  0  0  0  0  0  0  0  0  0
   39.8590   22.5170   36.0220 C   0  0  0  0  0  0  0  0  0  0  0  0
   40.1810   22.6890   37.3610 C   0  0  0  0  0  0  0  0  0  0  0  0
   41.1830   22.4710   37.7040 H   0  0  0  0  0  0  0  0  0  0  0  0
   39.2770   23.1230   38.2590 N   0  0  0  0  0  0  0  0  0  0  0  0
   38.0290   23.3950   37.8360 C   0  0  0  0  0  0  0  0  0  0  0  0
   37.1550   23.7540   38.3920 H   0  0  0  0  0  0  0  0  0  0  0  0
   37.7260   23.2310   36.5620 N   0  0  0  0  0  0  0  0  0  0  0  0
   38.5750   22.8020   35.6110 C   0  0  0  0  0  0  0  0  0  0  0  0
   39.3420   26.7890   30.1100 C   0  0  0  0  0  0  0  0  0  0  0  0
   38.6350   27.9720   29.8860 C   0  0  0  0  0  0  0  0  0  0  0  0
   38.6190   28.4520   28.5670 C   0  0  0  0  0  0  0  0  0  0  0  0
   39.2870   27.7470   27.5800 N   0  0  0  0  0  0  0  0  0  0  0  0
   39.9640   26.5930   27.8570 C   0  0  0  0  0  0  0  0  0  0  0  0
   39.9730   26.1500   29.1000 N   0  0  0  0  0  0  0  0  0  0  0  0
   38.0400   28.6880   30.4100 H   0  0  0  0  0  0  0  0  0  0  0  0
   38.1740   29.3050   28.1190 H   0  0  0  0  0  0  0  0  0  0  0  0
   40.4780   26.0490   27.0940 H   0  0  0  0  0  0  0  0  0  0  0  0
  1  2  1  0  0  0  0
  1  7  1  1  0  0  0
  1  6  1  0  0  0  0
  2  8  1  0  0  0  0
  2  3  1  0  0  0  0
  3 10  1  6  0  0  0
  3 17  1  0  0  0  0
  3  4  1  0  0  0  0
  4  5  1  0  0  0  0
  4 12  1  0  0  0  0
  4 11  1  0  0  0  0
  5 13  1  0  0  0  0
  5 14  1  0  0  0  0
  6 15  1  0  0  0  0
  6  5  1  0  0  0  0
  9  2  1  0  0  0  0
 16  6  1  0  0  0  0
 17 18  1  6  0  0  0
 17 21  1  0  0  0  0
 18 19  1  0  0  0  0
 19 25  1  0  0  0  0
 19 20  1  0  0  0  0
 20 21  1  0  0  0  0
 20 26  1  0  0  0  0
 21 28  1  1  0  0  0
 21 29  1  0  0  0  0
 22 18  1  0  0  0  0
 23 18  1  0  0  0  0
 24 19  1  0  0  0  0
 27 20  1  0  0  0  0
 29 40  1  0  0  0  0
 30 29  1  0  0  0  0
 30 32  2  0  0  0  0
 31 30  1  0  0  0  0
 32 33  1  0  0  0  0
 33 34  1  0  0  0  0
 34 35  1  0  0  0  0
 34 36  2  0  0  0  0
 37 36  1  0  0  0  0
 37 38  1  0  0  0  0
 39 37  2  0  0  0  0
 40 33  2  0  0  0  0
 40 39  1  0  0  0  0
 41  1  1  0  0  0  0
 42 41  1  0  0  0  0
 42 47  1  0  0  0  0
 43 42  2  0  0  0  0
 44 45  2  0  0  0  0
 44 43  1  0  0  0  0
 45 46  1  0  0  0  0
 46 41  2  0  0  0  0
 48 43  1  0  0  0  0
 49 45  1  0  0  0  0
M  END
>  <minimizedAffinity>
-5.48856115

$$$$
