
 OpenBabel03272508363D

 47 51  0  0  1  0  0  0  0  0999 V2000
   40.0810   31.4870   43.1980 N   0  0  0  0  0  0  0  0  0  0  0  0
   39.6090   32.7160   42.7070 C   0  0  0  0  0  0  0  0  0  0  0  0
   38.1850   32.7660   42.2940 C   0  0  0  0  0  0  0  0  0  0  0  0
   37.7700   31.6120   41.6150 O   0  0  0  0  0  0  0  0  0  0  0  0
   38.0420   30.4990   42.3500 C   0  0  0  0  0  0  0  0  0  0  0  0
   39.4900   30.3610   42.6260 C   0  0  1  0  0  0  0  0  0  0  0  0
   39.9360   33.6490   43.1230 H   0  0  0  0  0  0  0  0  0  0  0  0
   40.2030   32.7390   41.7290 H   0  0  0  0  0  0  0  0  0  0  0  0
   37.4620   33.2910   42.8800 H   0  0  0  0  0  0  0  0  0  0  0  0
   38.1900   33.4880   41.3860 H   0  0  0  0  0  0  0  0  0  0  0  0
   37.8520   29.6750   41.6080 H   0  0  0  0  0  0  0  0  0  0  0  0
   37.3520   30.2340   43.1440 H   0  0  0  0  0  0  0  0  0  0  0  0
   39.5640   29.5360   43.3980 H   0  0  0  0  0  0  0  0  0  0  0  0
   40.2500   29.8450   41.4900 N   0  0  0  0  0  0  0  0  0  0  0  0
   41.1140   30.5420   40.7210 C   0  0  0  0  0  0  0  0  0  0  0  0
   41.3960   31.5780   40.7990 H   0  0  0  0  0  0  0  0  0  0  0  0
   41.6470   29.7620   39.7540 N   0  0  0  0  0  0  0  0  0  0  0  0
   41.1300   28.5400   39.8890 C   0  0  0  0  0  0  0  0  0  0  0  0
   41.2690   27.3330   39.2300 C   0  0  0  0  0  0  0  0  0  0  0  0
   41.9380   27.2750   38.3910 H   0  0  0  0  0  0  0  0  0  0  0  0
   40.5690   26.2360   39.6370 N   0  0  0  0  0  0  0  0  0  0  0  0
   39.7400   26.3100   40.6760 C   0  0  0  0  0  0  0  0  0  0  0  0
   39.2050   25.4070   40.9610 H   0  0  0  0  0  0  0  0  0  0  0  0
   39.5830   27.4860   41.3450 N   0  0  0  0  0  0  0  0  0  0  0  0
   40.2740   28.5910   40.9530 C   0  0  0  0  0  0  0  0  0  0  0  0
   40.5290   31.4440   44.5210 C   0  0  0  0  0  0  0  0  0  0  0  0
   41.6500   31.4740   44.4920 H   0  0  0  0  0  0  0  0  0  0  0  0
   40.3260   30.3960   44.8980 H   0  0  0  0  0  0  0  0  0  0  0  0
   39.9560   32.3750   45.4700 C   0  0  0  0  0  0  0  0  0  0  0  0
   39.5770   33.3540   45.2090 H   0  0  0  0  0  0  0  0  0  0  0  0
   40.7820   32.6240   46.2100 H   0  0  0  0  0  0  0  0  0  0  0  0
   37.7450   30.9230   47.8990 C   0  0  0  0  0  0  0  0  0  0  0  0
   36.9550   30.8740   46.7680 C   0  0  0  0  0  0  0  0  0  0  0  0
   37.7080   31.4180   45.7210 C   0  0  0  0  0  0  0  0  0  0  0  0
   38.8840   31.7630   46.2450 N   0  0  0  0  0  0  0  0  0  0  0  0
   38.9090   31.4680   47.5470 N   0  0  0  0  0  0  0  0  0  0  0  0
   35.9230   30.4740   46.7230 H   0  0  0  0  0  0  0  0  0  0  0  0
   37.2400   31.4430   44.8060 H   0  0  0  0  0  0  0  0  0  0  0  0
   37.4180   30.1570   51.5640 C   0  0  0  0  0  0  0  0  0  0  0  0
   37.9600   30.6760   50.3850 C   0  0  0  0  0  0  0  0  0  0  0  0
   37.3050   30.4500   49.1860 C   0  0  0  0  0  0  0  0  0  0  0  0
   36.1630   29.7200   49.2730 N   0  0  0  0  0  0  0  0  0  0  0  0
   35.6560   29.2280   50.4220 C   0  0  0  0  0  0  0  0  0  0  0  0
   36.2920   29.4530   51.5600 N   0  0  0  0  0  0  0  0  0  0  0  0
   37.9830   30.3710   52.4780 H   0  0  0  0  0  0  0  0  0  0  0  0
   38.8640   31.2470   50.3520 H   0  0  0  0  0  0  0  0  0  0  0  0
   34.7390   28.6560   50.4060 H   0  0  0  0  0  0  0  0  0  0  0  0
  1 26  1  0  0  0  0
  2  7  1  0  0  0  0
  2  1  1  0  0  0  0
  3  2  1  0  0  0  0
  3  9  1  0  0  0  0
  4  3  1  0  0  0  0
  4  5  1  0  0  0  0
  5  6  1  0  0  0  0
  5 12  1  0  0  0  0
  6  1  1  0  0  0  0
  6 13  1  1  0  0  0
  8  2  1  0  0  0  0
 10  3  1  0  0  0  0
 11  5  1  0  0  0  0
 14  6  1  0  0  0  0
 15 16  1  0  0  0  0
 15 14  1  0  0  0  0
 17 18  1  0  0  0  0
 17 15  2  0  0  0  0
 18 25  1  0  0  0  0
 19 21  1  0  0  0  0
 19 18  2  0  0  0  0
 20 19  1  0  0  0  0
 21 22  2  0  0  0  0
 22 23  1  0  0  0  0
 22 24  1  0  0  0  0
 25 24  2  0  0  0  0
 25 14  1  0  0  0  0
 26 28  1  0  0  0  0
 26 29  1  0  0  0  0
 27 26  1  0  0  0  0
 29 31  1  0  0  0  0
 29 35  1  0  0  0  0
 30 29  1  0  0  0  0
 32 41  1  0  0  0  0
 33 32  1  0  0  0  0
 34 35  1  0  0  0  0
 34 33  2  0  0  0  0
 35 36  1  0  0  0  0
 36 32  2  0  0  0  0
 37 33  1  0  0  0  0
 38 34  1  0  0  0  0
 39 45  1  0  0  0  0
 40 39  2  0  0  0  0
 41 42  2  0  0  0  0
 41 40  1  0  0  0  0
 42 43  1  0  0  0  0
 43 44  2  0  0  0  0
 44 39  1  0  0  0  0
 46 40  1  0  0  0  0
 47 43  1  0  0  0  0
M  END
>  <minimizedAffinity>
-5.85995197

>  <minimizedRMSD>
1.10154164

$$$$
