
     RDKit          3D

 35 38  0  0  0  0  0  0  0  0999 V2000
   38.4593   30.4477   47.3136 F   0  0  0  0  0  0  0  0  0  0  0  0
   38.7574   31.6774   47.7909 C   0  0  0  0  0  0  0  0  0  0  0  0
   38.2342   32.0824   48.9990 C   0  0  0  0  0  0  0  0  0  0  0  0
   38.5727   33.3338   49.4254 C   0  0  0  0  0  0  0  0  0  0  0  0
   39.3967   34.1765   48.7043 C   0  0  0  0  0  0  0  0  0  0  0  0
   39.9092   33.7417   47.4904 C   0  0  0  0  0  0  0  0  0  0  0  0
   39.5814   32.4688   47.0289 C   0  0  0  0  0  0  0  0  0  0  0  0
   36.9277   29.5980   51.5326 C   0  0  0  0  0  0  0  0  0  0  0  0
   37.7698   30.4842   50.8560 C   0  0  0  0  0  0  0  0  0  0  0  0
   37.3705   31.1541   49.7188 C   0  0  0  0  0  0  0  0  0  0  0  0
   36.0942   30.9047   49.2814 N   0  0  0  0  0  0  0  0  0  0  0  0
   35.2861   30.0488   49.9379 C   0  0  0  0  0  0  0  0  0  0  0  0
   35.6894   29.4117   51.0337 N   0  0  0  0  0  0  0  0  0  0  0  0
   39.1884   32.1633   44.6830 C   0  0  0  0  0  0  0  0  0  0  0  0
   38.0788   32.7163   44.9905 O   0  0  0  0  0  0  0  0  0  0  0  0
   40.0922   31.9936   45.7857 N   0  0  0  0  0  0  0  0  0  0  0  0
   38.1762   33.6777   50.3704 H   0  0  0  0  0  0  0  0  0  0  0  0
   39.6591   35.1677   49.0517 H   0  0  0  0  0  0  0  0  0  0  0  0
   40.5556   34.3501   46.8828 H   0  0  0  0  0  0  0  0  0  0  0  0
   37.2773   29.0877   52.4264 H   0  0  0  0  0  0  0  0  0  0  0  0
   38.7694   30.6451   51.2446 H   0  0  0  0  0  0  0  0  0  0  0  0
   34.3073   29.9468   49.4831 H   0  0  0  0  0  0  0  0  0  0  0  0
   41.0126   31.5484   45.5689 H   0  0  0  0  0  0  0  0  0  0  0  0
   39.5266   33.4064   42.1027 H   0  0  0  0  0  0  0  0  0  0  0  0
   39.7005   32.3793   42.1670 N   0  0  0  0  0  0  0  0  0  0  0  0
   39.5651   31.7179   43.3368 C   0  0  0  0  0  0  0  0  0  0  0  0
   39.8547   30.4087   43.1092 N   0  0  0  0  0  0  0  0  0  0  0  0
   40.1697   30.2150   41.8345 C   0  0  0  0  0  0  0  0  0  0  0  0
   40.5424   29.1883   40.9914 C   0  0  0  0  0  0  0  0  0  0  0  0
   40.6217   28.2018   41.4535 H   0  0  0  0  0  0  0  0  0  0  0  0
   40.8001   29.3700   39.6641 N   0  0  0  0  0  0  0  0  0  0  0  0
   40.6872   30.6223   39.1339 C   0  0  0  0  0  0  0  0  0  0  0  0
   40.9081   30.6803   38.0778 H   0  0  0  0  0  0  0  0  0  0  0  0
   40.3252   31.6562   39.9218 N   0  0  0  0  0  0  0  0  0  0  0  0
   40.0691   31.4707   41.2444 C   0  0  0  0  0  0  0  0  0  0  0  0
  1  2  1  0
  2  3  2  0
  3  4  1  0
  3 10  1  0
  5  4  2  0
  6  5  1  0
  7  6  2  0
  7  2  1  0
  9  8  2  0
 10  9  1  0
 11 10  2  0
 11 12  1  0
 12 13  2  0
 13  8  1  0
 14 15  2  0
 14 16  1  0
 16  7  1  0
  4 17  1  0
  5 18  1  0
  6 19  1  0
  8 20  1  0
  9 21  1  0
 12 22  1  0
 16 23  1  0
 24 25  1  0
 25 26  1  0
 26 27  2  0
 27 28  1  0
 28 29  2  0
 29 30  1  0
 29 31  1  0
 31 32  2  0
 32 33  1  0
 32 34  1  0
 34 35  2  0
 35 25  1  0
 35 28  1  0
 14 26  1  0
M  ISO  8  17  14  18  14  19  14  20  14  21  14  22  14  24   9  30  16
M  ISO  1  33  16
M  END
>  <DihAtoms>  (1) 
14,13,25,24

>  <DihDeg>  (1) 
-179.99995605419252

$$$$
