REMARK  Name = 
REMARK  5 active torsions:
REMARK  status: ('A' for Active; 'I' for Inactive)
REMARK    1  A    between atoms: C_1  and  C_8
REMARK    2  A    between atoms: C_6  and  S_17
REMARK    3  A    between atoms: C_9  and  C_13
REMARK    4  A    between atoms: S_17  and  C_20
REMARK    5  A    between atoms: C_24  and  N_34
REMARK                            x       y       z     vdW  Elec       q    Type
REMARK                         _______ _______ _______ _____ _____    ______ ____
ROOT
ATOM      1  S   UNL     1      34.696  30.333  47.955  0.00  0.00    +0.000 S 
ENDROOT
BRANCH   1   7
ATOM      2  C   UNL     1      34.111  28.742  45.880  0.00  0.00    +0.000 A 
ATOM      3  C   UNL     1      34.329  28.282  44.595  0.00  0.00    +0.000 A 
ATOM      4  C   UNL     1      35.322  28.781  43.744  0.00  0.00    +0.000 A 
ATOM      5  C   UNL     1      36.151  29.819  44.226  0.00  0.00    +0.000 A 
ATOM      6  C   UNL     1      35.918  30.258  45.498  0.00  0.00    +0.000 A 
ATOM      7  C   UNL     1      34.952  29.768  46.325  0.00  0.00    +0.000 A 
ATOM      8  H   UNL     1      33.703  27.482  44.197  0.00  0.00    +0.000 HD
ATOM      9  H   UNL     1      35.395  28.331  42.744  0.00  0.00    +0.000 HD
ATOM     10  H   UNL     1      36.859  30.102  43.476  0.00  0.00    +0.000 HD
ATOM     11  H   UNL     1      36.632  31.035  45.648  0.00  0.00    +0.000 HD
BRANCH   2  13
ATOM     12  C   UNL     1      33.335  26.983  47.335  0.00  0.00    +0.000 A 
ATOM     13  C   UNL     1      33.033  28.140  46.606  0.00  0.00    +0.000 A 
ATOM     14  C   UNL     1      31.716  28.614  46.642  0.00  0.00    +0.000 A 
ATOM     15  N   UNL     1      30.792  27.939  47.375  0.00  0.00    +0.000 NA
ATOM     16  C   UNL     1      31.117  26.813  48.076  0.00  0.00    +0.000 A 
ATOM     17  N   UNL     1      32.390  26.340  48.052  0.00  0.00    +0.000 NA
ATOM     18  H   UNL     1      34.332  26.588  47.333  0.00  0.00    +0.000 HD
ATOM     19  H   UNL     1      30.334  26.326  48.637  0.00  0.00    +0.000 HD
BRANCH  14  20
ATOM     20  C   UNL     1      31.245  29.833  45.912  0.00  0.00    +0.000 C 
ATOM     21  F   UNL     1      29.881  30.038  46.187  0.00  0.00    +0.000 F 
ATOM     22  F   UNL     1      31.915  30.969  46.174  0.00  0.00    +0.000 F 
ATOM     23  F   UNL     1      31.268  29.588  44.538  0.00  0.00    +0.000 F 
ENDBRANCH  14  20
ENDBRANCH   2  13
ENDBRANCH   1   7
BRANCH   1  26
ATOM     24 CL   UNL     1      34.991  29.171  50.827  0.00  0.00    +0.000 Cl
ATOM     25  C   UNL     1      36.255  30.133  50.113  0.00  0.00    +0.000 A 
ATOM     26  C   UNL     1      36.179  30.687  48.849  0.00  0.00    +0.000 A 
ATOM     27  C   UNL     1      37.196  31.448  48.341  0.00  0.00    +0.000 A 
ATOM     28  C   UNL     1      38.325  31.649  49.143  0.00  0.00    +0.000 A 
ATOM     29  C   UNL     1      38.411  31.093  50.420  0.00  0.00    +0.000 A 
ATOM     30  C   UNL     1      37.376  30.328  50.922  0.00  0.00    +0.000 A 
ATOM     31  H   UNL     1      37.224  31.941  47.407  0.00  0.00    +0.000 HD
ATOM     32  H   UNL     1      39.175  32.230  48.834  0.00  0.00    +0.000 HD
ATOM     33  H   UNL     1      39.290  31.252  51.042  0.00  0.00    +0.000 HD
BRANCH  30  34
ATOM     34  N   UNL     1      37.492  29.774  52.230  0.00  0.00    +0.000 N 
ATOM     35  C   UNL     1      37.685  28.510  52.694  0.00  0.00    +0.000 A 
ATOM     36  H   UNL     1      37.782  27.689  52.020  0.00  0.00    +0.000 HD
ATOM     37  N   UNL     1      37.715  28.571  54.038  0.00  0.00    +0.000 NA
ATOM     38  C   UNL     1      37.545  29.843  54.422  0.00  0.00    +0.000 A 
ATOM     39  C   UNL     1      37.508  30.367  55.700  0.00  0.00    +0.000 A 
ATOM     40  H   UNL     1      37.619  29.759  56.589  0.00  0.00    +0.000 HD
ATOM     41  N   UNL     1      37.322  31.695  55.815  0.00  0.00    +0.000 NA
ATOM     42  C   UNL     1      37.181  32.473  54.711  0.00  0.00    +0.000 A 
ATOM     43  H   UNL     1      37.028  33.545  54.687  0.00  0.00    +0.000 HD
ATOM     44  N   UNL     1      37.219  31.952  53.471  0.00  0.00    +0.000 NA
ATOM     45  C   UNL     1      37.401  30.632  53.285  0.00  0.00    +0.000 A 
ENDBRANCH  30  34
ENDBRANCH   1  26
TORSDOF 5
