
     RDKit          3D

 27 29  0  0  0  0  0  0  0  0999 V2000
   35.6461   30.4707   49.7464 C   0  0  0  0  0  0  0  0  0  0  0  0
   35.9744   29.4709   50.6773 C   0  0  0  0  0  0  0  0  0  0  0  0
   37.2299   29.5060   51.2588 C   0  0  0  0  0  0  0  0  0  0  0  0
   38.0966   30.5029   50.9095 N   0  0  0  0  0  0  0  0  0  0  0  0
   37.7471   31.4650   49.9975 C   0  0  0  0  0  0  0  0  0  0  0  0
   36.5203   31.4311   49.4288 N   0  0  0  0  0  0  0  0  0  0  0  0
   34.4437   30.5930   49.0690 O   0  0  0  0  0  0  0  0  0  0  0  0
   35.4996   30.1503   46.6364 O   0  0  0  0  0  0  0  0  0  0  0  0
   34.2234   30.0154   47.4612 P   0  0  1  0  0  0  0  0  0  0  0  0
   33.7618   28.3957   47.5889 O   0  0  0  0  0  0  0  0  0  0  0  0
   33.0593   30.9490   46.6832 O   0  0  0  0  0  0  0  0  0  0  0  0
   35.1890   28.7483   50.8543 H   0  0  0  0  0  0  0  0  0  0  0  0
   37.4542   28.7397   51.9591 H   0  0  0  0  0  0  0  0  0  0  0  0
   38.4974   32.2199   49.7784 H   0  0  0  0  0  0  0  0  0  0  0  0
   33.4384   28.1754   48.4929 H   0  0  0  0  0  0  0  0  0  0  0  0
   33.5625   29.3323   44.3969 H   0  0  0  0  0  0  0  0  0  0  0  0
   32.6100   29.6536   44.6117 N   0  0  0  0  0  0  0  0  0  0  0  0
   32.2672   30.4251   45.6739 C   0  0  0  0  0  0  0  0  0  0  0  0
   30.9399   30.6356   45.6171 N   0  0  0  0  0  0  0  0  0  0  0  0
   30.4314   30.0196   44.5492 C   0  0  0  0  0  0  0  0  0  0  0  0
   29.2061   29.8414   43.9374 C   0  0  0  0  0  0  0  0  0  0  0  0
   28.3519   30.3175   44.4122 H   0  0  0  0  0  0  0  0  0  0  0  0
   29.0868   29.1075   42.8017 N   0  0  0  0  0  0  0  0  0  0  0  0
   30.1464   28.5299   42.2321 C   0  0  0  0  0  0  0  0  0  0  0  0
   30.1083   27.9323   41.3242 H   0  0  0  0  0  0  0  0  0  0  0  0
   31.4031   28.6390   42.7492 N   0  0  0  0  0  0  0  0  0  0  0  0
   31.4838   29.3828   43.8888 C   0  0  0  0  0  0  0  0  0  0  0  0
  1  2  2  0
  2  3  1  0
  4  3  2  0
  5  4  1  0
  6  1  1  0
  6  5  2  0
  7  1  1  0
  8  9  2  0
  9 10  1  1
  9  7  1  0
 11  9  1  0
  2 12  1  0
  3 13  1  0
  5 14  1  0
 10 15  1  0
 16 17  1  0
 17 18  1  0
 18 19  2  0
 19 20  1  0
 20 21  2  0
 21 22  1  0
 21 23  1  0
 23 24  2  0
 24 25  1  0
 24 26  1  0
 26 27  2  0
 27 17  1  0
 27 20  1  0
 11 18  1  0
M  ISO  7  12  14  13  14  14  14  15   3  16   9  22  16  25  16
M  END
>  <DihAtoms>  (1) 
8,10,17,16

>  <DihDeg>  (1) 
0.0007136886495296494

$$$$
