
 OpenBabel03272505113D

 42 46  0  0  0  0  0  0  0  0999 V2000
   33.6580   29.1980   44.4710 Cl  0  0  0  0  0  0  0  0  0  0  0  0
   33.7230   27.9510   45.7090 C   0  0  0  0  0  0  0  0  0  0  0  0
   33.8850   28.1910   47.0780 C   0  0  0  0  0  0  0  0  0  0  0  0
   33.9210   27.1400   47.9500 C   0  0  0  0  0  0  0  0  0  0  0  0
   33.8000   25.8540   47.5060 C   0  0  0  0  0  0  0  0  0  0  0  0
   33.6360   25.5570   46.1530 C   0  0  0  0  0  0  0  0  0  0  0  0
   33.6040   26.6300   45.3040 C   0  0  0  0  0  0  0  0  0  0  0  0
   34.0500   27.4280   48.9910 H   0  0  0  0  0  0  0  0  0  0  0  0
   33.8360   25.0680   48.2490 H   0  0  0  0  0  0  0  0  0  0  0  0
   33.5420   24.5340   45.8280 H   0  0  0  0  0  0  0  0  0  0  0  0
   33.4350   26.3450   43.8970 N   0  0  0  0  0  0  0  0  0  0  0  0
   32.3570   26.2410   43.1010 C   0  0  0  0  0  0  0  0  0  0  0  0
   31.3670   26.3890   43.5350 H   0  0  0  0  0  0  0  0  0  0  0  0
   32.7970   25.9530   41.8540 N   0  0  0  0  0  0  0  0  0  0  0  0
   34.1470   25.8830   41.8980 C   0  0  0  0  0  0  0  0  0  0  0  0
   34.9900   25.6130   40.8460 C   0  0  0  0  0  0  0  0  0  0  0  0
   34.6200   25.4250   39.8430 H   0  0  0  0  0  0  0  0  0  0  0  0
   36.3100   25.5980   41.1390 N   0  0  0  0  0  0  0  0  0  0  0  0
   36.7510   25.8370   42.3980 C   0  0  0  0  0  0  0  0  0  0  0  0
   37.8280   25.8140   42.5930 H   0  0  0  0  0  0  0  0  0  0  0  0
   35.9050   26.0950   43.3970 N   0  0  0  0  0  0  0  0  0  0  0  0
   34.5710   26.1270   43.1780 C   0  0  0  0  0  0  0  0  0  0  0  0
   34.0310   29.9370   47.5070 S   0  0  0  0  0  0  0  0  0  0  0  0
   36.3760   30.9080   45.6920 Cl  0  0  0  0  0  0  0  0  0  0  0  0
   36.6690   30.7420   47.4020 C   0  0  0  0  0  0  0  0  0  0  0  0
   37.9370   31.0530   47.8690 C   0  0  0  0  0  0  0  0  0  0  0  0
   38.1780   30.9250   49.2210 C   0  0  0  0  0  0  0  0  0  0  0  0
   37.1820   30.5030   50.0610 C   0  0  0  0  0  0  0  0  0  0  0  0
   35.9260   30.2060   49.5230 C   0  0  0  0  0  0  0  0  0  0  0  0
   35.6170   30.3100   48.1940 C   0  0  0  0  0  0  0  0  0  0  0  0
   39.1760   31.1750   49.5540 H   0  0  0  0  0  0  0  0  0  0  0  0
   37.3850   30.4070   51.1180 H   0  0  0  0  0  0  0  0  0  0  0  0
   35.1580   29.8730   50.2160 H   0  0  0  0  0  0  0  0  0  0  0  0
   40.1890   33.3090   46.0850 C   0  0  0  0  0  0  0  0  0  0  0  0
   40.8970   32.4540   45.1970 C   0  0  0  0  0  0  0  0  0  0  0  0
   40.5800   31.0950   45.2310 C   0  0  0  0  0  0  0  0  0  0  0  0
   39.6210   30.6560   46.0990 N   0  0  0  0  0  0  0  0  0  0  0  0
   38.9810   31.5070   46.9180 C   0  0  0  0  0  0  0  0  0  0  0  0
   39.2670   32.8100   46.9040 N   0  0  0  0  0  0  0  0  0  0  0  0
   40.4120   34.3590   46.0800 H   0  0  0  0  0  0  0  0  0  0  0  0
   41.6450   32.8340   44.5270 H   0  0  0  0  0  0  0  0  0  0  0  0
   41.0920   30.4180   44.5770 H   0  0  0  0  0  0  0  0  0  0  0  0
  1  2  1  0  0  0  0
  2  3  1  0  0  0  0
  3 23  1  0  0  0  0
  3  4  2  0  0  0  0
  4  8  1  0  0  0  0
  5  4  1  0  0  0  0
  5  9  1  0  0  0  0
  6  5  2  0  0  0  0
  7  2  2  0  0  0  0
  7  6  1  0  0  0  0
 10  6  1  0  0  0  0
 11  7  1  0  0  0  0
 12 13  1  0  0  0  0
 12 11  1  0  0  0  0
 14 15  1  0  0  0  0
 14 12  2  0  0  0  0
 15 22  1  0  0  0  0
 16 18  1  0  0  0  0
 16 15  2  0  0  0  0
 17 16  1  0  0  0  0
 18 19  2  0  0  0  0
 19 20  1  0  0  0  0
 19 21  1  0  0  0  0
 22 21  2  0  0  0  0
 22 11  1  0  0  0  0
 23 30  1  0  0  0  0
 24 25  1  0  0  0  0
 25 26  2  0  0  0  0
 25 30  1  0  0  0  0
 26 27  1  0  0  0  0
 27 31  1  0  0  0  0
 27 28  2  0  0  0  0
 28 32  1  0  0  0  0
 29 28  1  0  0  0  0
 29 33  1  0  0  0  0
 30 29  2  0  0  0  0
 34 39  1  0  0  0  0
 35 36  1  0  0  0  0
 35 34  2  0  0  0  0
 36 37  2  0  0  0  0
 37 38  1  0  0  0  0
 38 26  1  0  0  0  0
 39 38  2  0  0  0  0
 40 34  1  0  0  0  0
 41 35  1  0  0  0  0
 42 36  1  0  0  0  0
M  END
>  <minimizedAffinity>
-5.71778488

>  <minimizedRMSD>
0.489394039

$$$$
