
 OpenBabel03272509313D

 41 44  0  0  1  0  0  0  0  0999 V2000
   36.3620   30.6970   49.0430 C   0  0  2  0  0  0  0  0  0  0  0  0
   37.3510   31.4990   49.8350 C   0  0  0  0  0  0  0  0  0  0  0  0
   38.1630   30.6510   50.7900 C   0  0  0  0  0  0  0  0  0  0  0  0
   37.2470   29.8750   51.7350 C   0  0  0  0  0  0  0  0  0  0  0  0
   35.9710   29.3940   51.0880 C   0  0  0  0  0  0  0  0  0  0  0  0
   36.2130   29.3090   49.5690 C   0  0  1  0  0  0  0  0  0  0  0  0
   35.3110   31.1250   49.0710 H   0  0  0  0  0  0  0  0  0  0  0  0
   37.9640   32.2000   49.3040 H   0  0  0  0  0  0  0  0  0  0  0  0
   36.7070   32.1380   50.5280 H   0  0  0  0  0  0  0  0  0  0  0  0
   38.7830   31.3520   51.3680 H   0  0  0  0  0  0  0  0  0  0  0  0
   38.7950   29.9060   50.2870 H   0  0  0  0  0  0  0  0  0  0  0  0
   37.0760   30.5360   52.6000 H   0  0  0  0  0  0  0  0  0  0  0  0
   37.7910   28.9800   52.1010 H   0  0  0  0  0  0  0  0  0  0  0  0
   35.6440   28.4300   51.4870 H   0  0  0  0  0  0  0  0  0  0  0  0
   35.2160   30.1960   51.2170 H   0  0  0  0  0  0  0  0  0  0  0  0
   37.1400   28.7870   49.5640 H   0  0  0  0  0  0  0  0  0  0  0  0
   36.7520   30.6320   47.6120 C   0  0  0  0  0  0  0  0  0  0  0  0
   38.1150   30.8280   47.3430 C   0  0  0  0  0  0  0  0  0  0  0  0
   38.5110   30.7690   46.0020 C   0  0  0  0  0  0  0  0  0  0  0  0
   37.5520   30.5230   45.0420 N   0  0  0  0  0  0  0  0  0  0  0  0
   36.2340   30.3360   45.3580 C   0  0  0  0  0  0  0  0  0  0  0  0
   35.8560   30.3950   46.6460 N   0  0  0  0  0  0  0  0  0  0  0  0
   38.9560   31.0160   47.9800 H   0  0  0  0  0  0  0  0  0  0  0  0
   39.5160   30.9000   45.6460 H   0  0  0  0  0  0  0  0  0  0  0  0
   35.5720   30.1510   44.5300 H   0  0  0  0  0  0  0  0  0  0  0  0
   33.9010   28.3800   49.0840 C   0  0  0  0  0  0  0  0  0  0  0  0
   33.1190   28.9990   49.8900 O   0  0  0  0  0  0  0  0  0  0  0  0
   35.2970   28.4930   48.8590 N   0  0  0  0  0  0  0  0  0  0  0  0
   35.6500   27.8790   48.0550 H   0  0  0  0  0  0  0  0  0  0  0  0
   34.6020   25.9540   47.6620 H   0  0  0  0  0  0  0  0  0  0  0  0
   33.5940   26.2940   47.6830 N   0  0  0  0  0  0  0  0  0  0  0  0
   33.1090   27.4010   48.3000 C   0  0  0  0  0  0  0  0  0  0  0  0
   31.8230   27.3260   48.0000 N   0  0  0  0  0  0  0  0  0  0  0  0
   31.4880   26.2810   47.2650 C   0  0  0  0  0  0  0  0  0  0  0  0
   30.2980   25.8300   46.7420 C   0  0  0  0  0  0  0  0  0  0  0  0
   29.3830   26.4030   46.9310 H   0  0  0  0  0  0  0  0  0  0  0  0
   30.3380   24.6800   46.0110 N   0  0  0  0  0  0  0  0  0  0  0  0
   31.4800   24.0150   45.8060 C   0  0  0  0  0  0  0  0  0  0  0  0
   31.4980   23.1010   45.2220 H   0  0  0  0  0  0  0  0  0  0  0  0
   32.6450   24.4640   46.3210 N   0  0  0  0  0  0  0  0  0  0  0  0
   32.6490   25.5930   47.0490 C   0  0  0  0  0  0  0  0  0  0  0  0
  1  7  1  1  0  0  0
  1  6  1  0  0  0  0
  1  2  1  0  0  0  0
  2  9  1  0  0  0  0
  2  3  1  0  0  0  0
  3 10  1  0  0  0  0
  3  4  1  0  0  0  0
  4 13  1  0  0  0  0
  4 12  1  0  0  0  0
  5 15  1  0  0  0  0
  5 14  1  0  0  0  0
  5  4  1  0  0  0  0
  6 16  1  6  0  0  0
  6  5  1  0  0  0  0
  8  2  1  0  0  0  0
 11  3  1  0  0  0  0
 17  1  1  0  0  0  0
 18 17  1  0  0  0  0
 18 23  1  0  0  0  0
 19 18  2  0  0  0  0
 20 21  2  0  0  0  0
 20 19  1  0  0  0  0
 21 22  1  0  0  0  0
 22 17  2  0  0  0  0
 24 19  1  0  0  0  0
 25 21  1  0  0  0  0
 26 27  2  0  0  0  0
 28 26  1  0  0  0  0
 28  6  1  0  0  0  0
 29 28  1  0  0  0  0
 30 31  1  0  0  0  0
 31 32  1  0  0  0  0
 32 26  1  0  0  0  0
 33 32  2  0  0  0  0
 34 33  1  0  0  0  0
 35 36  1  0  0  0  0
 35 34  2  0  0  0  0
 37 35  1  0  0  0  0
 38 37  2  0  0  0  0
 38 40  1  0  0  0  0
 39 38  1  0  0  0  0
 40 41  2  0  0  0  0
 41 34  1  0  0  0  0
 41 31  1  0  0  0  0
M  END
>  <minimizedAffinity>
-6.0744648

>  <minimizedRMSD>
0.617626011

$$$$
