REMARK  Name = 
REMARK  4 active torsions:
REMARK  status: ('A' for Active; 'I' for Inactive)
REMARK    1  A    between atoms: C_3  and  C_12
REMARK    2  A    between atoms: C_7  and  S_14
REMARK    3  A    between atoms: S_14  and  C_17
REMARK    4  A    between atoms: C_21  and  N_31
REMARK                            x       y       z     vdW  Elec       q    Type
REMARK                         _______ _______ _______ _____ _____    ______ ____
ROOT
ATOM      1 CL   UNL     1      33.750  29.187  44.470  0.00  0.00    +0.000 Cl
ATOM      2  C   UNL     1      33.781  27.948  45.718  0.00  0.00    +0.000 A 
ATOM      3  C   UNL     1      33.906  28.198  47.089  0.00  0.00    +0.000 A 
ATOM      4  C   UNL     1      33.918  27.152  47.969  0.00  0.00    +0.000 A 
ATOM      5  C   UNL     1      33.809  25.863  47.530  0.00  0.00    +0.000 A 
ATOM      6  C   UNL     1      33.682  25.557  46.175  0.00  0.00    +0.000 A 
ATOM      7  C   UNL     1      33.673  26.625  45.318  0.00  0.00    +0.000 A 
ATOM      8  H   UNL     1      34.019  27.447  49.011  0.00  0.00    +0.000 HD
ATOM      9  H   UNL     1      33.825  25.082  48.279  0.00  0.00    +0.000 HD
ATOM     10  H   UNL     1      33.597  24.532  45.855  0.00  0.00    +0.000 HD
ENDROOT
BRANCH   7  11
ATOM     11  N   UNL     1      33.542  26.330  43.909  0.00  0.00    +0.000 N 
ATOM     12  C   UNL     1      34.134  26.819  42.806  0.00  0.00    +0.000 A 
ATOM     13  H   UNL     1      34.882  27.606  42.917  0.00  0.00    +0.000 HD
ATOM     14  N   UNL     1      33.617  26.163  41.742  0.00  0.00    +0.000 NA
ATOM     15  C   UNL     1      32.709  25.275  42.204  0.00  0.00    +0.000 A 
ATOM     16  C   UNL     1      31.953  24.407  41.452  0.00  0.00    +0.000 A 
ATOM     17  H   UNL     1      32.028  24.363  40.370  0.00  0.00    +0.000 HD
ATOM     18  N   UNL     1      31.108  23.610  42.145  0.00  0.00    +0.000 NA
ATOM     19  C   UNL     1      31.029  23.681  43.496  0.00  0.00    +0.000 A 
ATOM     20  H   UNL     1      30.332  23.018  44.019  0.00  0.00    +0.000 HD
ATOM     21  N   UNL     1      31.778  24.536  44.196  0.00  0.00    +0.000 NA
ATOM     22  C   UNL     1      32.645  25.363  43.569  0.00  0.00    +0.000 A 
ENDBRANCH   7  11
BRANCH   3  23
ATOM     23  S   UNL     1      34.040  29.946  47.510  0.00  0.00    +0.000 S 
BRANCH  23  30
ATOM     24 CL   UNL     1      36.392  30.903  45.696  0.00  0.00    +0.000 Cl
ATOM     25  C   UNL     1      36.677  30.758  47.409  0.00  0.00    +0.000 A 
ATOM     26  C   UNL     1      37.941  31.078  47.879  0.00  0.00    +0.000 A 
ATOM     27  C   UNL     1      38.176  30.966  49.233  0.00  0.00    +0.000 A 
ATOM     28  C   UNL     1      37.177  30.551  50.073  0.00  0.00    +0.000 A 
ATOM     29  C   UNL     1      35.924  30.244  49.532  0.00  0.00    +0.000 A 
ATOM     30  C   UNL     1      35.622  30.332  48.200  0.00  0.00    +0.000 A 
ATOM     31  H   UNL     1      39.172  31.223  49.568  0.00  0.00    +0.000 HD
ATOM     32  H   UNL     1      37.375  30.468  51.132  0.00  0.00    +0.000 HD
ATOM     33  H   UNL     1      35.154  29.917  50.225  0.00  0.00    +0.000 HD
BRANCH  26  38
ATOM     34  C   UNL     1      40.200  33.319  46.084  0.00  0.00    +0.000 A 
ATOM     35  C   UNL     1      40.911  32.456  45.206  0.00  0.00    +0.000 A 
ATOM     36  C   UNL     1      40.594  31.098  45.250  0.00  0.00    +0.000 A 
ATOM     37  N   UNL     1      39.632  30.666  46.118  0.00  0.00    +0.000 NA
ATOM     38  C   UNL     1      38.989  31.524  46.928  0.00  0.00    +0.000 A 
ATOM     39  N   UNL     1      39.275  32.826  46.904  0.00  0.00    +0.000 NA
ATOM     40  H   UNL     1      40.424  34.368  46.071  0.00  0.00    +0.000 HD
ATOM     41  H   UNL     1      41.662  32.830  44.535  0.00  0.00    +0.000 HD
ATOM     42  H   UNL     1      41.108  30.415  44.603  0.00  0.00    +0.000 HD
ENDBRANCH  26  38
ENDBRANCH  23  30
ENDBRANCH   3  23
TORSDOF 4
