
 OpenBabel03272507473D

 49 54  0  0  0  0  0  0  0  0999 V2000
   33.1350   28.5340   46.8990 N   0  0  0  0  0  0  0  0  0  0  0  0
   33.7690   27.9360   48.0220 C   0  0  0  0  0  0  0  0  0  0  0  0
   34.9160   28.6670   48.6100 C   0  0  0  0  0  0  0  0  0  0  0  0
   35.8190   29.3350   47.6730 C   0  0  0  0  0  0  0  0  0  0  0  0
   35.0780   29.8920   46.4440 C   0  0  0  0  0  0  0  0  0  0  0  0
   34.1600   28.7770   45.9230 C   0  0  0  0  0  0  0  0  0  0  0  0
   32.9980   27.7540   48.8260 H   0  0  0  0  0  0  0  0  0  0  0  0
   34.1260   26.9320   47.7090 H   0  0  0  0  0  0  0  0  0  0  0  0
   34.3860   29.4940   49.1900 H   0  0  0  0  0  0  0  0  0  0  0  0
   35.4190   28.0350   49.3520 H   0  0  0  0  0  0  0  0  0  0  0  0
   36.5820   28.6440   47.2290 H   0  0  0  0  0  0  0  0  0  0  0  0
   34.4810   30.7740   46.6730 H   0  0  0  0  0  0  0  0  0  0  0  0
   35.8320   30.0590   45.6410 H   0  0  0  0  0  0  0  0  0  0  0  0
   33.6670   29.1020   44.9970 H   0  0  0  0  0  0  0  0  0  0  0  0
   34.7570   27.8800   45.6680 H   0  0  0  0  0  0  0  0  0  0  0  0
   31.7500   28.8490   46.7260 C   0  0  0  0  0  0  0  0  0  0  0  0
   31.1670   29.3700   45.5760 C   0  0  0  0  0  0  0  0  0  0  0  0
   29.7970   29.6070   45.6080 C   0  0  0  0  0  0  0  0  0  0  0  0
   29.1040   29.3210   46.7470 N   0  0  0  0  0  0  0  0  0  0  0  0
   29.6960   28.8190   47.8400 C   0  0  0  0  0  0  0  0  0  0  0  0
   31.0100   28.5860   47.8280 N   0  0  0  0  0  0  0  0  0  0  0  0
   31.8500   29.5380   44.7700 H   0  0  0  0  0  0  0  0  0  0  0  0
   29.3860   30.0080   44.7020 H   0  0  0  0  0  0  0  0  0  0  0  0
   28.9100   28.5440   48.9960 N   0  0  0  0  0  0  0  0  0  0  0  0
   29.1710   28.1980   50.2710 C   0  0  0  0  0  0  0  0  0  0  0  0
   30.2420   28.1040   50.4710 H   0  0  0  0  0  0  0  0  0  0  0  0
   28.0150   28.0640   50.9460 N   0  0  0  0  0  0  0  0  0  0  0  0
   27.0160   28.3280   50.0860 C   0  0  0  0  0  0  0  0  0  0  0  0
   25.6620   28.3090   50.3500 C   0  0  0  0  0  0  0  0  0  0  0  0
   25.2750   28.0660   51.3300 H   0  0  0  0  0  0  0  0  0  0  0  0
   24.8120   28.6120   49.3260 N   0  0  0  0  0  0  0  0  0  0  0  0
   25.3480   28.9070   48.1290 C   0  0  0  0  0  0  0  0  0  0  0  0
   24.7810   29.1660   47.2290 H   0  0  0  0  0  0  0  0  0  0  0  0
   26.6730   28.9330   47.8400 N   0  0  0  0  0  0  0  0  0  0  0  0
   27.5570   28.6370   48.8360 C   0  0  0  0  0  0  0  0  0  0  0  0
   36.2250   30.9000   49.5200 C   0  0  0  0  0  0  0  0  0  0  0  0
   36.5550   30.4930   48.2370 C   0  0  0  0  0  0  0  0  0  0  0  0
   37.4970   31.1100   47.4580 C   0  0  0  0  0  0  0  0  0  0  0  0
   38.1560   32.2130   47.9990 C   0  0  0  0  0  0  0  0  0  0  0  0
   37.8340   32.6230   49.2680 C   0  0  0  0  0  0  0  0  0  0  0  0
   36.8760   31.9940   50.0590 C   0  0  0  0  0  0  0  0  0  0  0  0
   38.6020   33.7400   49.6240 O   0  0  0  0  0  0  0  0  0  0  0  0
   39.6310   33.8000   48.6470 C   0  0  0  0  0  0  0  0  0  0  0  0
   39.1470   33.0830   47.5380 O   0  0  0  0  0  0  0  0  0  0  0  0
   35.5160   30.4900   50.2250 H   0  0  0  0  0  0  0  0  0  0  0  0
   37.7220   30.7690   46.4810 H   0  0  0  0  0  0  0  0  0  0  0  0
   36.6710   32.3800   51.0720 H   0  0  0  0  0  0  0  0  0  0  0  0
   39.7600   34.8920   48.4090 H   0  0  0  0  0  0  0  0  0  0  0  0
   40.6000   33.4160   49.0160 H   0  0  0  0  0  0  0  0  0  0  0  0
  1  2  1  0  0  0  0
  2  3  1  0  0  0  0
  2  7  1  0  0  0  0
  3  9  1  0  0  0  0
  3 10  1  0  0  0  0
  4 37  1  0  0  0  0
  4  3  1  0  0  0  0
  5 12  1  0  0  0  0
  5  4  1  0  0  0  0
  6  5  1  0  0  0  0
  6  1  1  0  0  0  0
  8  2  1  0  0  0  0
 11  4  1  0  0  0  0
 13  5  1  0  0  0  0
 14  6  1  0  0  0  0
 15  6  1  0  0  0  0
 16  1  1  0  0  0  0
 16 21  1  0  0  0  0
 17 18  1  0  0  0  0
 17 16  2  0  0  0  0
 18 19  2  0  0  0  0
 19 20  1  0  0  0  0
 20 24  1  0  0  0  0
 21 20  2  0  0  0  0
 22 17  1  0  0  0  0
 23 18  1  0  0  0  0
 24 25  1  0  0  0  0
 25 26  1  0  0  0  0
 25 27  2  0  0  0  0
 28 29  1  0  0  0  0
 28 27  1  0  0  0  0
 29 30  1  0  0  0  0
 31 29  2  0  0  0  0
 32 31  1  0  0  0  0
 33 32  1  0  0  0  0
 34 32  2  0  0  0  0
 34 35  1  0  0  0  0
 35 24  1  0  0  0  0
 35 28  2  0  0  0  0
 36 41  1  0  0  0  0
 36 45  1  0  0  0  0
 37 36  2  0  0  0  0
 38 39  2  0  0  0  0
 38 37  1  0  0  0  0
 39 40  1  0  0  0  0
 40 42  1  0  0  0  0
 40 41  2  0  0  0  0
 41 47  1  0  0  0  0
 43 49  1  0  0  0  0
 43 42  1  0  0  0  0
 44 39  1  0  0  0  0
 44 43  1  0  0  0  0
 46 38  1  0  0  0  0
 48 43  1  0  0  0  0
M  END
>  <minimizedAffinity>
-7.31725264

>  <minimizedRMSD>
0.887619019

$$$$
