
 OpenBabel03272506553D

 23 25  0  0  0  0  0  0  0  0999 V2000
   36.6700   29.5200   50.6520 C   0  0  0  0  0  0  0  0  0  0  0  0
   37.5230   30.3180   49.8680 C   0  0  0  0  0  0  0  0  0  0  0  0
   37.1410   30.4800   48.5090 C   0  0  0  0  0  0  0  0  0  0  0  0
   36.0020   29.8630   48.0740 N   0  0  0  0  0  0  0  0  0  0  0  0
   35.2370   29.1170   48.8790 C   0  0  0  0  0  0  0  0  0  0  0  0
   35.5510   28.9300   50.1760 N   0  0  0  0  0  0  0  0  0  0  0  0
   36.9300   29.3710   51.7040 H   0  0  0  0  0  0  0  0  0  0  0  0
   37.7610   31.0770   47.8850 H   0  0  0  0  0  0  0  0  0  0  0  0
   34.0970   28.5740   48.2050 N   0  0  0  0  0  0  0  0  0  0  0  0
   33.5730   27.3380   48.3240 C   0  0  0  0  0  0  0  0  0  0  0  0
   33.9910   26.5760   48.9920 H   0  0  0  0  0  0  0  0  0  0  0  0
   32.5020   27.2240   47.5180 N   0  0  0  0  0  0  0  0  0  0  0  0
   32.3210   28.3980   46.8590 C   0  0  0  0  0  0  0  0  0  0  0  0
   31.3520   28.7400   45.9360 C   0  0  0  0  0  0  0  0  0  0  0  0
   30.5970   28.0570   45.6300 H   0  0  0  0  0  0  0  0  0  0  0  0
   31.4390   30.0120   45.4500 N   0  0  0  0  0  0  0  0  0  0  0  0
   32.4220   30.8400   45.8750 C   0  0  0  0  0  0  0  0  0  0  0  0
   32.4610   31.8500   45.4640 H   0  0  0  0  0  0  0  0  0  0  0  0
   33.3280   30.4550   46.7680 N   0  0  0  0  0  0  0  0  0  0  0  0
   33.3430   29.2370   47.3110 C   0  0  0  0  0  0  0  0  0  0  0  0
   38.6920   30.9170   50.4230 N   0  0  0  0  0  0  0  0  0  0  0  0
   38.5700   31.4400   51.3370 H   0  0  0  0  0  0  0  0  0  0  0  0
   39.6070   30.8290   49.9290 H   0  0  0  0  0  0  0  0  0  0  0  0
  1  7  1  0  0  0  0
  2 21  1  0  0  0  0
  2  1  2  0  0  0  0
  3  2  1  0  0  0  0
  4  3  2  0  0  0  0
  4  5  1  0  0  0  0
  5  6  2  0  0  0  0
  6  1  1  0  0  0  0
  8  3  1  0  0  0  0
  9 10  1  0  0  0  0
  9  5  1  0  0  0  0
 10 11  1  0  0  0  0
 12 10  2  0  0  0  0
 13 20  1  0  0  0  0
 13 12  1  0  0  0  0
 14 13  2  0  0  0  0
 15 14  1  0  0  0  0
 16 17  2  0  0  0  0
 16 14  1  0  0  0  0
 17 19  1  0  0  0  0
 18 17  1  0  0  0  0
 19 20  2  0  0  0  0
 20  9  1  0  0  0  0
 21 22  1  0  0  0  0
 23 21  1  0  0  0  0
M  END
>  <minimizedAffinity>
-4.67494535

>  <minimizedRMSD>
1.57890272

$$$$
