
 OpenBabel03272509313D

 41 44  0  0  1  0  0  0  0  0999 V2000
   36.3360   30.6870   49.0420 C   0  0  2  0  0  0  0  0  0  0  0  0
   37.3430   31.4720   49.8280 C   0  0  0  0  0  0  0  0  0  0  0  0
   38.1490   30.6100   50.7760 C   0  0  0  0  0  0  0  0  0  0  0  0
   37.2270   29.8480   51.7260 C   0  0  0  0  0  0  0  0  0  0  0  0
   35.9390   29.3880   51.0890 C   0  0  0  0  0  0  0  0  0  0  0  0
   36.1690   29.3010   49.5680 C   0  0  1  0  0  0  0  0  0  0  0  0
   35.2920   31.1320   49.0780 H   0  0  0  0  0  0  0  0  0  0  0  0
   37.9640   32.1640   49.2940 H   0  0  0  0  0  0  0  0  0  0  0  0
   36.7150   32.1210   50.5270 H   0  0  0  0  0  0  0  0  0  0  0  0
   38.7840   31.3000   51.3500 H   0  0  0  0  0  0  0  0  0  0  0  0
   38.7650   29.8560   50.2680 H   0  0  0  0  0  0  0  0  0  0  0  0
   37.0720   30.5100   52.5940 H   0  0  0  0  0  0  0  0  0  0  0  0
   37.7590   28.9430   52.0880 H   0  0  0  0  0  0  0  0  0  0  0  0
   35.6000   28.4290   51.4880 H   0  0  0  0  0  0  0  0  0  0  0  0
   35.1980   30.2020   51.2240 H   0  0  0  0  0  0  0  0  0  0  0  0
   37.0870   28.7640   49.5550 H   0  0  0  0  0  0  0  0  0  0  0  0
   36.7150   30.6180   47.6080 C   0  0  0  0  0  0  0  0  0  0  0  0
   38.0770   30.8080   47.3280 C   0  0  0  0  0  0  0  0  0  0  0  0
   38.4620   30.7450   45.9840 C   0  0  0  0  0  0  0  0  0  0  0  0
   37.4950   30.5010   45.0330 N   0  0  0  0  0  0  0  0  0  0  0  0
   36.1780   30.3200   45.3590 C   0  0  0  0  0  0  0  0  0  0  0  0
   35.8110   30.3830   46.6490 N   0  0  0  0  0  0  0  0  0  0  0  0
   38.9240   30.9930   47.9580 H   0  0  0  0  0  0  0  0  0  0  0  0
   39.4650   30.8710   45.6200 H   0  0  0  0  0  0  0  0  0  0  0  0
   35.5090   30.1360   44.5360 H   0  0  0  0  0  0  0  0  0  0  0  0
   33.8420   28.3960   49.1100 C   0  0  0  0  0  0  0  0  0  0  0  0
   33.0780   29.0110   49.9360 O   0  0  0  0  0  0  0  0  0  0  0  0
   35.2340   28.5010   48.8630 N   0  0  0  0  0  0  0  0  0  0  0  0
   35.5700   27.8940   48.0460 H   0  0  0  0  0  0  0  0  0  0  0  0
   31.0430   28.3190   48.3660 H   0  0  0  0  0  0  0  0  0  0  0  0
   31.7020   27.5420   48.0620 N   0  0  0  0  0  0  0  0  0  0  0  0
   33.0290   27.4330   48.3270 C   0  0  0  0  0  0  0  0  0  0  0  0
   33.3260   26.2990   47.7190 N   0  0  0  0  0  0  0  0  0  0  0  0
   32.3090   25.7130   47.1120 C   0  0  0  0  0  0  0  0  0  0  0  0
   32.1750   24.5560   46.3810 C   0  0  0  0  0  0  0  0  0  0  0  0
   33.0580   23.9240   46.2210 H   0  0  0  0  0  0  0  0  0  0  0  0
   30.9350   24.2660   45.8980 N   0  0  0  0  0  0  0  0  0  0  0  0
   29.8890   25.0670   46.1190 C   0  0  0  0  0  0  0  0  0  0  0  0
   28.9050   24.8270   45.7280 H   0  0  0  0  0  0  0  0  0  0  0  0
   30.0240   26.2040   46.8370 N   0  0  0  0  0  0  0  0  0  0  0  0
   31.2310   26.5260   47.3320 C   0  0  0  0  0  0  0  0  0  0  0  0
  1  7  1  1  0  0  0
  1  6  1  0  0  0  0
  1  2  1  0  0  0  0
  2  9  1  0  0  0  0
  2  3  1  0  0  0  0
  3 10  1  0  0  0  0
  3  4  1  0  0  0  0
  4 13  1  0  0  0  0
  4 12  1  0  0  0  0
  5 15  1  0  0  0  0
  5 14  1  0  0  0  0
  5  4  1  0  0  0  0
  6 16  1  6  0  0  0
  6  5  1  0  0  0  0
  8  2  1  0  0  0  0
 11  3  1  0  0  0  0
 17  1  1  0  0  0  0
 18 17  1  0  0  0  0
 18 23  1  0  0  0  0
 19 18  2  0  0  0  0
 20 21  2  0  0  0  0
 20 19  1  0  0  0  0
 21 22  1  0  0  0  0
 22 17  2  0  0  0  0
 24 19  1  0  0  0  0
 25 21  1  0  0  0  0
 26 27  2  0  0  0  0
 28 26  1  0  0  0  0
 28  6  1  0  0  0  0
 29 28  1  0  0  0  0
 31 32  1  0  0  0  0
 31 30  1  0  0  0  0
 32 26  1  0  0  0  0
 33 32  2  0  0  0  0
 34 41  1  0  0  0  0
 34 33  1  0  0  0  0
 35 34  2  0  0  0  0
 36 35  1  0  0  0  0
 37 38  2  0  0  0  0
 37 35  1  0  0  0  0
 38 40  1  0  0  0  0
 39 38  1  0  0  0  0
 40 41  2  0  0  0  0
 41 31  1  0  0  0  0
M  END
>  <minimizedAffinity>
-6.08678579

>  <minimizedRMSD>
0.657373011

$$$$
