REMARK  Name = 
REMARK  4 active torsions:
REMARK  status: ('A' for Active; 'I' for Inactive)
REMARK    1  A    between atoms: O_1  and  C_2
REMARK    2  A    between atoms: O_1  and  C_13
REMARK    3  A    between atoms: N_16  and  C_17
REMARK    4  A    between atoms: C_17  and  N_29
REMARK                            x       y       z     vdW  Elec       q    Type
REMARK                         _______ _______ _______ _____ _____    ______ ____
ROOT
ATOM      1  O   UNL     1      35.475  28.680  50.056  0.00  0.00    +0.000 OA
ATOM      2  C   UNL     1      35.257  29.052  48.892  0.00  0.00    +0.000 C 
ATOM      3  C   UNL     1      35.919  30.211  48.330  0.00  0.00    +0.000 C 
ATOM      4  C   UNL     1      35.459  30.116  46.838  0.00  0.00    +0.000 C 
ATOM      5  C   UNL     1      34.146  29.398  46.940  0.00  0.00    +0.000 C 
ATOM      6  N   UNL     1      34.349  28.399  47.977  0.00  0.00    +0.000 N 
ATOM      7  H   UNL     1      35.633  31.197  48.707  0.00  0.00    +0.000 HD
ATOM      8  H   UNL     1      36.209  29.592  46.247  0.00  0.00    +0.000 HD
ATOM      9  H   UNL     1      35.403  31.149  46.478  0.00  0.00    +0.000 HD
ATOM     10  H   UNL     1      33.290  30.051  47.098  0.00  0.00    +0.000 HD
ATOM     11  H   UNL     1      33.993  28.825  45.989  0.00  0.00    +0.000 HD
ENDROOT
BRANCH   6  12
ATOM     12  C   UNL     1      33.779  27.073  48.063  0.00  0.00    +0.000 C 
ATOM     13  H   UNL     1      33.735  26.588  47.081  0.00  0.00    +0.000 HD
ATOM     14  H   UNL     1      34.517  26.472  48.672  0.00  0.00    +0.000 HD
BRANCH  12  15
ATOM     15  N   UNL     1      32.534  27.052  48.770  0.00  0.00    +0.000 N 
ATOM     16  C   UNL     1      32.313  26.601  50.038  0.00  0.00    +0.000 A 
ATOM     17  H   UNL     1      33.115  26.199  50.642  0.00  0.00    +0.000 HD
ATOM     18  N   UNL     1      31.003  26.736  50.383  0.00  0.00    +0.000 NA
ATOM     19  C   UNL     1      30.364  27.282  49.325  0.00  0.00    +0.000 A 
ATOM     20  C   UNL     1      29.043  27.636  49.117  0.00  0.00    +0.000 A 
ATOM     21  H   UNL     1      28.345  27.467  49.915  0.00  0.00    +0.000 HD
ATOM     22  N   UNL     1      28.759  28.165  47.916  0.00  0.00    +0.000 NA
ATOM     23  C   UNL     1      29.690  28.350  46.953  0.00  0.00    +0.000 A 
ATOM     24  H   UNL     1      29.329  28.788  46.025  0.00  0.00    +0.000 HD
ATOM     25  N   UNL     1      30.975  28.015  47.134  0.00  0.00    +0.000 NA
ATOM     26  C   UNL     1      31.314  27.473  48.339  0.00  0.00    +0.000 A 
ENDBRANCH  12  15
ENDBRANCH   6  12
BRANCH   3  27
ATOM     27  O   UNL     1      37.343  30.116  48.297  0.00  0.00    +0.000 OA
BRANCH  27  28
ATOM     28  C   UNL     1      38.064  31.305  48.222  0.00  0.00    +0.000 A 
ATOM     29  C   UNL     1      38.217  32.014  49.400  0.00  0.00    +0.000 A 
ATOM     30  C   UNL     1      38.931  33.205  49.359  0.00  0.00    +0.000 A 
ATOM     31  N   UNL     1      39.445  33.619  48.169  0.00  0.00    +0.000 NA
ATOM     32  C   UNL     1      39.288  32.919  47.036  0.00  0.00    +0.000 A 
ATOM     33  N   UNL     1      38.606  31.786  47.089  0.00  0.00    +0.000 NA
ATOM     34  C   UNL     1      40.767  32.467  45.239  0.00  0.00    +0.000 C 
ATOM     35  O   UNL     1      41.130  31.348  45.686  0.00  0.00    +0.000 OA
ATOM     36  N   UNL     1      39.839  33.386  45.809  0.00  0.00    +0.000 N 
ATOM     37  H   UNL     1      37.828  31.723  50.357  0.00  0.00    +0.000 HD
ATOM     38  H   UNL     1      39.069  33.783  50.261  0.00  0.00    +0.000 HD
ATOM     39  H   UNL     1      41.277  32.672  44.302  0.00  0.00    +0.000 HD
ATOM     40  H   UNL     1      39.638  34.271  45.328  0.00  0.00    +0.000 HD
ENDBRANCH  27  28
ENDBRANCH   3  27
TORSDOF 4
