REMARK  Name = 
REMARK  1 active torsions:
REMARK  status: ('A' for Active; 'I' for Inactive)
REMARK    1  A    between atoms: C_2  and  N_7
REMARK                            x       y       z     vdW  Elec       q    Type
REMARK                         _______ _______ _______ _____ _____    ______ ____
ROOT
ATOM      1  C   UNL     1      36.625  29.758  51.261  0.00  0.00    +0.000 A 
ATOM      2  C   UNL     1      37.382  30.117  50.130  0.00  0.00    +0.000 A 
ATOM      3  C   UNL     1      36.804  29.794  48.873  0.00  0.00    +0.000 A 
ATOM      4  N   UNL     1      35.587  29.174  48.855  0.00  0.00    +0.000 NA
ATOM      5  C   UNL     1      34.922  28.862  49.974  0.00  0.00    +0.000 A 
ATOM      6  N   UNL     1      35.423  29.145  51.193  0.00  0.00    +0.000 NA
ATOM      7  H   UNL     1      37.036  29.990  52.248  0.00  0.00    +0.000 HD
ATOM      8  H   UNL     1      37.346  30.050  47.995  0.00  0.00    +0.000 HD
ATOM      9  N   UNL     1      33.671  28.220  49.709  0.00  0.00    +0.000 N 
ATOM     10  C   UNL     1      32.988  27.373  50.504  0.00  0.00    +0.000 A 
ATOM     11  H   UNL     1      33.343  27.072  51.496  0.00  0.00    +0.000 HD
ATOM     12  N   UNL     1      31.855  26.991  49.885  0.00  0.00    +0.000 NA
ATOM     13  C   UNL     1      31.794  27.593  48.670  0.00  0.00    +0.000 A 
ATOM     14  C   UNL     1      30.818  27.496  47.696  0.00  0.00    +0.000 A 
ATOM     15  H   UNL     1      29.954  26.890  47.821  0.00  0.00    +0.000 HD
ATOM     16  N   UNL     1      31.049  28.233  46.571  0.00  0.00    +0.000 NA
ATOM     17  C   UNL     1      32.167  28.988  46.465  0.00  0.00    +0.000 A 
ATOM     18  H   UNL     1      32.317  29.564  45.551  0.00  0.00    +0.000 HD
ATOM     19  N   UNL     1      33.072  29.042  47.437  0.00  0.00    +0.000 NA
ATOM     20  C   UNL     1      32.954  28.366  48.580  0.00  0.00    +0.000 A 
ENDROOT
BRANCH   2  21
ATOM     21  N   UNL     1      38.646  30.763  50.261  0.00  0.00    +0.000 N 
ATOM     22  H   UNL     1      38.687  31.599  50.911  0.00  0.00    +0.000 HD
ATOM     23  H   UNL     1      39.470  30.407  49.730  0.00  0.00    +0.000 HD
ENDBRANCH   2  21
TORSDOF 1
