
 OpenBabel03272500523D

 48 54  0  0  1  0  0  0  0  0999 V2000
   37.3370   27.2340   33.6830 C   0  0  0  0  0  0  0  0  0  0  0  0
   37.2370   26.8950   32.3410 C   0  0  0  0  0  0  0  0  0  0  0  0
   36.2430   27.6490   31.8000 N   0  0  0  0  0  0  0  0  0  0  0  0
   35.7220   28.4460   32.7700 C   0  0  0  0  0  0  0  0  0  0  0  0
   36.3970   28.1850   33.9090 N   0  0  0  0  0  0  0  0  0  0  0  0
   37.8130   26.1760   31.7750 H   0  0  0  0  0  0  0  0  0  0  0  0
   35.8590   27.6900   30.8200 H   0  0  0  0  0  0  0  0  0  0  0  0
   34.6110   29.4260   32.6190 C   0  0  0  0  0  0  0  0  0  0  0  0
   34.5840   30.3380   31.5630 C   0  0  0  0  0  0  0  0  0  0  0  0
   33.0550   31.2800   31.8600 S   0  0  0  0  0  0  0  0  0  0  0  0
   32.6810   30.2490   33.4240 C   0  0  0  0  0  0  0  0  0  0  0  0
   33.5850   29.5490   33.4190 N   0  0  0  0  0  0  0  0  0  0  0  0
   35.2980   30.4630   30.7540 H   0  0  0  0  0  0  0  0  0  0  0  0
   31.5560   30.3540   34.3370 N   0  0  0  0  0  0  0  0  0  0  0  0
   30.7790   31.4430   34.2720 C   0  0  0  0  0  0  0  0  0  0  0  0
   30.8300   32.3150   33.6330 H   0  0  0  0  0  0  0  0  0  0  0  0
   29.8520   31.2360   35.2250 N   0  0  0  0  0  0  0  0  0  0  0  0
   30.0600   30.0620   35.8460 C   0  0  0  0  0  0  0  0  0  0  0  0
   29.4530   29.3420   36.8690 C   0  0  0  0  0  0  0  0  0  0  0  0
   28.5790   29.7740   37.3380 H   0  0  0  0  0  0  0  0  0  0  0  0
   29.9690   28.1540   37.2310 N   0  0  0  0  0  0  0  0  0  0  0  0
   31.0560   27.6040   36.6550 C   0  0  0  0  0  0  0  0  0  0  0  0
   31.4310   26.6410   36.9860 H   0  0  0  0  0  0  0  0  0  0  0  0
   31.6460   28.2980   35.6650 N   0  0  0  0  0  0  0  0  0  0  0  0
   31.1730   29.4870   35.2650 C   0  0  0  0  0  0  0  0  0  0  0  0
   37.7990   25.9800   35.8670 C   0  0  1  0  0  0  0  0  0  0  0  0
   38.5940   27.3400   35.9410 C   0  0  0  0  0  0  0  0  0  0  0  0
   38.3030   26.6260   34.6550 C   0  0  2  0  0  0  0  0  0  0  0  0
   36.7200   26.0810   36.0960 H   0  0  0  0  0  0  0  0  0  0  0  0
   37.9830   28.2310   36.1550 H   0  0  0  0  0  0  0  0  0  0  0  0
   39.5870   27.2990   36.3950 H   0  0  0  0  0  0  0  0  0  0  0  0
   39.2230   26.2200   34.1800 H   0  0  0  0  0  0  0  0  0  0  0  0
   39.8850   23.1370   36.5730 C   0  0  0  0  0  0  0  0  0  0  0  0
   39.0480   23.1200   37.6890 C   0  0  0  0  0  0  0  0  0  0  0  0
   38.1460   24.2000   37.5660 C   0  0  0  0  0  0  0  0  0  0  0  0
   38.4570   24.8140   36.4160 N   0  0  0  0  0  0  0  0  0  0  0  0
   39.4650   24.1670   35.8760 N   0  0  0  0  0  0  0  0  0  0  0  0
   38.9940   22.4610   38.5590 H   0  0  0  0  0  0  0  0  0  0  0  0
   37.3670   24.4940   38.2320 H   0  0  0  0  0  0  0  0  0  0  0  0
   41.4410   21.8600   35.0850 C   0  0  0  0  0  0  0  0  0  0  0  0
   40.9270   22.1770   36.3680 C   0  0  0  0  0  0  0  0  0  0  0  0
   41.4800   21.5110   37.4370 C   0  0  0  0  0  0  0  0  0  0  0  0
   42.4700   20.6020   37.2180 N   0  0  0  0  0  0  0  0  0  0  0  0
   42.9310   20.3310   35.9690 C   0  0  0  0  0  0  0  0  0  0  0  0
   42.4110   20.9660   34.8960 N   0  0  0  0  0  0  0  0  0  0  0  0
   41.0140   22.3780   34.2350 H   0  0  0  0  0  0  0  0  0  0  0  0
   41.1270   21.7130   38.4400 H   0  0  0  0  0  0  0  0  0  0  0  0
   43.7110   19.5840   36.0270 H   0  0  0  0  0  0  0  0  0  0  0  0
  1  5  1  0  0  0  0
  1 28  1  0  0  0  0
  2  1  2  0  0  0  0
  3  2  1  0  0  0  0
  3  4  1  0  0  0  0
  4  5  2  0  0  0  0
  6  2  1  0  0  0  0
  7  3  1  0  0  0  0
  8  4  1  0  0  0  0
  8 12  1  0  0  0  0
  9 10  1  0  0  0  0
  9  8  2  0  0  0  0
 10 11  1  0  0  0  0
 11 14  1  0  0  0  0
 12 11  2  0  0  0  0
 13  9  1  0  0  0  0
 14 25  1  0  0  0  0
 15 14  1  0  0  0  0
 15 17  2  0  0  0  0
 16 15  1  0  0  0  0
 17 18  1  0  0  0  0
 18 19  1  0  0  0  0
 19 21  2  0  0  0  0
 19 20  1  0  0  0  0
 22 23  1  0  0  0  0
 22 21  1  0  0  0  0
 24 22  2  0  0  0  0
 25 24  1  0  0  0  0
 25 18  2  0  0  0  0
 26 27  1  0  0  0  0
 26 29  1  1  0  0  0
 26 36  1  0  0  0  0
 27 30  1  0  0  0  0
 27 31  1  0  0  0  0
 28 32  1  6  0  0  0
 28 26  1  0  0  0  0
 28 27  1  0  0  0  0
 33 34  1  0  0  0  0
 34 38  1  0  0  0  0
 35 34  2  0  0  0  0
 35 39  1  0  0  0  0
 36 35  1  0  0  0  0
 37 36  1  0  0  0  0
 37 33  2  0  0  0  0
 40 41  1  0  0  0  0
 41 33  1  0  0  0  0
 41 42  2  0  0  0  0
 42 47  1  0  0  0  0
 43 42  1  0  0  0  0
 44 48  1  0  0  0  0
 44 43  2  0  0  0  0
 45 40  2  0  0  0  0
 45 44  1  0  0  0  0
 46 40  1  0  0  0  0
M  END
>  <minimizedAffinity>
-6.92077303

$$$$

 OpenBabel03272500523D

 48 54  0  0  1  0  0  0  0  0999 V2000
   36.4610   28.4590   32.0990 C   0  0  0  0  0  0  0  0  0  0  0  0
   36.4390   28.0790   30.7640 C   0  0  0  0  0  0  0  0  0  0  0  0
   37.2680   27.0100   30.6270 N   0  0  0  0  0  0  0  0  0  0  0  0
   37.8050   26.7140   31.8400 C   0  0  0  0  0  0  0  0  0  0  0  0
   37.3060   27.6020   32.7260 N   0  0  0  0  0  0  0  0  0  0  0  0
   35.8870   28.5130   29.9410 H   0  0  0  0  0  0  0  0  0  0  0  0
   37.5240   26.4350   29.7820 H   0  0  0  0  0  0  0  0  0  0  0  0
   38.7690   25.6220   32.1480 C   0  0  0  0  0  0  0  0  0  0  0  0
   39.6740   25.1600   31.1910 C   0  0  0  0  0  0  0  0  0  0  0  0
   40.5800   23.8480   32.0680 S   0  0  0  0  0  0  0  0  0  0  0  0
   39.5520   24.1460   33.6510 C   0  0  0  0  0  0  0  0  0  0  0  0
   38.8730   24.9920   33.2880 N   0  0  0  0  0  0  0  0  0  0  0  0
   39.8120   25.4960   30.1680 H   0  0  0  0  0  0  0  0  0  0  0  0
   39.6370   23.4710   34.9330 N   0  0  0  0  0  0  0  0  0  0  0  0
   40.3280   22.3260   35.0090 C   0  0  0  0  0  0  0  0  0  0  0  0
   40.8690   21.7720   34.2530 H   0  0  0  0  0  0  0  0  0  0  0  0
   40.2160   21.9650   36.3000 N   0  0  0  0  0  0  0  0  0  0  0  0
   39.4810   22.8590   36.9840 C   0  0  0  0  0  0  0  0  0  0  0  0
   39.0450   23.0120   38.2950 C   0  0  0  0  0  0  0  0  0  0  0  0
   39.3290   22.2530   39.0110 H   0  0  0  0  0  0  0  0  0  0  0  0
   38.2950   24.0820   38.6160 N   0  0  0  0  0  0  0  0  0  0  0  0
   37.9340   25.0340   37.7340 C   0  0  0  0  0  0  0  0  0  0  0  0
   37.3280   25.8780   38.0470 H   0  0  0  0  0  0  0  0  0  0  0  0
   38.3550   24.8890   36.4640 N   0  0  0  0  0  0  0  0  0  0  0  0
   39.1040   23.8420   36.0910 C   0  0  0  0  0  0  0  0  0  0  0  0
   35.0110   29.4450   33.9630 C   0  0  1  0  0  0  0  0  0  0  0  0
   34.1980   29.5950   32.6190 C   0  0  0  0  0  0  0  0  0  0  0  0
   35.6960   29.6080   32.6800 C   0  0  2  0  0  0  0  0  0  0  0  0
   34.9670   28.4290   34.4000 H   0  0  0  0  0  0  0  0  0  0  0  0
   33.7310   28.6700   32.2470 H   0  0  0  0  0  0  0  0  0  0  0  0
   33.6320   30.5210   32.4930 H   0  0  0  0  0  0  0  0  0  0  0  0
   36.1200   30.6040   32.4280 H   0  0  0  0  0  0  0  0  0  0  0  0
   34.0100   32.1660   36.0900 C   0  0  0  0  0  0  0  0  0  0  0  0
   35.3730   32.1050   36.3820 C   0  0  0  0  0  0  0  0  0  0  0  0
   35.9310   31.0620   35.6110 C   0  0  0  0  0  0  0  0  0  0  0  0
   34.9190   30.5440   34.9010 N   0  0  0  0  0  0  0  0  0  0  0  0
   33.8300   31.2120   35.2080 N   0  0  0  0  0  0  0  0  0  0  0  0
   36.0100   32.6870   37.0530 H   0  0  0  0  0  0  0  0  0  0  0  0
   36.9440   30.7290   35.5770 H   0  0  0  0  0  0  0  0  0  0  0  0
   33.5850   34.1910   37.4990 C   0  0  0  0  0  0  0  0  0  0  0  0
   33.1270   33.1160   36.6970 C   0  0  0  0  0  0  0  0  0  0  0  0
   31.7670   33.0150   36.5180 C   0  0  0  0  0  0  0  0  0  0  0  0
   30.9460   33.9290   37.1050 N   0  0  0  0  0  0  0  0  0  0  0  0
   31.4320   34.9440   37.8660 C   0  0  0  0  0  0  0  0  0  0  0  0
   32.7630   35.0740   38.0640 N   0  0  0  0  0  0  0  0  0  0  0  0
   34.6550   34.2820   37.6480 H   0  0  0  0  0  0  0  0  0  0  0  0
   31.3590   32.2140   35.9150 H   0  0  0  0  0  0  0  0  0  0  0  0
   30.6110   35.5460   38.2310 H   0  0  0  0  0  0  0  0  0  0  0  0
  1 28  1  0  0  0  0
  1  5  1  0  0  0  0
  2  1  2  0  0  0  0
  3  2  1  0  0  0  0
  3  4  1  0  0  0  0
  4  8  1  0  0  0  0
  4  5  2  0  0  0  0
  6  2  1  0  0  0  0
  7  3  1  0  0  0  0
  8 12  1  0  0  0  0
  9 10  1  0  0  0  0
  9  8  2  0  0  0  0
 10 11  1  0  0  0  0
 11 14  1  0  0  0  0
 12 11  2  0  0  0  0
 13  9  1  0  0  0  0
 14 15  1  0  0  0  0
 14 25  1  0  0  0  0
 15 17  2  0  0  0  0
 16 15  1  0  0  0  0
 17 18  1  0  0  0  0
 18 19  1  0  0  0  0
 19 21  2  0  0  0  0
 19 20  1  0  0  0  0
 22 23  1  0  0  0  0
 22 21  1  0  0  0  0
 24 22  2  0  0  0  0
 25 24  1  0  0  0  0
 25 18  2  0  0  0  0
 26 29  1  1  0  0  0
 26 36  1  0  0  0  0
 27 28  1  0  0  0  0
 27 26  1  0  0  0  0
 28 32  1  6  0  0  0
 28 26  1  0  0  0  0
 30 27  1  0  0  0  0
 31 27  1  0  0  0  0
 33 34  1  0  0  0  0
 33 41  1  0  0  0  0
 34 38  1  0  0  0  0
 35 34  2  0  0  0  0
 36 37  1  0  0  0  0
 36 35  1  0  0  0  0
 37 33  2  0  0  0  0
 39 35  1  0  0  0  0
 40 46  1  0  0  0  0
 40 45  1  0  0  0  0
 41 40  2  0  0  0  0
 42 41  1  0  0  0  0
 42 43  2  0  0  0  0
 43 44  1  0  0  0  0
 44 45  2  0  0  0  0
 44 48  1  0  0  0  0
 47 42  1  0  0  0  0
M  END
>  <minimizedAffinity>
-6.60043812

$$$$

 OpenBabel03272500523D

 48 54  0  0  1  0  0  0  0  0999 V2000
   37.8740   26.1140   34.4390 C   0  0  0  0  0  0  0  0  0  0  0  0
   37.5700   25.4770   33.2440 C   0  0  0  0  0  0  0  0  0  0  0  0
   36.8170   26.3330   32.5030 N   0  0  0  0  0  0  0  0  0  0  0  0
   36.6440   27.4840   33.2040 C   0  0  0  0  0  0  0  0  0  0  0  0
   37.2920   27.3380   34.3790 N   0  0  0  0  0  0  0  0  0  0  0  0
   37.8510   24.4880   32.9080 H   0  0  0  0  0  0  0  0  0  0  0  0
   36.3900   26.2290   31.5450 H   0  0  0  0  0  0  0  0  0  0  0  0
   35.8790   28.6870   32.7720 C   0  0  0  0  0  0  0  0  0  0  0  0
   36.2090   29.3770   31.6050 C   0  0  0  0  0  0  0  0  0  0  0  0
   34.9970   30.7330   31.5620 S   0  0  0  0  0  0  0  0  0  0  0  0
   34.2050   30.1260   33.1920 C   0  0  0  0  0  0  0  0  0  0  0  0
   34.8670   29.2170   33.4040 N   0  0  0  0  0  0  0  0  0  0  0  0
   36.9970   29.1650   30.8890 H   0  0  0  0  0  0  0  0  0  0  0  0
   33.0830   30.6850   33.9230 N   0  0  0  0  0  0  0  0  0  0  0  0
   32.6610   31.9160   33.6050 C   0  0  0  0  0  0  0  0  0  0  0  0
   33.0160   32.6190   32.8630 H   0  0  0  0  0  0  0  0  0  0  0  0
   31.6330   32.1330   34.4460 N   0  0  0  0  0  0  0  0  0  0  0  0
   31.4390   31.0710   35.2470 C   0  0  0  0  0  0  0  0  0  0  0  0
   30.5620   30.7280   36.2700 C   0  0  0  0  0  0  0  0  0  0  0  0
   29.8130   31.4540   36.5540 H   0  0  0  0  0  0  0  0  0  0  0  0
   30.6800   29.5250   36.8590 N   0  0  0  0  0  0  0  0  0  0  0  0
   31.6100   28.6120   36.5150 C   0  0  0  0  0  0  0  0  0  0  0  0
   31.6600   27.6540   37.0240 H   0  0  0  0  0  0  0  0  0  0  0  0
   32.4600   28.9400   35.5250 N   0  0  0  0  0  0  0  0  0  0  0  0
   32.3850   30.1260   34.9040 C   0  0  0  0  0  0  0  0  0  0  0  0
   38.7700   24.0620   35.6800 C   0  0  1  0  0  0  0  0  0  0  0  0
   37.9670   24.9210   36.7310 C   0  0  0  0  0  0  0  0  0  0  0  0
   38.6780   25.5170   35.5540 C   0  0  2  0  0  0  0  0  0  0  0  0
   38.1260   23.4450   35.0230 H   0  0  0  0  0  0  0  0  0  0  0  0
   36.8710   24.8510   36.6570 H   0  0  0  0  0  0  0  0  0  0  0  0
   38.3930   24.9830   37.7360 H   0  0  0  0  0  0  0  0  0  0  0  0
   39.5530   26.1320   35.8560 H   0  0  0  0  0  0  0  0  0  0  0  0
   42.1460   23.0600   36.4060 C   0  0  0  0  0  0  0  0  0  0  0  0
   41.4370   22.1140   37.1460 C   0  0  0  0  0  0  0  0  0  0  0  0
   40.0600   22.3720   36.9660 C   0  0  0  0  0  0  0  0  0  0  0  0
   39.9860   23.4320   36.1500 N   0  0  0  0  0  0  0  0  0  0  0  0
   41.2120   23.7960   35.8500 N   0  0  0  0  0  0  0  0  0  0  0  0
   41.7580   21.2850   37.7820 H   0  0  0  0  0  0  0  0  0  0  0  0
   39.2260   21.8510   37.3800 H   0  0  0  0  0  0  0  0  0  0  0  0
   44.3340   24.2120   36.7950 C   0  0  0  0  0  0  0  0  0  0  0  0
   43.5770   23.0960   36.3580 C   0  0  0  0  0  0  0  0  0  0  0  0
   44.2850   22.0220   35.8710 C   0  0  0  0  0  0  0  0  0  0  0  0
   45.6440   22.0780   35.8340 N   0  0  0  0  0  0  0  0  0  0  0  0
   46.3280   23.1700   36.2660 C   0  0  0  0  0  0  0  0  0  0  0  0
   45.6650   24.2440   36.7500 N   0  0  0  0  0  0  0  0  0  0  0  0
   43.7890   25.0650   37.1810 H   0  0  0  0  0  0  0  0  0  0  0  0
   43.7590   21.1420   35.5220 H   0  0  0  0  0  0  0  0  0  0  0  0
   47.3890   23.0020   36.1470 H   0  0  0  0  0  0  0  0  0  0  0  0
  1 28  1  0  0  0  0
  2  1  2  0  0  0  0
  3  4  1  0  0  0  0
  3  2  1  0  0  0  0
  4  5  2  0  0  0  0
  5  1  1  0  0  0  0
  6  2  1  0  0  0  0
  7  3  1  0  0  0  0
  8  4  1  0  0  0  0
  8 12  1  0  0  0  0
  9  8  2  0  0  0  0
 10  9  1  0  0  0  0
 10 11  1  0  0  0  0
 11 12  2  0  0  0  0
 11 14  1  0  0  0  0
 13  9  1  0  0  0  0
 14 25  1  0  0  0  0
 15 14  1  0  0  0  0
 15 17  2  0  0  0  0
 16 15  1  0  0  0  0
 17 18  1  0  0  0  0
 18 19  1  0  0  0  0
 19 20  1  0  0  0  0
 19 21  2  0  0  0  0
 22 21  1  0  0  0  0
 22 23  1  0  0  0  0
 24 22  2  0  0  0  0
 25 18  2  0  0  0  0
 25 24  1  0  0  0  0
 26 29  1  6  0  0  0
 26 36  1  0  0  0  0
 26 27  1  0  0  0  0
 27 31  1  0  0  0  0
 28 26  1  0  0  0  0
 28 32  1  1  0  0  0
 28 27  1  0  0  0  0
 30 27  1  0  0  0  0
 33 34  1  0  0  0  0
 34 38  1  0  0  0  0
 35 34  2  0  0  0  0
 35 39  1  0  0  0  0
 36 35  1  0  0  0  0
 37 36  1  0  0  0  0
 37 33  2  0  0  0  0
 40 46  1  0  0  0  0
 41 33  1  0  0  0  0
 41 40  2  0  0  0  0
 42 41  1  0  0  0  0
 43 42  2  0  0  0  0
 43 44  1  0  0  0  0
 44 45  2  0  0  0  0
 45 40  1  0  0  0  0
 47 42  1  0  0  0  0
 48 44  1  0  0  0  0
M  END
>  <minimizedAffinity>
-6.57103586

$$$$

 OpenBabel03272500523D

 48 54  0  0  1  0  0  0  0  0999 V2000
   38.0050   25.7840   35.5040 C   0  0  0  0  0  0  0  0  0  0  0  0
   38.3810   26.9040   36.2340 C   0  0  0  0  0  0  0  0  0  0  0  0
   37.8060   27.9880   35.6470 N   0  0  0  0  0  0  0  0  0  0  0  0
   37.0830   27.5730   34.5730 C   0  0  0  0  0  0  0  0  0  0  0  0
   37.2130   26.2310   34.4980 N   0  0  0  0  0  0  0  0  0  0  0  0
   39.0090   26.9670   37.1110 H   0  0  0  0  0  0  0  0  0  0  0  0
   37.8440   29.0120   35.8940 H   0  0  0  0  0  0  0  0  0  0  0  0
   36.2970   28.4280   33.6420 C   0  0  0  0  0  0  0  0  0  0  0  0
   36.7210   28.6590   32.3330 C   0  0  0  0  0  0  0  0  0  0  0  0
   35.4310   29.7510   31.6590 S   0  0  0  0  0  0  0  0  0  0  0  0
   34.4850   29.7180   33.3190 C   0  0  0  0  0  0  0  0  0  0  0  0
   35.1770   29.0390   33.9250 N   0  0  0  0  0  0  0  0  0  0  0  0
   37.6070   28.2830   31.8290 H   0  0  0  0  0  0  0  0  0  0  0  0
   33.2430   30.3800   33.6730 N   0  0  0  0  0  0  0  0  0  0  0  0
   32.7780   31.3430   32.8660 C   0  0  0  0  0  0  0  0  0  0  0  0
   33.1740   31.7490   31.9440 H   0  0  0  0  0  0  0  0  0  0  0  0
   31.6400   31.7430   33.4610 N   0  0  0  0  0  0  0  0  0  0  0  0
   31.4220   31.0470   34.5900 C   0  0  0  0  0  0  0  0  0  0  0  0
   30.4490   31.0190   35.5840 C   0  0  0  0  0  0  0  0  0  0  0  0
   29.6200   31.7080   35.4960 H   0  0  0  0  0  0  0  0  0  0  0  0
   30.5770   30.1490   36.6020 N   0  0  0  0  0  0  0  0  0  0  0  0
   31.6050   29.2860   36.7230 C   0  0  0  0  0  0  0  0  0  0  0  0
   31.6580   28.6050   37.5670 H   0  0  0  0  0  0  0  0  0  0  0  0
   32.5470   29.3110   35.7640 N   0  0  0  0  0  0  0  0  0  0  0  0
   32.4680   30.1580   34.7270 C   0  0  0  0  0  0  0  0  0  0  0  0
   39.7100   23.8870   35.2860 C   0  0  1  0  0  0  0  0  0  0  0  0
   38.3410   23.3420   34.7240 C   0  0  0  0  0  0  0  0  0  0  0  0
   38.4330   24.3790   35.8030 C   0  0  2  0  0  0  0  0  0  0  0  0
   40.2620   24.5300   34.5720 H   0  0  0  0  0  0  0  0  0  0  0  0
   38.0680   23.7020   33.7200 H   0  0  0  0  0  0  0  0  0  0  0  0
   38.0960   22.3040   34.9610 H   0  0  0  0  0  0  0  0  0  0  0  0
   38.0760   24.0000   36.7840 H   0  0  0  0  0  0  0  0  0  0  0  0
   42.1410   21.5430   36.5200 C   0  0  0  0  0  0  0  0  0  0  0  0
   41.3170   21.6650   37.6390 C   0  0  0  0  0  0  0  0  0  0  0  0
   40.2850   22.5730   37.3150 C   0  0  0  0  0  0  0  0  0  0  0  0
   40.5130   22.9570   36.0520 N   0  0  0  0  0  0  0  0  0  0  0  0
   41.5930   22.3390   35.6320 N   0  0  0  0  0  0  0  0  0  0  0  0
   41.3490   21.2070   38.6310 H   0  0  0  0  0  0  0  0  0  0  0  0
   39.4760   22.9050   37.9270 H   0  0  0  0  0  0  0  0  0  0  0  0
   43.2960   19.3760   37.0060 C   0  0  0  0  0  0  0  0  0  0  0  0
   43.2970   20.6970   36.4940 C   0  0  0  0  0  0  0  0  0  0  0  0
   44.4800   21.1510   35.9570 C   0  0  0  0  0  0  0  0  0  0  0  0
   45.5650   20.3300   35.9430 N   0  0  0  0  0  0  0  0  0  0  0  0
   45.5160   19.0690   36.4460 C   0  0  0  0  0  0  0  0  0  0  0  0
   44.3710   18.5900   36.9810 N   0  0  0  0  0  0  0  0  0  0  0  0
   42.3700   19.0060   37.4310 H   0  0  0  0  0  0  0  0  0  0  0  0
   44.5390   22.1530   35.5520 H   0  0  0  0  0  0  0  0  0  0  0  0
   46.4830   18.5980   36.3330 H   0  0  0  0  0  0  0  0  0  0  0  0
  1 28  1  0  0  0  0
  1  2  2  0  0  0  0
  2  6  1  0  0  0  0
  3  7  1  0  0  0  0
  3  2  1  0  0  0  0
  4  3  1  0  0  0  0
  5  4  2  0  0  0  0
  5  1  1  0  0  0  0
  8 12  1  0  0  0  0
  8  4  1  0  0  0  0
  9  8  2  0  0  0  0
 10  9  1  0  0  0  0
 10 11  1  0  0  0  0
 11 14  1  0  0  0  0
 11 12  2  0  0  0  0
 13  9  1  0  0  0  0
 14 25  1  0  0  0  0
 15 17  2  0  0  0  0
 15 14  1  0  0  0  0
 16 15  1  0  0  0  0
 17 18  1  0  0  0  0
 18 25  2  0  0  0  0
 18 19  1  0  0  0  0
 19 21  2  0  0  0  0
 20 19  1  0  0  0  0
 21 22  1  0  0  0  0
 22 23  1  0  0  0  0
 24 22  2  0  0  0  0
 25 24  1  0  0  0  0
 26 29  1  6  0  0  0
 26 28  1  0  0  0  0
 26 36  1  0  0  0  0
 27 31  1  0  0  0  0
 27 26  1  0  0  0  0
 27 28  1  0  0  0  0
 28 32  1  1  0  0  0
 30 27  1  0  0  0  0
 33 34  1  0  0  0  0
 34 38  1  0  0  0  0
 35 34  2  0  0  0  0
 35 39  1  0  0  0  0
 36 35  1  0  0  0  0
 37 36  1  0  0  0  0
 37 33  2  0  0  0  0
 40 46  1  0  0  0  0
 41 33  1  0  0  0  0
 41 40  2  0  0  0  0
 42 41  1  0  0  0  0
 43 42  2  0  0  0  0
 43 44  1  0  0  0  0
 44 45  2  0  0  0  0
 45 40  1  0  0  0  0
 47 42  1  0  0  0  0
 48 44  1  0  0  0  0
M  END
>  <minimizedAffinity>
-6.49282455

$$$$

 OpenBabel03272500523D

 48 54  0  0  1  0  0  0  0  0999 V2000
   35.4860   28.9720   33.4730 C   0  0  0  0  0  0  0  0  0  0  0  0
   35.7210   29.3540   32.1590 C   0  0  0  0  0  0  0  0  0  0  0  0
   36.8250   28.6870   31.7290 N   0  0  0  0  0  0  0  0  0  0  0  0
   37.2830   27.9010   32.7390 C   0  0  0  0  0  0  0  0  0  0  0  0
   36.4600   28.0840   33.7930 N   0  0  0  0  0  0  0  0  0  0  0  0
   35.1660   30.0470   31.5420 H   0  0  0  0  0  0  0  0  0  0  0  0
   37.3250   28.6990   30.8010 H   0  0  0  0  0  0  0  0  0  0  0  0
   38.4730   27.0060   32.7050 C   0  0  0  0  0  0  0  0  0  0  0  0
   39.4130   27.0850   31.6770 C   0  0  0  0  0  0  0  0  0  0  0  0
   40.6180   25.7910   32.1090 S   0  0  0  0  0  0  0  0  0  0  0  0
   39.6190   25.3320   33.6730 C   0  0  0  0  0  0  0  0  0  0  0  0
   38.7590   26.0810   33.5820 N   0  0  0  0  0  0  0  0  0  0  0  0
   39.4310   27.7530   30.8220 H   0  0  0  0  0  0  0  0  0  0  0  0
   39.9030   24.3160   34.6690 N   0  0  0  0  0  0  0  0  0  0  0  0
   40.8280   23.3870   34.3910 C   0  0  0  0  0  0  0  0  0  0  0  0
   41.4420   23.2380   33.5120 H   0  0  0  0  0  0  0  0  0  0  0  0
   40.8520   22.6150   35.4920 N   0  0  0  0  0  0  0  0  0  0  0  0
   39.9720   23.0590   36.4060 C   0  0  0  0  0  0  0  0  0  0  0  0
   39.5700   22.6820   37.6830 C   0  0  0  0  0  0  0  0  0  0  0  0
   40.0420   21.8140   38.1230 H   0  0  0  0  0  0  0  0  0  0  0  0
   38.6230   23.4010   38.3110 N   0  0  0  0  0  0  0  0  0  0  0  0
   38.0270   24.4840   37.7740 C   0  0  0  0  0  0  0  0  0  0  0  0
   37.2670   25.0290   38.3260 H   0  0  0  0  0  0  0  0  0  0  0  0
   38.4140   24.8510   36.5380 N   0  0  0  0  0  0  0  0  0  0  0  0
   39.3540   24.1690   35.8680 C   0  0  0  0  0  0  0  0  0  0  0  0
   33.0950   29.8520   33.7170 C   0  0  1  0  0  0  0  0  0  0  0  0
   34.0520   30.9490   34.3220 C   0  0  0  0  0  0  0  0  0  0  0  0
   34.3700   29.4840   34.3320 C   0  0  2  0  0  0  0  0  0  0  0  0
   33.0400   29.8680   32.6110 H   0  0  0  0  0  0  0  0  0  0  0  0
   34.5910   31.5620   33.5840 H   0  0  0  0  0  0  0  0  0  0  0  0
   33.7030   31.4550   35.2260 H   0  0  0  0  0  0  0  0  0  0  0  0
   34.3610   29.0570   35.3590 H   0  0  0  0  0  0  0  0  0  0  0  0
   30.4600   28.9950   36.0090 C   0  0  0  0  0  0  0  0  0  0  0  0
   29.7170   29.5400   34.9610 C   0  0  0  0  0  0  0  0  0  0  0  0
   30.6230   29.9370   33.9540 C   0  0  0  0  0  0  0  0  0  0  0  0
   31.8440   29.6290   34.4110 N   0  0  0  0  0  0  0  0  0  0  0  0
   31.7030   29.0870   35.5990 N   0  0  0  0  0  0  0  0  0  0  0  0
   28.6430   29.6910   34.8200 H   0  0  0  0  0  0  0  0  0  0  0  0
   30.4120   30.3920   33.0120 H   0  0  0  0  0  0  0  0  0  0  0  0
   28.5660   28.8690   37.6410 C   0  0  0  0  0  0  0  0  0  0  0  0
   29.8600   28.4870   37.2060 C   0  0  0  0  0  0  0  0  0  0  0  0
   30.5370   27.5870   37.9960 C   0  0  0  0  0  0  0  0  0  0  0  0
   29.9470   27.1170   39.1290 N   0  0  0  0  0  0  0  0  0  0  0  0
   28.7030   27.5120   39.5060 C   0  0  0  0  0  0  0  0  0  0  0  0
   28.0090   28.3950   38.7550 N   0  0  0  0  0  0  0  0  0  0  0  0
   28.0220   29.5760   37.0270 H   0  0  0  0  0  0  0  0  0  0  0  0
   31.5290   27.2590   37.7130 H   0  0  0  0  0  0  0  0  0  0  0  0
   28.4330   27.0190   40.4300 H   0  0  0  0  0  0  0  0  0  0  0  0
  1  5  1  0  0  0  0
  1 28  1  0  0  0  0
  2  1  2  0  0  0  0
  3  2  1  0  0  0  0
  3  4  1  0  0  0  0
  4  5  2  0  0  0  0
  6  2  1  0  0  0  0
  7  3  1  0  0  0  0
  8  4  1  0  0  0  0
  8 12  1  0  0  0  0
  9 10  1  0  0  0  0
  9  8  2  0  0  0  0
 10 11  1  0  0  0  0
 11 14  1  0  0  0  0
 12 11  2  0  0  0  0
 13  9  1  0  0  0  0
 14 25  1  0  0  0  0
 15 14  1  0  0  0  0
 15 17  2  0  0  0  0
 16 15  1  0  0  0  0
 17 18  1  0  0  0  0
 18 19  1  0  0  0  0
 19 20  1  0  0  0  0
 19 21  2  0  0  0  0
 22 21  1  0  0  0  0
 22 23  1  0  0  0  0
 24 22  2  0  0  0  0
 25 18  2  0  0  0  0
 25 24  1  0  0  0  0
 26 29  1  6  0  0  0
 26 27  1  0  0  0  0
 26 28  1  0  0  0  0
 26 36  1  0  0  0  0
 27 28  1  0  0  0  0
 27 31  1  0  0  0  0
 28 32  1  1  0  0  0
 30 27  1  0  0  0  0
 33 41  1  0  0  0  0
 34 33  1  0  0  0  0
 35 36  1  0  0  0  0
 35 34  2  0  0  0  0
 36 37  1  0  0  0  0
 37 33  2  0  0  0  0
 38 34  1  0  0  0  0
 39 35  1  0  0  0  0
 40 45  1  0  0  0  0
 41 40  2  0  0  0  0
 41 42  1  0  0  0  0
 42 43  2  0  0  0  0
 43 44  1  0  0  0  0
 44 48  1  0  0  0  0
 45 44  2  0  0  0  0
 46 40  1  0  0  0  0
 47 42  1  0  0  0  0
M  END
>  <minimizedAffinity>
-6.45784283

$$$$

 OpenBabel03272500523D

 48 54  0  0  1  0  0  0  0  0999 V2000
   35.8450   29.6880   31.8700 C   0  0  0  0  0  0  0  0  0  0  0  0
   36.2050   29.5740   30.5340 C   0  0  0  0  0  0  0  0  0  0  0  0
   36.3340   28.2490   30.2560 N   0  0  0  0  0  0  0  0  0  0  0  0
   36.0640   27.5370   31.3810 C   0  0  0  0  0  0  0  0  0  0  0  0
   35.7680   28.4240   32.3550 N   0  0  0  0  0  0  0  0  0  0  0  0
   36.3680   30.3540   29.8030 H   0  0  0  0  0  0  0  0  0  0  0  0
   36.5930   27.7490   29.3640 H   0  0  0  0  0  0  0  0  0  0  0  0
   36.0930   26.0550   31.5290 C   0  0  0  0  0  0  0  0  0  0  0  0
   35.1910   25.2390   30.8440 C   0  0  0  0  0  0  0  0  0  0  0  0
   35.6490   23.5620   31.3840 S   0  0  0  0  0  0  0  0  0  0  0  0
   37.0410   24.2600   32.4920 C   0  0  0  0  0  0  0  0  0  0  0  0
   36.9160   25.3770   32.2840 N   0  0  0  0  0  0  0  0  0  0  0  0
   34.4040   25.5250   30.1540 H   0  0  0  0  0  0  0  0  0  0  0  0
   37.9740   23.5420   33.3420 N   0  0  0  0  0  0  0  0  0  0  0  0
   37.7270   22.2560   33.6210 C   0  0  0  0  0  0  0  0  0  0  0  0
   36.9160   21.6070   33.3170 H   0  0  0  0  0  0  0  0  0  0  0  0
   38.7540   21.8930   34.4110 N   0  0  0  0  0  0  0  0  0  0  0  0
   39.5940   22.9240   34.6050 C   0  0  0  0  0  0  0  0  0  0  0  0
   40.7790   23.1400   35.2990 C   0  0  0  0  0  0  0  0  0  0  0  0
   41.1960   22.3110   35.8540 H   0  0  0  0  0  0  0  0  0  0  0  0
   41.3520   24.3570   35.2570 N   0  0  0  0  0  0  0  0  0  0  0  0
   40.8430   25.3990   34.5710 C   0  0  0  0  0  0  0  0  0  0  0  0
   41.3470   26.3610   34.5700 H   0  0  0  0  0  0  0  0  0  0  0  0
   39.6960   25.1930   33.8980 N   0  0  0  0  0  0  0  0  0  0  0  0
   39.0850   24.0000   33.9060 C   0  0  0  0  0  0  0  0  0  0  0  0
   34.4990   31.0940   33.5320 C   0  0  1  0  0  0  0  0  0  0  0  0
   34.4860   31.8690   32.1580 C   0  0  0  0  0  0  0  0  0  0  0  0
   35.6140   30.9810   32.5910 C   0  0  2  0  0  0  0  0  0  0  0  0
   33.7740   30.2570   33.5780 H   0  0  0  0  0  0  0  0  0  0  0  0
   33.8070   31.4610   31.3940 H   0  0  0  0  0  0  0  0  0  0  0  0
   34.5750   32.9570   32.2120 H   0  0  0  0  0  0  0  0  0  0  0  0
   36.5440   31.5510   32.8010 H   0  0  0  0  0  0  0  0  0  0  0  0
   34.0180   33.2570   36.3630 C   0  0  0  0  0  0  0  0  0  0  0  0
   35.3600   32.9170   36.5300 C   0  0  0  0  0  0  0  0  0  0  0  0
   35.7180   32.0500   35.4750 C   0  0  0  0  0  0  0  0  0  0  0  0
   34.6150   31.8990   34.7290 N   0  0  0  0  0  0  0  0  0  0  0  0
   33.6590   32.6140   35.2770 N   0  0  0  0  0  0  0  0  0  0  0  0
   36.1030   33.1950   37.2830 H   0  0  0  0  0  0  0  0  0  0  0  0
   36.6620   31.5910   35.2820 H   0  0  0  0  0  0  0  0  0  0  0  0
   33.9340   34.7270   38.3870 C   0  0  0  0  0  0  0  0  0  0  0  0
   33.3190   34.1290   37.2600 C   0  0  0  0  0  0  0  0  0  0  0  0
   31.9910   34.4220   37.0520 C   0  0  0  0  0  0  0  0  0  0  0  0
   31.3470   35.2520   37.9170 N   0  0  0  0  0  0  0  0  0  0  0  0
   31.9790   35.8040   38.9860 C   0  0  0  0  0  0  0  0  0  0  0  0
   33.2830   35.5380   39.2210 N   0  0  0  0  0  0  0  0  0  0  0  0
   34.9800   34.5050   38.5620 H   0  0  0  0  0  0  0  0  0  0  0  0
   31.4690   33.9930   36.2060 H   0  0  0  0  0  0  0  0  0  0  0  0
   31.2850   36.4250   39.5350 H   0  0  0  0  0  0  0  0  0  0  0  0
  1  5  1  0  0  0  0
  1 28  1  0  0  0  0
  2  1  2  0  0  0  0
  3  2  1  0  0  0  0
  3  4  1  0  0  0  0
  4  8  1  0  0  0  0
  4  5  2  0  0  0  0
  6  2  1  0  0  0  0
  7  3  1  0  0  0  0
  8 12  1  0  0  0  0
  9 10  1  0  0  0  0
  9  8  2  0  0  0  0
 10 11  1  0  0  0  0
 11 14  1  0  0  0  0
 12 11  2  0  0  0  0
 13  9  1  0  0  0  0
 14 15  1  0  0  0  0
 14 25  1  0  0  0  0
 15 17  2  0  0  0  0
 16 15  1  0  0  0  0
 17 18  1  0  0  0  0
 18 19  1  0  0  0  0
 19 20  1  0  0  0  0
 21 19  2  0  0  0  0
 22 21  1  0  0  0  0
 23 22  1  0  0  0  0
 24 25  1  0  0  0  0
 24 22  2  0  0  0  0
 25 18  2  0  0  0  0
 26 29  1  1  0  0  0
 26 36  1  0  0  0  0
 27 31  1  0  0  0  0
 27 28  1  0  0  0  0
 27 26  1  0  0  0  0
 28 32  1  1  0  0  0
 28 26  1  0  0  0  0
 30 27  1  0  0  0  0
 33 34  1  0  0  0  0
 33 41  1  0  0  0  0
 34 38  1  0  0  0  0
 35 34  2  0  0  0  0
 36 37  1  0  0  0  0
 36 35  1  0  0  0  0
 37 33  2  0  0  0  0
 39 35  1  0  0  0  0
 40 46  1  0  0  0  0
 40 45  1  0  0  0  0
 41 40  2  0  0  0  0
 42 41  1  0  0  0  0
 42 43  2  0  0  0  0
 43 44  1  0  0  0  0
 44 45  2  0  0  0  0
 44 48  1  0  0  0  0
 47 42  1  0  0  0  0
M  END
>  <minimizedAffinity>
-6.43312073

$$$$

 OpenBabel03272500523D

 48 54  0  0  1  0  0  0  0  0999 V2000
   36.6680   27.6730   33.4070 C   0  0  0  0  0  0  0  0  0  0  0  0
   36.5610   26.8820   32.2710 C   0  0  0  0  0  0  0  0  0  0  0  0
   37.2190   25.7180   32.5170 N   0  0  0  0  0  0  0  0  0  0  0  0
   37.7320   25.7630   33.7750 C   0  0  0  0  0  0  0  0  0  0  0  0
   37.3890   26.9560   34.3050 N   0  0  0  0  0  0  0  0  0  0  0  0
   36.0620   27.0970   31.3360 H   0  0  0  0  0  0  0  0  0  0  0  0
   37.3690   24.8660   31.9150 H   0  0  0  0  0  0  0  0  0  0  0  0
   38.5300   24.7030   34.4520 C   0  0  0  0  0  0  0  0  0  0  0  0
   37.9560   23.4870   34.8250 C   0  0  0  0  0  0  0  0  0  0  0  0
   39.3360   22.5920   35.6030 S   0  0  0  0  0  0  0  0  0  0  0  0
   40.5160   24.0620   35.2860 C   0  0  0  0  0  0  0  0  0  0  0  0
   39.7950   24.7830   34.7680 N   0  0  0  0  0  0  0  0  0  0  0  0
   36.9330   23.1480   34.6890 H   0  0  0  0  0  0  0  0  0  0  0  0
   41.9230   24.1890   35.6200 N   0  0  0  0  0  0  0  0  0  0  0  0
   42.4600   23.3080   36.4740 C   0  0  0  0  0  0  0  0  0  0  0  0
   42.0220   22.4670   36.9960 H   0  0  0  0  0  0  0  0  0  0  0  0
   43.7450   23.6930   36.5700 N   0  0  0  0  0  0  0  0  0  0  0  0
   43.9800   24.7700   35.8010 C   0  0  0  0  0  0  0  0  0  0  0  0
   45.0720   25.5790   35.5070 C   0  0  0  0  0  0  0  0  0  0  0  0
   46.0150   25.3430   35.9820 H   0  0  0  0  0  0  0  0  0  0  0  0
   44.9150   26.6080   34.6550 N   0  0  0  0  0  0  0  0  0  0  0  0
   43.7460   26.9120   34.0570 C   0  0  0  0  0  0  0  0  0  0  0  0
   43.6760   27.7560   33.3770 H   0  0  0  0  0  0  0  0  0  0  0  0
   42.6880   26.1320   34.3410 N   0  0  0  0  0  0  0  0  0  0  0  0
   42.7890   25.0930   35.1820 C   0  0  0  0  0  0  0  0  0  0  0  0
   34.9970   29.2760   34.4970 C   0  0  1  0  0  0  0  0  0  0  0  0
   34.7620   29.3560   32.9390 C   0  0  0  0  0  0  0  0  0  0  0  0
   36.0940   29.0490   33.5560 C   0  0  2  0  0  0  0  0  0  0  0  0
   34.5320   28.3900   34.9730 H   0  0  0  0  0  0  0  0  0  0  0  0
   34.2170   28.5070   32.5010 H   0  0  0  0  0  0  0  0  0  0  0  0
   34.5480   30.3470   32.5300 H   0  0  0  0  0  0  0  0  0  0  0  0
   36.8320   29.8640   33.3950 H   0  0  0  0  0  0  0  0  0  0  0  0
   33.9560   32.2470   36.2340 C   0  0  0  0  0  0  0  0  0  0  0  0
   35.3420   32.3640   36.3420 C   0  0  0  0  0  0  0  0  0  0  0  0
   35.9180   31.2480   35.6950 C   0  0  0  0  0  0  0  0  0  0  0  0
   34.8940   30.5180   35.2330 N   0  0  0  0  0  0  0  0  0  0  0  0
   33.7810   31.1320   35.5650 N   0  0  0  0  0  0  0  0  0  0  0  0
   35.9840   33.1160   36.8080 H   0  0  0  0  0  0  0  0  0  0  0  0
   36.9510   31.0070   35.5810 H   0  0  0  0  0  0  0  0  0  0  0  0
   31.6420   33.1060   36.6520 C   0  0  0  0  0  0  0  0  0  0  0  0
   33.0490   33.2120   36.7820 C   0  0  0  0  0  0  0  0  0  0  0  0
   33.5260   34.3030   37.4700 C   0  0  0  0  0  0  0  0  0  0  0  0
   32.6460   35.2070   37.9810 N   0  0  0  0  0  0  0  0  0  0  0  0
   31.3040   35.0630   37.8320 C   0  0  0  0  0  0  0  0  0  0  0  0
   30.8000   34.0030   37.1620 N   0  0  0  0  0  0  0  0  0  0  0  0
   31.2530   32.2500   36.1130 H   0  0  0  0  0  0  0  0  0  0  0  0
   34.5930   34.4360   37.6000 H   0  0  0  0  0  0  0  0  0  0  0  0
   30.7970   35.8890   38.3130 H   0  0  0  0  0  0  0  0  0  0  0  0
  1 28  1  0  0  0  0
  1  5  1  0  0  0  0
  2  3  1  0  0  0  0
  2  1  2  0  0  0  0
  3  4  1  0  0  0  0
  4  5  2  0  0  0  0
  4  8  1  0  0  0  0
  6  2  1  0  0  0  0
  7  3  1  0  0  0  0
  8 12  1  0  0  0  0
  8  9  2  0  0  0  0
  9 10  1  0  0  0  0
 11 10  1  0  0  0  0
 11 14  1  0  0  0  0
 12 11  2  0  0  0  0
 13  9  1  0  0  0  0
 14 15  1  0  0  0  0
 15 17  2  0  0  0  0
 15 16  1  0  0  0  0
 18 17  1  0  0  0  0
 19 18  1  0  0  0  0
 19 20  1  0  0  0  0
 21 19  2  0  0  0  0
 22 24  2  0  0  0  0
 22 21  1  0  0  0  0
 23 22  1  0  0  0  0
 24 25  1  0  0  0  0
 25 14  1  0  0  0  0
 25 18  2  0  0  0  0
 26 29  1  1  0  0  0
 26 36  1  0  0  0  0
 27 28  1  0  0  0  0
 27 26  1  0  0  0  0
 28 32  1  6  0  0  0
 28 26  1  0  0  0  0
 30 27  1  0  0  0  0
 31 27  1  0  0  0  0
 33 34  1  0  0  0  0
 33 41  1  0  0  0  0
 34 38  1  0  0  0  0
 35 34  2  0  0  0  0
 36 37  1  0  0  0  0
 36 35  1  0  0  0  0
 37 33  2  0  0  0  0
 39 35  1  0  0  0  0
 40 41  2  0  0  0  0
 40 45  1  0  0  0  0
 41 42  1  0  0  0  0
 42 47  1  0  0  0  0
 42 43  2  0  0  0  0
 44 43  1  0  0  0  0
 44 48  1  0  0  0  0
 45 44  2  0  0  0  0
 46 40  1  0  0  0  0
M  END
>  <minimizedAffinity>
-6.33888102

$$$$

 OpenBabel03272500523D

 48 54  0  0  1  0  0  0  0  0999 V2000
   37.2430   27.0770   33.6120 C   0  0  0  0  0  0  0  0  0  0  0  0
   36.9560   26.4850   32.3890 C   0  0  0  0  0  0  0  0  0  0  0  0
   36.0290   27.2600   31.7660 N   0  0  0  0  0  0  0  0  0  0  0  0
   35.7320   28.3170   32.5670 C   0  0  0  0  0  0  0  0  0  0  0  0
   36.4780   28.1940   33.6860 N   0  0  0  0  0  0  0  0  0  0  0  0
   37.3600   25.5790   31.9590 H   0  0  0  0  0  0  0  0  0  0  0  0
   35.5560   27.1580   30.8300 H   0  0  0  0  0  0  0  0  0  0  0  0
   34.7630   29.4110   32.2790 C   0  0  0  0  0  0  0  0  0  0  0  0
   33.4630   29.3820   32.7830 C   0  0  0  0  0  0  0  0  0  0  0  0
   32.7250   30.9130   32.1330 S   0  0  0  0  0  0  0  0  0  0  0  0
   34.3570   31.3670   31.2500 C   0  0  0  0  0  0  0  0  0  0  0  0
   35.0000   30.4700   31.5510 N   0  0  0  0  0  0  0  0  0  0  0  0
   32.9940   28.6310   33.4120 H   0  0  0  0  0  0  0  0  0  0  0  0
   34.6590   32.5310   30.4350 N   0  0  0  0  0  0  0  0  0  0  0  0
   33.6450   33.2940   30.0080 C   0  0  0  0  0  0  0  0  0  0  0  0
   32.5770   33.2060   30.1610 H   0  0  0  0  0  0  0  0  0  0  0  0
   34.2470   34.2650   29.2980 N   0  0  0  0  0  0  0  0  0  0  0  0
   35.5810   34.0960   29.2940 C   0  0  0  0  0  0  0  0  0  0  0  0
   36.6780   34.7560   28.7510 C   0  0  0  0  0  0  0  0  0  0  0  0
   36.4900   35.6450   28.1650 H   0  0  0  0  0  0  0  0  0  0  0  0
   37.9120   34.2680   28.9720 N   0  0  0  0  0  0  0  0  0  0  0  0
   38.1590   33.1610   29.6990 C   0  0  0  0  0  0  0  0  0  0  0  0
   39.1760   32.8110   29.8460 H   0  0  0  0  0  0  0  0  0  0  0  0
   37.1000   32.5200   30.2260 N   0  0  0  0  0  0  0  0  0  0  0  0
   35.8490   32.9640   30.0370 C   0  0  0  0  0  0  0  0  0  0  0  0
   37.6990   25.8940   35.8360 C   0  0  1  0  0  0  0  0  0  0  0  0
   38.4260   27.2920   35.9010 C   0  0  0  0  0  0  0  0  0  0  0  0
   38.2070   26.5370   34.6250 C   0  0  2  0  0  0  0  0  0  0  0  0
   36.6100   25.9480   36.0320 H   0  0  0  0  0  0  0  0  0  0  0  0
   37.7680   28.1570   36.0780 H   0  0  0  0  0  0  0  0  0  0  0  0
   39.4060   27.3090   36.3840 H   0  0  0  0  0  0  0  0  0  0  0  0
   39.1580   26.1650   34.1860 H   0  0  0  0  0  0  0  0  0  0  0  0
   39.8560   23.1310   36.6380 C   0  0  0  0  0  0  0  0  0  0  0  0
   39.0560   23.1680   37.7800 C   0  0  0  0  0  0  0  0  0  0  0  0
   38.1320   24.2240   37.6240 C   0  0  0  0  0  0  0  0  0  0  0  0
   38.3950   24.7730   36.4310 N   0  0  0  0  0  0  0  0  0  0  0  0
   39.3950   24.1110   35.8960 N   0  0  0  0  0  0  0  0  0  0  0  0
   39.0420   22.5600   38.6890 H   0  0  0  0  0  0  0  0  0  0  0  0
   37.3690   24.5450   38.2980 H   0  0  0  0  0  0  0  0  0  0  0  0
   41.4370   21.8490   35.1820 C   0  0  0  0  0  0  0  0  0  0  0  0
   40.9080   22.1770   36.4550 C   0  0  0  0  0  0  0  0  0  0  0  0
   41.4550   21.5280   37.5370 C   0  0  0  0  0  0  0  0  0  0  0  0
   42.4530   20.6240   37.3400 N   0  0  0  0  0  0  0  0  0  0  0  0
   42.9300   20.3420   36.0990 C   0  0  0  0  0  0  0  0  0  0  0  0
   42.4160   20.9610   35.0120 N   0  0  0  0  0  0  0  0  0  0  0  0
   41.0160   22.3540   34.3210 H   0  0  0  0  0  0  0  0  0  0  0  0
   41.0890   21.7380   38.5340 H   0  0  0  0  0  0  0  0  0  0  0  0
   43.7150   19.6020   36.1730 H   0  0  0  0  0  0  0  0  0  0  0  0
  1  5  1  0  0  0  0
  1 28  1  0  0  0  0
  2  1  2  0  0  0  0
  3  2  1  0  0  0  0
  3  4  1  0  0  0  0
  4  5  2  0  0  0  0
  6  2  1  0  0  0  0
  7  3  1  0  0  0  0
  8  4  1  0  0  0  0
  8  9  2  0  0  0  0
  9 13  1  0  0  0  0
 10  9  1  0  0  0  0
 11 12  2  0  0  0  0
 11 10  1  0  0  0  0
 12  8  1  0  0  0  0
 14 11  1  0  0  0  0
 15 16  1  0  0  0  0
 15 14  1  0  0  0  0
 17 15  2  0  0  0  0
 18 17  1  0  0  0  0
 18 25  1  0  0  0  0
 19 21  1  0  0  0  0
 19 18  2  0  0  0  0
 20 19  1  0  0  0  0
 21 22  2  0  0  0  0
 22 23  1  0  0  0  0
 22 24  1  0  0  0  0
 25 24  2  0  0  0  0
 25 14  1  0  0  0  0
 26 27  1  0  0  0  0
 26 29  1  1  0  0  0
 26 36  1  0  0  0  0
 27 30  1  0  0  0  0
 27 31  1  0  0  0  0
 28 32  1  6  0  0  0
 28 26  1  0  0  0  0
 28 27  1  0  0  0  0
 33 34  1  0  0  0  0
 34 38  1  0  0  0  0
 35 34  2  0  0  0  0
 35 39  1  0  0  0  0
 36 35  1  0  0  0  0
 37 36  1  0  0  0  0
 37 33  2  0  0  0  0
 40 41  1  0  0  0  0
 41 33  1  0  0  0  0
 41 42  2  0  0  0  0
 42 47  1  0  0  0  0
 43 42  1  0  0  0  0
 44 48  1  0  0  0  0
 44 43  2  0  0  0  0
 45 40  2  0  0  0  0
 45 44  1  0  0  0  0
 46 40  1  0  0  0  0
M  END
>  <minimizedAffinity>
-6.30803299

$$$$

 OpenBabel03272500523D

 48 54  0  0  1  0  0  0  0  0999 V2000
   37.1650   27.2170   33.8580 C   0  0  0  0  0  0  0  0  0  0  0  0
   36.8220   26.8280   32.5700 C   0  0  0  0  0  0  0  0  0  0  0  0
   35.8310   27.6540   32.1410 N   0  0  0  0  0  0  0  0  0  0  0  0
   35.5490   28.5460   33.1270 C   0  0  0  0  0  0  0  0  0  0  0  0
   36.3670   28.2700   34.1640 N   0  0  0  0  0  0  0  0  0  0  0  0
   37.2300   26.0270   31.9690 H   0  0  0  0  0  0  0  0  0  0  0  0
   35.3030   27.6890   31.2300 H   0  0  0  0  0  0  0  0  0  0  0  0
   34.5260   29.6280   33.0860 C   0  0  0  0  0  0  0  0  0  0  0  0
   33.2000   29.3630   32.7390 C   0  0  0  0  0  0  0  0  0  0  0  0
   32.4060   30.9970   32.8340 S   0  0  0  0  0  0  0  0  0  0  0  0
   34.0570   31.8100   33.3480 C   0  0  0  0  0  0  0  0  0  0  0  0
   34.7370   30.8910   33.3470 N   0  0  0  0  0  0  0  0  0  0  0  0
   32.7440   28.4140   32.4760 H   0  0  0  0  0  0  0  0  0  0  0  0
   34.3320   33.2040   33.6470 N   0  0  0  0  0  0  0  0  0  0  0  0
   33.4220   34.1240   33.3020 C   0  0  0  0  0  0  0  0  0  0  0  0
   32.4610   34.0250   32.8130 H   0  0  0  0  0  0  0  0  0  0  0  0
   33.9660   35.2860   33.7080 N   0  0  0  0  0  0  0  0  0  0  0  0
   35.1650   35.0770   34.2780 C   0  0  0  0  0  0  0  0  0  0  0  0
   36.1530   35.8630   34.8610 C   0  0  0  0  0  0  0  0  0  0  0  0
   35.9870   36.9310   34.9030 H   0  0  0  0  0  0  0  0  0  0  0  0
   37.2620   35.2730   35.3420 N   0  0  0  0  0  0  0  0  0  0  0  0
   37.4810   33.9440   35.2960 C   0  0  0  0  0  0  0  0  0  0  0  0
   38.3950   33.5200   35.7000 H   0  0  0  0  0  0  0  0  0  0  0  0
   36.5270   33.1810   34.7330 N   0  0  0  0  0  0  0  0  0  0  0  0
   35.4030   33.7180   34.2380 C   0  0  0  0  0  0  0  0  0  0  0  0
   37.8380   25.9990   36.0060 C   0  0  1  0  0  0  0  0  0  0  0  0
   38.7440   27.2860   35.9040 C   0  0  0  0  0  0  0  0  0  0  0  0
   38.2100   26.5590   34.7070 C   0  0  2  0  0  0  0  0  0  0  0  0
   36.8170   26.2020   36.3830 H   0  0  0  0  0  0  0  0  0  0  0  0
   38.2470   28.2340   36.1640 H   0  0  0  0  0  0  0  0  0  0  0  0
   39.7870   27.1730   36.2110 H   0  0  0  0  0  0  0  0  0  0  0  0
   39.0130   26.0580   34.1240 H   0  0  0  0  0  0  0  0  0  0  0  0
   39.8890   23.1090   36.6140 C   0  0  0  0  0  0  0  0  0  0  0  0
   39.0100   23.0270   37.6940 C   0  0  0  0  0  0  0  0  0  0  0  0
   38.1160   24.1160   37.6040 C   0  0  0  0  0  0  0  0  0  0  0  0
   38.4720   24.7980   36.5070 N   0  0  0  0  0  0  0  0  0  0  0  0
   39.4980   24.1810   35.9670 N   0  0  0  0  0  0  0  0  0  0  0  0
   38.9210   22.3150   38.5200 H   0  0  0  0  0  0  0  0  0  0  0  0
   37.3120   24.3730   38.2570 H   0  0  0  0  0  0  0  0  0  0  0  0
   41.5670   21.4460   37.4410 C   0  0  0  0  0  0  0  0  0  0  0  0
   40.9360   22.1580   36.3900 C   0  0  0  0  0  0  0  0  0  0  0  0
   41.3780   21.8960   35.1140 C   0  0  0  0  0  0  0  0  0  0  0  0
   42.3750   20.9890   34.9250 N   0  0  0  0  0  0  0  0  0  0  0  0
   42.9510   20.3300   35.9640 C   0  0  0  0  0  0  0  0  0  0  0  0
   42.5420   20.5620   37.2310 N   0  0  0  0  0  0  0  0  0  0  0  0
   41.2290   21.6430   38.4510 H   0  0  0  0  0  0  0  0  0  0  0  0
   40.9320   22.4110   34.2720 H   0  0  0  0  0  0  0  0  0  0  0  0
   43.7140   19.6630   35.5890 H   0  0  0  0  0  0  0  0  0  0  0  0
  1  5  1  0  0  0  0
  1 28  1  0  0  0  0
  2  1  2  0  0  0  0
  3  2  1  0  0  0  0
  3  4  1  0  0  0  0
  4  5  2  0  0  0  0
  6  2  1  0  0  0  0
  7  3  1  0  0  0  0
  8  4  1  0  0  0  0
  8 12  1  0  0  0  0
  9 10  1  0  0  0  0
  9  8  2  0  0  0  0
 10 11  1  0  0  0  0
 11 14  1  0  0  0  0
 12 11  2  0  0  0  0
 13  9  1  0  0  0  0
 14 25  1  0  0  0  0
 15 14  1  0  0  0  0
 15 17  2  0  0  0  0
 16 15  1  0  0  0  0
 17 18  1  0  0  0  0
 18 19  1  0  0  0  0
 19 20  1  0  0  0  0
 19 21  2  0  0  0  0
 22 21  1  0  0  0  0
 22 23  1  0  0  0  0
 24 22  2  0  0  0  0
 25 18  2  0  0  0  0
 25 24  1  0  0  0  0
 26 29  1  1  0  0  0
 26 36  1  0  0  0  0
 27 26  1  0  0  0  0
 27 30  1  0  0  0  0
 27 31  1  0  0  0  0
 28 32  1  6  0  0  0
 28 27  1  0  0  0  0
 28 26  1  0  0  0  0
 33 34  1  0  0  0  0
 34 38  1  0  0  0  0
 35 34  2  0  0  0  0
 35 39  1  0  0  0  0
 36 35  1  0  0  0  0
 37 36  1  0  0  0  0
 37 33  2  0  0  0  0
 40 46  1  0  0  0  0
 41 33  1  0  0  0  0
 41 40  2  0  0  0  0
 42 41  1  0  0  0  0
 43 42  2  0  0  0  0
 43 44  1  0  0  0  0
 44 45  2  0  0  0  0
 45 40  1  0  0  0  0
 47 42  1  0  0  0  0
 48 44  1  0  0  0  0
M  END
>  <minimizedAffinity>
-6.25427103

$$$$
