
 OpenBabel03272501483D

 23 25  0  0  0  0  0  0  0  0999 V2000
   37.3390   30.1570   51.3670 C   0  0  0  0  0  0  0  0  0  0  0  0
   37.9880   30.9290   50.3980 C   0  0  0  0  0  0  0  0  0  0  0  0
   37.5580   30.7860   49.0570 C   0  0  0  0  0  0  0  0  0  0  0  0
   36.5410   29.9060   48.8010 N   0  0  0  0  0  0  0  0  0  0  0  0
   35.9570   29.1920   49.7710 C   0  0  0  0  0  0  0  0  0  0  0  0
   36.3460   29.3060   51.0680 N   0  0  0  0  0  0  0  0  0  0  0  0
   34.9160   28.3190   49.3600 N   0  0  0  0  0  0  0  0  0  0  0  0
   37.6090   30.2090   52.4050 H   0  0  0  0  0  0  0  0  0  0  0  0
   38.7830   31.6030   50.6710 H   0  0  0  0  0  0  0  0  0  0  0  0
   34.8010   27.2860   49.4280 H   0  0  0  0  0  0  0  0  0  0  0  0
   34.1000   28.8190   48.8940 H   0  0  0  0  0  0  0  0  0  0  0  0
   38.1860   31.5490   48.0340 N   0  0  0  0  0  0  0  0  0  0  0  0
   38.9240   32.6390   48.3850 C   0  0  0  0  0  0  0  0  0  0  0  0
   39.1420   33.0680   49.3490 H   0  0  0  0  0  0  0  0  0  0  0  0
   39.4360   33.2310   47.2920 N   0  0  0  0  0  0  0  0  0  0  0  0
   39.0280   32.5200   46.2270 C   0  0  0  0  0  0  0  0  0  0  0  0
   39.1730   32.5530   44.8400 C   0  0  0  0  0  0  0  0  0  0  0  0
   39.7800   33.3650   44.4370 H   0  0  0  0  0  0  0  0  0  0  0  0
   38.5760   31.6130   44.0790 N   0  0  0  0  0  0  0  0  0  0  0  0
   37.8330   30.6230   44.5880 C   0  0  0  0  0  0  0  0  0  0  0  0
   37.4250   29.9560   43.8700 H   0  0  0  0  0  0  0  0  0  0  0  0
   37.6550   30.5370   45.9370 N   0  0  0  0  0  0  0  0  0  0  0  0
   38.2520   31.4780   46.6900 C   0  0  0  0  0  0  0  0  0  0  0  0
  1  8  1  0  0  0  0
  2  9  1  0  0  0  0
  2  1  2  0  0  0  0
  3  2  1  0  0  0  0
  4  3  2  0  0  0  0
  4  5  1  0  0  0  0
  5  6  2  0  0  0  0
  6  1  1  0  0  0  0
  7 10  1  0  0  0  0
  7  5  1  0  0  0  0
 11  7  1  0  0  0  0
 12 13  1  0  0  0  0
 12  3  1  0  0  0  0
 13 14  1  0  0  0  0
 15 13  2  0  0  0  0
 16 23  1  0  0  0  0
 16 15  1  0  0  0  0
 17 16  2  0  0  0  0
 18 17  1  0  0  0  0
 19 20  2  0  0  0  0
 19 17  1  0  0  0  0
 20 22  1  0  0  0  0
 21 20  1  0  0  0  0
 22 23  2  0  0  0  0
 23 12  1  0  0  0  0
M  END
>  <minimizedAffinity>
-5.48368025

>  <minimizedRMSD>
0.842207015

$$$$
