
 OpenBabel03272508383D

 47 51  0  0  1  0  0  0  0  0999 V2000
   38.2830   23.8510   36.5210 N   0  0  0  0  0  0  0  0  0  0  0  0
   38.8200   23.3450   37.7170 C   0  0  0  0  0  0  0  0  0  0  0  0
   40.0920   22.5890   37.6090 C   0  0  0  0  0  0  0  0  0  0  0  0
   40.1380   21.7490   36.4890 O   0  0  0  0  0  0  0  0  0  0  0  0
   39.8700   22.4490   35.3520 C   0  0  0  0  0  0  0  0  0  0  0  0
   38.5270   23.0720   35.3910 C   0  0  1  0  0  0  0  0  0  0  0  0
   38.7590   23.8950   38.6360 H   0  0  0  0  0  0  0  0  0  0  0  0
   38.0220   22.5530   37.9300 H   0  0  0  0  0  0  0  0  0  0  0  0
   41.0110   23.0090   37.9600 H   0  0  0  0  0  0  0  0  0  0  0  0
   39.9890   21.7650   38.4180 H   0  0  0  0  0  0  0  0  0  0  0  0
   39.7390   21.6270   34.5950 H   0  0  0  0  0  0  0  0  0  0  0  0
   40.6760   23.0220   34.9070 H   0  0  0  0  0  0  0  0  0  0  0  0
   38.5060   23.7780   34.5070 H   0  0  0  0  0  0  0  0  0  0  0  0
   37.4440   22.1320   35.1150 N   0  0  0  0  0  0  0  0  0  0  0  0
   36.6170   21.5710   36.0240 C   0  0  0  0  0  0  0  0  0  0  0  0
   36.6020   21.7090   37.0920 H   0  0  0  0  0  0  0  0  0  0  0  0
   35.7260   20.7460   35.4330 N   0  0  0  0  0  0  0  0  0  0  0  0
   35.9680   20.7630   34.1210 C   0  0  0  0  0  0  0  0  0  0  0  0
   35.4200   20.1500   33.0100 C   0  0  0  0  0  0  0  0  0  0  0  0
   34.5920   19.4790   33.1430 H   0  0  0  0  0  0  0  0  0  0  0  0
   35.9220   20.3920   31.7640 N   0  0  0  0  0  0  0  0  0  0  0  0
   36.9490   21.2240   31.6010 C   0  0  0  0  0  0  0  0  0  0  0  0
   37.3140   21.3840   30.5880 H   0  0  0  0  0  0  0  0  0  0  0  0
   37.5100   21.8420   32.6770 N   0  0  0  0  0  0  0  0  0  0  0  0
   37.0200   21.6120   33.9260 C   0  0  0  0  0  0  0  0  0  0  0  0
   38.1630   25.2390   36.3990 C   0  0  0  0  0  0  0  0  0  0  0  0
   38.3440   25.6770   37.4160 H   0  0  0  0  0  0  0  0  0  0  0  0
   37.0640   25.4550   36.2360 H   0  0  0  0  0  0  0  0  0  0  0  0
   38.9060   25.9030   35.3490 C   0  0  0  0  0  0  0  0  0  0  0  0
   39.5660   25.3970   34.6570 H   0  0  0  0  0  0  0  0  0  0  0  0
   39.6090   26.6300   35.8670 H   0  0  0  0  0  0  0  0  0  0  0  0
   36.5310   28.1380   33.8450 C   0  0  0  0  0  0  0  0  0  0  0  0
   37.0970   27.5680   32.7220 C   0  0  0  0  0  0  0  0  0  0  0  0
   38.0600   26.6560   33.1700 C   0  0  0  0  0  0  0  0  0  0  0  0
   38.0370   26.7090   34.5020 N   0  0  0  0  0  0  0  0  0  0  0  0
   37.1240   27.5940   34.9080 N   0  0  0  0  0  0  0  0  0  0  0  0
   36.8240   27.8050   31.6760 H   0  0  0  0  0  0  0  0  0  0  0  0
   38.5660   26.1500   32.4320 H   0  0  0  0  0  0  0  0  0  0  0  0
   34.3090   31.1040   34.4660 C   0  0  0  0  0  0  0  0  0  0  0  0
   35.3680   30.2100   34.6450 C   0  0  0  0  0  0  0  0  0  0  0  0
   35.4930   29.1330   33.7830 C   0  0  0  0  0  0  0  0  0  0  0  0
   34.5420   29.0450   32.8170 N   0  0  0  0  0  0  0  0  0  0  0  0
   33.5270   29.9200   32.6620 C   0  0  0  0  0  0  0  0  0  0  0  0
   33.4210   30.9440   33.4920 N   0  0  0  0  0  0  0  0  0  0  0  0
   34.2660   31.9350   35.1800 H   0  0  0  0  0  0  0  0  0  0  0  0
   36.1010   30.3090   35.4180 H   0  0  0  0  0  0  0  0  0  0  0  0
   32.8100   29.7780   31.8650 H   0  0  0  0  0  0  0  0  0  0  0  0
  1  2  1  0  0  0  0
  2  8  1  0  0  0  0
  2  7  1  0  0  0  0
  3  2  1  0  0  0  0
  3  9  1  0  0  0  0
  3 10  1  0  0  0  0
  4  3  1  0  0  0  0
  5  6  1  0  0  0  0
  5  4  1  0  0  0  0
  6 13  1  6  0  0  0
  6  1  1  0  0  0  0
 11  5  1  0  0  0  0
 12  5  1  0  0  0  0
 14  6  1  0  0  0  0
 14 15  1  0  0  0  0
 15 16  1  0  0  0  0
 17 15  2  0  0  0  0
 18 17  1  0  0  0  0
 19 20  1  0  0  0  0
 19 18  2  0  0  0  0
 21 19  1  0  0  0  0
 22 21  2  0  0  0  0
 22 24  1  0  0  0  0
 23 22  1  0  0  0  0
 24 25  2  0  0  0  0
 25 18  1  0  0  0  0
 25 14  1  0  0  0  0
 26  1  1  0  0  0  0
 26 27  1  0  0  0  0
 28 26  1  0  0  0  0
 29 31  1  0  0  0  0
 29 26  1  0  0  0  0
 30 29  1  0  0  0  0
 32 36  2  0  0  0  0
 33 34  2  0  0  0  0
 33 32  1  0  0  0  0
 34 35  1  0  0  0  0
 35 36  1  0  0  0  0
 35 29  1  0  0  0  0
 37 33  1  0  0  0  0
 38 34  1  0  0  0  0
 39 40  1  0  0  0  0
 39 45  1  0  0  0  0
 40 46  1  0  0  0  0
 41 32  1  0  0  0  0
 41 40  2  0  0  0  0
 42 41  1  0  0  0  0
 43 42  2  0  0  0  0
 43 44  1  0  0  0  0
 44 39  2  0  0  0  0
 47 43  1  0  0  0  0
M  END
>  <minimizedAffinity>
-5.9277463

$$$$

 OpenBabel03272508383D

 47 51  0  0  1  0  0  0  0  0999 V2000
   38.1090   25.2390   33.2070 N   0  0  0  0  0  0  0  0  0  0  0  0
   38.9410   25.3750   32.0840 C   0  0  0  0  0  0  0  0  0  0  0  0
   38.7690   24.3740   31.0010 C   0  0  0  0  0  0  0  0  0  0  0  0
   38.5630   23.0750   31.4840 O   0  0  0  0  0  0  0  0  0  0  0  0
   37.5250   23.0480   32.3650 C   0  0  0  0  0  0  0  0  0  0  0  0
   37.7700   23.9260   33.5320 C   0  0  1  0  0  0  0  0  0  0  0  0
   39.2080   26.3390   31.6960 H   0  0  0  0  0  0  0  0  0  0  0  0
   39.9340   25.1020   32.5830 H   0  0  0  0  0  0  0  0  0  0  0  0
   38.3110   24.6430   30.0730 H   0  0  0  0  0  0  0  0  0  0  0  0
   39.8450   24.2220   30.5970 H   0  0  0  0  0  0  0  0  0  0  0  0
   37.6190   22.0170   32.8080 H   0  0  0  0  0  0  0  0  0  0  0  0
   36.5190   23.0160   31.9630 H   0  0  0  0  0  0  0  0  0  0  0  0
   36.7760   23.9780   34.0720 H   0  0  0  0  0  0  0  0  0  0  0  0
   38.6750   23.3410   34.5190 N   0  0  0  0  0  0  0  0  0  0  0  0
   39.7390   22.5510   34.2610 C   0  0  0  0  0  0  0  0  0  0  0  0
   40.1090   22.2150   33.3080 H   0  0  0  0  0  0  0  0  0  0  0  0
   40.3620   22.1810   35.4010 N   0  0  0  0  0  0  0  0  0  0  0  0
   39.7010   22.7330   36.4200 C   0  0  0  0  0  0  0  0  0  0  0  0
   39.8330   22.7340   37.7960 C   0  0  0  0  0  0  0  0  0  0  0  0
   40.6400   22.1810   38.2400 H   0  0  0  0  0  0  0  0  0  0  0  0
   38.9550   23.4260   38.5790 N   0  0  0  0  0  0  0  0  0  0  0  0
   37.9560   24.1120   38.0270 C   0  0  0  0  0  0  0  0  0  0  0  0
   37.2820   24.6470   38.6920 H   0  0  0  0  0  0  0  0  0  0  0  0
   37.7990   24.1280   36.6740 N   0  0  0  0  0  0  0  0  0  0  0  0
   38.6670   23.4440   35.8800 C   0  0  0  0  0  0  0  0  0  0  0  0
   37.2180   26.2790   33.4850 C   0  0  0  0  0  0  0  0  0  0  0  0
   37.6580   26.8760   34.3270 H   0  0  0  0  0  0  0  0  0  0  0  0
   36.3110   25.8070   33.9720 H   0  0  0  0  0  0  0  0  0  0  0  0
   36.7530   27.0980   32.3850 C   0  0  0  0  0  0  0  0  0  0  0  0
   36.0240   26.7760   31.6530 H   0  0  0  0  0  0  0  0  0  0  0  0
   37.6640   27.3140   31.7420 H   0  0  0  0  0  0  0  0  0  0  0  0
   35.4440   29.9650   34.1070 C   0  0  0  0  0  0  0  0  0  0  0  0
   35.7070   30.5070   32.8640 C   0  0  0  0  0  0  0  0  0  0  0  0
   36.2310   29.4770   32.0730 C   0  0  0  0  0  0  0  0  0  0  0  0
   36.2630   28.3910   32.8450 N   0  0  0  0  0  0  0  0  0  0  0  0
   35.7930   28.6790   34.0610 N   0  0  0  0  0  0  0  0  0  0  0  0
   35.5280   31.5600   32.5730 H   0  0  0  0  0  0  0  0  0  0  0  0
   36.4740   29.7410   31.1100 H   0  0  0  0  0  0  0  0  0  0  0  0
   34.9360   32.3050   37.0020 C   0  0  0  0  0  0  0  0  0  0  0  0
   35.5990   31.6290   35.9760 C   0  0  0  0  0  0  0  0  0  0  0  0
   34.8930   30.7280   35.1960 C   0  0  0  0  0  0  0  0  0  0  0  0
   33.5820   30.5810   35.5170 N   0  0  0  0  0  0  0  0  0  0  0  0
   32.9600   31.2450   36.5130 C   0  0  0  0  0  0  0  0  0  0  0  0
   33.6470   32.1030   37.2480 N   0  0  0  0  0  0  0  0  0  0  0  0
   35.5500   33.0050   37.5820 H   0  0  0  0  0  0  0  0  0  0  0  0
   36.6360   31.7680   35.7500 H   0  0  0  0  0  0  0  0  0  0  0  0
   31.9100   31.0700   36.7040 H   0  0  0  0  0  0  0  0  0  0  0  0
  1 26  1  0  0  0  0
  1  6  1  0  0  0  0
  2  8  1  0  0  0  0
  2  1  1  0  0  0  0
  3  4  1  0  0  0  0
  3  2  1  0  0  0  0
  4  5  1  0  0  0  0
  5 11  1  0  0  0  0
  5  6  1  0  0  0  0
  6 13  1  1  0  0  0
  6 14  1  0  0  0  0
  7  2  1  0  0  0  0
  9  3  1  0  0  0  0
 10  3  1  0  0  0  0
 12  5  1  0  0  0  0
 14 25  1  0  0  0  0
 15 14  1  0  0  0  0
 15 17  2  0  0  0  0
 16 15  1  0  0  0  0
 17 18  1  0  0  0  0
 18 19  1  0  0  0  0
 19 20  1  0  0  0  0
 19 21  2  0  0  0  0
 22 21  1  0  0  0  0
 22 23  1  0  0  0  0
 24 22  2  0  0  0  0
 25 18  2  0  0  0  0
 25 24  1  0  0  0  0
 26 28  1  0  0  0  0
 26 27  1  0  0  0  0
 29 35  1  0  0  0  0
 29 26  1  0  0  0  0
 30 29  1  0  0  0  0
 31 29  1  0  0  0  0
 32 41  1  0  0  0  0
 33 32  1  0  0  0  0
 34 35  1  0  0  0  0
 34 33  2  0  0  0  0
 35 36  1  0  0  0  0
 36 32  2  0  0  0  0
 37 33  1  0  0  0  0
 38 34  1  0  0  0  0
 39 44  1  0  0  0  0
 39 45  1  0  0  0  0
 40 39  2  0  0  0  0
 41 42  2  0  0  0  0
 41 40  1  0  0  0  0
 42 43  1  0  0  0  0
 43 47  1  0  0  0  0
 43 44  2  0  0  0  0
 46 40  1  0  0  0  0
M  END
>  <minimizedAffinity>
-5.92666721

$$$$

 OpenBabel03272508383D

 47 51  0  0  1  0  0  0  0  0999 V2000
   40.0450   26.0410   32.6230 N   0  0  0  0  0  0  0  0  0  0  0  0
   40.7390   27.2460   32.8290 C   0  0  0  0  0  0  0  0  0  0  0  0
   42.0750   27.1450   33.4660 C   0  0  0  0  0  0  0  0  0  0  0  0
   42.1180   26.2040   34.5040 O   0  0  0  0  0  0  0  0  0  0  0  0
   41.6740   24.9920   34.0720 C   0  0  0  0  0  0  0  0  0  0  0  0
   40.2770   25.0590   33.5850 C   0  0  1  0  0  0  0  0  0  0  0  0
   40.6970   28.0460   32.1160 H   0  0  0  0  0  0  0  0  0  0  0  0
   40.0590   27.6890   33.6360 H   0  0  0  0  0  0  0  0  0  0  0  0
   42.9670   27.3090   32.9000 H   0  0  0  0  0  0  0  0  0  0  0  0
   42.1380   28.1010   34.1200 H   0  0  0  0  0  0  0  0  0  0  0  0
   41.5720   24.4220   35.0370 H   0  0  0  0  0  0  0  0  0  0  0  0
   42.3660   24.3630   33.5250 H   0  0  0  0  0  0  0  0  0  0  0  0
   40.0970   24.0650   33.0740 H   0  0  0  0  0  0  0  0  0  0  0  0
   39.2880   25.0830   34.6600 N   0  0  0  0  0  0  0  0  0  0  0  0
   38.1830   25.8580   34.7160 C   0  0  0  0  0  0  0  0  0  0  0  0
   37.8340   26.5800   33.9980 H   0  0  0  0  0  0  0  0  0  0  0  0
   37.4840   25.6320   35.8490 N   0  0  0  0  0  0  0  0  0  0  0  0
   38.1350   24.7010   36.5470 C   0  0  0  0  0  0  0  0  0  0  0  0
   37.9390   24.0580   37.7560 C   0  0  0  0  0  0  0  0  0  0  0  0
   37.0750   24.3090   38.3430 H   0  0  0  0  0  0  0  0  0  0  0  0
   38.8270   23.1210   38.1970 N   0  0  0  0  0  0  0  0  0  0  0  0
   39.8970   22.8100   37.4670 C   0  0  0  0  0  0  0  0  0  0  0  0
   40.5760   22.0570   37.8610 H   0  0  0  0  0  0  0  0  0  0  0  0
   40.1170   23.4270   36.2730 N   0  0  0  0  0  0  0  0  0  0  0  0
   39.2400   24.3640   35.8190 C   0  0  0  0  0  0  0  0  0  0  0  0
   39.7570   25.6750   31.3060 C   0  0  0  0  0  0  0  0  0  0  0  0
   39.9340   24.5700   31.2230 H   0  0  0  0  0  0  0  0  0  0  0  0
   40.5870   26.1000   30.6630 H   0  0  0  0  0  0  0  0  0  0  0  0
   38.4950   26.0970   30.7350 C   0  0  0  0  0  0  0  0  0  0  0  0
   38.3630   26.3930   29.7030 H   0  0  0  0  0  0  0  0  0  0  0  0
   38.1890   27.0350   31.2990 H   0  0  0  0  0  0  0  0  0  0  0  0
   36.3990   23.2280   31.2590 C   0  0  0  0  0  0  0  0  0  0  0  0
   35.4740   24.2480   31.3700 C   0  0  0  0  0  0  0  0  0  0  0  0
   36.1690   25.4490   31.1820 C   0  0  0  0  0  0  0  0  0  0  0  0
   37.4420   25.1170   30.9720 N   0  0  0  0  0  0  0  0  0  0  0  0
   37.5830   23.7900   31.0170 N   0  0  0  0  0  0  0  0  0  0  0  0
   34.3940   24.1150   31.5710 H   0  0  0  0  0  0  0  0  0  0  0  0
   35.5980   26.3020   31.2360 H   0  0  0  0  0  0  0  0  0  0  0  0
   34.8240   19.9630   32.2490 C   0  0  0  0  0  0  0  0  0  0  0  0
   35.0520   21.3410   32.2140 C   0  0  0  0  0  0  0  0  0  0  0  0
   36.0540   21.8370   31.3970 C   0  0  0  0  0  0  0  0  0  0  0  0
   36.7420   20.9070   30.6860 N   0  0  0  0  0  0  0  0  0  0  0  0
   36.5050   19.5800   30.7340 C   0  0  0  0  0  0  0  0  0  0  0  0
   35.5440   19.1210   31.5180 N   0  0  0  0  0  0  0  0  0  0  0  0
   34.0170   19.6340   32.9150 H   0  0  0  0  0  0  0  0  0  0  0  0
   34.4910   22.0480   32.7890 H   0  0  0  0  0  0  0  0  0  0  0  0
   37.0990   18.9040   30.1340 H   0  0  0  0  0  0  0  0  0  0  0  0
  1  2  1  0  0  0  0
  1  6  1  0  0  0  0
  2  3  1  0  0  0  0
  2  8  1  0  0  0  0
  3 10  1  0  0  0  0
  3  4  1  0  0  0  0
  5  4  1  0  0  0  0
  5 11  1  0  0  0  0
  6 13  1  6  0  0  0
  6  5  1  0  0  0  0
  6 14  1  0  0  0  0
  7  2  1  0  0  0  0
  9  3  1  0  0  0  0
 12  5  1  0  0  0  0
 14 15  1  0  0  0  0
 14 25  1  0  0  0  0
 15 17  2  0  0  0  0
 16 15  1  0  0  0  0
 17 18  1  0  0  0  0
 18 19  1  0  0  0  0
 19 21  2  0  0  0  0
 19 20  1  0  0  0  0
 22 23  1  0  0  0  0
 22 21  1  0  0  0  0
 24 22  2  0  0  0  0
 25 24  1  0  0  0  0
 25 18  2  0  0  0  0
 26  1  1  0  0  0  0
 27 26  1  0  0  0  0
 28 26  1  0  0  0  0
 29 35  1  0  0  0  0
 29 31  1  0  0  0  0
 29 26  1  0  0  0  0
 30 29  1  0  0  0  0
 32 33  1  0  0  0  0
 32 41  1  0  0  0  0
 33 37  1  0  0  0  0
 34 38  1  0  0  0  0
 34 33  2  0  0  0  0
 35 36  1  0  0  0  0
 35 34  1  0  0  0  0
 36 32  2  0  0  0  0
 39 45  1  0  0  0  0
 40 39  1  0  0  0  0
 40 46  1  0  0  0  0
 41 40  2  0  0  0  0
 42 43  2  0  0  0  0
 42 41  1  0  0  0  0
 43 44  1  0  0  0  0
 44 39  2  0  0  0  0
 47 43  1  0  0  0  0
M  END
>  <minimizedAffinity>
-5.84182405

$$$$

 OpenBabel03272508383D

 47 51  0  0  1  0  0  0  0  0999 V2000
   38.6460   25.8740   34.7620 N   0  0  0  0  0  0  0  0  0  0  0  0
   39.4610   26.9950   34.9930 C   0  0  0  0  0  0  0  0  0  0  0  0
   40.7330   27.0630   34.2300 C   0  0  0  0  0  0  0  0  0  0  0  0
   41.3760   25.8220   34.1260 O   0  0  0  0  0  0  0  0  0  0  0  0
   40.5310   24.8840   33.6150 C   0  0  0  0  0  0  0  0  0  0  0  0
   39.3340   24.6980   34.4660 C   0  0  1  0  0  0  0  0  0  0  0  0
   39.0430   27.9690   35.1570 H   0  0  0  0  0  0  0  0  0  0  0  0
   39.7730   26.7510   36.0670 H   0  0  0  0  0  0  0  0  0  0  0  0
   40.8560   27.7610   33.4300 H   0  0  0  0  0  0  0  0  0  0  0  0
   41.4710   27.5590   34.9740 H   0  0  0  0  0  0  0  0  0  0  0  0
   41.1060   23.9320   33.7860 H   0  0  0  0  0  0  0  0  0  0  0  0
   40.3920   24.8590   32.5400 H   0  0  0  0  0  0  0  0  0  0  0  0
   38.6300   24.0650   33.8460 H   0  0  0  0  0  0  0  0  0  0  0  0
   39.5860   23.8830   35.6520 N   0  0  0  0  0  0  0  0  0  0  0  0
   38.8920   23.9150   36.8090 C   0  0  0  0  0  0  0  0  0  0  0  0
   38.0470   24.5300   37.0670 H   0  0  0  0  0  0  0  0  0  0  0  0
   39.3880   23.0310   37.7020 N   0  0  0  0  0  0  0  0  0  0  0  0
   40.4200   22.4120   37.1280 C   0  0  0  0  0  0  0  0  0  0  0  0
   41.3180   21.4320   37.5080 C   0  0  0  0  0  0  0  0  0  0  0  0
   41.2380   21.0090   38.4930 H   0  0  0  0  0  0  0  0  0  0  0  0
   42.2890   21.0070   36.6490 N   0  0  0  0  0  0  0  0  0  0  0  0
   42.3860   21.5310   35.4290 C   0  0  0  0  0  0  0  0  0  0  0  0
   43.1770   21.1600   34.7810 H   0  0  0  0  0  0  0  0  0  0  0  0
   41.5170   22.4990   35.0260 N   0  0  0  0  0  0  0  0  0  0  0  0
   40.5420   22.9330   35.8710 C   0  0  0  0  0  0  0  0  0  0  0  0
   37.3760   26.0950   34.2220 C   0  0  0  0  0  0  0  0  0  0  0  0
   36.7200   26.4580   35.0570 H   0  0  0  0  0  0  0  0  0  0  0  0
   36.9380   25.0750   33.9980 H   0  0  0  0  0  0  0  0  0  0  0  0
   37.2700   26.8950   33.0210 C   0  0  0  0  0  0  0  0  0  0  0  0
   36.8590   26.5380   32.0860 H   0  0  0  0  0  0  0  0  0  0  0  0
   38.3320   27.1740   32.7290 H   0  0  0  0  0  0  0  0  0  0  0  0
   35.5750   29.7990   34.2820 C   0  0  0  0  0  0  0  0  0  0  0  0
   35.6030   30.0830   32.9310 C   0  0  0  0  0  0  0  0  0  0  0  0
   36.2480   29.0100   32.3030 C   0  0  0  0  0  0  0  0  0  0  0  0
   36.5730   28.1510   33.2690 N   0  0  0  0  0  0  0  0  0  0  0  0
   36.1720   28.6200   34.4530 N   0  0  0  0  0  0  0  0  0  0  0  0
   35.1870   30.9930   32.4580 H   0  0  0  0  0  0  0  0  0  0  0  0
   36.3390   29.0860   31.2820 H   0  0  0  0  0  0  0  0  0  0  0  0
   34.9810   32.3980   36.9300 C   0  0  0  0  0  0  0  0  0  0  0  0
   35.6820   31.6040   36.0200 C   0  0  0  0  0  0  0  0  0  0  0  0
   34.9860   30.6800   35.2570 C   0  0  0  0  0  0  0  0  0  0  0  0
   33.6470   30.6320   35.4760 N   0  0  0  0  0  0  0  0  0  0  0  0
   32.9890   31.4100   36.3610 C   0  0  0  0  0  0  0  0  0  0  0  0
   33.6660   32.2880   37.0810 N   0  0  0  0  0  0  0  0  0  0  0  0
   35.5880   33.1090   37.5030 H   0  0  0  0  0  0  0  0  0  0  0  0
   36.7400   31.6660   35.8730 H   0  0  0  0  0  0  0  0  0  0  0  0
   31.9190   31.3090   36.4750 H   0  0  0  0  0  0  0  0  0  0  0  0
  1  2  1  0  0  0  0
  2  7  1  0  0  0  0
  2  8  1  0  0  0  0
  3 10  1  0  0  0  0
  3  2  1  0  0  0  0
  4  3  1  0  0  0  0
  5 11  1  0  0  0  0
  5  4  1  0  0  0  0
  5  6  1  0  0  0  0
  6 13  1  6  0  0  0
  6  1  1  0  0  0  0
  6 14  1  0  0  0  0
  9  3  1  0  0  0  0
 12  5  1  0  0  0  0
 14 25  1  0  0  0  0
 14 15  1  0  0  0  0
 15 16  1  0  0  0  0
 15 17  2  0  0  0  0
 18 19  1  0  0  0  0
 18 17  1  0  0  0  0
 19 20  1  0  0  0  0
 21 19  2  0  0  0  0
 22 21  1  0  0  0  0
 23 22  1  0  0  0  0
 24 22  2  0  0  0  0
 24 25  1  0  0  0  0
 25 18  2  0  0  0  0
 26  1  1  0  0  0  0
 26 27  1  0  0  0  0
 28 26  1  0  0  0  0
 29 35  1  0  0  0  0
 29 26  1  0  0  0  0
 30 29  1  0  0  0  0
 31 29  1  0  0  0  0
 32 36  2  0  0  0  0
 32 41  1  0  0  0  0
 33 32  1  0  0  0  0
 34 33  2  0  0  0  0
 34 35  1  0  0  0  0
 35 36  1  0  0  0  0
 37 33  1  0  0  0  0
 38 34  1  0  0  0  0
 39 44  1  0  0  0  0
 39 45  1  0  0  0  0
 40 39  2  0  0  0  0
 41 42  2  0  0  0  0
 41 40  1  0  0  0  0
 42 43  1  0  0  0  0
 43 47  1  0  0  0  0
 43 44  2  0  0  0  0
 46 40  1  0  0  0  0
M  END
>  <minimizedAffinity>
-5.80632067

$$$$

 OpenBabel03272508383D

 47 51  0  0  1  0  0  0  0  0999 V2000
   38.2970   25.7780   33.6160 N   0  0  0  0  0  0  0  0  0  0  0  0
   37.1440   26.4920   33.9860 C   0  0  0  0  0  0  0  0  0  0  0  0
   37.3460   27.6850   34.8460 C   0  0  0  0  0  0  0  0  0  0  0  0
   38.3140   27.4860   35.8390 O   0  0  0  0  0  0  0  0  0  0  0  0
   39.4840   27.0570   35.2920 C   0  0  0  0  0  0  0  0  0  0  0  0
   39.3160   25.7760   34.5670 C   0  0  1  0  0  0  0  0  0  0  0  0
   36.3250   26.6260   33.3060 H   0  0  0  0  0  0  0  0  0  0  0  0
   36.6800   25.7060   34.6740 H   0  0  0  0  0  0  0  0  0  0  0  0
   37.2250   28.6710   34.4530 H   0  0  0  0  0  0  0  0  0  0  0  0
   36.4130   27.6850   35.5340 H   0  0  0  0  0  0  0  0  0  0  0  0
   40.0710   26.7500   36.2020 H   0  0  0  0  0  0  0  0  0  0  0  0
   40.1420   27.7980   34.8540 H   0  0  0  0  0  0  0  0  0  0  0  0
   40.2830   25.6340   33.9970 H   0  0  0  0  0  0  0  0  0  0  0  0
   39.2560   24.6140   35.4500 N   0  0  0  0  0  0  0  0  0  0  0  0
   38.1480   24.1000   36.0260 C   0  0  0  0  0  0  0  0  0  0  0  0
   37.1300   24.4410   35.9430 H   0  0  0  0  0  0  0  0  0  0  0  0
   38.4440   23.0230   36.7840 N   0  0  0  0  0  0  0  0  0  0  0  0
   39.7610   22.8250   36.7080 C   0  0  0  0  0  0  0  0  0  0  0  0
   40.6530   21.9130   37.2410 C   0  0  0  0  0  0  0  0  0  0  0  0
   40.2810   21.1390   37.8860 H   0  0  0  0  0  0  0  0  0  0  0  0
   41.9850   21.9930   36.9530 N   0  0  0  0  0  0  0  0  0  0  0  0
   42.4440   22.9530   36.1530 C   0  0  0  0  0  0  0  0  0  0  0  0
   43.5140   22.9760   35.9540 H   0  0  0  0  0  0  0  0  0  0  0  0
   41.5900   23.8660   35.6140 N   0  0  0  0  0  0  0  0  0  0  0  0
   40.2590   23.7990   35.8910 C   0  0  0  0  0  0  0  0  0  0  0  0
   38.6100   25.7100   32.2560 C   0  0  0  0  0  0  0  0  0  0  0  0
   39.3180   24.8510   32.1220 H   0  0  0  0  0  0  0  0  0  0  0  0
   39.2700   26.6020   32.0310 H   0  0  0  0  0  0  0  0  0  0  0  0
   37.5230   25.7120   31.3000 C   0  0  0  0  0  0  0  0  0  0  0  0
   37.6450   25.9020   30.2410 H   0  0  0  0  0  0  0  0  0  0  0  0
   36.8210   26.5460   31.6170 H   0  0  0  0  0  0  0  0  0  0  0  0
   36.2090   22.3820   31.5870 C   0  0  0  0  0  0  0  0  0  0  0  0
   35.0550   23.0930   31.3240 C   0  0  0  0  0  0  0  0  0  0  0  0
   35.4280   24.4360   31.1840 C   0  0  0  0  0  0  0  0  0  0  0  0
   36.7480   24.4790   31.3630 N   0  0  0  0  0  0  0  0  0  0  0  0
   37.2180   23.2530   31.6030 N   0  0  0  0  0  0  0  0  0  0  0  0
   34.0400   22.6610   31.2440 H   0  0  0  0  0  0  0  0  0  0  0  0
   34.6600   25.0880   30.9820 H   0  0  0  0  0  0  0  0  0  0  0  0
   35.3190   18.8320   32.4400 C   0  0  0  0  0  0  0  0  0  0  0  0
   35.1670   20.2130   32.2930 C   0  0  0  0  0  0  0  0  0  0  0  0
   36.2240   20.9570   31.7930 C   0  0  0  0  0  0  0  0  0  0  0  0
   37.3420   20.2500   31.4870 N   0  0  0  0  0  0  0  0  0  0  0  0
   37.4670   18.9150   31.6370 C   0  0  0  0  0  0  0  0  0  0  0  0
   36.4500   18.2180   32.1140 N   0  0  0  0  0  0  0  0  0  0  0  0
   34.4470   18.3010   32.8390 H   0  0  0  0  0  0  0  0  0  0  0  0
   34.2710   20.7390   32.5450 H   0  0  0  0  0  0  0  0  0  0  0  0
   38.3940   18.4280   31.3680 H   0  0  0  0  0  0  0  0  0  0  0  0
  1  2  1  0  0  0  0
  1  6  1  0  0  0  0
  2  8  1  0  0  0  0
  2  3  1  0  0  0  0
  3 10  1  0  0  0  0
  3  4  1  0  0  0  0
  5  4  1  0  0  0  0
  5 11  1  0  0  0  0
  6 13  1  6  0  0  0
  6  5  1  0  0  0  0
  6 14  1  0  0  0  0
  7  2  1  0  0  0  0
  9  3  1  0  0  0  0
 12  5  1  0  0  0  0
 14 25  1  0  0  0  0
 14 15  1  0  0  0  0
 15 17  2  0  0  0  0
 16 15  1  0  0  0  0
 18 17  1  0  0  0  0
 18 19  1  0  0  0  0
 19 20  1  0  0  0  0
 21 19  2  0  0  0  0
 22 21  1  0  0  0  0
 23 22  1  0  0  0  0
 24 25  1  0  0  0  0
 24 22  2  0  0  0  0
 25 18  2  0  0  0  0
 26  1  1  0  0  0  0
 27 26  1  0  0  0  0
 28 26  1  0  0  0  0
 29 35  1  0  0  0  0
 29 31  1  0  0  0  0
 29 26  1  0  0  0  0
 30 29  1  0  0  0  0
 32 36  2  0  0  0  0
 32 41  1  0  0  0  0
 33 32  1  0  0  0  0
 34 33  2  0  0  0  0
 34 35  1  0  0  0  0
 35 36  1  0  0  0  0
 37 33  1  0  0  0  0
 38 34  1  0  0  0  0
 39 45  1  0  0  0  0
 40 39  1  0  0  0  0
 40 46  1  0  0  0  0
 41 40  2  0  0  0  0
 42 43  2  0  0  0  0
 42 41  1  0  0  0  0
 43 44  1  0  0  0  0
 44 39  2  0  0  0  0
 47 43  1  0  0  0  0
M  END
>  <minimizedAffinity>
-5.74502468

$$$$

 OpenBabel03272508383D

 47 51  0  0  1  0  0  0  0  0999 V2000
   37.7530   23.4820   32.4280 N   0  0  0  0  0  0  0  0  0  0  0  0
   38.1450   22.7720   31.2810 C   0  0  0  0  0  0  0  0  0  0  0  0
   37.5430   21.4290   31.0900 C   0  0  0  0  0  0  0  0  0  0  0  0
   37.4390   20.7000   32.2830 O   0  0  0  0  0  0  0  0  0  0  0  0
   36.7760   21.4200   33.2300 C   0  0  0  0  0  0  0  0  0  0  0  0
   37.4690   22.6920   33.5400 C   0  0  1  0  0  0  0  0  0  0  0  0
   38.3180   23.2670   30.3450 H   0  0  0  0  0  0  0  0  0  0  0  0
   39.2310   22.5690   31.5790 H   0  0  0  0  0  0  0  0  0  0  0  0
   36.8060   21.2600   30.3340 H   0  0  0  0  0  0  0  0  0  0  0  0
   38.3960   20.8130   30.6040 H   0  0  0  0  0  0  0  0  0  0  0  0
   36.9560   20.8090   34.1580 H   0  0  0  0  0  0  0  0  0  0  0  0
   35.6930   21.4350   33.1910 H   0  0  0  0  0  0  0  0  0  0  0  0
   36.7330   23.2790   34.1690 H   0  0  0  0  0  0  0  0  0  0  0  0
   38.6240   22.5240   34.4180 N   0  0  0  0  0  0  0  0  0  0  0  0
   39.8530   22.1000   34.0540 C   0  0  0  0  0  0  0  0  0  0  0  0
   40.2020   21.8160   33.0760 H   0  0  0  0  0  0  0  0  0  0  0  0
   40.6910   22.0580   35.1130 N   0  0  0  0  0  0  0  0  0  0  0  0
   40.0060   22.4580   36.1860 C   0  0  0  0  0  0  0  0  0  0  0  0
   40.2890   22.6290   37.5280 C   0  0  0  0  0  0  0  0  0  0  0  0
   41.2790   22.4100   37.8820 H   0  0  0  0  0  0  0  0  0  0  0  0
   39.3270   23.0680   38.3910 N   0  0  0  0  0  0  0  0  0  0  0  0
   38.1000   23.3400   37.9510 C   0  0  0  0  0  0  0  0  0  0  0  0
   37.3680   23.6880   38.6770 H   0  0  0  0  0  0  0  0  0  0  0  0
   37.7910   23.1810   36.6340 N   0  0  0  0  0  0  0  0  0  0  0  0
   38.7400   22.7440   35.7610 C   0  0  0  0  0  0  0  0  0  0  0  0
   37.0820   24.6950   32.2430 C   0  0  0  0  0  0  0  0  0  0  0  0
   36.1100   24.6230   32.7970 H   0  0  0  0  0  0  0  0  0  0  0  0
   36.7430   24.7150   31.1630 H   0  0  0  0  0  0  0  0  0  0  0  0
   37.8010   25.9240   32.5030 C   0  0  0  0  0  0  0  0  0  0  0  0
   38.5980   26.3060   31.8800 H   0  0  0  0  0  0  0  0  0  0  0  0
   38.3210   25.7840   33.5040 H   0  0  0  0  0  0  0  0  0  0  0  0
   35.7710   28.6930   33.5580 C   0  0  0  0  0  0  0  0  0  0  0  0
   35.4440   28.6280   32.2180 C   0  0  0  0  0  0  0  0  0  0  0  0
   36.1770   27.5680   31.6710 C   0  0  0  0  0  0  0  0  0  0  0  0
   36.8940   27.0530   32.6700 N   0  0  0  0  0  0  0  0  0  0  0  0
   36.6530   27.7230   33.7990 N   0  0  0  0  0  0  0  0  0  0  0  0
   34.7330   29.2990   31.6990 H   0  0  0  0  0  0  0  0  0  0  0  0
   36.0290   27.4010   30.6680 H   0  0  0  0  0  0  0  0  0  0  0  0
   35.2600   31.5130   35.9890 C   0  0  0  0  0  0  0  0  0  0  0  0
   35.9360   30.6250   35.1480 C   0  0  0  0  0  0  0  0  0  0  0  0
   35.2110   29.6670   34.4570 C   0  0  0  0  0  0  0  0  0  0  0  0
   33.8700   29.6830   34.6720 N   0  0  0  0  0  0  0  0  0  0  0  0
   33.2370   30.5510   35.4890 C   0  0  0  0  0  0  0  0  0  0  0  0
   33.9420   31.4600   36.1410 N   0  0  0  0  0  0  0  0  0  0  0  0
   35.8900   32.2460   36.5070 H   0  0  0  0  0  0  0  0  0  0  0  0
   36.9950   30.6390   35.0020 H   0  0  0  0  0  0  0  0  0  0  0  0
   32.1630   30.4970   35.6040 H   0  0  0  0  0  0  0  0  0  0  0  0
  1  6  1  0  0  0  0
  2  8  1  0  0  0  0
  2  1  1  0  0  0  0
  3  2  1  0  0  0  0
  3  4  1  0  0  0  0
  4  5  1  0  0  0  0
  5  6  1  0  0  0  0
  5 11  1  0  0  0  0
  6 13  1  1  0  0  0
  6 14  1  0  0  0  0
  7  2  1  0  0  0  0
  9  3  1  0  0  0  0
 10  3  1  0  0  0  0
 12  5  1  0  0  0  0
 14 25  1  0  0  0  0
 15 14  1  0  0  0  0
 15 17  2  0  0  0  0
 16 15  1  0  0  0  0
 17 18  1  0  0  0  0
 18 19  1  0  0  0  0
 19 20  1  0  0  0  0
 19 21  2  0  0  0  0
 22 21  1  0  0  0  0
 22 23  1  0  0  0  0
 24 22  2  0  0  0  0
 25 18  2  0  0  0  0
 25 24  1  0  0  0  0
 26  1  1  0  0  0  0
 26 29  1  0  0  0  0
 26 27  1  0  0  0  0
 28 26  1  0  0  0  0
 29 35  1  0  0  0  0
 29 31  1  0  0  0  0
 30 29  1  0  0  0  0
 32 36  2  0  0  0  0
 32 41  1  0  0  0  0
 33 32  1  0  0  0  0
 34 33  2  0  0  0  0
 34 35  1  0  0  0  0
 35 36  1  0  0  0  0
 37 33  1  0  0  0  0
 38 34  1  0  0  0  0
 39 44  1  0  0  0  0
 39 45  1  0  0  0  0
 40 39  2  0  0  0  0
 41 42  2  0  0  0  0
 41 40  1  0  0  0  0
 42 43  1  0  0  0  0
 43 47  1  0  0  0  0
 43 44  2  0  0  0  0
 46 40  1  0  0  0  0
M  END
>  <minimizedAffinity>
-5.70230389

$$$$

 OpenBabel03272508383D

 47 51  0  0  1  0  0  0  0  0999 V2000
   38.1760   24.7470   36.4410 N   0  0  0  0  0  0  0  0  0  0  0  0
   37.8950   24.2190   37.7120 C   0  0  0  0  0  0  0  0  0  0  0  0
   38.9540   23.3880   38.3380 C   0  0  0  0  0  0  0  0  0  0  0  0
   39.5940   22.5380   37.4270 O   0  0  0  0  0  0  0  0  0  0  0  0
   40.0700   23.2440   36.3640 C   0  0  0  0  0  0  0  0  0  0  0  0
   38.9860   23.9450   35.6380 C   0  0  1  0  0  0  0  0  0  0  0  0
   37.3440   24.7780   38.4430 H   0  0  0  0  0  0  0  0  0  0  0  0
   37.0810   23.4770   37.4030 H   0  0  0  0  0  0  0  0  0  0  0  0
   39.5220   23.7560   39.1660 H   0  0  0  0  0  0  0  0  0  0  0  0
   38.3590   22.5780   38.9160 H   0  0  0  0  0  0  0  0  0  0  0  0
   40.3580   22.4250   35.6470 H   0  0  0  0  0  0  0  0  0  0  0  0
   41.0140   23.7650   36.4820 H   0  0  0  0  0  0  0  0  0  0  0  0
   39.5170   24.6440   34.9230 H   0  0  0  0  0  0  0  0  0  0  0  0
   38.2140   23.0680   34.7610 N   0  0  0  0  0  0  0  0  0  0  0  0
   37.4980   21.9870   35.1370 C   0  0  0  0  0  0  0  0  0  0  0  0
   37.3650   21.5820   36.1260 H   0  0  0  0  0  0  0  0  0  0  0  0
   36.9040   21.4000   34.0760 N   0  0  0  0  0  0  0  0  0  0  0  0
   37.2330   22.1000   32.9900 C   0  0  0  0  0  0  0  0  0  0  0  0
   36.9540   22.0130   31.6380 C   0  0  0  0  0  0  0  0  0  0  0  0
   36.3240   21.2160   31.2890 H   0  0  0  0  0  0  0  0  0  0  0  0
   37.4680   22.9240   30.7620 N   0  0  0  0  0  0  0  0  0  0  0  0
   38.2470   23.9120   31.1970 C   0  0  0  0  0  0  0  0  0  0  0  0
   38.6340   24.6130   30.4600 H   0  0  0  0  0  0  0  0  0  0  0  0
   38.5410   24.0230   32.5220 N   0  0  0  0  0  0  0  0  0  0  0  0
   38.0350   23.1230   33.4090 C   0  0  0  0  0  0  0  0  0  0  0  0
   38.2220   26.1370   36.3110 C   0  0  0  0  0  0  0  0  0  0  0  0
   38.3400   26.5630   37.3420 H   0  0  0  0  0  0  0  0  0  0  0  0
   37.1760   26.4710   36.0320 H   0  0  0  0  0  0  0  0  0  0  0  0
   39.1390   26.7080   35.3470 C   0  0  0  0  0  0  0  0  0  0  0  0
   40.0600   26.2360   35.0310 H   0  0  0  0  0  0  0  0  0  0  0  0
   39.5080   27.6840   35.7960 H   0  0  0  0  0  0  0  0  0  0  0  0
   38.1030   27.6070   32.0280 C   0  0  0  0  0  0  0  0  0  0  0  0
   36.8800   27.4990   32.6600 C   0  0  0  0  0  0  0  0  0  0  0  0
   37.1400   27.1470   33.9900 C   0  0  0  0  0  0  0  0  0  0  0  0
   38.4650   27.0600   34.1040 N   0  0  0  0  0  0  0  0  0  0  0  0
   39.0430   27.3340   32.9320 N   0  0  0  0  0  0  0  0  0  0  0  0
   35.8950   27.6640   32.1830 H   0  0  0  0  0  0  0  0  0  0  0  0
   36.3100   27.0330   34.5860 H   0  0  0  0  0  0  0  0  0  0  0  0
   37.7230   29.1430   28.6190 C   0  0  0  0  0  0  0  0  0  0  0  0
   37.4800   28.9040   29.9740 C   0  0  0  0  0  0  0  0  0  0  0  0
   38.2410   27.9550   30.6380 C   0  0  0  0  0  0  0  0  0  0  0  0
   39.1790   27.3270   29.8830 N   0  0  0  0  0  0  0  0  0  0  0  0
   39.3980   27.5740   28.5750 C   0  0  0  0  0  0  0  0  0  0  0  0
   38.6650   28.4830   27.9550 N   0  0  0  0  0  0  0  0  0  0  0  0
   37.0890   29.9050   28.1520 H   0  0  0  0  0  0  0  0  0  0  0  0
   36.7310   29.4170   30.5400 H   0  0  0  0  0  0  0  0  0  0  0  0
   40.1670   27.0290   28.0450 H   0  0  0  0  0  0  0  0  0  0  0  0
  1  2  1  0  0  0  0
  2  3  1  0  0  0  0
  2  7  1  0  0  0  0
  3 10  1  0  0  0  0
  3  9  1  0  0  0  0
  4  3  1  0  0  0  0
  5 12  1  0  0  0  0
  5  4  1  0  0  0  0
  6 13  1  6  0  0  0
  6  5  1  0  0  0  0
  6  1  1  0  0  0  0
  8  2  1  0  0  0  0
 11  5  1  0  0  0  0
 14 15  1  0  0  0  0
 14  6  1  0  0  0  0
 15 16  1  0  0  0  0
 17 15  2  0  0  0  0
 18 25  1  0  0  0  0
 18 17  1  0  0  0  0
 19 18  2  0  0  0  0
 20 19  1  0  0  0  0
 21 22  2  0  0  0  0
 21 19  1  0  0  0  0
 22 24  1  0  0  0  0
 23 22  1  0  0  0  0
 24 25  2  0  0  0  0
 25 14  1  0  0  0  0
 26  1  1  0  0  0  0
 26 27  1  0  0  0  0
 28 26  1  0  0  0  0
 29 31  1  0  0  0  0
 29 26  1  0  0  0  0
 30 29  1  0  0  0  0
 32 33  1  0  0  0  0
 32 36  2  0  0  0  0
 33 34  2  0  0  0  0
 34 35  1  0  0  0  0
 34 38  1  0  0  0  0
 35 29  1  0  0  0  0
 36 35  1  0  0  0  0
 37 33  1  0  0  0  0
 39 40  1  0  0  0  0
 40 46  1  0  0  0  0
 40 41  2  0  0  0  0
 41 32  1  0  0  0  0
 42 41  1  0  0  0  0
 43 42  2  0  0  0  0
 44 43  1  0  0  0  0
 44 39  2  0  0  0  0
 45 39  1  0  0  0  0
 47 43  1  0  0  0  0
M  END
>  <minimizedAffinity>
-5.60362244

$$$$

 OpenBabel03272508383D

 47 51  0  0  1  0  0  0  0  0999 V2000
   38.4640   26.1040   33.3110 N   0  0  0  0  0  0  0  0  0  0  0  0
   38.7940   26.7370   34.5210 C   0  0  0  0  0  0  0  0  0  0  0  0
   40.2150   26.6690   34.9440 C   0  0  0  0  0  0  0  0  0  0  0  0
   40.7980   25.4180   34.7050 O   0  0  0  0  0  0  0  0  0  0  0  0
   40.6430   25.0570   33.4010 C   0  0  0  0  0  0  0  0  0  0  0  0
   39.2140   24.9650   33.0210 C   0  0  1  0  0  0  0  0  0  0  0  0
   38.3350   27.6620   34.8140 H   0  0  0  0  0  0  0  0  0  0  0  0
   38.2390   26.0310   35.2300 H   0  0  0  0  0  0  0  0  0  0  0  0
   40.8430   27.5330   34.8990 H   0  0  0  0  0  0  0  0  0  0  0  0
   40.1520   26.5940   36.0990 H   0  0  0  0  0  0  0  0  0  0  0  0
   40.9640   23.9780   33.4160 H   0  0  0  0  0  0  0  0  0  0  0  0
   41.3300   25.4730   32.6740 H   0  0  0  0  0  0  0  0  0  0  0  0
   39.2180   24.8650   31.8930 H   0  0  0  0  0  0  0  0  0  0  0  0
   38.5690   23.7370   33.4800 N   0  0  0  0  0  0  0  0  0  0  0  0
   38.9170   23.0050   34.5600 C   0  0  0  0  0  0  0  0  0  0  0  0
   39.7100   23.1840   35.2650 H   0  0  0  0  0  0  0  0  0  0  0  0
   38.1130   21.9280   34.7000 N   0  0  0  0  0  0  0  0  0  0  0  0
   37.2290   21.9510   33.7020 C   0  0  0  0  0  0  0  0  0  0  0  0
   36.1750   21.1510   33.2990 C   0  0  0  0  0  0  0  0  0  0  0  0
   35.9400   20.2750   33.8750 H   0  0  0  0  0  0  0  0  0  0  0  0
   35.4450   21.4680   32.1910 N   0  0  0  0  0  0  0  0  0  0  0  0
   35.7380   22.5550   31.4800 C   0  0  0  0  0  0  0  0  0  0  0  0
   35.1270   22.7660   30.6040 H   0  0  0  0  0  0  0  0  0  0  0  0
   36.7710   23.3620   31.8500 N   0  0  0  0  0  0  0  0  0  0  0  0
   37.5080   23.0590   32.9540 C   0  0  0  0  0  0  0  0  0  0  0  0
   37.9750   26.9020   32.2730 C   0  0  0  0  0  0  0  0  0  0  0  0
   38.4500   26.5380   31.3240 H   0  0  0  0  0  0  0  0  0  0  0  0
   38.4460   27.9230   32.4010 H   0  0  0  0  0  0  0  0  0  0  0  0
   36.5430   27.0850   32.1630 C   0  0  0  0  0  0  0  0  0  0  0  0
   35.8100   26.3940   32.5570 H   0  0  0  0  0  0  0  0  0  0  0  0
   36.3060   27.0840   31.0520 H   0  0  0  0  0  0  0  0  0  0  0  0
   35.3990   29.9610   33.9840 C   0  0  0  0  0  0  0  0  0  0  0  0
   35.6880   30.5290   32.7600 C   0  0  0  0  0  0  0  0  0  0  0  0
   36.1530   29.4990   31.9330 C   0  0  0  0  0  0  0  0  0  0  0  0
   36.1270   28.3870   32.6680 N   0  0  0  0  0  0  0  0  0  0  0  0
   35.6760   28.6600   33.8940 N   0  0  0  0  0  0  0  0  0  0  0  0
   35.5670   31.5990   32.5050 H   0  0  0  0  0  0  0  0  0  0  0  0
   36.4070   29.7800   30.9780 H   0  0  0  0  0  0  0  0  0  0  0  0
   35.0100   32.2850   36.9110 C   0  0  0  0  0  0  0  0  0  0  0  0
   35.6300   31.6170   35.8530 C   0  0  0  0  0  0  0  0  0  0  0  0
   34.8940   30.7160   35.1010 C   0  0  0  0  0  0  0  0  0  0  0  0
   33.5980   30.5610   35.4790 N   0  0  0  0  0  0  0  0  0  0  0  0
   33.0190   31.2170   36.5060 C   0  0  0  0  0  0  0  0  0  0  0  0
   33.7340   32.0750   37.2130 N   0  0  0  0  0  0  0  0  0  0  0  0
   35.6450   32.9850   37.4660 H   0  0  0  0  0  0  0  0  0  0  0  0
   36.6540   31.7620   35.5810 H   0  0  0  0  0  0  0  0  0  0  0  0
   31.9790   31.0370   36.7410 H   0  0  0  0  0  0  0  0  0  0  0  0
  1  2  1  0  0  0  0
  2  7  1  0  0  0  0
  2  3  1  0  0  0  0
  2  8  1  0  0  0  0
  3 10  1  0  0  0  0
  4  3  1  0  0  0  0
  5 11  1  0  0  0  0
  5  4  1  0  0  0  0
  6 13  1  6  0  0  0
  6  1  1  0  0  0  0
  6  5  1  0  0  0  0
  6 14  1  0  0  0  0
  9  3  1  0  0  0  0
 12  5  1  0  0  0  0
 14 15  1  0  0  0  0
 15 17  2  0  0  0  0
 15 16  1  0  0  0  0
 18 17  1  0  0  0  0
 19 18  1  0  0  0  0
 19 20  1  0  0  0  0
 21 19  2  0  0  0  0
 22 24  2  0  0  0  0
 22 21  1  0  0  0  0
 23 22  1  0  0  0  0
 24 25  1  0  0  0  0
 25 14  1  0  0  0  0
 25 18  2  0  0  0  0
 26 28  1  0  0  0  0
 26  1  1  0  0  0  0
 27 26  1  0  0  0  0
 29 26  1  0  0  0  0
 29 30  1  0  0  0  0
 29 35  1  0  0  0  0
 31 29  1  0  0  0  0
 32 41  1  0  0  0  0
 33 32  1  0  0  0  0
 34 35  1  0  0  0  0
 34 33  2  0  0  0  0
 35 36  1  0  0  0  0
 36 32  2  0  0  0  0
 37 33  1  0  0  0  0
 38 34  1  0  0  0  0
 39 44  1  0  0  0  0
 39 45  1  0  0  0  0
 40 39  2  0  0  0  0
 41 42  2  0  0  0  0
 41 40  1  0  0  0  0
 42 43  1  0  0  0  0
 43 47  1  0  0  0  0
 43 44  2  0  0  0  0
 46 40  1  0  0  0  0
M  END
>  <minimizedAffinity>
-5.58738422

$$$$

 OpenBabel03272508383D

 47 51  0  0  1  0  0  0  0  0999 V2000
   36.8520   26.1530   31.4640 N   0  0  0  0  0  0  0  0  0  0  0  0
   38.0810   26.0960   30.7840 C   0  0  0  0  0  0  0  0  0  0  0  0
   39.3030   26.3220   31.5950 C   0  0  0  0  0  0  0  0  0  0  0  0
   39.1500   27.3420   32.5430 O   0  0  0  0  0  0  0  0  0  0  0  0
   38.0610   27.1110   33.3270 C   0  0  0  0  0  0  0  0  0  0  0  0
   36.8130   27.0480   32.5320 C   0  0  1  0  0  0  0  0  0  0  0  0
   38.2520   25.3920   29.9930 H   0  0  0  0  0  0  0  0  0  0  0  0
   37.9630   27.0450   30.1560 H   0  0  0  0  0  0  0  0  0  0  0  0
   39.9640   25.5150   31.8280 H   0  0  0  0  0  0  0  0  0  0  0  0
   40.0100   26.8870   30.8700 H   0  0  0  0  0  0  0  0  0  0  0  0
   37.9550   28.0880   33.8760 H   0  0  0  0  0  0  0  0  0  0  0  0
   38.1670   26.4140   34.1510 H   0  0  0  0  0  0  0  0  0  0  0  0
   36.0300   26.6540   33.2480 H   0  0  0  0  0  0  0  0  0  0  0  0
   36.3050   28.3610   32.1440 N   0  0  0  0  0  0  0  0  0  0  0  0
   36.3110   28.8880   30.9010 C   0  0  0  0  0  0  0  0  0  0  0  0
   36.6790   28.4500   29.9890 H   0  0  0  0  0  0  0  0  0  0  0  0
   35.7650   30.1240   30.8900 N   0  0  0  0  0  0  0  0  0  0  0  0
   35.3970   30.4140   32.1390 C   0  0  0  0  0  0  0  0  0  0  0  0
   34.8000   31.4920   32.7660 C   0  0  0  0  0  0  0  0  0  0  0  0
   34.5330   32.3500   32.1780 H   0  0  0  0  0  0  0  0  0  0  0  0
   34.5540   31.4680   34.1070 N   0  0  0  0  0  0  0  0  0  0  0  0
   34.8860   30.4030   34.8340 C   0  0  0  0  0  0  0  0  0  0  0  0
   34.6700   30.4310   35.9000 H   0  0  0  0  0  0  0  0  0  0  0  0
   35.4770   29.3260   34.2460 N   0  0  0  0  0  0  0  0  0  0  0  0
   35.7280   29.3350   32.9080 C   0  0  0  0  0  0  0  0  0  0  0  0
   36.0740   24.9930   31.4950 C   0  0  0  0  0  0  0  0  0  0  0  0
   35.1920   25.1670   30.8240 H   0  0  0  0  0  0  0  0  0  0  0  0
   35.5920   24.9550   32.5190 H   0  0  0  0  0  0  0  0  0  0  0  0
   36.7260   23.7210   31.2660 C   0  0  0  0  0  0  0  0  0  0  0  0
   37.5970   23.5890   30.6370 H   0  0  0  0  0  0  0  0  0  0  0  0
   35.9570   23.0550   30.7590 H   0  0  0  0  0  0  0  0  0  0  0  0
   37.8180   22.7040   34.5330 C   0  0  0  0  0  0  0  0  0  0  0  0
   37.3020   21.5170   34.0510 C   0  0  0  0  0  0  0  0  0  0  0  0
   36.8330   21.7720   32.7570 C   0  0  0  0  0  0  0  0  0  0  0  0
   37.0760   23.0610   32.5170 N   0  0  0  0  0  0  0  0  0  0  0  0
   37.6650   23.6210   33.5770 N   0  0  0  0  0  0  0  0  0  0  0  0
   37.2770   20.5580   34.6040 H   0  0  0  0  0  0  0  0  0  0  0  0
   36.4190   20.9670   32.2710 H   0  0  0  0  0  0  0  0  0  0  0  0
   38.4800   23.5330   38.1380 C   0  0  0  0  0  0  0  0  0  0  0  0
   37.8050   23.4850   36.9160 C   0  0  0  0  0  0  0  0  0  0  0  0
   38.3960   22.8350   35.8450 C   0  0  0  0  0  0  0  0  0  0  0  0
   39.6170   22.2920   36.0920 N   0  0  0  0  0  0  0  0  0  0  0  0
   40.2510   22.3510   37.2810 C   0  0  0  0  0  0  0  0  0  0  0  0
   39.6740   22.9730   38.2950 N   0  0  0  0  0  0  0  0  0  0  0  0
   37.9600   24.0610   38.9450 H   0  0  0  0  0  0  0  0  0  0  0  0
   36.8430   23.9240   36.7540 H   0  0  0  0  0  0  0  0  0  0  0  0
   41.2230   21.8910   37.3960 H   0  0  0  0  0  0  0  0  0  0  0  0
  1 26  1  0  0  0  0
  1  6  1  0  0  0  0
  2  1  1  0  0  0  0
  2  3  1  0  0  0  0
  3  9  1  0  0  0  0
  3  4  1  0  0  0  0
  4  5  1  0  0  0  0
  5 11  1  0  0  0  0
  5 12  1  0  0  0  0
  6 13  1  1  0  0  0
  6  5  1  0  0  0  0
  7  2  1  0  0  0  0
  8  2  1  0  0  0  0
 10  3  1  0  0  0  0
 14  6  1  0  0  0  0
 14 25  1  0  0  0  0
 15 14  1  0  0  0  0
 16 15  1  0  0  0  0
 17 15  2  0  0  0  0
 17 18  1  0  0  0  0
 18 19  2  0  0  0  0
 18 25  1  0  0  0  0
 19 21  1  0  0  0  0
 20 19  1  0  0  0  0
 21 22  2  0  0  0  0
 22 23  1  0  0  0  0
 24 22  1  0  0  0  0
 25 24  2  0  0  0  0
 26 28  1  0  0  0  0
 27 26  1  0  0  0  0
 29 26  1  0  0  0  0
 29 35  1  0  0  0  0
 30 29  1  0  0  0  0
 31 29  1  0  0  0  0
 32 41  1  0  0  0  0
 33 32  1  0  0  0  0
 33 37  1  0  0  0  0
 34 33  2  0  0  0  0
 35 34  1  0  0  0  0
 35 36  1  0  0  0  0
 36 32  2  0  0  0  0
 38 34  1  0  0  0  0
 39 44  1  0  0  0  0
 39 45  1  0  0  0  0
 40 39  2  0  0  0  0
 41 42  2  0  0  0  0
 41 40  1  0  0  0  0
 42 43  1  0  0  0  0
 43 47  1  0  0  0  0
 43 44  2  0  0  0  0
 46 40  1  0  0  0  0
M  END
>  <minimizedAffinity>
-5.54795837

$$$$
