
 OpenBabel03272504093D

 36 39  0  0  0  0  0  0  0  0999 V2000
   37.4100   30.6230   50.2760 C   0  0  0  0  0  0  0  0  0  0  0  0
   37.0670   30.6840   48.9400 C   0  0  0  0  0  0  0  0  0  0  0  0
   35.8280   30.1650   48.4930 C   0  0  0  0  0  0  0  0  0  0  0  0
   35.0110   29.6130   49.4300 N   0  0  0  0  0  0  0  0  0  0  0  0
   35.3900   29.5720   50.7550 C   0  0  0  0  0  0  0  0  0  0  0  0
   36.5860   30.0750   51.1710 N   0  0  0  0  0  0  0  0  0  0  0  0
   34.4620   28.9710   51.6710 N   0  0  0  0  0  0  0  0  0  0  0  0
   38.3470   31.0090   50.6530 H   0  0  0  0  0  0  0  0  0  0  0  0
   33.7070   29.4900   52.1960 H   0  0  0  0  0  0  0  0  0  0  0  0
   34.4820   27.9490   51.8800 H   0  0  0  0  0  0  0  0  0  0  0  0
   38.0240   33.5440   49.3120 Cl  0  0  0  0  0  0  0  0  0  0  0  0
   38.5660   32.5610   47.9990 C   0  0  0  0  0  0  0  0  0  0  0  0
   38.0310   31.3040   48.0030 C   0  0  0  0  0  0  0  0  0  0  0  0
   38.4220   30.4220   46.9700 C   0  0  0  0  0  0  0  0  0  0  0  0
   39.2910   30.7870   45.9980 C   0  0  0  0  0  0  0  0  0  0  0  0
   39.8160   32.0770   46.0230 C   0  0  0  0  0  0  0  0  0  0  0  0
   40.9390   32.5940   44.7940 Cl  0  0  0  0  0  0  0  0  0  0  0  0
   39.4450   32.9300   47.0150 C   0  0  0  0  0  0  0  0  0  0  0  0
   38.0790   29.4010   46.8750 H   0  0  0  0  0  0  0  0  0  0  0  0
   39.6160   30.1460   45.1890 H   0  0  0  0  0  0  0  0  0  0  0  0
   39.8260   33.9520   47.0830 H   0  0  0  0  0  0  0  0  0  0  0  0
   35.4720   30.2480   47.0900 C   0  0  0  0  0  0  0  0  0  0  0  0
   35.5410   31.3400   46.8100 H   0  0  0  0  0  0  0  0  0  0  0  0
   36.1110   29.7380   46.3640 H   0  0  0  0  0  0  0  0  0  0  0  0
   34.0850   29.7870   46.9060 N   0  0  0  0  0  0  0  0  0  0  0  0
   33.0360   30.5650   46.5880 C   0  0  0  0  0  0  0  0  0  0  0  0
   33.0370   31.6170   46.4190 H   0  0  0  0  0  0  0  0  0  0  0  0
   31.9240   29.8140   46.5020 N   0  0  0  0  0  0  0  0  0  0  0  0
   32.2600   28.5460   46.7670 C   0  0  0  0  0  0  0  0  0  0  0  0
   31.4850   27.3990   46.8070 C   0  0  0  0  0  0  0  0  0  0  0  0
   30.4180   27.4190   46.6070 H   0  0  0  0  0  0  0  0  0  0  0  0
   32.1500   26.2680   47.1100 N   0  0  0  0  0  0  0  0  0  0  0  0
   33.4680   26.2110   47.3620 C   0  0  0  0  0  0  0  0  0  0  0  0
   33.8880   25.2370   47.5950 H   0  0  0  0  0  0  0  0  0  0  0  0
   34.2320   27.3440   47.3230 N   0  0  0  0  0  0  0  0  0  0  0  0
   33.6360   28.5270   47.0250 C   0  0  0  0  0  0  0  0  0  0  0  0
  1  8  1  0  0  0  0
  1  6  1  0  0  0  0
  2  1  2  0  0  0  0
  3  2  1  0  0  0  0
  3  4  2  0  0  0  0
  4  5  1  0  0  0  0
  5  6  2  0  0  0  0
  5  7  1  0  0  0  0
  7 10  1  0  0  0  0
  7  9  1  0  0  0  0
 12 13  1  0  0  0  0
 12 11  1  0  0  0  0
 13  2  1  0  0  0  0
 14 13  2  0  0  0  0
 15 16  2  0  0  0  0
 15 14  1  0  0  0  0
 16 18  1  0  0  0  0
 17 16  1  0  0  0  0
 18 21  1  0  0  0  0
 18 12  2  0  0  0  0
 19 14  1  0  0  0  0
 20 15  1  0  0  0  0
 22  3  1  0  0  0  0
 23 22  1  0  0  0  0
 24 22  1  0  0  0  0
 25 36  1  0  0  0  0
 25 22  1  0  0  0  0
 26 25  1  0  0  0  0
 27 26  1  0  0  0  0
 28 26  2  0  0  0  0
 28 29  1  0  0  0  0
 29 30  2  0  0  0  0
 29 36  1  0  0  0  0
 30 32  1  0  0  0  0
 31 30  1  0  0  0  0
 32 33  2  0  0  0  0
 33 34  1  0  0  0  0
 35 33  1  0  0  0  0
 36 35  2  0  0  0  0
M  END
>  <minimizedAffinity>
-6.00603437

>  <minimizedRMSD>
1.06559038

$$$$
