
 OpenBabel03272506013D

 49 53  0  0  1  0  0  0  0  0999 V2000
   35.2490   30.2140   49.4460 C   0  0  2  0  0  0  0  0  0  0  0  0
   36.1860   31.2900   49.1440 C   0  0  0  0  0  0  0  0  0  0  0  0
   37.6750   30.8520   49.2880 C   0  0  2  0  0  0  0  0  0  0  0  0
   38.0090   30.3620   50.6040 C   0  0  0  0  0  0  0  0  0  0  0  0
   36.9030   29.5240   51.2460 C   0  0  0  0  0  0  0  0  0  0  0  0
   35.9080   29.0680   50.2210 C   0  0  0  0  0  0  0  0  0  0  0  0
   34.4410   30.5660   50.1560 H   0  0  0  0  0  0  0  0  0  0  0  0
   36.1620   31.8600   48.2460 H   0  0  0  0  0  0  0  0  0  0  0  0
   36.1180   32.0600   49.9870 H   0  0  0  0  0  0  0  0  0  0  0  0
   37.8750   30.1220   48.4820 H   0  0  0  0  0  0  0  0  0  0  0  0
   38.9660   29.8000   50.5560 H   0  0  0  0  0  0  0  0  0  0  0  0
   38.1980   31.1840   51.3220 H   0  0  0  0  0  0  0  0  0  0  0  0
   37.3890   28.6020   51.6260 H   0  0  0  0  0  0  0  0  0  0  0  0
   36.4300   30.0150   52.1030 H   0  0  0  0  0  0  0  0  0  0  0  0
   36.3720   28.3700   49.5070 H   0  0  0  0  0  0  0  0  0  0  0  0
   35.1080   28.5120   50.7340 H   0  0  0  0  0  0  0  0  0  0  0  0
   34.5620   29.6100   48.3080 C   0  0  0  0  0  0  0  0  0  0  0  0
   35.0780   29.9810   47.0770 C   0  0  0  0  0  0  0  0  0  0  0  0
   34.5090   29.4450   45.9230 C   0  0  0  0  0  0  0  0  0  0  0  0
   33.4400   28.5550   46.0660 N   0  0  0  0  0  0  0  0  0  0  0  0
   32.9760   28.2270   47.2790 C   0  0  0  0  0  0  0  0  0  0  0  0
   33.5490   28.7620   48.3570 N   0  0  0  0  0  0  0  0  0  0  0  0
   35.8560   30.6170   46.6780 H   0  0  0  0  0  0  0  0  0  0  0  0
   34.7140   29.5630   44.8850 H   0  0  0  0  0  0  0  0  0  0  0  0
   31.8890   27.3240   47.4390 N   0  0  0  0  0  0  0  0  0  0  0  0
   31.8530   25.9910   47.6730 C   0  0  0  0  0  0  0  0  0  0  0  0
   32.7510   25.3900   47.7770 H   0  0  0  0  0  0  0  0  0  0  0  0
   30.5510   25.6110   47.7420 N   0  0  0  0  0  0  0  0  0  0  0  0
   29.7730   26.6920   47.5530 C   0  0  0  0  0  0  0  0  0  0  0  0
   28.4020   26.9390   47.5120 C   0  0  0  0  0  0  0  0  0  0  0  0
   27.7190   26.1200   47.6580 H   0  0  0  0  0  0  0  0  0  0  0  0
   27.9030   28.1720   47.2970 N   0  0  0  0  0  0  0  0  0  0  0  0
   28.7370   29.2180   47.1110 C   0  0  0  0  0  0  0  0  0  0  0  0
   28.3710   30.2310   46.9340 H   0  0  0  0  0  0  0  0  0  0  0  0
   30.0500   28.9820   47.1510 N   0  0  0  0  0  0  0  0  0  0  0  0
   30.6010   27.7630   47.3640 C   0  0  0  0  0  0  0  0  0  0  0  0
   38.5300   31.1290   46.4750 Cl  0  0  0  0  0  0  0  0  0  0  0  0
   38.9200   32.3140   47.6950 C   0  0  0  0  0  0  0  0  0  0  0  0
   38.4270   32.1040   48.9570 C   0  0  0  0  0  0  0  0  0  0  0  0
   38.7460   33.1080   49.8510 C   0  0  0  0  0  0  0  0  0  0  0  0
   39.4920   34.2200   49.5130 C   0  0  0  0  0  0  0  0  0  0  0  0
   39.9600   34.3600   48.2040 C   0  0  0  0  0  0  0  0  0  0  0  0
   39.6590   33.3690   47.2690 C   0  0  0  0  0  0  0  0  0  0  0  0
   38.3850   33.0100   50.8700 H   0  0  0  0  0  0  0  0  0  0  0  0
   39.7070   34.9670   50.2570 H   0  0  0  0  0  0  0  0  0  0  0  0
   40.5470   35.2140   47.8950 H   0  0  0  0  0  0  0  0  0  0  0  0
   40.1370   33.5100   45.9410 N   0  0  0  0  0  0  0  0  0  0  0  0
   40.6440   32.6250   45.6550 H   0  0  0  0  0  0  0  0  0  0  0  0
   40.0840   34.2640   45.2480 H   0  0  0  0  0  0  0  0  0  0  0  0
  1  7  1  1  0  0  0
  1  6  1  0  0  0  0
  2  3  1  0  0  0  0
  2  1  1  0  0  0  0
  2  9  1  0  0  0  0
  3 10  1  6  0  0  0
  3  4  1  0  0  0  0
  4  5  1  0  0  0  0
  4 12  1  0  0  0  0
  5 13  1  0  0  0  0
  5 14  1  0  0  0  0
  6 16  1  0  0  0  0
  6  5  1  0  0  0  0
  8  2  1  0  0  0  0
 11  4  1  0  0  0  0
 15  6  1  0  0  0  0
 17 22  1  0  0  0  0
 17  1  1  0  0  0  0
 18 17  2  0  0  0  0
 19 20  2  0  0  0  0
 19 18  1  0  0  0  0
 20 21  1  0  0  0  0
 21 25  1  0  0  0  0
 21 22  2  0  0  0  0
 23 18  1  0  0  0  0
 24 19  1  0  0  0  0
 25 26  1  0  0  0  0
 26 28  2  0  0  0  0
 26 27  1  0  0  0  0
 29 28  1  0  0  0  0
 30 29  1  0  0  0  0
 30 31  1  0  0  0  0
 32 30  2  0  0  0  0
 33 35  2  0  0  0  0
 33 32  1  0  0  0  0
 34 33  1  0  0  0  0
 35 36  1  0  0  0  0
 36 25  1  0  0  0  0
 36 29  2  0  0  0  0
 37 38  1  0  0  0  0
 38 39  1  0  0  0  0
 39  3  1  0  0  0  0
 39 40  2  0  0  0  0
 40 44  1  0  0  0  0
 41 40  1  0  0  0  0
 41 45  1  0  0  0  0
 42 41  2  0  0  0  0
 43 38  2  0  0  0  0
 43 42  1  0  0  0  0
 46 42  1  0  0  0  0
 47 43  1  0  0  0  0
 48 47  1  0  0  0  0
 49 47  1  0  0  0  0
M  END
>  <minimizedAffinity>
-8.40843201

>  <minimizedRMSD>
1.38870406

$$$$
