REMARK  Name = 
REMARK  2 active torsions:
REMARK  status: ('A' for Active; 'I' for Inactive)
REMARK    1  A    between atoms: C_12  and  N_13
REMARK    2  A    between atoms: C_17  and  N_36
REMARK                            x       y       z     vdW  Elec       q    Type
REMARK                         _______ _______ _______ _____ _____    ______ ____
ROOT
ATOM      1  N   UNL     1      35.380  29.630  45.565  0.00  0.00    +0.000 NA
ATOM      2  C   UNL     1      36.550  30.459  45.269  0.00  0.00    +0.000 C 
ATOM      3  C   UNL     1      36.757  30.407  43.773  0.00  0.00    +0.000 C 
ATOM      4  C   UNL     1      35.740  29.433  43.312  0.00  0.00    +0.000 C 
ATOM      5  C   UNL     1      34.625  29.547  44.366  0.00  0.00    +0.000 C 
ATOM      6  H   UNL     1      37.427  30.206  45.863  0.00  0.00    +0.000 HD
ATOM      7  H   UNL     1      36.208  31.512  45.493  0.00  0.00    +0.000 HD
ATOM      8  H   UNL     1      36.700  31.397  43.282  0.00  0.00    +0.000 HD
ATOM      9  H   UNL     1      37.770  29.976  43.613  0.00  0.00    +0.000 HD
ATOM     10  H   UNL     1      35.393  29.758  42.307  0.00  0.00    +0.000 HD
ATOM     11  H   UNL     1      36.092  28.407  43.201  0.00  0.00    +0.000 HD
ATOM     12  H   UNL     1      34.125  30.441  44.008  0.00  0.00    +0.000 HD
ENDROOT
BRANCH   1  24
ATOM     13  C   UNL     1      37.231  29.240  50.576  0.00  0.00    +0.000 A 
ATOM     14  C   UNL     1      37.397  30.595  50.901  0.00  0.00    +0.000 A 
ATOM     15  C   UNL     1      36.682  31.516  50.142  0.00  0.00    +0.000 A 
ATOM     16  N   UNL     1      35.880  31.049  49.148  0.00  0.00    +0.000 NA
ATOM     17  C   UNL     1      35.756  29.753  48.878  0.00  0.00    +0.000 A 
ATOM     18  N   UNL     1      36.428  28.847  49.587  0.00  0.00    +0.000 NA
ATOM     19  N   UNL     1      34.900  29.336  47.828  0.00  0.00    +0.000 N 
ATOM     20  C   UNL     1      34.247  28.031  47.845  0.00  0.00    +0.000 C 
ATOM     21  C   UNL     1      32.774  28.199  47.672  0.00  0.00    +0.000 C 
ATOM     22  N   UNL     1      32.336  29.413  47.199  0.00  0.00    +0.000 NA
ATOM     23  C   UNL     1      33.200  30.293  46.450  0.00  0.00    +0.000 C 
ATOM     24  C   UNL     1      34.626  30.182  46.680  0.00  0.00    +0.000 C 
ATOM     25  H   UNL     1      37.815  28.589  51.206  0.00  0.00    +0.000 HD
ATOM     26  H   UNL     1      38.001  31.032  51.659  0.00  0.00    +0.000 HD
ATOM     27  H   UNL     1      36.725  32.584  50.295  0.00  0.00    +0.000 HD
ATOM     28  H   UNL     1      34.739  27.331  47.172  0.00  0.00    +0.000 HD
ATOM     29  H   UNL     1      34.441  27.604  48.878  0.00  0.00    +0.000 HD
ATOM     30  H   UNL     1      32.244  27.951  48.614  0.00  0.00    +0.000 HD
ATOM     31  H   UNL     1      32.451  27.384  46.962  0.00  0.00    +0.000 HD
ATOM     32  H   UNL     1      31.447  29.812  47.508  0.00  0.00    +0.000 HD
ATOM     33  H   UNL     1      32.762  30.341  45.467  0.00  0.00    +0.000 HD
ATOM     34  H   UNL     1      32.893  31.314  46.876  0.00  0.00    +0.000 HD
ATOM     35  H   UNL     1      35.112  31.180  46.906  0.00  0.00    +0.000 HD
ENDBRANCH   1  24
BRANCH   5  36
ATOM     36  N   UNL     1      33.887  28.319  44.151  0.00  0.00    +0.000 N 
ATOM     37  C   UNL     1      32.597  28.057  43.775  0.00  0.00    +0.000 A 
ATOM     38  H   UNL     1      31.926  28.906  43.586  0.00  0.00    +0.000 HD
ATOM     39  N   UNL     1      32.399  26.728  43.708  0.00  0.00    +0.000 NA
ATOM     40  C   UNL     1      33.559  26.105  44.039  0.00  0.00    +0.000 A 
ATOM     41  C   UNL     1      33.764  24.743  44.089  0.00  0.00    +0.000 A 
ATOM     42  H   UNL     1      32.979  24.037  43.856  0.00  0.00    +0.000 HD
ATOM     43  N   UNL     1      35.009  24.355  44.446  0.00  0.00    +0.000 NA
ATOM     44  C   UNL     1      35.939  25.286  44.723  0.00  0.00    +0.000 A 
ATOM     45  H   UNL     1      36.949  24.959  45.013  0.00  0.00    +0.000 HD
ATOM     46  N   UNL     1      35.672  26.597  44.655  0.00  0.00    +0.000 NA
ATOM     47  C   UNL     1      34.479  27.097  44.313  0.00  0.00    +0.000 A 
ENDBRANCH   5  36
TORSDOF 2
