REMARK  Name = 
REMARK  5 active torsions:
REMARK  status: ('A' for Active; 'I' for Inactive)
REMARK    1  A    between atoms: C_1  and  C_8
REMARK    2  A    between atoms: N_4  and  C_12
REMARK    3  A    between atoms: C_12  and  C_13
REMARK    4  A    between atoms: C_13  and  N_14
REMARK    5  A    between atoms: C_19  and  N_36
REMARK                            x       y       z     vdW  Elec       q    Type
REMARK                         _______ _______ _______ _____ _____    ______ ____
ROOT
ATOM      1  N   UNL     1      40.369  31.802  43.489  0.00  0.00    +0.000 NA
ATOM      2  C   UNL     1      39.513  32.699  42.828  0.00  0.00    +0.000 C 
ATOM      3  C   UNL     1      38.249  32.139  42.288  0.00  0.00    +0.000 C 
ATOM      4  O   UNL     1      38.414  30.875  41.706  0.00  0.00    +0.000 OA
ATOM      5  C   UNL     1      39.012  30.018  42.579  0.00  0.00    +0.000 C 
ATOM      6  C   UNL     1      40.350  30.499  42.994  0.00  0.00    +0.000 C 
ATOM      7  H   UNL     1      39.388  33.709  43.167  0.00  0.00    +0.000 HD
ATOM      8  H   UNL     1      40.165  32.898  41.909  0.00  0.00    +0.000 HD
ATOM      9  H   UNL     1      37.310  32.361  42.748  0.00  0.00    +0.000 HD
ATOM     10  H   UNL     1      38.080  32.740  41.311  0.00  0.00    +0.000 HD
ATOM     11  H   UNL     1      39.259  29.142  41.917  0.00  0.00    +0.000 HD
ATOM     12  H   UNL     1      38.392  29.547  43.333  0.00  0.00    +0.000 HD
ATOM     13  H   UNL     1      40.648  29.827  43.855  0.00  0.00    +0.000 HD
ENDROOT
BRANCH   6  14
ATOM     14  N   UNL     1      41.387  30.265  41.992  0.00  0.00    +0.000 N 
ATOM     15  C   UNL     1      42.099  31.209  41.340  0.00  0.00    +0.000 A 
ATOM     16  H   UNL     1      42.037  32.279  41.433  0.00  0.00    +0.000 HD
ATOM     17  N   UNL     1      42.979  30.651  40.479  0.00  0.00    +0.000 NA
ATOM     18  C   UNL     1      42.845  29.326  40.566  0.00  0.00    +0.000 A 
ATOM     19  C   UNL     1      43.439  28.234  39.962  0.00  0.00    +0.000 A 
ATOM     20  H   UNL     1      44.208  28.401  39.231  0.00  0.00    +0.000 HD
ATOM     21  N   UNL     1      43.057  26.966  40.289  0.00  0.00    +0.000 NA
ATOM     22  C   UNL     1      42.104  26.762  41.196  0.00  0.00    +0.000 A 
ATOM     23  H   UNL     1      41.833  25.733  41.423  0.00  0.00    +0.000 HD
ATOM     24  N   UNL     1      41.500  27.819  41.808  0.00  0.00    +0.000 NA
ATOM     25  C   UNL     1      41.870  29.089  41.493  0.00  0.00    +0.000 A 
ENDBRANCH   6  14
BRANCH   1  26
ATOM     26  C   UNL     1      40.629  32.031  44.843  0.00  0.00    +0.000 C 
ATOM     27  H   UNL     1      41.693  32.377  44.922  0.00  0.00    +0.000 HD
ATOM     28  H   UNL     1      40.669  31.015  45.341  0.00  0.00    +0.000 HD
BRANCH  26  29
ATOM     29  C   UNL     1      39.702  32.854  45.591  0.00  0.00    +0.000 C 
ATOM     30  H   UNL     1      39.118  33.657  45.161  0.00  0.00    +0.000 HD
ATOM     31  H   UNL     1      40.319  33.396  46.376  0.00  0.00    +0.000 HD
BRANCH  29  35
ATOM     32  C   UNL     1      37.681  31.027  47.931  0.00  0.00    +0.000 A 
ATOM     33  C   UNL     1      37.003  30.778  46.754  0.00  0.00    +0.000 A 
ATOM     34  C   UNL     1      37.697  31.443  45.736  0.00  0.00    +0.000 A 
ATOM     35  N   UNL     1      38.732  32.047  46.320  0.00  0.00    +0.000 N 
ATOM     36  N   UNL     1      38.725  31.800  47.632  0.00  0.00    +0.000 NA
ATOM     37  H   UNL     1      36.086  30.165  46.660  0.00  0.00    +0.000 HD
ATOM     38  H   UNL     1      37.301  31.342  44.793  0.00  0.00    +0.000 HD
BRANCH  32  41
ATOM     39  C   UNL     1      37.408  30.126  51.569  0.00  0.00    +0.000 A 
ATOM     40  C   UNL     1      37.932  30.689  50.403  0.00  0.00    +0.000 A 
ATOM     41  C   UNL     1      37.261  30.505  49.205  0.00  0.00    +0.000 A 
ATOM     42  N   UNL     1      36.122  29.769  49.281  0.00  0.00    +0.000 NA
ATOM     43  C   UNL     1      35.633  29.234  50.419  0.00  0.00    +0.000 A 
ATOM     44  N   UNL     1      36.284  29.419  51.555  0.00  0.00    +0.000 NA
ATOM     45  H   UNL     1      37.985  30.308  52.483  0.00  0.00    +0.000 HD
ATOM     46  H   UNL     1      38.834  31.264  50.378  0.00  0.00    +0.000 HD
ATOM     47  H   UNL     1      34.717  28.660  50.394  0.00  0.00    +0.000 HD
ENDBRANCH  32  41
ENDBRANCH  29  35
ENDBRANCH  26  29
ENDBRANCH   1  26
TORSDOF 5
