
 OpenBabel03272508103D

 37 40  0  0  0  0  0  0  0  0999 V2000
   36.7600   29.4040   44.0060 Cl  0  0  0  0  0  0  0  0  0  0  0  0
   38.4210   29.8130   43.5510 C   0  0  0  0  0  0  0  0  0  0  0  0
   39.3610   30.3300   44.4420 C   0  0  0  0  0  0  0  0  0  0  0  0
   40.6200   30.6060   43.9550 C   0  0  0  0  0  0  0  0  0  0  0  0
   40.9280   30.3740   42.6340 C   0  0  0  0  0  0  0  0  0  0  0  0
   40.0140   29.8660   41.7450 C   0  0  0  0  0  0  0  0  0  0  0  0
   38.7580   29.5870   42.2140 C   0  0  0  0  0  0  0  0  0  0  0  0
   41.2810   31.0040   44.7180 H   0  0  0  0  0  0  0  0  0  0  0  0
   41.9380   30.6140   42.3170 H   0  0  0  0  0  0  0  0  0  0  0  0
   40.2930   29.6950   40.7030 H   0  0  0  0  0  0  0  0  0  0  0  0
   37.8220   29.0600   41.2800 N   0  0  0  0  0  0  0  0  0  0  0  0
   37.0050   29.7670   40.4640 C   0  0  0  0  0  0  0  0  0  0  0  0
   36.9220   30.8530   40.3810 H   0  0  0  0  0  0  0  0  0  0  0  0
   36.2460   28.9480   39.7060 N   0  0  0  0  0  0  0  0  0  0  0  0
   36.5700   27.6690   40.0300 C   0  0  0  0  0  0  0  0  0  0  0  0
   36.1680   26.4050   39.6270 C   0  0  0  0  0  0  0  0  0  0  0  0
   35.4010   26.3360   38.8610 H   0  0  0  0  0  0  0  0  0  0  0  0
   36.7380   25.3080   40.1960 N   0  0  0  0  0  0  0  0  0  0  0  0
   37.6860   25.4010   41.1430 C   0  0  0  0  0  0  0  0  0  0  0  0
   38.1460   24.5310   41.6030 H   0  0  0  0  0  0  0  0  0  0  0  0
   38.0520   26.6490   41.5080 N   0  0  0  0  0  0  0  0  0  0  0  0
   37.5460   27.7700   41.0040 C   0  0  0  0  0  0  0  0  0  0  0  0
   38.8560   30.4850   45.7010 O   0  0  0  0  0  0  0  0  0  0  0  0
   39.4140   32.5590   47.1390 O   0  0  0  0  0  0  0  0  0  0  0  0
   38.2870   31.8580   46.4620 P   0  0  1  0  0  0  0  0  0  0  0  0
   37.6910   32.8410   45.1960 O   0  0  0  0  0  0  0  0  0  0  0  0
   38.3240   33.5860   45.0450 H   0  0  0  0  0  0  0  0  0  0  0  0
   37.0060   31.4430   47.4980 O   0  0  0  0  0  0  0  0  0  0  0  0
   37.6010   30.5120   51.0150 C   0  0  0  0  0  0  0  0  0  0  0  0
   37.6950   31.3090   49.8690 C   0  0  0  0  0  0  0  0  0  0  0  0
   37.0530   30.8510   48.7090 C   0  0  0  0  0  0  0  0  0  0  0  0
   36.3800   29.6640   48.7620 N   0  0  0  0  0  0  0  0  0  0  0  0
   36.3210   28.9370   49.8890 C   0  0  0  0  0  0  0  0  0  0  0  0
   36.9260   29.3510   51.0140 N   0  0  0  0  0  0  0  0  0  0  0  0
   38.1210   30.9200   51.8910 H   0  0  0  0  0  0  0  0  0  0  0  0
   38.2020   32.2360   49.7690 H   0  0  0  0  0  0  0  0  0  0  0  0
   35.7890   27.9930   49.9410 H   0  0  0  0  0  0  0  0  0  0  0  0
  2  1  1  0  0  0  0
  2  3  1  0  0  0  0
  3 23  1  0  0  0  0
  4  3  2  0  0  0  0
  4  8  1  0  0  0  0
  5  4  1  0  0  0  0
  6  7  1  0  0  0  0
  6  5  2  0  0  0  0
  7  2  2  0  0  0  0
  9  5  1  0  0  0  0
 10  6  1  0  0  0  0
 11  7  1  0  0  0  0
 12 11  1  0  0  0  0
 13 12  1  0  0  0  0
 14 15  1  0  0  0  0
 14 12  2  0  0  0  0
 15 22  1  0  0  0  0
 16 15  2  0  0  0  0
 16 18  1  0  0  0  0
 17 16  1  0  0  0  0
 18 19  2  0  0  0  0
 19 21  1  0  0  0  0
 19 20  1  0  0  0  0
 22 11  1  0  0  0  0
 22 21  2  0  0  0  0
 23 25  1  0  0  0  0
 25 24  2  1  0  0  0
 25 28  1  0  0  0  0
 26 25  1  0  0  0  0
 27 26  1  0  0  0  0
 28 31  1  0  0  0  0
 29 35  1  0  0  0  0
 30 29  2  0  0  0  0
 31 32  2  0  0  0  0
 31 30  1  0  0  0  0
 32 33  1  0  0  0  0
 33 37  1  0  0  0  0
 33 34  2  0  0  0  0
 34 29  1  0  0  0  0
 36 30  1  0  0  0  0
M  END
>  <minimizedAffinity>
-4.93460083

>  <minimizedRMSD>
1.01096117

$$$$
