
 OpenBabel03272508113D

 37 40  0  0  0  0  0  0  0  0999 V2000
   36.7210   29.4340   44.0350 Cl  0  0  0  0  0  0  0  0  0  0  0  0
   38.3770   29.8240   43.5420 C   0  0  0  0  0  0  0  0  0  0  0  0
   39.3430   30.3290   44.4120 C   0  0  0  0  0  0  0  0  0  0  0  0
   40.5940   30.5900   43.8960 C   0  0  0  0  0  0  0  0  0  0  0  0
   40.8680   30.3550   42.5680 C   0  0  0  0  0  0  0  0  0  0  0  0
   39.9280   29.8580   41.7010 C   0  0  0  0  0  0  0  0  0  0  0  0
   38.6790   29.5940   42.1980 C   0  0  0  0  0  0  0  0  0  0  0  0
   41.2760   30.9800   44.6430 H   0  0  0  0  0  0  0  0  0  0  0  0
   41.8730   30.5820   42.2280 H   0  0  0  0  0  0  0  0  0  0  0  0
   40.1810   29.6840   40.6530 H   0  0  0  0  0  0  0  0  0  0  0  0
   37.7160   29.0790   41.2860 N   0  0  0  0  0  0  0  0  0  0  0  0
   36.9200   29.7950   40.4560 C   0  0  0  0  0  0  0  0  0  0  0  0
   36.8790   30.8820   40.3460 H   0  0  0  0  0  0  0  0  0  0  0  0
   36.1240   28.9880   39.7260 N   0  0  0  0  0  0  0  0  0  0  0  0
   36.4010   27.7050   40.0820 C   0  0  0  0  0  0  0  0  0  0  0  0
   35.9470   26.4480   39.7170 C   0  0  0  0  0  0  0  0  0  0  0  0
   35.1710   26.3890   38.9580 H   0  0  0  0  0  0  0  0  0  0  0  0
   36.4780   25.3450   40.3100 N   0  0  0  0  0  0  0  0  0  0  0  0
   37.4370   25.4270   41.2470 C   0  0  0  0  0  0  0  0  0  0  0  0
   37.8680   24.5520   41.7260 H   0  0  0  0  0  0  0  0  0  0  0  0
   37.8540   26.6670   41.5750 N   0  0  0  0  0  0  0  0  0  0  0  0
   37.3880   27.7940   41.0460 C   0  0  0  0  0  0  0  0  0  0  0  0
   38.8680   30.4890   45.6820 O   0  0  0  0  0  0  0  0  0  0  0  0
   39.4340   32.5580   47.1250 O   0  0  0  0  0  0  0  0  0  0  0  0
   38.3050   31.8630   46.4460 P   0  0  1  0  0  0  0  0  0  0  0  0
   37.7130   32.8510   45.1820 O   0  0  0  0  0  0  0  0  0  0  0  0
   38.3480   33.5940   45.0320 H   0  0  0  0  0  0  0  0  0  0  0  0
   37.0220   31.4500   47.4800 O   0  0  0  0  0  0  0  0  0  0  0  0
   37.6080   30.5180   50.9990 C   0  0  0  0  0  0  0  0  0  0  0  0
   37.7040   31.3160   49.8540 C   0  0  0  0  0  0  0  0  0  0  0  0
   37.0670   30.8580   48.6910 C   0  0  0  0  0  0  0  0  0  0  0  0
   36.3960   29.6690   48.7400 N   0  0  0  0  0  0  0  0  0  0  0  0
   36.3350   28.9410   49.8670 C   0  0  0  0  0  0  0  0  0  0  0  0
   36.9350   29.3560   50.9950 N   0  0  0  0  0  0  0  0  0  0  0  0
   38.1240   30.9260   51.8770 H   0  0  0  0  0  0  0  0  0  0  0  0
   38.2090   32.2450   49.7570 H   0  0  0  0  0  0  0  0  0  0  0  0
   35.8050   27.9950   49.9160 H   0  0  0  0  0  0  0  0  0  0  0  0
  2  1  1  0  0  0  0
  2  3  1  0  0  0  0
  3 23  1  0  0  0  0
  4  3  2  0  0  0  0
  4  8  1  0  0  0  0
  5  4  1  0  0  0  0
  6  7  1  0  0  0  0
  6  5  2  0  0  0  0
  7  2  2  0  0  0  0
  9  5  1  0  0  0  0
 10  6  1  0  0  0  0
 11  7  1  0  0  0  0
 12 11  1  0  0  0  0
 13 12  1  0  0  0  0
 14 15  1  0  0  0  0
 14 12  2  0  0  0  0
 15 22  1  0  0  0  0
 16 15  2  0  0  0  0
 16 18  1  0  0  0  0
 17 16  1  0  0  0  0
 18 19  2  0  0  0  0
 19 21  1  0  0  0  0
 19 20  1  0  0  0  0
 22 11  1  0  0  0  0
 22 21  2  0  0  0  0
 23 25  1  0  0  0  0
 25 24  2  1  0  0  0
 25 28  1  0  0  0  0
 26 25  1  0  0  0  0
 27 26  1  0  0  0  0
 28 31  1  0  0  0  0
 29 35  1  0  0  0  0
 30 29  2  0  0  0  0
 31 32  2  0  0  0  0
 31 30  1  0  0  0  0
 32 33  1  0  0  0  0
 33 37  1  0  0  0  0
 33 34  2  0  0  0  0
 34 29  1  0  0  0  0
 36 30  1  0  0  0  0
M  END
>  <minimizedAffinity>
-4.94909239

>  <minimizedRMSD>
1.3964361

$$$$
