
 OpenBabel03272506013D

 49 53  0  0  1  0  0  0  0  0999 V2000
   35.2610   30.0990   49.5180 C   0  0  2  0  0  0  0  0  0  0  0  0
   36.1760   31.1790   49.1640 C   0  0  0  0  0  0  0  0  0  0  0  0
   37.6730   30.7480   49.2320 C   0  0  2  0  0  0  0  0  0  0  0  0
   38.0770   30.2620   50.5290 C   0  0  0  0  0  0  0  0  0  0  0  0
   37.0090   29.4210   51.2300 C   0  0  0  0  0  0  0  0  0  0  0  0
   35.9650   28.9580   50.2590 C   0  0  0  0  0  0  0  0  0  0  0  0
   34.4900   30.4490   50.2680 H   0  0  0  0  0  0  0  0  0  0  0  0
   36.1030   31.7460   48.2680 H   0  0  0  0  0  0  0  0  0  0  0  0
   36.1480   31.9510   50.0090 H   0  0  0  0  0  0  0  0  0  0  0  0
   37.8330   30.0170   48.4170 H   0  0  0  0  0  0  0  0  0  0  0  0
   39.0320   29.7040   50.4320 H   0  0  0  0  0  0  0  0  0  0  0  0
   38.2990   31.0870   51.2350 H   0  0  0  0  0  0  0  0  0  0  0  0
   37.5200   28.5020   51.5860 H   0  0  0  0  0  0  0  0  0  0  0  0
   36.5810   29.9120   52.1090 H   0  0  0  0  0  0  0  0  0  0  0  0
   36.3940   28.2600   49.5230 H   0  0  0  0  0  0  0  0  0  0  0  0
   35.1950   28.4000   50.8150 H   0  0  0  0  0  0  0  0  0  0  0  0
   34.5180   29.4890   48.4190 C   0  0  0  0  0  0  0  0  0  0  0  0
   34.3990   30.3010   47.3010 C   0  0  0  0  0  0  0  0  0  0  0  0
   33.7260   29.8080   46.1850 C   0  0  0  0  0  0  0  0  0  0  0  0
   33.2010   28.5130   46.2480 N   0  0  0  0  0  0  0  0  0  0  0  0
   33.3420   27.7670   47.3520 C   0  0  0  0  0  0  0  0  0  0  0  0
   33.9930   28.2760   48.3980 N   0  0  0  0  0  0  0  0  0  0  0  0
   34.6840   31.2930   46.9810 H   0  0  0  0  0  0  0  0  0  0  0  0
   33.5020   30.2170   45.2280 H   0  0  0  0  0  0  0  0  0  0  0  0
   32.8130   26.4500   47.4300 N   0  0  0  0  0  0  0  0  0  0  0  0
   31.6820   25.9640   47.9940 C   0  0  0  0  0  0  0  0  0  0  0  0
   30.9660   26.5980   48.5090 H   0  0  0  0  0  0  0  0  0  0  0  0
   31.6500   24.6240   47.7850 N   0  0  0  0  0  0  0  0  0  0  0  0
   32.7480   24.2650   47.0980 C   0  0  0  0  0  0  0  0  0  0  0  0
   33.2690   23.0710   46.5980 C   0  0  0  0  0  0  0  0  0  0  0  0
   32.7200   22.1570   46.7570 H   0  0  0  0  0  0  0  0  0  0  0  0
   34.4340   23.0230   45.9250 N   0  0  0  0  0  0  0  0  0  0  0  0
   35.1410   24.1530   45.7140 C   0  0  0  0  0  0  0  0  0  0  0  0
   36.0880   24.1560   45.1730 H   0  0  0  0  0  0  0  0  0  0  0  0
   34.6440   25.2980   46.1900 N   0  0  0  0  0  0  0  0  0  0  0  0
   33.4780   25.3980   46.8730 C   0  0  0  0  0  0  0  0  0  0  0  0
   38.5080   30.9550   46.4070 Cl  0  0  0  0  0  0  0  0  0  0  0  0
   38.8830   32.1830   47.5890 C   0  0  0  0  0  0  0  0  0  0  0  0
   38.4000   32.0020   48.8600 C   0  0  0  0  0  0  0  0  0  0  0  0
   38.7070   33.0380   49.7210 C   0  0  0  0  0  0  0  0  0  0  0  0
   39.4310   34.1520   49.3460 C   0  0  0  0  0  0  0  0  0  0  0  0
   39.8900   34.2610   48.0310 C   0  0  0  0  0  0  0  0  0  0  0  0
   39.6020   33.2380   47.1270 C   0  0  0  0  0  0  0  0  0  0  0  0
   38.3530   32.9640   50.7450 H   0  0  0  0  0  0  0  0  0  0  0  0
   39.6370   34.9250   50.0660 H   0  0  0  0  0  0  0  0  0  0  0  0
   40.4600   35.1160   47.6940 H   0  0  0  0  0  0  0  0  0  0  0  0
   40.0700   33.3480   45.7930 N   0  0  0  0  0  0  0  0  0  0  0  0
   40.5910   32.4630   45.5310 H   0  0  0  0  0  0  0  0  0  0  0  0
   40.0000   34.0790   45.0780 H   0  0  0  0  0  0  0  0  0  0  0  0
  1  6  1  0  0  0  0
  1  7  1  1  0  0  0
  2  3  1  0  0  0  0
  2  1  1  0  0  0  0
  2  9  1  0  0  0  0
  3 10  1  6  0  0  0
  3  4  1  0  0  0  0
  4  5  1  0  0  0  0
  4 12  1  0  0  0  0
  5 13  1  0  0  0  0
  5 14  1  0  0  0  0
  6 16  1  0  0  0  0
  6  5  1  0  0  0  0
  8  2  1  0  0  0  0
 11  4  1  0  0  0  0
 15  6  1  0  0  0  0
 17  1  1  0  0  0  0
 18 17  2  0  0  0  0
 19 20  2  0  0  0  0
 19 18  1  0  0  0  0
 20 21  1  0  0  0  0
 21 25  1  0  0  0  0
 21 22  2  0  0  0  0
 22 17  1  0  0  0  0
 23 18  1  0  0  0  0
 24 19  1  0  0  0  0
 25 26  1  0  0  0  0
 26 27  1  0  0  0  0
 28 26  2  0  0  0  0
 29 28  1  0  0  0  0
 30 31  1  0  0  0  0
 30 29  2  0  0  0  0
 32 30  1  0  0  0  0
 33 32  2  0  0  0  0
 33 35  1  0  0  0  0
 34 33  1  0  0  0  0
 35 36  2  0  0  0  0
 36 29  1  0  0  0  0
 36 25  1  0  0  0  0
 37 38  1  0  0  0  0
 38 39  1  0  0  0  0
 39  3  1  0  0  0  0
 39 40  2  0  0  0  0
 40 44  1  0  0  0  0
 41 40  1  0  0  0  0
 41 45  1  0  0  0  0
 42 41  2  0  0  0  0
 43 38  2  0  0  0  0
 43 42  1  0  0  0  0
 46 42  1  0  0  0  0
 47 43  1  0  0  0  0
 48 47  1  0  0  0  0
 49 47  1  0  0  0  0
M  END
>  <minimizedAffinity>
-7.88376188

>  <minimizedRMSD>
1.15096903

$$$$
