
 OpenBabel03272501483D

 23 25  0  0  0  0  0  0  0  0999 V2000
   37.1410   31.1660   50.4060 C   0  0  0  0  0  0  0  0  0  0  0  0
   37.7590   31.4670   49.1890 C   0  0  0  0  0  0  0  0  0  0  0  0
   37.4360   30.6560   48.0750 C   0  0  0  0  0  0  0  0  0  0  0  0
   36.5430   29.6340   48.2650 N   0  0  0  0  0  0  0  0  0  0  0  0
   35.9830   29.3930   49.4560 C   0  0  0  0  0  0  0  0  0  0  0  0
   36.2720   30.1530   50.5440 N   0  0  0  0  0  0  0  0  0  0  0  0
   35.0760   28.3020   49.5060 N   0  0  0  0  0  0  0  0  0  0  0  0
   37.3360   31.7350   51.2950 H   0  0  0  0  0  0  0  0  0  0  0  0
   38.4540   32.2880   49.1110 H   0  0  0  0  0  0  0  0  0  0  0  0
   35.0750   27.4170   50.0560 H   0  0  0  0  0  0  0  0  0  0  0  0
   34.2410   28.4110   48.8560 H   0  0  0  0  0  0  0  0  0  0  0  0
   38.0380   30.9220   46.8140 N   0  0  0  0  0  0  0  0  0  0  0  0
   39.3680   31.2150   46.7700 C   0  0  0  0  0  0  0  0  0  0  0  0
   40.1040   31.2910   47.5510 H   0  0  0  0  0  0  0  0  0  0  0  0
   39.7560   31.4350   45.5000 N   0  0  0  0  0  0  0  0  0  0  0  0
   38.6720   31.2830   44.7210 C   0  0  0  0  0  0  0  0  0  0  0  0
   38.3510   31.3590   43.3650 C   0  0  0  0  0  0  0  0  0  0  0  0
   39.1680   31.6090   42.6870 H   0  0  0  0  0  0  0  0  0  0  0  0
   37.0850   31.1270   42.9610 N   0  0  0  0  0  0  0  0  0  0  0  0
   36.0920   30.8210   43.8050 C   0  0  0  0  0  0  0  0  0  0  0  0
   35.1470   30.6650   43.3450 H   0  0  0  0  0  0  0  0  0  0  0  0
   36.3440   30.7330   45.1400 N   0  0  0  0  0  0  0  0  0  0  0  0
   37.6080   30.9650   45.5380 C   0  0  0  0  0  0  0  0  0  0  0  0
  1  6  1  0  0  0  0
  1  8  1  0  0  0  0
  2  1  2  0  0  0  0
  3  4  2  0  0  0  0
  3  2  1  0  0  0  0
  4  5  1  0  0  0  0
  5  7  1  0  0  0  0
  5  6  2  0  0  0  0
  7 10  1  0  0  0  0
  9  2  1  0  0  0  0
 11  7  1  0  0  0  0
 12  3  1  0  0  0  0
 13 12  1  0  0  0  0
 13 14  1  0  0  0  0
 15 13  2  0  0  0  0
 16 15  1  0  0  0  0
 16 23  1  0  0  0  0
 17 16  2  0  0  0  0
 18 17  1  0  0  0  0
 19 17  1  0  0  0  0
 19 20  2  0  0  0  0
 20 22  1  0  0  0  0
 21 20  1  0  0  0  0
 22 23  2  0  0  0  0
 23 12  1  0  0  0  0
M  END
>  <minimizedAffinity>
-4.39593983

>  <minimizedRMSD>
1.4569242

$$$$
