
 OpenBabel03272508103D

 37 40  0  0  0  0  0  0  0  0999 V2000
   36.7150   29.5210   44.1910 Cl  0  0  0  0  0  0  0  0  0  0  0  0
   38.3520   29.8690   43.6130 C   0  0  0  0  0  0  0  0  0  0  0  0
   39.3690   30.3650   44.4280 C   0  0  0  0  0  0  0  0  0  0  0  0
   40.5990   30.5920   43.8480 C   0  0  0  0  0  0  0  0  0  0  0  0
   40.8030   30.3340   42.5120 C   0  0  0  0  0  0  0  0  0  0  0  0
   39.8120   29.8460   41.6980 C   0  0  0  0  0  0  0  0  0  0  0  0
   38.5840   29.6150   42.2590 C   0  0  0  0  0  0  0  0  0  0  0  0
   41.3250   30.9770   44.5560 H   0  0  0  0  0  0  0  0  0  0  0  0
   41.7950   30.5360   42.1200 H   0  0  0  0  0  0  0  0  0  0  0  0
   40.0100   29.6540   40.6420 H   0  0  0  0  0  0  0  0  0  0  0  0
   37.5670   29.1090   41.4020 N   0  0  0  0  0  0  0  0  0  0  0  0
   37.3470   27.8100   41.0830 C   0  0  0  0  0  0  0  0  0  0  0  0
   37.9050   26.9360   41.4260 H   0  0  0  0  0  0  0  0  0  0  0  0
   36.2990   27.6860   40.2440 N   0  0  0  0  0  0  0  0  0  0  0  0
   35.8150   28.9330   40.0010 C   0  0  0  0  0  0  0  0  0  0  0  0
   34.7840   29.4740   39.2480 C   0  0  0  0  0  0  0  0  0  0  0  0
   34.1580   28.7920   38.6800 H   0  0  0  0  0  0  0  0  0  0  0  0
   34.5920   30.8210   39.2470 N   0  0  0  0  0  0  0  0  0  0  0  0
   35.3700   31.6570   39.9550 C   0  0  0  0  0  0  0  0  0  0  0  0
   35.2240   32.7330   39.9590 H   0  0  0  0  0  0  0  0  0  0  0  0
   36.3630   31.0930   40.6740 N   0  0  0  0  0  0  0  0  0  0  0  0
   36.6180   29.7900   40.7290 C   0  0  0  0  0  0  0  0  0  0  0  0
   38.9610   30.5510   45.7170 O   0  0  0  0  0  0  0  0  0  0  0  0
   39.5000   32.6300   47.1570 O   0  0  0  0  0  0  0  0  0  0  0  0
   38.3820   31.9270   46.4650 P   0  0  1  0  0  0  0  0  0  0  0  0
   37.8050   32.9070   45.1880 O   0  0  0  0  0  0  0  0  0  0  0  0
   38.4410   33.6510   45.0430 H   0  0  0  0  0  0  0  0  0  0  0  0
   37.0860   31.5160   47.4840 O   0  0  0  0  0  0  0  0  0  0  0  0
   37.6230   30.5110   50.9900 C   0  0  0  0  0  0  0  0  0  0  0  0
   37.7370   31.3320   49.8620 C   0  0  0  0  0  0  0  0  0  0  0  0
   37.1130   30.9000   48.6830 C   0  0  0  0  0  0  0  0  0  0  0  0
   36.4370   29.7130   48.7000 N   0  0  0  0  0  0  0  0  0  0  0  0
   36.3590   28.9620   49.8110 C   0  0  0  0  0  0  0  0  0  0  0  0
   36.9460   29.3520   50.9540 N   0  0  0  0  0  0  0  0  0  0  0  0
   38.1300   30.8990   51.8820 H   0  0  0  0  0  0  0  0  0  0  0  0
   38.2470   32.2600   49.7900 H   0  0  0  0  0  0  0  0  0  0  0  0
   35.8250   28.0180   49.8340 H   0  0  0  0  0  0  0  0  0  0  0  0
  2  1  1  0  0  0  0
  2  3  1  0  0  0  0
  3 23  1  0  0  0  0
  4  3  2  0  0  0  0
  4  8  1  0  0  0  0
  5  4  1  0  0  0  0
  6  7  1  0  0  0  0
  6  5  2  0  0  0  0
  7  2  2  0  0  0  0
  9  5  1  0  0  0  0
 10  6  1  0  0  0  0
 11  7  1  0  0  0  0
 12 11  1  0  0  0  0
 12 13  1  0  0  0  0
 14 12  2  0  0  0  0
 15 14  1  0  0  0  0
 15 22  1  0  0  0  0
 16 15  2  0  0  0  0
 17 16  1  0  0  0  0
 18 16  1  0  0  0  0
 18 19  2  0  0  0  0
 19 20  1  0  0  0  0
 19 21  1  0  0  0  0
 21 22  2  0  0  0  0
 22 11  1  0  0  0  0
 23 25  1  0  0  0  0
 25 24  2  1  0  0  0
 25 28  1  0  0  0  0
 26 25  1  0  0  0  0
 27 26  1  0  0  0  0
 28 31  1  0  0  0  0
 29 35  1  0  0  0  0
 30 29  2  0  0  0  0
 31 32  2  0  0  0  0
 31 30  1  0  0  0  0
 32 33  1  0  0  0  0
 33 37  1  0  0  0  0
 33 34  2  0  0  0  0
 34 29  1  0  0  0  0
 36 30  1  0  0  0  0
M  END
>  <minimizedAffinity>
-4.90208006

>  <minimizedRMSD>
0.880767047

$$$$
