
     RDKit          3D

 45 49  0  0  0  0  0  0  0  0999 V2000
   34.1110   28.7420   45.8797 C   0  0  0  0  0  0  0  0  0  0  0  0
   34.3287   28.2815   44.5949 C   0  0  0  0  0  0  0  0  0  0  0  0
   35.3217   28.7812   43.7443 C   0  0  0  0  0  0  0  0  0  0  0  0
   36.1509   29.8188   44.2261 C   0  0  0  0  0  0  0  0  0  0  0  0
   35.9176   30.2580   45.4979 C   0  0  0  0  0  0  0  0  0  0  0  0
   34.9516   29.7680   46.3247 C   0  0  0  0  0  0  0  0  0  0  0  0
   33.3350   26.9828   47.3348 C   0  0  0  0  0  0  0  0  0  0  0  0
   33.0334   28.1405   46.6060 C   0  0  0  0  0  0  0  0  0  0  0  0
   31.7163   28.6140   46.6420 C   0  0  0  0  0  0  0  0  0  0  0  0
   30.7923   27.9390   47.3754 N   0  0  0  0  0  0  0  0  0  0  0  0
   31.1172   26.8130   48.0757 C   0  0  0  0  0  0  0  0  0  0  0  0
   32.3902   26.3396   48.0516 N   0  0  0  0  0  0  0  0  0  0  0  0
   31.2451   29.8333   45.9118 C   0  0  0  0  0  0  0  0  0  0  0  0
   29.8811   30.0378   46.1874 F   0  0  0  0  0  0  0  0  0  0  0  0
   31.9151   30.9686   46.1741 F   0  0  0  0  0  0  0  0  0  0  0  0
   31.2676   29.5876   44.5383 F   0  0  0  0  0  0  0  0  0  0  0  0
   34.6958   30.3326   47.9549 S   0  0  0  0  0  0  0  0  0  0  0  0
   34.9908   29.1705   50.8271 Cl  0  0  0  0  0  0  0  0  0  0  0  0
   36.2548   30.1328   50.1126 C   0  0  0  0  0  0  0  0  0  0  0  0
   36.1793   30.6868   48.8488 C   0  0  0  0  0  0  0  0  0  0  0  0
   37.1955   31.4476   48.3409 C   0  0  0  0  0  0  0  0  0  0  0  0
   38.3253   31.6494   49.1431 C   0  0  0  0  0  0  0  0  0  0  0  0
   38.4106   31.0934   50.4201 C   0  0  0  0  0  0  0  0  0  0  0  0
   37.3763   30.3280   50.9218 C   0  0  0  0  0  0  0  0  0  0  0  0
   33.7029   27.4820   44.1972 H   0  0  0  0  0  0  0  0  0  0  0  0
   35.3955   28.3308   42.7444 H   0  0  0  0  0  0  0  0  0  0  0  0
   36.8594   30.1015   43.4757 H   0  0  0  0  0  0  0  0  0  0  0  0
   36.6320   31.0348   45.6477 H   0  0  0  0  0  0  0  0  0  0  0  0
   34.3316   26.5878   47.3329 H   0  0  0  0  0  0  0  0  0  0  0  0
   30.3337   26.3264   48.6374 H   0  0  0  0  0  0  0  0  0  0  0  0
   37.2236   31.9407   47.4070 H   0  0  0  0  0  0  0  0  0  0  0  0
   39.1752   32.2299   48.8338 H   0  0  0  0  0  0  0  0  0  0  0  0
   39.2897   31.2516   51.0421 H   0  0  0  0  0  0  0  0  0  0  0  0
   37.4923   29.7741   52.2296 N   0  0  0  0  0  0  0  0  0  0  0  0
   36.7786   28.8405   52.9147 C   0  0  0  0  0  0  0  0  0  0  0  0
   35.9356   28.3618   52.4686 H   0  0  0  0  0  0  0  0  0  0  0  0
   37.3431   28.7060   54.1284 N   0  0  0  0  0  0  0  0  0  0  0  0
   38.3924   29.5339   54.2165 C   0  0  0  0  0  0  0  0  0  0  0  0
   39.2596   29.7284   55.2746 C   0  0  0  0  0  0  0  0  0  0  0  0
   39.1750   29.1925   56.2108 H   0  0  0  0  0  0  0  0  0  0  0  0
   40.2443   30.6309   55.1049 N   0  0  0  0  0  0  0  0  0  0  0  0
   40.3657   31.3125   53.9370 C   0  0  0  0  0  0  0  0  0  0  0  0
   41.1151   32.0560   53.6941 H   0  0  0  0  0  0  0  0  0  0  0  0
   39.5154   31.1151   52.9133 N   0  0  0  0  0  0  0  0  0  0  0  0
   38.5093   30.2280   53.0159 C   0  0  0  0  0  0  0  0  0  0  0  0
  1  6  1  0
  1  8  1  0
  2  1  2  0
  3  4  2  0
  3  2  1  0
  4  5  1  0
  5  6  2  0
  6 17  1  0
  7 12  2  0
  8  9  2  0
  8  7  1  0
  9 10  1  0
 10 11  2  0
 12 11  1  0
 13 15  1  0
 13 14  1  0
 13  9  1  0
 16 13  1  0
 17 20  1  0
 19 18  1  0
 19 24  2  0
 20 19  1  0
 21 20  2  0
 21 22  1  0
 22 23  2  0
 23 24  1  0
  2 25  1  0
  3 26  1  0
  4 27  1  0
  5 28  1  0
  7 29  1  0
 11 30  1  0
 21 31  1  0
 22 32  1  0
 23 33  1  0
 34 35  1  0
 35 36  1  0
 35 37  2  0
 37 38  1  0
 38 39  2  0
 39 40  1  0
 39 41  1  0
 41 42  2  0
 42 43  1  0
 42 44  1  0
 44 45  2  0
 45 34  1  0
 45 38  1  0
 24 34  1  0
M  ISO  8  25  14  26  14  27  14  28  14  29  14  30  14  31  14  32  14
M  ISO  4  33  14  36  15  40  16  43  16
M  END
>  <DihAtoms>  (1) 
18,23,33,34

>  <DihDeg>  (1) 
101.81332416506766

$$$$
