REMARK  Name = 
REMARK  0 active torsions:
REMARK  status: ('A' for Active; 'I' for Inactive)
REMARK                            x       y       z     vdW  Elec       q    Type
REMARK                         _______ _______ _______ _____ _____    ______ ____
ROOT
ATOM      1  C   UNL     1      37.308  30.215  51.423  0.00  0.00    +0.000 A 
ATOM      2  C   UNL     1      38.093  30.750  50.397  0.00  0.00    +0.000 A 
ATOM      3  C   UNL     1      37.740  30.420  49.067  0.00  0.00    +0.000 A 
ATOM      4  N   UNL     1      36.657  29.603  48.876  0.00  0.00    +0.000 NA
ATOM      5  C   UNL     1      35.942  29.120  49.899  0.00  0.00    +0.000 A 
ATOM      6  N   UNL     1      36.255  29.418  51.187  0.00  0.00    +0.000 NA
ATOM      7  N   UNL     1      34.847  28.286  49.552  0.00  0.00    +0.000 N 
ATOM      8  H   UNL     1      37.513  30.419  52.457  0.00  0.00    +0.000 HD
ATOM      9  H   UNL     1      38.933  31.388  50.620  0.00  0.00    +0.000 HD
ATOM     10  H   UNL     1      34.624  27.294  49.778  0.00  0.00    +0.000 HD
ATOM     11  H   UNL     1      34.118  28.769  48.946  0.00  0.00    +0.000 HD
ATOM     12  N   UNL     1      38.507  30.939  47.987  0.00  0.00    +0.000 N 
ATOM     13  C   UNL     1      39.821  31.235  48.196  0.00  0.00    +0.000 A 
ATOM     14  H   UNL     1      40.435  31.148  49.076  0.00  0.00    +0.000 HD
ATOM     15  N   UNL     1      40.379  31.710  47.069  0.00  0.00    +0.000 NA
ATOM     16  C   UNL     1      39.422  31.723  46.127  0.00  0.00    +0.000 A 
ATOM     17  C   UNL     1      39.294  32.076  44.782  0.00  0.00    +0.000 A 
ATOM     18  H   UNL     1      40.192  32.459  44.296  0.00  0.00    +0.000 HD
ATOM     19  N   UNL     1      38.106  31.933  44.160  0.00  0.00    +0.000 NA
ATOM     20  C   UNL     1      37.013  31.461  44.771  0.00  0.00    +0.000 A 
ATOM     21  H   UNL     1      36.148  31.404  44.156  0.00  0.00    +0.000 HD
ATOM     22  N   UNL     1      37.074  31.100  46.082  0.00  0.00    +0.000 NA
ATOM     23  C   UNL     1      38.262  31.244  46.698  0.00  0.00    +0.000 A 
ENDROOT
TORSDOF 0
