
 OpenBabel03272506143D

 27 29  0  0  0  0  0  0  0  0999 V2000
   38.4440   32.1550   46.8870 C   0  0  0  0  0  0  0  0  0  0  0  0
   37.5200   31.2760   47.4520 C   0  0  0  0  0  0  0  0  0  0  0  0
   37.3290   31.3310   48.8310 C   0  0  0  0  0  0  0  0  0  0  0  0
   38.0480   32.2350   49.5740 N   0  0  0  0  0  0  0  0  0  0  0  0
   38.9340   33.0710   48.9800 C   0  0  0  0  0  0  0  0  0  0  0  0
   39.1420   33.0420   47.6410 N   0  0  0  0  0  0  0  0  0  0  0  0
   37.0190   30.6170   46.7890 H   0  0  0  0  0  0  0  0  0  0  0  0
   39.4890   33.7790   49.5980 H   0  0  0  0  0  0  0  0  0  0  0  0
   36.3870   30.4330   49.4090 N   0  0  0  0  0  0  0  0  0  0  0  0
   36.2770   30.0680   50.7090 C   0  0  0  0  0  0  0  0  0  0  0  0
   36.9130   30.4260   51.5020 H   0  0  0  0  0  0  0  0  0  0  0  0
   35.2420   29.1980   50.7970 N   0  0  0  0  0  0  0  0  0  0  0  0
   34.7140   29.0220   49.5750 C   0  0  0  0  0  0  0  0  0  0  0  0
   33.6520   28.2370   49.1440 C   0  0  0  0  0  0  0  0  0  0  0  0
   33.0700   27.6120   49.8390 H   0  0  0  0  0  0  0  0  0  0  0  0
   33.3450   28.2630   47.8210 N   0  0  0  0  0  0  0  0  0  0  0  0
   34.0440   29.0240   46.9390 C   0  0  0  0  0  0  0  0  0  0  0  0
   33.8110   29.0540   45.8900 H   0  0  0  0  0  0  0  0  0  0  0  0
   35.0720   29.7780   47.3790 N   0  0  0  0  0  0  0  0  0  0  0  0
   35.4310   29.8030   48.6660 C   0  0  0  0  0  0  0  0  0  0  0  0
   38.7600   32.2400   45.5390 O   0  0  0  0  0  0  0  0  0  0  0  0
   41.2960   31.3900   45.5460 O   0  0  0  0  0  0  0  0  0  0  0  0
   39.9680   31.2820   44.8190 P   0  0  0  0  0  0  0  0  0  0  0  0
   39.3810   29.6810   44.8390 O   0  0  0  0  0  0  0  0  0  0  0  0
   40.0230   29.1050   45.3590 H   0  0  0  0  0  0  0  0  0  0  0  0
   40.2570   31.7970   43.2270 O   0  0  0  0  0  0  0  0  0  0  0  0
   39.4060   31.6980   42.7320 H   0  0  0  0  0  0  0  0  0  0  0  0
  1  2  2  0  0  0  0
  1  6  1  0  0  0  0
  2  3  1  0  0  0  0
  3  9  1  0  0  0  0
  3  4  2  0  0  0  0
  5  4  1  0  0  0  0
  5  8  1  0  0  0  0
  6  5  2  0  0  0  0
  7  2  1  0  0  0  0
  9 10  1  0  0  0  0
 10 12  2  0  0  0  0
 10 11  1  0  0  0  0
 13 12  1  0  0  0  0
 14 13  1  0  0  0  0
 14 15  1  0  0  0  0
 16 14  2  0  0  0  0
 17 19  2  0  0  0  0
 17 16  1  0  0  0  0
 18 17  1  0  0  0  0
 19 20  1  0  0  0  0
 20  9  1  0  0  0  0
 20 13  2  0  0  0  0
 21  1  1  0  0  0  0
 23 24  1  0  0  0  0
 23 21  1  0  0  0  0
 23 22  2  0  0  0  0
 24 25  1  0  0  0  0
 26 23  1  0  0  0  0
 27 26  1  0  0  0  0
M  END
>  <minimizedAffinity>
-6.05652761

>  <minimizedRMSD>
5.29487705

$$$$
