
 OpenBabel03272505263D

 34 37  0  0  0  0  0  0  0  0999 V2000
   37.3830   31.0670   47.1210 N   0  0  0  0  0  0  0  0  0  0  0  0
   36.8040   30.7330   45.9350 C   0  0  0  0  0  0  0  0  0  0  0  0
   37.2750   31.2140   44.7220 C   0  0  0  0  0  0  0  0  0  0  0  0
   38.3840   32.0680   44.7590 C   0  0  0  0  0  0  0  0  0  0  0  0
   38.8500   32.5300   43.6920 O   0  0  0  0  0  0  0  0  0  0  0  0
   38.9680   32.4040   45.9500 N   0  0  0  0  0  0  0  0  0  0  0  0
   38.4240   31.8780   47.0520 C   0  0  0  0  0  0  0  0  0  0  0  0
   38.9800   32.2060   48.1220 O   0  0  0  0  0  0  0  0  0  0  0  0
   35.9410   30.0620   45.9600 H   0  0  0  0  0  0  0  0  0  0  0  0
   36.6660   30.8650   43.4820 N   0  0  0  0  0  0  0  0  0  0  0  0
   35.5860   31.4530   42.9400 C   0  0  0  0  0  0  0  0  0  0  0  0
   35.0280   32.2760   43.3730 H   0  0  0  0  0  0  0  0  0  0  0  0
   35.2690   30.8980   41.7820 N   0  0  0  0  0  0  0  0  0  0  0  0
   36.1420   29.9100   41.5160 C   0  0  0  0  0  0  0  0  0  0  0  0
   36.2850   29.0210   40.4760 C   0  0  0  0  0  0  0  0  0  0  0  0
   35.5800   29.0620   39.6530 H   0  0  0  0  0  0  0  0  0  0  0  0
   37.3040   28.1500   40.5520 N   0  0  0  0  0  0  0  0  0  0  0  0
   38.1700   28.1170   41.5890 C   0  0  0  0  0  0  0  0  0  0  0  0
   38.9900   27.3840   41.6070 H   0  0  0  0  0  0  0  0  0  0  0  0
   38.0190   29.0040   42.6170 N   0  0  0  0  0  0  0  0  0  0  0  0
   37.0150   29.9060   42.6010 C   0  0  0  0  0  0  0  0  0  0  0  0
   37.2180   29.4510   50.4590 C   0  0  0  0  0  0  0  0  0  0  0  0
   37.7050   29.9410   49.2400 C   0  0  0  0  0  0  0  0  0  0  0  0
   36.8930   30.5720   48.3340 C   0  0  0  0  0  0  0  0  0  0  0  0
   35.5810   30.7110   48.6540 N   0  0  0  0  0  0  0  0  0  0  0  0
   35.0770   30.2450   49.8300 C   0  0  0  0  0  0  0  0  0  0  0  0
   35.8890   29.6190   50.7280 N   0  0  0  0  0  0  0  0  0  0  0  0
   37.7850   28.9520   51.2110 H   0  0  0  0  0  0  0  0  0  0  0  0
   38.7540   29.7270   49.1640 H   0  0  0  0  0  0  0  0  0  0  0  0
   34.0270   30.4140   49.9690 H   0  0  0  0  0  0  0  0  0  0  0  0
   40.1150   33.2860   45.9890 C   0  0  0  0  0  0  0  0  0  0  0  0
   39.9750   34.2680   45.0530 F   0  0  0  0  0  0  0  0  0  0  0  0
   41.3050   32.6350   45.7070 F   0  0  0  0  0  0  0  0  0  0  0  0
   40.1750   33.8910   47.2370 F   0  0  0  0  0  0  0  0  0  0  0  0
  1 24  1  0  0  0  0
  2  9  1  0  0  0  0
  2  1  1  0  0  0  0
  3  4  1  0  0  0  0
  3  2  2  0  0  0  0
  4  6  1  0  0  0  0
  5  4  2  0  0  0  0
  6 31  1  0  0  0  0
  6  7  1  0  0  0  0
  7  1  1  0  0  0  0
  7  8  2  0  0  0  0
 10  3  1  0  0  0  0
 11 12  1  0  0  0  0
 11 10  1  0  0  0  0
 13 11  2  0  0  0  0
 14 13  1  0  0  0  0
 14 21  1  0  0  0  0
 15 17  1  0  0  0  0
 15 14  2  0  0  0  0
 16 15  1  0  0  0  0
 17 18  2  0  0  0  0
 18 19  1  0  0  0  0
 18 20  1  0  0  0  0
 21 20  2  0  0  0  0
 21 10  1  0  0  0  0
 22 27  1  0  0  0  0
 22 28  1  0  0  0  0
 23 22  2  0  0  0  0
 24 25  2  0  0  0  0
 24 23  1  0  0  0  0
 25 26  1  0  0  0  0
 26 30  1  0  0  0  0
 26 27  2  0  0  0  0
 29 23  1  0  0  0  0
 31 34  1  0  0  0  0
 32 31  1  0  0  0  0
 33 31  1  0  0  0  0
M  END
>  <minimizedAffinity>
-6.2495513

>  <minimizedRMSD>
0.543550611

$$$$
