
 OpenBabel03262521103D

 27 29  0  0  0  0  0  0  0  0999 V2000
   35.5440   30.0570   46.3970 O   0  0  0  0  0  0  0  0  0  0  0  0
   34.3010   29.8280   47.2540 P   0  0  1  0  0  0  0  0  0  0  0  0
   34.0620   28.1800   47.5330 O   0  0  0  0  0  0  0  0  0  0  0  0
   33.7760   28.0010   48.4580 H   0  0  0  0  0  0  0  0  0  0  0  0
   34.4520   30.5730   48.8000 O   0  0  0  0  0  0  0  0  0  0  0  0
   35.5960   30.4590   49.5730 C   0  0  0  0  0  0  0  0  0  0  0  0
   35.8340   29.4890   50.5610 C   0  0  0  0  0  0  0  0  0  0  0  0
   37.0410   29.5280   51.2390 C   0  0  0  0  0  0  0  0  0  0  0  0
   37.9480   30.5000   50.9250 N   0  0  0  0  0  0  0  0  0  0  0  0
   37.6860   31.4330   49.9550 C   0  0  0  0  0  0  0  0  0  0  0  0
   36.5070   31.3950   49.2930 N   0  0  0  0  0  0  0  0  0  0  0  0
   35.0260   28.7830   50.7010 H   0  0  0  0  0  0  0  0  0  0  0  0
   37.1970   28.7840   51.9800 H   0  0  0  0  0  0  0  0  0  0  0  0
   38.4630   32.1700   49.7690 H   0  0  0  0  0  0  0  0  0  0  0  0
   33.0180   30.5250   46.4170 O   0  0  0  0  0  0  0  0  0  0  0  0
   32.8000   29.0080   44.0200 H   0  0  0  0  0  0  0  0  0  0  0  0
   32.0150   29.0570   44.6820 N   0  0  0  0  0  0  0  0  0  0  0  0
   32.0190   29.7510   45.8480 C   0  0  0  0  0  0  0  0  0  0  0  0
   30.8220   29.5760   46.4350 N   0  0  0  0  0  0  0  0  0  0  0  0
   30.0590   28.7900   45.6750 C   0  0  0  0  0  0  0  0  0  0  0  0
   28.7900   28.2440   45.6890 C   0  0  0  0  0  0  0  0  0  0  0  0
   28.1680   28.4830   46.5490 H   0  0  0  0  0  0  0  0  0  0  0  0
   28.3520   27.4530   44.6770 N   0  0  0  0  0  0  0  0  0  0  0  0
   29.1300   27.1710   43.6290 C   0  0  0  0  0  0  0  0  0  0  0  0
   28.8310   26.5450   42.7910 H   0  0  0  0  0  0  0  0  0  0  0  0
   30.3990   27.6550   43.5100 N   0  0  0  0  0  0  0  0  0  0  0  0
   30.8020   28.4460   44.5440 C   0  0  0  0  0  0  0  0  0  0  0  0
  2  1  2  6  0  0  0
  2  3  1  0  0  0  0
  2  5  1  0  0  0  0
  3  4  1  0  0  0  0
  5  6  1  0  0  0  0
  6  7  1  0  0  0  0
  7 12  1  0  0  0  0
  7  8  2  0  0  0  0
  8 13  1  0  0  0  0
  9  8  1  0  0  0  0
 10  9  2  0  0  0  0
 11  6  2  0  0  0  0
 11 10  1  0  0  0  0
 14 10  1  0  0  0  0
 15  2  1  0  0  0  0
 16 17  1  0  0  0  0
 17 18  1  0  0  0  0
 18 15  1  0  0  0  0
 18 19  2  0  0  0  0
 20 21  1  0  0  0  0
 20 19  1  0  0  0  0
 21 22  1  0  0  0  0
 23 21  2  0  0  0  0
 24 23  1  0  0  0  0
 25 24  1  0  0  0  0
 26 24  2  0  0  0  0
 26 27  1  0  0  0  0
 27 17  1  0  0  0  0
 27 20  2  0  0  0  0
M  END
>  <minimizedAffinity>
-3.97038984

>  <minimizedRMSD>
1.14365482

$$$$
