
 OpenBabel03272500503D

 48 54  0  0  1  0  0  0  0  0999 V2000
   32.9150   28.3500   47.3640 C   0  0  0  0  0  0  0  0  0  0  0  0
   33.4790   28.3770   46.0950 C   0  0  0  0  0  0  0  0  0  0  0  0
   34.6860   28.9960   46.1960 N   0  0  0  0  0  0  0  0  0  0  0  0
   34.8880   29.3550   47.4920 C   0  0  0  0  0  0  0  0  0  0  0  0
   33.8040   28.9550   48.1910 N   0  0  0  0  0  0  0  0  0  0  0  0
   33.0830   27.9950   45.1650 H   0  0  0  0  0  0  0  0  0  0  0  0
   35.4170   29.2140   45.4680 H   0  0  0  0  0  0  0  0  0  0  0  0
   36.0740   30.0610   48.0480 C   0  0  0  0  0  0  0  0  0  0  0  0
   36.4130   29.9610   49.3980 C   0  0  0  0  0  0  0  0  0  0  0  0
   37.8980   31.0040   49.5370 S   0  0  0  0  0  0  0  0  0  0  0  0
   37.8220   31.4240   47.6750 C   0  0  0  0  0  0  0  0  0  0  0  0
   36.8930   30.8260   47.3770 N   0  0  0  0  0  0  0  0  0  0  0  0
   35.9160   29.4000   50.1840 H   0  0  0  0  0  0  0  0  0  0  0  0
   38.7100   32.2660   46.8940 N   0  0  0  0  0  0  0  0  0  0  0  0
   39.5610   33.0720   47.5420 C   0  0  0  0  0  0  0  0  0  0  0  0
   39.7250   33.2280   48.6000 H   0  0  0  0  0  0  0  0  0  0  0  0
   40.2250   33.7020   46.5550 N   0  0  0  0  0  0  0  0  0  0  0  0
   39.7910   33.2910   45.3500 C   0  0  0  0  0  0  0  0  0  0  0  0
   40.0900   33.5740   44.0230 C   0  0  0  0  0  0  0  0  0  0  0  0
   40.8620   34.3060   43.8260 H   0  0  0  0  0  0  0  0  0  0  0  0
   39.4170   32.9370   43.0480 N   0  0  0  0  0  0  0  0  0  0  0  0
   38.4530   32.0240   43.2800 C   0  0  0  0  0  0  0  0  0  0  0  0
   37.9410   31.5380   42.4550 H   0  0  0  0  0  0  0  0  0  0  0  0
   38.1620   31.7480   44.5640 N   0  0  0  0  0  0  0  0  0  0  0  0
   38.8030   32.3540   45.5730 C   0  0  0  0  0  0  0  0  0  0  0  0
   31.1890   27.6010   49.0990 C   0  0  1  0  0  0  0  0  0  0  0  0
   31.4950   26.3520   48.1860 C   0  0  0  0  0  0  0  0  0  0  0  0
   31.5760   27.7680   47.6980 C   0  0  2  0  0  0  0  0  0  0  0  0
   31.9590   27.7870   49.8740 H   0  0  0  0  0  0  0  0  0  0  0  0
   32.4520   25.8470   48.3840 H   0  0  0  0  0  0  0  0  0  0  0  0
   30.6430   25.7170   47.9290 H   0  0  0  0  0  0  0  0  0  0  0  0
   30.7850   28.0040   46.9540 H   0  0  0  0  0  0  0  0  0  0  0  0
   27.7720   28.6120   49.5770 C   0  0  0  0  0  0  0  0  0  0  0  0
   27.8720   27.6000   50.5320 C   0  0  0  0  0  0  0  0  0  0  0  0
   29.1850   27.0840   50.4740 C   0  0  0  0  0  0  0  0  0  0  0  0
   29.8140   27.7780   49.5170 N   0  0  0  0  0  0  0  0  0  0  0  0
   28.9620   28.6490   49.0270 N   0  0  0  0  0  0  0  0  0  0  0  0
   27.1550   27.1880   51.2470 H   0  0  0  0  0  0  0  0  0  0  0  0
   29.6180   26.3020   51.0580 H   0  0  0  0  0  0  0  0  0  0  0  0
   25.2770   28.8200   49.5800 C   0  0  0  0  0  0  0  0  0  0  0  0
   26.5690   29.3590   49.3590 C   0  0  0  0  0  0  0  0  0  0  0  0
   26.6290   30.6600   48.9150 C   0  0  0  0  0  0  0  0  0  0  0  0
   25.4730   31.3500   48.7140 N   0  0  0  0  0  0  0  0  0  0  0  0
   24.2560   30.7920   48.9400 C   0  0  0  0  0  0  0  0  0  0  0  0
   24.1590   29.5160   49.3760 N   0  0  0  0  0  0  0  0  0  0  0  0
   25.2160   27.7970   49.9300 H   0  0  0  0  0  0  0  0  0  0  0  0
   27.5890   31.1230   48.7290 H   0  0  0  0  0  0  0  0  0  0  0  0
   23.4810   31.5120   48.7170 H   0  0  0  0  0  0  0  0  0  0  0  0
  1 28  1  0  0  0  0
  1  5  1  0  0  0  0
  2  3  1  0  0  0  0
  2  1  2  0  0  0  0
  3  4  1  0  0  0  0
  4  8  1  0  0  0  0
  4  5  2  0  0  0  0
  6  2  1  0  0  0  0
  7  3  1  0  0  0  0
  8  9  2  0  0  0  0
  9 10  1  0  0  0  0
  9 13  1  0  0  0  0
 11 10  1  0  0  0  0
 12 11  2  0  0  0  0
 12  8  1  0  0  0  0
 14 15  1  0  0  0  0
 14 11  1  0  0  0  0
 15 16  1  0  0  0  0
 17 15  2  0  0  0  0
 18 25  1  0  0  0  0
 18 17  1  0  0  0  0
 19 18  2  0  0  0  0
 20 19  1  0  0  0  0
 21 22  2  0  0  0  0
 21 19  1  0  0  0  0
 22 24  1  0  0  0  0
 23 22  1  0  0  0  0
 24 25  2  0  0  0  0
 25 14  1  0  0  0  0
 26 36  1  0  0  0  0
 26 29  1  1  0  0  0
 27 30  1  0  0  0  0
 27 26  1  0  0  0  0
 28 32  1  6  0  0  0
 28 27  1  0  0  0  0
 28 26  1  0  0  0  0
 31 27  1  0  0  0  0
 33 34  1  0  0  0  0
 34 38  1  0  0  0  0
 35 34  2  0  0  0  0
 35 39  1  0  0  0  0
 36 35  1  0  0  0  0
 37 36  1  0  0  0  0
 37 33  2  0  0  0  0
 40 46  1  0  0  0  0
 41 33  1  0  0  0  0
 41 40  2  0  0  0  0
 42 41  1  0  0  0  0
 43 42  2  0  0  0  0
 43 44  1  0  0  0  0
 44 45  2  0  0  0  0
 45 40  1  0  0  0  0
 47 42  1  0  0  0  0
 48 44  1  0  0  0  0
M  END
>  <minimizedAffinity>
-7.60062218

>  <minimizedRMSD>
2.33554316

$$$$
