
 OpenBabel03272506103D

 47 51  0  0  0  0  0  0  0  0999 V2000
   36.8220   26.2110   32.3800 C   0  0  0  0  0  0  0  0  0  0  0  0
   35.7860   26.1410   32.7700 H   0  0  0  0  0  0  0  0  0  0  0  0
   36.7500   26.0680   31.2740 H   0  0  0  0  0  0  0  0  0  0  0  0
   37.6680   25.0990   32.9570 C   0  0  0  0  0  0  0  0  0  0  0  0
   38.3000   24.1630   32.0500 C   0  0  0  0  0  0  0  0  0  0  0  0
   39.1350   23.1090   33.2060 S   0  0  0  0  0  0  0  0  0  0  0  0
   38.5420   24.0410   34.7310 C   0  0  0  0  0  0  0  0  0  0  0  0
   37.8910   24.8930   34.2150 N   0  0  0  0  0  0  0  0  0  0  0  0
   38.7910   23.8140   36.1460 N   0  0  0  0  0  0  0  0  0  0  0  0
   40.0260   23.1790   36.4750 C   0  0  0  0  0  0  0  0  0  0  0  0
   40.0970   22.6540   37.8640 C   0  0  0  0  0  0  0  0  0  0  0  0
   38.7990   22.6460   38.5400 N   0  0  0  0  0  0  0  0  0  0  0  0
   38.3460   24.0370   38.4780 C   0  0  0  0  0  0  0  0  0  0  0  0
   37.7900   24.2360   37.0960 C   0  0  0  0  0  0  0  0  0  0  0  0
   38.2420   24.1590   31.0090 H   0  0  0  0  0  0  0  0  0  0  0  0
   40.9060   23.8020   36.1980 H   0  0  0  0  0  0  0  0  0  0  0  0
   40.1190   22.2820   35.7940 H   0  0  0  0  0  0  0  0  0  0  0  0
   40.4580   21.5970   37.9340 H   0  0  0  0  0  0  0  0  0  0  0  0
   40.8310   23.2730   38.4190 H   0  0  0  0  0  0  0  0  0  0  0  0
   38.9960   22.4760   39.5620 H   0  0  0  0  0  0  0  0  0  0  0  0
   37.6670   24.3120   39.2830 H   0  0  0  0  0  0  0  0  0  0  0  0
   39.2340   24.7240   38.5670 H   0  0  0  0  0  0  0  0  0  0  0  0
   36.9090   23.5640   36.9910 H   0  0  0  0  0  0  0  0  0  0  0  0
   37.5090   25.2870   36.8800 H   0  0  0  0  0  0  0  0  0  0  0  0
   37.4110   27.5480   32.6740 C   0  0  0  0  0  0  0  0  0  0  0  0
   38.2860   27.7510   32.0280 H   0  0  0  0  0  0  0  0  0  0  0  0
   37.6260   27.5940   33.7500 H   0  0  0  0  0  0  0  0  0  0  0  0
   35.6410   30.3070   30.9300 C   0  0  0  0  0  0  0  0  0  0  0  0
   34.5480   30.5530   31.7450 C   0  0  0  0  0  0  0  0  0  0  0  0
   34.4220   29.7690   32.8910 C   0  0  0  0  0  0  0  0  0  0  0  0
   35.3480   28.8210   33.1620 N   0  0  0  0  0  0  0  0  0  0  0  0
   36.3980   28.6300   32.3190 C   0  0  0  0  0  0  0  0  0  0  0  0
   36.5290   29.3650   31.2320 N   0  0  0  0  0  0  0  0  0  0  0  0
   35.6730   30.9510   30.0600 H   0  0  0  0  0  0  0  0  0  0  0  0
   33.7490   31.2710   31.6390 H   0  0  0  0  0  0  0  0  0  0  0  0
   33.3980   29.8160   33.8940 N   0  0  0  0  0  0  0  0  0  0  0  0
   32.1710   29.2210   33.8780 C   0  0  0  0  0  0  0  0  0  0  0  0
   31.8380   28.6150   33.0460 H   0  0  0  0  0  0  0  0  0  0  0  0
   31.5680   29.5570   35.0440 N   0  0  0  0  0  0  0  0  0  0  0  0
   32.3790   30.3390   35.7780 C   0  0  0  0  0  0  0  0  0  0  0  0
   32.3070   30.9630   37.0070 C   0  0  0  0  0  0  0  0  0  0  0  0
   31.4040   30.8450   37.5930 H   0  0  0  0  0  0  0  0  0  0  0  0
   33.3530   31.7110   37.4660 N   0  0  0  0  0  0  0  0  0  0  0  0
   34.4820   31.8520   36.7220 C   0  0  0  0  0  0  0  0  0  0  0  0
   35.2790   32.4700   37.1630 H   0  0  0  0  0  0  0  0  0  0  0  0
   34.5900   31.2580   35.5190 N   0  0  0  0  0  0  0  0  0  0  0  0
   33.5480   30.5110   35.0560 C   0  0  0  0  0  0  0  0  0  0  0  0
  1 25  1  0  0  0  0
  1  2  1  0  0  0  0
  1  4  1  0  0  0  0
  3  1  1  0  0  0  0
  4  8  1  0  0  0  0
  5  4  2  0  0  0  0
  5  6  1  0  0  0  0
  6  7  1  0  0  0  0
  7  9  1  0  0  0  0
  8  7  2  0  0  0  0
  9 10  1  0  0  0  0
  9 14  1  0  0  0  0
 10 11  1  0  0  0  0
 11 18  1  0  0  0  0
 11 19  1  0  0  0  0
 11 12  1  0  0  0  0
 12 20  1  0  0  0  0
 13 12  1  0  0  0  0
 13 22  1  0  0  0  0
 13 21  1  0  0  0  0
 14 13  1  0  0  0  0
 15  5  1  0  0  0  0
 16 10  1  0  0  0  0
 17 10  1  0  0  0  0
 23 14  1  0  0  0  0
 24 14  1  0  0  0  0
 25 27  1  0  0  0  0
 26 25  1  0  0  0  0
 28 33  2  0  0  0  0
 28 29  1  0  0  0  0
 29 30  2  0  0  0  0
 30 31  1  0  0  0  0
 30 36  1  0  0  0  0
 32 25  1  0  0  0  0
 32 31  2  0  0  0  0
 33 32  1  0  0  0  0
 34 28  1  0  0  0  0
 35 29  1  0  0  0  0
 36 47  1  0  0  0  0
 37 36  1  0  0  0  0
 37 39  2  0  0  0  0
 38 37  1  0  0  0  0
 39 40  1  0  0  0  0
 40 41  1  0  0  0  0
 41 43  2  0  0  0  0
 41 42  1  0  0  0  0
 44 45  1  0  0  0  0
 44 43  1  0  0  0  0
 46 44  2  0  0  0  0
 47 46  1  0  0  0  0
 47 40  2  0  0  0  0
M  END
>  <minimizedAffinity>
-6.52011728

$$$$

 OpenBabel03272506103D

 47 51  0  0  0  0  0  0  0  0999 V2000
   37.9420   26.5840   32.1130 C   0  0  0  0  0  0  0  0  0  0  0  0
   37.7710   26.3900   31.0340 H   0  0  0  0  0  0  0  0  0  0  0  0
   38.5990   27.4860   32.1680 H   0  0  0  0  0  0  0  0  0  0  0  0
   38.6700   25.4160   32.7390 C   0  0  0  0  0  0  0  0  0  0  0  0
   39.4230   24.5240   31.8810 C   0  0  0  0  0  0  0  0  0  0  0  0
   40.0500   23.3780   33.0810 S   0  0  0  0  0  0  0  0  0  0  0  0
   39.2370   24.2260   34.5530 C   0  0  0  0  0  0  0  0  0  0  0  0
   38.6890   25.1250   34.0000 N   0  0  0  0  0  0  0  0  0  0  0  0
   39.2560   23.9020   35.9710 N   0  0  0  0  0  0  0  0  0  0  0  0
   40.4150   23.2170   36.4460 C   0  0  0  0  0  0  0  0  0  0  0  0
   40.2570   22.6030   37.7910 C   0  0  0  0  0  0  0  0  0  0  0  0
   38.8680   22.5840   38.2530 N   0  0  0  0  0  0  0  0  0  0  0  0
   38.4520   23.9870   38.2140 C   0  0  0  0  0  0  0  0  0  0  0  0
   38.1240   24.2880   36.7790 C   0  0  0  0  0  0  0  0  0  0  0  0
   39.5300   24.5890   30.8460 H   0  0  0  0  0  0  0  0  0  0  0  0
   41.3350   23.8340   36.3530 H   0  0  0  0  0  0  0  0  0  0  0  0
   40.6000   22.3640   35.7290 H   0  0  0  0  0  0  0  0  0  0  0  0
   40.5870   21.5350   37.8450 H   0  0  0  0  0  0  0  0  0  0  0  0
   40.9040   23.1670   38.4950 H   0  0  0  0  0  0  0  0  0  0  0  0
   38.9000   22.3440   39.2790 H   0  0  0  0  0  0  0  0  0  0  0  0
   37.6580   24.2270   38.9190 H   0  0  0  0  0  0  0  0  0  0  0  0
   39.3240   24.6450   38.4860 H   0  0  0  0  0  0  0  0  0  0  0  0
   37.2610   23.6460   36.4920 H   0  0  0  0  0  0  0  0  0  0  0  0
   37.8960   25.3570   36.5920 H   0  0  0  0  0  0  0  0  0  0  0  0
   36.6560   26.8590   32.8130 C   0  0  0  0  0  0  0  0  0  0  0  0
   36.7610   26.7320   33.9080 H   0  0  0  0  0  0  0  0  0  0  0  0
   35.8810   26.2270   32.3600 H   0  0  0  0  0  0  0  0  0  0  0  0
   35.9970   30.1720   31.2700 C   0  0  0  0  0  0  0  0  0  0  0  0
   35.6050   30.9530   32.3450 C   0  0  0  0  0  0  0  0  0  0  0  0
   35.5670   30.3390   33.5950 C   0  0  0  0  0  0  0  0  0  0  0  0
   35.9070   29.0360   33.7150 N   0  0  0  0  0  0  0  0  0  0  0  0
   36.2830   28.3240   32.6190 C   0  0  0  0  0  0  0  0  0  0  0  0
   36.3240   28.8930   31.4300 N   0  0  0  0  0  0  0  0  0  0  0  0
   36.0020   30.7130   30.3330 H   0  0  0  0  0  0  0  0  0  0  0  0
   35.3120   31.9920   32.3790 H   0  0  0  0  0  0  0  0  0  0  0  0
   35.2010   30.9130   34.8580 N   0  0  0  0  0  0  0  0  0  0  0  0
   35.9930   31.5760   35.7480 C   0  0  0  0  0  0  0  0  0  0  0  0
   37.0470   31.7410   35.5650 H   0  0  0  0  0  0  0  0  0  0  0  0
   35.1950   31.9240   36.7860 N   0  0  0  0  0  0  0  0  0  0  0  0
   33.9390   31.4980   36.5690 C   0  0  0  0  0  0  0  0  0  0  0  0
   32.7400   31.5590   37.2500 C   0  0  0  0  0  0  0  0  0  0  0  0
   32.7190   32.0590   38.2120 H   0  0  0  0  0  0  0  0  0  0  0  0
   31.6130   31.0010   36.7200 N   0  0  0  0  0  0  0  0  0  0  0  0
   31.6510   30.3770   35.5140 C   0  0  0  0  0  0  0  0  0  0  0  0
   30.7000   29.9530   35.1560 H   0  0  0  0  0  0  0  0  0  0  0  0
   32.8010   30.2970   34.8180 N   0  0  0  0  0  0  0  0  0  0  0  0
   33.9300   30.8520   35.3440 C   0  0  0  0  0  0  0  0  0  0  0  0
  1  3  1  0  0  0  0
  1  4  1  0  0  0  0
  1 25  1  0  0  0  0
  2  1  1  0  0  0  0
  4  8  1  0  0  0  0
  5  4  2  0  0  0  0
  5  6  1  0  0  0  0
  6  7  1  0  0  0  0
  7  9  1  0  0  0  0
  8  7  2  0  0  0  0
  9 10  1  0  0  0  0
  9 14  1  0  0  0  0
 10 11  1  0  0  0  0
 11 18  1  0  0  0  0
 11 12  1  0  0  0  0
 11 19  1  0  0  0  0
 12 20  1  0  0  0  0
 13 12  1  0  0  0  0
 13 22  1  0  0  0  0
 13 21  1  0  0  0  0
 14 13  1  0  0  0  0
 15  5  1  0  0  0  0
 16 10  1  0  0  0  0
 17 10  1  0  0  0  0
 23 14  1  0  0  0  0
 24 14  1  0  0  0  0
 25 26  1  0  0  0  0
 27 25  1  0  0  0  0
 28 33  2  0  0  0  0
 28 29  1  0  0  0  0
 29 35  1  0  0  0  0
 29 30  2  0  0  0  0
 30 31  1  0  0  0  0
 30 36  1  0  0  0  0
 32 25  1  0  0  0  0
 32 31  2  0  0  0  0
 33 32  1  0  0  0  0
 34 28  1  0  0  0  0
 36 47  1  0  0  0  0
 36 37  1  0  0  0  0
 37 39  2  0  0  0  0
 38 37  1  0  0  0  0
 40 39  1  0  0  0  0
 40 41  1  0  0  0  0
 41 42  1  0  0  0  0
 43 41  2  0  0  0  0
 44 43  1  0  0  0  0
 45 44  1  0  0  0  0
 46 47  1  0  0  0  0
 46 44  2  0  0  0  0
 47 40  2  0  0  0  0
M  END
>  <minimizedAffinity>
-6.30260611

$$$$

 OpenBabel03272506103D

 47 51  0  0  0  0  0  0  0  0999 V2000
   36.5240   24.8940   31.8860 C   0  0  0  0  0  0  0  0  0  0  0  0
   35.6130   25.0290   32.5050 H   0  0  0  0  0  0  0  0  0  0  0  0
   36.1930   24.3780   30.9520 H   0  0  0  0  0  0  0  0  0  0  0  0
   37.5110   24.0030   32.6060 C   0  0  0  0  0  0  0  0  0  0  0  0
   38.2630   23.0330   31.8360 C   0  0  0  0  0  0  0  0  0  0  0  0
   39.2320   22.2850   33.1190 S   0  0  0  0  0  0  0  0  0  0  0  0
   38.5190   23.3490   34.5000 C   0  0  0  0  0  0  0  0  0  0  0  0
   37.7600   24.0200   33.8750 N   0  0  0  0  0  0  0  0  0  0  0  0
   38.7950   23.3720   35.9280 N   0  0  0  0  0  0  0  0  0  0  0  0
   40.1040   22.9630   36.3230 C   0  0  0  0  0  0  0  0  0  0  0  0
   40.2440   22.6670   37.7740 C   0  0  0  0  0  0  0  0  0  0  0  0
   38.9580   22.5890   38.4690 N   0  0  0  0  0  0  0  0  0  0  0  0
   38.3230   23.8820   38.2090 C   0  0  0  0  0  0  0  0  0  0  0  0
   37.7460   23.7960   36.8240 C   0  0  0  0  0  0  0  0  0  0  0  0
   38.2060   22.8660   30.8080 H   0  0  0  0  0  0  0  0  0  0  0  0
   40.8920   23.6480   35.9390 H   0  0  0  0  0  0  0  0  0  0  0  0
   40.3160   21.9940   35.7810 H   0  0  0  0  0  0  0  0  0  0  0  0
   40.7430   21.6900   37.9920 H   0  0  0  0  0  0  0  0  0  0  0  0
   40.8880   23.4550   38.2160 H   0  0  0  0  0  0  0  0  0  0  0  0
   39.1760   22.6010   39.5000 H   0  0  0  0  0  0  0  0  0  0  0  0
   37.6120   24.1820   38.9770 H   0  0  0  0  0  0  0  0  0  0  0  0
   39.1110   24.6860   38.1760 H   0  0  0  0  0  0  0  0  0  0  0  0
   36.9630   23.0050   36.8370 H   0  0  0  0  0  0  0  0  0  0  0  0
   37.3260   24.7550   36.4590 H   0  0  0  0  0  0  0  0  0  0  0  0
   37.1320   26.2100   31.5430 C   0  0  0  0  0  0  0  0  0  0  0  0
   36.7760   26.5710   30.5580 H   0  0  0  0  0  0  0  0  0  0  0  0
   38.2230   26.1090   31.6160 H   0  0  0  0  0  0  0  0  0  0  0  0
   36.7020   28.2080   34.6430 C   0  0  0  0  0  0  0  0  0  0  0  0
   35.7630   29.1610   34.2820 C   0  0  0  0  0  0  0  0  0  0  0  0
   35.2810   29.1140   32.9750 C   0  0  0  0  0  0  0  0  0  0  0  0
   35.7340   28.1640   32.1250 N   0  0  0  0  0  0  0  0  0  0  0  0
   36.6580   27.2580   32.5430 C   0  0  0  0  0  0  0  0  0  0  0  0
   37.1220   27.2910   33.7770 N   0  0  0  0  0  0  0  0  0  0  0  0
   37.0310   28.3050   35.6700 H   0  0  0  0  0  0  0  0  0  0  0  0
   35.3280   29.9620   34.8610 H   0  0  0  0  0  0  0  0  0  0  0  0
   34.3160   29.9720   32.3510 N   0  0  0  0  0  0  0  0  0  0  0  0
   34.5130   30.8840   31.3570 C   0  0  0  0  0  0  0  0  0  0  0  0
   35.4880   31.0530   30.9180 H   0  0  0  0  0  0  0  0  0  0  0  0
   33.3040   31.4430   31.1060 N   0  0  0  0  0  0  0  0  0  0  0  0
   32.3700   30.9090   31.9110 C   0  0  0  0  0  0  0  0  0  0  0  0
   31.0130   31.0780   32.1030 C   0  0  0  0  0  0  0  0  0  0  0  0
   30.4940   31.8070   31.4920 H   0  0  0  0  0  0  0  0  0  0  0  0
   30.3490   30.3430   33.0410 N   0  0  0  0  0  0  0  0  0  0  0  0
   31.0110   29.4320   33.8020 C   0  0  0  0  0  0  0  0  0  0  0  0
   30.4040   28.8790   34.5360 H   0  0  0  0  0  0  0  0  0  0  0  0
   32.3340   29.2370   33.6440 N   0  0  0  0  0  0  0  0  0  0  0  0
   33.0020   29.9700   32.7080 C   0  0  0  0  0  0  0  0  0  0  0  0
  1  2  1  0  0  0  0
  1  4  1  0  0  0  0
  3  1  1  0  0  0  0
  4  8  1  0  0  0  0
  5  4  2  0  0  0  0
  5  6  1  0  0  0  0
  6  7  1  0  0  0  0
  7  9  1  0  0  0  0
  8  7  2  0  0  0  0
  9 10  1  0  0  0  0
  9 14  1  0  0  0  0
 10 11  1  0  0  0  0
 11 18  1  0  0  0  0
 11 19  1  0  0  0  0
 11 12  1  0  0  0  0
 12 20  1  0  0  0  0
 13 12  1  0  0  0  0
 13 21  1  0  0  0  0
 14 23  1  0  0  0  0
 14 13  1  0  0  0  0
 15  5  1  0  0  0  0
 16 10  1  0  0  0  0
 17 10  1  0  0  0  0
 22 13  1  0  0  0  0
 24 14  1  0  0  0  0
 25 27  1  0  0  0  0
 25  1  1  0  0  0  0
 25 32  1  0  0  0  0
 26 25  1  0  0  0  0
 28 34  1  0  0  0  0
 29 28  1  0  0  0  0
 29 35  1  0  0  0  0
 30 29  2  0  0  0  0
 31 32  2  0  0  0  0
 31 30  1  0  0  0  0
 32 33  1  0  0  0  0
 33 28  2  0  0  0  0
 36 47  1  0  0  0  0
 36 30  1  0  0  0  0
 37 36  1  0  0  0  0
 38 37  1  0  0  0  0
 39 37  2  0  0  0  0
 39 40  1  0  0  0  0
 40 41  2  0  0  0  0
 40 47  1  0  0  0  0
 41 43  1  0  0  0  0
 42 41  1  0  0  0  0
 43 44  2  0  0  0  0
 44 45  1  0  0  0  0
 46 44  1  0  0  0  0
 47 46  2  0  0  0  0
M  END
>  <minimizedAffinity>
-6.22441673

$$$$

 OpenBabel03272506103D

 47 51  0  0  0  0  0  0  0  0999 V2000
   36.9560   26.9610   32.8410 C   0  0  0  0  0  0  0  0  0  0  0  0
   35.9840   26.6710   32.3910 H   0  0  0  0  0  0  0  0  0  0  0  0
   37.5280   27.4870   32.0370 H   0  0  0  0  0  0  0  0  0  0  0  0
   37.7250   25.7270   33.2530 C   0  0  0  0  0  0  0  0  0  0  0  0
   38.2340   24.8470   32.2210 C   0  0  0  0  0  0  0  0  0  0  0  0
   39.0220   23.6070   33.2150 S   0  0  0  0  0  0  0  0  0  0  0  0
   38.5760   24.4120   34.8580 C   0  0  0  0  0  0  0  0  0  0  0  0
   37.9810   25.3660   34.4690 N   0  0  0  0  0  0  0  0  0  0  0  0
   38.8620   24.0100   36.2270 N   0  0  0  0  0  0  0  0  0  0  0  0
   40.0500   23.2440   36.4240 C   0  0  0  0  0  0  0  0  0  0  0  0
   40.1320   22.5650   37.7440 C   0  0  0  0  0  0  0  0  0  0  0  0
   38.8660   22.5900   38.4800 N   0  0  0  0  0  0  0  0  0  0  0  0
   38.5350   24.0120   38.5890 C   0  0  0  0  0  0  0  0  0  0  0  0
   37.9420   24.4060   37.2660 C   0  0  0  0  0  0  0  0  0  0  0  0
   38.1330   24.9630   31.1890 H   0  0  0  0  0  0  0  0  0  0  0  0
   40.9680   23.8190   36.1710 H   0  0  0  0  0  0  0  0  0  0  0  0
   40.0350   22.4230   35.6470 H   0  0  0  0  0  0  0  0  0  0  0  0
   40.4010   21.4810   37.6830 H   0  0  0  0  0  0  0  0  0  0  0  0
   40.9390   23.0570   38.3240 H   0  0  0  0  0  0  0  0  0  0  0  0
   39.0900   22.2920   39.4660 H   0  0  0  0  0  0  0  0  0  0  0  0
   37.9160   24.2510   39.4510 H   0  0  0  0  0  0  0  0  0  0  0  0
   39.4820   24.6090   38.7050 H   0  0  0  0  0  0  0  0  0  0  0  0
   37.0020   23.8250   37.1340 H   0  0  0  0  0  0  0  0  0  0  0  0
   37.7440   25.4940   37.1760 H   0  0  0  0  0  0  0  0  0  0  0  0
   36.7530   27.8830   33.9940 C   0  0  0  0  0  0  0  0  0  0  0  0
   37.6780   28.4460   34.2250 H   0  0  0  0  0  0  0  0  0  0  0  0
   36.3650   27.2930   34.8350 H   0  0  0  0  0  0  0  0  0  0  0  0
   34.5370   30.1210   32.0260 C   0  0  0  0  0  0  0  0  0  0  0  0
   33.8860   30.8620   32.9990 C   0  0  0  0  0  0  0  0  0  0  0  0
   34.2100   30.5910   34.3270 C   0  0  0  0  0  0  0  0  0  0  0  0
   35.1250   29.6370   34.6150 N   0  0  0  0  0  0  0  0  0  0  0  0
   35.7290   28.9450   33.6120 C   0  0  0  0  0  0  0  0  0  0  0  0
   35.4320   29.1920   32.3510 N   0  0  0  0  0  0  0  0  0  0  0  0
   34.2360   30.3850   31.0210 H   0  0  0  0  0  0  0  0  0  0  0  0
   33.1440   31.6400   32.8990 H   0  0  0  0  0  0  0  0  0  0  0  0
   33.6890   31.2050   35.5140 N   0  0  0  0  0  0  0  0  0  0  0  0
   32.7280   30.7340   36.3590 C   0  0  0  0  0  0  0  0  0  0  0  0
   32.2370   29.7830   36.1960 H   0  0  0  0  0  0  0  0  0  0  0  0
   32.5820   31.6670   37.3300 N   0  0  0  0  0  0  0  0  0  0  0  0
   33.4180   32.6970   37.1140 C   0  0  0  0  0  0  0  0  0  0  0  0
   33.7040   33.8910   37.7460 C   0  0  0  0  0  0  0  0  0  0  0  0
   33.1620   34.1370   38.6510 H   0  0  0  0  0  0  0  0  0  0  0  0
   34.6470   34.7360   37.2370 N   0  0  0  0  0  0  0  0  0  0  0  0
   35.3210   34.4170   36.1010 C   0  0  0  0  0  0  0  0  0  0  0  0
   36.0650   35.1510   35.7550 H   0  0  0  0  0  0  0  0  0  0  0  0
   35.0710   33.2620   35.4560 N   0  0  0  0  0  0  0  0  0  0  0  0
   34.1290   32.4140   35.9600 C   0  0  0  0  0  0  0  0  0  0  0  0
  1  4  1  0  0  0  0
  1 25  1  0  0  0  0
  2  1  1  0  0  0  0
  3  1  1  0  0  0  0
  4  8  1  0  0  0  0
  5  6  1  0  0  0  0
  5  4  2  0  0  0  0
  6  7  1  0  0  0  0
  7  9  1  0  0  0  0
  8  7  2  0  0  0  0
  9 10  1  0  0  0  0
  9 14  1  0  0  0  0
 10 11  1  0  0  0  0
 11 19  1  0  0  0  0
 11 12  1  0  0  0  0
 12 13  1  0  0  0  0
 12 20  1  0  0  0  0
 13 22  1  0  0  0  0
 13 21  1  0  0  0  0
 14 13  1  0  0  0  0
 15  5  1  0  0  0  0
 16 10  1  0  0  0  0
 17 10  1  0  0  0  0
 18 11  1  0  0  0  0
 23 14  1  0  0  0  0
 24 14  1  0  0  0  0
 25 26  1  0  0  0  0
 25 27  1  0  0  0  0
 28 33  2  0  0  0  0
 28 29  1  0  0  0  0
 29 30  2  0  0  0  0
 30 31  1  0  0  0  0
 30 36  1  0  0  0  0
 32 25  1  0  0  0  0
 32 31  2  0  0  0  0
 33 32  1  0  0  0  0
 34 28  1  0  0  0  0
 35 29  1  0  0  0  0
 36 47  1  0  0  0  0
 36 37  1  0  0  0  0
 37 39  2  0  0  0  0
 38 37  1  0  0  0  0
 40 39  1  0  0  0  0
 40 41  1  0  0  0  0
 41 42  1  0  0  0  0
 43 41  2  0  0  0  0
 44 43  1  0  0  0  0
 45 44  1  0  0  0  0
 46 47  1  0  0  0  0
 46 44  2  0  0  0  0
 47 40  2  0  0  0  0
M  END
>  <minimizedAffinity>
-6.19912672

$$$$

 OpenBabel03272506103D

 47 51  0  0  0  0  0  0  0  0999 V2000
   37.7150   25.5340   31.2350 C   0  0  0  0  0  0  0  0  0  0  0  0
   37.4680   26.1160   30.3240 H   0  0  0  0  0  0  0  0  0  0  0  0
   38.6370   26.0000   31.6630 H   0  0  0  0  0  0  0  0  0  0  0  0
   38.0260   24.1020   30.8650 C   0  0  0  0  0  0  0  0  0  0  0  0
   39.1510   23.8360   29.9930 C   0  0  0  0  0  0  0  0  0  0  0  0
   39.0660   22.0670   29.8870 S   0  0  0  0  0  0  0  0  0  0  0  0
   37.5600   21.9120   31.0070 C   0  0  0  0  0  0  0  0  0  0  0  0
   37.3690   23.0590   31.2600 N   0  0  0  0  0  0  0  0  0  0  0  0
   36.8190   20.7430   31.4540 N   0  0  0  0  0  0  0  0  0  0  0  0
   37.5570   19.5250   31.5440 C   0  0  0  0  0  0  0  0  0  0  0  0
   36.7170   18.3040   31.6610 C   0  0  0  0  0  0  0  0  0  0  0  0
   35.3000   18.5550   31.3920 N   0  0  0  0  0  0  0  0  0  0  0  0
   34.9260   19.6000   32.3470 C   0  0  0  0  0  0  0  0  0  0  0  0
   35.4180   20.8950   31.7660 C   0  0  0  0  0  0  0  0  0  0  0  0
   39.8000   24.5360   29.5710 H   0  0  0  0  0  0  0  0  0  0  0  0
   38.3620   19.5770   32.3100 H   0  0  0  0  0  0  0  0  0  0  0  0
   38.1290   19.4230   30.5740 H   0  0  0  0  0  0  0  0  0  0  0  0
   36.9990   17.4870   30.9510 H   0  0  0  0  0  0  0  0  0  0  0  0
   36.8610   17.8950   32.6830 H   0  0  0  0  0  0  0  0  0  0  0  0
   34.7790   17.6980   31.7160 H   0  0  0  0  0  0  0  0  0  0  0  0
   33.8700   19.5940   32.6090 H   0  0  0  0  0  0  0  0  0  0  0  0
   35.4910   19.4470   33.3090 H   0  0  0  0  0  0  0  0  0  0  0  0
   34.8680   21.0640   30.8120 H   0  0  0  0  0  0  0  0  0  0  0  0
   35.2930   21.7620   32.4470 H   0  0  0  0  0  0  0  0  0  0  0  0
   36.6090   25.6090   32.2290 C   0  0  0  0  0  0  0  0  0  0  0  0
   36.2190   24.6020   32.4720 H   0  0  0  0  0  0  0  0  0  0  0  0
   35.8510   26.3020   31.8410 H   0  0  0  0  0  0  0  0  0  0  0  0
   37.7040   27.9080   34.9330 C   0  0  0  0  0  0  0  0  0  0  0  0
   38.1440   27.0480   35.9260 C   0  0  0  0  0  0  0  0  0  0  0  0
   38.0630   25.6820   35.6640 C   0  0  0  0  0  0  0  0  0  0  0  0
   37.5700   25.2520   34.4790 N   0  0  0  0  0  0  0  0  0  0  0  0
   37.1540   26.1500   33.5460 C   0  0  0  0  0  0  0  0  0  0  0  0
   37.2260   27.4450   33.7810 N   0  0  0  0  0  0  0  0  0  0  0  0
   37.7950   28.9520   35.2050 H   0  0  0  0  0  0  0  0  0  0  0  0
   38.5520   27.2640   36.9020 H   0  0  0  0  0  0  0  0  0  0  0  0
   38.4460   24.5880   36.5100 N   0  0  0  0  0  0  0  0  0  0  0  0
   37.7920   24.0910   37.5980 C   0  0  0  0  0  0  0  0  0  0  0  0
   36.8560   24.5090   37.9440 H   0  0  0  0  0  0  0  0  0  0  0  0
   38.5450   23.0640   38.0600 N   0  0  0  0  0  0  0  0  0  0  0  0
   39.6400   22.9100   37.2960 C   0  0  0  0  0  0  0  0  0  0  0  0
   40.7280   22.0610   37.2830 C   0  0  0  0  0  0  0  0  0  0  0  0
   40.7930   21.2960   38.0480 H   0  0  0  0  0  0  0  0  0  0  0  0
   41.6940   22.1870   36.3270 N   0  0  0  0  0  0  0  0  0  0  0  0
   41.6020   23.1500   35.3730 C   0  0  0  0  0  0  0  0  0  0  0  0
   42.4220   23.1870   34.6390 H   0  0  0  0  0  0  0  0  0  0  0  0
   40.5560   23.9980   35.3520 N   0  0  0  0  0  0  0  0  0  0  0  0
   39.5880   23.8760   36.3040 C   0  0  0  0  0  0  0  0  0  0  0  0
  1  3  1  0  0  0  0
  1 25  1  0  0  0  0
  2  1  1  0  0  0  0
  4  1  1  0  0  0  0
  4  8  1  0  0  0  0
  5  4  2  0  0  0  0
  6  5  1  0  0  0  0
  6  7  1  0  0  0  0
  7  8  2  0  0  0  0
  7  9  1  0  0  0  0
  9 10  1  0  0  0  0
  9 14  1  0  0  0  0
 10 11  1  0  0  0  0
 10 16  1  0  0  0  0
 11 19  1  0  0  0  0
 12 11  1  0  0  0  0
 12 20  1  0  0  0  0
 12 13  1  0  0  0  0
 13 21  1  0  0  0  0
 13 22  1  0  0  0  0
 14 13  1  0  0  0  0
 14 24  1  0  0  0  0
 15  5  1  0  0  0  0
 17 10  1  0  0  0  0
 18 11  1  0  0  0  0
 23 14  1  0  0  0  0
 25 26  1  0  0  0  0
 25 32  1  0  0  0  0
 27 25  1  0  0  0  0
 28 34  1  0  0  0  0
 28 29  1  0  0  0  0
 29 35  1  0  0  0  0
 30 29  2  0  0  0  0
 30 36  1  0  0  0  0
 31 30  1  0  0  0  0
 32 33  1  0  0  0  0
 32 31  2  0  0  0  0
 33 28  2  0  0  0  0
 36 37  1  0  0  0  0
 37 38  1  0  0  0  0
 37 39  2  0  0  0  0
 40 39  1  0  0  0  0
 41 40  1  0  0  0  0
 41 42  1  0  0  0  0
 43 41  2  0  0  0  0
 44 43  1  0  0  0  0
 45 44  1  0  0  0  0
 46 44  2  0  0  0  0
 46 47  1  0  0  0  0
 47 36  1  0  0  0  0
 47 40  2  0  0  0  0
M  END
>  <minimizedAffinity>
-6.04970837

$$$$

 OpenBabel03272506103D

 47 51  0  0  0  0  0  0  0  0999 V2000
   36.1970   28.5930   33.1760 C   0  0  0  0  0  0  0  0  0  0  0  0
   36.9540   29.0730   32.5230 H   0  0  0  0  0  0  0  0  0  0  0  0
   35.7130   27.7960   32.5600 H   0  0  0  0  0  0  0  0  0  0  0  0
   35.1440   29.6010   33.5760 C   0  0  0  0  0  0  0  0  0  0  0  0
   35.3450   30.9930   33.2280 C   0  0  0  0  0  0  0  0  0  0  0  0
   33.8720   31.7110   33.9070 S   0  0  0  0  0  0  0  0  0  0  0  0
   33.1860   30.0820   34.5590 C   0  0  0  0  0  0  0  0  0  0  0  0
   34.0500   29.3400   34.2150 N   0  0  0  0  0  0  0  0  0  0  0  0
   31.9570   29.7830   35.2770 N   0  0  0  0  0  0  0  0  0  0  0  0
   30.8540   30.6540   35.0290 C   0  0  0  0  0  0  0  0  0  0  0  0
   29.7470   30.5400   36.0150 C   0  0  0  0  0  0  0  0  0  0  0  0
   30.1110   29.7580   37.1980 N   0  0  0  0  0  0  0  0  0  0  0  0
   30.5350   28.4630   36.6630 C   0  0  0  0  0  0  0  0  0  0  0  0
   31.9420   28.6510   36.1720 C   0  0  0  0  0  0  0  0  0  0  0  0
   36.1570   31.4030   32.7170 H   0  0  0  0  0  0  0  0  0  0  0  0
   30.5060   30.6010   33.9740 H   0  0  0  0  0  0  0  0  0  0  0  0
   31.2500   31.7080   35.1190 H   0  0  0  0  0  0  0  0  0  0  0  0
   29.3980   31.5220   36.4230 H   0  0  0  0  0  0  0  0  0  0  0  0
   28.8780   30.0900   35.4930 H   0  0  0  0  0  0  0  0  0  0  0  0
   29.2120   29.5540   37.7090 H   0  0  0  0  0  0  0  0  0  0  0  0
   30.4060   27.6380   37.3610 H   0  0  0  0  0  0  0  0  0  0  0  0
   29.9130   28.2100   35.7590 H   0  0  0  0  0  0  0  0  0  0  0  0
   32.5730   28.9010   37.0550 H   0  0  0  0  0  0  0  0  0  0  0  0
   32.3480   27.7660   35.6410 H   0  0  0  0  0  0  0  0  0  0  0  0
   36.8400   27.9790   34.3720 C   0  0  0  0  0  0  0  0  0  0  0  0
   36.1360   27.9290   35.2240 H   0  0  0  0  0  0  0  0  0  0  0  0
   37.7620   28.5370   34.5840 H   0  0  0  0  0  0  0  0  0  0  0  0
   37.3030   24.7470   32.6030 C   0  0  0  0  0  0  0  0  0  0  0  0
   37.8420   23.9230   33.5780 C   0  0  0  0  0  0  0  0  0  0  0  0
   38.0450   24.4810   34.8390 C   0  0  0  0  0  0  0  0  0  0  0  0
   37.7170   25.7740   35.0640 N   0  0  0  0  0  0  0  0  0  0  0  0
   37.1910   26.5290   34.0620 C   0  0  0  0  0  0  0  0  0  0  0  0
   36.9940   26.0140   32.8650 N   0  0  0  0  0  0  0  0  0  0  0  0
   37.1740   24.2490   31.6510 H   0  0  0  0  0  0  0  0  0  0  0  0
   38.1430   22.8880   33.5240 H   0  0  0  0  0  0  0  0  0  0  0  0
   38.5820   23.8560   36.0140 N   0  0  0  0  0  0  0  0  0  0  0  0
   38.0810   23.8670   37.2810 C   0  0  0  0  0  0  0  0  0  0  0  0
   37.1650   24.3860   37.5320 H   0  0  0  0  0  0  0  0  0  0  0  0
   38.9390   23.1400   38.0380 N   0  0  0  0  0  0  0  0  0  0  0  0
   39.9510   22.6820   37.2810 C   0  0  0  0  0  0  0  0  0  0  0  0
   41.0790   21.9150   37.4940 C   0  0  0  0  0  0  0  0  0  0  0  0
   41.2730   21.5510   38.4960 H   0  0  0  0  0  0  0  0  0  0  0  0
   41.9270   21.6280   36.4630 N   0  0  0  0  0  0  0  0  0  0  0  0
   41.6740   22.0910   35.2110 C   0  0  0  0  0  0  0  0  0  0  0  0
   42.4050   21.8160   34.4350 H   0  0  0  0  0  0  0  0  0  0  0  0
   40.5840   22.8410   34.9630 N   0  0  0  0  0  0  0  0  0  0  0  0
   39.7350   23.1310   35.9890 C   0  0  0  0  0  0  0  0  0  0  0  0
  1  4  1  0  0  0  0
  1 25  1  0  0  0  0
  2  1  1  0  0  0  0
  3  1  1  0  0  0  0
  4  8  1  0  0  0  0
  5  4  2  0  0  0  0
  5  6  1  0  0  0  0
  6  7  1  0  0  0  0
  7  9  1  0  0  0  0
  8  7  2  0  0  0  0
  9 14  1  0  0  0  0
 10 17  1  0  0  0  0
 10  9  1  0  0  0  0
 10 11  1  0  0  0  0
 11 18  1  0  0  0  0
 11 12  1  0  0  0  0
 12 20  1  0  0  0  0
 13 12  1  0  0  0  0
 13 21  1  0  0  0  0
 14 13  1  0  0  0  0
 14 23  1  0  0  0  0
 15  5  1  0  0  0  0
 16 10  1  0  0  0  0
 19 11  1  0  0  0  0
 22 13  1  0  0  0  0
 24 14  1  0  0  0  0
 25 27  1  0  0  0  0
 25 26  1  0  0  0  0
 28 33  2  0  0  0  0
 28 29  1  0  0  0  0
 29 30  2  0  0  0  0
 30 31  1  0  0  0  0
 30 36  1  0  0  0  0
 32 25  1  0  0  0  0
 32 31  2  0  0  0  0
 33 32  1  0  0  0  0
 34 28  1  0  0  0  0
 35 29  1  0  0  0  0
 36 37  1  0  0  0  0
 37 38  1  0  0  0  0
 37 39  2  0  0  0  0
 40 41  1  0  0  0  0
 40 39  1  0  0  0  0
 41 42  1  0  0  0  0
 43 41  2  0  0  0  0
 44 43  1  0  0  0  0
 45 44  1  0  0  0  0
 46 44  2  0  0  0  0
 46 47  1  0  0  0  0
 47 36  1  0  0  0  0
 47 40  2  0  0  0  0
M  END
>  <minimizedAffinity>
-6.00182247

$$$$

 OpenBabel03272506103D

 47 51  0  0  0  0  0  0  0  0999 V2000
   37.8860   26.9230   34.1070 C   0  0  0  0  0  0  0  0  0  0  0  0
   38.8420   27.2670   33.6620 H   0  0  0  0  0  0  0  0  0  0  0  0
   37.6810   25.9160   33.6670 H   0  0  0  0  0  0  0  0  0  0  0  0
   36.7660   27.8590   33.7130 C   0  0  0  0  0  0  0  0  0  0  0  0
   36.1380   27.6880   32.4190 C   0  0  0  0  0  0  0  0  0  0  0  0
   34.9400   28.9950   32.4670 S   0  0  0  0  0  0  0  0  0  0  0  0
   35.4260   29.5950   34.1850 C   0  0  0  0  0  0  0  0  0  0  0  0
   36.2990   28.8260   34.4350 N   0  0  0  0  0  0  0  0  0  0  0  0
   34.9040   30.6800   35.0010 N   0  0  0  0  0  0  0  0  0  0  0  0
   33.5360   31.0270   34.7870 C   0  0  0  0  0  0  0  0  0  0  0  0
   33.1360   32.3370   35.3670 C   0  0  0  0  0  0  0  0  0  0  0  0
   34.2780   33.1400   35.8080 N   0  0  0  0  0  0  0  0  0  0  0  0
   34.9800   32.2820   36.7650 C   0  0  0  0  0  0  0  0  0  0  0  0
   35.7890   31.3160   35.9470 C   0  0  0  0  0  0  0  0  0  0  0  0
   36.3700   26.9710   31.6970 H   0  0  0  0  0  0  0  0  0  0  0  0
   32.8450   30.1990   35.0600 H   0  0  0  0  0  0  0  0  0  0  0  0
   33.3990   31.1220   33.6690 H   0  0  0  0  0  0  0  0  0  0  0  0
   32.5830   32.9990   34.6560 H   0  0  0  0  0  0  0  0  0  0  0  0
   32.4440   32.1320   36.2100 H   0  0  0  0  0  0  0  0  0  0  0  0
   33.8820   33.9230   36.3920 H   0  0  0  0  0  0  0  0  0  0  0  0
   35.5520   32.8340   37.5090 H   0  0  0  0  0  0  0  0  0  0  0  0
   34.2300   31.6670   37.3360 H   0  0  0  0  0  0  0  0  0  0  0  0
   36.5380   31.9080   35.3740 H   0  0  0  0  0  0  0  0  0  0  0  0
   36.2900   30.5340   36.5530 H   0  0  0  0  0  0  0  0  0  0  0  0
   38.0000   26.8080   35.5880 C   0  0  0  0  0  0  0  0  0  0  0  0
   37.0760   27.1540   36.0890 H   0  0  0  0  0  0  0  0  0  0  0  0
   38.9070   27.3420   35.9000 H   0  0  0  0  0  0  0  0  0  0  0  0
   38.2090   23.6610   37.5490 C   0  0  0  0  0  0  0  0  0  0  0  0
   38.3660   22.6870   36.5760 C   0  0  0  0  0  0  0  0  0  0  0  0
   38.4000   23.1150   35.2500 C   0  0  0  0  0  0  0  0  0  0  0  0
   38.2810   24.4320   34.9640 N   0  0  0  0  0  0  0  0  0  0  0  0
   38.1290   25.3370   35.9670 C   0  0  0  0  0  0  0  0  0  0  0  0
   38.0960   24.9470   37.2260 N   0  0  0  0  0  0  0  0  0  0  0  0
   38.1910   23.2580   38.5530 H   0  0  0  0  0  0  0  0  0  0  0  0
   38.4700   21.6170   36.6740 H   0  0  0  0  0  0  0  0  0  0  0  0
   38.5510   22.3240   34.0630 N   0  0  0  0  0  0  0  0  0  0  0  0
   39.6200   22.2600   33.2190 C   0  0  0  0  0  0  0  0  0  0  0  0
   40.5170   22.8440   33.3840 H   0  0  0  0  0  0  0  0  0  0  0  0
   39.2880   21.3770   32.2470 N   0  0  0  0  0  0  0  0  0  0  0  0
   38.0520   20.8950   32.4600 C   0  0  0  0  0  0  0  0  0  0  0  0
   37.2150   19.9980   31.8270 C   0  0  0  0  0  0  0  0  0  0  0  0
   37.5660   19.5180   30.9210 H   0  0  0  0  0  0  0  0  0  0  0  0
   35.9770   19.7290   32.3330 N   0  0  0  0  0  0  0  0  0  0  0  0
   35.5470   20.3380   33.4690 C   0  0  0  0  0  0  0  0  0  0  0  0
   34.5370   20.0670   33.8130 H   0  0  0  0  0  0  0  0  0  0  0  0
   36.3340   21.2180   34.1170 N   0  0  0  0  0  0  0  0  0  0  0  0
   37.5720   21.4900   33.6140 C   0  0  0  0  0  0  0  0  0  0  0  0
  1 25  1  0  0  0  0
  2  1  1  0  0  0  0
  3  1  1  0  0  0  0
  4  1  1  0  0  0  0
  4  8  1  0  0  0  0
  5  6  1  0  0  0  0
  5  4  2  0  0  0  0
  6  7  1  0  0  0  0
  7  8  2  0  0  0  0
  7  9  1  0  0  0  0
  9 14  1  0  0  0  0
 10  9  1  0  0  0  0
 10 16  1  0  0  0  0
 10 11  1  0  0  0  0
 11 12  1  0  0  0  0
 11 19  1  0  0  0  0
 12 20  1  0  0  0  0
 12 13  1  0  0  0  0
 13 22  1  0  0  0  0
 13 21  1  0  0  0  0
 14 24  1  0  0  0  0
 14 13  1  0  0  0  0
 15  5  1  0  0  0  0
 17 10  1  0  0  0  0
 18 11  1  0  0  0  0
 23 14  1  0  0  0  0
 25 27  1  0  0  0  0
 25 32  1  0  0  0  0
 25 26  1  0  0  0  0
 28 34  1  0  0  0  0
 29 35  1  0  0  0  0
 29 28  2  0  0  0  0
 30 29  1  0  0  0  0
 31 30  2  0  0  0  0
 31 32  1  0  0  0  0
 32 33  2  0  0  0  0
 33 28  1  0  0  0  0
 36 30  1  0  0  0  0
 37 38  1  0  0  0  0
 37 36  1  0  0  0  0
 39 40  1  0  0  0  0
 39 37  2  0  0  0  0
 40 47  1  0  0  0  0
 41 43  1  0  0  0  0
 41 40  2  0  0  0  0
 42 41  1  0  0  0  0
 43 44  2  0  0  0  0
 44 45  1  0  0  0  0
 44 46  1  0  0  0  0
 47 36  1  0  0  0  0
 47 46  2  0  0  0  0
M  END
>  <minimizedAffinity>
-5.98555803

$$$$

 OpenBabel03272506103D

 47 51  0  0  0  0  0  0  0  0999 V2000
   36.3270   27.9010   31.6370 C   0  0  0  0  0  0  0  0  0  0  0  0
   36.8710   27.7080   30.6890 H   0  0  0  0  0  0  0  0  0  0  0  0
   35.3480   27.3680   31.5490 H   0  0  0  0  0  0  0  0  0  0  0  0
   36.0600   29.3810   31.7880 C   0  0  0  0  0  0  0  0  0  0  0  0
   36.1460   30.2280   30.6160 C   0  0  0  0  0  0  0  0  0  0  0  0
   35.7580   31.8050   31.3280 S   0  0  0  0  0  0  0  0  0  0  0  0
   35.5340   31.1400   33.0760 C   0  0  0  0  0  0  0  0  0  0  0  0
   35.7540   29.9860   32.8900 N   0  0  0  0  0  0  0  0  0  0  0  0
   35.1890   31.8150   34.3170 N   0  0  0  0  0  0  0  0  0  0  0  0
   34.3970   32.9960   34.1940 C   0  0  0  0  0  0  0  0  0  0  0  0
   34.3560   33.8400   35.4170 C   0  0  0  0  0  0  0  0  0  0  0  0
   35.3460   33.4430   36.4200 N   0  0  0  0  0  0  0  0  0  0  0  0
   35.0500   32.0340   36.6880 C   0  0  0  0  0  0  0  0  0  0  0  0
   35.6640   31.2550   35.5590 C   0  0  0  0  0  0  0  0  0  0  0  0
   36.3790   29.9320   29.6420 H   0  0  0  0  0  0  0  0  0  0  0  0
   33.3880   32.7840   33.7760 H   0  0  0  0  0  0  0  0  0  0  0  0
   34.8830   33.6270   33.3920 H   0  0  0  0  0  0  0  0  0  0  0  0
   34.5630   34.9230   35.2300 H   0  0  0  0  0  0  0  0  0  0  0  0
   33.3270   33.7830   35.8290 H   0  0  0  0  0  0  0  0  0  0  0  0
   35.0850   33.9440   37.3100 H   0  0  0  0  0  0  0  0  0  0  0  0
   35.3510   31.7060   37.6810 H   0  0  0  0  0  0  0  0  0  0  0  0
   33.9390   31.8660   36.6230 H   0  0  0  0  0  0  0  0  0  0  0  0
   36.7660   31.4090   35.6080 H   0  0  0  0  0  0  0  0  0  0  0  0
   35.4190   30.1740   35.5840 H   0  0  0  0  0  0  0  0  0  0  0  0
   37.0840   27.3650   32.8020 C   0  0  0  0  0  0  0  0  0  0  0  0
   36.5690   27.5940   33.7550 H   0  0  0  0  0  0  0  0  0  0  0  0
   38.1110   27.7490   32.7440 H   0  0  0  0  0  0  0  0  0  0  0  0
   36.3630   23.8540   31.8320 C   0  0  0  0  0  0  0  0  0  0  0  0
   37.2160   23.1170   32.6370 C   0  0  0  0  0  0  0  0  0  0  0  0
   38.0370   23.8290   33.5100 C   0  0  0  0  0  0  0  0  0  0  0  0
   37.9740   25.1800   33.5420 N   0  0  0  0  0  0  0  0  0  0  0  0
   37.1130   25.8430   32.7240 C   0  0  0  0  0  0  0  0  0  0  0  0
   36.3310   25.1820   31.8940 N   0  0  0  0  0  0  0  0  0  0  0  0
   35.7570   23.2370   31.1810 H   0  0  0  0  0  0  0  0  0  0  0  0
   37.3600   22.0490   32.7050 H   0  0  0  0  0  0  0  0  0  0  0  0
   39.0010   23.3190   34.4420 N   0  0  0  0  0  0  0  0  0  0  0  0
   40.1970   22.7190   34.1790 C   0  0  0  0  0  0  0  0  0  0  0  0
   40.5510   22.5640   33.1680 H   0  0  0  0  0  0  0  0  0  0  0  0
   40.7440   22.4130   35.3800 N   0  0  0  0  0  0  0  0  0  0  0  0
   39.9280   22.8020   36.3740 C   0  0  0  0  0  0  0  0  0  0  0  0
   39.9550   22.7560   37.7540 C   0  0  0  0  0  0  0  0  0  0  0  0
   40.8150   22.3080   38.2370 H   0  0  0  0  0  0  0  0  0  0  0  0
   38.9190   23.2630   38.4840 N   0  0  0  0  0  0  0  0  0  0  0  0
   37.8450   23.8220   37.8670 C   0  0  0  0  0  0  0  0  0  0  0  0
   37.0520   24.2070   38.5270 H   0  0  0  0  0  0  0  0  0  0  0  0
   37.7820   23.8860   36.5240 N   0  0  0  0  0  0  0  0  0  0  0  0
   38.8140   23.3810   35.7900 C   0  0  0  0  0  0  0  0  0  0  0  0
  1  4  1  0  0  0  0
  1 25  1  0  0  0  0
  2  1  1  0  0  0  0
  3  1  1  0  0  0  0
  4  8  1  0  0  0  0
  5  6  1  0  0  0  0
  5  4  2  0  0  0  0
  6  7  1  0  0  0  0
  7  9  1  0  0  0  0
  8  7  2  0  0  0  0
  9 14  1  0  0  0  0
 10  9  1  0  0  0  0
 10 11  1  0  0  0  0
 11 19  1  0  0  0  0
 11 12  1  0  0  0  0
 12 13  1  0  0  0  0
 12 20  1  0  0  0  0
 13 21  1  0  0  0  0
 14 24  1  0  0  0  0
 14 23  1  0  0  0  0
 14 13  1  0  0  0  0
 15  5  1  0  0  0  0
 16 10  1  0  0  0  0
 17 10  1  0  0  0  0
 18 11  1  0  0  0  0
 22 13  1  0  0  0  0
 25 26  1  0  0  0  0
 27 25  1  0  0  0  0
 28 33  2  0  0  0  0
 28 29  1  0  0  0  0
 29 35  1  0  0  0  0
 29 30  2  0  0  0  0
 30 31  1  0  0  0  0
 30 36  1  0  0  0  0
 32 25  1  0  0  0  0
 32 31  2  0  0  0  0
 33 32  1  0  0  0  0
 34 28  1  0  0  0  0
 36 47  1  0  0  0  0
 37 36  1  0  0  0  0
 37 39  2  0  0  0  0
 38 37  1  0  0  0  0
 39 40  1  0  0  0  0
 40 41  1  0  0  0  0
 41 42  1  0  0  0  0
 41 43  2  0  0  0  0
 44 43  1  0  0  0  0
 44 45  1  0  0  0  0
 46 44  2  0  0  0  0
 47 40  2  0  0  0  0
 47 46  1  0  0  0  0
M  END
>  <minimizedAffinity>
-5.93677092

$$$$

 OpenBabel03272506103D

 47 51  0  0  0  0  0  0  0  0999 V2000
   36.5170   24.9080   31.8790 C   0  0  0  0  0  0  0  0  0  0  0  0
   35.6040   25.0250   32.4980 H   0  0  0  0  0  0  0  0  0  0  0  0
   36.1950   24.3920   30.9410 H   0  0  0  0  0  0  0  0  0  0  0  0
   37.5180   24.0290   32.5940 C   0  0  0  0  0  0  0  0  0  0  0  0
   38.2900   23.0790   31.8190 C   0  0  0  0  0  0  0  0  0  0  0  0
   39.2680   22.3380   33.1000 S   0  0  0  0  0  0  0  0  0  0  0  0
   38.5310   23.3770   34.4870 C   0  0  0  0  0  0  0  0  0  0  0  0
   37.7620   24.0390   33.8650 N   0  0  0  0  0  0  0  0  0  0  0  0
   38.8010   23.3920   35.9150 N   0  0  0  0  0  0  0  0  0  0  0  0
   40.1160   23.0040   36.3120 C   0  0  0  0  0  0  0  0  0  0  0  0
   40.2570   22.6970   37.7600 C   0  0  0  0  0  0  0  0  0  0  0  0
   38.9700   22.5900   38.4500 N   0  0  0  0  0  0  0  0  0  0  0  0
   38.3130   23.8750   38.1990 C   0  0  0  0  0  0  0  0  0  0  0  0
   37.7420   23.7890   36.8120 C   0  0  0  0  0  0  0  0  0  0  0  0
   38.2400   22.9190   30.7890 H   0  0  0  0  0  0  0  0  0  0  0  0
   40.8930   23.7060   35.9370 H   0  0  0  0  0  0  0  0  0  0  0  0
   40.3480   22.0440   35.7630 H   0  0  0  0  0  0  0  0  0  0  0  0
   40.7720   21.7280   37.9730 H   0  0  0  0  0  0  0  0  0  0  0  0
   40.8850   23.4930   38.2110 H   0  0  0  0  0  0  0  0  0  0  0  0
   39.1840   22.5980   39.4820 H   0  0  0  0  0  0  0  0  0  0  0  0
   37.5940   24.1550   38.9670 H   0  0  0  0  0  0  0  0  0  0  0  0
   39.0860   24.6930   38.1760 H   0  0  0  0  0  0  0  0  0  0  0  0
   36.9730   22.9840   36.8150 H   0  0  0  0  0  0  0  0  0  0  0  0
   37.3070   24.7440   36.4530 H   0  0  0  0  0  0  0  0  0  0  0  0
   37.1050   26.2350   31.5430 C   0  0  0  0  0  0  0  0  0  0  0  0
   36.7200   26.6090   30.5750 H   0  0  0  0  0  0  0  0  0  0  0  0
   38.1980   26.1420   31.5860 H   0  0  0  0  0  0  0  0  0  0  0  0
   36.8260   28.2570   34.6450 C   0  0  0  0  0  0  0  0  0  0  0  0
   35.7780   29.1200   34.3720 C   0  0  0  0  0  0  0  0  0  0  0  0
   35.1700   29.0040   33.1230 C   0  0  0  0  0  0  0  0  0  0  0  0
   35.6120   28.0780   32.2420 N   0  0  0  0  0  0  0  0  0  0  0  0
   36.6480   27.2610   32.5730 C   0  0  0  0  0  0  0  0  0  0  0  0
   37.2310   27.3590   33.7520 N   0  0  0  0  0  0  0  0  0  0  0  0
   37.2490   28.4030   35.6310 H   0  0  0  0  0  0  0  0  0  0  0  0
   35.3370   29.8940   34.9820 H   0  0  0  0  0  0  0  0  0  0  0  0
   34.0760   29.7650   32.5910 N   0  0  0  0  0  0  0  0  0  0  0  0
   32.7410   29.5870   32.8020 C   0  0  0  0  0  0  0  0  0  0  0  0
   32.3600   28.7980   33.4370 H   0  0  0  0  0  0  0  0  0  0  0  0
   32.1100   30.5500   32.0860 N   0  0  0  0  0  0  0  0  0  0  0  0
   33.0080   31.3140   31.4420 C   0  0  0  0  0  0  0  0  0  0  0  0
   32.9570   32.4040   30.5970 C   0  0  0  0  0  0  0  0  0  0  0  0
   31.9860   32.8080   30.3350 H   0  0  0  0  0  0  0  0  0  0  0  0
   34.1050   32.9540   30.1050 N   0  0  0  0  0  0  0  0  0  0  0  0
   35.3170   32.4400   30.4400 C   0  0  0  0  0  0  0  0  0  0  0  0
   36.1950   32.9400   30.0030 H   0  0  0  0  0  0  0  0  0  0  0  0
   35.4090   31.3780   31.2630 N   0  0  0  0  0  0  0  0  0  0  0  0
   34.2650   30.8240   31.7560 C   0  0  0  0  0  0  0  0  0  0  0  0
  1  2  1  0  0  0  0
  1  4  1  0  0  0  0
  3  1  1  0  0  0  0
  4  8  1  0  0  0  0
  5  4  2  0  0  0  0
  5  6  1  0  0  0  0
  6  7  1  0  0  0  0
  7  9  1  0  0  0  0
  8  7  2  0  0  0  0
  9 10  1  0  0  0  0
  9 14  1  0  0  0  0
 10 11  1  0  0  0  0
 11 18  1  0  0  0  0
 11 19  1  0  0  0  0
 11 12  1  0  0  0  0
 12 20  1  0  0  0  0
 13 12  1  0  0  0  0
 13 21  1  0  0  0  0
 14 23  1  0  0  0  0
 14 13  1  0  0  0  0
 15  5  1  0  0  0  0
 16 10  1  0  0  0  0
 17 10  1  0  0  0  0
 22 13  1  0  0  0  0
 24 14  1  0  0  0  0
 25 27  1  0  0  0  0
 25  1  1  0  0  0  0
 25 32  1  0  0  0  0
 26 25  1  0  0  0  0
 28 34  1  0  0  0  0
 29 28  1  0  0  0  0
 29 35  1  0  0  0  0
 30 29  2  0  0  0  0
 31 32  2  0  0  0  0
 31 30  1  0  0  0  0
 32 33  1  0  0  0  0
 33 28  2  0  0  0  0
 36 37  1  0  0  0  0
 36 30  1  0  0  0  0
 37 38  1  0  0  0  0
 39 37  2  0  0  0  0
 40 47  1  0  0  0  0
 40 39  1  0  0  0  0
 41 40  2  0  0  0  0
 42 41  1  0  0  0  0
 43 44  2  0  0  0  0
 43 41  1  0  0  0  0
 44 46  1  0  0  0  0
 45 44  1  0  0  0  0
 46 47  2  0  0  0  0
 47 36  1  0  0  0  0
M  END
>  <minimizedAffinity>
-5.90340614

$$$$
