REMARK  Name = 
REMARK  1 active torsions:
REMARK  status: ('A' for Active; 'I' for Inactive)
REMARK    1  A    between atoms: C_2  and  N_7
REMARK                            x       y       z     vdW  Elec       q    Type
REMARK                         _______ _______ _______ _____ _____    ______ ____
ROOT
ATOM      1  C   UNL     1      36.625  29.758  51.261  0.00  0.00    +0.000 A 
ATOM      2  C   UNL     1      37.382  30.117  50.130  0.00  0.00    +0.000 A 
ATOM      3  C   UNL     1      36.804  29.794  48.873  0.00  0.00    +0.000 A 
ATOM      4  N   UNL     1      35.587  29.174  48.855  0.00  0.00    +0.000 NA
ATOM      5  C   UNL     1      34.922  28.862  49.974  0.00  0.00    +0.000 A 
ATOM      6  N   UNL     1      35.423  29.145  51.193  0.00  0.00    +0.000 NA
ATOM      7  H   UNL     1      37.036  29.990  52.248  0.00  0.00    +0.000 HD
ATOM      8  H   UNL     1      37.346  30.050  47.995  0.00  0.00    +0.000 HD
ATOM      9  N   UNL     1      33.671  28.220  49.709  0.00  0.00    +0.000 N 
ATOM     10  C   UNL     1      33.239  27.026  50.160  0.00  0.00    +0.000 A 
ATOM     11  H   UNL     1      33.839  26.386  50.817  0.00  0.00    +0.000 HD
ATOM     12  N   UNL     1      32.005  26.784  49.680  0.00  0.00    +0.000 NA
ATOM     13  C   UNL     1      31.622  27.830  48.904  0.00  0.00    +0.000 A 
ATOM     14  C   UNL     1      30.442  28.017  48.211  0.00  0.00    +0.000 A 
ATOM     15  H   UNL     1      29.660  27.297  48.224  0.00  0.00    +0.000 HD
ATOM     16  N   UNL     1      30.358  29.188  47.515  0.00  0.00    +0.000 NA
ATOM     17  C   UNL     1      31.385  30.069  47.535  0.00  0.00    +0.000 A 
ATOM     18  H   UNL     1      31.283  30.995  46.967  0.00  0.00    +0.000 HD
ATOM     19  N   UNL     1      32.499  29.835  48.221  0.00  0.00    +0.000 NA
ATOM     20  C   UNL     1      32.693  28.727  48.937  0.00  0.00    +0.000 A 
ENDROOT
BRANCH   2  21
ATOM     21  N   UNL     1      38.646  30.763  50.261  0.00  0.00    +0.000 N 
ATOM     22  H   UNL     1      38.687  31.599  50.911  0.00  0.00    +0.000 HD
ATOM     23  H   UNL     1      39.470  30.407  49.730  0.00  0.00    +0.000 HD
ENDBRANCH   2  21
TORSDOF 1
