
 OpenBabel03272501083D

 43 47  0  0  1  0  0  0  0  0999 V2000
   40.6650   32.0130   44.4280 Cl  0  0  0  0  0  0  0  0  0  0  0  0
   39.1520   31.1590   44.3410 C   0  0  0  0  0  0  0  0  0  0  0  0
   38.2490   31.4850   45.3370 C   0  0  0  0  0  0  0  0  0  0  0  0
   37.0420   30.8030   45.2730 C   0  0  0  0  0  0  0  0  0  0  0  0
   36.7540   29.8740   44.3010 C   0  0  0  0  0  0  0  0  0  0  0  0
   37.6980   29.6030   43.3450 C   0  0  0  0  0  0  0  0  0  0  0  0
   38.9330   30.2380   43.3350 C   0  0  0  0  0  0  0  0  0  0  0  0
   36.2220   30.9320   45.9690 H   0  0  0  0  0  0  0  0  0  0  0  0
   35.8240   29.3290   44.2280 H   0  0  0  0  0  0  0  0  0  0  0  0
   37.5750   28.8830   42.5270 H   0  0  0  0  0  0  0  0  0  0  0  0
   39.9820   30.0340   42.3930 N   0  0  0  0  0  0  0  0  0  0  0  0
   41.0760   29.2550   42.4760 C   0  0  0  0  0  0  0  0  0  0  0  0
   41.3320   28.6310   43.3330 H   0  0  0  0  0  0  0  0  0  0  0  0
   41.7490   29.4140   41.3240 N   0  0  0  0  0  0  0  0  0  0  0  0
   41.0900   30.2740   40.5320 C   0  0  0  0  0  0  0  0  0  0  0  0
   41.3350   30.7860   39.2560 C   0  0  0  0  0  0  0  0  0  0  0  0
   42.2240   30.4730   38.7210 H   0  0  0  0  0  0  0  0  0  0  0  0
   40.4870   31.6690   38.6610 N   0  0  0  0  0  0  0  0  0  0  0  0
   39.3940   32.0340   39.3560 C   0  0  0  0  0  0  0  0  0  0  0  0
   38.6140   32.7280   39.0310 H   0  0  0  0  0  0  0  0  0  0  0  0
   39.1250   31.5620   40.5890 N   0  0  0  0  0  0  0  0  0  0  0  0
   39.9400   30.6850   41.2150 C   0  0  0  0  0  0  0  0  0  0  0  0
   38.2970   32.3420   46.3770 O   0  0  0  0  0  0  0  0  0  0  0  0
   39.0210   32.4890   47.5120 C   0  0  2  0  0  0  0  0  0  0  0  0
   38.1230   32.8000   48.7490 C   0  0  2  0  0  0  0  0  0  0  0  0
   39.0610   33.5280   49.5900 C   0  0  0  0  0  0  0  0  0  0  0  0
   39.8690   34.3000   48.7670 O   0  0  0  0  0  0  0  0  0  0  0  0
   39.7050   33.8870   47.4840 C   0  0  0  0  0  0  0  0  0  0  0  0
   39.7730   31.7510   47.7810 H   0  0  0  0  0  0  0  0  0  0  0  0
   37.3390   33.4730   48.3420 H   0  0  0  0  0  0  0  0  0  0  0  0
   39.7360   32.9410   50.2150 H   0  0  0  0  0  0  0  0  0  0  0  0
   38.4970   34.2320   50.2450 H   0  0  0  0  0  0  0  0  0  0  0  0
   40.6960   33.7740   46.9880 H   0  0  0  0  0  0  0  0  0  0  0  0
   39.0730   34.5370   46.8560 H   0  0  0  0  0  0  0  0  0  0  0  0
   37.4220   29.7200   50.7900 C   0  0  0  0  0  0  0  0  0  0  0  0
   38.0990   30.8830   50.3260 C   0  0  0  0  0  0  0  0  0  0  0  0
   37.4860   31.6170   49.2720 C   0  0  0  0  0  0  0  0  0  0  0  0
   36.2880   31.1800   48.7590 N   0  0  0  0  0  0  0  0  0  0  0  0
   35.6930   30.0800   49.2290 C   0  0  0  0  0  0  0  0  0  0  0  0
   36.2410   29.3450   50.2360 N   0  0  0  0  0  0  0  0  0  0  0  0
   37.8930   29.1680   51.5900 H   0  0  0  0  0  0  0  0  0  0  0  0
   39.0400   31.1800   50.7680 H   0  0  0  0  0  0  0  0  0  0  0  0
   34.7640   29.6720   48.8890 H   0  0  0  0  0  0  0  0  0  0  0  0
  2  1  1  0  0  0  0
  2  3  1  0  0  0  0
  3 23  1  0  0  0  0
  4  3  2  0  0  0  0
  4  8  1  0  0  0  0
  5  4  1  0  0  0  0
  6  5  2  0  0  0  0
  7  6  1  0  0  0  0
  7  2  2  0  0  0  0
  9  5  1  0  0  0  0
 10  6  1  0  0  0  0
 11 12  1  0  0  0  0
 11  7  1  0  0  0  0
 12 13  1  0  0  0  0
 14 12  2  0  0  0  0
 15 22  1  0  0  0  0
 15 14  1  0  0  0  0
 16 15  2  0  0  0  0
 17 16  1  0  0  0  0
 18 16  1  0  0  0  0
 18 19  2  0  0  0  0
 19 21  1  0  0  0  0
 20 19  1  0  0  0  0
 21 22  2  0  0  0  0
 22 11  1  0  0  0  0
 23 24  1  0  0  0  0
 24 29  1  1  0  0  0
 24 25  1  0  0  0  0
 25 30  1  6  0  0  0
 25 37  1  0  0  0  0
 25 26  1  0  0  0  0
 26 31  1  0  0  0  0
 26 32  1  0  0  0  0
 27 26  1  0  0  0  0
 28 24  1  0  0  0  0
 28 27  1  0  0  0  0
 33 28  1  0  0  0  0
 34 28  1  0  0  0  0
 35 41  1  0  0  0  0
 36 42  1  0  0  0  0
 36 35  1  0  0  0  0
 37 36  2  0  0  0  0
 38 39  2  0  0  0  0
 38 37  1  0  0  0  0
 39 40  1  0  0  0  0
 40 35  2  0  0  0  0
 43 39  1  0  0  0  0
M  END
>  <minimizedAffinity>
-6.35176182

>  <minimizedRMSD>
1.1215955

$$$$
