
 OpenBabel03262521103D

 27 29  0  0  0  0  0  0  0  0999 V2000
   35.3800   29.8250   46.2410 O   0  0  0  0  0  0  0  0  0  0  0  0
   34.2660   29.5080   47.2350 P   0  0  1  0  0  0  0  0  0  0  0  0
   34.3360   27.8910   47.7150 O   0  0  0  0  0  0  0  0  0  0  0  0
   34.1580   27.7850   48.6790 H   0  0  0  0  0  0  0  0  0  0  0  0
   34.4070   30.4540   48.6670 O   0  0  0  0  0  0  0  0  0  0  0  0
   35.5160   30.3940   49.4950 C   0  0  0  0  0  0  0  0  0  0  0  0
   35.7030   29.5010   50.5640 C   0  0  0  0  0  0  0  0  0  0  0  0
   36.8820   29.5850   51.2860 C   0  0  0  0  0  0  0  0  0  0  0  0
   37.8110   30.5240   50.9370 N   0  0  0  0  0  0  0  0  0  0  0  0
   37.5980   31.3810   49.8880 C   0  0  0  0  0  0  0  0  0  0  0  0
   36.4470   31.2990   49.1820 N   0  0  0  0  0  0  0  0  0  0  0  0
   34.8830   28.8140   50.7230 H   0  0  0  0  0  0  0  0  0  0  0  0
   37.0000   28.9000   52.0890 H   0  0  0  0  0  0  0  0  0  0  0  0
   38.3900   32.0950   49.6780 H   0  0  0  0  0  0  0  0  0  0  0  0
   32.8210   29.8790   46.4560 O   0  0  0  0  0  0  0  0  0  0  0  0
   30.1390   30.2530   47.3260 H   0  0  0  0  0  0  0  0  0  0  0  0
   30.4570   29.3350   46.9930 N   0  0  0  0  0  0  0  0  0  0  0  0
   31.7120   29.0540   46.5580 C   0  0  0  0  0  0  0  0  0  0  0  0
   31.7440   27.7570   46.2080 N   0  0  0  0  0  0  0  0  0  0  0  0
   30.5470   27.2050   46.4080 C   0  0  0  0  0  0  0  0  0  0  0  0
   29.9290   25.9780   46.2620 C   0  0  0  0  0  0  0  0  0  0  0  0
   30.5420   25.1690   45.8740 H   0  0  0  0  0  0  0  0  0  0  0  0
   28.6240   25.8040   46.5920 N   0  0  0  0  0  0  0  0  0  0  0  0
   27.8860   26.8090   47.0680 C   0  0  0  0  0  0  0  0  0  0  0  0
   26.8390   26.7260   47.3470 H   0  0  0  0  0  0  0  0  0  0  0  0
   28.3920   28.0620   47.2520 N   0  0  0  0  0  0  0  0  0  0  0  0
   29.7050   28.1980   46.9110 C   0  0  0  0  0  0  0  0  0  0  0  0
  2  1  2  6  0  0  0
  2  3  1  0  0  0  0
  2  5  1  0  0  0  0
  3  4  1  0  0  0  0
  5  6  1  0  0  0  0
  6  7  1  0  0  0  0
  7 12  1  0  0  0  0
  7  8  2  0  0  0  0
  8 13  1  0  0  0  0
  9  8  1  0  0  0  0
 10  9  2  0  0  0  0
 11  6  2  0  0  0  0
 11 10  1  0  0  0  0
 14 10  1  0  0  0  0
 15 18  1  0  0  0  0
 15  2  1  0  0  0  0
 17 16  1  0  0  0  0
 18 17  1  0  0  0  0
 19 20  1  0  0  0  0
 19 18  2  0  0  0  0
 20 27  1  0  0  0  0
 21 20  2  0  0  0  0
 21 23  1  0  0  0  0
 22 21  1  0  0  0  0
 23 24  2  0  0  0  0
 24 26  1  0  0  0  0
 24 25  1  0  0  0  0
 27 17  1  0  0  0  0
 27 26  2  0  0  0  0
M  END
>  <minimizedAffinity>
-4.55824471

>  <minimizedRMSD>
2.70172286

$$$$
