
 OpenBabel03272508373D

 47 51  0  0  1  0  0  0  0  0999 V2000
   40.1540   31.7980   43.5250 N   0  0  0  0  0  0  0  0  0  0  0  0
   39.5200   32.9210   42.9660 C   0  0  0  0  0  0  0  0  0  0  0  0
   38.1110   32.7440   42.5360 C   0  0  0  0  0  0  0  0  0  0  0  0
   37.8770   31.5100   41.9160 O   0  0  0  0  0  0  0  0  0  0  0  0
   38.2920   30.4860   42.7110 C   0  0  0  0  0  0  0  0  0  0  0  0
   39.7410   30.5720   43.0080 C   0  0  1  0  0  0  0  0  0  0  0  0
   39.7030   33.9110   43.3360 H   0  0  0  0  0  0  0  0  0  0  0  0
   40.1210   32.9790   41.9940 H   0  0  0  0  0  0  0  0  0  0  0  0
   37.3090   33.1890   43.0870 H   0  0  0  0  0  0  0  0  0  0  0  0
   38.0280   33.4120   41.5920 H   0  0  0  0  0  0  0  0  0  0  0  0
   38.2360   29.6060   42.0110 H   0  0  0  0  0  0  0  0  0  0  0  0
   37.6340   30.1650   43.5100 H   0  0  0  0  0  0  0  0  0  0  0  0
   39.9180   29.8060   43.8230 H   0  0  0  0  0  0  0  0  0  0  0  0
   40.5870   30.1140   41.9080 N   0  0  0  0  0  0  0  0  0  0  0  0
   41.5060   29.1260   41.9620 C   0  0  0  0  0  0  0  0  0  0  0  0
   41.7800   28.5090   42.8010 H   0  0  0  0  0  0  0  0  0  0  0  0
   42.1140   28.9570   40.7680 N   0  0  0  0  0  0  0  0  0  0  0  0
   41.5890   29.8410   39.9180 C   0  0  0  0  0  0  0  0  0  0  0  0
   41.7790   30.1630   38.5870 C   0  0  0  0  0  0  0  0  0  0  0  0
   42.5100   29.6170   38.0220 H   0  0  0  0  0  0  0  0  0  0  0  0
   41.0520   31.1580   38.0020 N   0  0  0  0  0  0  0  0  0  0  0  0
   40.1450   31.8350   38.7050 C   0  0  0  0  0  0  0  0  0  0  0  0
   39.5910   32.6190   38.1940 H   0  0  0  0  0  0  0  0  0  0  0  0
   39.9360   31.5400   40.0180 N   0  0  0  0  0  0  0  0  0  0  0  0
   40.6530   30.5510   40.6160 C   0  0  0  0  0  0  0  0  0  0  0  0
   40.5810   31.8880   44.8530 C   0  0  0  0  0  0  0  0  0  0  0  0
   41.6820   32.1010   44.8340 H   0  0  0  0  0  0  0  0  0  0  0  0
   40.5460   30.8390   45.2760 H   0  0  0  0  0  0  0  0  0  0  0  0
   39.8470   32.7520   45.7540 C   0  0  0  0  0  0  0  0  0  0  0  0
   39.3680   33.6760   45.4550 H   0  0  0  0  0  0  0  0  0  0  0  0
   40.5920   33.1070   46.5340 H   0  0  0  0  0  0  0  0  0  0  0  0
   37.7020   31.0490   48.0770 C   0  0  0  0  0  0  0  0  0  0  0  0
   36.9670   30.9330   46.9130 C   0  0  0  0  0  0  0  0  0  0  0  0
   37.7010   31.5660   45.9030 C   0  0  0  0  0  0  0  0  0  0  0  0
   38.8140   32.0230   46.4780 N   0  0  0  0  0  0  0  0  0  0  0  0
   38.8170   31.7150   47.7770 N   0  0  0  0  0  0  0  0  0  0  0  0
   35.9850   30.4310   46.8230 H   0  0  0  0  0  0  0  0  0  0  0  0
   37.2690   31.5560   44.9710 H   0  0  0  0  0  0  0  0  0  0  0  0
   37.3930   30.0870   51.6960 C   0  0  0  0  0  0  0  0  0  0  0  0
   37.9360   30.6560   50.5420 C   0  0  0  0  0  0  0  0  0  0  0  0
   37.2640   30.5150   49.3390 C   0  0  0  0  0  0  0  0  0  0  0  0
   36.1030   29.8120   49.3990 N   0  0  0  0  0  0  0  0  0  0  0  0
   35.5950   29.2700   50.5250 C   0  0  0  0  0  0  0  0  0  0  0  0
   36.2480   29.4140   51.6660 N   0  0  0  0  0  0  0  0  0  0  0  0
   37.9720   30.2340   52.6150 H   0  0  0  0  0  0  0  0  0  0  0  0
   38.8550   31.2040   50.5300 H   0  0  0  0  0  0  0  0  0  0  0  0
   34.6630   28.7240   50.4870 H   0  0  0  0  0  0  0  0  0  0  0  0
  1 26  1  0  0  0  0
  2  7  1  0  0  0  0
  2  1  1  0  0  0  0
  3  2  1  0  0  0  0
  3  9  1  0  0  0  0
  4  3  1  0  0  0  0
  4  5  1  0  0  0  0
  5  6  1  0  0  0  0
  5 12  1  0  0  0  0
  6  1  1  0  0  0  0
  6 13  1  1  0  0  0
  8  2  1  0  0  0  0
 10  3  1  0  0  0  0
 11  5  1  0  0  0  0
 14 15  1  0  0  0  0
 14  6  1  0  0  0  0
 15 16  1  0  0  0  0
 17 15  2  0  0  0  0
 18 25  1  0  0  0  0
 18 17  1  0  0  0  0
 19 18  2  0  0  0  0
 20 19  1  0  0  0  0
 21 19  1  0  0  0  0
 21 22  2  0  0  0  0
 22 24  1  0  0  0  0
 23 22  1  0  0  0  0
 24 25  2  0  0  0  0
 25 14  1  0  0  0  0
 26 28  1  0  0  0  0
 26 29  1  0  0  0  0
 27 26  1  0  0  0  0
 29 35  1  0  0  0  0
 29 31  1  0  0  0  0
 30 29  1  0  0  0  0
 32 41  1  0  0  0  0
 33 32  1  0  0  0  0
 34 35  1  0  0  0  0
 34 33  2  0  0  0  0
 35 36  1  0  0  0  0
 36 32  2  0  0  0  0
 37 33  1  0  0  0  0
 38 34  1  0  0  0  0
 39 45  1  0  0  0  0
 40 39  2  0  0  0  0
 41 42  2  0  0  0  0
 41 40  1  0  0  0  0
 42 43  1  0  0  0  0
 43 44  2  0  0  0  0
 44 39  1  0  0  0  0
 46 40  1  0  0  0  0
 47 43  1  0  0  0  0
M  END
>  <minimizedAffinity>
-6.13590288

>  <minimizedRMSD>
0.987150133

$$$$
