
 OpenBabel03272506553D

 23 25  0  0  0  0  0  0  0  0999 V2000
   36.5750   29.7000   50.7960 C   0  0  0  0  0  0  0  0  0  0  0  0
   37.5820   30.2890   50.0080 C   0  0  0  0  0  0  0  0  0  0  0  0
   37.3740   30.2380   48.6030 C   0  0  0  0  0  0  0  0  0  0  0  0
   36.2410   29.6360   48.1330 N   0  0  0  0  0  0  0  0  0  0  0  0
   35.3240   29.0960   48.9450 C   0  0  0  0  0  0  0  0  0  0  0  0
   35.4700   29.1160   50.2850 N   0  0  0  0  0  0  0  0  0  0  0  0
   36.6990   29.7190   51.8830 H   0  0  0  0  0  0  0  0  0  0  0  0
   38.1120   30.6720   47.9740 H   0  0  0  0  0  0  0  0  0  0  0  0
   34.2240   28.5250   48.2290 N   0  0  0  0  0  0  0  0  0  0  0  0
   33.7570   27.2630   48.2950 C   0  0  0  0  0  0  0  0  0  0  0  0
   34.1980   26.4990   48.9450 H   0  0  0  0  0  0  0  0  0  0  0  0
   32.7080   27.1280   47.4630 N   0  0  0  0  0  0  0  0  0  0  0  0
   32.4840   28.3140   46.8410 C   0  0  0  0  0  0  0  0  0  0  0  0
   31.5190   28.6430   45.9090 C   0  0  0  0  0  0  0  0  0  0  0  0
   30.8030   27.9370   45.5650 H   0  0  0  0  0  0  0  0  0  0  0  0
   31.5560   29.9350   45.4690 N   0  0  0  0  0  0  0  0  0  0  0  0
   32.4900   30.7910   45.9420 C   0  0  0  0  0  0  0  0  0  0  0  0
   32.4900   31.8160   45.5680 H   0  0  0  0  0  0  0  0  0  0  0  0
   33.3960   30.4170   46.8400 N   0  0  0  0  0  0  0  0  0  0  0  0
   33.4570   29.1830   47.3420 C   0  0  0  0  0  0  0  0  0  0  0  0
   38.7290   30.8920   50.6020 N   0  0  0  0  0  0  0  0  0  0  0  0
   38.5500   31.5720   51.3940 H   0  0  0  0  0  0  0  0  0  0  0  0
   39.6820   30.6550   50.2510 H   0  0  0  0  0  0  0  0  0  0  0  0
  1  7  1  0  0  0  0
  2 21  1  0  0  0  0
  2  1  2  0  0  0  0
  3  2  1  0  0  0  0
  4  3  2  0  0  0  0
  4  5  1  0  0  0  0
  5  6  2  0  0  0  0
  6  1  1  0  0  0  0
  8  3  1  0  0  0  0
  9 10  1  0  0  0  0
  9  5  1  0  0  0  0
 10 11  1  0  0  0  0
 12 10  2  0  0  0  0
 13 20  1  0  0  0  0
 13 12  1  0  0  0  0
 14 13  2  0  0  0  0
 15 14  1  0  0  0  0
 16 14  1  0  0  0  0
 16 17  2  0  0  0  0
 17 19  1  0  0  0  0
 18 17  1  0  0  0  0
 19 20  2  0  0  0  0
 20  9  1  0  0  0  0
 21 22  1  0  0  0  0
 23 21  1  0  0  0  0
M  END
>  <minimizedAffinity>
-4.65168905

>  <minimizedRMSD>
1.67997205

$$$$
