
     RDKit          3D

 41 45  0  0  0  0  0  0  0  0999 V2000
   38.6311   32.9670   49.6960 Cl  0  0  0  0  0  0  0  0  0  0  0  0
   38.6053   32.2894   48.0759 C   0  0  0  0  0  0  0  0  0  0  0  0
   37.8731   31.1620   47.8010 C   0  0  0  0  0  0  0  0  0  0  0  0
   37.8949   30.6823   46.5132 C   0  0  0  0  0  0  0  0  0  0  0  0
   38.6191   31.2942   45.5150 C   0  0  0  0  0  0  0  0  0  0  0  0
   39.3475   32.4344   45.8354 C   0  0  0  0  0  0  0  0  0  0  0  0
   40.2480   33.1675   44.5242 Cl  0  0  0  0  0  0  0  0  0  0  0  0
   39.3517   32.9433   47.1058 C   0  0  0  0  0  0  0  0  0  0  0  0
   37.0208   29.3263   51.0112 C   0  0  0  0  0  0  0  0  0  0  0  0
   37.7631   29.8927   49.9627 C   0  0  0  0  0  0  0  0  0  0  0  0
   37.1193   30.5560   48.9181 C   0  0  0  0  0  0  0  0  0  0  0  0
   35.7509   30.6230   48.9706 N   0  0  0  0  0  0  0  0  0  0  0  0
   35.0827   30.0621   50.0009 C   0  0  0  0  0  0  0  0  0  0  0  0
   35.6888   29.4323   50.9933 N   0  0  0  0  0  0  0  0  0  0  0  0
   36.7756   32.5104   43.4272 Cl  0  0  0  0  0  0  0  0  0  0  0  0
   37.7706   31.0949   43.1255 C   0  0  0  0  0  0  0  0  0  0  0  0
   38.5515   30.6755   44.1900 C   0  0  0  0  0  0  0  0  0  0  0  0
   39.3785   29.5572   44.0485 C   0  0  0  0  0  0  0  0  0  0  0  0
   39.4213   28.8624   42.8422 C   0  0  0  0  0  0  0  0  0  0  0  0
   38.6329   29.3091   41.8113 C   0  0  0  0  0  0  0  0  0  0  0  0
   37.8083   30.4130   41.9311 C   0  0  0  0  0  0  0  0  0  0  0  0
   37.3121   29.7913   46.3101 H   0  0  0  0  0  0  0  0  0  0  0  0
   39.9269   33.8370   47.3419 H   0  0  0  0  0  0  0  0  0  0  0  0
   37.5642   28.8248   51.7941 H   0  0  0  0  0  0  0  0  0  0  0  0
   38.8461   29.8148   49.9632 H   0  0  0  0  0  0  0  0  0  0  0  0
   34.0143   30.1788   49.9330 H   0  0  0  0  0  0  0  0  0  0  0  0
   40.0057   29.1871   44.8411 H   0  0  0  0  0  0  0  0  0  0  0  0
   40.0641   27.9879   42.7223 H   0  0  0  0  0  0  0  0  0  0  0  0
   38.6113   28.8277   40.8538 H   0  0  0  0  0  0  0  0  0  0  0  0
   36.9751   30.9008   40.8712 N   0  0  0  0  0  0  0  0  0  0  0  0
   36.9712   32.2348   40.6933 C   0  0  0  0  0  0  0  0  0  0  0  0
   37.4237   33.1055   41.1214 H   0  0  0  0  0  0  0  0  0  0  0  0
   36.1269   32.4774   39.6519 N   0  0  0  0  0  0  0  0  0  0  0  0
   35.6218   31.3265   39.1974 C   0  0  0  0  0  0  0  0  0  0  0  0
   34.7473   30.8935   38.2078 C   0  0  0  0  0  0  0  0  0  0  0  0
   34.3098   31.6582   37.5852 H   0  0  0  0  0  0  0  0  0  0  0  0
   34.5010   29.5792   38.0841 N   0  0  0  0  0  0  0  0  0  0  0  0
   35.0588   28.6426   38.8729 C   0  0  0  0  0  0  0  0  0  0  0  0
   34.7750   27.6221   38.6661 H   0  0  0  0  0  0  0  0  0  0  0  0
   35.9308   28.9605   39.8745 N   0  0  0  0  0  0  0  0  0  0  0  0
   36.1592   30.3026   39.9732 C   0  0  0  0  0  0  0  0  0  0  0  0
  2  1  1  0
  3  2  2  0
  3 11  1  0
  4  3  1  0
  5  6  1  0
  5  4  2  0
  6  8  2  0
  7  6  1  0
  8  2  1  0
 10  9  2  0
 11 12  2  0
 11 10  1  0
 12 13  1  0
 13 14  2  0
 14  9  1  0
 16 15  1  0
 16 17  2  0
 17  5  1  0
 18 17  1  0
 19 18  2  0
 20 21  2  0
 20 19  1  0
 21 16  1  0
  4 22  1  0
  8 23  1  0
  9 24  1  0
 10 25  1  0
 13 26  1  0
 18 27  1  0
 19 28  1  0
 20 29  1  0
 30 31  1  0
 31 32  1  0
 31 33  2  0
 33 34  1  0
 34 35  2  0
 35 36  1  0
 35 37  1  0
 37 38  2  0
 38 39  1  0
 38 40  1  0
 40 41  2  0
 41 30  1  0
 41 34  1  0
 21 30  1  0
M  ISO  8  22  14  23  14  24  14  25  14  26  14  27  14  28  14  29  14
M  ISO  3  32  15  36  16  39  16
M  END
>  <DihAtoms>  (1) 
19,20,29,30

>  <DihDeg>  (1) 
58.91861545729278

$$$$
