REMARK  Name = 
REMARK  3 active torsions:
REMARK  status: ('A' for Active; 'I' for Inactive)
REMARK    1  A    between atoms: C_3  and  C_10
REMARK    2  A    between atoms: C_7  and  N_16
REMARK    3  A    between atoms: C_14  and  C_26
REMARK                            x       y       z     vdW  Elec       q    Type
REMARK                         _______ _______ _______ _____ _____    ______ ____
ROOT
ATOM      1  F   UNL     1      38.459  30.448  47.314  0.00  0.00    +0.000 F 
ATOM      2  C   UNL     1      38.757  31.677  47.791  0.00  0.00    +0.000 A 
ATOM      3  C   UNL     1      38.234  32.082  48.999  0.00  0.00    +0.000 A 
ATOM      4  C   UNL     1      38.573  33.334  49.425  0.00  0.00    +0.000 A 
ATOM      5  C   UNL     1      39.397  34.176  48.704  0.00  0.00    +0.000 A 
ATOM      6  C   UNL     1      39.909  33.742  47.490  0.00  0.00    +0.000 A 
ATOM      7  C   UNL     1      39.581  32.469  47.029  0.00  0.00    +0.000 A 
ATOM      8  H   UNL     1      38.176  33.678  50.370  0.00  0.00    +0.000 HD
ATOM      9  H   UNL     1      39.659  35.168  49.052  0.00  0.00    +0.000 HD
ATOM     10  H   UNL     1      40.556  34.350  46.883  0.00  0.00    +0.000 HD
ENDROOT
BRANCH   3  13
ATOM     11  C   UNL     1      36.928  29.598  51.533  0.00  0.00    +0.000 A 
ATOM     12  C   UNL     1      37.770  30.484  50.856  0.00  0.00    +0.000 A 
ATOM     13  C   UNL     1      37.370  31.154  49.719  0.00  0.00    +0.000 A 
ATOM     14  N   UNL     1      36.094  30.905  49.281  0.00  0.00    +0.000 NA
ATOM     15  C   UNL     1      35.286  30.049  49.938  0.00  0.00    +0.000 A 
ATOM     16  N   UNL     1      35.689  29.412  51.034  0.00  0.00    +0.000 NA
ATOM     17  H   UNL     1      37.277  29.088  52.426  0.00  0.00    +0.000 HD
ATOM     18  H   UNL     1      38.769  30.645  51.245  0.00  0.00    +0.000 HD
ATOM     19  H   UNL     1      34.307  29.947  49.483  0.00  0.00    +0.000 HD
ENDBRANCH   3  13
BRANCH   7  22
ATOM     20  C   UNL     1      39.188  32.163  44.683  0.00  0.00    +0.000 C 
ATOM     21  O   UNL     1      38.079  32.716  44.990  0.00  0.00    +0.000 OA
ATOM     22  N   UNL     1      40.092  31.994  45.786  0.00  0.00    +0.000 N 
ATOM     23  H   UNL     1      41.013  31.548  45.569  0.00  0.00    +0.000 HD
BRANCH  20  26
ATOM     24  H   UNL     1      39.035  33.251  42.017  0.00  0.00    +0.000 HD
ATOM     25  N   UNL     1      39.455  32.302  42.124  0.00  0.00    +0.000 N 
ATOM     26  C   UNL     1      39.565  31.718  43.337  0.00  0.00    +0.000 A 
ATOM     27  N   UNL     1      40.144  30.500  43.160  0.00  0.00    +0.000 NA
ATOM     28  C   UNL     1      40.405  30.289  41.876  0.00  0.00    +0.000 A 
ATOM     29  C   UNL     1      40.953  29.318  41.063  0.00  0.00    +0.000 A 
ATOM     30  H   UNL     1      41.300  28.416  41.572  0.00  0.00    +0.000 HD
ATOM     31  N   UNL     1      41.066  29.454  39.711  0.00  0.00    +0.000 NA
ATOM     32  C   UNL     1      40.618  30.601  39.122  0.00  0.00    +0.000 A 
ATOM     33  H   UNL     1      40.744  30.628  38.049  0.00  0.00    +0.000 HD
ATOM     34  N   UNL     1      40.075  31.577  39.878  0.00  0.00    +0.000 NA
ATOM     35  C   UNL     1      39.965  31.438  41.226  0.00  0.00    +0.000 A 
ENDBRANCH  20  26
ENDBRANCH   7  22
TORSDOF 3
