
 OpenBabel03272506383D

 40 43  0  0  1  0  0  0  0  0999 V2000
   34.1340   29.1790   49.8410 O   0  0  0  0  0  0  0  0  0  0  0  0
   34.0590   29.3420   48.6130 C   0  0  0  0  0  0  0  0  0  0  0  0
   34.9390   30.2570   47.9150 C   0  0  2  0  0  0  0  0  0  0  0  0
   34.5720   29.9390   46.4280 C   0  0  0  0  0  0  0  0  0  0  0  0
   33.1550   29.4570   46.5310 C   0  0  0  0  0  0  0  0  0  0  0  0
   33.1200   28.6640   47.7490 N   0  0  0  0  0  0  0  0  0  0  0  0
   34.7940   31.3290   48.0740 H   0  0  0  0  0  0  0  0  0  0  0  0
   35.2640   29.2040   46.0200 H   0  0  0  0  0  0  0  0  0  0  0  0
   34.7100   30.8770   45.8800 H   0  0  0  0  0  0  0  0  0  0  0  0
   32.4090   30.2480   46.4810 H   0  0  0  0  0  0  0  0  0  0  0  0
   32.9750   28.7370   45.6910 H   0  0  0  0  0  0  0  0  0  0  0  0
   32.3360   27.4800   48.0210 C   0  0  0  0  0  0  0  0  0  0  0  0
   32.3650   26.7740   47.1820 H   0  0  0  0  0  0  0  0  0  0  0  0
   32.8640   26.9650   48.8770 H   0  0  0  0  0  0  0  0  0  0  0  0
   31.0110   27.7860   48.4670 N   0  0  0  0  0  0  0  0  0  0  0  0
   30.5810   27.9000   49.7560 C   0  0  0  0  0  0  0  0  0  0  0  0
   31.2530   27.7580   50.5910 H   0  0  0  0  0  0  0  0  0  0  0  0
   29.2530   28.2020   49.8030 N   0  0  0  0  0  0  0  0  0  0  0  0
   28.8160   28.2860   48.5280 C   0  0  0  0  0  0  0  0  0  0  0  0
   27.5730   28.5600   47.9860 C   0  0  0  0  0  0  0  0  0  0  0  0
   26.7610   28.7530   48.6620 H   0  0  0  0  0  0  0  0  0  0  0  0
   27.5040   28.5590   46.6450 N   0  0  0  0  0  0  0  0  0  0  0  0
   28.5690   28.3080   45.8520 C   0  0  0  0  0  0  0  0  0  0  0  0
   28.3780   28.3380   44.7820 H   0  0  0  0  0  0  0  0  0  0  0  0
   29.7810   28.0390   46.3550 N   0  0  0  0  0  0  0  0  0  0  0  0
   29.9040   28.0290   47.7140 C   0  0  0  0  0  0  0  0  0  0  0  0
   36.3270   29.9480   48.0390 O   0  0  0  0  0  0  0  0  0  0  0  0
   37.2110   31.0130   48.1860 C   0  0  0  0  0  0  0  0  0  0  0  0
   37.3620   31.5230   49.4630 C   0  0  0  0  0  0  0  0  0  0  0  0
   38.2370   32.5870   49.6440 C   0  0  0  0  0  0  0  0  0  0  0  0
   38.9020   33.0780   48.5630 N   0  0  0  0  0  0  0  0  0  0  0  0
   38.7450   32.5710   47.3310 C   0  0  0  0  0  0  0  0  0  0  0  0
   37.9090   31.5570   47.1730 N   0  0  0  0  0  0  0  0  0  0  0  0
   40.2920   32.1510   45.5850 C   0  0  0  0  0  0  0  0  0  0  0  0
   40.4560   30.9390   45.8840 O   0  0  0  0  0  0  0  0  0  0  0  0
   39.4570   33.1130   46.2240 N   0  0  0  0  0  0  0  0  0  0  0  0
   36.8570   31.1660   50.3400 H   0  0  0  0  0  0  0  0  0  0  0  0
   38.3780   33.0090   50.6280 H   0  0  0  0  0  0  0  0  0  0  0  0
   40.9030   32.4030   44.7230 H   0  0  0  0  0  0  0  0  0  0  0  0
   39.4240   34.0750   45.8670 H   0  0  0  0  0  0  0  0  0  0  0  0
  2  1  2  0  0  0  0
  3 27  1  0  0  0  0
  3  7  1  1  0  0  0
  3  2  1  0  0  0  0
  4  5  1  0  0  0  0
  4  3  1  0  0  0  0
  5  6  1  0  0  0  0
  6 12  1  0  0  0  0
  6  2  1  0  0  0  0
  8  4  1  0  0  0  0
  9  4  1  0  0  0  0
 10  5  1  0  0  0  0
 11  5  1  0  0  0  0
 12 15  1  0  0  0  0
 12 14  1  0  0  0  0
 13 12  1  0  0  0  0
 15 16  1  0  0  0  0
 16 18  2  0  0  0  0
 16 17  1  0  0  0  0
 19 18  1  0  0  0  0
 20 19  1  0  0  0  0
 20 21  1  0  0  0  0
 22 20  2  0  0  0  0
 23 25  2  0  0  0  0
 23 22  1  0  0  0  0
 24 23  1  0  0  0  0
 25 26  1  0  0  0  0
 26 15  1  0  0  0  0
 26 19  2  0  0  0  0
 27 28  1  0  0  0  0
 28 29  1  0  0  0  0
 29 30  2  0  0  0  0
 29 37  1  0  0  0  0
 30 38  1  0  0  0  0
 31 30  1  0  0  0  0
 32 31  2  0  0  0  0
 33 32  1  0  0  0  0
 33 28  2  0  0  0  0
 34 35  2  0  0  0  0
 34 36  1  0  0  0  0
 36 32  1  0  0  0  0
 39 34  1  0  0  0  0
 40 36  1  0  0  0  0
M  END
>  <minimizedAffinity>
-6.32555723

>  <minimizedRMSD>
1.60891306

$$$$
