
     RDKit          3D

 42 46  0  0  0  0  0  0  0  0999 V2000
   36.3916   30.9029   45.6964 Cl  0  0  0  0  0  0  0  0  0  0  0  0
   36.6769   30.7583   47.4093 C   0  0  0  0  0  0  0  0  0  0  0  0
   37.9414   31.0782   47.8785 C   0  0  0  0  0  0  0  0  0  0  0  0
   38.1758   30.9665   49.2334 C   0  0  0  0  0  0  0  0  0  0  0  0
   37.1767   30.5506   50.0726 C   0  0  0  0  0  0  0  0  0  0  0  0
   35.9242   30.2440   49.5321 C   0  0  0  0  0  0  0  0  0  0  0  0
   35.6219   30.3320   48.2005 C   0  0  0  0  0  0  0  0  0  0  0  0
   40.2004   33.3185   46.0835 C   0  0  0  0  0  0  0  0  0  0  0  0
   40.9111   32.4562   45.2062 C   0  0  0  0  0  0  0  0  0  0  0  0
   40.5940   31.0981   45.2499 C   0  0  0  0  0  0  0  0  0  0  0  0
   39.6321   30.6657   46.1183 N   0  0  0  0  0  0  0  0  0  0  0  0
   38.9890   31.5238   46.9278 C   0  0  0  0  0  0  0  0  0  0  0  0
   39.2748   32.8260   46.9039 N   0  0  0  0  0  0  0  0  0  0  0  0
   34.0399   29.9457   47.5103 S   0  0  0  0  0  0  0  0  0  0  0  0
   33.7500   29.1872   44.4703 Cl  0  0  0  0  0  0  0  0  0  0  0  0
   33.7807   27.9482   45.7185 C   0  0  0  0  0  0  0  0  0  0  0  0
   33.9061   28.1985   47.0887 C   0  0  0  0  0  0  0  0  0  0  0  0
   33.9180   27.1521   47.9691 C   0  0  0  0  0  0  0  0  0  0  0  0
   33.8089   25.8626   47.5301 C   0  0  0  0  0  0  0  0  0  0  0  0
   33.6816   25.5566   46.1752 C   0  0  0  0  0  0  0  0  0  0  0  0
   33.6728   26.6245   45.3176 C   0  0  0  0  0  0  0  0  0  0  0  0
   39.1720   31.2232   49.5679 H   0  0  0  0  0  0  0  0  0  0  0  0
   37.3750   30.4678   51.1321 H   0  0  0  0  0  0  0  0  0  0  0  0
   35.1544   29.9173   50.2249 H   0  0  0  0  0  0  0  0  0  0  0  0
   40.4239   34.3685   46.0712 H   0  0  0  0  0  0  0  0  0  0  0  0
   41.6621   32.8295   44.5353 H   0  0  0  0  0  0  0  0  0  0  0  0
   41.1083   30.4149   44.6032 H   0  0  0  0  0  0  0  0  0  0  0  0
   34.0194   27.4474   49.0114 H   0  0  0  0  0  0  0  0  0  0  0  0
   33.8252   25.0823   48.2785 H   0  0  0  0  0  0  0  0  0  0  0  0
   33.5972   24.5319   45.8545 H   0  0  0  0  0  0  0  0  0  0  0  0
   33.5418   26.3298   43.9094 N   0  0  0  0  0  0  0  0  0  0  0  0
   32.7825   25.4650   43.2155 C   0  0  0  0  0  0  0  0  0  0  0  0
   32.0955   24.8151   43.7602 H   0  0  0  0  0  0  0  0  0  0  0  0
   33.0783   25.6233   41.9048 N   0  0  0  0  0  0  0  0  0  0  0  0
   34.0206   26.5881   41.8073 C   0  0  0  0  0  0  0  0  0  0  0  0
   34.5995   27.0571   40.6515 C   0  0  0  0  0  0  0  0  0  0  0  0
   34.3322   26.6697   39.6730 H   0  0  0  0  0  0  0  0  0  0  0  0
   35.5230   28.0313   40.8095 N   0  0  0  0  0  0  0  0  0  0  0  0
   35.8426   28.5013   42.0397 C   0  0  0  0  0  0  0  0  0  0  0  0
   36.5956   29.2905   42.1240 H   0  0  0  0  0  0  0  0  0  0  0  0
   35.2607   28.0232   43.1424 N   0  0  0  0  0  0  0  0  0  0  0  0
   34.3282   27.0481   43.0599 C   0  0  0  0  0  0  0  0  0  0  0  0
  1  2  1  0
  2  3  2  0
  2  7  1  0
  3  4  1  0
  4  5  2  0
  6  5  1  0
  7  6  2  0
  8 13  2  0
  9 10  2  0
  9  8  1  0
 10 11  1  0
 11 12  2  0
 12  3  1  0
 13 12  1  0
 14  7  1  0
 15 16  1  0
 16 17  2  0
 17 14  1  0
 17 18  1  0
 19 18  2  0
 20 19  1  0
 21 16  1  0
 21 20  2  0
  4 22  1  0
  5 23  1  0
  6 24  1  0
  8 25  1  0
  9 26  1  0
 10 27  1  0
 18 28  1  0
 19 29  1  0
 20 30  1  0
 31 32  1  0
 32 33  1  0
 32 34  2  0
 34 35  1  0
 35 36  2  0
 36 37  1  0
 36 38  1  0
 38 39  2  0
 39 40  1  0
 39 41  1  0
 41 42  2  0
 42 31  1  0
 42 35  1  0
 21 31  1  0
M  ISO  8  22  14  23  14  24  14  25  14  26  14  27  14  28  14  29  14
M  ISO  4  30  14  33  15  37  16  40  16
M  END
>  <DihAtoms>  (1) 
15,20,30,31

>  <DihDeg>  (1) 
-63.299735310727435

$$$$
