
 OpenBabel03272505263D

 34 37  0  0  0  0  0  0  0  0999 V2000
   37.3830   31.0660   47.1200 N   0  0  0  0  0  0  0  0  0  0  0  0
   36.8040   30.7330   45.9350 C   0  0  0  0  0  0  0  0  0  0  0  0
   37.2740   31.2140   44.7210 C   0  0  0  0  0  0  0  0  0  0  0  0
   38.3840   32.0680   44.7590 C   0  0  0  0  0  0  0  0  0  0  0  0
   38.8490   32.5300   43.6920 O   0  0  0  0  0  0  0  0  0  0  0  0
   38.9680   32.4040   45.9490 N   0  0  0  0  0  0  0  0  0  0  0  0
   38.4240   31.8770   47.0520 C   0  0  0  0  0  0  0  0  0  0  0  0
   38.9800   32.2060   48.1220 O   0  0  0  0  0  0  0  0  0  0  0  0
   35.9400   30.0620   45.9600 H   0  0  0  0  0  0  0  0  0  0  0  0
   36.6660   30.8650   43.4810 N   0  0  0  0  0  0  0  0  0  0  0  0
   35.5860   31.4530   42.9400 C   0  0  0  0  0  0  0  0  0  0  0  0
   35.0280   32.2770   43.3730 H   0  0  0  0  0  0  0  0  0  0  0  0
   35.2680   30.8980   41.7820 N   0  0  0  0  0  0  0  0  0  0  0  0
   36.1420   29.9100   41.5150 C   0  0  0  0  0  0  0  0  0  0  0  0
   36.2850   29.0210   40.4750 C   0  0  0  0  0  0  0  0  0  0  0  0
   35.5810   29.0630   39.6530 H   0  0  0  0  0  0  0  0  0  0  0  0
   37.3040   28.1510   40.5510 N   0  0  0  0  0  0  0  0  0  0  0  0
   38.1710   28.1180   41.5880 C   0  0  0  0  0  0  0  0  0  0  0  0
   38.9910   27.3850   41.6050 H   0  0  0  0  0  0  0  0  0  0  0  0
   38.0190   29.0040   42.6170 N   0  0  0  0  0  0  0  0  0  0  0  0
   37.0140   29.9070   42.6010 C   0  0  0  0  0  0  0  0  0  0  0  0
   37.2180   29.4500   50.4580 C   0  0  0  0  0  0  0  0  0  0  0  0
   37.7050   29.9400   49.2390 C   0  0  0  0  0  0  0  0  0  0  0  0
   36.8930   30.5710   48.3340 C   0  0  0  0  0  0  0  0  0  0  0  0
   35.5810   30.7110   48.6540 N   0  0  0  0  0  0  0  0  0  0  0  0
   35.0770   30.2450   49.8300 C   0  0  0  0  0  0  0  0  0  0  0  0
   35.8880   29.6190   50.7280 N   0  0  0  0  0  0  0  0  0  0  0  0
   37.7850   28.9510   51.2100 H   0  0  0  0  0  0  0  0  0  0  0  0
   38.7540   29.7260   49.1640 H   0  0  0  0  0  0  0  0  0  0  0  0
   34.0260   30.4150   49.9690 H   0  0  0  0  0  0  0  0  0  0  0  0
   40.1150   33.2860   45.9890 C   0  0  0  0  0  0  0  0  0  0  0  0
   39.9750   34.2670   45.0530 F   0  0  0  0  0  0  0  0  0  0  0  0
   41.3050   32.6350   45.7070 F   0  0  0  0  0  0  0  0  0  0  0  0
   40.1750   33.8910   47.2370 F   0  0  0  0  0  0  0  0  0  0  0  0
  1 24  1  0  0  0  0
  2  9  1  0  0  0  0
  2  1  1  0  0  0  0
  3  4  1  0  0  0  0
  3  2  2  0  0  0  0
  4  6  1  0  0  0  0
  5  4  2  0  0  0  0
  6 31  1  0  0  0  0
  6  7  1  0  0  0  0
  7  1  1  0  0  0  0
  7  8  2  0  0  0  0
 10  3  1  0  0  0  0
 11 12  1  0  0  0  0
 11 10  1  0  0  0  0
 13 11  2  0  0  0  0
 14 13  1  0  0  0  0
 14 21  1  0  0  0  0
 15 17  1  0  0  0  0
 15 14  2  0  0  0  0
 16 15  1  0  0  0  0
 17 18  2  0  0  0  0
 18 19  1  0  0  0  0
 18 20  1  0  0  0  0
 21 20  2  0  0  0  0
 21 10  1  0  0  0  0
 22 27  1  0  0  0  0
 22 28  1  0  0  0  0
 23 22  2  0  0  0  0
 24 25  2  0  0  0  0
 24 23  1  0  0  0  0
 25 26  1  0  0  0  0
 26 30  1  0  0  0  0
 26 27  2  0  0  0  0
 29 23  1  0  0  0  0
 31 34  1  0  0  0  0
 32 31  1  0  0  0  0
 33 31  1  0  0  0  0
M  END
>  <minimizedAffinity>
-6.24940681

>  <minimizedRMSD>
0.321045607

$$$$
