
     RDKit          3D

 34 37  0  0  0  0  0  0  0  0999 V2000
   37.4128   29.9451   50.5685 C   0  0  0  0  0  0  0  0  0  0  0  0
   37.8594   30.4105   49.3255 C   0  0  0  0  0  0  0  0  0  0  0  0
   36.9945   30.6673   48.2926 C   0  0  0  0  0  0  0  0  0  0  0  0
   35.6723   30.4536   48.5110 N   0  0  0  0  0  0  0  0  0  0  0  0
   35.2071   30.0012   49.7075 C   0  0  0  0  0  0  0  0  0  0  0  0
   36.0703   29.7479   50.7318 N   0  0  0  0  0  0  0  0  0  0  0  0
   37.4422   31.1386   47.0541 N   0  0  0  0  0  0  0  0  0  0  0  0
   36.8020   30.8096   45.8991 C   0  0  0  0  0  0  0  0  0  0  0  0
   37.2292   31.2684   44.6606 C   0  0  0  0  0  0  0  0  0  0  0  0
   38.3600   32.0942   44.6402 C   0  0  0  0  0  0  0  0  0  0  0  0
   38.7880   32.5345   43.5494 O   0  0  0  0  0  0  0  0  0  0  0  0
   39.0053   32.4265   45.8004 N   0  0  0  0  0  0  0  0  0  0  0  0
   38.4982   31.9230   46.9312 C   0  0  0  0  0  0  0  0  0  0  0  0
   39.1096   32.2472   47.9721 O   0  0  0  0  0  0  0  0  0  0  0  0
   40.1740   33.2793   45.7793 C   0  0  0  0  0  0  0  0  0  0  0  0
   40.0407   34.2204   44.8014 F   0  0  0  0  0  0  0  0  0  0  0  0
   41.3423   32.5864   45.5076 F   0  0  0  0  0  0  0  0  0  0  0  0
   40.2713   33.9393   46.9967 F   0  0  0  0  0  0  0  0  0  0  0  0
   38.0210   29.7244   51.4161 H   0  0  0  0  0  0  0  0  0  0  0  0
   38.9285   30.5046   49.3427 H   0  0  0  0  0  0  0  0  0  0  0  0
   34.1430   29.8708   49.7590 H   0  0  0  0  0  0  0  0  0  0  0  0
   35.9238   30.1614   45.9692 H   0  0  0  0  0  0  0  0  0  0  0  0
   36.5570   30.9230   43.4525 N   0  0  0  0  0  0  0  0  0  0  0  0
   36.2156   29.6816   43.0683 C   0  0  0  0  0  0  0  0  0  0  0  0
   36.4049   28.7698   43.6257 H   0  0  0  0  0  0  0  0  0  0  0  0
   35.6025   29.6951   41.8958 N   0  0  0  0  0  0  0  0  0  0  0  0
   35.5177   30.9649   41.4609 C   0  0  0  0  0  0  0  0  0  0  0  0
   34.9924   31.5513   40.3326 C   0  0  0  0  0  0  0  0  0  0  0  0
   34.5285   30.9192   39.5834 H   0  0  0  0  0  0  0  0  0  0  0  0
   35.0920   32.8862   40.2353 N   0  0  0  0  0  0  0  0  0  0  0  0
   35.6751   33.6537   41.1825 C   0  0  0  0  0  0  0  0  0  0  0  0
   35.7323   34.7457   41.0569 H   0  0  0  0  0  0  0  0  0  0  0  0
   36.1936   33.0624   42.2990 N   0  0  0  0  0  0  0  0  0  0  0  0
   36.1261   31.7224   42.4586 C   0  0  0  0  0  0  0  0  0  0  0  0
  1  6  2  0
  2  1  1  0
  3  4  1  0
  3  2  2  0
  4  5  2  0
  5  6  1  0
  7  3  1  0
  8  7  1  0
  9  8  2  0
 10  9  1  0
 10 12  1  0
 11 10  2  0
 12 13  1  0
 13  7  1  0
 13 14  2  0
 15 12  1  0
 15 18  1  0
 16 15  1  0
 17 15  1  0
  1 19  1  0
  2 20  1  0
  5 21  1  0
  8 22  1  0
 23 24  1  0
 24 25  1  0
 24 26  2  0
 26 27  1  0
 27 28  2  0
 28 29  1  0
 28 30  1  0
 30 31  2  0
 31 32  1  0
 31 33  1  0
 33 34  2  0
 34 23  1  0
 34 27  1  0
  9 23  1  0
M  ISO  7  19  14  20  14  21  14  22  14  25  15  29  16  32  16
M  END
>  <DihAtoms>  (1) 
7,8,22,23

>  <DihDeg>  (1) 
144.84320522470546

$$$$
