
 OpenBabel03272506383D

 40 43  0  0  1  0  0  0  0  0999 V2000
   34.6910   28.7150   50.1060 O   0  0  0  0  0  0  0  0  0  0  0  0
   34.4790   29.0390   48.9260 C   0  0  0  0  0  0  0  0  0  0  0  0
   35.2210   30.1070   48.2890 C   0  0  2  0  0  0  0  0  0  0  0  0
   34.7220   29.9690   46.8120 C   0  0  0  0  0  0  0  0  0  0  0  0
   33.3580   29.3680   46.9770 C   0  0  0  0  0  0  0  0  0  0  0  0
   33.5020   28.4140   48.0650 N   0  0  0  0  0  0  0  0  0  0  0  0
   35.0240   31.1330   48.6140 H   0  0  0  0  0  0  0  0  0  0  0  0
   35.4140   29.3530   46.2390 H   0  0  0  0  0  0  0  0  0  0  0  0
   34.7430   30.9820   46.3960 H   0  0  0  0  0  0  0  0  0  0  0  0
   32.5620   30.0970   47.1130 H   0  0  0  0  0  0  0  0  0  0  0  0
   33.1380   28.7580   46.0630 H   0  0  0  0  0  0  0  0  0  0  0  0
   32.8280   27.1460   48.2360 C   0  0  0  0  0  0  0  0  0  0  0  0
   33.0400   26.4620   47.4060 H   0  0  0  0  0  0  0  0  0  0  0  0
   33.3000   26.6800   49.1500 H   0  0  0  0  0  0  0  0  0  0  0  0
   31.4310   27.2960   48.5140 N   0  0  0  0  0  0  0  0  0  0  0  0
   30.8650   27.9810   49.5490 C   0  0  0  0  0  0  0  0  0  0  0  0
   31.4700   28.4950   50.2840 H   0  0  0  0  0  0  0  0  0  0  0  0
   29.5070   27.9100   49.4970 N   0  0  0  0  0  0  0  0  0  0  0  0
   29.1850   27.1680   48.4140 C   0  0  0  0  0  0  0  0  0  0  0  0
   27.9700   26.7760   47.8820 C   0  0  0  0  0  0  0  0  0  0  0  0
   27.0750   27.0910   48.3840 H   0  0  0  0  0  0  0  0  0  0  0  0
   28.0310   26.0250   46.7700 N   0  0  0  0  0  0  0  0  0  0  0  0
   29.1960   25.6620   46.1880 C   0  0  0  0  0  0  0  0  0  0  0  0
   29.1070   25.0530   45.2920 H   0  0  0  0  0  0  0  0  0  0  0  0
   30.3840   26.0320   46.6870 N   0  0  0  0  0  0  0  0  0  0  0  0
   30.3750   26.7960   47.8160 C   0  0  0  0  0  0  0  0  0  0  0  0
   36.6310   29.8940   48.2370 O   0  0  0  0  0  0  0  0  0  0  0  0
   37.4530   31.0170   48.2850 C   0  0  0  0  0  0  0  0  0  0  0  0
   37.6170   31.6140   49.5230 C   0  0  0  0  0  0  0  0  0  0  0  0
   38.4300   32.7370   49.6050 C   0  0  0  0  0  0  0  0  0  0  0  0
   39.0260   33.1980   48.4710 N   0  0  0  0  0  0  0  0  0  0  0  0
   38.8560   32.6070   47.2800 C   0  0  0  0  0  0  0  0  0  0  0  0
   38.0790   31.5380   47.2150 N   0  0  0  0  0  0  0  0  0  0  0  0
   40.3640   32.1720   45.5020 C   0  0  0  0  0  0  0  0  0  0  0  0
   40.6120   30.9940   45.8670 O   0  0  0  0  0  0  0  0  0  0  0  0
   39.4950   33.1210   46.1150 N   0  0  0  0  0  0  0  0  0  0  0  0
   37.1660   31.2820   50.4380 H   0  0  0  0  0  0  0  0  0  0  0  0
   38.5800   33.2270   50.5560 H   0  0  0  0  0  0  0  0  0  0  0  0
   40.9270   32.4060   44.6030 H   0  0  0  0  0  0  0  0  0  0  0  0
   39.3890   34.0560   45.7030 H   0  0  0  0  0  0  0  0  0  0  0  0
  2  1  2  0  0  0  0
  3  7  1  1  0  0  0
  3  2  1  0  0  0  0
  4  5  1  0  0  0  0
  4  3  1  0  0  0  0
  5 10  1  0  0  0  0
  5  6  1  0  0  0  0
  6 12  1  0  0  0  0
  6  2  1  0  0  0  0
  8  4  1  0  0  0  0
  9  4  1  0  0  0  0
 11  5  1  0  0  0  0
 12 15  1  0  0  0  0
 12 14  1  0  0  0  0
 13 12  1  0  0  0  0
 15 16  1  0  0  0  0
 16 17  1  0  0  0  0
 18 16  2  0  0  0  0
 19 18  1  0  0  0  0
 20 21  1  0  0  0  0
 20 19  1  0  0  0  0
 22 20  2  0  0  0  0
 23 25  2  0  0  0  0
 23 22  1  0  0  0  0
 24 23  1  0  0  0  0
 25 26  1  0  0  0  0
 26 19  2  0  0  0  0
 26 15  1  0  0  0  0
 27 28  1  0  0  0  0
 27  3  1  0  0  0  0
 28 29  1  0  0  0  0
 29 30  2  0  0  0  0
 29 37  1  0  0  0  0
 30 38  1  0  0  0  0
 31 30  1  0  0  0  0
 32 31  2  0  0  0  0
 33 32  1  0  0  0  0
 33 28  2  0  0  0  0
 34 35  2  0  0  0  0
 34 36  1  0  0  0  0
 36 32  1  0  0  0  0
 39 34  1  0  0  0  0
 40 36  1  0  0  0  0
M  END
>  <minimizedAffinity>
-6.38771963

>  <minimizedRMSD>
1.31607056

$$$$
