
 OpenBabel03272501553D

 27 29  0  0  0  0  0  0  0  0999 V2000
   38.3370   22.9180   33.5520 C   0  0  0  0  0  0  0  0  0  0  0  0
   39.2370   22.5860   33.0080 H   0  0  0  0  0  0  0  0  0  0  0  0
   38.5760   23.8880   34.0320 H   0  0  0  0  0  0  0  0  0  0  0  0
   37.2290   23.0790   32.5970 N   0  0  0  0  0  0  0  0  0  0  0  0
   36.5430   22.1170   31.9530 C   0  0  0  0  0  0  0  0  0  0  0  0
   36.7540   21.0610   32.0830 H   0  0  0  0  0  0  0  0  0  0  0  0
   35.6300   22.7400   31.1930 N   0  0  0  0  0  0  0  0  0  0  0  0
   35.7520   24.0710   31.3660 C   0  0  0  0  0  0  0  0  0  0  0  0
   35.1300   25.2230   30.8840 C   0  0  0  0  0  0  0  0  0  0  0  0
   34.3190   25.0940   30.1750 H   0  0  0  0  0  0  0  0  0  0  0  0
   35.5060   26.4520   31.2740 N   0  0  0  0  0  0  0  0  0  0  0  0
   36.5080   26.6410   32.1530 C   0  0  0  0  0  0  0  0  0  0  0  0
   36.8990   27.5630   32.5390 H   0  0  0  0  0  0  0  0  0  0  0  0
   37.1210   25.5630   32.6300 N   0  0  0  0  0  0  0  0  0  0  0  0
   36.7710   24.3170   32.2630 C   0  0  0  0  0  0  0  0  0  0  0  0
   37.8750   21.9780   34.6140 C   0  0  0  0  0  0  0  0  0  0  0  0
   38.1890   20.9270   34.4380 H   0  0  0  0  0  0  0  0  0  0  0  0
   36.7540   22.0350   34.6290 H   0  0  0  0  0  0  0  0  0  0  0  0
   37.8320   23.4570   38.0170 C   0  0  0  0  0  0  0  0  0  0  0  0
   39.1550   23.2790   38.4260 C   0  0  0  0  0  0  0  0  0  0  0  0
   40.0580   22.6480   37.5240 C   0  0  0  0  0  0  0  0  0  0  0  0
   39.5810   22.2550   36.3170 N   0  0  0  0  0  0  0  0  0  0  0  0
   38.2830   22.4550   35.9720 C   0  0  0  0  0  0  0  0  0  0  0  0
   37.4120   23.0500   36.8110 N   0  0  0  0  0  0  0  0  0  0  0  0
   37.0630   23.9180   38.6060 H   0  0  0  0  0  0  0  0  0  0  0  0
   39.4070   23.6350   39.4090 H   0  0  0  0  0  0  0  0  0  0  0  0
   41.0630   22.5250   37.8660 H   0  0  0  0  0  0  0  0  0  0  0  0
  1  3  1  0  0  0  0
  1 16  1  0  0  0  0
  2  1  1  0  0  0  0
  4  1  1  0  0  0  0
  5  6  1  0  0  0  0
  5  4  1  0  0  0  0
  7  8  1  0  0  0  0
  7  5  2  0  0  0  0
  8 15  1  0  0  0  0
  9 11  1  0  0  0  0
  9  8  2  0  0  0  0
 10  9  1  0  0  0  0
 11 12  2  0  0  0  0
 12 13  1  0  0  0  0
 12 14  1  0  0  0  0
 15  4  1  0  0  0  0
 15 14  2  0  0  0  0
 16 18  1  0  0  0  0
 16 23  1  0  0  0  0
 17 16  1  0  0  0  0
 19 20  1  0  0  0  0
 19 25  1  0  0  0  0
 20 26  1  0  0  0  0
 21 27  1  0  0  0  0
 21 20  2  0  0  0  0
 22 21  1  0  0  0  0
 23 22  2  0  0  0  0
 23 24  1  0  0  0  0
 24 19  2  0  0  0  0
M  END
>  <minimizedAffinity>
-4.76176596

$$$$

 OpenBabel03272501553D

 27 29  0  0  0  0  0  0  0  0999 V2000
   37.7350   25.3850   35.8680 C   0  0  0  0  0  0  0  0  0  0  0  0
   37.7100   24.9040   34.8750 H   0  0  0  0  0  0  0  0  0  0  0  0
   36.6880   25.6070   36.1570 H   0  0  0  0  0  0  0  0  0  0  0  0
   38.3480   24.4610   36.8360 N   0  0  0  0  0  0  0  0  0  0  0  0
   38.0500   24.3100   38.1400 C   0  0  0  0  0  0  0  0  0  0  0  0
   37.2810   24.8930   38.6370 H   0  0  0  0  0  0  0  0  0  0  0  0
   38.8660   23.3550   38.6120 N   0  0  0  0  0  0  0  0  0  0  0  0
   39.6560   22.9230   37.6100 C   0  0  0  0  0  0  0  0  0  0  0  0
   40.6750   21.9830   37.4480 C   0  0  0  0  0  0  0  0  0  0  0  0
   40.9650   21.4050   38.3190 H   0  0  0  0  0  0  0  0  0  0  0  0
   41.2840   21.7870   36.2670 N   0  0  0  0  0  0  0  0  0  0  0  0
   40.9440   22.4900   35.1700 C   0  0  0  0  0  0  0  0  0  0  0  0
   41.3500   22.4280   34.1780 H   0  0  0  0  0  0  0  0  0  0  0  0
   39.9760   23.3930   35.2920 N   0  0  0  0  0  0  0  0  0  0  0  0
   39.3450   23.6150   36.4580 C   0  0  0  0  0  0  0  0  0  0  0  0
   38.5100   26.6590   35.9170 C   0  0  0  0  0  0  0  0  0  0  0  0
   39.1470   26.7520   36.8210 H   0  0  0  0  0  0  0  0  0  0  0  0
   37.7580   27.4930   35.9020 H   0  0  0  0  0  0  0  0  0  0  0  0
   39.4640   27.1930   32.3710 C   0  0  0  0  0  0  0  0  0  0  0  0
   40.8590   27.2170   32.4480 C   0  0  0  0  0  0  0  0  0  0  0  0
   41.4640   27.0480   33.7260 C   0  0  0  0  0  0  0  0  0  0  0  0
   40.6510   26.8740   34.7970 N   0  0  0  0  0  0  0  0  0  0  0  0
   39.3000   26.8590   34.6630 C   0  0  0  0  0  0  0  0  0  0  0  0
   38.7070   27.0160   33.4630 N   0  0  0  0  0  0  0  0  0  0  0  0
   38.8970   27.3080   31.4680 H   0  0  0  0  0  0  0  0  0  0  0  0
   41.3900   27.3640   31.5250 H   0  0  0  0  0  0  0  0  0  0  0  0
   42.5320   27.0720   33.7520 H   0  0  0  0  0  0  0  0  0  0  0  0
  1 16  1  0  0  0  0
  1  3  1  0  0  0  0
  1  4  1  0  0  0  0
  2  1  1  0  0  0  0
  4  5  1  0  0  0  0
  5  7  2  0  0  0  0
  5  6  1  0  0  0  0
  8  7  1  0  0  0  0
  9  8  1  0  0  0  0
  9 10  1  0  0  0  0
 11  9  2  0  0  0  0
 12 14  2  0  0  0  0
 12 11  1  0  0  0  0
 13 12  1  0  0  0  0
 14 15  1  0  0  0  0
 15  4  1  0  0  0  0
 15  8  2  0  0  0  0
 16 17  1  0  0  0  0
 18 16  1  0  0  0  0
 19 20  2  0  0  0  0
 19 24  1  0  0  0  0
 20 21  1  0  0  0  0
 21 27  1  0  0  0  0
 21 22  2  0  0  0  0
 23 22  1  0  0  0  0
 23 16  1  0  0  0  0
 24 23  2  0  0  0  0
 25 19  1  0  0  0  0
 26 20  1  0  0  0  0
M  END
>  <minimizedAffinity>
-4.52304029

$$$$

 OpenBabel03272501553D

 27 29  0  0  0  0  0  0  0  0999 V2000
   38.7670   22.8270   33.6290 C   0  0  0  0  0  0  0  0  0  0  0  0
   38.7810   22.2900   32.6650 H   0  0  0  0  0  0  0  0  0  0  0  0
   39.8010   22.8200   34.0290 H   0  0  0  0  0  0  0  0  0  0  0  0
   38.3140   24.2090   33.4060 N   0  0  0  0  0  0  0  0  0  0  0  0
   38.8130   25.3410   33.9360 C   0  0  0  0  0  0  0  0  0  0  0  0
   39.6510   25.3450   34.6250 H   0  0  0  0  0  0  0  0  0  0  0  0
   38.0810   26.3510   33.4420 N   0  0  0  0  0  0  0  0  0  0  0  0
   37.1420   25.8470   32.6170 C   0  0  0  0  0  0  0  0  0  0  0  0
   36.1100   26.3460   31.8220 C   0  0  0  0  0  0  0  0  0  0  0  0
   35.9600   27.4200   31.8130 H   0  0  0  0  0  0  0  0  0  0  0  0
   35.3220   25.5420   31.0880 N   0  0  0  0  0  0  0  0  0  0  0  0
   35.4860   24.2060   31.0810 C   0  0  0  0  0  0  0  0  0  0  0  0
   34.9280   23.4630   30.5430 H   0  0  0  0  0  0  0  0  0  0  0  0
   36.4610   23.6990   31.8280 N   0  0  0  0  0  0  0  0  0  0  0  0
   37.2690   24.4740   32.5740 C   0  0  0  0  0  0  0  0  0  0  0  0
   37.8690   22.2250   34.6570 C   0  0  0  0  0  0  0  0  0  0  0  0
   37.7670   21.1240   34.5620 H   0  0  0  0  0  0  0  0  0  0  0  0
   36.8630   22.7060   34.5250 H   0  0  0  0  0  0  0  0  0  0  0  0
   37.8680   23.5780   38.1120 C   0  0  0  0  0  0  0  0  0  0  0  0
   39.1700   23.2970   38.5330 C   0  0  0  0  0  0  0  0  0  0  0  0
   40.0440   22.6410   37.6190 C   0  0  0  0  0  0  0  0  0  0  0  0
   39.5620   22.3260   36.3920 N   0  0  0  0  0  0  0  0  0  0  0  0
   38.2850   22.6240   36.0380 C   0  0  0  0  0  0  0  0  0  0  0  0
   37.4420   23.2440   36.8860 N   0  0  0  0  0  0  0  0  0  0  0  0
   37.1220   24.0660   38.7090 H   0  0  0  0  0  0  0  0  0  0  0  0
   39.4300   23.5990   39.5310 H   0  0  0  0  0  0  0  0  0  0  0  0
   41.0330   22.4400   37.9700 H   0  0  0  0  0  0  0  0  0  0  0  0
  1  3  1  0  0  0  0
  1 16  1  0  0  0  0
  2  1  1  0  0  0  0
  4  1  1  0  0  0  0
  4  5  1  0  0  0  0
  5  6  1  0  0  0  0
  7  5  2  0  0  0  0
  8  7  1  0  0  0  0
  9  8  2  0  0  0  0
 10  9  1  0  0  0  0
 11  9  1  0  0  0  0
 12 11  2  0  0  0  0
 12 14  1  0  0  0  0
 13 12  1  0  0  0  0
 14 15  2  0  0  0  0
 15  8  1  0  0  0  0
 15  4  1  0  0  0  0
 16 23  1  0  0  0  0
 17 16  1  0  0  0  0
 18 16  1  0  0  0  0
 19 20  1  0  0  0  0
 19 25  1  0  0  0  0
 20 26  1  0  0  0  0
 21 27  1  0  0  0  0
 21 20  2  0  0  0  0
 22 21  1  0  0  0  0
 23 22  2  0  0  0  0
 23 24  1  0  0  0  0
 24 19  2  0  0  0  0
M  END
>  <minimizedAffinity>
-4.40214443

$$$$

 OpenBabel03272501553D

 27 29  0  0  0  0  0  0  0  0999 V2000
   37.5910   24.9660   35.7280 C   0  0  0  0  0  0  0  0  0  0  0  0
   37.6000   24.3920   34.7870 H   0  0  0  0  0  0  0  0  0  0  0  0
   36.5320   25.1080   36.0230 H   0  0  0  0  0  0  0  0  0  0  0  0
   38.3130   24.2080   36.7630 N   0  0  0  0  0  0  0  0  0  0  0  0
   38.0890   24.1960   38.0900 C   0  0  0  0  0  0  0  0  0  0  0  0
   37.3050   24.7830   38.5570 H   0  0  0  0  0  0  0  0  0  0  0  0
   38.9920   23.3600   38.6240 N   0  0  0  0  0  0  0  0  0  0  0  0
   39.7620   22.8620   37.6370 C   0  0  0  0  0  0  0  0  0  0  0  0
   40.8360   21.9770   37.5300 C   0  0  0  0  0  0  0  0  0  0  0  0
   41.2070   21.5280   38.4450 H   0  0  0  0  0  0  0  0  0  0  0  0
   41.4010   21.6800   36.3480 N   0  0  0  0  0  0  0  0  0  0  0  0
   40.9600   22.2220   35.1970 C   0  0  0  0  0  0  0  0  0  0  0  0
   41.3220   22.0670   34.1980 H   0  0  0  0  0  0  0  0  0  0  0  0
   39.9380   23.0690   35.2650 N   0  0  0  0  0  0  0  0  0  0  0  0
   39.3480   23.3890   36.4310 C   0  0  0  0  0  0  0  0  0  0  0  0
   38.2290   26.3110   35.6370 C   0  0  0  0  0  0  0  0  0  0  0  0
   39.3380   26.2770   35.6910 H   0  0  0  0  0  0  0  0  0  0  0  0
   37.8310   26.9150   36.4960 H   0  0  0  0  0  0  0  0  0  0  0  0
   37.9370   27.6470   32.1870 C   0  0  0  0  0  0  0  0  0  0  0  0
   36.7980   28.4490   32.2830 C   0  0  0  0  0  0  0  0  0  0  0  0
   36.1340   28.5250   33.5420 C   0  0  0  0  0  0  0  0  0  0  0  0
   36.6470   27.8140   34.5750 N   0  0  0  0  0  0  0  0  0  0  0  0
   37.7600   27.0500   34.4230 C   0  0  0  0  0  0  0  0  0  0  0  0
   38.4020   26.9640   33.2420 N   0  0  0  0  0  0  0  0  0  0  0  0
   38.5180   27.5110   31.2960 H   0  0  0  0  0  0  0  0  0  0  0  0
   36.4920   28.9620   31.3900 H   0  0  0  0  0  0  0  0  0  0  0  0
   35.2660   29.1460   33.5830 H   0  0  0  0  0  0  0  0  0  0  0  0
  1  3  1  0  0  0  0
  1  4  1  0  0  0  0
  2  1  1  0  0  0  0
  4  5  1  0  0  0  0
  5  6  1  0  0  0  0
  5  7  2  0  0  0  0
  8  7  1  0  0  0  0
  9  8  1  0  0  0  0
  9 10  1  0  0  0  0
 11  9  2  0  0  0  0
 12 14  2  0  0  0  0
 12 11  1  0  0  0  0
 13 12  1  0  0  0  0
 14 15  1  0  0  0  0
 15  4  1  0  0  0  0
 15  8  2  0  0  0  0
 16 17  1  0  0  0  0
 16  1  1  0  0  0  0
 16 18  1  0  0  0  0
 19 20  2  0  0  0  0
 19 24  1  0  0  0  0
 20 21  1  0  0  0  0
 21 27  1  0  0  0  0
 21 22  2  0  0  0  0
 23 22  1  0  0  0  0
 23 16  1  0  0  0  0
 24 23  2  0  0  0  0
 25 19  1  0  0  0  0
 26 20  1  0  0  0  0
M  END
>  <minimizedAffinity>
-4.38803434

$$$$

 OpenBabel03272501553D

 27 29  0  0  0  0  0  0  0  0999 V2000
   38.6270   26.7420   33.9150 C   0  0  0  0  0  0  0  0  0  0  0  0
   39.2780   25.9240   33.5620 H   0  0  0  0  0  0  0  0  0  0  0  0
   39.2330   27.6700   33.9250 H   0  0  0  0  0  0  0  0  0  0  0  0
   37.4880   26.8850   32.9930 N   0  0  0  0  0  0  0  0  0  0  0  0
   36.8800   28.0170   32.5960 C   0  0  0  0  0  0  0  0  0  0  0  0
   37.1890   28.9990   32.9390 H   0  0  0  0  0  0  0  0  0  0  0  0
   35.9000   27.6520   31.7560 N   0  0  0  0  0  0  0  0  0  0  0  0
   35.9040   26.3100   31.6370 C   0  0  0  0  0  0  0  0  0  0  0  0
   35.1710   25.3460   30.9450 C   0  0  0  0  0  0  0  0  0  0  0  0
   34.3620   25.6920   30.3110 H   0  0  0  0  0  0  0  0  0  0  0  0
   35.4420   24.0340   31.0470 N   0  0  0  0  0  0  0  0  0  0  0  0
   36.4400   23.5760   31.8270 C   0  0  0  0  0  0  0  0  0  0  0  0
   36.7540   22.5630   31.9920 H   0  0  0  0  0  0  0  0  0  0  0  0
   37.1570   24.4710   32.4990 N   0  0  0  0  0  0  0  0  0  0  0  0
   36.9140   25.7910   32.4200 C   0  0  0  0  0  0  0  0  0  0  0  0
   38.0680   26.5400   35.2830 C   0  0  0  0  0  0  0  0  0  0  0  0
   36.9600   26.5960   35.3190 H   0  0  0  0  0  0  0  0  0  0  0  0
   38.5040   27.3460   35.9310 H   0  0  0  0  0  0  0  0  0  0  0  0
   40.0150   23.4500   35.9400 C   0  0  0  0  0  0  0  0  0  0  0  0
   39.4070   22.9660   37.1000 C   0  0  0  0  0  0  0  0  0  0  0  0
   38.3250   23.7110   37.6520 C   0  0  0  0  0  0  0  0  0  0  0  0
   37.9470   24.8480   37.0180 N   0  0  0  0  0  0  0  0  0  0  0  0
   38.5750   25.2700   35.8910 C   0  0  0  0  0  0  0  0  0  0  0  0
   39.6010   24.5810   35.3530 N   0  0  0  0  0  0  0  0  0  0  0  0
   40.8350   22.9780   35.4340 H   0  0  0  0  0  0  0  0  0  0  0  0
   39.8010   22.0520   37.5060 H   0  0  0  0  0  0  0  0  0  0  0  0
   37.8810   23.3160   38.5400 H   0  0  0  0  0  0  0  0  0  0  0  0
  1  3  1  0  0  0  0
  1 16  1  0  0  0  0
  2  1  1  0  0  0  0
  4  1  1  0  0  0  0
  5  6  1  0  0  0  0
  5  4  1  0  0  0  0
  7  5  2  0  0  0  0
  8  7  1  0  0  0  0
  8 15  1  0  0  0  0
  9 11  1  0  0  0  0
  9  8  2  0  0  0  0
 10  9  1  0  0  0  0
 11 12  2  0  0  0  0
 12 13  1  0  0  0  0
 12 14  1  0  0  0  0
 15 14  2  0  0  0  0
 15  4  1  0  0  0  0
 16 17  1  0  0  0  0
 16 23  1  0  0  0  0
 16 18  1  0  0  0  0
 19 20  1  0  0  0  0
 20 26  1  0  0  0  0
 20 21  2  0  0  0  0
 21 27  1  0  0  0  0
 22 21  1  0  0  0  0
 23 22  2  0  0  0  0
 24 23  1  0  0  0  0
 24 19  2  0  0  0  0
 25 19  1  0  0  0  0
M  END
>  <minimizedAffinity>
-4.37372303

$$$$

 OpenBabel03272501553D

 27 29  0  0  0  0  0  0  0  0999 V2000
   35.9280   29.2870   32.9730 C   0  0  0  0  0  0  0  0  0  0  0  0
   36.7000   29.8860   33.4850 H   0  0  0  0  0  0  0  0  0  0  0  0
   35.8290   29.6820   31.9420 H   0  0  0  0  0  0  0  0  0  0  0  0
   36.3520   27.8780   32.9430 N   0  0  0  0  0  0  0  0  0  0  0  0
   36.1200   26.9630   31.9840 C   0  0  0  0  0  0  0  0  0  0  0  0
   35.5610   27.1890   31.0820 H   0  0  0  0  0  0  0  0  0  0  0  0
   36.6980   25.8240   32.3930 N   0  0  0  0  0  0  0  0  0  0  0  0
   37.2790   26.0350   33.5900 C   0  0  0  0  0  0  0  0  0  0  0  0
   38.0130   25.2880   34.5130 C   0  0  0  0  0  0  0  0  0  0  0  0
   38.2090   24.2490   34.2720 H   0  0  0  0  0  0  0  0  0  0  0  0
   38.4680   25.8200   35.6600 N   0  0  0  0  0  0  0  0  0  0  0  0
   38.2400   27.1060   35.9830 C   0  0  0  0  0  0  0  0  0  0  0  0
   38.5470   27.6440   36.8600 H   0  0  0  0  0  0  0  0  0  0  0  0
   37.5430   27.8440   35.1240 N   0  0  0  0  0  0  0  0  0  0  0  0
   37.0730   27.3460   33.9670 C   0  0  0  0  0  0  0  0  0  0  0  0
   34.5830   29.3330   33.6170 C   0  0  0  0  0  0  0  0  0  0  0  0
   34.1990   28.3330   33.9070 H   0  0  0  0  0  0  0  0  0  0  0  0
   33.8850   29.7990   32.8700 H   0  0  0  0  0  0  0  0  0  0  0  0
   33.4980   31.3840   36.5130 C   0  0  0  0  0  0  0  0  0  0  0  0
   34.6790   32.0450   36.8570 C   0  0  0  0  0  0  0  0  0  0  0  0
   35.8470   31.7790   36.0860 C   0  0  0  0  0  0  0  0  0  0  0  0
   35.7450   30.8980   35.0610 N   0  0  0  0  0  0  0  0  0  0  0  0
   34.5690   30.2850   34.7710 C   0  0  0  0  0  0  0  0  0  0  0  0
   33.4530   30.5220   35.4880 N   0  0  0  0  0  0  0  0  0  0  0  0
   32.5590   31.5020   37.0170 H   0  0  0  0  0  0  0  0  0  0  0  0
   34.6280   32.7190   37.6930 H   0  0  0  0  0  0  0  0  0  0  0  0
   36.7340   32.3000   36.3750 H   0  0  0  0  0  0  0  0  0  0  0  0
  1  2  1  0  0  0  0
  1 16  1  0  0  0  0
  3  1  1  0  0  0  0
  4  1  1  0  0  0  0
  4 15  1  0  0  0  0
  5  7  2  0  0  0  0
  5  4  1  0  0  0  0
  6  5  1  0  0  0  0
  7  8  1  0  0  0  0
  8 15  2  0  0  0  0
  8  9  1  0  0  0  0
  9 11  2  0  0  0  0
 10  9  1  0  0  0  0
 11 12  1  0  0  0  0
 12 13  1  0  0  0  0
 14 12  2  0  0  0  0
 15 14  1  0  0  0  0
 16 17  1  0  0  0  0
 16 23  1  0  0  0  0
 18 16  1  0  0  0  0
 19 20  1  0  0  0  0
 19 25  1  0  0  0  0
 20 26  1  0  0  0  0
 21 27  1  0  0  0  0
 21 20  2  0  0  0  0
 22 21  1  0  0  0  0
 23 22  2  0  0  0  0
 23 24  1  0  0  0  0
 24 19  2  0  0  0  0
M  END
>  <minimizedAffinity>
-4.27675581

$$$$

 OpenBabel03272501553D

 27 29  0  0  0  0  0  0  0  0999 V2000
   38.9090   25.4100   33.8380 C   0  0  0  0  0  0  0  0  0  0  0  0
   37.9260   25.6350   34.2860 H   0  0  0  0  0  0  0  0  0  0  0  0
   39.4840   26.3570   33.8030 H   0  0  0  0  0  0  0  0  0  0  0  0
   39.6050   24.4200   34.6760 N   0  0  0  0  0  0  0  0  0  0  0  0
   40.6740   23.6690   34.3560 C   0  0  0  0  0  0  0  0  0  0  0  0
   41.1590   23.7230   33.3870 H   0  0  0  0  0  0  0  0  0  0  0  0
   40.9530   22.9190   35.4330 N   0  0  0  0  0  0  0  0  0  0  0  0
   40.0650   23.2060   36.4050 C   0  0  0  0  0  0  0  0  0  0  0  0
   39.8180   22.7900   37.7140 C   0  0  0  0  0  0  0  0  0  0  0  0
   40.4750   22.0360   38.1320 H   0  0  0  0  0  0  0  0  0  0  0  0
   38.8090   23.2950   38.4440 N   0  0  0  0  0  0  0  0  0  0  0  0
   37.9780   24.2330   37.9510 C   0  0  0  0  0  0  0  0  0  0  0  0
   37.1440   24.7110   38.4280 H   0  0  0  0  0  0  0  0  0  0  0  0
   38.1880   24.6490   36.7060 N   0  0  0  0  0  0  0  0  0  0  0  0
   39.1880   24.1670   35.9470 C   0  0  0  0  0  0  0  0  0  0  0  0
   38.8450   24.8550   32.4550 C   0  0  0  0  0  0  0  0  0  0  0  0
   39.2590   23.8280   32.3730 H   0  0  0  0  0  0  0  0  0  0  0  0
   39.4380   25.5500   31.8020 H   0  0  0  0  0  0  0  0  0  0  0  0
   35.4600   23.9670   31.2200 C   0  0  0  0  0  0  0  0  0  0  0  0
   34.9330   25.2190   30.8950 C   0  0  0  0  0  0  0  0  0  0  0  0
   35.7510   26.3670   31.1050 C   0  0  0  0  0  0  0  0  0  0  0  0
   36.9950   26.1780   31.6080 N   0  0  0  0  0  0  0  0  0  0  0  0
   37.4560   24.9350   31.9050 C   0  0  0  0  0  0  0  0  0  0  0  0
   36.6990   23.8370   31.7140 N   0  0  0  0  0  0  0  0  0  0  0  0
   34.9420   23.0340   31.1060 H   0  0  0  0  0  0  0  0  0  0  0  0
   33.9320   25.2340   30.5040 H   0  0  0  0  0  0  0  0  0  0  0  0
   35.3190   27.3090   30.8480 H   0  0  0  0  0  0  0  0  0  0  0  0
  1  2  1  0  0  0  0
  1  4  1  0  0  0  0
  3  1  1  0  0  0  0
  4 15  1  0  0  0  0
  5  4  1  0  0  0  0
  5  7  2  0  0  0  0
  6  5  1  0  0  0  0
  7  8  1  0  0  0  0
  8  9  1  0  0  0  0
  9 10  1  0  0  0  0
  9 11  2  0  0  0  0
 12 13  1  0  0  0  0
 12 11  1  0  0  0  0
 14 12  2  0  0  0  0
 15  8  2  0  0  0  0
 15 14  1  0  0  0  0
 16  1  1  0  0  0  0
 17 16  1  0  0  0  0
 18 16  1  0  0  0  0
 19 24  1  0  0  0  0
 20 21  1  0  0  0  0
 20 19  2  0  0  0  0
 21 22  2  0  0  0  0
 22 23  1  0  0  0  0
 23 16  1  0  0  0  0
 24 23  2  0  0  0  0
 25 19  1  0  0  0  0
 26 20  1  0  0  0  0
 27 21  1  0  0  0  0
M  END
>  <minimizedAffinity>
-4.27188063

$$$$

 OpenBabel03272501553D

 27 29  0  0  0  0  0  0  0  0999 V2000
   38.5400   26.6280   35.0660 C   0  0  0  0  0  0  0  0  0  0  0  0
   39.5950   26.3170   34.9700 H   0  0  0  0  0  0  0  0  0  0  0  0
   38.5200   27.5560   35.6710 H   0  0  0  0  0  0  0  0  0  0  0  0
   37.9870   26.8770   33.7250 N   0  0  0  0  0  0  0  0  0  0  0  0
   38.3720   26.3340   32.5560 C   0  0  0  0  0  0  0  0  0  0  0  0
   39.1800   25.6130   32.4820 H   0  0  0  0  0  0  0  0  0  0  0  0
   37.5810   26.8610   31.6090 N   0  0  0  0  0  0  0  0  0  0  0  0
   36.7180   27.7190   32.1890 C   0  0  0  0  0  0  0  0  0  0  0  0
   35.6800   28.5550   31.7770 C   0  0  0  0  0  0  0  0  0  0  0  0
   35.4440   28.5750   30.7190 H   0  0  0  0  0  0  0  0  0  0  0  0
   34.9880   29.3130   32.6440 N   0  0  0  0  0  0  0  0  0  0  0  0
   35.2590   29.3080   33.9630 C   0  0  0  0  0  0  0  0  0  0  0  0
   34.7840   29.8610   34.7500 H   0  0  0  0  0  0  0  0  0  0  0  0
   36.2430   28.5210   34.3870 N   0  0  0  0  0  0  0  0  0  0  0  0
   36.9560   27.7490   33.5480 C   0  0  0  0  0  0  0  0  0  0  0  0
   37.6600   25.6230   35.7300 C   0  0  0  0  0  0  0  0  0  0  0  0
   36.9300   25.1510   35.0390 H   0  0  0  0  0  0  0  0  0  0  0  0
   37.1060   26.1670   36.5420 H   0  0  0  0  0  0  0  0  0  0  0  0
   38.9110   23.2820   38.3230 C   0  0  0  0  0  0  0  0  0  0  0  0
   40.0210   22.7180   37.6910 C   0  0  0  0  0  0  0  0  0  0  0  0
   40.3330   23.1490   36.3690 C   0  0  0  0  0  0  0  0  0  0  0  0
   39.5340   24.0830   35.8000 N   0  0  0  0  0  0  0  0  0  0  0  0
   38.4670   24.5990   36.4630 C   0  0  0  0  0  0  0  0  0  0  0  0
   38.1540   24.2050   37.7130 N   0  0  0  0  0  0  0  0  0  0  0  0
   38.5790   23.0390   39.3130 H   0  0  0  0  0  0  0  0  0  0  0  0
   40.5740   21.9850   38.2500 H   0  0  0  0  0  0  0  0  0  0  0  0
   41.1870   22.6980   35.9120 H   0  0  0  0  0  0  0  0  0  0  0  0
  1  3  1  0  0  0  0
  1 16  1  0  0  0  0
  2  1  1  0  0  0  0
  4  1  1  0  0  0  0
  5  4  1  0  0  0  0
  6  5  1  0  0  0  0
  7  8  1  0  0  0  0
  7  5  2  0  0  0  0
  8 15  1  0  0  0  0
  9  8  2  0  0  0  0
  9 11  1  0  0  0  0
 10  9  1  0  0  0  0
 11 12  2  0  0  0  0
 12 14  1  0  0  0  0
 12 13  1  0  0  0  0
 15  4  1  0  0  0  0
 15 14  2  0  0  0  0
 16 23  1  0  0  0  0
 16 18  1  0  0  0  0
 17 16  1  0  0  0  0
 19 25  1  0  0  0  0
 20 26  1  0  0  0  0
 20 19  2  0  0  0  0
 21 20  1  0  0  0  0
 22 21  2  0  0  0  0
 22 23  1  0  0  0  0
 23 24  2  0  0  0  0
 24 19  1  0  0  0  0
 27 21  1  0  0  0  0
M  END
>  <minimizedAffinity>
-4.23742199

$$$$

 OpenBabel03272501553D

 27 29  0  0  0  0  0  0  0  0999 V2000
   38.4300   24.9440   33.4010 C   0  0  0  0  0  0  0  0  0  0  0  0
   39.1890   24.1450   33.4550 H   0  0  0  0  0  0  0  0  0  0  0  0
   38.9100   25.8300   32.9380 H   0  0  0  0  0  0  0  0  0  0  0  0
   37.3030   24.4830   32.5740 N   0  0  0  0  0  0  0  0  0  0  0  0
   36.3850   25.2300   31.9330 C   0  0  0  0  0  0  0  0  0  0  0  0
   36.3850   26.3140   31.9670 H   0  0  0  0  0  0  0  0  0  0  0  0
   35.5600   24.3740   31.3110 N   0  0  0  0  0  0  0  0  0  0  0  0
   35.9660   23.1140   31.5650 C   0  0  0  0  0  0  0  0  0  0  0  0
   35.5560   21.8240   31.2270 C   0  0  0  0  0  0  0  0  0  0  0  0
   34.6820   21.7260   30.5930 H   0  0  0  0  0  0  0  0  0  0  0  0
   36.2070   20.7320   31.6630 N   0  0  0  0  0  0  0  0  0  0  0  0
   37.2950   20.8240   32.4510 C   0  0  0  0  0  0  0  0  0  0  0  0
   37.8970   20.0360   32.8610 H   0  0  0  0  0  0  0  0  0  0  0  0
   37.7100   22.0400   32.7900 N   0  0  0  0  0  0  0  0  0  0  0  0
   37.0840   23.1540   32.3730 C   0  0  0  0  0  0  0  0  0  0  0  0
   37.8720   25.3560   34.7210 C   0  0  0  0  0  0  0  0  0  0  0  0
   36.7620   25.3790   34.7430 H   0  0  0  0  0  0  0  0  0  0  0  0
   38.2710   26.3850   34.9320 H   0  0  0  0  0  0  0  0  0  0  0  0
   39.9800   23.0200   36.6880 C   0  0  0  0  0  0  0  0  0  0  0  0
   39.3430   23.0320   37.9300 C   0  0  0  0  0  0  0  0  0  0  0  0
   38.1860   23.8490   38.0840 C   0  0  0  0  0  0  0  0  0  0  0  0
   37.7690   24.5690   37.0140 N   0  0  0  0  0  0  0  0  0  0  0  0
   38.4280   24.5170   35.8280 C   0  0  0  0  0  0  0  0  0  0  0  0
   39.5240   23.7510   35.6610 N   0  0  0  0  0  0  0  0  0  0  0  0
   40.8550   22.4460   36.4520 H   0  0  0  0  0  0  0  0  0  0  0  0
   39.7740   22.4160   38.6990 H   0  0  0  0  0  0  0  0  0  0  0  0
   37.7220   23.8380   39.0460 H   0  0  0  0  0  0  0  0  0  0  0  0
  1  2  1  0  0  0  0
  1 16  1  0  0  0  0
  3  1  1  0  0  0  0
  4  1  1  0  0  0  0
  5  6  1  0  0  0  0
  5  4  1  0  0  0  0
  7  8  1  0  0  0  0
  7  5  2  0  0  0  0
  8 15  1  0  0  0  0
  9  8  2  0  0  0  0
  9 11  1  0  0  0  0
 10  9  1  0  0  0  0
 11 12  2  0  0  0  0
 12 14  1  0  0  0  0
 12 13  1  0  0  0  0
 15  4  1  0  0  0  0
 15 14  2  0  0  0  0
 16 17  1  0  0  0  0
 16 18  1  0  0  0  0
 16 23  1  0  0  0  0
 19 20  1  0  0  0  0
 20 21  2  0  0  0  0
 20 26  1  0  0  0  0
 21 27  1  0  0  0  0
 22 21  1  0  0  0  0
 23 22  2  0  0  0  0
 24 23  1  0  0  0  0
 24 19  2  0  0  0  0
 25 19  1  0  0  0  0
M  END
>  <minimizedAffinity>
-4.22060013

$$$$
