
 OpenBabel03272510063D

 33 36  0  0  0  0  0  0  0  0999 V2000
   34.7490   28.5430   47.9160 C   0  0  0  0  0  0  0  0  0  0  0  0
   34.8140   29.6950   47.1050 C   0  0  0  0  0  0  0  0  0  0  0  0
   33.6600   30.0800   46.4010 C   0  0  0  0  0  0  0  0  0  0  0  0
   32.5490   29.3180   46.5430 N   0  0  0  0  0  0  0  0  0  0  0  0
   32.5120   28.2180   47.3260 C   0  0  0  0  0  0  0  0  0  0  0  0
   33.6000   27.8440   47.9980 N   0  0  0  0  0  0  0  0  0  0  0  0
   31.2860   27.4770   47.4090 N   0  0  0  0  0  0  0  0  0  0  0  0
   30.0280   28.0650   47.8720 C   0  0  0  0  0  0  0  0  0  0  0  0
   29.0080   27.0310   47.5850 C   0  0  0  0  0  0  0  0  0  0  0  0
   29.6860   25.9900   46.7190 C   0  0  0  0  0  0  0  0  0  0  0  0
   31.1330   26.0760   47.0560 C   0  0  0  0  0  0  0  0  0  0  0  0
   35.5910   28.1790   48.4890 H   0  0  0  0  0  0  0  0  0  0  0  0
   33.6930   30.9630   45.7730 H   0  0  0  0  0  0  0  0  0  0  0  0
   29.8750   28.9820   47.2680 H   0  0  0  0  0  0  0  0  0  0  0  0
   30.1580   28.3300   48.9390 H   0  0  0  0  0  0  0  0  0  0  0  0
   28.7130   26.5230   48.5270 H   0  0  0  0  0  0  0  0  0  0  0  0
   28.1330   27.4650   47.0680 H   0  0  0  0  0  0  0  0  0  0  0  0
   29.3430   24.9670   47.0170 H   0  0  0  0  0  0  0  0  0  0  0  0
   29.4520   26.1260   45.6490 H   0  0  0  0  0  0  0  0  0  0  0  0
   31.7280   25.7960   46.1640 H   0  0  0  0  0  0  0  0  0  0  0  0
   31.4130   25.4300   47.9070 H   0  0  0  0  0  0  0  0  0  0  0  0
   36.0240   30.4130   47.0310 N   0  0  0  0  0  0  0  0  0  0  0  0
   36.6900   30.5690   45.8880 C   0  0  0  0  0  0  0  0  0  0  0  0
   36.4900   30.2280   44.8780 H   0  0  0  0  0  0  0  0  0  0  0  0
   37.8110   31.3000   46.1240 N   0  0  0  0  0  0  0  0  0  0  0  0
   37.8320   31.5980   47.4350 C   0  0  0  0  0  0  0  0  0  0  0  0
   38.6760   32.2940   48.2890 C   0  0  0  0  0  0  0  0  0  0  0  0
   39.5470   32.7200   47.8140 H   0  0  0  0  0  0  0  0  0  0  0  0
   38.4260   32.4300   49.6100 N   0  0  0  0  0  0  0  0  0  0  0  0
   37.3140   31.8680   50.1250 C   0  0  0  0  0  0  0  0  0  0  0  0
   37.1080   31.9720   51.1780 H   0  0  0  0  0  0  0  0  0  0  0  0
   36.4420   31.1700   49.3470 N   0  0  0  0  0  0  0  0  0  0  0  0
   36.6910   31.0310   48.0130 C   0  0  0  0  0  0  0  0  0  0  0  0
  1  6  1  0  0  0  0
  1 12  1  0  0  0  0
  2  1  2  0  0  0  0
  3  4  2  0  0  0  0
  3  2  1  0  0  0  0
  4  5  1  0  0  0  0
  5  7  1  0  0  0  0
  5  6  2  0  0  0  0
  7  8  1  0  0  0  0
  8 15  1  0  0  0  0
  9  8  1  0  0  0  0
  9 16  1  0  0  0  0
 10 18  1  0  0  0  0
 10 11  1  0  0  0  0
 10  9  1  0  0  0  0
 11  7  1  0  0  0  0
 11 21  1  0  0  0  0
 13  3  1  0  0  0  0
 14  8  1  0  0  0  0
 17  9  1  0  0  0  0
 19 10  1  0  0  0  0
 20 11  1  0  0  0  0
 22  2  1  0  0  0  0
 22 33  1  0  0  0  0
 23 25  2  0  0  0  0
 23 22  1  0  0  0  0
 24 23  1  0  0  0  0
 25 26  1  0  0  0  0
 26 33  2  0  0  0  0
 26 27  1  0  0  0  0
 27 29  2  0  0  0  0
 28 27  1  0  0  0  0
 29 30  1  0  0  0  0
 30 31  1  0  0  0  0
 32 30  2  0  0  0  0
 33 32  1  0  0  0  0
M  END
>  <minimizedAffinity>
-4.86412477

>  <minimizedRMSD>
5.63028383

$$$$
