
 OpenBabel03272501483D

 23 25  0  0  0  0  0  0  0  0999 V2000
   37.1740   30.0350   51.2720 C   0  0  0  0  0  0  0  0  0  0  0  0
   38.0460   30.7740   50.4670 C   0  0  0  0  0  0  0  0  0  0  0  0
   37.5650   31.2010   49.2060 C   0  0  0  0  0  0  0  0  0  0  0  0
   36.2820   30.8630   48.8630 N   0  0  0  0  0  0  0  0  0  0  0  0
   35.4920   30.1520   49.6760 C   0  0  0  0  0  0  0  0  0  0  0  0
   35.9240   29.7280   50.8920 N   0  0  0  0  0  0  0  0  0  0  0  0
   34.1880   29.8760   49.1900 N   0  0  0  0  0  0  0  0  0  0  0  0
   37.4660   29.6760   52.2410 H   0  0  0  0  0  0  0  0  0  0  0  0
   39.0450   31.0050   50.8010 H   0  0  0  0  0  0  0  0  0  0  0  0
   33.6890   28.9830   48.9940 H   0  0  0  0  0  0  0  0  0  0  0  0
   33.6140   30.7480   48.9870 H   0  0  0  0  0  0  0  0  0  0  0  0
   38.4130   31.9560   48.3490 N   0  0  0  0  0  0  0  0  0  0  0  0
   38.8570   33.1730   48.7710 C   0  0  0  0  0  0  0  0  0  0  0  0
   38.6830   33.7140   49.6850 H   0  0  0  0  0  0  0  0  0  0  0  0
   39.6410   33.7350   47.8340 N   0  0  0  0  0  0  0  0  0  0  0  0
   39.7040   32.8780   46.8010 C   0  0  0  0  0  0  0  0  0  0  0  0
   40.3090   32.8080   45.5450 C   0  0  0  0  0  0  0  0  0  0  0  0
   40.9200   33.6640   45.2560 H   0  0  0  0  0  0  0  0  0  0  0  0
   40.1180   31.7240   44.7670 N   0  0  0  0  0  0  0  0  0  0  0  0
   39.3630   30.6820   45.1370 C   0  0  0  0  0  0  0  0  0  0  0  0
   39.3030   29.8980   44.4210 H   0  0  0  0  0  0  0  0  0  0  0  0
   38.7480   30.6910   46.3510 N   0  0  0  0  0  0  0  0  0  0  0  0
   38.9400   31.7750   47.1230 C   0  0  0  0  0  0  0  0  0  0  0  0
  1  8  1  0  0  0  0
  2  9  1  0  0  0  0
  2  1  2  0  0  0  0
  3  2  1  0  0  0  0
  4  3  2  0  0  0  0
  4  5  1  0  0  0  0
  5  6  2  0  0  0  0
  6  1  1  0  0  0  0
  7  5  1  0  0  0  0
 10  7  1  0  0  0  0
 11  7  1  0  0  0  0
 12 13  1  0  0  0  0
 12  3  1  0  0  0  0
 13 14  1  0  0  0  0
 15 13  2  0  0  0  0
 16 23  1  0  0  0  0
 16 15  1  0  0  0  0
 17 16  2  0  0  0  0
 18 17  1  0  0  0  0
 19 20  2  0  0  0  0
 19 17  1  0  0  0  0
 20 22  1  0  0  0  0
 21 20  1  0  0  0  0
 22 23  2  0  0  0  0
 23 12  1  0  0  0  0
M  END
>  <minimizedAffinity>
-5.90362787

>  <minimizedRMSD>
1.44901693

$$$$
