
 OpenBabel03272505263D

 34 37  0  0  0  0  0  0  0  0999 V2000
   37.4200   31.0510   47.1400 N   0  0  0  0  0  0  0  0  0  0  0  0
   36.8680   30.6790   45.9530 C   0  0  0  0  0  0  0  0  0  0  0  0
   37.3500   31.1390   44.7370 C   0  0  0  0  0  0  0  0  0  0  0  0
   38.4430   32.0140   44.7720 C   0  0  0  0  0  0  0  0  0  0  0  0
   38.9180   32.4600   43.7030 O   0  0  0  0  0  0  0  0  0  0  0  0
   39.0000   32.3900   45.9640 N   0  0  0  0  0  0  0  0  0  0  0  0
   38.4460   31.8790   47.0700 C   0  0  0  0  0  0  0  0  0  0  0  0
   38.9780   32.2430   48.1410 O   0  0  0  0  0  0  0  0  0  0  0  0
   36.0160   29.9920   45.9790 H   0  0  0  0  0  0  0  0  0  0  0  0
   36.7700   30.7490   43.4950 N   0  0  0  0  0  0  0  0  0  0  0  0
   35.7010   31.3170   42.9120 C   0  0  0  0  0  0  0  0  0  0  0  0
   35.1320   32.1520   43.3070 H   0  0  0  0  0  0  0  0  0  0  0  0
   35.4100   30.7250   41.7650 N   0  0  0  0  0  0  0  0  0  0  0  0
   36.2910   29.7320   41.5490 C   0  0  0  0  0  0  0  0  0  0  0  0
   36.4590   28.8120   40.5400 C   0  0  0  0  0  0  0  0  0  0  0  0
   35.7720   28.8250   39.7010 H   0  0  0  0  0  0  0  0  0  0  0  0
   37.4770   27.9460   40.6670 N   0  0  0  0  0  0  0  0  0  0  0  0
   38.3210   27.9480   41.7230 C   0  0  0  0  0  0  0  0  0  0  0  0
   39.1430   27.2180   41.7810 H   0  0  0  0  0  0  0  0  0  0  0  0
   38.1450   28.8660   42.7190 N   0  0  0  0  0  0  0  0  0  0  0  0
   37.1400   29.7660   42.6530 C   0  0  0  0  0  0  0  0  0  0  0  0
   37.2230   29.4950   50.5050 C   0  0  0  0  0  0  0  0  0  0  0  0
   37.7220   29.9650   49.2830 C   0  0  0  0  0  0  0  0  0  0  0  0
   36.9180   30.5750   48.3560 C   0  0  0  0  0  0  0  0  0  0  0  0
   35.6020   30.7140   48.6580 N   0  0  0  0  0  0  0  0  0  0  0  0
   35.0860   30.2660   49.8360 C   0  0  0  0  0  0  0  0  0  0  0  0
   35.8900   29.6610   50.7560 N   0  0  0  0  0  0  0  0  0  0  0  0
   37.7840   29.0130   51.2730 H   0  0  0  0  0  0  0  0  0  0  0  0
   38.7730   29.7560   49.2240 H   0  0  0  0  0  0  0  0  0  0  0  0
   34.0330   30.4320   49.9600 H   0  0  0  0  0  0  0  0  0  0  0  0
   40.1300   33.2940   46.0020 C   0  0  0  0  0  0  0  0  0  0  0  0
   39.9690   34.2720   45.0660 F   0  0  0  0  0  0  0  0  0  0  0  0
   41.3320   32.6660   45.7190 F   0  0  0  0  0  0  0  0  0  0  0  0
   40.1790   33.9000   47.2500 F   0  0  0  0  0  0  0  0  0  0  0  0
  1 24  1  0  0  0  0
  2  9  1  0  0  0  0
  2  1  1  0  0  0  0
  3  4  1  0  0  0  0
  3  2  2  0  0  0  0
  4  6  1  0  0  0  0
  5  4  2  0  0  0  0
  6 31  1  0  0  0  0
  6  7  1  0  0  0  0
  7  1  1  0  0  0  0
  7  8  2  0  0  0  0
 10  3  1  0  0  0  0
 11 12  1  0  0  0  0
 11 10  1  0  0  0  0
 13 11  2  0  0  0  0
 14 13  1  0  0  0  0
 14 21  1  0  0  0  0
 15 17  1  0  0  0  0
 15 14  2  0  0  0  0
 16 15  1  0  0  0  0
 17 18  2  0  0  0  0
 18 19  1  0  0  0  0
 18 20  1  0  0  0  0
 21 20  2  0  0  0  0
 21 10  1  0  0  0  0
 22 27  1  0  0  0  0
 22 28  1  0  0  0  0
 23 22  2  0  0  0  0
 24 25  2  0  0  0  0
 24 23  1  0  0  0  0
 25 26  1  0  0  0  0
 26 30  1  0  0  0  0
 26 27  2  0  0  0  0
 29 23  1  0  0  0  0
 31 34  1  0  0  0  0
 32 31  1  0  0  0  0
 33 31  1  0  0  0  0
M  END
>  <minimizedAffinity>
-6.25703049

>  <minimizedRMSD>
1.11721599

$$$$
