
     RDKit          3D

 37 40  0  0  0  0  0  0  0  0999 V2000
   39.4479   32.4845   47.1016 O   0  0  0  0  0  0  0  0  0  0  0  0
   38.3111   31.8178   46.4057 P   0  0  2  0  0  0  0  0  0  0  0  0
   37.7279   32.8454   45.1690 O   0  0  0  0  0  0  0  0  0  0  0  0
   37.0252   31.3923   47.4305 O   0  0  0  0  0  0  0  0  0  0  0  0
   37.6099   30.5356   50.9692 C   0  0  0  0  0  0  0  0  0  0  0  0
   37.7090   31.3085   49.8065 C   0  0  0  0  0  0  0  0  0  0  0  0
   37.0683   30.8271   48.6549 C   0  0  0  0  0  0  0  0  0  0  0  0
   36.3904   29.6429   48.7321 N   0  0  0  0  0  0  0  0  0  0  0  0
   36.3271   28.9408   49.8748 C   0  0  0  0  0  0  0  0  0  0  0  0
   36.9314   29.3783   50.9924 N   0  0  0  0  0  0  0  0  0  0  0  0
   38.8604   30.4586   45.6056 O   0  0  0  0  0  0  0  0  0  0  0  0
   36.6308   29.4486   44.0422 Cl  0  0  0  0  0  0  0  0  0  0  0  0
   38.2664   29.8321   43.4814 C   0  0  0  0  0  0  0  0  0  0  0  0
   39.2754   30.3154   44.3138 C   0  0  0  0  0  0  0  0  0  0  0  0
   40.5036   30.5730   43.7462 C   0  0  0  0  0  0  0  0  0  0  0  0
   40.7160   30.3573   42.4041 C   0  0  0  0  0  0  0  0  0  0  0  0
   39.7330   29.8819   41.5715 C   0  0  0  0  0  0  0  0  0  0  0  0
   38.5062   29.6210   42.1213 C   0  0  0  0  0  0  0  0  0  0  0  0
   38.3707   33.5851   45.0380 H   0  0  0  0  0  0  0  0  0  0  0  0
   38.1302   30.9612   51.8375 H   0  0  0  0  0  0  0  0  0  0  0  0
   38.2188   32.2312   49.6866 H   0  0  0  0  0  0  0  0  0  0  0  0
   35.7917   27.9999   49.9463 H   0  0  0  0  0  0  0  0  0  0  0  0
   41.2229   30.9445   44.4684 H   0  0  0  0  0  0  0  0  0  0  0  0
   41.7073   30.5810   42.0217 H   0  0  0  0  0  0  0  0  0  0  0  0
   39.9371   29.7226   40.5115 H   0  0  0  0  0  0  0  0  0  0  0  0
   37.4983   29.1287   41.2446 N   0  0  0  0  0  0  0  0  0  0  0  0
   36.2814   28.6481   41.5958 C   0  0  0  0  0  0  0  0  0  0  0  0
   35.8665   28.5557   42.6026 H   0  0  0  0  0  0  0  0  0  0  0  0
   35.5770   28.2660   40.5110 N   0  0  0  0  0  0  0  0  0  0  0  0
   36.3476   28.5000   39.4160 C   0  0  0  0  0  0  0  0  0  0  0  0
   36.2121   28.3329   38.0468 C   0  0  0  0  0  0  0  0  0  0  0  0
   35.2813   27.9136   37.6754 H   0  0  0  0  0  0  0  0  0  0  0  0
   37.2338   28.6939   37.2237 N   0  0  0  0  0  0  0  0  0  0  0  0
   38.3823   29.2118   37.6903 C   0  0  0  0  0  0  0  0  0  0  0  0
   39.2029   29.5028   37.0415 H   0  0  0  0  0  0  0  0  0  0  0  0
   38.4759   29.3590   39.0288 N   0  0  0  0  0  0  0  0  0  0  0  0
   37.5272   29.0324   39.9005 C   0  0  0  0  0  0  0  0  0  0  0  0
  2  1  2  0
  2  4  1  1
  3  2  1  0
  4  7  1  0
  5 10  2  0
  6  5  1  0
  7  8  1  0
  7  6  2  0
  8  9  2  0
  9 10  1  0
 11  2  1  0
 13 12  1  0
 13 14  2  0
 14 11  1  0
 15 14  1  0
 16 15  2  0
 17 18  2  0
 17 16  1  0
 18 13  1  0
  3 19  1  0
  5 20  1  0
  6 21  1  0
  9 22  1  0
 15 23  1  0
 16 24  1  0
 17 25  1  0
 26 27  1  0
 27 28  1  0
 27 29  2  0
 29 30  1  0
 30 31  2  0
 31 32  1  0
 31 33  1  0
 33 34  2  0
 34 35  1  0
 34 36  1  0
 36 37  2  0
 37 26  1  0
 37 30  1  0
 18 26  1  0
M  ISO  8  19   3  20  14  21  14  22  14  23  14  24  14  25  14  28  15
M  ISO  2  32  16  35  16
M  END
>  <DihAtoms>  (1) 
16,17,25,26

>  <DihDeg>  (1) 
-54.01036574033525

$$$$
