REMARK  Name = 
REMARK  3 active torsions:
REMARK  status: ('A' for Active; 'I' for Inactive)
REMARK    1  A    between atoms: C_3  and  C_11
REMARK    2  A    between atoms: C_5  and  C_17
REMARK    3  A    between atoms: C_21  and  N_30
REMARK                            x       y       z     vdW  Elec       q    Type
REMARK                         _______ _______ _______ _____ _____    ______ ____
ROOT
ATOM      1 CL   UNL     1      36.776  32.510  43.427  0.00  0.00    +0.000 Cl
ATOM      2  C   UNL     1      37.771  31.095  43.126  0.00  0.00    +0.000 A 
ATOM      3  C   UNL     1      38.551  30.675  44.190  0.00  0.00    +0.000 A 
ATOM      4  C   UNL     1      39.379  29.557  44.048  0.00  0.00    +0.000 A 
ATOM      5  C   UNL     1      39.421  28.862  42.842  0.00  0.00    +0.000 A 
ATOM      6  C   UNL     1      38.633  29.309  41.811  0.00  0.00    +0.000 A 
ATOM      7  C   UNL     1      37.808  30.413  41.931  0.00  0.00    +0.000 A 
ATOM      8  H   UNL     1      40.006  29.187  44.841  0.00  0.00    +0.000 HD
ATOM      9  H   UNL     1      40.064  27.988  42.722  0.00  0.00    +0.000 HD
ATOM     10  H   UNL     1      38.611  28.828  40.854  0.00  0.00    +0.000 HD
ENDROOT
BRANCH   7  11
ATOM     11  N   UNL     1      36.975  30.901  40.871  0.00  0.00    +0.000 N 
ATOM     12  C   UNL     1      36.720  32.222  40.885  0.00  0.00    +0.000 A 
ATOM     13  H   UNL     1      36.959  33.082  41.476  0.00  0.00    +0.000 HD
ATOM     14  N   UNL     1      35.923  32.467  39.807  0.00  0.00    +0.000 NA
ATOM     15  C   UNL     1      35.691  31.330  39.145  0.00  0.00    +0.000 A 
ATOM     16  C   UNL     1      34.995  30.906  38.019  0.00  0.00    +0.000 A 
ATOM     17  H   UNL     1      34.461  31.666  37.470  0.00  0.00    +0.000 HD
ATOM     18  N   UNL     1      35.023  29.605  37.686  0.00  0.00    +0.000 NA
ATOM     19  C   UNL     1      35.696  28.675  38.387  0.00  0.00    +0.000 A 
ATOM     20  H   UNL     1      35.636  27.665  38.009  0.00  0.00    +0.000 HD
ATOM     21  N   UNL     1      36.412  28.985  39.507  0.00  0.00    +0.000 NA
ATOM     22  C   UNL     1      36.362  30.313  39.818  0.00  0.00    +0.000 A 
ENDBRANCH   7  11
BRANCH   3  27
ATOM     23 CL   UNL     1      38.631  32.967  49.696  0.00  0.00    +0.000 Cl
ATOM     24  C   UNL     1      38.605  32.289  48.076  0.00  0.00    +0.000 A 
ATOM     25  C   UNL     1      37.873  31.162  47.801  0.00  0.00    +0.000 A 
ATOM     26  C   UNL     1      37.895  30.682  46.513  0.00  0.00    +0.000 A 
ATOM     27  C   UNL     1      38.619  31.294  45.515  0.00  0.00    +0.000 A 
ATOM     28  C   UNL     1      39.347  32.434  45.835  0.00  0.00    +0.000 A 
ATOM     29 CL   UNL     1      40.248  33.167  44.524  0.00  0.00    +0.000 Cl
ATOM     30  C   UNL     1      39.352  32.943  47.106  0.00  0.00    +0.000 A 
ATOM     31  H   UNL     1      37.312  29.791  46.310  0.00  0.00    +0.000 HD
ATOM     32  H   UNL     1      39.927  33.837  47.342  0.00  0.00    +0.000 HD
BRANCH  25  35
ATOM     33  C   UNL     1      37.021  29.326  51.011  0.00  0.00    +0.000 A 
ATOM     34  C   UNL     1      37.763  29.893  49.963  0.00  0.00    +0.000 A 
ATOM     35  C   UNL     1      37.119  30.556  48.918  0.00  0.00    +0.000 A 
ATOM     36  N   UNL     1      35.751  30.623  48.971  0.00  0.00    +0.000 NA
ATOM     37  C   UNL     1      35.083  30.062  50.001  0.00  0.00    +0.000 A 
ATOM     38  N   UNL     1      35.689  29.432  50.993  0.00  0.00    +0.000 NA
ATOM     39  H   UNL     1      37.564  28.825  51.794  0.00  0.00    +0.000 HD
ATOM     40  H   UNL     1      38.846  29.815  49.963  0.00  0.00    +0.000 HD
ATOM     41  H   UNL     1      34.014  30.179  49.933  0.00  0.00    +0.000 HD
ENDBRANCH  25  35
ENDBRANCH   3  27
TORSDOF 3
