
 OpenBabel03272504403D

 45 48  0  0  0  0  0  0  0  0999 V2000
   39.5510   26.8480   31.9480 C   0  0  0  0  0  0  0  0  0  0  0  0
   40.1080   27.3630   32.7600 H   0  0  0  0  0  0  0  0  0  0  0  0
   40.3700   26.5250   31.2380 H   0  0  0  0  0  0  0  0  0  0  0  0
   39.8210   26.4670   34.8760 Cl  0  0  0  0  0  0  0  0  0  0  0  0
   39.0150   25.3180   33.8090 C   0  0  0  0  0  0  0  0  0  0  0  0
   38.4810   24.1820   34.3370 C   0  0  0  0  0  0  0  0  0  0  0  0
   37.8530   23.2810   33.5210 C   0  0  0  0  0  0  0  0  0  0  0  0
   37.7730   23.5470   32.1670 C   0  0  0  0  0  0  0  0  0  0  0  0
   38.3350   24.7270   31.6760 C   0  0  0  0  0  0  0  0  0  0  0  0
   38.9650   25.6350   32.4710 C   0  0  0  0  0  0  0  0  0  0  0  0
   37.4380   22.3790   33.9850 H   0  0  0  0  0  0  0  0  0  0  0  0
   37.2550   22.7710   31.6150 H   0  0  0  0  0  0  0  0  0  0  0  0
   38.1730   24.7450   30.6540 H   0  0  0  0  0  0  0  0  0  0  0  0
   37.8980   24.2180   37.9850 C   0  0  0  0  0  0  0  0  0  0  0  0
   38.8820   23.2910   38.4260 C   0  0  0  0  0  0  0  0  0  0  0  0
   39.6970   22.6960   37.4580 C   0  0  0  0  0  0  0  0  0  0  0  0
   39.5260   23.0180   36.1460 N   0  0  0  0  0  0  0  0  0  0  0  0
   38.5740   23.9110   35.7670 C   0  0  0  0  0  0  0  0  0  0  0  0
   37.7860   24.4890   36.6770 N   0  0  0  0  0  0  0  0  0  0  0  0
   37.2520   24.6970   38.7000 H   0  0  0  0  0  0  0  0  0  0  0  0
   38.9070   23.1300   39.4790 H   0  0  0  0  0  0  0  0  0  0  0  0
   40.6630   21.7800   37.9230 N   0  0  0  0  0  0  0  0  0  0  0  0
   40.1900   20.9490   38.3400 H   0  0  0  0  0  0  0  0  0  0  0  0
   41.5970   22.2330   37.6980 H   0  0  0  0  0  0  0  0  0  0  0  0
   38.7010   27.8150   31.2660 C   0  0  0  0  0  0  0  0  0  0  0  0
   39.3160   28.7190   30.9960 H   0  0  0  0  0  0  0  0  0  0  0  0
   38.2880   27.4400   30.2980 H   0  0  0  0  0  0  0  0  0  0  0  0
   37.6360   28.2000   32.0390 O   0  0  0  0  0  0  0  0  0  0  0  0
   35.4650   26.7760   31.6260 O   0  0  0  0  0  0  0  0  0  0  0  0
   36.1940   28.0240   31.1980 P   0  0  2  0  0  0  0  0  0  0  0  0
   36.6060   27.9680   29.5320 O   0  0  0  0  0  0  0  0  0  0  0  0
   37.2370   28.7320   29.3980 H   0  0  0  0  0  0  0  0  0  0  0  0
   35.1880   29.3410   31.3970 O   0  0  0  0  0  0  0  0  0  0  0  0
   36.9490   30.7840   33.1090 H   0  0  0  0  0  0  0  0  0  0  0  0
   35.9610   30.5720   33.3730 N   0  0  0  0  0  0  0  0  0  0  0  0
   35.0110   29.8990   32.6650 C   0  0  0  0  0  0  0  0  0  0  0  0
   33.9110   29.8990   33.4400 N   0  0  0  0  0  0  0  0  0  0  0  0
   34.1240   30.5380   34.5980 C   0  0  0  0  0  0  0  0  0  0  0  0
   33.2840   30.7740   35.6740 C   0  0  0  0  0  0  0  0  0  0  0  0
   32.2630   30.3930   35.6130 H   0  0  0  0  0  0  0  0  0  0  0  0
   33.7740   31.4570   36.7240 N   0  0  0  0  0  0  0  0  0  0  0  0
   35.0610   31.8750   36.6730 C   0  0  0  0  0  0  0  0  0  0  0  0
   35.4640   32.4260   37.5150 H   0  0  0  0  0  0  0  0  0  0  0  0
   35.8720   31.6450   35.6300 N   0  0  0  0  0  0  0  0  0  0  0  0
   35.4450   30.9710   34.5500 C   0  0  0  0  0  0  0  0  0  0  0  0
  1 10  1  0  0  0  0
  1  2  1  0  0  0  0
  3  1  1  0  0  0  0
  5  6  1  0  0  0  0
  5  4  1  0  0  0  0
  6 18  1  0  0  0  0
  7 11  1  0  0  0  0
  7  6  2  0  0  0  0
  8  7  1  0  0  0  0
  9  8  2  0  0  0  0
  9 10  1  0  0  0  0
 10  5  2  0  0  0  0
 12  8  1  0  0  0  0
 13  9  1  0  0  0  0
 14 15  1  0  0  0  0
 14 20  1  0  0  0  0
 15 21  1  0  0  0  0
 16 22  1  0  0  0  0
 16 15  2  0  0  0  0
 17 16  1  0  0  0  0
 18 17  2  0  0  0  0
 18 19  1  0  0  0  0
 19 14  2  0  0  0  0
 22 23  1  0  0  0  0
 24 22  1  0  0  0  0
 25  1  1  0  0  0  0
 25 28  1  0  0  0  0
 26 25  1  0  0  0  0
 27 25  1  0  0  0  0
 30 33  1  0  0  0  0
 30 29  2  1  0  0  0
 30 28  1  0  0  0  0
 31 30  1  0  0  0  0
 32 31  1  0  0  0  0
 33 36  1  0  0  0  0
 34 35  1  0  0  0  0
 35 45  1  0  0  0  0
 36 35  1  0  0  0  0
 36 37  2  0  0  0  0
 37 38  1  0  0  0  0
 38 39  1  0  0  0  0
 39 41  2  0  0  0  0
 40 39  1  0  0  0  0
 42 41  1  0  0  0  0
 42 43  1  0  0  0  0
 44 42  2  0  0  0  0
 45 38  2  0  0  0  0
 45 44  1  0  0  0  0
M  END
>  <minimizedAffinity>
-6.34365368

$$$$

 OpenBabel03272504403D

 45 48  0  0  0  0  0  0  0  0999 V2000
   38.2160   25.4700   31.3080 C   0  0  0  0  0  0  0  0  0  0  0  0
   38.9370   25.2240   30.4980 H   0  0  0  0  0  0  0  0  0  0  0  0
   37.7060   24.4800   31.5060 H   0  0  0  0  0  0  0  0  0  0  0  0
   37.5530   23.8310   33.6890 Cl  0  0  0  0  0  0  0  0  0  0  0  0
   38.7480   25.1270   33.6940 C   0  0  0  0  0  0  0  0  0  0  0  0
   39.4140   25.4130   34.8470 C   0  0  0  0  0  0  0  0  0  0  0  0
   40.3440   26.4160   34.8660 C   0  0  0  0  0  0  0  0  0  0  0  0
   40.5880   27.1240   33.7040 C   0  0  0  0  0  0  0  0  0  0  0  0
   39.8800   26.7910   32.5490 C   0  0  0  0  0  0  0  0  0  0  0  0
   38.9500   25.7970   32.5090 C   0  0  0  0  0  0  0  0  0  0  0  0
   40.8580   26.6150   35.8130 H   0  0  0  0  0  0  0  0  0  0  0  0
   41.3420   27.8940   33.8300 H   0  0  0  0  0  0  0  0  0  0  0  0
   40.2000   27.4250   31.7960 H   0  0  0  0  0  0  0  0  0  0  0  0
   37.9480   24.2510   38.0320 C   0  0  0  0  0  0  0  0  0  0  0  0
   38.7810   23.1360   38.3240 C   0  0  0  0  0  0  0  0  0  0  0  0
   39.8040   22.8330   37.4200 C   0  0  0  0  0  0  0  0  0  0  0  0
   39.9660   23.6020   36.3080 N   0  0  0  0  0  0  0  0  0  0  0  0
   39.1470   24.6590   36.0670 C   0  0  0  0  0  0  0  0  0  0  0  0
   38.1650   24.9640   36.9190 N   0  0  0  0  0  0  0  0  0  0  0  0
   37.1500   24.5160   38.7040 H   0  0  0  0  0  0  0  0  0  0  0  0
   38.5430   22.6220   39.2260 H   0  0  0  0  0  0  0  0  0  0  0  0
   40.6140   21.7220   37.7340 N   0  0  0  0  0  0  0  0  0  0  0  0
   40.0440   20.8490   37.7070 H   0  0  0  0  0  0  0  0  0  0  0  0
   41.5790   22.1310   37.9040 H   0  0  0  0  0  0  0  0  0  0  0  0
   37.2260   26.4080   30.7980 C   0  0  0  0  0  0  0  0  0  0  0  0
   37.7310   27.3880   30.5700 H   0  0  0  0  0  0  0  0  0  0  0  0
   36.7610   26.0840   29.8340 H   0  0  0  0  0  0  0  0  0  0  0  0
   36.2050   26.6150   31.6910 O   0  0  0  0  0  0  0  0  0  0  0  0
   37.1290   29.0640   31.4440 O   0  0  0  0  0  0  0  0  0  0  0  0
   36.2470   28.1810   32.2910 P   0  0  2  0  0  0  0  0  0  0  0  0
   36.8340   28.0710   33.9010 O   0  0  0  0  0  0  0  0  0  0  0  0
   36.3050   27.3310   34.3160 H   0  0  0  0  0  0  0  0  0  0  0  0
   34.7240   28.8580   32.3830 O   0  0  0  0  0  0  0  0  0  0  0  0
   32.2950   28.7760   33.8680 H   0  0  0  0  0  0  0  0  0  0  0  0
   33.1050   29.3710   34.1510 N   0  0  0  0  0  0  0  0  0  0  0  0
   34.3180   29.5120   33.5480 C   0  0  0  0  0  0  0  0  0  0  0  0
   35.0020   30.3910   34.3030 N   0  0  0  0  0  0  0  0  0  0  0  0
   34.2780   30.8080   35.3510 C   0  0  0  0  0  0  0  0  0  0  0  0
   34.5820   31.6960   36.3700 C   0  0  0  0  0  0  0  0  0  0  0  0
   35.5690   32.1600   36.3590 H   0  0  0  0  0  0  0  0  0  0  0  0
   33.6460   31.9300   37.3070 N   0  0  0  0  0  0  0  0  0  0  0  0
   32.4590   31.2870   37.2040 C   0  0  0  0  0  0  0  0  0  0  0  0
   31.7000   31.4700   37.9540 H   0  0  0  0  0  0  0  0  0  0  0  0
   32.1680   30.4270   36.2160 N   0  0  0  0  0  0  0  0  0  0  0  0
   33.0580   30.1490   35.2490 C   0  0  0  0  0  0  0  0  0  0  0  0
  1  3  1  0  0  0  0
  1 10  1  0  0  0  0
  2  1  1  0  0  0  0
  4  5  1  0  0  0  0
  5  6  1  0  0  0  0
  6  7  2  0  0  0  0
  6 18  1  0  0  0  0
  7 11  1  0  0  0  0
  8 12  1  0  0  0  0
  8  7  1  0  0  0  0
  9  8  2  0  0  0  0
 10  9  1  0  0  0  0
 10  5  2  0  0  0  0
 13  9  1  0  0  0  0
 14 15  1  0  0  0  0
 14 20  1  0  0  0  0
 15 21  1  0  0  0  0
 16 22  1  0  0  0  0
 16 15  2  0  0  0  0
 17 16  1  0  0  0  0
 18 17  2  0  0  0  0
 18 19  1  0  0  0  0
 19 14  2  0  0  0  0
 22 24  1  0  0  0  0
 23 22  1  0  0  0  0
 25  1  1  0  0  0  0
 25 28  1  0  0  0  0
 26 25  1  0  0  0  0
 27 25  1  0  0  0  0
 28 30  1  0  0  0  0
 30 29  2  6  0  0  0
 30 33  1  0  0  0  0
 30 31  1  0  0  0  0
 31 32  1  0  0  0  0
 33 36  1  0  0  0  0
 34 35  1  0  0  0  0
 35 45  1  0  0  0  0
 36 35  1  0  0  0  0
 36 37  2  0  0  0  0
 37 38  1  0  0  0  0
 38 39  1  0  0  0  0
 39 41  2  0  0  0  0
 40 39  1  0  0  0  0
 42 41  1  0  0  0  0
 42 43  1  0  0  0  0
 44 42  2  0  0  0  0
 45 38  2  0  0  0  0
 45 44  1  0  0  0  0
M  END
>  <minimizedAffinity>
-6.2499423

$$$$

 OpenBabel03272504403D

 45 48  0  0  0  0  0  0  0  0999 V2000
   37.6640   27.2950   32.5380 C   0  0  0  0  0  0  0  0  0  0  0  0
   38.3420   27.9090   33.1710 H   0  0  0  0  0  0  0  0  0  0  0  0
   38.1380   27.3630   31.5130 H   0  0  0  0  0  0  0  0  0  0  0  0
   38.1830   26.8480   35.4230 Cl  0  0  0  0  0  0  0  0  0  0  0  0
   38.0090   25.5470   34.2460 C   0  0  0  0  0  0  0  0  0  0  0  0
   38.1200   24.2550   34.6620 C   0  0  0  0  0  0  0  0  0  0  0  0
   37.9880   23.2360   33.7600 C   0  0  0  0  0  0  0  0  0  0  0  0
   37.7430   23.5420   32.4340 C   0  0  0  0  0  0  0  0  0  0  0  0
   37.6380   24.8820   32.0600 C   0  0  0  0  0  0  0  0  0  0  0  0
   37.7670   25.9110   32.9420 C   0  0  0  0  0  0  0  0  0  0  0  0
   38.0840   22.2100   34.1340 H   0  0  0  0  0  0  0  0  0  0  0  0
   37.6560   22.6610   31.8070 H   0  0  0  0  0  0  0  0  0  0  0  0
   37.4550   24.9050   31.0410 H   0  0  0  0  0  0  0  0  0  0  0  0
   37.9640   24.1790   38.3520 C   0  0  0  0  0  0  0  0  0  0  0  0
   38.9990   23.2500   38.6480 C   0  0  0  0  0  0  0  0  0  0  0  0
   39.7010   22.6920   37.5750 C   0  0  0  0  0  0  0  0  0  0  0  0
   39.3760   23.0510   36.3020 N   0  0  0  0  0  0  0  0  0  0  0  0
   38.3790   23.9440   36.0630 C   0  0  0  0  0  0  0  0  0  0  0  0
   37.6980   24.4870   37.0760 N   0  0  0  0  0  0  0  0  0  0  0  0
   37.4020   24.6300   39.1520 H   0  0  0  0  0  0  0  0  0  0  0  0
   39.1470   23.0590   39.6860 H   0  0  0  0  0  0  0  0  0  0  0  0
   40.7200   21.7730   37.8980 N   0  0  0  0  0  0  0  0  0  0  0  0
   40.3050   20.9250   38.3410 H   0  0  0  0  0  0  0  0  0  0  0  0
   41.6180   22.2430   37.5790 H   0  0  0  0  0  0  0  0  0  0  0  0
   36.3540   27.9300   32.4870 C   0  0  0  0  0  0  0  0  0  0  0  0
   36.2080   28.3890   31.4690 H   0  0  0  0  0  0  0  0  0  0  0  0
   35.5070   27.2120   32.6110 H   0  0  0  0  0  0  0  0  0  0  0  0
   36.2110   28.8950   33.4510 O   0  0  0  0  0  0  0  0  0  0  0  0
   36.1480   30.7400   31.5790 O   0  0  0  0  0  0  0  0  0  0  0  0
   35.4510   30.2540   32.8250 P   0  0  2  0  0  0  0  0  0  0  0  0
   35.4810   31.4430   34.0630 O   0  0  0  0  0  0  0  0  0  0  0  0
   35.1740   30.9650   34.8860 H   0  0  0  0  0  0  0  0  0  0  0  0
   33.8450   29.9670   32.4760 O   0  0  0  0  0  0  0  0  0  0  0  0
   34.2440   29.3210   35.2210 H   0  0  0  0  0  0  0  0  0  0  0  0
   33.2950   29.3630   34.7890 N   0  0  0  0  0  0  0  0  0  0  0  0
   32.9510   29.6560   33.5040 C   0  0  0  0  0  0  0  0  0  0  0  0
   31.6080   29.5780   33.4580 N   0  0  0  0  0  0  0  0  0  0  0  0
   31.0930   29.2500   34.6510 C   0  0  0  0  0  0  0  0  0  0  0  0
   29.7810   29.0640   35.0540 C   0  0  0  0  0  0  0  0  0  0  0  0
   28.9980   29.1960   34.3060 H   0  0  0  0  0  0  0  0  0  0  0  0
   29.5530   28.7340   36.3380 N   0  0  0  0  0  0  0  0  0  0  0  0
   30.6160   28.6010   37.1650 C   0  0  0  0  0  0  0  0  0  0  0  0
   30.4410   28.3360   38.2010 H   0  0  0  0  0  0  0  0  0  0  0  0
   31.8860   28.7830   36.7720 N   0  0  0  0  0  0  0  0  0  0  0  0
   32.1830   29.1140   35.5050 C   0  0  0  0  0  0  0  0  0  0  0  0
  1 10  1  0  0  0  0
  1  2  1  0  0  0  0
  3  1  1  0  0  0  0
  5  6  1  0  0  0  0
  5  4  1  0  0  0  0
  6 18  1  0  0  0  0
  7 11  1  0  0  0  0
  7  6  2  0  0  0  0
  8  7  1  0  0  0  0
  9  8  2  0  0  0  0
  9 10  1  0  0  0  0
 10  5  2  0  0  0  0
 12  8  1  0  0  0  0
 13  9  1  0  0  0  0
 14 15  1  0  0  0  0
 14 20  1  0  0  0  0
 15 21  1  0  0  0  0
 16 22  1  0  0  0  0
 16 15  2  0  0  0  0
 17 16  1  0  0  0  0
 18 17  2  0  0  0  0
 18 19  1  0  0  0  0
 19 14  2  0  0  0  0
 22 23  1  0  0  0  0
 24 22  1  0  0  0  0
 25  1  1  0  0  0  0
 25 27  1  0  0  0  0
 25 28  1  0  0  0  0
 26 25  1  0  0  0  0
 30 29  2  6  0  0  0
 30 28  1  0  0  0  0
 30 31  1  0  0  0  0
 31 32  1  0  0  0  0
 33 30  1  0  0  0  0
 33 36  1  0  0  0  0
 35 34  1  0  0  0  0
 35 45  1  0  0  0  0
 36 35  1  0  0  0  0
 37 36  2  0  0  0  0
 37 38  1  0  0  0  0
 38 39  2  0  0  0  0
 38 45  1  0  0  0  0
 39 41  1  0  0  0  0
 40 39  1  0  0  0  0
 41 42  2  0  0  0  0
 42 43  1  0  0  0  0
 44 42  1  0  0  0  0
 45 44  2  0  0  0  0
M  END
>  <minimizedAffinity>
-6.11078978

$$$$

 OpenBabel03272504403D

 45 48  0  0  0  0  0  0  0  0999 V2000
   38.3910   26.6270   32.2220 C   0  0  0  0  0  0  0  0  0  0  0  0
   39.4520   26.9540   32.1590 H   0  0  0  0  0  0  0  0  0  0  0  0
   38.2670   26.3660   33.3150 H   0  0  0  0  0  0  0  0  0  0  0  0
   36.7200   27.4800   34.5180 Cl  0  0  0  0  0  0  0  0  0  0  0  0
   36.6960   28.2700   32.9430 C   0  0  0  0  0  0  0  0  0  0  0  0
   35.8670   29.3320   32.7440 C   0  0  0  0  0  0  0  0  0  0  0  0
   35.8360   29.9540   31.5270 C   0  0  0  0  0  0  0  0  0  0  0  0
   36.6550   29.4870   30.5160 C   0  0  0  0  0  0  0  0  0  0  0  0
   37.4870   28.3960   30.7700 C   0  0  0  0  0  0  0  0  0  0  0  0
   37.5320   27.7630   31.9750 C   0  0  0  0  0  0  0  0  0  0  0  0
   35.1560   30.8050   31.4080 H   0  0  0  0  0  0  0  0  0  0  0  0
   36.5530   30.0520   29.5950 H   0  0  0  0  0  0  0  0  0  0  0  0
   38.0160   28.2000   29.9020 H   0  0  0  0  0  0  0  0  0  0  0  0
   32.9590   29.9360   34.9410 C   0  0  0  0  0  0  0  0  0  0  0  0
   33.5240   30.8190   35.9020 C   0  0  0  0  0  0  0  0  0  0  0  0
   34.8700   31.1660   35.7560 C   0  0  0  0  0  0  0  0  0  0  0  0
   35.5850   30.6560   34.7160 N   0  0  0  0  0  0  0  0  0  0  0  0
   35.0060   29.8150   33.8190 C   0  0  0  0  0  0  0  0  0  0  0  0
   33.7220   29.4720   33.9420 N   0  0  0  0  0  0  0  0  0  0  0  0
   31.9260   29.6460   35.0210 H   0  0  0  0  0  0  0  0  0  0  0  0
   32.8530   31.1420   36.6640 H   0  0  0  0  0  0  0  0  0  0  0  0
   35.4040   32.0420   36.7230 N   0  0  0  0  0  0  0  0  0  0  0  0
   35.4070   31.5780   37.6580 H   0  0  0  0  0  0  0  0  0  0  0  0
   35.6450   32.9250   36.1850 H   0  0  0  0  0  0  0  0  0  0  0  0
   38.2180   25.4150   31.4320 C   0  0  0  0  0  0  0  0  0  0  0  0
   37.9710   25.7000   30.3710 H   0  0  0  0  0  0  0  0  0  0  0  0
   39.1440   24.7930   31.3630 H   0  0  0  0  0  0  0  0  0  0  0  0
   37.2270   24.6110   31.9340 O   0  0  0  0  0  0  0  0  0  0  0  0
   38.0290   22.6050   30.4370 O   0  0  0  0  0  0  0  0  0  0  0  0
   37.6700   22.9950   31.8480 P   0  0  2  0  0  0  0  0  0  0  0  0
   36.3290   22.0910   32.4260 O   0  0  0  0  0  0  0  0  0  0  0  0
   36.0570   22.5470   33.2730 H   0  0  0  0  0  0  0  0  0  0  0  0
   38.9530   22.6430   32.8560 O   0  0  0  0  0  0  0  0  0  0  0  0
   37.0730   24.1390   34.3870 H   0  0  0  0  0  0  0  0  0  0  0  0
   37.8890   23.6530   34.8220 N   0  0  0  0  0  0  0  0  0  0  0  0
   38.8610   22.9070   34.2250 C   0  0  0  0  0  0  0  0  0  0  0  0
   39.6740   22.5040   35.2180 N   0  0  0  0  0  0  0  0  0  0  0  0
   39.2600   22.9590   36.4080 C   0  0  0  0  0  0  0  0  0  0  0  0
   39.7870   22.7910   37.6780 C   0  0  0  0  0  0  0  0  0  0  0  0
   40.6940   22.1920   37.7750 H   0  0  0  0  0  0  0  0  0  0  0  0
   39.1510   23.3720   38.7110 N   0  0  0  0  0  0  0  0  0  0  0  0
   38.0330   24.0900   38.4540 C   0  0  0  0  0  0  0  0  0  0  0  0
   37.5140   24.5620   39.2790 H   0  0  0  0  0  0  0  0  0  0  0  0
   37.5240   24.2520   37.2220 N   0  0  0  0  0  0  0  0  0  0  0  0
   38.1110   23.6980   36.1490 C   0  0  0  0  0  0  0  0  0  0  0  0
  1  3  1  0  0  0  0
  2  1  1  0  0  0  0
  5  4  1  0  0  0  0
  6  5  1  0  0  0  0
  6 18  1  0  0  0  0
  7  6  2  0  0  0  0
  8  9  2  0  0  0  0
  8  7  1  0  0  0  0
  9 10  1  0  0  0  0
 10  1  1  0  0  0  0
 10  5  2  0  0  0  0
 11  7  1  0  0  0  0
 12  8  1  0  0  0  0
 13  9  1  0  0  0  0
 14 20  1  0  0  0  0
 14 15  1  0  0  0  0
 15 21  1  0  0  0  0
 16 15  2  0  0  0  0
 16 22  1  0  0  0  0
 17 16  1  0  0  0  0
 18 19  1  0  0  0  0
 18 17  2  0  0  0  0
 19 14  2  0  0  0  0
 22 23  1  0  0  0  0
 24 22  1  0  0  0  0
 25 28  1  0  0  0  0
 25  1  1  0  0  0  0
 26 25  1  0  0  0  0
 27 25  1  0  0  0  0
 30 29  2  6  0  0  0
 30 28  1  0  0  0  0
 30 31  1  0  0  0  0
 30 33  1  0  0  0  0
 31 32  1  0  0  0  0
 33 36  1  0  0  0  0
 34 35  1  0  0  0  0
 35 45  1  0  0  0  0
 36 35  1  0  0  0  0
 36 37  2  0  0  0  0
 37 38  1  0  0  0  0
 38 39  1  0  0  0  0
 39 40  1  0  0  0  0
 39 41  2  0  0  0  0
 42 41  1  0  0  0  0
 42 43  1  0  0  0  0
 44 42  2  0  0  0  0
 45 38  2  0  0  0  0
 45 44  1  0  0  0  0
M  END
>  <minimizedAffinity>
-6.04299212

$$$$

 OpenBabel03272504403D

 45 48  0  0  0  0  0  0  0  0999 V2000
   37.1010   27.1950   31.8110 C   0  0  0  0  0  0  0  0  0  0  0  0
   36.3220   27.9880   31.8230 H   0  0  0  0  0  0  0  0  0  0  0  0
   37.8340   27.5660   31.0340 H   0  0  0  0  0  0  0  0  0  0  0  0
   39.9930   26.5550   31.6590 Cl  0  0  0  0  0  0  0  0  0  0  0  0
   39.1500   26.9260   33.1620 C   0  0  0  0  0  0  0  0  0  0  0  0
   39.8450   26.9210   34.3330 C   0  0  0  0  0  0  0  0  0  0  0  0
   39.2040   27.2060   35.5070 C   0  0  0  0  0  0  0  0  0  0  0  0
   37.8520   27.4970   35.4790 C   0  0  0  0  0  0  0  0  0  0  0  0
   37.1860   27.4900   34.2520 C   0  0  0  0  0  0  0  0  0  0  0  0
   37.8060   27.2080   33.0730 C   0  0  0  0  0  0  0  0  0  0  0  0
   39.7990   27.1910   36.4280 H   0  0  0  0  0  0  0  0  0  0  0  0
   37.4460   27.7080   36.4620 H   0  0  0  0  0  0  0  0  0  0  0  0
   36.1960   27.7300   34.4370 H   0  0  0  0  0  0  0  0  0  0  0  0
   43.4900   27.0220   33.7440 C   0  0  0  0  0  0  0  0  0  0  0  0
   43.9170   25.8870   34.4860 C   0  0  0  0  0  0  0  0  0  0  0  0
   42.9410   25.1410   35.1540 C   0  0  0  0  0  0  0  0  0  0  0  0
   41.6350   25.5190   35.0730 N   0  0  0  0  0  0  0  0  0  0  0  0
   41.2700   26.6110   34.3510 C   0  0  0  0  0  0  0  0  0  0  0  0
   42.1880   27.3360   33.7070 N   0  0  0  0  0  0  0  0  0  0  0  0
   44.2120   27.6210   33.2160 H   0  0  0  0  0  0  0  0  0  0  0  0
   44.9660   25.7060   34.4660 H   0  0  0  0  0  0  0  0  0  0  0  0
   43.3920   24.0220   35.8840 N   0  0  0  0  0  0  0  0  0  0  0  0
   43.9960   24.3350   36.6750 H   0  0  0  0  0  0  0  0  0  0  0  0
   42.9650   23.1860   35.3880 H   0  0  0  0  0  0  0  0  0  0  0  0
   36.5110   25.9520   31.3350 C   0  0  0  0  0  0  0  0  0  0  0  0
   35.4390   26.1410   31.0470 H   0  0  0  0  0  0  0  0  0  0  0  0
   36.9980   25.5520   30.4130 H   0  0  0  0  0  0  0  0  0  0  0  0
   36.5630   24.9610   32.2830 O   0  0  0  0  0  0  0  0  0  0  0  0
   37.6020   23.7360   30.2020 O   0  0  0  0  0  0  0  0  0  0  0  0
   37.3370   23.6000   31.6800 P   0  0  2  0  0  0  0  0  0  0  0  0
   36.3060   22.2670   32.0110 O   0  0  0  0  0  0  0  0  0  0  0  0
   36.0440   22.3770   32.9700 H   0  0  0  0  0  0  0  0  0  0  0  0
   38.7770   23.2980   32.4680 O   0  0  0  0  0  0  0  0  0  0  0  0
   36.9820   24.3050   34.4380 H   0  0  0  0  0  0  0  0  0  0  0  0
   37.8750   23.8240   34.6880 N   0  0  0  0  0  0  0  0  0  0  0  0
   38.8230   23.2950   33.8640 C   0  0  0  0  0  0  0  0  0  0  0  0
   39.7710   22.7920   34.6750 N   0  0  0  0  0  0  0  0  0  0  0  0
   39.4650   22.9790   35.9660 C   0  0  0  0  0  0  0  0  0  0  0  0
   40.1450   22.6280   37.1210 C   0  0  0  0  0  0  0  0  0  0  0  0
   41.0970   22.1080   37.0100 H   0  0  0  0  0  0  0  0  0  0  0  0
   39.5910   22.9480   38.3040 N   0  0  0  0  0  0  0  0  0  0  0  0
   38.4020   23.5950   38.3030 C   0  0  0  0  0  0  0  0  0  0  0  0
   37.9490   23.8560   39.2520 H   0  0  0  0  0  0  0  0  0  0  0  0
   37.7460   23.9330   37.1830 N   0  0  0  0  0  0  0  0  0  0  0  0
   38.2440   23.6440   35.9700 C   0  0  0  0  0  0  0  0  0  0  0  0
  1  2  1  0  0  0  0
  1 10  1  0  0  0  0
  3  1  1  0  0  0  0
  4  5  1  0  0  0  0
  5  6  1  0  0  0  0
  6 18  1  0  0  0  0
  6  7  2  0  0  0  0
  7 11  1  0  0  0  0
  8  7  1  0  0  0  0
  8 12  1  0  0  0  0
  9 13  1  0  0  0  0
  9  8  2  0  0  0  0
 10  5  2  0  0  0  0
 10  9  1  0  0  0  0
 14 15  1  0  0  0  0
 15 16  2  0  0  0  0
 16 22  1  0  0  0  0
 17 16  1  0  0  0  0
 18 17  2  0  0  0  0
 19 14  2  0  0  0  0
 19 18  1  0  0  0  0
 20 14  1  0  0  0  0
 21 15  1  0  0  0  0
 22 23  1  0  0  0  0
 24 22  1  0  0  0  0
 25  1  1  0  0  0  0
 25 28  1  0  0  0  0
 26 25  1  0  0  0  0
 27 25  1  0  0  0  0
 30 29  2  6  0  0  0
 30 31  1  0  0  0  0
 30 28  1  0  0  0  0
 30 33  1  0  0  0  0
 31 32  1  0  0  0  0
 33 36  1  0  0  0  0
 34 35  1  0  0  0  0
 35 45  1  0  0  0  0
 36 37  2  0  0  0  0
 36 35  1  0  0  0  0
 37 38  1  0  0  0  0
 38 45  2  0  0  0  0
 38 39  1  0  0  0  0
 39 41  2  0  0  0  0
 40 39  1  0  0  0  0
 42 41  1  0  0  0  0
 42 43  1  0  0  0  0
 44 42  2  0  0  0  0
 45 44  1  0  0  0  0
M  END
>  <minimizedAffinity>
-6.03784037

$$$$

 OpenBabel03272504403D

 45 48  0  0  0  0  0  0  0  0999 V2000
   37.2560   24.3380   30.9570 C   0  0  0  0  0  0  0  0  0  0  0  0
   38.2860   24.7520   31.0150 H   0  0  0  0  0  0  0  0  0  0  0  0
   37.2580   23.7810   29.9730 H   0  0  0  0  0  0  0  0  0  0  0  0
   38.9690   24.6890   33.3520 Cl  0  0  0  0  0  0  0  0  0  0  0  0
   37.8180   23.3680   33.1560 C   0  0  0  0  0  0  0  0  0  0  0  0
   37.6950   22.4410   34.1460 C   0  0  0  0  0  0  0  0  0  0  0  0
   36.8070   21.4100   34.0070 C   0  0  0  0  0  0  0  0  0  0  0  0
   36.0480   21.3310   32.8550 C   0  0  0  0  0  0  0  0  0  0  0  0
   36.2110   22.3060   31.8700 C   0  0  0  0  0  0  0  0  0  0  0  0
   37.0900   23.3400   31.9890 C   0  0  0  0  0  0  0  0  0  0  0  0
   36.7380   20.6850   34.8270 H   0  0  0  0  0  0  0  0  0  0  0  0
   35.3780   20.4780   32.8490 H   0  0  0  0  0  0  0  0  0  0  0  0
   35.5630   22.0770   31.0970 H   0  0  0  0  0  0  0  0  0  0  0  0
   40.4210   22.0740   36.6120 C   0  0  0  0  0  0  0  0  0  0  0  0
   39.8920   22.8040   37.7120 C   0  0  0  0  0  0  0  0  0  0  0  0
   38.6310   23.3890   37.5600 C   0  0  0  0  0  0  0  0  0  0  0  0
   37.9600   23.2420   36.3840 N   0  0  0  0  0  0  0  0  0  0  0  0
   38.5030   22.5340   35.3570 C   0  0  0  0  0  0  0  0  0  0  0  0
   39.7060   21.9690   35.4840 N   0  0  0  0  0  0  0  0  0  0  0  0
   41.3880   21.6100   36.6920 H   0  0  0  0  0  0  0  0  0  0  0  0
   40.5210   22.8410   38.5710 H   0  0  0  0  0  0  0  0  0  0  0  0
   38.1310   24.1080   38.6650 N   0  0  0  0  0  0  0  0  0  0  0  0
   38.7300   24.9430   38.8440 H   0  0  0  0  0  0  0  0  0  0  0  0
   37.2770   23.5610   38.9800 H   0  0  0  0  0  0  0  0  0  0  0  0
   36.3040   25.4370   30.8660 C   0  0  0  0  0  0  0  0  0  0  0  0
   36.7520   26.2610   30.2440 H   0  0  0  0  0  0  0  0  0  0  0  0
   35.3530   25.1600   30.3470 H   0  0  0  0  0  0  0  0  0  0  0  0
   35.9630   25.9260   32.1010 O   0  0  0  0  0  0  0  0  0  0  0  0
   37.3900   27.9200   31.1520 O   0  0  0  0  0  0  0  0  0  0  0  0
   36.4550   27.5220   32.2660 P   0  0  2  0  0  0  0  0  0  0  0  0
   37.2190   27.6410   33.7980 O   0  0  0  0  0  0  0  0  0  0  0  0
   36.5960   27.1840   34.4320 H   0  0  0  0  0  0  0  0  0  0  0  0
   35.1610   28.5760   32.2940 O   0  0  0  0  0  0  0  0  0  0  0  0
   32.8400   28.9920   33.8910 H   0  0  0  0  0  0  0  0  0  0  0  0
   33.7470   29.4700   34.0880 N   0  0  0  0  0  0  0  0  0  0  0  0
   34.9300   29.3710   33.4200 C   0  0  0  0  0  0  0  0  0  0  0  0
   35.7850   30.1820   34.0680 N   0  0  0  0  0  0  0  0  0  0  0  0
   35.1970   30.7850   35.1100 C   0  0  0  0  0  0  0  0  0  0  0  0
   35.6950   31.6860   36.0380 C   0  0  0  0  0  0  0  0  0  0  0  0
   36.7390   31.9850   35.9440 H   0  0  0  0  0  0  0  0  0  0  0  0
   34.8630   32.1350   36.9950 N   0  0  0  0  0  0  0  0  0  0  0  0
   33.5870   31.6830   37.0000 C   0  0  0  0  0  0  0  0  0  0  0  0
   32.9100   32.0400   37.7670 H   0  0  0  0  0  0  0  0  0  0  0  0
   33.1080   30.8100   36.1000 N   0  0  0  0  0  0  0  0  0  0  0  0
   33.8850   30.3230   35.1200 C   0  0  0  0  0  0  0  0  0  0  0  0
  1  2  1  0  0  0  0
  1 10  1  0  0  0  0
  3  1  1  0  0  0  0
  5  4  1  0  0  0  0
  5  6  1  0  0  0  0
  6 18  1  0  0  0  0
  7  6  2  0  0  0  0
  7 11  1  0  0  0  0
  8  7  1  0  0  0  0
  9 10  1  0  0  0  0
  9  8  2  0  0  0  0
 10  5  2  0  0  0  0
 12  8  1  0  0  0  0
 13  9  1  0  0  0  0
 14 20  1  0  0  0  0
 14 15  1  0  0  0  0
 15 21  1  0  0  0  0
 16 15  2  0  0  0  0
 16 22  1  0  0  0  0
 17 16  1  0  0  0  0
 18 19  1  0  0  0  0
 18 17  2  0  0  0  0
 19 14  2  0  0  0  0
 22 23  1  0  0  0  0
 22 24  1  0  0  0  0
 25  1  1  0  0  0  0
 25 28  1  0  0  0  0
 26 25  1  0  0  0  0
 27 25  1  0  0  0  0
 28 30  1  0  0  0  0
 30 29  2  6  0  0  0
 30 33  1  0  0  0  0
 30 31  1  0  0  0  0
 31 32  1  0  0  0  0
 33 36  1  0  0  0  0
 34 35  1  0  0  0  0
 35 45  1  0  0  0  0
 36 37  2  0  0  0  0
 36 35  1  0  0  0  0
 37 38  1  0  0  0  0
 38 45  2  0  0  0  0
 38 39  1  0  0  0  0
 39 41  2  0  0  0  0
 40 39  1  0  0  0  0
 41 42  1  0  0  0  0
 42 43  1  0  0  0  0
 44 42  2  0  0  0  0
 45 44  1  0  0  0  0
M  END
>  <minimizedAffinity>
-6.02771568

$$$$

 OpenBabel03272504403D

 45 48  0  0  0  0  0  0  0  0999 V2000
   36.5160   25.6220   32.3400 C   0  0  0  0  0  0  0  0  0  0  0  0
   36.3900   24.5180   32.3140 H   0  0  0  0  0  0  0  0  0  0  0  0
   35.4700   25.9950   32.5510 H   0  0  0  0  0  0  0  0  0  0  0  0
   38.6380   23.6820   33.0670 Cl  0  0  0  0  0  0  0  0  0  0  0  0
   38.3330   25.1770   33.9500 C   0  0  0  0  0  0  0  0  0  0  0  0
   39.1010   25.4760   35.0340 C   0  0  0  0  0  0  0  0  0  0  0  0
   38.8760   26.6320   35.7300 C   0  0  0  0  0  0  0  0  0  0  0  0
   37.8650   27.4780   35.3130 C   0  0  0  0  0  0  0  0  0  0  0  0
   37.1070   27.1260   34.1960 C   0  0  0  0  0  0  0  0  0  0  0  0
   37.3150   25.9800   33.4900 C   0  0  0  0  0  0  0  0  0  0  0  0
   39.5150   26.8370   36.5970 H   0  0  0  0  0  0  0  0  0  0  0  0
   37.7740   28.3630   35.9340 H   0  0  0  0  0  0  0  0  0  0  0  0
   36.4110   27.8760   34.0440 H   0  0  0  0  0  0  0  0  0  0  0  0
   42.3640   23.7870   35.4110 C   0  0  0  0  0  0  0  0  0  0  0  0
   42.0480   22.7980   36.3830 C   0  0  0  0  0  0  0  0  0  0  0  0
   40.7360   22.7550   36.8650 C   0  0  0  0  0  0  0  0  0  0  0  0
   39.8190   23.6460   36.3960 N   0  0  0  0  0  0  0  0  0  0  0  0
   40.1640   24.5750   35.4650 C   0  0  0  0  0  0  0  0  0  0  0  0
   41.4120   24.6310   34.9930 N   0  0  0  0  0  0  0  0  0  0  0  0
   43.3630   23.8500   35.0160 H   0  0  0  0  0  0  0  0  0  0  0  0
   42.8590   22.1670   36.6620 H   0  0  0  0  0  0  0  0  0  0  0  0
   40.4500   21.7660   37.8290 N   0  0  0  0  0  0  0  0  0  0  0  0
   40.9890   21.9570   38.7010 H   0  0  0  0  0  0  0  0  0  0  0  0
   39.7560   21.1190   37.3540 H   0  0  0  0  0  0  0  0  0  0  0  0
   36.9170   26.0890   31.0200 C   0  0  0  0  0  0  0  0  0  0  0  0
   38.0070   26.3710   31.0450 H   0  0  0  0  0  0  0  0  0  0  0  0
   36.8330   25.3050   30.2270 H   0  0  0  0  0  0  0  0  0  0  0  0
   36.1740   27.1650   30.6060 O   0  0  0  0  0  0  0  0  0  0  0  0
   37.1480   29.0030   28.9990 O   0  0  0  0  0  0  0  0  0  0  0  0
   37.1410   28.5240   30.4290 P   0  0  2  0  0  0  0  0  0  0  0  0
   38.7150   28.0730   30.9450 O   0  0  0  0  0  0  0  0  0  0  0  0
   38.5740   27.6020   31.8160 H   0  0  0  0  0  0  0  0  0  0  0  0
   36.6530   29.7740   31.4210 O   0  0  0  0  0  0  0  0  0  0  0  0
   34.9380   28.2000   33.0630 H   0  0  0  0  0  0  0  0  0  0  0  0
   34.6080   29.0620   32.5740 N   0  0  0  0  0  0  0  0  0  0  0  0
   35.3050   29.9080   31.7650 C   0  0  0  0  0  0  0  0  0  0  0  0
   34.4310   30.8600   31.3920 N   0  0  0  0  0  0  0  0  0  0  0  0
   33.2200   30.6530   31.9270 C   0  0  0  0  0  0  0  0  0  0  0  0
   32.0410   31.3720   31.8130 C   0  0  0  0  0  0  0  0  0  0  0  0
   32.0520   32.2680   31.1910 H   0  0  0  0  0  0  0  0  0  0  0  0
   30.9590   30.9230   32.4730 N   0  0  0  0  0  0  0  0  0  0  0  0
   31.0790   29.7950   33.2120 C   0  0  0  0  0  0  0  0  0  0  0  0
   30.2110   29.4270   33.7460 H   0  0  0  0  0  0  0  0  0  0  0  0
   32.2220   29.1010   33.3210 N   0  0  0  0  0  0  0  0  0  0  0  0
   33.3390   29.4950   32.6870 C   0  0  0  0  0  0  0  0  0  0  0  0
  1  3  1  0  0  0  0
  1 10  1  0  0  0  0
  2  1  1  0  0  0  0
  4  5  1  0  0  0  0
  5  6  1  0  0  0  0
  6 18  1  0  0  0  0
  6  7  2  0  0  0  0
  7 11  1  0  0  0  0
  8  7  1  0  0  0  0
  8 12  1  0  0  0  0
  9  8  2  0  0  0  0
 10  5  2  0  0  0  0
 10  9  1  0  0  0  0
 13  9  1  0  0  0  0
 14 15  1  0  0  0  0
 15 21  1  0  0  0  0
 15 16  2  0  0  0  0
 16 22  1  0  0  0  0
 17 16  1  0  0  0  0
 18 17  2  0  0  0  0
 19 14  2  0  0  0  0
 19 18  1  0  0  0  0
 20 14  1  0  0  0  0
 22 23  1  0  0  0  0
 24 22  1  0  0  0  0
 25 26  1  0  0  0  0
 25  1  1  0  0  0  0
 27 25  1  0  0  0  0
 28 25  1  0  0  0  0
 30 29  2  6  0  0  0
 30 28  1  0  0  0  0
 30 31  1  0  0  0  0
 30 33  1  0  0  0  0
 31 32  1  0  0  0  0
 33 36  1  0  0  0  0
 35 45  1  0  0  0  0
 35 34  1  0  0  0  0
 36 35  1  0  0  0  0
 37 36  2  0  0  0  0
 37 38  1  0  0  0  0
 38 45  1  0  0  0  0
 39 38  2  0  0  0  0
 39 41  1  0  0  0  0
 40 39  1  0  0  0  0
 41 42  2  0  0  0  0
 42 44  1  0  0  0  0
 42 43  1  0  0  0  0
 45 44  2  0  0  0  0
M  END
>  <minimizedAffinity>
-5.98326111

$$$$

 OpenBabel03272504403D

 45 48  0  0  0  0  0  0  0  0999 V2000
   38.5360   26.7810   36.1120 C   0  0  0  0  0  0  0  0  0  0  0  0
   39.6400   26.9010   36.1720 H   0  0  0  0  0  0  0  0  0  0  0  0
   38.1530   27.5730   36.8230 H   0  0  0  0  0  0  0  0  0  0  0  0
   40.4330   26.2020   33.9070 Cl  0  0  0  0  0  0  0  0  0  0  0  0
   38.8630   26.9680   33.6720 C   0  0  0  0  0  0  0  0  0  0  0  0
   38.4790   27.3270   32.4160 C   0  0  0  0  0  0  0  0  0  0  0  0
   37.2640   27.9230   32.2190 C   0  0  0  0  0  0  0  0  0  0  0  0
   36.4450   28.1500   33.3090 C   0  0  0  0  0  0  0  0  0  0  0  0
   36.8840   27.7620   34.5750 C   0  0  0  0  0  0  0  0  0  0  0  0
   38.0900   27.1690   34.7930 C   0  0  0  0  0  0  0  0  0  0  0  0
   36.9930   28.1970   31.1920 H   0  0  0  0  0  0  0  0  0  0  0  0
   35.5070   28.6250   33.0400 H   0  0  0  0  0  0  0  0  0  0  0  0
   36.1400   28.0120   35.2510 H   0  0  0  0  0  0  0  0  0  0  0  0
   41.2610   27.5120   29.9920 C   0  0  0  0  0  0  0  0  0  0  0  0
   40.8830   26.5010   29.0670 C   0  0  0  0  0  0  0  0  0  0  0  0
   39.6970   25.8020   29.3140 C   0  0  0  0  0  0  0  0  0  0  0  0
   38.9550   26.1080   30.4140 N   0  0  0  0  0  0  0  0  0  0  0  0
   39.3530   27.0840   31.2730 C   0  0  0  0  0  0  0  0  0  0  0  0
   40.4820   27.7610   31.0540 N   0  0  0  0  0  0  0  0  0  0  0  0
   42.1670   28.0720   29.8350 H   0  0  0  0  0  0  0  0  0  0  0  0
   41.5550   26.3640   28.2520 H   0  0  0  0  0  0  0  0  0  0  0  0
   39.3470   24.8040   28.3820 N   0  0  0  0  0  0  0  0  0  0  0  0
   40.0520   24.0360   28.4040 H   0  0  0  0  0  0  0  0  0  0  0  0
   38.4490   25.1540   27.9350 H   0  0  0  0  0  0  0  0  0  0  0  0
   38.1700   25.4720   36.6340 C   0  0  0  0  0  0  0  0  0  0  0  0
   37.8740   25.5770   37.7150 H   0  0  0  0  0  0  0  0  0  0  0  0
   37.2800   25.0240   36.1270 H   0  0  0  0  0  0  0  0  0  0  0  0
   39.1960   24.5680   36.5250 O   0  0  0  0  0  0  0  0  0  0  0  0
   37.3560   23.1150   37.7150 O   0  0  0  0  0  0  0  0  0  0  0  0
   38.7180   23.0550   37.0700 P   0  0  2  0  0  0  0  0  0  0  0  0
   39.9160   22.5380   38.1860 O   0  0  0  0  0  0  0  0  0  0  0  0
   40.7870   22.7130   37.7270 H   0  0  0  0  0  0  0  0  0  0  0  0
   38.6910   21.9260   35.8410 O   0  0  0  0  0  0  0  0  0  0  0  0
   38.5370   24.2450   34.1940 H   0  0  0  0  0  0  0  0  0  0  0  0
   38.0130   23.3680   33.9770 N   0  0  0  0  0  0  0  0  0  0  0  0
   37.9890   22.1910   34.6630 C   0  0  0  0  0  0  0  0  0  0  0  0
   37.1650   21.3820   33.9730 N   0  0  0  0  0  0  0  0  0  0  0  0
   36.6720   21.9920   32.8860 C   0  0  0  0  0  0  0  0  0  0  0  0
   35.8020   21.5410   31.9070 C   0  0  0  0  0  0  0  0  0  0  0  0
   35.4280   20.5200   31.9940 H   0  0  0  0  0  0  0  0  0  0  0  0
   35.4730   22.3850   30.9140 N   0  0  0  0  0  0  0  0  0  0  0  0
   36.0090   23.6280   30.9240 C   0  0  0  0  0  0  0  0  0  0  0  0
   35.7490   24.3150   30.1270 H   0  0  0  0  0  0  0  0  0  0  0  0
   36.8520   24.0620   31.8730 N   0  0  0  0  0  0  0  0  0  0  0  0
   37.2210   23.2700   32.8920 C   0  0  0  0  0  0  0  0  0  0  0  0
  1  2  1  0  0  0  0
  1 25  1  0  0  0  0
  1  3  1  0  0  0  0
  5  4  1  0  0  0  0
  5 10  1  0  0  0  0
  6  5  2  0  0  0  0
  7  6  1  0  0  0  0
  7  8  2  0  0  0  0
  8  9  1  0  0  0  0
  9 10  2  0  0  0  0
  9 13  1  0  0  0  0
 10  1  1  0  0  0  0
 11  7  1  0  0  0  0
 12  8  1  0  0  0  0
 14 19  1  0  0  0  0
 15 16  1  0  0  0  0
 15 14  2  0  0  0  0
 16 17  2  0  0  0  0
 17 18  1  0  0  0  0
 18  6  1  0  0  0  0
 19 18  2  0  0  0  0
 20 14  1  0  0  0  0
 21 15  1  0  0  0  0
 22 23  1  0  0  0  0
 22 16  1  0  0  0  0
 24 22  1  0  0  0  0
 25 26  1  0  0  0  0
 27 25  1  0  0  0  0
 28 25  1  0  0  0  0
 28 30  1  0  0  0  0
 30 29  2  1  0  0  0
 30 31  1  0  0  0  0
 32 31  1  0  0  0  0
 33 30  1  0  0  0  0
 35 34  1  0  0  0  0
 35 36  1  0  0  0  0
 36 33  1  0  0  0  0
 37 36  2  0  0  0  0
 38 45  1  0  0  0  0
 38 37  1  0  0  0  0
 39 40  1  0  0  0  0
 39 38  2  0  0  0  0
 41 42  2  0  0  0  0
 41 39  1  0  0  0  0
 42 44  1  0  0  0  0
 43 42  1  0  0  0  0
 44 45  2  0  0  0  0
 45 35  1  0  0  0  0
M  END
>  <minimizedAffinity>
-5.96832085

$$$$

 OpenBabel03272504403D

 45 48  0  0  0  0  0  0  0  0999 V2000
   38.1400   26.4200   35.2620 C   0  0  0  0  0  0  0  0  0  0  0  0
   39.2310   26.5210   35.0730 H   0  0  0  0  0  0  0  0  0  0  0  0
   37.8870   27.3710   35.8200 H   0  0  0  0  0  0  0  0  0  0  0  0
   36.5780   28.9010   34.8120 Cl  0  0  0  0  0  0  0  0  0  0  0  0
   36.6650   27.5750   33.6540 C   0  0  0  0  0  0  0  0  0  0  0  0
   35.9800   27.6710   32.4810 C   0  0  0  0  0  0  0  0  0  0  0  0
   36.0370   26.6490   31.5730 C   0  0  0  0  0  0  0  0  0  0  0  0
   36.7960   25.5320   31.8700 C   0  0  0  0  0  0  0  0  0  0  0  0
   37.4790   25.4830   33.0850 C   0  0  0  0  0  0  0  0  0  0  0  0
   37.4350   26.4890   34.0020 C   0  0  0  0  0  0  0  0  0  0  0  0
   35.4720   26.7650   30.6410 H   0  0  0  0  0  0  0  0  0  0  0  0
   36.7720   24.7850   31.0830 H   0  0  0  0  0  0  0  0  0  0  0  0
   37.9830   24.5800   33.1210 H   0  0  0  0  0  0  0  0  0  0  0  0
   33.2750   30.1850   32.4170 C   0  0  0  0  0  0  0  0  0  0  0  0
   33.8080   31.1340   31.5010 C   0  0  0  0  0  0  0  0  0  0  0  0
   35.0660   30.8720   30.9500 C   0  0  0  0  0  0  0  0  0  0  0  0
   35.7290   29.7350   31.3010 N   0  0  0  0  0  0  0  0  0  0  0  0
   35.1820   28.8540   32.1800 C   0  0  0  0  0  0  0  0  0  0  0  0
   33.9820   29.0880   32.7160 N   0  0  0  0  0  0  0  0  0  0  0  0
   32.3100   30.3530   32.8610 H   0  0  0  0  0  0  0  0  0  0  0  0
   33.1860   31.9790   31.3160 H   0  0  0  0  0  0  0  0  0  0  0  0
   35.5710   31.8300   30.0460 N   0  0  0  0  0  0  0  0  0  0  0  0
   35.7430   32.7300   30.5450 H   0  0  0  0  0  0  0  0  0  0  0  0
   35.6210   31.3230   29.1140 H   0  0  0  0  0  0  0  0  0  0  0  0
   37.9110   25.2870   36.1480 C   0  0  0  0  0  0  0  0  0  0  0  0
   37.8990   25.6510   37.2140 H   0  0  0  0  0  0  0  0  0  0  0  0
   36.9200   24.7940   35.9930 H   0  0  0  0  0  0  0  0  0  0  0  0
   38.8720   24.3190   36.0050 O   0  0  0  0  0  0  0  0  0  0  0  0
   38.5230   23.4070   38.4450 O   0  0  0  0  0  0  0  0  0  0  0  0
   38.5440   23.0030   36.9930 P   0  0  2  0  0  0  0  0  0  0  0  0
   39.7710   21.8430   36.6830 O   0  0  0  0  0  0  0  0  0  0  0  0
   39.8270   21.7880   35.6860 H   0  0  0  0  0  0  0  0  0  0  0  0
   37.0920   22.2770   36.6070 O   0  0  0  0  0  0  0  0  0  0  0  0
   38.5400   22.5930   34.1740 H   0  0  0  0  0  0  0  0  0  0  0  0
   37.6730   22.0150   34.2380 N   0  0  0  0  0  0  0  0  0  0  0  0
   36.8820   21.7720   35.3210 C   0  0  0  0  0  0  0  0  0  0  0  0
   35.8960   20.9700   34.8810 N   0  0  0  0  0  0  0  0  0  0  0  0
   36.0290   20.6970   33.5760 C   0  0  0  0  0  0  0  0  0  0  0  0
   35.2540   19.9250   32.7260 C   0  0  0  0  0  0  0  0  0  0  0  0
   34.3730   19.4360   33.1460 H   0  0  0  0  0  0  0  0  0  0  0  0
   35.6320   19.8250   31.4390 N   0  0  0  0  0  0  0  0  0  0  0  0
   36.7470   20.4830   31.0450 C   0  0  0  0  0  0  0  0  0  0  0  0
   37.0590   20.4080   30.0100 H   0  0  0  0  0  0  0  0  0  0  0  0
   37.4960   21.2290   31.8700 N   0  0  0  0  0  0  0  0  0  0  0  0
   37.1740   21.3710   33.1660 C   0  0  0  0  0  0  0  0  0  0  0  0
  1  3  1  0  0  0  0
  1 25  1  0  0  0  0
  2  1  1  0  0  0  0
  5 10  1  0  0  0  0
  5  4  1  0  0  0  0
  6  5  2  0  0  0  0
  7  8  2  0  0  0  0
  7  6  1  0  0  0  0
  8  9  1  0  0  0  0
  9 13  1  0  0  0  0
  9 10  2  0  0  0  0
 10  1  1  0  0  0  0
 11  7  1  0  0  0  0
 12  8  1  0  0  0  0
 14 19  1  0  0  0  0
 14 20  1  0  0  0  0
 15 14  2  0  0  0  0
 16 17  2  0  0  0  0
 16 15  1  0  0  0  0
 17 18  1  0  0  0  0
 18  6  1  0  0  0  0
 18 19  2  0  0  0  0
 21 15  1  0  0  0  0
 22 23  1  0  0  0  0
 22 16  1  0  0  0  0
 24 22  1  0  0  0  0
 25 26  1  0  0  0  0
 27 25  1  0  0  0  0
 28 25  1  0  0  0  0
 28 30  1  0  0  0  0
 30 29  2  1  0  0  0
 31 30  1  0  0  0  0
 32 31  1  0  0  0  0
 33 30  1  0  0  0  0
 34 35  1  0  0  0  0
 35 36  1  0  0  0  0
 36 33  1  0  0  0  0
 37 36  2  0  0  0  0
 38 37  1  0  0  0  0
 39 40  1  0  0  0  0
 39 38  2  0  0  0  0
 41 39  1  0  0  0  0
 42 41  2  0  0  0  0
 42 44  1  0  0  0  0
 43 42  1  0  0  0  0
 44 45  2  0  0  0  0
 45 38  1  0  0  0  0
 45 35  1  0  0  0  0
M  END
>  <minimizedAffinity>
-5.84265709

$$$$
