
 OpenBabel03272506553D

 23 25  0  0  0  0  0  0  0  0999 V2000
   36.3640   29.6640   51.0050 C   0  0  0  0  0  0  0  0  0  0  0  0
   37.2530   30.0360   49.9790 C   0  0  0  0  0  0  0  0  0  0  0  0
   36.8040   29.7900   48.6540 C   0  0  0  0  0  0  0  0  0  0  0  0
   35.5730   29.2250   48.4770 N   0  0  0  0  0  0  0  0  0  0  0  0
   34.7780   28.8970   49.5030 C   0  0  0  0  0  0  0  0  0  0  0  0
   35.1540   29.1080   50.7800 N   0  0  0  0  0  0  0  0  0  0  0  0
   36.6740   29.8380   52.0400 H   0  0  0  0  0  0  0  0  0  0  0  0
   37.4480   30.0580   47.8520 H   0  0  0  0  0  0  0  0  0  0  0  0
   33.5390   28.3220   49.0760 N   0  0  0  0  0  0  0  0  0  0  0  0
   32.3260   28.4440   49.6480 C   0  0  0  0  0  0  0  0  0  0  0  0
   32.1530   29.0350   50.5540 H   0  0  0  0  0  0  0  0  0  0  0  0
   31.4210   27.7470   48.9380 N   0  0  0  0  0  0  0  0  0  0  0  0
   32.0470   27.1580   47.8860 C   0  0  0  0  0  0  0  0  0  0  0  0
   31.5190   26.3510   46.8960 C   0  0  0  0  0  0  0  0  0  0  0  0
   30.4880   26.0970   46.8660 H   0  0  0  0  0  0  0  0  0  0  0  0
   32.4190   25.9110   45.9690 N   0  0  0  0  0  0  0  0  0  0  0  0
   33.7200   26.2650   46.0570 C   0  0  0  0  0  0  0  0  0  0  0  0
   34.4100   25.8940   45.2980 H   0  0  0  0  0  0  0  0  0  0  0  0
   34.1720   27.0460   47.0340 N   0  0  0  0  0  0  0  0  0  0  0  0
   33.3880   27.5360   47.9940 C   0  0  0  0  0  0  0  0  0  0  0  0
   38.5200   30.6200   50.2740 N   0  0  0  0  0  0  0  0  0  0  0  0
   38.5220   31.4260   50.9620 H   0  0  0  0  0  0  0  0  0  0  0  0
   39.3820   30.2510   49.8190 H   0  0  0  0  0  0  0  0  0  0  0  0
  1  7  1  0  0  0  0
  2 21  1  0  0  0  0
  2  1  2  0  0  0  0
  3  2  1  0  0  0  0
  4  3  2  0  0  0  0
  4  5  1  0  0  0  0
  5  6  2  0  0  0  0
  6  1  1  0  0  0  0
  8  3  1  0  0  0  0
  9  5  1  0  0  0  0
  9 10  1  0  0  0  0
 10 11  1  0  0  0  0
 12 10  2  0  0  0  0
 13 20  1  0  0  0  0
 13 12  1  0  0  0  0
 14 13  2  0  0  0  0
 15 14  1  0  0  0  0
 16 17  2  0  0  0  0
 16 14  1  0  0  0  0
 17 19  1  0  0  0  0
 18 17  1  0  0  0  0
 19 20  2  0  0  0  0
 20  9  1  0  0  0  0
 21 22  1  0  0  0  0
 23 21  1  0  0  0  0
M  END
>  <minimizedAffinity>
-4.08521795

>  <minimizedRMSD>
0.657584429

$$$$
