
     RDKit          3D

 43 47  0  0  0  0  0  0  0  0999 V2000
   38.9562   32.3671   47.7944 C   0  0  2  0  0  0  0  0  0  0  0  0
   38.0066   32.7416   48.9745 C   0  0  2  0  0  0  0  0  0  0  0  0
   38.8997   33.5437   49.7967 C   0  0  0  0  0  0  0  0  0  0  0  0
   39.7239   34.2747   48.9538 O   0  0  0  0  0  0  0  0  0  0  0  0
   39.6162   33.7734   47.6974 C   0  0  0  0  0  0  0  0  0  0  0  0
   37.3585   29.6987   51.0860 C   0  0  0  0  0  0  0  0  0  0  0  0
   38.0374   30.8353   50.5635 C   0  0  0  0  0  0  0  0  0  0  0  0
   37.3712   31.5855   49.5534 C   0  0  0  0  0  0  0  0  0  0  0  0
   36.1238   31.1856   49.1350 N   0  0  0  0  0  0  0  0  0  0  0  0
   35.5292   30.1105   49.6574 C   0  0  0  0  0  0  0  0  0  0  0  0
   36.1258   29.3617   50.6249 N   0  0  0  0  0  0  0  0  0  0  0  0
   38.2768   32.1301   46.6467 O   0  0  0  0  0  0  0  0  0  0  0  0
   40.9467   31.2533   45.3740 Cl  0  0  0  0  0  0  0  0  0  0  0  0
   39.3669   30.6959   44.9049 C   0  0  0  0  0  0  0  0  0  0  0  0
   38.3254   31.2410   45.6340 C   0  0  0  0  0  0  0  0  0  0  0  0
   37.0633   30.7966   45.2651 C   0  0  0  0  0  0  0  0  0  0  0  0
   36.8521   29.8860   44.2559 C   0  0  0  0  0  0  0  0  0  0  0  0
   37.9334   29.3887   43.5768 C   0  0  0  0  0  0  0  0  0  0  0  0
   39.2309   29.7794   43.8806 C   0  0  0  0  0  0  0  0  0  0  0  0
   39.7097   31.6643   48.1396 H   0  0  0  0  0  0  0  0  0  0  0  0
   37.2268   33.3709   48.4953 H   0  0  0  0  0  0  0  0  0  0  0  0
   39.5607   33.0126   50.4847 H   0  0  0  0  0  0  0  0  0  0  0  0
   38.2997   34.2785   50.3821 H   0  0  0  0  0  0  0  0  0  0  0  0
   40.6263   33.6470   47.2454 H   0  0  0  0  0  0  0  0  0  0  0  0
   38.9960   34.3673   47.0041 H   0  0  0  0  0  0  0  0  0  0  0  0
   37.8693   29.1348   51.8515 H   0  0  0  0  0  0  0  0  0  0  0  0
   39.0180   31.1016   50.9312 H   0  0  0  0  0  0  0  0  0  0  0  0
   34.5638   29.7322   49.3897 H   0  0  0  0  0  0  0  0  0  0  0  0
   36.1359   31.1161   45.7258 H   0  0  0  0  0  0  0  0  0  0  0  0
   35.8823   29.5231   43.9485 H   0  0  0  0  0  0  0  0  0  0  0  0
   37.8813   28.6610   42.7579 H   0  0  0  0  0  0  0  0  0  0  0  0
   40.4215   29.3282   43.2416 N   0  0  0  0  0  0  0  0  0  0  0  0
   41.0715   28.1554   43.3581 C   0  0  0  0  0  0  0  0  0  0  0  0
   40.7596   27.3314   43.9990 H   0  0  0  0  0  0  0  0  0  0  0  0
   42.1402   28.2268   42.5453 N   0  0  0  0  0  0  0  0  0  0  0  0
   42.1596   29.4204   41.9316 C   0  0  0  0  0  0  0  0  0  0  0  0
   43.0245   30.0101   41.0066 C   0  0  0  0  0  0  0  0  0  0  0  0
   43.8874   29.4546   40.6582 H   0  0  0  0  0  0  0  0  0  0  0  0
   42.8147   31.2669   40.5277 N   0  0  0  0  0  0  0  0  0  0  0  0
   41.7332   31.9255   40.9832 C   0  0  0  0  0  0  0  0  0  0  0  0
   41.4173   32.9346   40.7059 H   0  0  0  0  0  0  0  0  0  0  0  0
   40.8782   31.3882   41.8747 N   0  0  0  0  0  0  0  0  0  0  0  0
   41.0486   30.1453   42.3752 C   0  0  0  0  0  0  0  0  0  0  0  0
  1  2  1  0
  2  8  1  0
  2  3  1  0
  4  3  1  0
  5  1  1  0
  5  4  1  0
  7  6  2  0
  8  7  1  0
  9  8  2  0
  9 10  1  0
 10 11  2  0
 11  6  1  0
 12  1  1  0
 14 13  1  0
 14 15  2  0
 15 12  1  0
 16 15  1  0
 17 16  2  0
 18 19  2  0
 18 17  1  0
 19 14  1  0
  1 20  1  1
  2 21  1  6
  3 22  1  0
  3 23  1  0
  5 24  1  0
  5 25  1  0
  6 26  1  0
  7 27  1  0
 10 28  1  0
 16 29  1  0
 17 30  1  0
 18 31  1  0
 32 33  1  0
 33 34  1  0
 33 35  2  0
 35 36  1  0
 36 37  2  0
 37 38  1  0
 37 39  1  0
 39 40  2  0
 40 41  1  0
 40 42  1  0
 42 43  2  0
 43 32  1  0
 43 36  1  0
 19 32  1  0
M  ISO  8  20  13  21  13  22  13  23  13  24  13  25  13  26  14  27  14
M  ISO  7  28  14  29  14  30  14  31  14  34  15  38  16  41  16
M  END
>  <DihAtoms>  (1) 
17,18,31,32

>  <DihDeg>  (1) 
134.56494560030418

$$$$
