
 OpenBabel03272501483D

 23 25  0  0  0  0  0  0  0  0999 V2000
   37.3740   30.6850   50.8300 C   0  0  0  0  0  0  0  0  0  0  0  0
   37.9340   31.0860   49.6120 C   0  0  0  0  0  0  0  0  0  0  0  0
   37.4380   30.4770   48.4350 C   0  0  0  0  0  0  0  0  0  0  0  0
   36.4460   29.5400   48.5680 N   0  0  0  0  0  0  0  0  0  0  0  0
   35.9490   29.1960   49.7620 C   0  0  0  0  0  0  0  0  0  0  0  0
   36.4030   29.7630   50.9100 N   0  0  0  0  0  0  0  0  0  0  0  0
   34.9260   28.2130   49.7480 N   0  0  0  0  0  0  0  0  0  0  0  0
   37.6980   31.1010   51.7650 H   0  0  0  0  0  0  0  0  0  0  0  0
   38.7120   31.8310   49.5810 H   0  0  0  0  0  0  0  0  0  0  0  0
   34.8600   27.2650   50.1760 H   0  0  0  0  0  0  0  0  0  0  0  0
   34.0640   28.5010   49.1940 H   0  0  0  0  0  0  0  0  0  0  0  0
   37.9740   30.8500   47.1720 N   0  0  0  0  0  0  0  0  0  0  0  0
   39.2580   31.3020   47.1090 C   0  0  0  0  0  0  0  0  0  0  0  0
   39.9970   31.4430   47.8790 H   0  0  0  0  0  0  0  0  0  0  0  0
   39.5870   31.6040   45.8410 N   0  0  0  0  0  0  0  0  0  0  0  0
   38.5120   31.3470   45.0800 C   0  0  0  0  0  0  0  0  0  0  0  0
   38.1510   31.4230   43.7330 C   0  0  0  0  0  0  0  0  0  0  0  0
   38.9170   31.7890   43.0480 H   0  0  0  0  0  0  0  0  0  0  0  0
   36.9130   31.0530   43.3470 N   0  0  0  0  0  0  0  0  0  0  0  0
   35.9840   30.6060   44.2000 C   0  0  0  0  0  0  0  0  0  0  0  0
   35.0540   30.3520   43.7530 H   0  0  0  0  0  0  0  0  0  0  0  0
   36.2750   30.5090   45.5260 N   0  0  0  0  0  0  0  0  0  0  0  0
   37.5120   30.8790   45.9060 C   0  0  0  0  0  0  0  0  0  0  0  0
  1  6  1  0  0  0  0
  1  8  1  0  0  0  0
  2  1  2  0  0  0  0
  3  4  2  0  0  0  0
  3  2  1  0  0  0  0
  4  5  1  0  0  0  0
  5  6  2  0  0  0  0
  7  5  1  0  0  0  0
  7 10  1  0  0  0  0
  9  2  1  0  0  0  0
 11  7  1  0  0  0  0
 12  3  1  0  0  0  0
 13 12  1  0  0  0  0
 13 14  1  0  0  0  0
 15 13  2  0  0  0  0
 16 15  1  0  0  0  0
 16 23  1  0  0  0  0
 17 16  2  0  0  0  0
 18 17  1  0  0  0  0
 19 17  1  0  0  0  0
 19 20  2  0  0  0  0
 20 22  1  0  0  0  0
 21 20  1  0  0  0  0
 22 23  2  0  0  0  0
 23 12  1  0  0  0  0
M  END
>  <minimizedAffinity>
-4.72503948

>  <minimizedRMSD>
1.09993649

$$$$
