
 OpenBabel03272501483D

 23 25  0  0  0  0  0  0  0  0999 V2000
   36.8390   29.7290   51.5540 C   0  0  0  0  0  0  0  0  0  0  0  0
   37.6460   30.3740   50.6110 C   0  0  0  0  0  0  0  0  0  0  0  0
   37.1080   30.5660   49.3160 C   0  0  0  0  0  0  0  0  0  0  0  0
   35.8390   30.1100   49.0760 N   0  0  0  0  0  0  0  0  0  0  0  0
   35.1130   29.4980   50.0190 C   0  0  0  0  0  0  0  0  0  0  0  0
   35.6000   29.2980   51.2720 N   0  0  0  0  0  0  0  0  0  0  0  0
   33.8150   29.0780   49.6280 N   0  0  0  0  0  0  0  0  0  0  0  0
   37.1760   29.5460   52.5570 H   0  0  0  0  0  0  0  0  0  0  0  0
   38.6370   30.7080   50.8700 H   0  0  0  0  0  0  0  0  0  0  0  0
   33.3630   28.1400   49.5950 H   0  0  0  0  0  0  0  0  0  0  0  0
   33.1860   29.8750   49.3090 H   0  0  0  0  0  0  0  0  0  0  0  0
   37.8890   31.2170   48.3210 N   0  0  0  0  0  0  0  0  0  0  0  0
   37.9680   30.6610   47.0800 C   0  0  0  0  0  0  0  0  0  0  0  0
   37.5270   29.7660   46.6750 H   0  0  0  0  0  0  0  0  0  0  0  0
   38.7440   31.4120   46.2790 N   0  0  0  0  0  0  0  0  0  0  0  0
   39.1690   32.4580   47.0050 C   0  0  0  0  0  0  0  0  0  0  0  0
   39.9700   33.5880   46.8280 C   0  0  0  0  0  0  0  0  0  0  0  0
   40.4090   33.7180   45.8380 H   0  0  0  0  0  0  0  0  0  0  0  0
   40.1630   34.4420   47.8530 N   0  0  0  0  0  0  0  0  0  0  0  0
   39.6180   34.2680   49.0630 C   0  0  0  0  0  0  0  0  0  0  0  0
   39.8560   35.0220   49.7730 H   0  0  0  0  0  0  0  0  0  0  0  0
   38.8270   33.1850   49.2980 N   0  0  0  0  0  0  0  0  0  0  0  0
   38.6370   32.3350   48.2720 C   0  0  0  0  0  0  0  0  0  0  0  0
  1  8  1  0  0  0  0
  2  9  1  0  0  0  0
  2  1  2  0  0  0  0
  3  2  1  0  0  0  0
  4  3  2  0  0  0  0
  4  5  1  0  0  0  0
  5  6  2  0  0  0  0
  6  1  1  0  0  0  0
  7  5  1  0  0  0  0
 10  7  1  0  0  0  0
 11  7  1  0  0  0  0
 12  3  1  0  0  0  0
 13 12  1  0  0  0  0
 14 13  1  0  0  0  0
 15 16  1  0  0  0  0
 15 13  2  0  0  0  0
 16 23  1  0  0  0  0
 17 16  2  0  0  0  0
 17 19  1  0  0  0  0
 18 17  1  0  0  0  0
 19 20  2  0  0  0  0
 20 22  1  0  0  0  0
 20 21  1  0  0  0  0
 23 12  1  0  0  0  0
 23 22  2  0  0  0  0
M  END
>  <minimizedAffinity>
-5.70617676

>  <minimizedRMSD>
0.939236701

$$$$
