
 OpenBabel03272506033D

 49 53  0  0  1  0  0  0  0  0999 V2000
   37.1030   28.0030   32.3010 C   0  0  2  0  0  0  0  0  0  0  0  0
   36.5780   28.7750   33.4220 C   0  0  0  0  0  0  0  0  0  0  0  0
   35.1640   29.3670   33.1360 C   0  0  2  0  0  0  0  0  0  0  0  0
   35.1200   30.2260   31.9780 C   0  0  0  0  0  0  0  0  0  0  0  0
   35.9900   29.7380   30.8180 C   0  0  0  0  0  0  0  0  0  0  0  0
   36.3610   28.2960   30.9930 C   0  0  0  0  0  0  0  0  0  0  0  0
   38.1660   28.3060   32.0610 H   0  0  0  0  0  0  0  0  0  0  0  0
   36.5150   28.4040   34.4170 H   0  0  0  0  0  0  0  0  0  0  0  0
   37.1900   29.7380   33.5000 H   0  0  0  0  0  0  0  0  0  0  0  0
   34.4630   28.5140   33.0800 H   0  0  0  0  0  0  0  0  0  0  0  0
   34.0650   30.3640   31.6610 H   0  0  0  0  0  0  0  0  0  0  0  0
   35.4860   31.2480   32.1980 H   0  0  0  0  0  0  0  0  0  0  0  0
   35.3520   29.7790   29.9110 H   0  0  0  0  0  0  0  0  0  0  0  0
   36.8580   30.3780   30.6300 H   0  0  0  0  0  0  0  0  0  0  0  0
   35.4710   27.6510   30.9300 H   0  0  0  0  0  0  0  0  0  0  0  0
   37.0250   28.0040   30.1640 H   0  0  0  0  0  0  0  0  0  0  0  0
   37.1150   26.5510   32.4590 C   0  0  0  0  0  0  0  0  0  0  0  0
   36.1380   25.8970   31.7260 C   0  0  0  0  0  0  0  0  0  0  0  0
   36.0740   24.5060   31.7870 C   0  0  0  0  0  0  0  0  0  0  0  0
   37.0030   23.8370   32.5900 N   0  0  0  0  0  0  0  0  0  0  0  0
   37.9290   24.5140   33.2810 C   0  0  0  0  0  0  0  0  0  0  0  0
   37.9560   25.8440   33.1940 N   0  0  0  0  0  0  0  0  0  0  0  0
   35.3250   26.1370   31.0550 H   0  0  0  0  0  0  0  0  0  0  0  0
   35.4370   23.7840   31.3330 H   0  0  0  0  0  0  0  0  0  0  0  0
   38.8800   23.8470   34.1010 N   0  0  0  0  0  0  0  0  0  0  0  0
   40.0380   23.2110   33.8040 C   0  0  0  0  0  0  0  0  0  0  0  0
   40.4180   23.1290   32.7900 H   0  0  0  0  0  0  0  0  0  0  0  0
   40.5690   22.7430   34.9620 N   0  0  0  0  0  0  0  0  0  0  0  0
   39.7570   23.0780   35.9800 C   0  0  0  0  0  0  0  0  0  0  0  0
   39.7570   22.8890   37.3610 C   0  0  0  0  0  0  0  0  0  0  0  0
   40.5730   22.3510   37.8130 H   0  0  0  0  0  0  0  0  0  0  0  0
   38.7700   23.3580   38.1480 N   0  0  0  0  0  0  0  0  0  0  0  0
   37.7350   24.0350   37.6070 C   0  0  0  0  0  0  0  0  0  0  0  0
   36.9170   24.4300   38.2110 H   0  0  0  0  0  0  0  0  0  0  0  0
   37.7340   24.2180   36.2840 N   0  0  0  0  0  0  0  0  0  0  0  0
   38.7020   23.7660   35.4510 C   0  0  0  0  0  0  0  0  0  0  0  0
   32.3710   29.1970   34.0790 Cl  0  0  0  0  0  0  0  0  0  0  0  0
   33.5790   30.1560   34.8950 C   0  0  0  0  0  0  0  0  0  0  0  0
   34.8560   30.1200   34.3940 C   0  0  0  0  0  0  0  0  0  0  0  0
   35.7570   30.8720   35.1200 C   0  0  0  0  0  0  0  0  0  0  0  0
   35.4140   31.5970   36.2440 C   0  0  0  0  0  0  0  0  0  0  0  0
   34.0900   31.5840   36.6910 C   0  0  0  0  0  0  0  0  0  0  0  0
   33.1470   30.8360   35.9870 C   0  0  0  0  0  0  0  0  0  0  0  0
   36.7900   30.8870   34.7830 H   0  0  0  0  0  0  0  0  0  0  0  0
   36.1650   32.1650   36.7660 H   0  0  0  0  0  0  0  0  0  0  0  0
   33.7770   32.1370   37.5660 H   0  0  0  0  0  0  0  0  0  0  0  0
   31.8020   30.8250   36.4380 N   0  0  0  0  0  0  0  0  0  0  0  0
   31.1600   31.0690   35.6320 H   0  0  0  0  0  0  0  0  0  0  0  0
   31.3630   30.6360   37.3450 H   0  0  0  0  0  0  0  0  0  0  0  0
  1  7  1  6  0  0  0
  1 17  1  0  0  0  0
  1  2  1  0  0  0  0
  2  9  1  0  0  0  0
  2  8  1  0  0  0  0
  3 10  1  6  0  0  0
  3  2  1  0  0  0  0
  3 39  1  0  0  0  0
  4 12  1  0  0  0  0
  4  3  1  0  0  0  0
  5  6  1  0  0  0  0
  5  4  1  0  0  0  0
  6  1  1  0  0  0  0
 11  4  1  0  0  0  0
 13  5  1  0  0  0  0
 14  5  1  0  0  0  0
 15  6  1  0  0  0  0
 16  6  1  0  0  0  0
 17 22  1  0  0  0  0
 18 19  1  0  0  0  0
 18 17  2  0  0  0  0
 19 20  2  0  0  0  0
 20 21  1  0  0  0  0
 21 25  1  0  0  0  0
 22 21  2  0  0  0  0
 23 18  1  0  0  0  0
 24 19  1  0  0  0  0
 25 36  1  0  0  0  0
 26 25  1  0  0  0  0
 26 28  2  0  0  0  0
 27 26  1  0  0  0  0
 28 29  1  0  0  0  0
 29 30  1  0  0  0  0
 30 31  1  0  0  0  0
 30 32  2  0  0  0  0
 33 32  1  0  0  0  0
 33 34  1  0  0  0  0
 35 33  2  0  0  0  0
 36 29  2  0  0  0  0
 36 35  1  0  0  0  0
 37 38  1  0  0  0  0
 38 43  1  0  0  0  0
 39 38  2  0  0  0  0
 39 40  1  0  0  0  0
 40 41  2  0  0  0  0
 41 42  1  0  0  0  0
 41 45  1  0  0  0  0
 42 46  1  0  0  0  0
 43 47  1  0  0  0  0
 43 42  2  0  0  0  0
 44 40  1  0  0  0  0
 47 49  1  0  0  0  0
 48 47  1  0  0  0  0
M  END
>  <minimizedAffinity>
-7.38609648

$$$$

 OpenBabel03272506033D

 49 53  0  0  1  0  0  0  0  0999 V2000
   40.2220   25.8130   34.9900 C   0  0  2  0  0  0  0  0  0  0  0  0
   39.1730   26.4670   34.2170 C   0  0  0  0  0  0  0  0  0  0  0  0
   39.5820   26.7120   32.7320 C   0  0  2  0  0  0  0  0  0  0  0  0
   40.7730   27.5120   32.5840 C   0  0  0  0  0  0  0  0  0  0  0  0
   41.8480   27.2120   33.6300 C   0  0  0  0  0  0  0  0  0  0  0  0
   41.5900   25.8990   34.3060 C   0  0  0  0  0  0  0  0  0  0  0  0
   40.3970   26.3480   35.9710 H   0  0  0  0  0  0  0  0  0  0  0  0
   38.1710   26.1140   34.1620 H   0  0  0  0  0  0  0  0  0  0  0  0
   39.0890   27.5480   34.5850 H   0  0  0  0  0  0  0  0  0  0  0  0
   39.6540   25.7180   32.2510 H   0  0  0  0  0  0  0  0  0  0  0  0
   41.1690   27.3960   31.5530 H   0  0  0  0  0  0  0  0  0  0  0  0
   40.5670   28.5950   32.6890 H   0  0  0  0  0  0  0  0  0  0  0  0
   42.7990   27.0850   33.0740 H   0  0  0  0  0  0  0  0  0  0  0  0
   41.9980   28.0300   34.3420 H   0  0  0  0  0  0  0  0  0  0  0  0
   41.6910   25.0640   33.5950 H   0  0  0  0  0  0  0  0  0  0  0  0
   42.3580   25.7490   35.0820 H   0  0  0  0  0  0  0  0  0  0  0  0
   40.0070   24.4070   35.3210 C   0  0  0  0  0  0  0  0  0  0  0  0
   41.1200   23.7780   35.8580 C   0  0  0  0  0  0  0  0  0  0  0  0
   41.0170   22.4390   36.2300 C   0  0  0  0  0  0  0  0  0  0  0  0
   39.7910   21.7930   36.0410 N   0  0  0  0  0  0  0  0  0  0  0  0
   38.7440   22.4440   35.5180 C   0  0  0  0  0  0  0  0  0  0  0  0
   38.8840   23.7250   35.1760 N   0  0  0  0  0  0  0  0  0  0  0  0
   42.1460   24.0110   36.1060 H   0  0  0  0  0  0  0  0  0  0  0  0
   41.7040   21.7450   36.6540 H   0  0  0  0  0  0  0  0  0  0  0  0
   37.4920   21.7990   35.3200 N   0  0  0  0  0  0  0  0  0  0  0  0
   36.4770   21.5220   36.1720 C   0  0  0  0  0  0  0  0  0  0  0  0
   36.5050   21.7920   37.2240 H   0  0  0  0  0  0  0  0  0  0  0  0
   35.5030   20.8880   35.4720 N   0  0  0  0  0  0  0  0  0  0  0  0
   35.8960   20.7650   34.1930 C   0  0  0  0  0  0  0  0  0  0  0  0
   35.3520   20.2240   33.0290 C   0  0  0  0  0  0  0  0  0  0  0  0
   34.3770   19.7700   33.0710 H   0  0  0  0  0  0  0  0  0  0  0  0
   36.0080   20.2510   31.8520 N   0  0  0  0  0  0  0  0  0  0  0  0
   37.2320   20.8140   31.7710 C   0  0  0  0  0  0  0  0  0  0  0  0
   37.7940   20.8550   30.8370 H   0  0  0  0  0  0  0  0  0  0  0  0
   37.7540   21.3330   32.8850 N   0  0  0  0  0  0  0  0  0  0  0  0
   37.1360   21.3310   34.0900 C   0  0  0  0  0  0  0  0  0  0  0  0
   39.4000   26.7440   29.7840 Cl  0  0  0  0  0  0  0  0  0  0  0  0
   38.2190   27.5230   30.8060 C   0  0  0  0  0  0  0  0  0  0  0  0
   38.3800   27.4000   32.1620 C   0  0  0  0  0  0  0  0  0  0  0  0
   37.3810   28.0100   32.8960 C   0  0  0  0  0  0  0  0  0  0  0  0
   36.3190   28.6840   32.3260 C   0  0  0  0  0  0  0  0  0  0  0  0
   36.2280   28.7660   30.9340 C   0  0  0  0  0  0  0  0  0  0  0  0
   37.2140   28.1630   30.1540 C   0  0  0  0  0  0  0  0  0  0  0  0
   37.4420   27.9490   33.9790 H   0  0  0  0  0  0  0  0  0  0  0  0
   35.5730   29.1380   32.9540 H   0  0  0  0  0  0  0  0  0  0  0  0
   35.4140   29.2840   30.4450 H   0  0  0  0  0  0  0  0  0  0  0  0
   37.1230   28.2500   28.7420 N   0  0  0  0  0  0  0  0  0  0  0  0
   38.0400   28.6100   28.3530 H   0  0  0  0  0  0  0  0  0  0  0  0
   36.3790   28.0400   28.0680 H   0  0  0  0  0  0  0  0  0  0  0  0
  1 17  1  0  0  0  0
  1  7  1  1  0  0  0
  2  9  1  0  0  0  0
  2  1  1  0  0  0  0
  3 10  1  6  0  0  0
  3  2  1  0  0  0  0
  4 12  1  0  0  0  0
  4  3  1  0  0  0  0
  4  5  1  0  0  0  0
  5  6  1  0  0  0  0
  5 14  1  0  0  0  0
  6  1  1  0  0  0  0
  6 16  1  0  0  0  0
  8  2  1  0  0  0  0
 11  4  1  0  0  0  0
 13  5  1  0  0  0  0
 15  6  1  0  0  0  0
 17 18  1  0  0  0  0
 18 23  1  0  0  0  0
 18 19  2  0  0  0  0
 19 24  1  0  0  0  0
 20 19  1  0  0  0  0
 21 20  2  0  0  0  0
 22 17  2  0  0  0  0
 22 21  1  0  0  0  0
 25 21  1  0  0  0  0
 25 26  1  0  0  0  0
 26 27  1  0  0  0  0
 28 26  2  0  0  0  0
 29 28  1  0  0  0  0
 30 31  1  0  0  0  0
 30 29  2  0  0  0  0
 32 30  1  0  0  0  0
 33 32  2  0  0  0  0
 33 35  1  0  0  0  0
 34 33  1  0  0  0  0
 35 36  2  0  0  0  0
 36 29  1  0  0  0  0
 36 25  1  0  0  0  0
 37 38  1  0  0  0  0
 38 39  1  0  0  0  0
 39  3  1  0  0  0  0
 39 40  2  0  0  0  0
 40 44  1  0  0  0  0
 41 40  1  0  0  0  0
 41 45  1  0  0  0  0
 42 41  2  0  0  0  0
 43 38  2  0  0  0  0
 43 42  1  0  0  0  0
 46 42  1  0  0  0  0
 47 43  1  0  0  0  0
 48 47  1  0  0  0  0
 49 47  1  0  0  0  0
M  END
>  <minimizedAffinity>
-6.86924696

$$$$

 OpenBabel03272506033D

 49 53  0  0  1  0  0  0  0  0999 V2000
   39.5940   25.8020   32.3720 C   0  0  2  0  0  0  0  0  0  0  0  0
   39.7830   24.7830   33.3990 C   0  0  0  0  0  0  0  0  0  0  0  0
   40.2000   25.3850   34.7750 C   0  0  2  0  0  0  0  0  0  0  0  0
   41.4160   26.1600   34.7230 C   0  0  0  0  0  0  0  0  0  0  0  0
   41.5560   26.9980   33.4510 C   0  0  0  0  0  0  0  0  0  0  0  0
   40.2380   27.1390   32.7510 C   0  0  0  0  0  0  0  0  0  0  0  0
   40.1340   25.5230   31.4180 H   0  0  0  0  0  0  0  0  0  0  0  0
   39.0570   24.0450   33.6400 H   0  0  0  0  0  0  0  0  0  0  0  0
   40.7300   24.1960   33.1380 H   0  0  0  0  0  0  0  0  0  0  0  0
   39.3310   25.9530   35.1540 H   0  0  0  0  0  0  0  0  0  0  0  0
   41.4900   26.7910   35.6340 H   0  0  0  0  0  0  0  0  0  0  0  0
   42.3220   25.5220   34.7450 H   0  0  0  0  0  0  0  0  0  0  0  0
   41.8350   28.0200   33.7800 H   0  0  0  0  0  0  0  0  0  0  0  0
   42.3520   26.6460   32.7870 H   0  0  0  0  0  0  0  0  0  0  0  0
   39.5290   27.7210   33.3610 H   0  0  0  0  0  0  0  0  0  0  0  0
   40.3960   27.7060   31.8200 H   0  0  0  0  0  0  0  0  0  0  0  0
   38.2150   26.0940   31.9910 C   0  0  0  0  0  0  0  0  0  0  0  0
   37.5580   25.0310   31.3920 C   0  0  0  0  0  0  0  0  0  0  0  0
   36.2290   25.1950   31.0080 C   0  0  0  0  0  0  0  0  0  0  0  0
   35.6200   26.4310   31.2470 N   0  0  0  0  0  0  0  0  0  0  0  0
   36.2970   27.4300   31.8300 C   0  0  0  0  0  0  0  0  0  0  0  0
   37.5670   27.2310   32.1820 N   0  0  0  0  0  0  0  0  0  0  0  0
   37.7620   24.0120   31.0920 H   0  0  0  0  0  0  0  0  0  0  0  0
   35.5190   24.5530   30.5420 H   0  0  0  0  0  0  0  0  0  0  0  0
   35.6900   28.6910   32.0790 N   0  0  0  0  0  0  0  0  0  0  0  0
   34.8630   29.1150   33.0630 C   0  0  0  0  0  0  0  0  0  0  0  0
   34.5300   28.4660   33.8680 H   0  0  0  0  0  0  0  0  0  0  0  0
   34.5730   30.4210   32.8350 N   0  0  0  0  0  0  0  0  0  0  0  0
   35.2080   30.8190   31.7200 C   0  0  0  0  0  0  0  0  0  0  0  0
   35.3030   32.0060   30.9940 C   0  0  0  0  0  0  0  0  0  0  0  0
   34.7660   32.8730   31.3400 H   0  0  0  0  0  0  0  0  0  0  0  0
   36.0450   32.1040   29.8740 N   0  0  0  0  0  0  0  0  0  0  0  0
   36.7280   31.0320   29.4180 C   0  0  0  0  0  0  0  0  0  0  0  0
   37.3390   31.0720   28.5150 H   0  0  0  0  0  0  0  0  0  0  0  0
   36.6390   29.8950   30.1120 N   0  0  0  0  0  0  0  0  0  0  0  0
   35.9070   29.7460   31.2420 C   0  0  0  0  0  0  0  0  0  0  0  0
   38.1340   25.0180   36.8540 Cl  0  0  0  0  0  0  0  0  0  0  0  0
   39.4850   23.9290   36.6710 C   0  0  0  0  0  0  0  0  0  0  0  0
   40.3550   24.1710   35.6390 C   0  0  0  0  0  0  0  0  0  0  0  0
   41.3710   23.2410   35.5400 C   0  0  0  0  0  0  0  0  0  0  0  0
   41.5060   22.1660   36.3970 C   0  0  0  0  0  0  0  0  0  0  0  0
   40.5780   21.9890   37.4260 C   0  0  0  0  0  0  0  0  0  0  0  0
   39.5350   22.9050   37.5610 C   0  0  0  0  0  0  0  0  0  0  0  0
   42.0960   23.3680   34.7420 H   0  0  0  0  0  0  0  0  0  0  0  0
   42.3210   21.4760   36.2660 H   0  0  0  0  0  0  0  0  0  0  0  0
   40.6450   21.1620   38.1200 H   0  0  0  0  0  0  0  0  0  0  0  0
   38.5950   22.7270   38.6080 N   0  0  0  0  0  0  0  0  0  0  0  0
   38.5080   23.6290   39.1580 H   0  0  0  0  0  0  0  0  0  0  0  0
   38.0180   21.9360   38.9120 H   0  0  0  0  0  0  0  0  0  0  0  0
  1  7  1  6  0  0  0
  1  6  1  0  0  0  0
  1  2  1  0  0  0  0
  2  8  1  0  0  0  0
  2  3  1  0  0  0  0
  3 10  1  1  0  0  0
  3 39  1  0  0  0  0
  4 12  1  0  0  0  0
  4  3  1  0  0  0  0
  4 11  1  0  0  0  0
  5 13  1  0  0  0  0
  5  4  1  0  0  0  0
  6 15  1  0  0  0  0
  6  5  1  0  0  0  0
  9  2  1  0  0  0  0
 14  5  1  0  0  0  0
 16  6  1  0  0  0  0
 17 22  1  0  0  0  0
 17  1  1  0  0  0  0
 18 17  2  0  0  0  0
 19 20  2  0  0  0  0
 19 18  1  0  0  0  0
 20 21  1  0  0  0  0
 21 25  1  0  0  0  0
 21 22  2  0  0  0  0
 23 18  1  0  0  0  0
 24 19  1  0  0  0  0
 25 26  1  0  0  0  0
 26 27  1  0  0  0  0
 28 26  2  0  0  0  0
 29 28  1  0  0  0  0
 30 31  1  0  0  0  0
 30 29  2  0  0  0  0
 32 30  1  0  0  0  0
 33 32  2  0  0  0  0
 33 35  1  0  0  0  0
 34 33  1  0  0  0  0
 35 36  2  0  0  0  0
 36 29  1  0  0  0  0
 36 25  1  0  0  0  0
 38 37  1  0  0  0  0
 38 43  1  0  0  0  0
 39 38  2  0  0  0  0
 40 39  1  0  0  0  0
 40 41  2  0  0  0  0
 41 42  1  0  0  0  0
 42 43  2  0  0  0  0
 42 46  1  0  0  0  0
 43 47  1  0  0  0  0
 44 40  1  0  0  0  0
 45 41  1  0  0  0  0
 47 49  1  0  0  0  0
 47 48  1  0  0  0  0
M  END
>  <minimizedAffinity>
-6.84424353

$$$$

 OpenBabel03272506033D

 49 53  0  0  1  0  0  0  0  0999 V2000
   38.2020   26.8370   31.6080 C   0  0  2  0  0  0  0  0  0  0  0  0
   37.9380   25.9010   32.6940 C   0  0  0  0  0  0  0  0  0  0  0  0
   38.9320   26.0630   33.8850 C   0  0  2  0  0  0  0  0  0  0  0  0
   40.3150   25.8930   33.5110 C   0  0  0  0  0  0  0  0  0  0  0  0
   40.6590   26.4890   32.1440 C   0  0  0  0  0  0  0  0  0  0  0  0
   39.6020   27.4520   31.6950 C   0  0  0  0  0  0  0  0  0  0  0  0
   38.2220   26.3060   30.6090 H   0  0  0  0  0  0  0  0  0  0  0  0
   36.9870   25.7830   33.1560 H   0  0  0  0  0  0  0  0  0  0  0  0
   38.2250   24.8540   32.3310 H   0  0  0  0  0  0  0  0  0  0  0  0
   38.7180   27.0430   34.3510 H   0  0  0  0  0  0  0  0  0  0  0  0
   40.9660   26.3090   34.3080 H   0  0  0  0  0  0  0  0  0  0  0  0
   40.6020   24.8260   33.4370 H   0  0  0  0  0  0  0  0  0  0  0  0
   41.5780   27.0930   32.2890 H   0  0  0  0  0  0  0  0  0  0  0  0
   40.8890   25.7310   31.3880 H   0  0  0  0  0  0  0  0  0  0  0  0
   39.5680   28.3340   32.3540 H   0  0  0  0  0  0  0  0  0  0  0  0
   39.8670   27.8160   30.6900 H   0  0  0  0  0  0  0  0  0  0  0  0
   37.2650   27.9480   31.4630 C   0  0  0  0  0  0  0  0  0  0  0  0
   37.4380   28.6830   30.3010 C   0  0  0  0  0  0  0  0  0  0  0  0
   36.5810   29.7540   30.0520 C   0  0  0  0  0  0  0  0  0  0  0  0
   35.5860   30.0360   30.9930 N   0  0  0  0  0  0  0  0  0  0  0  0
   35.4590   29.2970   32.1030 C   0  0  0  0  0  0  0  0  0  0  0  0
   36.2990   28.2800   32.3020 N   0  0  0  0  0  0  0  0  0  0  0  0
   38.0870   28.6990   29.4370 H   0  0  0  0  0  0  0  0  0  0  0  0
   36.5040   30.4570   29.2570 H   0  0  0  0  0  0  0  0  0  0  0  0
   34.4520   29.5720   33.0680 N   0  0  0  0  0  0  0  0  0  0  0  0
   33.1340   29.2660   33.1070 C   0  0  0  0  0  0  0  0  0  0  0  0
   32.6370   28.7120   32.3160 H   0  0  0  0  0  0  0  0  0  0  0  0
   32.6210   29.7660   34.2600 N   0  0  0  0  0  0  0  0  0  0  0  0
   33.6020   30.3810   34.9420 C   0  0  0  0  0  0  0  0  0  0  0  0
   33.7000   31.0640   36.1530 C   0  0  0  0  0  0  0  0  0  0  0  0
   32.8180   31.1760   36.7610 H   0  0  0  0  0  0  0  0  0  0  0  0
   34.8610   31.5890   36.5880 N   0  0  0  0  0  0  0  0  0  0  0  0
   35.9820   31.4640   35.8460 C   0  0  0  0  0  0  0  0  0  0  0  0
   36.9410   31.8750   36.1640 H   0  0  0  0  0  0  0  0  0  0  0  0
   35.8910   30.8090   34.6860 N   0  0  0  0  0  0  0  0  0  0  0  0
   34.7470   30.2640   34.2050 C   0  0  0  0  0  0  0  0  0  0  0  0
   38.4510   26.9590   36.6570 Cl  0  0  0  0  0  0  0  0  0  0  0  0
   38.2830   25.2930   36.1680 C   0  0  0  0  0  0  0  0  0  0  0  0
   38.4840   25.0020   34.8420 C   0  0  0  0  0  0  0  0  0  0  0  0
   38.2930   23.6700   34.5320 C   0  0  0  0  0  0  0  0  0  0  0  0
   37.9340   22.7150   35.4620 C   0  0  0  0  0  0  0  0  0  0  0  0
   37.7500   23.0910   36.7950 C   0  0  0  0  0  0  0  0  0  0  0  0
   37.9320   24.4270   37.1520 C   0  0  0  0  0  0  0  0  0  0  0  0
   38.4310   23.3680   33.4980 H   0  0  0  0  0  0  0  0  0  0  0  0
   37.8010   21.6920   35.1560 H   0  0  0  0  0  0  0  0  0  0  0  0
   37.4690   22.3760   37.5570 H   0  0  0  0  0  0  0  0  0  0  0  0
   37.7470   24.8080   38.5060 N   0  0  0  0  0  0  0  0  0  0  0  0
   38.5980   25.3450   38.8370 H   0  0  0  0  0  0  0  0  0  0  0  0
   36.9890   24.6690   39.1810 H   0  0  0  0  0  0  0  0  0  0  0  0
  1  7  1  6  0  0  0
  1  6  1  0  0  0  0
  1  2  1  0  0  0  0
  2  8  1  0  0  0  0
  2  3  1  0  0  0  0
  3 10  1  1  0  0  0
  3 39  1  0  0  0  0
  4  3  1  0  0  0  0
  4 11  1  0  0  0  0
  5 13  1  0  0  0  0
  5  4  1  0  0  0  0
  6  5  1  0  0  0  0
  6 15  1  0  0  0  0
  9  2  1  0  0  0  0
 12  4  1  0  0  0  0
 14  5  1  0  0  0  0
 16  6  1  0  0  0  0
 17  1  1  0  0  0  0
 17 22  1  0  0  0  0
 18 17  2  0  0  0  0
 19 18  1  0  0  0  0
 19 20  2  0  0  0  0
 20 21  1  0  0  0  0
 21 22  2  0  0  0  0
 21 25  1  0  0  0  0
 23 18  1  0  0  0  0
 24 19  1  0  0  0  0
 25 26  1  0  0  0  0
 25 36  1  0  0  0  0
 26 28  2  0  0  0  0
 27 26  1  0  0  0  0
 28 29  1  0  0  0  0
 29 30  1  0  0  0  0
 30 32  2  0  0  0  0
 30 31  1  0  0  0  0
 33 34  1  0  0  0  0
 33 32  1  0  0  0  0
 35 33  2  0  0  0  0
 36 35  1  0  0  0  0
 36 29  2  0  0  0  0
 38 37  1  0  0  0  0
 38 43  1  0  0  0  0
 39 38  2  0  0  0  0
 40 39  1  0  0  0  0
 40 41  2  0  0  0  0
 41 42  1  0  0  0  0
 42 43  2  0  0  0  0
 42 46  1  0  0  0  0
 43 47  1  0  0  0  0
 44 40  1  0  0  0  0
 45 41  1  0  0  0  0
 47 48  1  0  0  0  0
 47 49  1  0  0  0  0
M  END
>  <minimizedAffinity>
-6.80671501

$$$$

 OpenBabel03272506033D

 49 53  0  0  1  0  0  0  0  0999 V2000
   38.9990   25.4410   34.0710 C   0  0  2  0  0  0  0  0  0  0  0  0
   38.0250   26.5260   34.0750 C   0  0  0  0  0  0  0  0  0  0  0  0
   37.7060   27.0560   32.6430 C   0  0  2  0  0  0  0  0  0  0  0  0
   38.8660   27.5350   31.9320 C   0  0  0  0  0  0  0  0  0  0  0  0
   40.1230   26.6970   32.1720 C   0  0  0  0  0  0  0  0  0  0  0  0
   39.7760   25.3590   32.7530 C   0  0  0  0  0  0  0  0  0  0  0  0
   39.8150   25.6240   34.8330 H   0  0  0  0  0  0  0  0  0  0  0  0
   37.0780   26.4690   34.5550 H   0  0  0  0  0  0  0  0  0  0  0  0
   38.5320   27.4490   34.5250 H   0  0  0  0  0  0  0  0  0  0  0  0
   37.1670   26.2470   32.1150 H   0  0  0  0  0  0  0  0  0  0  0  0
   38.6300   27.6080   30.8490 H   0  0  0  0  0  0  0  0  0  0  0  0
   39.1480   28.5630   32.2320 H   0  0  0  0  0  0  0  0  0  0  0  0
   40.5560   26.4890   31.1710 H   0  0  0  0  0  0  0  0  0  0  0  0
   40.8890   27.2220   32.7500 H   0  0  0  0  0  0  0  0  0  0  0  0
   39.2030   24.7540   32.0330 H   0  0  0  0  0  0  0  0  0  0  0  0
   40.7110   24.8120   32.9540 H   0  0  0  0  0  0  0  0  0  0  0  0
   38.4820   24.1010   34.3360 C   0  0  0  0  0  0  0  0  0  0  0  0
   38.7750   23.6260   35.6050 C   0  0  0  0  0  0  0  0  0  0  0  0
   38.3090   22.3640   35.9710 C   0  0  0  0  0  0  0  0  0  0  0  0
   37.5670   21.6370   35.0340 N   0  0  0  0  0  0  0  0  0  0  0  0
   37.3110   22.1390   33.8200 C   0  0  0  0  0  0  0  0  0  0  0  0
   37.7740   23.3500   33.5100 N   0  0  0  0  0  0  0  0  0  0  0  0
   39.3010   23.9450   36.4930 H   0  0  0  0  0  0  0  0  0  0  0  0
   38.3930   21.7840   36.8600 H   0  0  0  0  0  0  0  0  0  0  0  0
   36.5580   21.4110   32.8590 N   0  0  0  0  0  0  0  0  0  0  0  0
   35.2250   21.2310   32.7060 C   0  0  0  0  0  0  0  0  0  0  0  0
   34.4930   21.6730   33.3760 H   0  0  0  0  0  0  0  0  0  0  0  0
   35.0290   20.4420   31.6190 N   0  0  0  0  0  0  0  0  0  0  0  0
   36.2240   20.1260   31.0900 C   0  0  0  0  0  0  0  0  0  0  0  0
   36.6670   19.3730   30.0040 C   0  0  0  0  0  0  0  0  0  0  0  0
   35.9410   18.8850   29.3760 H   0  0  0  0  0  0  0  0  0  0  0  0
   37.9760   19.2350   29.7140 N   0  0  0  0  0  0  0  0  0  0  0  0
   38.9080   19.8350   30.4850 C   0  0  0  0  0  0  0  0  0  0  0  0
   39.9760   19.7470   30.2830 H   0  0  0  0  0  0  0  0  0  0  0  0
   38.4850   20.5580   31.5250 N   0  0  0  0  0  0  0  0  0  0  0  0
   37.1820   20.7270   31.8570 C   0  0  0  0  0  0  0  0  0  0  0  0
   36.6270   28.4030   30.2470 Cl  0  0  0  0  0  0  0  0  0  0  0  0
   36.2000   28.8870   31.8690 C   0  0  0  0  0  0  0  0  0  0  0  0
   36.7240   28.1560   32.9040 C   0  0  0  0  0  0  0  0  0  0  0  0
   36.3050   28.5790   34.1490 C   0  0  0  0  0  0  0  0  0  0  0  0
   35.4400   29.6380   34.3430 C   0  0  0  0  0  0  0  0  0  0  0  0
   34.9490   30.3340   33.2360 C   0  0  0  0  0  0  0  0  0  0  0  0
   35.3470   29.9400   31.9590 C   0  0  0  0  0  0  0  0  0  0  0  0
   36.6780   28.0420   35.0170 H   0  0  0  0  0  0  0  0  0  0  0  0
   35.1510   29.9180   35.3410 H   0  0  0  0  0  0  0  0  0  0  0  0
   34.2700   31.1690   33.3410 H   0  0  0  0  0  0  0  0  0  0  0  0
   34.8520   30.6490   30.8350 N   0  0  0  0  0  0  0  0  0  0  0  0
   35.6630   30.9430   30.2210 H   0  0  0  0  0  0  0  0  0  0  0  0
   33.9110   30.9130   30.5250 H   0  0  0  0  0  0  0  0  0  0  0  0
  1  2  1  0  0  0  0
  1 17  1  0  0  0  0
  1  7  1  1  0  0  0
  2  9  1  0  0  0  0
  2  8  1  0  0  0  0
  3 10  1  6  0  0  0
  3 39  1  0  0  0  0
  3  2  1  0  0  0  0
  4  5  1  0  0  0  0
  4 12  1  0  0  0  0
  4  3  1  0  0  0  0
  5 14  1  0  0  0  0
  5  6  1  0  0  0  0
  6 16  1  0  0  0  0
  6  1  1  0  0  0  0
 11  4  1  0  0  0  0
 13  5  1  0  0  0  0
 15  6  1  0  0  0  0
 17 18  1  0  0  0  0
 18 19  2  0  0  0  0
 18 23  1  0  0  0  0
 19 24  1  0  0  0  0
 20 19  1  0  0  0  0
 21 20  2  0  0  0  0
 22 21  1  0  0  0  0
 22 17  2  0  0  0  0
 25 21  1  0  0  0  0
 26 25  1  0  0  0  0
 26 27  1  0  0  0  0
 28 26  2  0  0  0  0
 29 28  1  0  0  0  0
 29 36  1  0  0  0  0
 30 29  2  0  0  0  0
 31 30  1  0  0  0  0
 32 30  1  0  0  0  0
 32 33  2  0  0  0  0
 33 35  1  0  0  0  0
 34 33  1  0  0  0  0
 35 36  2  0  0  0  0
 36 25  1  0  0  0  0
 37 38  1  0  0  0  0
 38 43  2  0  0  0  0
 38 39  1  0  0  0  0
 39 40  2  0  0  0  0
 40 41  1  0  0  0  0
 40 44  1  0  0  0  0
 41 45  1  0  0  0  0
 42 46  1  0  0  0  0
 42 41  2  0  0  0  0
 43 42  1  0  0  0  0
 47 43  1  0  0  0  0
 48 47  1  0  0  0  0
 49 47  1  0  0  0  0
M  END
>  <minimizedAffinity>
-6.60085011

$$$$

 OpenBabel03272506033D

 49 53  0  0  1  0  0  0  0  0999 V2000
   36.5710   28.6910   33.3200 C   0  0  2  0  0  0  0  0  0  0  0  0
   35.7960   29.3940   34.3370 C   0  0  0  0  0  0  0  0  0  0  0  0
   34.2820   29.4920   33.9800 C   0  0  2  0  0  0  0  0  0  0  0  0
   34.0240   30.1540   32.7240 C   0  0  0  0  0  0  0  0  0  0  0  0
   35.0440   29.8190   31.6340 C   0  0  0  0  0  0  0  0  0  0  0  0
   35.8250   28.5890   31.9860 C   0  0  0  0  0  0  0  0  0  0  0  0
   37.5020   29.2710   33.0450 H   0  0  0  0  0  0  0  0  0  0  0  0
   35.8110   29.1420   35.3700 H   0  0  0  0  0  0  0  0  0  0  0  0
   36.0870   30.5000   34.2950 H   0  0  0  0  0  0  0  0  0  0  0  0
   33.8730   28.4660   34.0300 H   0  0  0  0  0  0  0  0  0  0  0  0
   32.9890   29.9270   32.3940 H   0  0  0  0  0  0  0  0  0  0  0  0
   34.0580   31.2580   32.8170 H   0  0  0  0  0  0  0  0  0  0  0  0
   34.4580   29.5570   30.7290 H   0  0  0  0  0  0  0  0  0  0  0  0
   35.6860   30.6650   31.3680 H   0  0  0  0  0  0  0  0  0  0  0  0
   35.1730   27.7010   32.0040 H   0  0  0  0  0  0  0  0  0  0  0  0
   36.5760   28.4150   31.2000 H   0  0  0  0  0  0  0  0  0  0  0  0
   37.0130   27.3410   33.6570 C   0  0  0  0  0  0  0  0  0  0  0  0
   37.3870   27.1850   34.9830 C   0  0  0  0  0  0  0  0  0  0  0  0
   37.8060   25.9290   35.4170 C   0  0  0  0  0  0  0  0  0  0  0  0
   37.8300   24.8830   34.4880 N   0  0  0  0  0  0  0  0  0  0  0  0
   37.4600   25.0830   33.2170 C   0  0  0  0  0  0  0  0  0  0  0  0
   37.0650   26.3010   32.8430 N   0  0  0  0  0  0  0  0  0  0  0  0
   37.4690   27.7800   35.8810 H   0  0  0  0  0  0  0  0  0  0  0  0
   38.1350   25.5540   36.3570 H   0  0  0  0  0  0  0  0  0  0  0  0
   37.4800   24.0300   32.2630 N   0  0  0  0  0  0  0  0  0  0  0  0
   36.6090   23.0230   32.0130 C   0  0  0  0  0  0  0  0  0  0  0  0
   35.6910   22.8890   32.5780 H   0  0  0  0  0  0  0  0  0  0  0  0
   37.1030   22.2850   30.9870 N   0  0  0  0  0  0  0  0  0  0  0  0
   38.2720   22.8180   30.5910 C   0  0  0  0  0  0  0  0  0  0  0  0
   39.2250   22.5230   29.6180 C   0  0  0  0  0  0  0  0  0  0  0  0
   39.0680   21.6730   28.9760 H   0  0  0  0  0  0  0  0  0  0  0  0
   40.3360   23.2670   29.4530 N   0  0  0  0  0  0  0  0  0  0  0  0
   40.5570   24.3380   30.2450 C   0  0  0  0  0  0  0  0  0  0  0  0
   41.4440   24.9650   30.1430 H   0  0  0  0  0  0  0  0  0  0  0  0
   39.6450   24.6230   31.1770 N   0  0  0  0  0  0  0  0  0  0  0  0
   38.5130   23.9060   31.3820 C   0  0  0  0  0  0  0  0  0  0  0  0
   31.5630   28.7090   34.8270 Cl  0  0  0  0  0  0  0  0  0  0  0  0
   32.4390   30.0180   35.5790 C   0  0  0  0  0  0  0  0  0  0  0  0
   33.7150   30.2590   35.1350 C   0  0  0  0  0  0  0  0  0  0  0  0
   34.3510   31.2820   35.8090 C   0  0  0  0  0  0  0  0  0  0  0  0
   33.7660   32.0010   36.8330 C   0  0  0  0  0  0  0  0  0  0  0  0
   32.4610   31.6950   37.2260 C   0  0  0  0  0  0  0  0  0  0  0  0
   31.7810   30.6670   36.5730 C   0  0  0  0  0  0  0  0  0  0  0  0
   35.3670   31.5260   35.5130 H   0  0  0  0  0  0  0  0  0  0  0  0
   34.3160   32.7880   37.3180 H   0  0  0  0  0  0  0  0  0  0  0  0
   31.9630   32.2310   38.0230 H   0  0  0  0  0  0  0  0  0  0  0  0
   30.4550   30.3580   36.9700 N   0  0  0  0  0  0  0  0  0  0  0  0
   29.8260   30.3520   36.1170 H   0  0  0  0  0  0  0  0  0  0  0  0
   30.0190   30.1520   37.8750 H   0  0  0  0  0  0  0  0  0  0  0  0
  1  7  1  6  0  0  0
  1 17  1  0  0  0  0
  1  2  1  0  0  0  0
  2  8  1  0  0  0  0
  3 10  1  6  0  0  0
  3  2  1  0  0  0  0
  3 39  1  0  0  0  0
  4 12  1  0  0  0  0
  4  3  1  0  0  0  0
  5  6  1  0  0  0  0
  5  4  1  0  0  0  0
  6 15  1  0  0  0  0
  6  1  1  0  0  0  0
  9  2  1  0  0  0  0
 11  4  1  0  0  0  0
 13  5  1  0  0  0  0
 14  5  1  0  0  0  0
 16  6  1  0  0  0  0
 17 18  1  0  0  0  0
 18 19  2  0  0  0  0
 18 23  1  0  0  0  0
 19 24  1  0  0  0  0
 20 19  1  0  0  0  0
 21 20  2  0  0  0  0
 22 21  1  0  0  0  0
 22 17  2  0  0  0  0
 25 21  1  0  0  0  0
 26 25  1  0  0  0  0
 26 27  1  0  0  0  0
 28 26  2  0  0  0  0
 29 28  1  0  0  0  0
 29 36  1  0  0  0  0
 30 29  2  0  0  0  0
 31 30  1  0  0  0  0
 32 30  1  0  0  0  0
 32 33  2  0  0  0  0
 33 35  1  0  0  0  0
 34 33  1  0  0  0  0
 35 36  2  0  0  0  0
 36 25  1  0  0  0  0
 37 38  1  0  0  0  0
 38 43  1  0  0  0  0
 39 38  2  0  0  0  0
 39 40  1  0  0  0  0
 40 41  2  0  0  0  0
 41 42  1  0  0  0  0
 41 45  1  0  0  0  0
 42 46  1  0  0  0  0
 43 47  1  0  0  0  0
 43 42  2  0  0  0  0
 44 40  1  0  0  0  0
 47 49  1  0  0  0  0
 48 47  1  0  0  0  0
M  END
>  <minimizedAffinity>
-6.5284462

$$$$

 OpenBabel03272506033D

 49 53  0  0  1  0  0  0  0  0999 V2000
   36.7820   27.7880   31.5390 C   0  0  2  0  0  0  0  0  0  0  0  0
   36.9560   27.0540   32.7870 C   0  0  0  0  0  0  0  0  0  0  0  0
   38.3900   27.2030   33.3800 C   0  0  2  0  0  0  0  0  0  0  0  0
   39.4340   26.7640   32.4860 C   0  0  0  0  0  0  0  0  0  0  0  0
   39.1750   27.1150   31.0200 C   0  0  0  0  0  0  0  0  0  0  0  0
   38.1190   28.1720   30.8980 C   0  0  0  0  0  0  0  0  0  0  0  0
   36.3020   27.1370   30.7480 H   0  0  0  0  0  0  0  0  0  0  0  0
   36.3100   27.1530   33.6260 H   0  0  0  0  0  0  0  0  0  0  0  0
   36.9530   25.9360   32.5390 H   0  0  0  0  0  0  0  0  0  0  0  0
   38.4970   28.2560   33.7000 H   0  0  0  0  0  0  0  0  0  0  0  0
   40.4090   27.1670   32.8320 H   0  0  0  0  0  0  0  0  0  0  0  0
   39.5610   25.6640   32.4970 H   0  0  0  0  0  0  0  0  0  0  0  0
   40.1100   27.5760   30.6390 H   0  0  0  0  0  0  0  0  0  0  0  0
   38.9700   26.2400   30.3950 H   0  0  0  0  0  0  0  0  0  0  0  0
   38.4650   29.1250   31.3290 H   0  0  0  0  0  0  0  0  0  0  0  0
   37.9320   28.3570   29.8280 H   0  0  0  0  0  0  0  0  0  0  0  0
   35.9830   29.0080   31.6060 C   0  0  0  0  0  0  0  0  0  0  0  0
   36.2640   29.9210   30.6020 C   0  0  0  0  0  0  0  0  0  0  0  0
   35.5430   31.1140   30.5600 C   0  0  0  0  0  0  0  0  0  0  0  0
   34.5680   31.3300   31.5390 N   0  0  0  0  0  0  0  0  0  0  0  0
   34.3340   30.4180   32.4900 C   0  0  0  0  0  0  0  0  0  0  0  0
   35.0450   29.2900   32.4940 N   0  0  0  0  0  0  0  0  0  0  0  0
   36.9290   30.0220   29.7550 H   0  0  0  0  0  0  0  0  0  0  0  0
   35.5640   31.9560   29.9110 H   0  0  0  0  0  0  0  0  0  0  0  0
   33.3460   30.6250   33.4910 N   0  0  0  0  0  0  0  0  0  0  0  0
   32.0000   30.4750   33.4750 C   0  0  0  0  0  0  0  0  0  0  0  0
   31.4590   30.1400   32.5950 H   0  0  0  0  0  0  0  0  0  0  0  0
   31.5250   30.8080   34.7010 N   0  0  0  0  0  0  0  0  0  0  0  0
   32.5570   31.1650   35.4860 C   0  0  0  0  0  0  0  0  0  0  0  0
   32.7080   31.5940   36.8030 C   0  0  0  0  0  0  0  0  0  0  0  0
   31.8330   31.6940   37.4230 H   0  0  0  0  0  0  0  0  0  0  0  0
   33.9140   31.8880   37.3270 N   0  0  0  0  0  0  0  0  0  0  0  0
   35.0270   31.7720   36.5720 C   0  0  0  0  0  0  0  0  0  0  0  0
   36.0210   32.0010   36.9610 H   0  0  0  0  0  0  0  0  0  0  0  0
   34.8850   31.3610   35.3110 N   0  0  0  0  0  0  0  0  0  0  0  0
   33.6960   31.0530   34.7380 C   0  0  0  0  0  0  0  0  0  0  0  0
   38.2630   24.2860   32.9390 Cl  0  0  0  0  0  0  0  0  0  0  0  0
   38.2150   24.9970   34.5320 C   0  0  0  0  0  0  0  0  0  0  0  0
   38.3310   26.3610   34.6170 C   0  0  0  0  0  0  0  0  0  0  0  0
   38.3250   26.8380   35.9130 C   0  0  0  0  0  0  0  0  0  0  0  0
   38.2120   26.0250   37.0230 C   0  0  0  0  0  0  0  0  0  0  0  0
   38.0960   24.6440   36.8530 C   0  0  0  0  0  0  0  0  0  0  0  0
   38.0990   24.1190   35.5600 C   0  0  0  0  0  0  0  0  0  0  0  0
   38.4180   27.9110   36.0560 H   0  0  0  0  0  0  0  0  0  0  0  0
   38.2130   26.4600   38.0080 H   0  0  0  0  0  0  0  0  0  0  0  0
   38.0050   23.9700   37.6940 H   0  0  0  0  0  0  0  0  0  0  0  0
   37.9780   22.7160   35.3880 N   0  0  0  0  0  0  0  0  0  0  0  0
   37.1960   22.5140   34.7010 H   0  0  0  0  0  0  0  0  0  0  0  0
   38.4770   21.9110   35.7790 H   0  0  0  0  0  0  0  0  0  0  0  0
  1  7  1  6  0  0  0
  1 17  1  0  0  0  0
  1  2  1  0  0  0  0
  2  3  1  0  0  0  0
  2  8  1  0  0  0  0
  3 10  1  1  0  0  0
  3 39  1  0  0  0  0
  4 12  1  0  0  0  0
  4 11  1  0  0  0  0
  4  3  1  0  0  0  0
  5  4  1  0  0  0  0
  6  5  1  0  0  0  0
  6 15  1  0  0  0  0
  6  1  1  0  0  0  0
  9  2  1  0  0  0  0
 13  5  1  0  0  0  0
 14  5  1  0  0  0  0
 16  6  1  0  0  0  0
 17 22  1  0  0  0  0
 18 17  2  0  0  0  0
 19 18  1  0  0  0  0
 19 20  2  0  0  0  0
 20 21  1  0  0  0  0
 21 22  2  0  0  0  0
 21 25  1  0  0  0  0
 23 18  1  0  0  0  0
 24 19  1  0  0  0  0
 25 36  1  0  0  0  0
 26 25  1  0  0  0  0
 26 28  2  0  0  0  0
 27 26  1  0  0  0  0
 28 29  1  0  0  0  0
 29 30  1  0  0  0  0
 30 32  2  0  0  0  0
 30 31  1  0  0  0  0
 33 34  1  0  0  0  0
 33 32  1  0  0  0  0
 35 33  2  0  0  0  0
 36 35  1  0  0  0  0
 36 29  2  0  0  0  0
 37 38  1  0  0  0  0
 38 39  2  0  0  0  0
 38 43  1  0  0  0  0
 39 40  1  0  0  0  0
 40 44  1  0  0  0  0
 40 41  2  0  0  0  0
 41 45  1  0  0  0  0
 42 41  1  0  0  0  0
 42 46  1  0  0  0  0
 43 42  2  0  0  0  0
 47 43  1  0  0  0  0
 47 49  1  0  0  0  0
 48 47  1  0  0  0  0
M  END
>  <minimizedAffinity>
-6.49231434

$$$$

 OpenBabel03272506033D

 49 53  0  0  1  0  0  0  0  0999 V2000
   38.1360   26.0990   33.1340 C   0  0  2  0  0  0  0  0  0  0  0  0
   39.2270   25.3500   33.7470 C   0  0  0  0  0  0  0  0  0  0  0  0
   39.0180   25.1230   35.2750 C   0  0  2  0  0  0  0  0  0  0  0  0
   38.8730   26.3450   36.0280 C   0  0  0  0  0  0  0  0  0  0  0  0
   38.0660   27.4220   35.3010 C   0  0  0  0  0  0  0  0  0  0  0  0
   37.2780   26.8320   34.1700 C   0  0  0  0  0  0  0  0  0  0  0  0
   38.5320   26.9430   32.4930 H   0  0  0  0  0  0  0  0  0  0  0  0
   39.5790   24.4150   33.3840 H   0  0  0  0  0  0  0  0  0  0  0  0
   40.1490   26.0290   33.7670 H   0  0  0  0  0  0  0  0  0  0  0  0
   38.1600   24.4330   35.3830 H   0  0  0  0  0  0  0  0  0  0  0  0
   38.4370   26.1150   37.0230 H   0  0  0  0  0  0  0  0  0  0  0  0
   39.8490   26.8210   36.2490 H   0  0  0  0  0  0  0  0  0  0  0  0
   37.3170   27.7950   36.0290 H   0  0  0  0  0  0  0  0  0  0  0  0
   38.6700   28.2800   34.9920 H   0  0  0  0  0  0  0  0  0  0  0  0
   36.5030   26.1460   34.5470 H   0  0  0  0  0  0  0  0  0  0  0  0
   36.7530   27.6480   33.6480 H   0  0  0  0  0  0  0  0  0  0  0  0
   37.2180   25.3390   32.2910 C   0  0  0  0  0  0  0  0  0  0  0  0
   36.1790   26.0930   31.7670 C   0  0  0  0  0  0  0  0  0  0  0  0
   35.2550   25.4700   30.9300 C   0  0  0  0  0  0  0  0  0  0  0  0
   35.4220   24.1080   30.6600 N   0  0  0  0  0  0  0  0  0  0  0  0
   36.4420   23.4220   31.1910 C   0  0  0  0  0  0  0  0  0  0  0  0
   37.3040   24.0560   31.9860 N   0  0  0  0  0  0  0  0  0  0  0  0
   35.8130   27.1100   31.8010 H   0  0  0  0  0  0  0  0  0  0  0  0
   34.3910   25.8140   30.4130 H   0  0  0  0  0  0  0  0  0  0  0  0
   36.6240   22.0370   30.9250 N   0  0  0  0  0  0  0  0  0  0  0  0
   37.1640   21.3850   29.8680 C   0  0  0  0  0  0  0  0  0  0  0  0
   37.5670   21.9050   29.0030 H   0  0  0  0  0  0  0  0  0  0  0  0
   37.0940   20.0530   30.1150 N   0  0  0  0  0  0  0  0  0  0  0  0
   36.5160   19.8630   31.3140 C   0  0  0  0  0  0  0  0  0  0  0  0
   36.1770   18.7590   32.0940 C   0  0  0  0  0  0  0  0  0  0  0  0
   36.3950   17.7720   31.7240 H   0  0  0  0  0  0  0  0  0  0  0  0
   35.5850   18.8870   33.2980 N   0  0  0  0  0  0  0  0  0  0  0  0
   35.3010   20.1130   33.7860 C   0  0  0  0  0  0  0  0  0  0  0  0
   34.8220   20.2580   34.7560 H   0  0  0  0  0  0  0  0  0  0  0  0
   35.6250   21.1720   33.0400 N   0  0  0  0  0  0  0  0  0  0  0  0
   36.2210   21.0950   31.8250 C   0  0  0  0  0  0  0  0  0  0  0  0
   38.5780   22.7430   36.9680 Cl  0  0  0  0  0  0  0  0  0  0  0  0
   40.1710   23.2820   36.5040 C   0  0  0  0  0  0  0  0  0  0  0  0
   40.2510   24.3710   35.6740 C   0  0  0  0  0  0  0  0  0  0  0  0
   41.5440   24.7070   35.3230 C   0  0  0  0  0  0  0  0  0  0  0  0
   42.6560   24.0160   35.7620 C   0  0  0  0  0  0  0  0  0  0  0  0
   42.4910   22.9170   36.6080 C   0  0  0  0  0  0  0  0  0  0  0  0
   41.2020   22.5420   36.9860 C   0  0  0  0  0  0  0  0  0  0  0  0
   41.6830   25.5590   34.6640 H   0  0  0  0  0  0  0  0  0  0  0  0
   43.6380   24.3290   35.4520 H   0  0  0  0  0  0  0  0  0  0  0  0
   43.3340   22.3470   36.9750 H   0  0  0  0  0  0  0  0  0  0  0  0
   41.0350   21.4280   37.8480 N   0  0  0  0  0  0  0  0  0  0  0  0
   40.4260   21.7080   38.6680 H   0  0  0  0  0  0  0  0  0  0  0  0
   41.3720   20.4600   37.8230 H   0  0  0  0  0  0  0  0  0  0  0  0
  1  7  1  6  0  0  0
  1  2  1  0  0  0  0
  1  6  1  0  0  0  0
  2  9  1  0  0  0  0
  2  3  1  0  0  0  0
  3 10  1  1  0  0  0
  3 39  1  0  0  0  0
  3  4  1  0  0  0  0
  4 12  1  0  0  0  0
  4 11  1  0  0  0  0
  5  4  1  0  0  0  0
  5 13  1  0  0  0  0
  6 15  1  0  0  0  0
  6  5  1  0  0  0  0
  8  2  1  0  0  0  0
 14  5  1  0  0  0  0
 16  6  1  0  0  0  0
 17  1  1  0  0  0  0
 18 23  1  0  0  0  0
 18 17  2  0  0  0  0
 19 18  1  0  0  0  0
 20 19  2  0  0  0  0
 20 21  1  0  0  0  0
 21 22  2  0  0  0  0
 22 17  1  0  0  0  0
 24 19  1  0  0  0  0
 25 21  1  0  0  0  0
 25 36  1  0  0  0  0
 26 28  2  0  0  0  0
 26 25  1  0  0  0  0
 27 26  1  0  0  0  0
 28 29  1  0  0  0  0
 29 36  2  0  0  0  0
 29 30  1  0  0  0  0
 30 32  2  0  0  0  0
 31 30  1  0  0  0  0
 32 33  1  0  0  0  0
 33 34  1  0  0  0  0
 35 33  2  0  0  0  0
 36 35  1  0  0  0  0
 38 37  1  0  0  0  0
 38 43  1  0  0  0  0
 39 38  2  0  0  0  0
 40 39  1  0  0  0  0
 40 41  2  0  0  0  0
 41 42  1  0  0  0  0
 42 46  1  0  0  0  0
 42 43  2  0  0  0  0
 43 47  1  0  0  0  0
 44 40  1  0  0  0  0
 45 41  1  0  0  0  0
 47 48  1  0  0  0  0
 49 47  1  0  0  0  0
M  END
>  <minimizedAffinity>
-6.48053646

$$$$

 OpenBabel03272506033D

 49 53  0  0  1  0  0  0  0  0999 V2000
   38.9050   25.7220   34.8720 C   0  0  2  0  0  0  0  0  0  0  0  0
   38.2320   26.5280   33.8600 C   0  0  0  0  0  0  0  0  0  0  0  0
   39.0930   26.7270   32.5760 C   0  0  2  0  0  0  0  0  0  0  0  0
   40.3710   27.3480   32.8260 C   0  0  0  0  0  0  0  0  0  0  0  0
   41.0350   26.8860   34.1250 C   0  0  0  0  0  0  0  0  0  0  0  0
   40.4130   25.6160   34.6250 C   0  0  0  0  0  0  0  0  0  0  0  0
   38.8500   26.2160   35.8880 H   0  0  0  0  0  0  0  0  0  0  0  0
   37.2540   26.3240   33.4960 H   0  0  0  0  0  0  0  0  0  0  0  0
   38.1880   27.6060   34.2440 H   0  0  0  0  0  0  0  0  0  0  0  0
   39.1710   25.7380   32.0860 H   0  0  0  0  0  0  0  0  0  0  0  0
   41.0370   27.1860   31.9520 H   0  0  0  0  0  0  0  0  0  0  0  0
   40.2910   28.4490   32.9230 H   0  0  0  0  0  0  0  0  0  0  0  0
   42.0820   26.6280   33.8660 H   0  0  0  0  0  0  0  0  0  0  0  0
   41.0750   27.6660   34.8910 H   0  0  0  0  0  0  0  0  0  0  0  0
   40.6080   24.7840   33.9310 H   0  0  0  0  0  0  0  0  0  0  0  0
   40.8870   25.3500   35.5830 H   0  0  0  0  0  0  0  0  0  0  0  0
   38.4130   24.3590   35.0510 C   0  0  0  0  0  0  0  0  0  0  0  0
   38.3500   23.9520   36.3750 C   0  0  0  0  0  0  0  0  0  0  0  0
   37.8740   22.6740   36.6610 C   0  0  0  0  0  0  0  0  0  0  0  0
   37.4830   21.8610   35.5920 N   0  0  0  0  0  0  0  0  0  0  0  0
   37.5630   22.2980   34.3290 C   0  0  0  0  0  0  0  0  0  0  0  0
   38.0240   23.5280   34.0990 N   0  0  0  0  0  0  0  0  0  0  0  0
   38.5740   24.3420   37.3580 H   0  0  0  0  0  0  0  0  0  0  0  0
   37.7290   22.1350   37.5670 H   0  0  0  0  0  0  0  0  0  0  0  0
   37.1690   21.4820   33.2340 N   0  0  0  0  0  0  0  0  0  0  0  0
   35.9520   21.2000   32.7120 C   0  0  0  0  0  0  0  0  0  0  0  0
   35.0310   21.6110   33.1160 H   0  0  0  0  0  0  0  0  0  0  0  0
   36.1300   20.3600   31.6610 N   0  0  0  0  0  0  0  0  0  0  0  0
   37.4440   20.1140   31.5190 C   0  0  0  0  0  0  0  0  0  0  0  0
   38.2290   19.3560   30.6520 C   0  0  0  0  0  0  0  0  0  0  0  0
   37.7480   18.7940   29.8690 H   0  0  0  0  0  0  0  0  0  0  0  0
   39.5710   19.3030   30.7610 N   0  0  0  0  0  0  0  0  0  0  0  0
   40.1990   19.9980   31.7330 C   0  0  0  0  0  0  0  0  0  0  0  0
   41.2830   19.9810   31.8540 H   0  0  0  0  0  0  0  0  0  0  0  0
   39.4490   20.7250   32.5640 N   0  0  0  0  0  0  0  0  0  0  0  0
   38.0980   20.8100   32.4950 C   0  0  0  0  0  0  0  0  0  0  0  0
   39.5720   26.5360   29.6680 Cl  0  0  0  0  0  0  0  0  0  0  0  0
   38.3900   27.6200   30.3550 C   0  0  0  0  0  0  0  0  0  0  0  0
   38.2200   27.5870   31.7160 C   0  0  0  0  0  0  0  0  0  0  0  0
   37.2380   28.4440   32.1730 C   0  0  0  0  0  0  0  0  0  0  0  0
   36.4950   29.2620   31.3450 C   0  0  0  0  0  0  0  0  0  0  0  0
   36.7300   29.2390   29.9680 C   0  0  0  0  0  0  0  0  0  0  0  0
   37.7120   28.3870   29.4630 C   0  0  0  0  0  0  0  0  0  0  0  0
   37.0460   28.4670   33.2410 H   0  0  0  0  0  0  0  0  0  0  0  0
   35.7440   29.9090   31.7640 H   0  0  0  0  0  0  0  0  0  0  0  0
   36.1720   29.8630   29.2830 H   0  0  0  0  0  0  0  0  0  0  0  0
   37.9520   28.3660   28.0650 N   0  0  0  0  0  0  0  0  0  0  0  0
   38.9870   28.5020   27.8860 H   0  0  0  0  0  0  0  0  0  0  0  0
   37.3460   28.2500   27.2470 H   0  0  0  0  0  0  0  0  0  0  0  0
  1 17  1  0  0  0  0
  1  7  1  1  0  0  0
  2  9  1  0  0  0  0
  2  1  1  0  0  0  0
  3 10  1  6  0  0  0
  3  4  1  0  0  0  0
  3  2  1  0  0  0  0
  4 12  1  0  0  0  0
  4  5  1  0  0  0  0
  5  6  1  0  0  0  0
  5 14  1  0  0  0  0
  6  1  1  0  0  0  0
  6 16  1  0  0  0  0
  8  2  1  0  0  0  0
 11  4  1  0  0  0  0
 13  5  1  0  0  0  0
 15  6  1  0  0  0  0
 17 18  1  0  0  0  0
 18 19  2  0  0  0  0
 18 23  1  0  0  0  0
 19 24  1  0  0  0  0
 20 19  1  0  0  0  0
 21 20  2  0  0  0  0
 22 21  1  0  0  0  0
 22 17  2  0  0  0  0
 25 21  1  0  0  0  0
 26 27  1  0  0  0  0
 26 25  1  0  0  0  0
 28 26  2  0  0  0  0
 29 28  1  0  0  0  0
 29 36  1  0  0  0  0
 30 32  1  0  0  0  0
 30 29  2  0  0  0  0
 31 30  1  0  0  0  0
 32 33  2  0  0  0  0
 33 34  1  0  0  0  0
 33 35  1  0  0  0  0
 36 35  2  0  0  0  0
 36 25  1  0  0  0  0
 37 38  1  0  0  0  0
 38 39  1  0  0  0  0
 39 40  2  0  0  0  0
 39  3  1  0  0  0  0
 40 44  1  0  0  0  0
 41 45  1  0  0  0  0
 41 40  1  0  0  0  0
 42 41  2  0  0  0  0
 43 42  1  0  0  0  0
 43 38  2  0  0  0  0
 46 42  1  0  0  0  0
 47 43  1  0  0  0  0
 48 47  1  0  0  0  0
 49 47  1  0  0  0  0
M  END
>  <minimizedAffinity>
-6.42996359

$$$$
