
 OpenBabel03272505223D

 31 34  0  0  0  0  0  0  0  0999 V2000
   38.1790   31.1240   47.2340 Br  0  0  0  0  0  0  0  0  0  0  0  0
   36.5950   30.4800   46.3570 C   0  0  0  0  0  0  0  0  0  0  0  0
   35.5890   29.8860   47.0950 C   0  0  0  0  0  0  0  0  0  0  0  0
   34.4810   29.4460   46.4200 C   0  0  0  0  0  0  0  0  0  0  0  0
   34.3820   29.5930   45.0510 C   0  0  0  0  0  0  0  0  0  0  0  0
   35.4010   30.1950   44.3000 C   0  0  0  0  0  0  0  0  0  0  0  0
   36.5150   30.6370   44.9880 C   0  0  0  0  0  0  0  0  0  0  0  0
   33.6920   28.9800   47.0010 H   0  0  0  0  0  0  0  0  0  0  0  0
   33.4990   29.2390   44.5330 H   0  0  0  0  0  0  0  0  0  0  0  0
   35.3310   30.3140   43.2260 H   0  0  0  0  0  0  0  0  0  0  0  0
   37.6020   31.2660   44.2800 N   0  0  0  0  0  0  0  0  0  0  0  0
   38.9080   31.0650   44.4930 C   0  0  0  0  0  0  0  0  0  0  0  0
   39.3160   30.3920   45.2370 H   0  0  0  0  0  0  0  0  0  0  0  0
   39.6010   31.8480   43.6180 N   0  0  0  0  0  0  0  0  0  0  0  0
   38.6990   32.5050   42.8960 C   0  0  0  0  0  0  0  0  0  0  0  0
   38.8520   33.4350   41.8610 C   0  0  0  0  0  0  0  0  0  0  0  0
   39.8210   33.7570   41.4970 H   0  0  0  0  0  0  0  0  0  0  0  0
   37.7370   33.9410   41.3070 N   0  0  0  0  0  0  0  0  0  0  0  0
   36.5000   33.6090   41.6860 C   0  0  0  0  0  0  0  0  0  0  0  0
   35.5800   33.9890   41.2710 H   0  0  0  0  0  0  0  0  0  0  0  0
   36.3390   32.7150   42.6800 N   0  0  0  0  0  0  0  0  0  0  0  0
   37.4140   32.1590   43.2900 C   0  0  0  0  0  0  0  0  0  0  0  0
   37.2370   29.5220   50.4910 C   0  0  0  0  0  0  0  0  0  0  0  0
   37.0600   29.6240   49.1050 C   0  0  0  0  0  0  0  0  0  0  0  0
   35.7910   29.7770   48.5430 C   0  0  0  0  0  0  0  0  0  0  0  0
   34.7630   29.8170   49.4190 N   0  0  0  0  0  0  0  0  0  0  0  0
   34.9440   29.7170   50.7510 C   0  0  0  0  0  0  0  0  0  0  0  0
   36.1600   29.5710   51.2790 N   0  0  0  0  0  0  0  0  0  0  0  0
   38.2760   29.4100   50.7250 H   0  0  0  0  0  0  0  0  0  0  0  0
   37.8620   29.5970   48.3580 H   0  0  0  0  0  0  0  0  0  0  0  0
   34.0610   29.7580   51.3900 H   0  0  0  0  0  0  0  0  0  0  0  0
  2  3  1  0  0  0  0
  2  1  1  0  0  0  0
  3 25  1  0  0  0  0
  4  8  1  0  0  0  0
  4  3  2  0  0  0  0
  5  4  1  0  0  0  0
  6  7  1  0  0  0  0
  6  5  2  0  0  0  0
  7  2  2  0  0  0  0
  9  5  1  0  0  0  0
 10  6  1  0  0  0  0
 11 12  1  0  0  0  0
 11  7  1  0  0  0  0
 12 13  1  0  0  0  0
 14 12  2  0  0  0  0
 15 22  1  0  0  0  0
 15 14  1  0  0  0  0
 16 15  2  0  0  0  0
 17 16  1  0  0  0  0
 18 19  2  0  0  0  0
 18 16  1  0  0  0  0
 19 21  1  0  0  0  0
 20 19  1  0  0  0  0
 21 22  2  0  0  0  0
 22 11  1  0  0  0  0
 23 29  1  0  0  0  0
 23 28  1  0  0  0  0
 24 23  2  0  0  0  0
 25 24  1  0  0  0  0
 25 26  2  0  0  0  0
 26 27  1  0  0  0  0
 27 28  2  0  0  0  0
 27 31  1  0  0  0  0
 30 24  1  0  0  0  0
M  END
>  <minimizedAffinity>
-5.18257618

>  <minimizedRMSD>
5.37242413

$$$$
