
 OpenBabel03272505533D

 47 51  0  0  1  0  0  0  0  0999 V2000
   37.6890   25.8120   34.0500 N   0  0  2  0  0  0  0  0  0  0  0  0
   37.2510   27.2050   33.9400 C   0  0  0  0  0  0  0  0  0  0  0  0
   37.6180   27.8840   35.2390 C   0  0  0  0  0  0  0  0  0  0  0  0
   38.1490   26.7810   36.0740 C   0  0  0  0  0  0  0  0  0  0  0  0
   38.7020   25.7810   35.0440 C   0  0  1  0  0  0  0  0  0  0  0  0
   36.2080   27.3130   33.6440 H   0  0  0  0  0  0  0  0  0  0  0  0
   37.9340   27.6500   33.1590 H   0  0  0  0  0  0  0  0  0  0  0  0
   38.3110   28.7380   35.1130 H   0  0  0  0  0  0  0  0  0  0  0  0
   36.6650   28.2480   35.6820 H   0  0  0  0  0  0  0  0  0  0  0  0
   38.9540   27.2010   36.7150 H   0  0  0  0  0  0  0  0  0  0  0  0
   37.4280   26.3160   36.7460 H   0  0  0  0  0  0  0  0  0  0  0  0
   39.6550   26.2520   34.8250 H   0  0  0  0  0  0  0  0  0  0  0  0
   37.0240   28.7210   29.6020 C   0  0  0  0  0  0  0  0  0  0  0  0
   38.3590   28.9270   29.2210 C   0  0  0  0  0  0  0  0  0  0  0  0
   39.3030   28.0450   29.7360 C   0  0  0  0  0  0  0  0  0  0  0  0
   38.8770   27.0540   30.5650 N   0  0  0  0  0  0  0  0  0  0  0  0
   37.5990   26.9010   30.8970 C   0  0  0  0  0  0  0  0  0  0  0  0
   36.6710   27.7300   30.4200 N   0  0  0  0  0  0  0  0  0  0  0  0
   37.2240   25.8450   31.7650 N   0  0  0  0  0  0  0  0  0  0  0  0
   35.8980   25.2380   31.7050 C   0  0  0  0  0  0  0  0  0  0  0  0
   36.0240   23.7600   31.5420 C   0  0  0  0  0  0  0  0  0  0  0  0
   37.2510   23.2040   31.8170 N   0  0  0  0  0  0  0  0  0  0  0  0
   38.2110   23.8650   32.6670 C   0  0  0  0  0  0  0  0  0  0  0  0
   38.1360   25.3090   32.7600 C   0  0  2  0  0  0  0  0  0  0  0  0
   36.3530   29.4420   29.1640 H   0  0  0  0  0  0  0  0  0  0  0  0
   38.7640   29.6730   28.5810 H   0  0  0  0  0  0  0  0  0  0  0  0
   40.3590   28.0980   29.5160 H   0  0  0  0  0  0  0  0  0  0  0  0
   35.2640   25.5850   32.5190 H   0  0  0  0  0  0  0  0  0  0  0  0
   35.4080   25.6620   30.7730 H   0  0  0  0  0  0  0  0  0  0  0  0
   35.6930   23.4530   30.5290 H   0  0  0  0  0  0  0  0  0  0  0  0
   35.2480   23.3060   32.2240 H   0  0  0  0  0  0  0  0  0  0  0  0
   37.5950   22.3960   31.2940 H   0  0  0  0  0  0  0  0  0  0  0  0
   38.3100   23.2220   33.5260 H   0  0  0  0  0  0  0  0  0  0  0  0
   39.1890   23.6380   32.1100 H   0  0  0  0  0  0  0  0  0  0  0  0
   39.1330   25.8120   32.5710 H   0  0  0  0  0  0  0  0  0  0  0  0
   38.7990   24.5680   35.8300 N   0  0  0  0  0  0  0  0  0  0  0  0
   37.8780   23.8270   36.5210 C   0  0  0  0  0  0  0  0  0  0  0  0
   36.8320   24.1650   36.5280 H   0  0  0  0  0  0  0  0  0  0  0  0
   38.4770   22.7640   37.0900 N   0  0  0  0  0  0  0  0  0  0  0  0
   39.7990   22.8000   36.7760 C   0  0  0  0  0  0  0  0  0  0  0  0
   40.7510   21.8840   37.1690 C   0  0  0  0  0  0  0  0  0  0  0  0
   40.5050   21.0300   37.7860 H   0  0  0  0  0  0  0  0  0  0  0  0
   42.0070   22.1290   36.7330 N   0  0  0  0  0  0  0  0  0  0  0  0
   42.2440   23.2110   35.9690 C   0  0  0  0  0  0  0  0  0  0  0  0
   43.2690   23.4000   35.6190 H   0  0  0  0  0  0  0  0  0  0  0  0
   41.2700   24.0620   35.6220 N   0  0  0  0  0  0  0  0  0  0  0  0
   39.9920   23.9220   35.9950 C   0  0  0  0  0  0  0  0  0  0  0  0
  1  2  1  6  0  0  0
  1  5  1  0  0  0  0
  2  3  1  0  0  0  0
  3  9  1  0  0  0  0
  3  4  1  0  0  0  0
  4 10  1  0  0  0  0
  4 11  1  0  0  0  0
  5 12  1  6  0  0  0
  5 36  1  0  0  0  0
  5  4  1  0  0  0  0
  6  2  1  0  0  0  0
  7  2  1  0  0  0  0
  8  3  1  0  0  0  0
 13 18  1  0  0  0  0
 14 13  2  0  0  0  0
 14 15  1  0  0  0  0
 15 16  2  0  0  0  0
 16 17  1  0  0  0  0
 17 19  1  0  0  0  0
 18 17  2  0  0  0  0
 19 24  1  0  0  0  0
 20 19  1  0  0  0  0
 20 28  1  0  0  0  0
 21 20  1  0  0  0  0
 21 22  1  0  0  0  0
 21 31  1  0  0  0  0
 22 23  1  0  0  0  0
 23 24  1  0  0  0  0
 23 33  1  0  0  0  0
 24 35  1  6  0  0  0
 24  1  1  0  0  0  0
 25 13  1  0  0  0  0
 26 14  1  0  0  0  0
 27 15  1  0  0  0  0
 29 20  1  0  0  0  0
 30 21  1  0  0  0  0
 32 22  1  0  0  0  0
 34 23  1  0  0  0  0
 36 47  1  0  0  0  0
 36 37  1  0  0  0  0
 37 38  1  0  0  0  0
 37 39  2  0  0  0  0
 40 39  1  0  0  0  0
 40 41  1  0  0  0  0
 41 42  1  0  0  0  0
 43 41  2  0  0  0  0
 44 43  1  0  0  0  0
 45 44  1  0  0  0  0
 46 44  2  0  0  0  0
 46 47  1  0  0  0  0
 47 40  2  0  0  0  0
M  END
>  <minimizedAffinity>
-6.0424571

$$$$

 OpenBabel03272505533D

 47 51  0  0  1  0  0  0  0  0999 V2000
   38.2560   25.9840   33.5830 N   0  0  2  0  0  0  0  0  0  0  0  0
   37.1270   26.8720   33.8680 C   0  0  0  0  0  0  0  0  0  0  0  0
   37.4980   27.6730   35.0940 C   0  0  0  0  0  0  0  0  0  0  0  0
   38.7970   27.0940   35.5120 C   0  0  0  0  0  0  0  0  0  0  0  0
   39.3960   26.5640   34.1980 C   0  0  1  0  0  0  0  0  0  0  0  0
   36.1700   26.3570   33.9290 H   0  0  0  0  0  0  0  0  0  0  0  0
   37.1290   27.6080   33.0110 H   0  0  0  0  0  0  0  0  0  0  0  0
   37.5180   28.7660   34.9220 H   0  0  0  0  0  0  0  0  0  0  0  0
   36.7320   27.4370   35.8650 H   0  0  0  0  0  0  0  0  0  0  0  0
   39.4090   27.9150   35.9440 H   0  0  0  0  0  0  0  0  0  0  0  0
   38.7380   26.3170   36.2750 H   0  0  0  0  0  0  0  0  0  0  0  0
   39.7890   27.4890   33.7890 H   0  0  0  0  0  0  0  0  0  0  0  0
   36.5420   29.7010   30.1280 C   0  0  0  0  0  0  0  0  0  0  0  0
   37.7520   30.0750   29.5240 C   0  0  0  0  0  0  0  0  0  0  0  0
   38.8070   29.1740   29.6180 C   0  0  0  0  0  0  0  0  0  0  0  0
   38.6010   28.0050   30.2820 N   0  0  0  0  0  0  0  0  0  0  0  0
   37.4340   27.6960   30.8400 C   0  0  0  0  0  0  0  0  0  0  0  0
   36.4040   28.5380   30.7660 N   0  0  0  0  0  0  0  0  0  0  0  0
   37.2880   26.4580   31.5150 N   0  0  0  0  0  0  0  0  0  0  0  0
   35.9970   25.7850   31.6100 C   0  0  0  0  0  0  0  0  0  0  0  0
   36.1160   24.3860   31.1040 C   0  0  0  0  0  0  0  0  0  0  0  0
   37.3860   23.8740   30.9810 N   0  0  0  0  0  0  0  0  0  0  0  0
   38.4970   24.4100   31.7290 C   0  0  0  0  0  0  0  0  0  0  0  0
   38.4120   25.7930   32.1500 C   0  0  2  0  0  0  0  0  0  0  0  0
   35.7730   30.4470   30.0130 H   0  0  0  0  0  0  0  0  0  0  0  0
   37.9860   30.9650   28.9910 H   0  0  0  0  0  0  0  0  0  0  0  0
   39.7850   29.3470   29.1950 H   0  0  0  0  0  0  0  0  0  0  0  0
   35.5540   25.9090   32.5960 H   0  0  0  0  0  0  0  0  0  0  0  0
   35.3010   26.3580   30.9200 H   0  0  0  0  0  0  0  0  0  0  0  0
   35.5730   24.2750   30.1440 H   0  0  0  0  0  0  0  0  0  0  0  0
   35.5250   23.7460   31.8200 H   0  0  0  0  0  0  0  0  0  0  0  0
   37.6220   23.2190   30.2320 H   0  0  0  0  0  0  0  0  0  0  0  0
   38.8020   23.6110   32.3840 H   0  0  0  0  0  0  0  0  0  0  0  0
   39.3300   24.3730   30.9390 H   0  0  0  0  0  0  0  0  0  0  0  0
   39.3300   26.3940   31.8650 H   0  0  0  0  0  0  0  0  0  0  0  0
   40.4060   25.6450   34.6830 N   0  0  0  0  0  0  0  0  0  0  0  0
   41.7740   25.6920   34.7160 C   0  0  0  0  0  0  0  0  0  0  0  0
   42.2770   26.5790   34.3030 H   0  0  0  0  0  0  0  0  0  0  0  0
   42.2590   24.5730   35.2840 N   0  0  0  0  0  0  0  0  0  0  0  0
   41.2110   23.7800   35.6290 C   0  0  0  0  0  0  0  0  0  0  0  0
   41.2930   22.5460   36.2380 C   0  0  0  0  0  0  0  0  0  0  0  0
   42.2420   22.0970   36.4970 H   0  0  0  0  0  0  0  0  0  0  0  0
   40.1090   21.9400   36.4840 N   0  0  0  0  0  0  0  0  0  0  0  0
   38.9650   22.5550   36.1350 C   0  0  0  0  0  0  0  0  0  0  0  0
   38.0080   22.0530   36.3410 H   0  0  0  0  0  0  0  0  0  0  0  0
   38.9570   23.7580   35.5460 N   0  0  0  0  0  0  0  0  0  0  0  0
   40.0640   24.4500   35.2530 C   0  0  0  0  0  0  0  0  0  0  0  0
  1  2  1  6  0  0  0
  1  5  1  0  0  0  0
  2  6  1  0  0  0  0
  2  3  1  0  0  0  0
  3  4  1  0  0  0  0
  3  9  1  0  0  0  0
  4 10  1  0  0  0  0
  4 11  1  0  0  0  0
  5 12  1  6  0  0  0
  5 36  1  0  0  0  0
  5  4  1  0  0  0  0
  7  2  1  0  0  0  0
  8  3  1  0  0  0  0
 13 18  1  0  0  0  0
 14 15  1  0  0  0  0
 14 13  2  0  0  0  0
 15 16  2  0  0  0  0
 16 17  1  0  0  0  0
 17 19  1  0  0  0  0
 18 17  2  0  0  0  0
 19 20  1  0  0  0  0
 19 24  1  0  0  0  0
 20 28  1  0  0  0  0
 21 20  1  0  0  0  0
 21 31  1  0  0  0  0
 22 21  1  0  0  0  0
 22 23  1  0  0  0  0
 23 24  1  0  0  0  0
 23 33  1  0  0  0  0
 24 35  1  6  0  0  0
 24  1  1  0  0  0  0
 25 13  1  0  0  0  0
 26 14  1  0  0  0  0
 27 15  1  0  0  0  0
 29 20  1  0  0  0  0
 30 21  1  0  0  0  0
 32 22  1  0  0  0  0
 34 23  1  0  0  0  0
 36 37  1  0  0  0  0
 36 47  1  0  0  0  0
 37 39  2  0  0  0  0
 38 37  1  0  0  0  0
 39 40  1  0  0  0  0
 40 41  1  0  0  0  0
 41 43  2  0  0  0  0
 41 42  1  0  0  0  0
 44 45  1  0  0  0  0
 44 43  1  0  0  0  0
 46 44  2  0  0  0  0
 47 46  1  0  0  0  0
 47 40  2  0  0  0  0
M  END
>  <minimizedAffinity>
-5.92185783

$$$$

 OpenBabel03272505533D

 47 51  0  0  1  0  0  0  0  0999 V2000
   37.5980   23.9960   33.0020 N   0  0  2  0  0  0  0  0  0  0  0  0
   37.2950   22.5630   33.0240 C   0  0  0  0  0  0  0  0  0  0  0  0
   36.5400   22.2550   31.7520 C   0  0  0  0  0  0  0  0  0  0  0  0
   36.3510   23.5840   31.1250 C   0  0  0  0  0  0  0  0  0  0  0  0
   37.5470   24.4020   31.6430 C   0  0  1  0  0  0  0  0  0  0  0  0
   36.8060   22.2340   33.9390 H   0  0  0  0  0  0  0  0  0  0  0  0
   38.3020   22.0650   32.9090 H   0  0  0  0  0  0  0  0  0  0  0  0
   37.0430   21.5110   31.1060 H   0  0  0  0  0  0  0  0  0  0  0  0
   35.5490   21.8580   32.0650 H   0  0  0  0  0  0  0  0  0  0  0  0
   36.3910   23.4460   30.0230 H   0  0  0  0  0  0  0  0  0  0  0  0
   35.4000   24.0720   31.3410 H   0  0  0  0  0  0  0  0  0  0  0  0
   38.3190   24.0460   30.9680 H   0  0  0  0  0  0  0  0  0  0  0  0
   38.0060   24.3480   38.3310 C   0  0  0  0  0  0  0  0  0  0  0  0
   38.8640   23.2710   38.6000 C   0  0  0  0  0  0  0  0  0  0  0  0
   39.6360   22.8020   37.5430 C   0  0  0  0  0  0  0  0  0  0  0  0
   39.5110   23.4100   36.3330 N   0  0  0  0  0  0  0  0  0  0  0  0
   38.6830   24.4300   36.1270 C   0  0  0  0  0  0  0  0  0  0  0  0
   37.9300   24.9010   37.1200 N   0  0  0  0  0  0  0  0  0  0  0  0
   38.6050   25.0180   34.8400 N   0  0  0  0  0  0  0  0  0  0  0  0
   38.2410   26.4200   34.6590 C   0  0  0  0  0  0  0  0  0  0  0  0
   39.2830   27.1140   33.8470 C   0  0  0  0  0  0  0  0  0  0  0  0
   40.1600   26.3190   33.1460 N   0  0  0  0  0  0  0  0  0  0  0  0
   39.8350   24.9580   32.7930 C   0  0  0  0  0  0  0  0  0  0  0  0
   38.8820   24.2610   33.6320 C   0  0  2  0  0  0  0  0  0  0  0  0
   37.4420   24.6550   39.1960 H   0  0  0  0  0  0  0  0  0  0  0  0
   39.0140   22.7480   39.5140 H   0  0  0  0  0  0  0  0  0  0  0  0
   40.3320   21.9800   37.6240 H   0  0  0  0  0  0  0  0  0  0  0  0
   37.2120   26.5230   34.3210 H   0  0  0  0  0  0  0  0  0  0  0  0
   38.2370   26.8720   35.7000 H   0  0  0  0  0  0  0  0  0  0  0  0
   39.8490   27.8310   34.4760 H   0  0  0  0  0  0  0  0  0  0  0  0
   38.7230   27.7760   33.1260 H   0  0  0  0  0  0  0  0  0  0  0  0
   41.1320   26.6000   33.0060 H   0  0  0  0  0  0  0  0  0  0  0  0
   39.7880   24.9550   31.7170 H   0  0  0  0  0  0  0  0  0  0  0  0
   40.8440   24.4410   32.9690 H   0  0  0  0  0  0  0  0  0  0  0  0
   39.2600   23.2510   33.9780 H   0  0  0  0  0  0  0  0  0  0  0  0
   37.1090   25.7600   31.3910 N   0  0  0  0  0  0  0  0  0  0  0  0
   36.0210   26.4830   31.8010 C   0  0  0  0  0  0  0  0  0  0  0  0
   35.2850   25.9940   32.4550 H   0  0  0  0  0  0  0  0  0  0  0  0
   36.0760   27.7260   31.2900 N   0  0  0  0  0  0  0  0  0  0  0  0
   37.2020   27.8300   30.5370 C   0  0  0  0  0  0  0  0  0  0  0  0
   37.6170   28.9490   29.8470 C   0  0  0  0  0  0  0  0  0  0  0  0
   37.0490   29.8690   29.8540 H   0  0  0  0  0  0  0  0  0  0  0  0
   38.7770   28.8130   29.1650 N   0  0  0  0  0  0  0  0  0  0  0  0
   39.4330   27.6400   29.2000 C   0  0  0  0  0  0  0  0  0  0  0  0
   40.3750   27.5410   28.6410 H   0  0  0  0  0  0  0  0  0  0  0  0
   38.9730   26.5900   29.8930 N   0  0  0  0  0  0  0  0  0  0  0  0
   37.8390   26.6060   30.6040 C   0  0  0  0  0  0  0  0  0  0  0  0
  1  2  1  6  0  0  0
  1 24  1  0  0  0  0
  2  6  1  0  0  0  0
  3  9  1  0  0  0  0
  3  2  1  0  0  0  0
  4 11  1  0  0  0  0
  4  5  1  0  0  0  0
  4  3  1  0  0  0  0
  5 12  1  6  0  0  0
  5  1  1  0  0  0  0
  7  2  1  0  0  0  0
  8  3  1  0  0  0  0
 10  4  1  0  0  0  0
 13 14  1  0  0  0  0
 13 25  1  0  0  0  0
 14 26  1  0  0  0  0
 15 27  1  0  0  0  0
 15 14  2  0  0  0  0
 16 15  1  0  0  0  0
 17 16  2  0  0  0  0
 17 18  1  0  0  0  0
 18 13  2  0  0  0  0
 19 17  1  0  0  0  0
 20 19  1  0  0  0  0
 20 29  1  0  0  0  0
 21 30  1  0  0  0  0
 21 20  1  0  0  0  0
 22 21  1  0  0  0  0
 23 34  1  0  0  0  0
 23 22  1  0  0  0  0
 23 24  1  0  0  0  0
 24 35  1  1  0  0  0
 24 19  1  0  0  0  0
 28 20  1  0  0  0  0
 31 21  1  0  0  0  0
 32 22  1  0  0  0  0
 33 23  1  0  0  0  0
 36  5  1  0  0  0  0
 36 37  1  0  0  0  0
 37 38  1  0  0  0  0
 39 37  2  0  0  0  0
 40 47  1  0  0  0  0
 40 39  1  0  0  0  0
 41 42  1  0  0  0  0
 41 40  2  0  0  0  0
 43 44  2  0  0  0  0
 43 41  1  0  0  0  0
 44 46  1  0  0  0  0
 45 44  1  0  0  0  0
 46 47  2  0  0  0  0
 47 36  1  0  0  0  0
M  END
>  <minimizedAffinity>
-5.78014803

$$$$

 OpenBabel03272505533D

 47 51  0  0  1  0  0  0  0  0999 V2000
   37.5560   24.8500   32.4840 N   0  0  2  0  0  0  0  0  0  0  0  0
   36.5730   24.5190   31.4500 C   0  0  0  0  0  0  0  0  0  0  0  0
   36.2210   23.0610   31.6320 C   0  0  0  0  0  0  0  0  0  0  0  0
   37.1350   22.6110   32.7070 C   0  0  0  0  0  0  0  0  0  0  0  0
   37.3990   23.8910   33.5180 C   0  0  1  0  0  0  0  0  0  0  0  0
   36.8870   24.7940   30.4440 H   0  0  0  0  0  0  0  0  0  0  0  0
   35.6490   25.0960   31.7500 H   0  0  0  0  0  0  0  0  0  0  0  0
   35.1480   22.8850   31.8370 H   0  0  0  0  0  0  0  0  0  0  0  0
   36.5000   22.5520   30.6830 H   0  0  0  0  0  0  0  0  0  0  0  0
   36.5970   21.8450   33.3080 H   0  0  0  0  0  0  0  0  0  0  0  0
   38.0600   22.1440   32.3700 H   0  0  0  0  0  0  0  0  0  0  0  0
   36.4930   23.9200   34.1160 H   0  0  0  0  0  0  0  0  0  0  0  0
   38.8750   28.9750   29.3320 C   0  0  0  0  0  0  0  0  0  0  0  0
   37.6250   29.5890   29.1660 C   0  0  0  0  0  0  0  0  0  0  0  0
   36.6490   29.2950   30.1120 C   0  0  0  0  0  0  0  0  0  0  0  0
   36.9660   28.4420   31.1230 N   0  0  0  0  0  0  0  0  0  0  0  0
   38.1680   27.8840   31.2370 C   0  0  0  0  0  0  0  0  0  0  0  0
   39.1230   28.1460   30.3460 N   0  0  0  0  0  0  0  0  0  0  0  0
   38.4310   27.0060   32.3180 N   0  0  0  0  0  0  0  0  0  0  0  0
   39.7750   26.8430   32.8630 C   0  0  0  0  0  0  0  0  0  0  0  0
   39.7580   27.0870   34.3350 C   0  0  0  0  0  0  0  0  0  0  0  0
   38.5320   27.0680   34.9570 N   0  0  0  0  0  0  0  0  0  0  0  0
   37.3990   26.3850   34.3810 C   0  0  0  0  0  0  0  0  0  0  0  0
   37.3800   26.2200   32.9410 C   0  0  2  0  0  0  0  0  0  0  0  0
   39.5770   29.2510   28.5620 H   0  0  0  0  0  0  0  0  0  0  0  0
   37.3050   30.2620   28.4070 H   0  0  0  0  0  0  0  0  0  0  0  0
   35.6500   29.7050   30.0940 H   0  0  0  0  0  0  0  0  0  0  0  0
   40.2300   25.9120   32.5290 H   0  0  0  0  0  0  0  0  0  0  0  0
   40.4050   27.6490   32.3730 H   0  0  0  0  0  0  0  0  0  0  0  0
   40.2850   28.0320   34.5760 H   0  0  0  0  0  0  0  0  0  0  0  0
   40.4170   26.2910   34.7880 H   0  0  0  0  0  0  0  0  0  0  0  0
   38.3320   27.6780   35.7520 H   0  0  0  0  0  0  0  0  0  0  0  0
   37.1770   25.5860   35.0690 H   0  0  0  0  0  0  0  0  0  0  0  0
   36.5530   27.1230   34.6220 H   0  0  0  0  0  0  0  0  0  0  0  0
   36.4100   26.5710   32.4730 H   0  0  0  0  0  0  0  0  0  0  0  0
   38.5940   23.5340   34.2550 N   0  0  0  0  0  0  0  0  0  0  0  0
   39.8810   23.2630   33.8740 C   0  0  0  0  0  0  0  0  0  0  0  0
   40.1290   23.3010   32.8040 H   0  0  0  0  0  0  0  0  0  0  0  0
   40.6320   22.9880   34.9560 N   0  0  0  0  0  0  0  0  0  0  0  0
   39.8430   23.0760   36.0590 C   0  0  0  0  0  0  0  0  0  0  0  0
   40.2410   22.8650   37.3610 C   0  0  0  0  0  0  0  0  0  0  0  0
   41.2590   22.6010   37.6130 H   0  0  0  0  0  0  0  0  0  0  0  0
   39.2740   23.0100   38.2950 N   0  0  0  0  0  0  0  0  0  0  0  0
   38.0280   23.3390   37.9120 C   0  0  0  0  0  0  0  0  0  0  0  0
   37.2490   23.4540   38.6800 H   0  0  0  0  0  0  0  0  0  0  0  0
   37.7080   23.5310   36.6260 N   0  0  0  0  0  0  0  0  0  0  0  0
   38.5790   23.4150   35.6170 C   0  0  0  0  0  0  0  0  0  0  0  0
  1  2  1  6  0  0  0
  1 24  1  0  0  0  0
  1  5  1  0  0  0  0
  2  3  1  0  0  0  0
  2  7  1  0  0  0  0
  3  8  1  0  0  0  0
  3  4  1  0  0  0  0
  4 10  1  0  0  0  0
  4  5  1  0  0  0  0
  5 12  1  1  0  0  0
  5 36  1  0  0  0  0
  6  2  1  0  0  0  0
  9  3  1  0  0  0  0
 11  4  1  0  0  0  0
 13 18  1  0  0  0  0
 14 13  2  0  0  0  0
 14 15  1  0  0  0  0
 15 16  2  0  0  0  0
 16 17  1  0  0  0  0
 17 19  1  0  0  0  0
 18 17  2  0  0  0  0
 19 20  1  0  0  0  0
 19 24  1  0  0  0  0
 20 21  1  0  0  0  0
 21 30  1  0  0  0  0
 21 31  1  0  0  0  0
 21 22  1  0  0  0  0
 22 32  1  0  0  0  0
 23 34  1  0  0  0  0
 23 22  1  0  0  0  0
 23 33  1  0  0  0  0
 24 35  1  6  0  0  0
 24 23  1  0  0  0  0
 25 13  1  0  0  0  0
 26 14  1  0  0  0  0
 27 15  1  0  0  0  0
 28 20  1  0  0  0  0
 29 20  1  0  0  0  0
 36 47  1  0  0  0  0
 37 36  1  0  0  0  0
 37 39  2  0  0  0  0
 38 37  1  0  0  0  0
 39 40  1  0  0  0  0
 40 41  1  0  0  0  0
 41 42  1  0  0  0  0
 41 43  2  0  0  0  0
 44 43  1  0  0  0  0
 44 45  1  0  0  0  0
 46 44  2  0  0  0  0
 47 40  2  0  0  0  0
 47 46  1  0  0  0  0
M  END
>  <minimizedAffinity>
-5.71265125

$$$$

 OpenBabel03272505533D

 47 51  0  0  1  0  0  0  0  0999 V2000
   38.1450   24.3870   32.6660 N   0  0  2  0  0  0  0  0  0  0  0  0
   37.4390   23.1190   32.8630 C   0  0  0  0  0  0  0  0  0  0  0  0
   36.7640   22.7850   31.5530 C   0  0  0  0  0  0  0  0  0  0  0  0
   37.0360   23.9710   30.7060 C   0  0  0  0  0  0  0  0  0  0  0  0
   38.3570   24.5240   31.2700 C   0  0  1  0  0  0  0  0  0  0  0  0
   36.7820   23.1140   33.7320 H   0  0  0  0  0  0  0  0  0  0  0  0
   38.2640   22.3580   32.9840 H   0  0  0  0  0  0  0  0  0  0  0  0
   37.0950   21.8240   31.1150 H   0  0  0  0  0  0  0  0  0  0  0  0
   35.6740   22.7350   31.7670 H   0  0  0  0  0  0  0  0  0  0  0  0
   37.1490   23.6180   29.6580 H   0  0  0  0  0  0  0  0  0  0  0  0
   36.2500   24.7270   30.6950 H   0  0  0  0  0  0  0  0  0  0  0  0
   39.0580   23.8510   30.7860 H   0  0  0  0  0  0  0  0  0  0  0  0
   38.0130   24.5890   38.0170 C   0  0  0  0  0  0  0  0  0  0  0  0
   38.6380   23.3750   38.3410 C   0  0  0  0  0  0  0  0  0  0  0  0
   39.4310   22.7930   37.3570 C   0  0  0  0  0  0  0  0  0  0  0  0
   39.5480   23.4310   36.1620 N   0  0  0  0  0  0  0  0  0  0  0  0
   38.9350   24.5820   35.9020 C   0  0  0  0  0  0  0  0  0  0  0  0
   38.1680   25.1630   36.8240 N   0  0  0  0  0  0  0  0  0  0  0  0
   39.1020   25.1930   34.6340 N   0  0  0  0  0  0  0  0  0  0  0  0
   39.0060   26.6390   34.4630 C   0  0  0  0  0  0  0  0  0  0  0  0
   40.2360   27.1520   33.7900 C   0  0  0  0  0  0  0  0  0  0  0  0
   41.0350   26.2270   33.1610 N   0  0  0  0  0  0  0  0  0  0  0  0
   40.5230   24.9490   32.7300 C   0  0  0  0  0  0  0  0  0  0  0  0
   39.3770   24.4160   33.4390 C   0  0  2  0  0  0  0  0  0  0  0  0
   37.4180   24.9770   38.8270 H   0  0  0  0  0  0  0  0  0  0  0  0
   38.5950   22.8210   39.2480 H   0  0  0  0  0  0  0  0  0  0  0  0
   39.9630   21.8620   37.4860 H   0  0  0  0  0  0  0  0  0  0  0  0
   38.0540   26.9250   34.0190 H   0  0  0  0  0  0  0  0  0  0  0  0
   38.9640   27.0700   35.5110 H   0  0  0  0  0  0  0  0  0  0  0  0
   40.8430   27.7500   34.4990 H   0  0  0  0  0  0  0  0  0  0  0  0
   39.8810   27.9120   33.0350 H   0  0  0  0  0  0  0  0  0  0  0  0
   42.0510   26.3360   33.1350 H   0  0  0  0  0  0  0  0  0  0  0  0
   40.5960   24.9690   31.6550 H   0  0  0  0  0  0  0  0  0  0  0  0
   41.4030   24.2610   32.9960 H   0  0  0  0  0  0  0  0  0  0  0  0
   39.5360   23.3510   33.7900 H   0  0  0  0  0  0  0  0  0  0  0  0
   38.3600   25.8740   30.7460 N   0  0  0  0  0  0  0  0  0  0  0  0
   39.1590   26.5250   29.8430 C   0  0  0  0  0  0  0  0  0  0  0  0
   39.9910   25.9700   29.3860 H   0  0  0  0  0  0  0  0  0  0  0  0
   38.7370   27.7930   29.6870 N   0  0  0  0  0  0  0  0  0  0  0  0
   37.6570   27.9870   30.4880 C   0  0  0  0  0  0  0  0  0  0  0  0
   36.9370   29.1550   30.6120 C   0  0  0  0  0  0  0  0  0  0  0  0
   37.1920   30.0470   30.0550 H   0  0  0  0  0  0  0  0  0  0  0  0
   35.8970   29.1080   31.4750 N   0  0  0  0  0  0  0  0  0  0  0  0
   35.6350   27.9660   32.1350 C   0  0  0  0  0  0  0  0  0  0  0  0
   34.7870   27.9390   32.8340 H   0  0  0  0  0  0  0  0  0  0  0  0
   36.3760   26.8630   31.9670 N   0  0  0  0  0  0  0  0  0  0  0  0
   37.4280   26.7920   31.1430 C   0  0  0  0  0  0  0  0  0  0  0  0
  1  2  1  6  0  0  0
  1 24  1  0  0  0  0
  2  7  1  0  0  0  0
  2  6  1  0  0  0  0
  3  9  1  0  0  0  0
  3  2  1  0  0  0  0
  4  5  1  0  0  0  0
  4  3  1  0  0  0  0
  5 12  1  6  0  0  0
  5  1  1  0  0  0  0
  8  3  1  0  0  0  0
 10  4  1  0  0  0  0
 11  4  1  0  0  0  0
 13 14  1  0  0  0  0
 13 25  1  0  0  0  0
 14 26  1  0  0  0  0
 15 27  1  0  0  0  0
 15 14  2  0  0  0  0
 16 15  1  0  0  0  0
 17 16  2  0  0  0  0
 17 18  1  0  0  0  0
 18 13  2  0  0  0  0
 19 17  1  0  0  0  0
 20 19  1  0  0  0  0
 20 29  1  0  0  0  0
 21 20  1  0  0  0  0
 21 30  1  0  0  0  0
 22 21  1  0  0  0  0
 23 34  1  0  0  0  0
 23 22  1  0  0  0  0
 23 24  1  0  0  0  0
 24 35  1  1  0  0  0
 24 19  1  0  0  0  0
 28 20  1  0  0  0  0
 31 21  1  0  0  0  0
 32 22  1  0  0  0  0
 33 23  1  0  0  0  0
 36 47  1  0  0  0  0
 36  5  1  0  0  0  0
 37 36  1  0  0  0  0
 38 37  1  0  0  0  0
 39 37  2  0  0  0  0
 39 40  1  0  0  0  0
 40 41  2  0  0  0  0
 40 47  1  0  0  0  0
 41 43  1  0  0  0  0
 42 41  1  0  0  0  0
 43 44  2  0  0  0  0
 44 45  1  0  0  0  0
 46 44  1  0  0  0  0
 47 46  2  0  0  0  0
M  END
>  <minimizedAffinity>
-5.65955973

$$$$

 OpenBabel03272505533D

 47 51  0  0  1  0  0  0  0  0999 V2000
   40.1980   27.1350   32.5690 N   0  0  2  0  0  0  0  0  0  0  0  0
   41.4700   27.5870   32.0030 C   0  0  0  0  0  0  0  0  0  0  0  0
   42.5330   27.3200   33.0430 C   0  0  0  0  0  0  0  0  0  0  0  0
   41.7650   26.8310   34.2120 C   0  0  0  0  0  0  0  0  0  0  0  0
   40.5150   26.1920   33.5820 C   0  0  1  0  0  0  0  0  0  0  0  0
   41.4430   28.6080   31.6260 H   0  0  0  0  0  0  0  0  0  0  0  0
   41.6750   26.8590   31.1640 H   0  0  0  0  0  0  0  0  0  0  0  0
   43.3300   26.6350   32.6980 H   0  0  0  0  0  0  0  0  0  0  0  0
   42.9810   28.3080   33.2920 H   0  0  0  0  0  0  0  0  0  0  0  0
   42.3930   26.0790   34.7370 H   0  0  0  0  0  0  0  0  0  0  0  0
   41.5060   27.5890   34.9520 H   0  0  0  0  0  0  0  0  0  0  0  0
   40.9290   25.2340   33.2840 H   0  0  0  0  0  0  0  0  0  0  0  0
   37.3050   30.3850   29.4460 C   0  0  0  0  0  0  0  0  0  0  0  0
   37.8570   30.1000   28.1880 C   0  0  0  0  0  0  0  0  0  0  0  0
   38.5370   28.8930   28.0580 C   0  0  0  0  0  0  0  0  0  0  0  0
   38.6230   28.0810   29.1450 N   0  0  0  0  0  0  0  0  0  0  0  0
   38.0830   28.3960   30.3190 C   0  0  0  0  0  0  0  0  0  0  0  0
   37.4250   29.5440   30.4740 N   0  0  0  0  0  0  0  0  0  0  0  0
   38.2080   27.5000   31.4100 N   0  0  0  0  0  0  0  0  0  0  0  0
   37.2090   27.4420   32.4720 C   0  0  0  0  0  0  0  0  0  0  0  0
   36.7230   26.0410   32.6350 C   0  0  0  0  0  0  0  0  0  0  0  0
   37.4840   25.0470   32.0670 N   0  0  0  0  0  0  0  0  0  0  0  0
   38.8820   25.2370   31.7680 C   0  0  0  0  0  0  0  0  0  0  0  0
   39.3350   26.5920   31.5310 C   0  0  2  0  0  0  0  0  0  0  0  0
   36.7950   31.3340   29.4690 H   0  0  0  0  0  0  0  0  0  0  0  0
   37.8300   30.6810   27.2980 H   0  0  0  0  0  0  0  0  0  0  0  0
   39.0040   28.5610   27.1430 H   0  0  0  0  0  0  0  0  0  0  0  0
   37.5570   27.9440   33.3730 H   0  0  0  0  0  0  0  0  0  0  0  0
   36.3440   28.0830   32.1150 H   0  0  0  0  0  0  0  0  0  0  0  0
   35.6730   25.9530   32.2890 H   0  0  0  0  0  0  0  0  0  0  0  0
   36.6520   25.8650   33.7470 H   0  0  0  0  0  0  0  0  0  0  0  0
   37.0510   24.2070   31.6750 H   0  0  0  0  0  0  0  0  0  0  0  0
   39.4000   24.5450   32.4120 H   0  0  0  0  0  0  0  0  0  0  0  0
   38.9650   24.6990   30.7580 H   0  0  0  0  0  0  0  0  0  0  0  0
   39.9230   26.6960   30.5680 H   0  0  0  0  0  0  0  0  0  0  0  0
   39.6120   26.1310   34.7130 N   0  0  0  0  0  0  0  0  0  0  0  0
   39.0040   27.0910   35.4770 C   0  0  0  0  0  0  0  0  0  0  0  0
   39.2010   28.1470   35.2440 H   0  0  0  0  0  0  0  0  0  0  0  0
   38.2390   26.5110   36.4200 N   0  0  0  0  0  0  0  0  0  0  0  0
   38.3390   25.1630   36.2830 C   0  0  0  0  0  0  0  0  0  0  0  0
   37.7030   24.2190   37.0610 C   0  0  0  0  0  0  0  0  0  0  0  0
   37.0480   24.4940   37.8760 H   0  0  0  0  0  0  0  0  0  0  0  0
   37.9570   22.9310   36.7330 N   0  0  0  0  0  0  0  0  0  0  0  0
   38.7820   22.6590   35.7080 C   0  0  0  0  0  0  0  0  0  0  0  0
   38.9810   21.6080   35.4510 H   0  0  0  0  0  0  0  0  0  0  0  0
   39.3680   23.6270   34.9910 N   0  0  0  0  0  0  0  0  0  0  0  0
   39.1930   24.9330   35.2220 C   0  0  0  0  0  0  0  0  0  0  0  0
  1  2  1  6  0  0  0
  1  5  1  0  0  0  0
  2  3  1  0  0  0  0
  3  9  1  0  0  0  0
  3  4  1  0  0  0  0
  4 10  1  0  0  0  0
  4 11  1  0  0  0  0
  5 12  1  6  0  0  0
  5  4  1  0  0  0  0
  5 36  1  0  0  0  0
  6  2  1  0  0  0  0
  7  2  1  0  0  0  0
  8  3  1  0  0  0  0
 13 25  1  0  0  0  0
 13 18  1  0  0  0  0
 14 13  2  0  0  0  0
 15 14  1  0  0  0  0
 15 16  2  0  0  0  0
 16 17  1  0  0  0  0
 17 18  2  0  0  0  0
 17 19  1  0  0  0  0
 19 24  1  0  0  0  0
 19 20  1  0  0  0  0
 20 21  1  0  0  0  0
 20 28  1  0  0  0  0
 21 31  1  0  0  0  0
 22 21  1  0  0  0  0
 23 22  1  0  0  0  0
 23 33  1  0  0  0  0
 24 35  1  6  0  0  0
 24 23  1  0  0  0  0
 24  1  1  0  0  0  0
 26 14  1  0  0  0  0
 27 15  1  0  0  0  0
 29 20  1  0  0  0  0
 30 21  1  0  0  0  0
 32 22  1  0  0  0  0
 34 23  1  0  0  0  0
 36 47  1  0  0  0  0
 36 37  1  0  0  0  0
 37 39  2  0  0  0  0
 38 37  1  0  0  0  0
 40 39  1  0  0  0  0
 40 41  1  0  0  0  0
 41 42  1  0  0  0  0
 43 41  2  0  0  0  0
 44 43  1  0  0  0  0
 45 44  1  0  0  0  0
 46 47  1  0  0  0  0
 46 44  2  0  0  0  0
 47 40  2  0  0  0  0
M  END
>  <minimizedAffinity>
-5.64749146

$$$$

 OpenBabel03272505533D

 47 51  0  0  1  0  0  0  0  0999 V2000
   38.5060   25.7610   31.6770 N   0  0  2  0  0  0  0  0  0  0  0  0
   39.7900   25.0800   31.8520 C   0  0  0  0  0  0  0  0  0  0  0  0
   40.8670   26.1320   31.7170 C   0  0  0  0  0  0  0  0  0  0  0  0
   40.1170   27.3550   31.3460 C   0  0  0  0  0  0  0  0  0  0  0  0
   38.7280   27.1320   31.9690 C   0  0  1  0  0  0  0  0  0  0  0  0
   39.9160   24.2100   31.2100 H   0  0  0  0  0  0  0  0  0  0  0  0
   39.7970   24.7760   32.9400 H   0  0  0  0  0  0  0  0  0  0  0  0
   41.5000   26.2390   32.6190 H   0  0  0  0  0  0  0  0  0  0  0  0
   41.5010   25.8210   30.8580 H   0  0  0  0  0  0  0  0  0  0  0  0
   40.6390   28.2230   31.8020 H   0  0  0  0  0  0  0  0  0  0  0  0
   40.0550   27.5590   30.2760 H   0  0  0  0  0  0  0  0  0  0  0  0
   38.9400   27.4130   32.9950 H   0  0  0  0  0  0  0  0  0  0  0  0
   39.8320   22.2850   35.5300 C   0  0  0  0  0  0  0  0  0  0  0  0
   39.3920   22.9760   36.6690 C   0  0  0  0  0  0  0  0  0  0  0  0
   38.4440   23.9740   36.4730 C   0  0  0  0  0  0  0  0  0  0  0  0
   38.0100   24.2120   35.2060 N   0  0  0  0  0  0  0  0  0  0  0  0
   38.4580   23.5290   34.1560 C   0  0  0  0  0  0  0  0  0  0  0  0
   39.3670   22.5680   34.3130 N   0  0  0  0  0  0  0  0  0  0  0  0
   37.9610   23.8290   32.8630 N   0  0  0  0  0  0  0  0  0  0  0  0
   37.9040   22.8180   31.8120 C   0  0  0  0  0  0  0  0  0  0  0  0
   36.5180   22.7350   31.2640 C   0  0  0  0  0  0  0  0  0  0  0  0
   35.6710   23.7790   31.5490 N   0  0  0  0  0  0  0  0  0  0  0  0
   36.1680   25.0850   31.9080 C   0  0  0  0  0  0  0  0  0  0  0  0
   37.4820   25.1540   32.5140 C   0  0  2  0  0  0  0  0  0  0  0  0
   40.5640   21.5290   35.7610 H   0  0  0  0  0  0  0  0  0  0  0  0
   39.6830   22.8460   37.6840 H   0  0  0  0  0  0  0  0  0  0  0  0
   38.0280   24.5740   37.2690 H   0  0  0  0  0  0  0  0  0  0  0  0
   38.7060   22.9520   31.0880 H   0  0  0  0  0  0  0  0  0  0  0  0
   38.1500   21.8340   32.3190 H   0  0  0  0  0  0  0  0  0  0  0  0
   36.0440   21.7770   31.5580 H   0  0  0  0  0  0  0  0  0  0  0  0
   36.6330   22.6430   30.1450 H   0  0  0  0  0  0  0  0  0  0  0  0
   34.6700   23.6250   31.6890 H   0  0  0  0  0  0  0  0  0  0  0  0
   35.8520   25.7320   31.1060 H   0  0  0  0  0  0  0  0  0  0  0  0
   35.4270   25.3810   32.7330 H   0  0  0  0  0  0  0  0  0  0  0  0
   37.4900   25.7520   33.4760 H   0  0  0  0  0  0  0  0  0  0  0  0
   37.9180   28.0870   31.2400 N   0  0  0  0  0  0  0  0  0  0  0  0
   37.9550   28.5540   29.9530 C   0  0  0  0  0  0  0  0  0  0  0  0
   38.7360   28.1720   29.2800 H   0  0  0  0  0  0  0  0  0  0  0  0
   36.9640   29.4430   29.7580 N   0  0  0  0  0  0  0  0  0  0  0  0
   36.2670   29.5670   30.9180 C   0  0  0  0  0  0  0  0  0  0  0  0
   35.1750   30.3830   31.1250 C   0  0  0  0  0  0  0  0  0  0  0  0
   34.7740   31.0130   30.3430 H   0  0  0  0  0  0  0  0  0  0  0  0
   34.6450   30.3380   32.3680 N   0  0  0  0  0  0  0  0  0  0  0  0
   35.1930   29.5320   33.2940 C   0  0  0  0  0  0  0  0  0  0  0  0
   34.7540   29.5040   34.3020 H   0  0  0  0  0  0  0  0  0  0  0  0
   36.2560   28.7630   33.0250 N   0  0  0  0  0  0  0  0  0  0  0  0
   36.8640   28.7240   31.8330 C   0  0  0  0  0  0  0  0  0  0  0  0
  1  2  1  1  0  0  0
  1  5  1  0  0  0  0
  1 24  1  0  0  0  0
  2  7  1  0  0  0  0
  3  2  1  0  0  0  0
  3  8  1  0  0  0  0
  4  3  1  0  0  0  0
  4 10  1  0  0  0  0
  4  5  1  0  0  0  0
  5 12  1  1  0  0  0
  6  2  1  0  0  0  0
  9  3  1  0  0  0  0
 11  4  1  0  0  0  0
 13 25  1  0  0  0  0
 13 14  1  0  0  0  0
 14 26  1  0  0  0  0
 15 14  2  0  0  0  0
 15 27  1  0  0  0  0
 16 15  1  0  0  0  0
 17 18  1  0  0  0  0
 17 16  2  0  0  0  0
 18 13  2  0  0  0  0
 19 17  1  0  0  0  0
 20 29  1  0  0  0  0
 20 19  1  0  0  0  0
 21 22  1  0  0  0  0
 21 30  1  0  0  0  0
 21 20  1  0  0  0  0
 22 32  1  0  0  0  0
 22 23  1  0  0  0  0
 23 24  1  0  0  0  0
 23 34  1  0  0  0  0
 24 19  1  0  0  0  0
 24 35  1  1  0  0  0
 28 20  1  0  0  0  0
 31 21  1  0  0  0  0
 33 23  1  0  0  0  0
 36 47  1  0  0  0  0
 36  5  1  0  0  0  0
 37 36  1  0  0  0  0
 38 37  1  0  0  0  0
 39 37  2  0  0  0  0
 39 40  1  0  0  0  0
 40 41  2  0  0  0  0
 40 47  1  0  0  0  0
 41 43  1  0  0  0  0
 42 41  1  0  0  0  0
 43 44  2  0  0  0  0
 44 45  1  0  0  0  0
 46 44  1  0  0  0  0
 47 46  2  0  0  0  0
M  END
>  <minimizedAffinity>
-5.44117165

$$$$

 OpenBabel03272505533D

 47 51  0  0  1  0  0  0  0  0999 V2000
   38.7020   24.2500   32.7200 N   0  0  2  0  0  0  0  0  0  0  0  0
   38.8400   22.8330   32.3780 C   0  0  0  0  0  0  0  0  0  0  0  0
   38.1190   22.6280   31.0650 C   0  0  0  0  0  0  0  0  0  0  0  0
   37.5000   23.9470   30.7950 C   0  0  0  0  0  0  0  0  0  0  0  0
   38.4350   24.9390   31.5090 C   0  0  1  0  0  0  0  0  0  0  0  0
   38.5380   22.1580   33.1780 H   0  0  0  0  0  0  0  0  0  0  0  0
   39.9380   22.7090   32.1450 H   0  0  0  0  0  0  0  0  0  0  0  0
   38.7720   22.2520   30.2540 H   0  0  0  0  0  0  0  0  0  0  0  0
   37.3160   21.8840   31.2630 H   0  0  0  0  0  0  0  0  0  0  0  0
   37.4990   24.0990   29.6940 H   0  0  0  0  0  0  0  0  0  0  0  0
   36.4660   24.0530   31.1230 H   0  0  0  0  0  0  0  0  0  0  0  0
   39.2260   25.0090   30.7700 H   0  0  0  0  0  0  0  0  0  0  0  0
   39.9230   22.5190   37.6400 C   0  0  0  0  0  0  0  0  0  0  0  0
   41.1490   21.8800   37.3970 C   0  0  0  0  0  0  0  0  0  0  0  0
   41.8310   22.2470   36.2420 C   0  0  0  0  0  0  0  0  0  0  0  0
   41.2730   23.1890   35.4340 N   0  0  0  0  0  0  0  0  0  0  0  0
   40.1070   23.7660   35.7080 C   0  0  0  0  0  0  0  0  0  0  0  0
   39.4300   23.4350   36.8060 N   0  0  0  0  0  0  0  0  0  0  0  0
   39.5850   24.7410   34.8220 N   0  0  0  0  0  0  0  0  0  0  0  0
   38.7070   25.8090   35.2910 C   0  0  0  0  0  0  0  0  0  0  0  0
   39.2560   27.1340   34.8770 C   0  0  0  0  0  0  0  0  0  0  0  0
   40.2180   27.1320   33.8950 N   0  0  0  0  0  0  0  0  0  0  0  0
   40.3540   26.0350   32.9680 C   0  0  0  0  0  0  0  0  0  0  0  0
   39.8930   24.7330   33.4030 C   0  0  2  0  0  0  0  0  0  0  0  0
   39.4550   22.1830   38.5510 H   0  0  0  0  0  0  0  0  0  0  0  0
   41.6450   21.1410   37.9790 H   0  0  0  0  0  0  0  0  0  0  0  0
   42.7820   21.8290   35.9460 H   0  0  0  0  0  0  0  0  0  0  0  0
   37.6680   25.6120   35.0340 H   0  0  0  0  0  0  0  0  0  0  0  0
   38.7290   25.7490   36.4240 H   0  0  0  0  0  0  0  0  0  0  0  0
   39.6260   27.6920   35.7620 H   0  0  0  0  0  0  0  0  0  0  0  0
   38.3710   27.7410   34.5300 H   0  0  0  0  0  0  0  0  0  0  0  0
   40.9770   27.8160   33.8960 H   0  0  0  0  0  0  0  0  0  0  0  0
   40.1150   26.4550   32.0050 H   0  0  0  0  0  0  0  0  0  0  0  0
   41.4970   25.9540   32.8930 H   0  0  0  0  0  0  0  0  0  0  0  0
   40.6710   23.9220   33.2590 H   0  0  0  0  0  0  0  0  0  0  0  0
   37.5980   26.1170   31.6060 N   0  0  0  0  0  0  0  0  0  0  0  0
   36.5920   26.4800   32.4610 C   0  0  0  0  0  0  0  0  0  0  0  0
   36.3050   25.7810   33.2590 H   0  0  0  0  0  0  0  0  0  0  0  0
   36.1270   27.7000   32.1330 N   0  0  0  0  0  0  0  0  0  0  0  0
   36.8260   28.1480   31.0560 C   0  0  0  0  0  0  0  0  0  0  0  0
   36.6490   29.3570   30.4200 C   0  0  0  0  0  0  0  0  0  0  0  0
   35.9050   30.0720   30.7450 H   0  0  0  0  0  0  0  0  0  0  0  0
   37.4650   29.5840   29.3660 N   0  0  0  0  0  0  0  0  0  0  0  0
   38.3680   28.6510   29.0150 C   0  0  0  0  0  0  0  0  0  0  0  0
   39.0270   28.8470   28.1560 H   0  0  0  0  0  0  0  0  0  0  0  0
   38.4880   27.4940   29.6790 N   0  0  0  0  0  0  0  0  0  0  0  0
   37.7370   27.1610   30.7350 C   0  0  0  0  0  0  0  0  0  0  0  0
  1  2  1  6  0  0  0
  1 24  1  0  0  0  0
  2  6  1  0  0  0  0
  3  9  1  0  0  0  0
  3  2  1  0  0  0  0
  4  3  1  0  0  0  0
  4 11  1  0  0  0  0
  4  5  1  0  0  0  0
  5 12  1  6  0  0  0
  5 36  1  0  0  0  0
  5  1  1  0  0  0  0
  7  2  1  0  0  0  0
  8  3  1  0  0  0  0
 10  4  1  0  0  0  0
 13 25  1  0  0  0  0
 14 13  1  0  0  0  0
 14 26  1  0  0  0  0
 15 14  2  0  0  0  0
 16 17  2  0  0  0  0
 16 15  1  0  0  0  0
 17 18  1  0  0  0  0
 18 13  2  0  0  0  0
 19 20  1  0  0  0  0
 19 17  1  0  0  0  0
 20 29  1  0  0  0  0
 21 20  1  0  0  0  0
 21 30  1  0  0  0  0
 22 32  1  0  0  0  0
 22 21  1  0  0  0  0
 23 24  1  0  0  0  0
 23 22  1  0  0  0  0
 24 35  1  6  0  0  0
 24 19  1  0  0  0  0
 27 15  1  0  0  0  0
 28 20  1  0  0  0  0
 31 21  1  0  0  0  0
 33 23  1  0  0  0  0
 34 23  1  0  0  0  0
 36 37  1  0  0  0  0
 37 38  1  0  0  0  0
 39 37  2  0  0  0  0
 40 39  1  0  0  0  0
 41 42  1  0  0  0  0
 41 40  2  0  0  0  0
 43 41  1  0  0  0  0
 44 43  2  0  0  0  0
 44 46  1  0  0  0  0
 45 44  1  0  0  0  0
 46 47  2  0  0  0  0
 47 40  1  0  0  0  0
 47 36  1  0  0  0  0
M  END
>  <minimizedAffinity>
-5.40216827

$$$$

 OpenBabel03272505533D

 47 51  0  0  1  0  0  0  0  0999 V2000
   39.4240   26.1260   32.6620 N   0  0  2  0  0  0  0  0  0  0  0  0
   40.2670   27.2980   32.9050 C   0  0  0  0  0  0  0  0  0  0  0  0
   41.4860   26.8130   33.6560 C   0  0  0  0  0  0  0  0  0  0  0  0
   41.1970   25.3810   33.9050 C   0  0  0  0  0  0  0  0  0  0  0  0
   40.2720   24.9900   32.7400 C   0  0  1  0  0  0  0  0  0  0  0  0
   39.7390   28.1280   33.3720 H   0  0  0  0  0  0  0  0  0  0  0  0
   40.6380   27.5900   31.8790 H   0  0  0  0  0  0  0  0  0  0  0  0
   42.4390   27.0050   33.1270 H   0  0  0  0  0  0  0  0  0  0  0  0
   41.4900   27.3560   34.6270 H   0  0  0  0  0  0  0  0  0  0  0  0
   42.1630   24.8320   33.8680 H   0  0  0  0  0  0  0  0  0  0  0  0
   40.7500   25.1560   34.8740 H   0  0  0  0  0  0  0  0  0  0  0  0
   41.0110   24.8430   31.9600 H   0  0  0  0  0  0  0  0  0  0  0  0
   35.1390   29.2980   32.1410 C   0  0  0  0  0  0  0  0  0  0  0  0
   35.6120   30.2240   31.1990 C   0  0  0  0  0  0  0  0  0  0  0  0
   36.6970   29.8340   30.4210 C   0  0  0  0  0  0  0  0  0  0  0  0
   37.2230   28.5960   30.6230 N   0  0  0  0  0  0  0  0  0  0  0  0
   36.7390   27.7520   31.5300 C   0  0  0  0  0  0  0  0  0  0  0  0
   35.7010   28.0980   32.2900 N   0  0  0  0  0  0  0  0  0  0  0  0
   37.3350   26.4750   31.6850 N   0  0  0  0  0  0  0  0  0  0  0  0
   36.5700   25.3260   32.1570 C   0  0  0  0  0  0  0  0  0  0  0  0
   36.7050   24.1960   31.1910 C   0  0  0  0  0  0  0  0  0  0  0  0
   37.7290   24.2760   30.2770 N   0  0  0  0  0  0  0  0  0  0  0  0
   38.8920   25.0980   30.5090 C   0  0  0  0  0  0  0  0  0  0  0  0
   38.7370   26.2410   31.3850 C   0  0  2  0  0  0  0  0  0  0  0  0
   34.2990   29.6710   32.7030 H   0  0  0  0  0  0  0  0  0  0  0  0
   35.2540   31.2030   30.9850 H   0  0  0  0  0  0  0  0  0  0  0  0
   37.1500   30.4560   29.6640 H   0  0  0  0  0  0  0  0  0  0  0  0
   36.7890   25.1030   33.2000 H   0  0  0  0  0  0  0  0  0  0  0  0
   35.4870   25.6610   32.1680 H   0  0  0  0  0  0  0  0  0  0  0  0
   35.7450   24.0220   30.6640 H   0  0  0  0  0  0  0  0  0  0  0  0
   36.8370   23.2670   31.8180 H   0  0  0  0  0  0  0  0  0  0  0  0
   37.6250   23.9010   29.3320 H   0  0  0  0  0  0  0  0  0  0  0  0
   39.7120   24.4030   30.5840 H   0  0  0  0  0  0  0  0  0  0  0  0
   39.0660   25.5290   29.4590 H   0  0  0  0  0  0  0  0  0  0  0  0
   39.1200   27.2020   30.9230 H   0  0  0  0  0  0  0  0  0  0  0  0
   39.6710   23.7690   33.2360 N   0  0  0  0  0  0  0  0  0  0  0  0
   39.6430   22.4830   32.7650 C   0  0  0  0  0  0  0  0  0  0  0  0
   40.1570   22.2610   31.8190 H   0  0  0  0  0  0  0  0  0  0  0  0
   38.9470   21.7000   33.6100 N   0  0  0  0  0  0  0  0  0  0  0  0
   38.5120   22.4660   34.6440 C   0  0  0  0  0  0  0  0  0  0  0  0
   37.7640   22.0330   35.7170 C   0  0  0  0  0  0  0  0  0  0  0  0
   37.4540   21.0020   35.8200 H   0  0  0  0  0  0  0  0  0  0  0  0
   37.4480   22.9830   36.6260 N   0  0  0  0  0  0  0  0  0  0  0  0
   37.8660   24.2460   36.4370 C   0  0  0  0  0  0  0  0  0  0  0  0
   37.6030   25.0110   37.1830 H   0  0  0  0  0  0  0  0  0  0  0  0
   38.5920   24.6010   35.3690 N   0  0  0  0  0  0  0  0  0  0  0  0
   38.9640   23.7490   34.4060 C   0  0  0  0  0  0  0  0  0  0  0  0
  1  5  1  0  0  0  0
  1  2  1  6  0  0  0
  2  6  1  0  0  0  0
  2  3  1  0  0  0  0
  3  4  1  0  0  0  0
  3  9  1  0  0  0  0
  4 11  1  0  0  0  0
  5 12  1  6  0  0  0
  5 36  1  0  0  0  0
  5  4  1  0  0  0  0
  7  2  1  0  0  0  0
  8  3  1  0  0  0  0
 10  4  1  0  0  0  0
 13 18  1  0  0  0  0
 13 25  1  0  0  0  0
 14 13  2  0  0  0  0
 15 16  2  0  0  0  0
 15 14  1  0  0  0  0
 16 17  1  0  0  0  0
 17 19  1  0  0  0  0
 17 18  2  0  0  0  0
 19 20  1  0  0  0  0
 20 29  1  0  0  0  0
 20 28  1  0  0  0  0
 21 31  1  0  0  0  0
 21 20  1  0  0  0  0
 22 23  1  0  0  0  0
 22 21  1  0  0  0  0
 23 33  1  0  0  0  0
 23 24  1  0  0  0  0
 24 35  1  6  0  0  0
 24 19  1  0  0  0  0
 24  1  1  0  0  0  0
 26 14  1  0  0  0  0
 27 15  1  0  0  0  0
 30 21  1  0  0  0  0
 32 22  1  0  0  0  0
 34 23  1  0  0  0  0
 36 47  1  0  0  0  0
 37 36  1  0  0  0  0
 37 39  2  0  0  0  0
 38 37  1  0  0  0  0
 39 40  1  0  0  0  0
 40 41  1  0  0  0  0
 41 42  1  0  0  0  0
 41 43  2  0  0  0  0
 44 43  1  0  0  0  0
 44 45  1  0  0  0  0
 46 44  2  0  0  0  0
 47 40  2  0  0  0  0
 47 46  1  0  0  0  0
M  END
>  <minimizedAffinity>
-5.40030241

$$$$
