
 OpenBabel03272503063D

 35 38  0  0  0  0  0  0  0  0999 V2000
   38.1090   29.9960   47.6320 F   0  0  0  0  0  0  0  0  0  0  0  0
   38.3390   31.2630   48.0450 C   0  0  0  0  0  0  0  0  0  0  0  0
   37.6290   31.7700   49.1100 C   0  0  0  0  0  0  0  0  0  0  0  0
   37.9080   33.0550   49.4770 C   0  0  0  0  0  0  0  0  0  0  0  0
   38.8510   33.8330   48.8330 C   0  0  0  0  0  0  0  0  0  0  0  0
   39.5510   33.2960   47.7630 C   0  0  0  0  0  0  0  0  0  0  0  0
   39.2880   31.9870   47.3650 C   0  0  0  0  0  0  0  0  0  0  0  0
   37.3650   33.4790   50.3100 H   0  0  0  0  0  0  0  0  0  0  0  0
   39.0640   34.8520   49.1340 H   0  0  0  0  0  0  0  0  0  0  0  0
   40.2970   33.8500   47.2220 H   0  0  0  0  0  0  0  0  0  0  0  0
   35.9620   29.3570   51.4970 C   0  0  0  0  0  0  0  0  0  0  0  0
   36.9170   30.1800   50.8940 C   0  0  0  0  0  0  0  0  0  0  0  0
   36.6460   30.9060   49.7530 C   0  0  0  0  0  0  0  0  0  0  0  0
   35.3820   30.7800   49.2350 N   0  0  0  0  0  0  0  0  0  0  0  0
   34.4650   29.9840   49.8210 C   0  0  0  0  0  0  0  0  0  0  0  0
   34.7440   29.2910   50.9220 N   0  0  0  0  0  0  0  0  0  0  0  0
   36.2110   28.7990   52.3950 H   0  0  0  0  0  0  0  0  0  0  0  0
   37.9010   30.2440   51.3440 H   0  0  0  0  0  0  0  0  0  0  0  0
   33.5100   29.9780   49.3070 H   0  0  0  0  0  0  0  0  0  0  0  0
   39.3280   31.5610   45.0050 C   0  0  0  0  0  0  0  0  0  0  0  0
   38.2230   32.1970   45.0640 O   0  0  0  0  0  0  0  0  0  0  0  0
   39.9920   31.4070   46.2690 N   0  0  0  0  0  0  0  0  0  0  0  0
   40.9030   30.8950   46.2570 H   0  0  0  0  0  0  0  0  0  0  0  0
   41.0890   29.3730   44.3510 H   0  0  0  0  0  0  0  0  0  0  0  0
   40.7500   29.9680   43.5640 N   0  0  0  0  0  0  0  0  0  0  0  0
   39.9220   31.0130   43.7810 C   0  0  0  0  0  0  0  0  0  0  0  0
   39.6570   31.5890   42.5780 N   0  0  0  0  0  0  0  0  0  0  0  0
   40.2870   30.9460   41.6030 C   0  0  0  0  0  0  0  0  0  0  0  0
   40.4370   31.0080   40.2330 C   0  0  0  0  0  0  0  0  0  0  0  0
   39.8950   31.8140   39.7330 H   0  0  0  0  0  0  0  0  0  0  0  0
   41.2070   30.1300   39.5270 N   0  0  0  0  0  0  0  0  0  0  0  0
   41.8640   29.1400   40.1970 C   0  0  0  0  0  0  0  0  0  0  0  0
   42.4510   28.4880   39.5650 H   0  0  0  0  0  0  0  0  0  0  0  0
   41.7460   29.0420   41.5370 N   0  0  0  0  0  0  0  0  0  0  0  0
   40.9780   29.9190   42.2380 C   0  0  0  0  0  0  0  0  0  0  0  0
  1  2  1  0  0  0  0
  2  3  1  0  0  0  0
  3  4  2  0  0  0  0
  3 13  1  0  0  0  0
  4  8  1  0  0  0  0
  5  9  1  0  0  0  0
  5  4  1  0  0  0  0
  6  5  2  0  0  0  0
  7  6  1  0  0  0  0
  7  2  2  0  0  0  0
 10  6  1  0  0  0  0
 11 17  1  0  0  0  0
 12 18  1  0  0  0  0
 12 11  2  0  0  0  0
 13 12  1  0  0  0  0
 14 13  2  0  0  0  0
 14 15  1  0  0  0  0
 15 16  2  0  0  0  0
 16 11  1  0  0  0  0
 19 15  1  0  0  0  0
 20 21  2  0  0  0  0
 20 22  1  0  0  0  0
 22  7  1  0  0  0  0
 23 22  1  0  0  0  0
 25 26  1  0  0  0  0
 25 24  1  0  0  0  0
 26 20  1  0  0  0  0
 27 26  2  0  0  0  0
 28 35  1  0  0  0  0
 28 27  1  0  0  0  0
 29 28  2  0  0  0  0
 30 29  1  0  0  0  0
 31 32  2  0  0  0  0
 31 29  1  0  0  0  0
 32 34  1  0  0  0  0
 33 32  1  0  0  0  0
 34 35  2  0  0  0  0
 35 25  1  0  0  0  0
M  END
>  <minimizedAffinity>
-7.19029951

>  <minimizedRMSD>
1.04218781

$$$$
