
 OpenBabel03272506493D

 45 49  0  0  1  0  0  0  0  0999 V2000
   37.2380   26.1840   31.3980 O   0  0  0  0  0  0  0  0  0  0  0  0
   36.9480   28.2390   32.6460 C   0  0  2  0  0  0  0  0  0  0  0  0
   36.1770   29.4540   32.2220 C   0  0  1  0  0  0  0  0  0  0  0  0
   36.0080   29.3950   30.8710 O   0  0  0  0  0  0  0  0  0  0  0  0
   36.3330   28.1180   30.4250 C   0  0  0  0  0  0  0  0  0  0  0  0
   36.3600   27.2130   31.6280 C   0  0  1  0  0  0  0  0  0  0  0  0
   38.0190   28.2690   32.4760 H   0  0  0  0  0  0  0  0  0  0  0  0
   36.6540   30.3810   32.5980 H   0  0  0  0  0  0  0  0  0  0  0  0
   35.5260   27.7190   29.7410 H   0  0  0  0  0  0  0  0  0  0  0  0
   37.2480   28.2060   29.8590 H   0  0  0  0  0  0  0  0  0  0  0  0
   35.3620   26.9610   31.9740 H   0  0  0  0  0  0  0  0  0  0  0  0
   36.5790   27.8500   33.9500 O   0  0  0  0  0  0  0  0  0  0  0  0
   36.1860   28.6170   34.4500 H   0  0  0  0  0  0  0  0  0  0  0  0
   34.5210   29.3680   33.0120 S   0  0  0  0  0  0  0  0  0  0  0  0
   35.7920   31.5510   36.0660 C   0  0  0  0  0  0  0  0  0  0  0  0
   34.6350   31.8810   36.7770 C   0  0  0  0  0  0  0  0  0  0  0  0
   33.4080   31.4100   36.2930 C   0  0  0  0  0  0  0  0  0  0  0  0
   33.4060   30.6560   35.1590 N   0  0  0  0  0  0  0  0  0  0  0  0
   34.5460   30.3580   34.5000 C   0  0  0  0  0  0  0  0  0  0  0  0
   35.7530   30.8010   34.9420 N   0  0  0  0  0  0  0  0  0  0  0  0
   36.7090   31.9350   36.4760 H   0  0  0  0  0  0  0  0  0  0  0  0
   34.6000   32.4680   37.6690 H   0  0  0  0  0  0  0  0  0  0  0  0
   32.4420   31.5750   36.7210 H   0  0  0  0  0  0  0  0  0  0  0  0
   39.2950   25.5760   33.4150 Cl  0  0  0  0  0  0  0  0  0  0  0  0
   38.0380   24.5320   32.7920 C   0  0  0  0  0  0  0  0  0  0  0  0
   37.1200   24.9360   31.8490 C   0  0  0  0  0  0  0  0  0  0  0  0
   36.1470   24.0170   31.4480 C   0  0  0  0  0  0  0  0  0  0  0  0
   36.1140   22.7500   31.9820 C   0  0  0  0  0  0  0  0  0  0  0  0
   37.0320   22.3350   32.9290 C   0  0  0  0  0  0  0  0  0  0  0  0
   38.0000   23.2370   33.3330 C   0  0  0  0  0  0  0  0  0  0  0  0
   35.3890   24.2500   30.7210 H   0  0  0  0  0  0  0  0  0  0  0  0
   35.3940   21.9870   31.7210 H   0  0  0  0  0  0  0  0  0  0  0  0
   37.0310   21.3540   33.3610 H   0  0  0  0  0  0  0  0  0  0  0  0
   38.9540   22.8280   34.3080 N   0  0  0  0  0  0  0  0  0  0  0  0
   40.1280   22.1740   34.2060 C   0  0  0  0  0  0  0  0  0  0  0  0
   40.5290   21.8460   33.2440 H   0  0  0  0  0  0  0  0  0  0  0  0
   40.6740   22.0170   35.4370 N   0  0  0  0  0  0  0  0  0  0  0  0
   39.8520   22.5700   36.3460 C   0  0  0  0  0  0  0  0  0  0  0  0
   39.9610   22.6660   37.7180 C   0  0  0  0  0  0  0  0  0  0  0  0
   40.8090   22.2650   38.2580 H   0  0  0  0  0  0  0  0  0  0  0  0
   38.9550   23.2930   38.3940 N   0  0  0  0  0  0  0  0  0  0  0  0
   37.9050   23.7840   37.6790 C   0  0  0  0  0  0  0  0  0  0  0  0
   37.1310   24.2760   38.2840 H   0  0  0  0  0  0  0  0  0  0  0  0
   37.8150   23.6810   36.3430 N   0  0  0  0  0  0  0  0  0  0  0  0
   38.7860   23.0670   35.6120 C   0  0  0  0  0  0  0  0  0  0  0  0
  1  6  1  0  0  0  0
  1 26  1  0  0  0  0
  2  7  1  6  0  0  0
  2 12  1  0  0  0  0
  3  8  1  1  0  0  0
  3  2  1  0  0  0  0
  3 14  1  0  0  0  0
  4  3  1  0  0  0  0
  5  4  1  0  0  0  0
  5  6  1  0  0  0  0
  6 11  1  1  0  0  0
  6  2  1  0  0  0  0
  9  5  1  0  0  0  0
 10  5  1  0  0  0  0
 12 13  1  0  0  0  0
 14 19  1  0  0  0  0
 15 21  1  0  0  0  0
 15 16  1  0  0  0  0
 16 22  1  0  0  0  0
 17 23  1  0  0  0  0
 17 16  2  0  0  0  0
 18 17  1  0  0  0  0
 19 20  1  0  0  0  0
 19 18  2  0  0  0  0
 20 15  2  0  0  0  0
 25 30  1  0  0  0  0
 25 24  1  0  0  0  0
 26 25  2  0  0  0  0
 27 26  1  0  0  0  0
 27 28  2  0  0  0  0
 28 29  1  0  0  0  0
 29 30  2  0  0  0  0
 29 33  1  0  0  0  0
 30 34  1  0  0  0  0
 31 27  1  0  0  0  0
 32 28  1  0  0  0  0
 34 45  1  0  0  0  0
 35 34  1  0  0  0  0
 35 37  2  0  0  0  0
 36 35  1  0  0  0  0
 37 38  1  0  0  0  0
 38 39  1  0  0  0  0
 39 40  1  0  0  0  0
 39 41  2  0  0  0  0
 42 43  1  0  0  0  0
 42 41  1  0  0  0  0
 44 42  2  0  0  0  0
 45 44  1  0  0  0  0
 45 38  2  0  0  0  0
M  END
>  <minimizedAffinity>
-6.34983873

$$$$

 OpenBabel03272506493D

 45 49  0  0  1  0  0  0  0  0999 V2000
   37.5320   27.1790   32.6210 O   0  0  0  0  0  0  0  0  0  0  0  0
   37.8000   25.0770   31.4480 C   0  0  2  0  0  0  0  0  0  0  0  0
   37.6270   23.6980   32.0110 C   0  0  1  0  0  0  0  0  0  0  0  0
   37.6990   23.7850   33.3690 O   0  0  0  0  0  0  0  0  0  0  0  0
   37.6040   25.1200   33.7470 C   0  0  0  0  0  0  0  0  0  0  0  0
   37.0720   25.8870   32.5650 C   0  0  1  0  0  0  0  0  0  0  0  0
   38.8180   25.4510   31.4040 H   0  0  0  0  0  0  0  0  0  0  0  0
   38.3360   22.9840   31.5450 H   0  0  0  0  0  0  0  0  0  0  0  0
   36.8470   25.2450   34.5770 H   0  0  0  0  0  0  0  0  0  0  0  0
   38.5730   25.4110   34.1220 H   0  0  0  0  0  0  0  0  0  0  0  0
   36.0060   25.7330   32.4220 H   0  0  0  0  0  0  0  0  0  0  0  0
   37.0810   25.2130   30.2430 O   0  0  0  0  0  0  0  0  0  0  0  0
   36.9160   24.3230   29.8270 H   0  0  0  0  0  0  0  0  0  0  0  0
   35.9420   23.1190   31.5620 S   0  0  0  0  0  0  0  0  0  0  0  0
   35.9840   19.1830   31.0980 C   0  0  0  0  0  0  0  0  0  0  0  0
   35.6740   18.6700   32.3600 C   0  0  0  0  0  0  0  0  0  0  0  0
   35.4420   19.5780   33.4010 C   0  0  0  0  0  0  0  0  0  0  0  0
   35.5290   20.9100   33.1300 N   0  0  0  0  0  0  0  0  0  0  0  0
   35.8320   21.3670   31.8960 C   0  0  0  0  0  0  0  0  0  0  0  0
   36.0630   20.5130   30.8650 N   0  0  0  0  0  0  0  0  0  0  0  0
   36.1530   18.4480   30.3310 H   0  0  0  0  0  0  0  0  0  0  0  0
   35.5960   17.6340   32.6070 H   0  0  0  0  0  0  0  0  0  0  0  0
   35.1950   19.3440   34.4150 H   0  0  0  0  0  0  0  0  0  0  0  0
   36.8730   28.4010   35.2170 Cl  0  0  0  0  0  0  0  0  0  0  0  0
   36.4190   28.9350   33.6140 C   0  0  0  0  0  0  0  0  0  0  0  0
   36.8000   28.2800   32.4650 C   0  0  0  0  0  0  0  0  0  0  0  0
   36.3960   28.8200   31.2410 C   0  0  0  0  0  0  0  0  0  0  0  0
   35.6400   29.9680   31.1940 C   0  0  0  0  0  0  0  0  0  0  0  0
   35.2530   30.6330   32.3430 C   0  0  0  0  0  0  0  0  0  0  0  0
   35.6480   30.1070   33.5600 C   0  0  0  0  0  0  0  0  0  0  0  0
   36.6520   28.3760   30.2950 H   0  0  0  0  0  0  0  0  0  0  0  0
   35.2900   30.4420   30.2870 H   0  0  0  0  0  0  0  0  0  0  0  0
   34.6640   31.5270   32.3360 H   0  0  0  0  0  0  0  0  0  0  0  0
   35.2590   30.7770   34.7550 N   0  0  0  0  0  0  0  0  0  0  0  0
   35.8960   31.6680   35.5420 C   0  0  0  0  0  0  0  0  0  0  0  0
   36.9070   32.0180   35.3210 H   0  0  0  0  0  0  0  0  0  0  0  0
   35.0970   32.0160   36.5790 N   0  0  0  0  0  0  0  0  0  0  0  0
   33.9330   31.3520   36.4690 C   0  0  0  0  0  0  0  0  0  0  0  0
   32.8100   31.3650   37.2700 C   0  0  0  0  0  0  0  0  0  0  0  0
   32.7430   31.9760   38.1600 H   0  0  0  0  0  0  0  0  0  0  0  0
   31.7590   30.5730   36.9050 N   0  0  0  0  0  0  0  0  0  0  0  0
   31.8810   29.8180   35.7780 C   0  0  0  0  0  0  0  0  0  0  0  0
   31.0000   29.2040   35.5430 H   0  0  0  0  0  0  0  0  0  0  0  0
   32.9830   29.8170   35.0120 N   0  0  0  0  0  0  0  0  0  0  0  0
   34.0640   30.5860   35.3210 C   0  0  0  0  0  0  0  0  0  0  0  0
  2  7  1  6  0  0  0
  2  3  1  0  0  0  0
  2  6  1  0  0  0  0
  3  8  1  6  0  0  0
  3  4  1  0  0  0  0
  4  5  1  0  0  0  0
  5 10  1  0  0  0  0
  5  9  1  0  0  0  0
  6 11  1  6  0  0  0
  6  1  1  0  0  0  0
  6  5  1  0  0  0  0
 12  2  1  0  0  0  0
 13 12  1  0  0  0  0
 14 19  1  0  0  0  0
 14  3  1  0  0  0  0
 15 16  1  0  0  0  0
 16 22  1  0  0  0  0
 16 17  2  0  0  0  0
 17 23  1  0  0  0  0
 18 17  1  0  0  0  0
 19 18  2  0  0  0  0
 20 15  2  0  0  0  0
 20 19  1  0  0  0  0
 21 15  1  0  0  0  0
 25 24  1  0  0  0  0
 26  1  1  0  0  0  0
 26 25  2  0  0  0  0
 27 26  1  0  0  0  0
 28 27  2  0  0  0  0
 28 29  1  0  0  0  0
 29 30  2  0  0  0  0
 30 25  1  0  0  0  0
 30 34  1  0  0  0  0
 31 27  1  0  0  0  0
 32 28  1  0  0  0  0
 33 29  1  0  0  0  0
 34 45  1  0  0  0  0
 34 35  1  0  0  0  0
 35 37  2  0  0  0  0
 36 35  1  0  0  0  0
 38 37  1  0  0  0  0
 38 39  1  0  0  0  0
 39 40  1  0  0  0  0
 41 39  2  0  0  0  0
 42 41  1  0  0  0  0
 43 42  1  0  0  0  0
 44 45  1  0  0  0  0
 44 42  2  0  0  0  0
 45 38  2  0  0  0  0
M  END
>  <minimizedAffinity>
-6.15359497

$$$$

 OpenBabel03272506493D

 45 49  0  0  1  0  0  0  0  0999 V2000
   37.5740   25.7910   32.1390 O   0  0  0  0  0  0  0  0  0  0  0  0
   37.1340   28.0300   32.9520 C   0  0  2  0  0  0  0  0  0  0  0  0
   36.2410   29.0600   32.3270 C   0  0  1  0  0  0  0  0  0  0  0  0
   36.0340   28.7060   31.0280 O   0  0  0  0  0  0  0  0  0  0  0  0
   36.4620   27.3960   30.8370 C   0  0  0  0  0  0  0  0  0  0  0  0
   36.6120   26.7670   32.1970 C   0  0  1  0  0  0  0  0  0  0  0  0
   38.1920   28.1140   32.7260 H   0  0  0  0  0  0  0  0  0  0  0  0
   36.6410   30.0820   32.4810 H   0  0  0  0  0  0  0  0  0  0  0  0
   35.6740   26.7970   30.2910 H   0  0  0  0  0  0  0  0  0  0  0  0
   37.3460   27.4410   30.2190 H   0  0  0  0  0  0  0  0  0  0  0  0
   35.6530   26.5110   32.6380 H   0  0  0  0  0  0  0  0  0  0  0  0
   36.8450   27.8920   34.3260 O   0  0  0  0  0  0  0  0  0  0  0  0
   36.3990   28.7110   34.6770 H   0  0  0  0  0  0  0  0  0  0  0  0
   34.6260   29.0020   33.2010 S   0  0  0  0  0  0  0  0  0  0  0  0
   35.8970   31.6530   35.8590 C   0  0  0  0  0  0  0  0  0  0  0  0
   34.7560   32.0120   36.5810 C   0  0  0  0  0  0  0  0  0  0  0  0
   33.5410   31.4090   36.2340 C   0  0  0  0  0  0  0  0  0  0  0  0
   33.5330   30.5080   35.2130 N   0  0  0  0  0  0  0  0  0  0  0  0
   34.6570   30.1870   34.5390 C   0  0  0  0  0  0  0  0  0  0  0  0
   35.8530   30.7540   34.8500 N   0  0  0  0  0  0  0  0  0  0  0  0
   36.8060   32.1410   36.1630 H   0  0  0  0  0  0  0  0  0  0  0  0
   34.7250   32.7130   37.3870 H   0  0  0  0  0  0  0  0  0  0  0  0
   32.5870   31.5770   36.6880 H   0  0  0  0  0  0  0  0  0  0  0  0
   39.1370   25.5400   34.6220 Cl  0  0  0  0  0  0  0  0  0  0  0  0
   38.1800   24.3230   33.8090 C   0  0  0  0  0  0  0  0  0  0  0  0
   37.4780   24.5640   32.6490 C   0  0  0  0  0  0  0  0  0  0  0  0
   36.7290   23.5170   32.1090 C   0  0  0  0  0  0  0  0  0  0  0  0
   36.6980   22.2850   32.7200 C   0  0  0  0  0  0  0  0  0  0  0  0
   37.3990   22.0330   33.8860 C   0  0  0  0  0  0  0  0  0  0  0  0
   38.1440   23.0630   34.4290 C   0  0  0  0  0  0  0  0  0  0  0  0
   36.1480   23.6190   31.2090 H   0  0  0  0  0  0  0  0  0  0  0  0
   36.1430   21.4300   32.3610 H   0  0  0  0  0  0  0  0  0  0  0  0
   37.3930   21.0840   34.3820 H   0  0  0  0  0  0  0  0  0  0  0  0
   38.8730   22.8230   35.6290 N   0  0  0  0  0  0  0  0  0  0  0  0
   38.5720   23.0270   36.9270 C   0  0  0  0  0  0  0  0  0  0  0  0
   37.6150   23.4520   37.2410 H   0  0  0  0  0  0  0  0  0  0  0  0
   39.6090   22.6320   37.7050 N   0  0  0  0  0  0  0  0  0  0  0  0
   40.5910   22.1680   36.9120 C   0  0  0  0  0  0  0  0  0  0  0  0
   41.8340   21.6580   37.2240 C   0  0  0  0  0  0  0  0  0  0  0  0
   42.1820   21.5700   38.2440 H   0  0  0  0  0  0  0  0  0  0  0  0
   42.6340   21.2580   36.1930 N   0  0  0  0  0  0  0  0  0  0  0  0
   42.1610   21.3850   34.9220 C   0  0  0  0  0  0  0  0  0  0  0  0
   42.8540   21.0440   34.1400 H   0  0  0  0  0  0  0  0  0  0  0  0
   40.9470   21.8840   34.6380 N   0  0  0  0  0  0  0  0  0  0  0  0
   40.1030   22.3000   35.6220 C   0  0  0  0  0  0  0  0  0  0  0  0
  1  6  1  0  0  0  0
  1 26  1  0  0  0  0
  2  7  1  6  0  0  0
  2 12  1  0  0  0  0
  3  8  1  1  0  0  0
  3  2  1  0  0  0  0
  3 14  1  0  0  0  0
  4  3  1  0  0  0  0
  5  4  1  0  0  0  0
  5  6  1  0  0  0  0
  6 11  1  1  0  0  0
  6  2  1  0  0  0  0
  9  5  1  0  0  0  0
 10  5  1  0  0  0  0
 12 13  1  0  0  0  0
 14 19  1  0  0  0  0
 15 21  1  0  0  0  0
 15 16  1  0  0  0  0
 16 22  1  0  0  0  0
 17 16  2  0  0  0  0
 17 23  1  0  0  0  0
 18 17  1  0  0  0  0
 19 20  1  0  0  0  0
 19 18  2  0  0  0  0
 20 15  2  0  0  0  0
 25 30  1  0  0  0  0
 25 24  1  0  0  0  0
 26 25  2  0  0  0  0
 27 26  1  0  0  0  0
 27 28  2  0  0  0  0
 28 29  1  0  0  0  0
 29 33  1  0  0  0  0
 29 30  2  0  0  0  0
 30 34  1  0  0  0  0
 31 27  1  0  0  0  0
 32 28  1  0  0  0  0
 34 35  1  0  0  0  0
 35 36  1  0  0  0  0
 35 37  2  0  0  0  0
 38 39  1  0  0  0  0
 38 37  1  0  0  0  0
 39 40  1  0  0  0  0
 41 39  2  0  0  0  0
 42 41  1  0  0  0  0
 43 42  1  0  0  0  0
 44 42  2  0  0  0  0
 44 45  1  0  0  0  0
 45 34  1  0  0  0  0
 45 38  2  0  0  0  0
M  END
>  <minimizedAffinity>
-5.84957933

$$$$

 OpenBabel03272506493D

 45 49  0  0  1  0  0  0  0  0999 V2000
   37.7480   27.2780   31.6580 O   0  0  0  0  0  0  0  0  0  0  0  0
   35.7180   28.5730   31.3920 C   0  0  2  0  0  0  0  0  0  0  0  0
   34.9270   29.2460   32.4740 C   0  0  1  0  0  0  0  0  0  0  0  0
   35.2800   28.6870   33.6650 O   0  0  0  0  0  0  0  0  0  0  0  0
   36.4340   27.9300   33.4900 C   0  0  0  0  0  0  0  0  0  0  0  0
   37.0470   28.3380   32.1770 C   0  0  1  0  0  0  0  0  0  0  0  0
   35.3640   27.5970   31.0780 H   0  0  0  0  0  0  0  0  0  0  0  0
   33.8420   29.2270   32.2460 H   0  0  0  0  0  0  0  0  0  0  0  0
   37.1950   28.1760   34.2890 H   0  0  0  0  0  0  0  0  0  0  0  0
   36.1490   26.8940   33.5960 H   0  0  0  0  0  0  0  0  0  0  0  0
   37.5500   29.2980   32.2390 H   0  0  0  0  0  0  0  0  0  0  0  0
   35.9680   29.4680   30.3310 O   0  0  0  0  0  0  0  0  0  0  0  0
   35.2990   30.2060   30.3270 H   0  0  0  0  0  0  0  0  0  0  0  0
   35.4160   31.0170   32.5030 S   0  0  0  0  0  0  0  0  0  0  0  0
   35.6800   32.3520   36.2260 C   0  0  0  0  0  0  0  0  0  0  0  0
   34.3810   32.7480   36.5570 C   0  0  0  0  0  0  0  0  0  0  0  0
   33.3800   32.5970   35.5890 C   0  0  0  0  0  0  0  0  0  0  0  0
   33.7210   32.0730   34.3800 N   0  0  0  0  0  0  0  0  0  0  0  0
   34.9880   31.7020   34.0980 C   0  0  0  0  0  0  0  0  0  0  0  0
   35.9840   31.8350   35.0140 N   0  0  0  0  0  0  0  0  0  0  0  0
   36.4130   32.4860   37.0000 H   0  0  0  0  0  0  0  0  0  0  0  0
   34.0780   33.1610   37.4950 H   0  0  0  0  0  0  0  0  0  0  0  0
   32.3460   32.8510   35.6900 H   0  0  0  0  0  0  0  0  0  0  0  0
   39.6810   26.3630   33.6810 Cl  0  0  0  0  0  0  0  0  0  0  0  0
   38.4190   25.4480   32.8870 C   0  0  0  0  0  0  0  0  0  0  0  0
   37.5630   25.9940   31.9560 C   0  0  0  0  0  0  0  0  0  0  0  0
   36.5790   25.1660   31.4110 C   0  0  0  0  0  0  0  0  0  0  0  0
   36.4750   23.8490   31.7930 C   0  0  0  0  0  0  0  0  0  0  0  0
   37.3300   23.2930   32.7270 C   0  0  0  0  0  0  0  0  0  0  0  0
   38.3080   24.1030   33.2740 C   0  0  0  0  0  0  0  0  0  0  0  0
   35.8660   25.5110   30.6820 H   0  0  0  0  0  0  0  0  0  0  0  0
   35.7420   23.1510   31.4150 H   0  0  0  0  0  0  0  0  0  0  0  0
   37.2720   22.2710   33.0430 H   0  0  0  0  0  0  0  0  0  0  0  0
   39.1980   23.5480   34.2370 N   0  0  0  0  0  0  0  0  0  0  0  0
   40.3990   22.9450   34.1180 C   0  0  0  0  0  0  0  0  0  0  0  0
   40.8820   22.7990   33.1490 H   0  0  0  0  0  0  0  0  0  0  0  0
   40.8530   22.5850   35.3440 N   0  0  0  0  0  0  0  0  0  0  0  0
   39.9470   22.9540   36.2660 C   0  0  0  0  0  0  0  0  0  0  0  0
   39.9480   22.8110   37.6370 C   0  0  0  0  0  0  0  0  0  0  0  0
   40.7650   22.3380   38.1670 H   0  0  0  0  0  0  0  0  0  0  0  0
   38.8730   23.2900   38.3290 N   0  0  0  0  0  0  0  0  0  0  0  0
   37.8650   23.8790   37.6270 C   0  0  0  0  0  0  0  0  0  0  0  0
   37.0310   24.2420   38.2440 H   0  0  0  0  0  0  0  0  0  0  0  0
   37.8810   24.0090   36.2910 N   0  0  0  0  0  0  0  0  0  0  0  0
   38.9250   23.5520   35.5450 C   0  0  0  0  0  0  0  0  0  0  0  0
  1 26  1  0  0  0  0
  1  6  1  0  0  0  0
  2  7  1  6  0  0  0
  2  6  1  0  0  0  0
  2  3  1  0  0  0  0
  3  8  1  6  0  0  0
  3 14  1  0  0  0  0
  3  4  1  0  0  0  0
  5 10  1  0  0  0  0
  5  4  1  0  0  0  0
  5  9  1  0  0  0  0
  6 11  1  1  0  0  0
  6  5  1  0  0  0  0
 12  2  1  0  0  0  0
 13 12  1  0  0  0  0
 14 19  1  0  0  0  0
 15 16  1  0  0  0  0
 15 21  1  0  0  0  0
 16 22  1  0  0  0  0
 17 23  1  0  0  0  0
 17 16  2  0  0  0  0
 18 17  1  0  0  0  0
 19 18  2  0  0  0  0
 19 20  1  0  0  0  0
 20 15  2  0  0  0  0
 25 30  1  0  0  0  0
 25 24  1  0  0  0  0
 26 25  2  0  0  0  0
 27 28  2  0  0  0  0
 27 26  1  0  0  0  0
 28 29  1  0  0  0  0
 29 33  1  0  0  0  0
 29 30  2  0  0  0  0
 30 34  1  0  0  0  0
 31 27  1  0  0  0  0
 32 28  1  0  0  0  0
 34 45  1  0  0  0  0
 35 34  1  0  0  0  0
 35 37  2  0  0  0  0
 36 35  1  0  0  0  0
 37 38  1  0  0  0  0
 38 39  1  0  0  0  0
 39 40  1  0  0  0  0
 39 41  2  0  0  0  0
 42 43  1  0  0  0  0
 42 41  1  0  0  0  0
 44 42  2  0  0  0  0
 45 38  2  0  0  0  0
 45 44  1  0  0  0  0
M  END
>  <minimizedAffinity>
-5.76044178

$$$$

 OpenBabel03272506493D

 45 49  0  0  1  0  0  0  0  0999 V2000
   36.7710   27.9000   32.5840 O   0  0  0  0  0  0  0  0  0  0  0  0
   35.4330   29.6650   33.5640 C   0  0  2  0  0  0  0  0  0  0  0  0
   34.4950   30.5920   32.8500 C   0  0  1  0  0  0  0  0  0  0  0  0
   34.8100   30.5710   31.5250 O   0  0  0  0  0  0  0  0  0  0  0  0
   35.6600   29.4990   31.2730 C   0  0  0  0  0  0  0  0  0  0  0  0
   35.5820   28.5730   32.4580 C   0  0  1  0  0  0  0  0  0  0  0  0
   36.4290   30.0490   33.7600 H   0  0  0  0  0  0  0  0  0  0  0  0
   34.4920   31.5960   33.3190 H   0  0  0  0  0  0  0  0  0  0  0  0
   35.3010   28.9080   30.3800 H   0  0  0  0  0  0  0  0  0  0  0  0
   36.6290   29.9140   31.0410 H   0  0  0  0  0  0  0  0  0  0  0  0
   34.6650   27.9920   32.4650 H   0  0  0  0  0  0  0  0  0  0  0  0
   34.8030   29.0920   34.6880 O   0  0  0  0  0  0  0  0  0  0  0  0
   34.0400   29.6570   34.9910 H   0  0  0  0  0  0  0  0  0  0  0  0
   32.7950   29.9250   33.0460 S   0  0  0  0  0  0  0  0  0  0  0  0
   30.1390   31.9570   35.1750 C   0  0  0  0  0  0  0  0  0  0  0  0
   30.7310   32.1120   36.4310 C   0  0  0  0  0  0  0  0  0  0  0  0
   32.0050   31.5660   36.6320 C   0  0  0  0  0  0  0  0  0  0  0  0
   32.6000   30.9140   35.5950 N   0  0  0  0  0  0  0  0  0  0  0  0
   31.9960   30.7850   34.3950 C   0  0  0  0  0  0  0  0  0  0  0  0
   30.7600   31.3030   34.1680 N   0  0  0  0  0  0  0  0  0  0  0  0
   29.1630   32.3930   35.0690 H   0  0  0  0  0  0  0  0  0  0  0  0
   30.2940   32.6170   37.2660 H   0  0  0  0  0  0  0  0  0  0  0  0
   32.5850   31.6010   37.5300 H   0  0  0  0  0  0  0  0  0  0  0  0
   38.8100   27.0410   34.5260 Cl  0  0  0  0  0  0  0  0  0  0  0  0
   37.8690   26.0580   33.4280 C   0  0  0  0  0  0  0  0  0  0  0  0
   36.9290   26.5780   32.5660 C   0  0  0  0  0  0  0  0  0  0  0  0
   36.2230   25.6860   31.7560 C   0  0  0  0  0  0  0  0  0  0  0  0
   36.4640   24.3330   31.8200 C   0  0  0  0  0  0  0  0  0  0  0  0
   37.4060   23.8020   32.6820 C   0  0  0  0  0  0  0  0  0  0  0  0
   38.1110   24.6760   33.4890 C   0  0  0  0  0  0  0  0  0  0  0  0
   35.4680   26.0050   31.0580 H   0  0  0  0  0  0  0  0  0  0  0  0
   35.9590   23.5860   31.2250 H   0  0  0  0  0  0  0  0  0  0  0  0
   37.6150   22.7540   32.7520 H   0  0  0  0  0  0  0  0  0  0  0  0
   39.0860   24.1480   34.3830 N   0  0  0  0  0  0  0  0  0  0  0  0
   40.3810   23.8140   34.2160 C   0  0  0  0  0  0  0  0  0  0  0  0
   40.8900   23.9260   33.2560 H   0  0  0  0  0  0  0  0  0  0  0  0
   40.8880   23.3470   35.3830 N   0  0  0  0  0  0  0  0  0  0  0  0
   39.9210   23.3770   36.3170 C   0  0  0  0  0  0  0  0  0  0  0  0
   39.9400   23.0090   37.6460 C   0  0  0  0  0  0  0  0  0  0  0  0
   40.8300   22.6190   38.1230 H   0  0  0  0  0  0  0  0  0  0  0  0
   38.7880   23.1520   38.3630 N   0  0  0  0  0  0  0  0  0  0  0  0
   37.6890   23.6470   37.7270 C   0  0  0  0  0  0  0  0  0  0  0  0
   36.7960   23.7360   38.3610 H   0  0  0  0  0  0  0  0  0  0  0  0
   37.6890   23.9990   36.4310 N   0  0  0  0  0  0  0  0  0  0  0  0
   38.8070   23.8810   35.6630 C   0  0  0  0  0  0  0  0  0  0  0  0
  2  7  1  1  0  0  0
  2 12  1  0  0  0  0
  3 14  1  0  0  0  0
  3  8  1  1  0  0  0
  3  2  1  0  0  0  0
  4  3  1  0  0  0  0
  5  4  1  0  0  0  0
  5  6  1  0  0  0  0
  6 11  1  6  0  0  0
  6  1  1  0  0  0  0
  6  2  1  0  0  0  0
  9  5  1  0  0  0  0
 10  5  1  0  0  0  0
 12 13  1  0  0  0  0
 14 19  1  0  0  0  0
 15 16  1  0  0  0  0
 16 17  2  0  0  0  0
 16 22  1  0  0  0  0
 17 23  1  0  0  0  0
 18 17  1  0  0  0  0
 19 18  2  0  0  0  0
 20 19  1  0  0  0  0
 20 15  2  0  0  0  0
 21 15  1  0  0  0  0
 25 30  1  0  0  0  0
 25 24  1  0  0  0  0
 26  1  1  0  0  0  0
 26 25  2  0  0  0  0
 27 28  2  0  0  0  0
 27 26  1  0  0  0  0
 28 29  1  0  0  0  0
 29 33  1  0  0  0  0
 29 30  2  0  0  0  0
 30 34  1  0  0  0  0
 31 27  1  0  0  0  0
 32 28  1  0  0  0  0
 34 45  1  0  0  0  0
 35 34  1  0  0  0  0
 35 37  2  0  0  0  0
 36 35  1  0  0  0  0
 37 38  1  0  0  0  0
 38 39  1  0  0  0  0
 39 40  1  0  0  0  0
 39 41  2  0  0  0  0
 42 43  1  0  0  0  0
 42 41  1  0  0  0  0
 44 42  2  0  0  0  0
 45 38  2  0  0  0  0
 45 44  1  0  0  0  0
M  END
>  <minimizedAffinity>
-5.66033268

$$$$

 OpenBabel03272506493D

 45 49  0  0  1  0  0  0  0  0999 V2000
   37.4160   26.2790   32.0660 O   0  0  0  0  0  0  0  0  0  0  0  0
   36.9060   28.4190   33.0810 C   0  0  2  0  0  0  0  0  0  0  0  0
   35.9310   29.4450   32.5850 C   0  0  1  0  0  0  0  0  0  0  0  0
   35.6770   29.1860   31.2730 O   0  0  0  0  0  0  0  0  0  0  0  0
   36.1590   27.9200   30.9550 C   0  0  0  0  0  0  0  0  0  0  0  0
   36.4100   27.1940   32.2500 C   0  0  1  0  0  0  0  0  0  0  0  0
   37.9450   28.5780   32.8130 H   0  0  0  0  0  0  0  0  0  0  0  0
   36.2870   30.4720   32.8040 H   0  0  0  0  0  0  0  0  0  0  0  0
   35.3760   27.3240   30.3990 H   0  0  0  0  0  0  0  0  0  0  0  0
   37.0070   28.0620   30.3020 H   0  0  0  0  0  0  0  0  0  0  0  0
   35.4890   26.8510   32.7120 H   0  0  0  0  0  0  0  0  0  0  0  0
   36.6950   28.1550   34.4500 O   0  0  0  0  0  0  0  0  0  0  0  0
   36.2260   28.9180   34.8880 H   0  0  0  0  0  0  0  0  0  0  0  0
   34.3680   29.2290   33.5270 S   0  0  0  0  0  0  0  0  0  0  0  0
   35.5730   31.8330   36.2620 C   0  0  0  0  0  0  0  0  0  0  0  0
   34.4350   32.1010   37.0270 C   0  0  0  0  0  0  0  0  0  0  0  0
   33.2430   31.4500   36.6840 C   0  0  0  0  0  0  0  0  0  0  0  0
   33.2540   30.5920   35.6270 N   0  0  0  0  0  0  0  0  0  0  0  0
   34.3750   30.3590   34.9120 C   0  0  0  0  0  0  0  0  0  0  0  0
   35.5480   30.9750   35.2170 N   0  0  0  0  0  0  0  0  0  0  0  0
   36.4630   32.3550   36.5630 H   0  0  0  0  0  0  0  0  0  0  0  0
   34.3900   32.7660   37.8620 H   0  0  0  0  0  0  0  0  0  0  0  0
   32.2940   31.5490   37.1690 H   0  0  0  0  0  0  0  0  0  0  0  0
   36.0440   24.0480   30.7230 Cl  0  0  0  0  0  0  0  0  0  0  0  0
   36.9630   24.0240   32.2100 C   0  0  0  0  0  0  0  0  0  0  0  0
   37.5730   25.1400   32.7380 C   0  0  0  0  0  0  0  0  0  0  0  0
   38.3020   24.9880   33.9200 C   0  0  0  0  0  0  0  0  0  0  0  0
   38.4010   23.7610   34.5330 C   0  0  0  0  0  0  0  0  0  0  0  0
   37.7920   22.6340   34.0100 C   0  0  0  0  0  0  0  0  0  0  0  0
   37.0680   22.7730   32.8400 C   0  0  0  0  0  0  0  0  0  0  0  0
   38.8130   25.8050   34.3990 H   0  0  0  0  0  0  0  0  0  0  0  0
   38.9450   23.5670   35.4470 H   0  0  0  0  0  0  0  0  0  0  0  0
   37.8520   21.6670   34.4660 H   0  0  0  0  0  0  0  0  0  0  0  0
   36.4340   21.6250   32.2860 N   0  0  0  0  0  0  0  0  0  0  0  0
   35.2550   21.0270   32.5500 C   0  0  0  0  0  0  0  0  0  0  0  0
   34.5700   21.4050   33.3130 H   0  0  0  0  0  0  0  0  0  0  0  0
   35.0980   19.9480   31.7450 N   0  0  0  0  0  0  0  0  0  0  0  0
   36.1790   19.8410   30.9510 C   0  0  0  0  0  0  0  0  0  0  0  0
   36.4900   18.9190   29.9740 C   0  0  0  0  0  0  0  0  0  0  0  0
   35.8270   18.1040   29.7180 H   0  0  0  0  0  0  0  0  0  0  0  0
   37.6800   19.0630   29.3200 N   0  0  0  0  0  0  0  0  0  0  0  0
   38.4870   20.1030   29.6700 C   0  0  0  0  0  0  0  0  0  0  0  0
   39.4290   20.1600   29.1050 H   0  0  0  0  0  0  0  0  0  0  0  0
   38.1670   20.9910   30.6250 N   0  0  0  0  0  0  0  0  0  0  0  0
   36.9950   20.9020   31.3130 C   0  0  0  0  0  0  0  0  0  0  0  0
  1  6  1  0  0  0  0
  1 26  1  0  0  0  0
  2  7  1  6  0  0  0
  2 12  1  0  0  0  0
  3  8  1  1  0  0  0
  3  2  1  0  0  0  0
  3 14  1  0  0  0  0
  4  3  1  0  0  0  0
  5  4  1  0  0  0  0
  5  6  1  0  0  0  0
  6 11  1  1  0  0  0
  6  2  1  0  0  0  0
  9  5  1  0  0  0  0
 10  5  1  0  0  0  0
 12 13  1  0  0  0  0
 14 19  1  0  0  0  0
 15 21  1  0  0  0  0
 15 16  1  0  0  0  0
 16 22  1  0  0  0  0
 17 16  2  0  0  0  0
 17 23  1  0  0  0  0
 18 17  1  0  0  0  0
 19 20  1  0  0  0  0
 19 18  2  0  0  0  0
 20 15  2  0  0  0  0
 24 25  1  0  0  0  0
 25 26  2  0  0  0  0
 25 30  1  0  0  0  0
 26 27  1  0  0  0  0
 27 31  1  0  0  0  0
 27 28  2  0  0  0  0
 28 32  1  0  0  0  0
 29 33  1  0  0  0  0
 29 28  1  0  0  0  0
 30 29  2  0  0  0  0
 34 35  1  0  0  0  0
 34 30  1  0  0  0  0
 35 36  1  0  0  0  0
 37 35  2  0  0  0  0
 38 45  1  0  0  0  0
 38 37  1  0  0  0  0
 39 38  2  0  0  0  0
 40 39  1  0  0  0  0
 41 42  2  0  0  0  0
 41 39  1  0  0  0  0
 42 44  1  0  0  0  0
 43 42  1  0  0  0  0
 44 45  2  0  0  0  0
 45 34  1  0  0  0  0
M  END
>  <minimizedAffinity>
-5.63543653

$$$$

 OpenBabel03272506493D

 45 49  0  0  1  0  0  0  0  0999 V2000
   37.3560   26.1370   31.2220 O   0  0  0  0  0  0  0  0  0  0  0  0
   36.9590   28.1800   32.4630 C   0  0  2  0  0  0  0  0  0  0  0  0
   36.2760   29.4200   31.9680 C   0  0  1  0  0  0  0  0  0  0  0  0
   36.2750   29.3870   30.6070 O   0  0  0  0  0  0  0  0  0  0  0  0
   36.6240   28.1100   30.1800 C   0  0  0  0  0  0  0  0  0  0  0  0
   36.4790   27.1840   31.3590 C   0  0  1  0  0  0  0  0  0  0  0  0
   38.0430   28.1850   32.4280 H   0  0  0  0  0  0  0  0  0  0  0  0
   36.7230   30.3280   32.4190 H   0  0  0  0  0  0  0  0  0  0  0  0
   35.9000   27.7420   29.3930 H   0  0  0  0  0  0  0  0  0  0  0  0
   37.6040   28.1830   29.7350 H   0  0  0  0  0  0  0  0  0  0  0  0
   35.4400   26.9530   31.5740 H   0  0  0  0  0  0  0  0  0  0  0  0
   36.4210   27.7790   33.7030 O   0  0  0  0  0  0  0  0  0  0  0  0
   35.9860   28.5470   34.1640 H   0  0  0  0  0  0  0  0  0  0  0  0
   34.5320   29.3630   32.5440 S   0  0  0  0  0  0  0  0  0  0  0  0
   33.8000   32.9790   31.0940 C   0  0  0  0  0  0  0  0  0  0  0  0
   32.4110   33.0350   30.9560 C   0  0  0  0  0  0  0  0  0  0  0  0
   31.6670   31.9080   31.3270 C   0  0  0  0  0  0  0  0  0  0  0  0
   32.3320   30.8190   31.8010 N   0  0  0  0  0  0  0  0  0  0  0  0
   33.6770   30.8030   31.9200 C   0  0  0  0  0  0  0  0  0  0  0  0
   34.4290   31.8800   31.5680 N   0  0  0  0  0  0  0  0  0  0  0  0
   34.3280   33.8670   30.7980 H   0  0  0  0  0  0  0  0  0  0  0  0
   31.8560   33.8720   30.5890 H   0  0  0  0  0  0  0  0  0  0  0  0
   30.6030   31.7970   31.2810 H   0  0  0  0  0  0  0  0  0  0  0  0
   39.4100   25.5460   33.2460 Cl  0  0  0  0  0  0  0  0  0  0  0  0
   38.1150   24.5190   32.6760 C   0  0  0  0  0  0  0  0  0  0  0  0
   37.2010   24.9140   31.7240 C   0  0  0  0  0  0  0  0  0  0  0  0
   36.1950   24.0120   31.3700 C   0  0  0  0  0  0  0  0  0  0  0  0
   36.1260   22.7690   31.9560 C   0  0  0  0  0  0  0  0  0  0  0  0
   37.0390   22.3630   32.9130 C   0  0  0  0  0  0  0  0  0  0  0  0
   38.0390   23.2490   33.2710 C   0  0  0  0  0  0  0  0  0  0  0  0
   35.4390   24.2390   30.6400 H   0  0  0  0  0  0  0  0  0  0  0  0
   35.3800   22.0200   31.7320 H   0  0  0  0  0  0  0  0  0  0  0  0
   37.0100   21.4020   33.3840 H   0  0  0  0  0  0  0  0  0  0  0  0
   38.9880   22.8500   34.2540 N   0  0  0  0  0  0  0  0  0  0  0  0
   40.1750   22.2160   34.1620 C   0  0  0  0  0  0  0  0  0  0  0  0
   40.5920   21.9010   33.2020 H   0  0  0  0  0  0  0  0  0  0  0  0
   40.7080   22.0600   35.3980 N   0  0  0  0  0  0  0  0  0  0  0  0
   39.8670   22.5940   36.3010 C   0  0  0  0  0  0  0  0  0  0  0  0
   39.9590   22.6830   37.6750 C   0  0  0  0  0  0  0  0  0  0  0  0
   40.8070   22.2930   38.2220 H   0  0  0  0  0  0  0  0  0  0  0  0
   38.9350   23.2890   38.3430 N   0  0  0  0  0  0  0  0  0  0  0  0
   37.8850   23.7680   37.6180 C   0  0  0  0  0  0  0  0  0  0  0  0
   37.0960   24.2440   38.2180 H   0  0  0  0  0  0  0  0  0  0  0  0
   37.8130   23.6710   36.2810 N   0  0  0  0  0  0  0  0  0  0  0  0
   38.8020   23.0780   35.5580 C   0  0  0  0  0  0  0  0  0  0  0  0
  1  6  1  0  0  0  0
  1 26  1  0  0  0  0
  2  7  1  1  0  0  0
  2 12  1  0  0  0  0
  3  8  1  1  0  0  0
  3  2  1  0  0  0  0
  3 14  1  0  0  0  0
  4  3  1  0  0  0  0
  5  4  1  0  0  0  0
  5  6  1  0  0  0  0
  6 11  1  1  0  0  0
  6  2  1  0  0  0  0
  9  5  1  0  0  0  0
 10  5  1  0  0  0  0
 12 13  1  0  0  0  0
 15 20  1  0  0  0  0
 16 15  2  0  0  0  0
 16 17  1  0  0  0  0
 17 18  2  0  0  0  0
 18 19  1  0  0  0  0
 19 14  1  0  0  0  0
 20 19  2  0  0  0  0
 21 15  1  0  0  0  0
 22 16  1  0  0  0  0
 23 17  1  0  0  0  0
 25 24  1  0  0  0  0
 25 30  1  0  0  0  0
 26 25  2  0  0  0  0
 27 26  1  0  0  0  0
 27 28  2  0  0  0  0
 28 29  1  0  0  0  0
 29 30  2  0  0  0  0
 29 33  1  0  0  0  0
 30 34  1  0  0  0  0
 31 27  1  0  0  0  0
 32 28  1  0  0  0  0
 34 45  1  0  0  0  0
 35 34  1  0  0  0  0
 35 37  2  0  0  0  0
 36 35  1  0  0  0  0
 37 38  1  0  0  0  0
 38 39  1  0  0  0  0
 39 40  1  0  0  0  0
 39 41  2  0  0  0  0
 42 43  1  0  0  0  0
 42 41  1  0  0  0  0
 44 42  2  0  0  0  0
 45 44  1  0  0  0  0
 45 38  2  0  0  0  0
M  END
>  <minimizedAffinity>
-5.58189297

$$$$

 OpenBabel03272506493D

 45 49  0  0  1  0  0  0  0  0999 V2000
   37.1030   27.0880   32.3460 O   0  0  0  0  0  0  0  0  0  0  0  0
   38.7760   25.5620   33.2080 C   0  0  2  0  0  0  0  0  0  0  0  0
   40.1000   25.2270   32.5880 C   0  0  1  0  0  0  0  0  0  0  0  0
   40.0530   25.5850   31.2750 O   0  0  0  0  0  0  0  0  0  0  0  0
   38.9380   26.3890   31.0600 C   0  0  0  0  0  0  0  0  0  0  0  0
   38.4560   26.8620   32.4050 C   0  0  1  0  0  0  0  0  0  0  0  0
   37.9660   24.8670   33.0120 H   0  0  0  0  0  0  0  0  0  0  0  0
   40.3740   24.1700   32.7800 H   0  0  0  0  0  0  0  0  0  0  0  0
   39.2230   27.3150   30.4770 H   0  0  0  0  0  0  0  0  0  0  0  0
   38.2440   25.8120   30.4670 H   0  0  0  0  0  0  0  0  0  0  0  0
   39.0850   27.6470   32.8130 H   0  0  0  0  0  0  0  0  0  0  0  0
   38.9360   25.8950   34.5690 O   0  0  0  0  0  0  0  0  0  0  0  0
   39.7800   25.5060   34.9310 H   0  0  0  0  0  0  0  0  0  0  0  0
   41.3790   26.2520   33.4170 S   0  0  0  0  0  0  0  0  0  0  0  0
   42.1420   23.3800   36.0410 C   0  0  0  0  0  0  0  0  0  0  0  0
   43.3990   23.6960   36.5630 C   0  0  0  0  0  0  0  0  0  0  0  0
   44.0400   24.8460   36.0850 C   0  0  0  0  0  0  0  0  0  0  0  0
   43.4080   25.5950   35.1390 N   0  0  0  0  0  0  0  0  0  0  0  0
   42.1920   25.2560   34.6590 C   0  0  0  0  0  0  0  0  0  0  0  0
   41.5430   24.1460   35.1010 N   0  0  0  0  0  0  0  0  0  0  0  0
   41.6890   22.4900   36.4390 H   0  0  0  0  0  0  0  0  0  0  0  0
   43.9230   23.1340   37.3050 H   0  0  0  0  0  0  0  0  0  0  0  0
   44.9970   25.2200   36.3830 H   0  0  0  0  0  0  0  0  0  0  0  0
   36.5920   28.2430   35.0050 Cl  0  0  0  0  0  0  0  0  0  0  0  0
   36.2090   28.9110   33.4350 C   0  0  0  0  0  0  0  0  0  0  0  0
   36.5100   28.2760   32.2510 C   0  0  0  0  0  0  0  0  0  0  0  0
   36.1760   28.9250   31.0600 C   0  0  0  0  0  0  0  0  0  0  0  0
   35.5650   30.1570   31.0760 C   0  0  0  0  0  0  0  0  0  0  0  0
   35.2590   30.8020   32.2600 C   0  0  0  0  0  0  0  0  0  0  0  0
   35.5850   30.1690   33.4460 C   0  0  0  0  0  0  0  0  0  0  0  0
   36.3790   28.5040   30.0900 H   0  0  0  0  0  0  0  0  0  0  0  0
   35.2770   30.7160   30.1970 H   0  0  0  0  0  0  0  0  0  0  0  0
   34.7830   31.7600   32.3030 H   0  0  0  0  0  0  0  0  0  0  0  0
   35.2780   30.8180   34.6760 N   0  0  0  0  0  0  0  0  0  0  0  0
   36.0000   31.6240   35.4790 C   0  0  0  0  0  0  0  0  0  0  0  0
   37.0300   31.9050   35.2460 H   0  0  0  0  0  0  0  0  0  0  0  0
   35.2550   31.9900   36.5510 N   0  0  0  0  0  0  0  0  0  0  0  0
   34.0410   31.4200   36.4470 C   0  0  0  0  0  0  0  0  0  0  0  0
   32.9420   31.4860   37.2770 C   0  0  0  0  0  0  0  0  0  0  0  0
   32.9440   32.0640   38.1920 H   0  0  0  0  0  0  0  0  0  0  0  0
   31.8250   30.7910   36.9110 N   0  0  0  0  0  0  0  0  0  0  0  0
   31.8620   30.0760   35.7520 C   0  0  0  0  0  0  0  0  0  0  0  0
   30.9310   29.5410   35.5170 H   0  0  0  0  0  0  0  0  0  0  0  0
   32.9420   30.0230   34.9570 N   0  0  0  0  0  0  0  0  0  0  0  0
   34.0850   30.6940   35.2670 C   0  0  0  0  0  0  0  0  0  0  0  0
  1  6  1  0  0  0  0
  2  7  1  6  0  0  0
  2 12  1  0  0  0  0
  3  8  1  1  0  0  0
  3  2  1  0  0  0  0
  3 14  1  0  0  0  0
  4  3  1  0  0  0  0
  5  4  1  0  0  0  0
  5  6  1  0  0  0  0
  6 11  1  1  0  0  0
  6  2  1  0  0  0  0
  9  5  1  0  0  0  0
 10  5  1  0  0  0  0
 12 13  1  0  0  0  0
 14 19  1  0  0  0  0
 15 21  1  0  0  0  0
 15 16  1  0  0  0  0
 16 22  1  0  0  0  0
 17 23  1  0  0  0  0
 17 16  2  0  0  0  0
 18 17  1  0  0  0  0
 19 20  1  0  0  0  0
 19 18  2  0  0  0  0
 20 15  2  0  0  0  0
 25 30  1  0  0  0  0
 25 24  1  0  0  0  0
 26  1  1  0  0  0  0
 26 25  2  0  0  0  0
 27 28  2  0  0  0  0
 27 26  1  0  0  0  0
 28 29  1  0  0  0  0
 29 33  1  0  0  0  0
 29 30  2  0  0  0  0
 30 34  1  0  0  0  0
 31 27  1  0  0  0  0
 32 28  1  0  0  0  0
 34 45  1  0  0  0  0
 34 35  1  0  0  0  0
 35 37  2  0  0  0  0
 36 35  1  0  0  0  0
 38 37  1  0  0  0  0
 38 39  1  0  0  0  0
 39 40  1  0  0  0  0
 41 39  2  0  0  0  0
 42 41  1  0  0  0  0
 43 42  1  0  0  0  0
 44 45  1  0  0  0  0
 44 42  2  0  0  0  0
 45 38  2  0  0  0  0
M  END
>  <minimizedAffinity>
-5.52626467

$$$$

 OpenBabel03272506493D

 45 49  0  0  1  0  0  0  0  0999 V2000
   38.4330   26.4610   31.8120 O   0  0  0  0  0  0  0  0  0  0  0  0
   36.3800   27.4620   31.0050 C   0  0  2  0  0  0  0  0  0  0  0  0
   35.5230   28.4670   31.7160 C   0  0  1  0  0  0  0  0  0  0  0  0
   35.8400   28.4300   33.0400 O   0  0  0  0  0  0  0  0  0  0  0  0
   37.0220   27.7160   33.2070 C   0  0  0  0  0  0  0  0  0  0  0  0
   37.6800   27.6080   31.8570 C   0  0  1  0  0  0  0  0  0  0  0  0
   36.0680   26.4260   31.0860 H   0  0  0  0  0  0  0  0  0  0  0  0
   34.4500   28.3130   31.4820 H   0  0  0  0  0  0  0  0  0  0  0  0
   37.7400   28.2850   33.8690 H   0  0  0  0  0  0  0  0  0  0  0  0
   36.7630   26.7910   33.7000 H   0  0  0  0  0  0  0  0  0  0  0  0
   38.1510   28.5380   31.5550 H   0  0  0  0  0  0  0  0  0  0  0  0
   36.6490   27.8840   29.6870 O   0  0  0  0  0  0  0  0  0  0  0  0
   35.9590   28.5340   29.3760 H   0  0  0  0  0  0  0  0  0  0  0  0
   35.9590   30.1290   31.0670 S   0  0  0  0  0  0  0  0  0  0  0  0
   33.7010   32.2420   33.5460 C   0  0  0  0  0  0  0  0  0  0  0  0
   34.5510   33.2300   34.0510 C   0  0  0  0  0  0  0  0  0  0  0  0
   35.8800   33.2450   33.6080 C   0  0  0  0  0  0  0  0  0  0  0  0
   36.2740   32.3000   32.7100 N   0  0  0  0  0  0  0  0  0  0  0  0
   35.4220   31.3620   32.2450 C   0  0  0  0  0  0  0  0  0  0  0  0
   34.1270   31.3190   32.6560 N   0  0  0  0  0  0  0  0  0  0  0  0
   32.6920   32.2720   33.9150 H   0  0  0  0  0  0  0  0  0  0  0  0
   34.2760   33.9860   34.7550 H   0  0  0  0  0  0  0  0  0  0  0  0
   36.6470   33.9320   33.8990 H   0  0  0  0  0  0  0  0  0  0  0  0
   39.5690   25.9680   34.4820 Cl  0  0  0  0  0  0  0  0  0  0  0  0
   38.5540   24.9180   33.5190 C   0  0  0  0  0  0  0  0  0  0  0  0
   38.0720   25.2670   32.2770 C   0  0  0  0  0  0  0  0  0  0  0  0
   37.2480   24.3520   31.6160 C   0  0  0  0  0  0  0  0  0  0  0  0
   36.9360   23.1430   32.1920 C   0  0  0  0  0  0  0  0  0  0  0  0
   37.4160   22.7840   33.4380 C   0  0  0  0  0  0  0  0  0  0  0  0
   38.2310   23.6820   34.1020 C   0  0  0  0  0  0  0  0  0  0  0  0
   36.8240   24.5450   30.6460 H   0  0  0  0  0  0  0  0  0  0  0  0
   36.3080   22.3870   31.7410 H   0  0  0  0  0  0  0  0  0  0  0  0
   37.1890   21.8490   33.9090 H   0  0  0  0  0  0  0  0  0  0  0  0
   38.7350   23.3300   35.3860 N   0  0  0  0  0  0  0  0  0  0  0  0
   38.2670   23.5440   36.6320 C   0  0  0  0  0  0  0  0  0  0  0  0
   37.3310   24.0770   36.8170 H   0  0  0  0  0  0  0  0  0  0  0  0
   39.1190   23.0090   37.5400 N   0  0  0  0  0  0  0  0  0  0  0  0
   40.1480   22.4440   36.8850 C   0  0  0  0  0  0  0  0  0  0  0  0
   41.2610   21.7790   37.3580 C   0  0  0  0  0  0  0  0  0  0  0  0
   41.4360   21.6280   38.4140 H   0  0  0  0  0  0  0  0  0  0  0  0
   42.1550   21.3040   36.4420 N   0  0  0  0  0  0  0  0  0  0  0  0
   41.8980   21.5130   35.1210 C   0  0  0  0  0  0  0  0  0  0  0  0
   42.6580   21.1050   34.4380 H   0  0  0  0  0  0  0  0  0  0  0  0
   40.8100   22.1630   34.6790 N   0  0  0  0  0  0  0  0  0  0  0  0
   39.8810   22.6610   35.5420 C   0  0  0  0  0  0  0  0  0  0  0  0
  1  6  1  0  0  0  0
  1 26  1  0  0  0  0
  2  7  1  1  0  0  0
  2  3  1  0  0  0  0
  2  6  1  0  0  0  0
  3  8  1  6  0  0  0
  3  4  1  0  0  0  0
  4  5  1  0  0  0  0
  5 10  1  0  0  0  0
  5  9  1  0  0  0  0
  6 11  1  6  0  0  0
  6  5  1  0  0  0  0
 12  2  1  0  0  0  0
 13 12  1  0  0  0  0
 14  3  1  0  0  0  0
 14 19  1  0  0  0  0
 15 21  1  0  0  0  0
 15 16  1  0  0  0  0
 16 22  1  0  0  0  0
 17 23  1  0  0  0  0
 17 16  2  0  0  0  0
 18 17  1  0  0  0  0
 19 20  1  0  0  0  0
 19 18  2  0  0  0  0
 20 15  2  0  0  0  0
 25 30  1  0  0  0  0
 25 24  1  0  0  0  0
 26 25  2  0  0  0  0
 27 28  2  0  0  0  0
 27 26  1  0  0  0  0
 28 29  1  0  0  0  0
 29 33  1  0  0  0  0
 29 30  2  0  0  0  0
 30 34  1  0  0  0  0
 31 27  1  0  0  0  0
 32 28  1  0  0  0  0
 34 45  1  0  0  0  0
 34 35  1  0  0  0  0
 35 36  1  0  0  0  0
 35 37  2  0  0  0  0
 38 39  1  0  0  0  0
 38 37  1  0  0  0  0
 39 40  1  0  0  0  0
 41 39  2  0  0  0  0
 42 41  1  0  0  0  0
 43 42  1  0  0  0  0
 44 42  2  0  0  0  0
 44 45  1  0  0  0  0
 45 38  2  0  0  0  0
M  END
>  <minimizedAffinity>
-5.52579212

$$$$
