
     RDKit          3D

 23 25  0  0  0  0  0  0  0  0999 V2000
   37.3076   30.2148   51.4228 C   0  0  0  0  0  0  0  0  0  0  0  0
   38.0925   30.7496   50.3972 C   0  0  0  0  0  0  0  0  0  0  0  0
   37.7396   30.4203   49.0669 C   0  0  0  0  0  0  0  0  0  0  0  0
   36.6570   29.6031   48.8757 N   0  0  0  0  0  0  0  0  0  0  0  0
   35.9421   29.1204   49.8986 C   0  0  0  0  0  0  0  0  0  0  0  0
   36.2549   29.4176   51.1869 N   0  0  0  0  0  0  0  0  0  0  0  0
   34.8471   28.2862   49.5518 N   0  0  0  0  0  0  0  0  0  0  0  0
   37.5127   30.4191   52.4572 H   0  0  0  0  0  0  0  0  0  0  0  0
   38.9329   31.3877   50.6202 H   0  0  0  0  0  0  0  0  0  0  0  0
   34.6244   27.2942   49.7780 H   0  0  0  0  0  0  0  0  0  0  0  0
   34.1176   28.7689   48.9459 H   0  0  0  0  0  0  0  0  0  0  0  0
   38.5065   30.9390   47.9872 N   0  0  0  0  0  0  0  0  0  0  0  0
   39.8206   31.2345   48.1964 C   0  0  0  0  0  0  0  0  0  0  0  0
   40.4355   31.1477   49.0758 H   0  0  0  0  0  0  0  0  0  0  0  0
   40.3786   31.7104   47.0695 N   0  0  0  0  0  0  0  0  0  0  0  0
   39.4216   31.7230   46.1266 C   0  0  0  0  0  0  0  0  0  0  0  0
   39.2941   32.0760   44.7818 C   0  0  0  0  0  0  0  0  0  0  0  0
   40.1919   32.4590   44.2960 H   0  0  0  0  0  0  0  0  0  0  0  0
   38.1063   31.9334   44.1604 N   0  0  0  0  0  0  0  0  0  0  0  0
   37.0126   31.4614   44.7706 C   0  0  0  0  0  0  0  0  0  0  0  0
   36.1475   31.4042   44.1561 H   0  0  0  0  0  0  0  0  0  0  0  0
   37.0743   31.1001   46.0824 N   0  0  0  0  0  0  0  0  0  0  0  0
   38.2618   31.2441   46.6983 C   0  0  0  0  0  0  0  0  0  0  0  0
  2  1  2  0
  3  2  1  0
  4  3  2  0
  4  5  1  0
  5  6  2  0
  6  1  1  0
  7  5  1  0
  1  8  1  0
  2  9  1  0
  7 10  1  0
  7 11  1  0
 12 13  1  0
 13 14  1  0
 13 15  2  0
 15 16  1  0
 16 17  2  0
 17 18  1  0
 17 19  1  0
 19 20  2  0
 20 21  1  0
 20 22  1  0
 22 23  2  0
 23 12  1  0
 23 16  1  0
  3 12  1  0
M  ISO  5   8  14   9  14  14  15  18  16  21  16
M  END
>  <DihAtoms>  (1) 
1,2,11,12

>  <DihDeg>  (1) 
-107.19895442890736

$$$$
