
 OpenBabel03272505513D

 47 51  0  0  1  0  0  0  0  0999 V2000
   35.0820   29.6550   45.4320 N   0  0  2  0  0  0  0  0  0  0  0  0
   36.4050   30.2730   45.3240 C   0  0  0  0  0  0  0  0  0  0  0  0
   36.7120   30.3990   43.8500 C   0  0  0  0  0  0  0  0  0  0  0  0
   35.5690   29.7200   43.1950 C   0  0  0  0  0  0  0  0  0  0  0  0
   34.4180   29.8970   44.2010 C   0  0  1  0  0  0  0  0  0  0  0  0
   37.1720   29.7700   45.9120 H   0  0  0  0  0  0  0  0  0  0  0  0
   36.2500   31.3290   45.6950 H   0  0  0  0  0  0  0  0  0  0  0  0
   36.8780   31.4410   43.5180 H   0  0  0  0  0  0  0  0  0  0  0  0
   37.6360   29.8050   43.6720 H   0  0  0  0  0  0  0  0  0  0  0  0
   35.3660   30.2490   42.2380 H   0  0  0  0  0  0  0  0  0  0  0  0
   35.7310   28.6720   42.9410 H   0  0  0  0  0  0  0  0  0  0  0  0
   34.1220   30.9140   43.9650 H   0  0  0  0  0  0  0  0  0  0  0  0
   37.1250   29.2120   50.3630 C   0  0  0  0  0  0  0  0  0  0  0  0
   37.2820   30.5640   50.7050 C   0  0  0  0  0  0  0  0  0  0  0  0
   36.5250   31.4860   49.9890 C   0  0  0  0  0  0  0  0  0  0  0  0
   35.6940   31.0230   49.0180 N   0  0  0  0  0  0  0  0  0  0  0  0
   35.5800   29.7300   48.7300 C   0  0  0  0  0  0  0  0  0  0  0  0
   36.2910   28.8230   49.3980 N   0  0  0  0  0  0  0  0  0  0  0  0
   34.6910   29.3170   47.7060 N   0  0  0  0  0  0  0  0  0  0  0  0
   34.0590   28.0010   47.7250 C   0  0  0  0  0  0  0  0  0  0  0  0
   32.5790   28.1490   47.6090 C   0  0  0  0  0  0  0  0  0  0  0  0
   32.1050   29.3630   47.1740 N   0  0  0  0  0  0  0  0  0  0  0  0
   32.9270   30.2690   46.4080 C   0  0  0  0  0  0  0  0  0  0  0  0
   34.3620   30.1770   46.5830 C   0  0  2  0  0  0  0  0  0  0  0  0
   37.7420   28.5600   50.9600 H   0  0  0  0  0  0  0  0  0  0  0  0
   37.9070   30.9980   51.4470 H   0  0  0  0  0  0  0  0  0  0  0  0
   36.5580   32.5520   50.1580 H   0  0  0  0  0  0  0  0  0  0  0  0
   34.5370   27.3200   47.0220 H   0  0  0  0  0  0  0  0  0  0  0  0
   34.2980   27.5600   48.7420 H   0  0  0  0  0  0  0  0  0  0  0  0
   32.0880   27.8770   48.5660 H   0  0  0  0  0  0  0  0  0  0  0  0
   32.2420   27.3400   46.8980 H   0  0  0  0  0  0  0  0  0  0  0  0
   31.2220   29.7430   47.5220 H   0  0  0  0  0  0  0  0  0  0  0  0
   32.4520   30.3260   45.4430 H   0  0  0  0  0  0  0  0  0  0  0  0
   32.6200   31.2780   46.8630 H   0  0  0  0  0  0  0  0  0  0  0  0
   34.8410   31.1790   46.8080 H   0  0  0  0  0  0  0  0  0  0  0  0
   33.4820   28.8820   43.7620 N   0  0  0  0  0  0  0  0  0  0  0  0
   32.2720   28.9390   43.1230 C   0  0  0  0  0  0  0  0  0  0  0  0
   31.8640   29.9260   42.8660 H   0  0  0  0  0  0  0  0  0  0  0  0
   31.7980   27.6950   42.9270 N   0  0  0  0  0  0  0  0  0  0  0  0
   32.6920   26.8090   43.4360 C   0  0  0  0  0  0  0  0  0  0  0  0
   32.5690   25.4370   43.4310 C   0  0  0  0  0  0  0  0  0  0  0  0
   31.7110   24.9410   43.0010 H   0  0  0  0  0  0  0  0  0  0  0  0
   33.5940   24.7600   43.9970 N   0  0  0  0  0  0  0  0  0  0  0  0
   34.6320   25.4400   44.5130 C   0  0  0  0  0  0  0  0  0  0  0  0
   35.4610   24.8790   44.9720 H   0  0  0  0  0  0  0  0  0  0  0  0
   34.6890   26.7780   44.4860 N   0  0  0  0  0  0  0  0  0  0  0  0
   33.7370   27.5510   43.9520 C   0  0  0  0  0  0  0  0  0  0  0  0
  1  2  1  6  0  0  0
  1 24  1  0  0  0  0
  2  7  1  0  0  0  0
  2  6  1  0  0  0  0
  3  2  1  0  0  0  0
  4  3  1  0  0  0  0
  4  5  1  0  0  0  0
  5 12  1  6  0  0  0
  5  1  1  0  0  0  0
  8  3  1  0  0  0  0
  9  3  1  0  0  0  0
 10  4  1  0  0  0  0
 11  4  1  0  0  0  0
 13 14  1  0  0  0  0
 13 25  1  0  0  0  0
 14 26  1  0  0  0  0
 15 27  1  0  0  0  0
 15 14  2  0  0  0  0
 16 15  1  0  0  0  0
 17 16  2  0  0  0  0
 17 18  1  0  0  0  0
 18 13  2  0  0  0  0
 19 20  1  0  0  0  0
 19 17  1  0  0  0  0
 20 29  1  0  0  0  0
 21 20  1  0  0  0  0
 21 30  1  0  0  0  0
 22 32  1  0  0  0  0
 22 21  1  0  0  0  0
 23 24  1  0  0  0  0
 23 34  1  0  0  0  0
 23 22  1  0  0  0  0
 24 35  1  1  0  0  0
 24 19  1  0  0  0  0
 28 20  1  0  0  0  0
 31 21  1  0  0  0  0
 33 23  1  0  0  0  0
 36 47  1  0  0  0  0
 36  5  1  0  0  0  0
 37 36  1  0  0  0  0
 38 37  1  0  0  0  0
 39 37  2  0  0  0  0
 39 40  1  0  0  0  0
 40 47  1  0  0  0  0
 41 40  2  0  0  0  0
 41 43  1  0  0  0  0
 42 41  1  0  0  0  0
 43 44  2  0  0  0  0
 44 45  1  0  0  0  0
 46 44  1  0  0  0  0
 47 46  2  0  0  0  0
M  END
>  <minimizedAffinity>
-4.54375172

>  <minimizedRMSD>
0.87470293

$$$$
