
 OpenBabel03272501483D

 23 25  0  0  0  0  0  0  0  0999 V2000
   37.0460   29.5580   51.3080 C   0  0  0  0  0  0  0  0  0  0  0  0
   37.9100   30.3530   50.5500 C   0  0  0  0  0  0  0  0  0  0  0  0
   37.3590   31.0430   49.4440 C   0  0  0  0  0  0  0  0  0  0  0  0
   36.0210   30.8850   49.1930 N   0  0  0  0  0  0  0  0  0  0  0  0
   35.2420   30.1090   49.9560 C   0  0  0  0  0  0  0  0  0  0  0  0
   35.7410   29.4340   51.0240 N   0  0  0  0  0  0  0  0  0  0  0  0
   33.8760   30.0390   49.5780 N   0  0  0  0  0  0  0  0  0  0  0  0
   37.3900   29.0040   52.1620 H   0  0  0  0  0  0  0  0  0  0  0  0
   38.9550   30.4320   50.8050 H   0  0  0  0  0  0  0  0  0  0  0  0
   33.2690   29.2430   49.2890 H   0  0  0  0  0  0  0  0  0  0  0  0
   33.3800   30.9800   49.5950 H   0  0  0  0  0  0  0  0  0  0  0  0
   38.1960   31.8650   48.6400 N   0  0  0  0  0  0  0  0  0  0  0  0
   38.5540   33.0950   49.1080 C   0  0  0  0  0  0  0  0  0  0  0  0
   38.3120   33.6020   50.0260 H   0  0  0  0  0  0  0  0  0  0  0  0
   39.3420   33.7230   48.2170 N   0  0  0  0  0  0  0  0  0  0  0  0
   39.4940   32.8970   47.1690 C   0  0  0  0  0  0  0  0  0  0  0  0
   40.1510   32.8930   45.9380 C   0  0  0  0  0  0  0  0  0  0  0  0
   40.7250   33.7880   45.6940 H   0  0  0  0  0  0  0  0  0  0  0  0
   40.0530   31.8200   45.1280 N   0  0  0  0  0  0  0  0  0  0  0  0
   39.3460   30.7280   45.4420 C   0  0  0  0  0  0  0  0  0  0  0  0
   39.3600   29.9600   44.7070 H   0  0  0  0  0  0  0  0  0  0  0  0
   38.6820   30.6720   46.6290 N   0  0  0  0  0  0  0  0  0  0  0  0
   38.7820   31.7460   47.4340 C   0  0  0  0  0  0  0  0  0  0  0  0
  1  8  1  0  0  0  0
  2  9  1  0  0  0  0
  2  1  2  0  0  0  0
  3  2  1  0  0  0  0
  4  3  2  0  0  0  0
  4  5  1  0  0  0  0
  5  6  2  0  0  0  0
  6  1  1  0  0  0  0
  7 11  1  0  0  0  0
  7  5  1  0  0  0  0
 10  7  1  0  0  0  0
 12 13  1  0  0  0  0
 12  3  1  0  0  0  0
 13 14  1  0  0  0  0
 15 13  2  0  0  0  0
 16 23  1  0  0  0  0
 16 15  1  0  0  0  0
 17 16  2  0  0  0  0
 18 17  1  0  0  0  0
 19 20  2  0  0  0  0
 19 17  1  0  0  0  0
 20 22  1  0  0  0  0
 21 20  1  0  0  0  0
 22 23  2  0  0  0  0
 23 12  1  0  0  0  0
M  END
>  <minimizedAffinity>
-5.99046612

>  <minimizedRMSD>
1.64823961

$$$$
