
 OpenBabel03272501083D

 43 47  0  0  1  0  0  0  0  0999 V2000
   40.5710   31.5130   44.7650 Cl  0  0  0  0  0  0  0  0  0  0  0  0
   38.9610   30.8670   44.6310 C   0  0  0  0  0  0  0  0  0  0  0  0
   38.0630   31.3640   45.5590 C   0  0  0  0  0  0  0  0  0  0  0  0
   36.7780   30.8500   45.4570 C   0  0  0  0  0  0  0  0  0  0  0  0
   36.4140   29.9180   44.5130 C   0  0  0  0  0  0  0  0  0  0  0  0
   37.3580   29.4710   43.6260 C   0  0  0  0  0  0  0  0  0  0  0  0
   38.6670   29.9330   43.6570 C   0  0  0  0  0  0  0  0  0  0  0  0
   35.9490   31.1240   46.0990 H   0  0  0  0  0  0  0  0  0  0  0  0
   35.4230   29.5010   44.4120 H   0  0  0  0  0  0  0  0  0  0  0  0
   37.1780   28.7330   42.8350 H   0  0  0  0  0  0  0  0  0  0  0  0
   39.7240   29.5390   42.7870 N   0  0  0  0  0  0  0  0  0  0  0  0
   40.9650   30.0420   42.6540 C   0  0  0  0  0  0  0  0  0  0  0  0
   41.3640   30.8770   43.2300 H   0  0  0  0  0  0  0  0  0  0  0  0
   41.5720   29.3190   41.6970 N   0  0  0  0  0  0  0  0  0  0  0  0
   40.7280   28.3810   41.2380 C   0  0  0  0  0  0  0  0  0  0  0  0
   40.8370   27.3830   40.2670 C   0  0  0  0  0  0  0  0  0  0  0  0
   41.7670   27.2740   39.7210 H   0  0  0  0  0  0  0  0  0  0  0  0
   39.8070   26.5400   39.9860 N   0  0  0  0  0  0  0  0  0  0  0  0
   38.6690   26.7050   40.6830 C   0  0  0  0  0  0  0  0  0  0  0  0
   37.7500   26.1200   40.5860 H   0  0  0  0  0  0  0  0  0  0  0  0
   38.5280   27.6560   41.6270 N   0  0  0  0  0  0  0  0  0  0  0  0
   39.5240   28.5130   41.9380 C   0  0  0  0  0  0  0  0  0  0  0  0
   38.1760   32.2610   46.5600 O   0  0  0  0  0  0  0  0  0  0  0  0
   38.9120   32.4030   47.6880 C   0  0  2  0  0  0  0  0  0  0  0  0
   38.0270   32.7200   48.9330 C   0  0  2  0  0  0  0  0  0  0  0  0
   38.9770   33.4430   49.7650 C   0  0  0  0  0  0  0  0  0  0  0  0
   39.7810   34.2100   48.9350 O   0  0  0  0  0  0  0  0  0  0  0  0
   39.6040   33.7970   47.6540 C   0  0  0  0  0  0  0  0  0  0  0  0
   39.6610   31.6610   47.9510 H   0  0  0  0  0  0  0  0  0  0  0  0
   37.2430   33.3980   48.5340 H   0  0  0  0  0  0  0  0  0  0  0  0
   39.6540   32.8520   50.3850 H   0  0  0  0  0  0  0  0  0  0  0  0
   38.4240   34.1510   50.4250 H   0  0  0  0  0  0  0  0  0  0  0  0
   40.5890   33.6780   47.1480 H   0  0  0  0  0  0  0  0  0  0  0  0
   38.9690   34.4510   47.0310 H   0  0  0  0  0  0  0  0  0  0  0  0
   37.3490   29.6180   50.9480 C   0  0  0  0  0  0  0  0  0  0  0  0
   38.0300   30.7740   50.4750 C   0  0  0  0  0  0  0  0  0  0  0  0
   37.3870   31.5420   49.4630 C   0  0  0  0  0  0  0  0  0  0  0  0
   36.1590   31.1390   48.9960 N   0  0  0  0  0  0  0  0  0  0  0  0
   35.5610   30.0440   49.4720 C   0  0  0  0  0  0  0  0  0  0  0  0
   36.1360   29.2780   50.4400 N   0  0  0  0  0  0  0  0  0  0  0  0
   37.8420   29.0410   51.7150 H   0  0  0  0  0  0  0  0  0  0  0  0
   38.9960   31.0430   50.8800 H   0  0  0  0  0  0  0  0  0  0  0  0
   34.6090   29.6610   49.1650 H   0  0  0  0  0  0  0  0  0  0  0  0
  2  1  1  0  0  0  0
  2  3  1  0  0  0  0
  3 23  1  0  0  0  0
  4  3  2  0  0  0  0
  4  8  1  0  0  0  0
  5  4  1  0  0  0  0
  6  7  1  0  0  0  0
  6  5  2  0  0  0  0
  7  2  2  0  0  0  0
  9  5  1  0  0  0  0
 10  6  1  0  0  0  0
 11  7  1  0  0  0  0
 12 11  1  0  0  0  0
 12 13  1  0  0  0  0
 14 12  2  0  0  0  0
 15 14  1  0  0  0  0
 15 22  1  0  0  0  0
 16 15  2  0  0  0  0
 17 16  1  0  0  0  0
 18 16  1  0  0  0  0
 18 19  2  0  0  0  0
 19 21  1  0  0  0  0
 20 19  1  0  0  0  0
 21 22  2  0  0  0  0
 22 11  1  0  0  0  0
 23 24  1  0  0  0  0
 24 29  1  1  0  0  0
 24 25  1  0  0  0  0
 25 30  1  6  0  0  0
 25 37  1  0  0  0  0
 25 26  1  0  0  0  0
 26 31  1  0  0  0  0
 26 32  1  0  0  0  0
 27 26  1  0  0  0  0
 28 24  1  0  0  0  0
 28 27  1  0  0  0  0
 33 28  1  0  0  0  0
 34 28  1  0  0  0  0
 35 41  1  0  0  0  0
 36 42  1  0  0  0  0
 36 35  1  0  0  0  0
 37 36  2  0  0  0  0
 38 37  1  0  0  0  0
 38 39  2  0  0  0  0
 39 40  1  0  0  0  0
 40 35  2  0  0  0  0
 43 39  1  0  0  0  0
M  END
>  <minimizedAffinity>
-6.40227699

>  <minimizedRMSD>
0.73120755

$$$$
