
 OpenBabel03272509313D

 41 44  0  0  1  0  0  0  0  0999 V2000
   36.4230   30.7330   49.0400 C   0  0  2  0  0  0  0  0  0  0  0  0
   37.3750   31.5710   49.8400 C   0  0  0  0  0  0  0  0  0  0  0  0
   38.2030   30.7560   50.8100 C   0  0  0  0  0  0  0  0  0  0  0  0
   37.3010   29.9540   51.7470 C   0  0  0  0  0  0  0  0  0  0  0  0
   36.0500   29.4270   51.0870 C   0  0  0  0  0  0  0  0  0  0  0  0
   36.3150   29.3430   49.5710 C   0  0  1  0  0  0  0  0  0  0  0  0
   35.3590   31.1260   49.0520 H   0  0  0  0  0  0  0  0  0  0  0  0
   37.9720   32.2890   49.3130 H   0  0  0  0  0  0  0  0  0  0  0  0
   36.7010   32.1920   50.5210 H   0  0  0  0  0  0  0  0  0  0  0  0
   38.7920   31.4790   51.3910 H   0  0  0  0  0  0  0  0  0  0  0  0
   38.8660   30.0290   50.3190 H   0  0  0  0  0  0  0  0  0  0  0  0
   37.0960   30.6130   52.6070 H   0  0  0  0  0  0  0  0  0  0  0  0
   37.8690   29.0790   52.1250 H   0  0  0  0  0  0  0  0  0  0  0  0
   35.7500   28.4550   51.4860 H   0  0  0  0  0  0  0  0  0  0  0  0
   35.2670   30.2050   51.2020 H   0  0  0  0  0  0  0  0  0  0  0  0
   37.2580   28.8520   49.5810 H   0  0  0  0  0  0  0  0  0  0  0  0
   36.8340   30.6730   47.6140 C   0  0  0  0  0  0  0  0  0  0  0  0
   38.2000   30.8780   47.3650 C   0  0  0  0  0  0  0  0  0  0  0  0
   38.6150   30.8250   46.0290 C   0  0  0  0  0  0  0  0  0  0  0  0
   37.6710   30.5760   45.0560 N   0  0  0  0  0  0  0  0  0  0  0  0
   36.3490   30.3800   45.3520 C   0  0  0  0  0  0  0  0  0  0  0  0
   35.9530   30.4340   46.6350 N   0  0  0  0  0  0  0  0  0  0  0  0
   39.0310   31.0700   48.0140 H   0  0  0  0  0  0  0  0  0  0  0  0
   39.6230   30.9630   45.6870 H   0  0  0  0  0  0  0  0  0  0  0  0
   35.7000   30.1930   44.5150 H   0  0  0  0  0  0  0  0  0  0  0  0
   34.0370   28.3510   49.0480 C   0  0  0  0  0  0  0  0  0  0  0  0
   33.2210   28.9650   49.8240 O   0  0  0  0  0  0  0  0  0  0  0  0
   35.4350   28.4930   48.8540 N   0  0  0  0  0  0  0  0  0  0  0  0
   35.8220   27.8750   48.0700 H   0  0  0  0  0  0  0  0  0  0  0  0
   31.2390   28.0690   48.3510 H   0  0  0  0  0  0  0  0  0  0  0  0
   31.9510   27.3500   48.0220 N   0  0  0  0  0  0  0  0  0  0  0  0
   33.2870   27.3400   48.2630 C   0  0  0  0  0  0  0  0  0  0  0  0
   33.6600   26.2420   47.6290 N   0  0  0  0  0  0  0  0  0  0  0  0
   32.6790   25.5900   47.0300 C   0  0  0  0  0  0  0  0  0  0  0  0
   32.6230   24.4380   46.2810 C   0  0  0  0  0  0  0  0  0  0  0  0
   33.5490   23.8790   46.0950 H   0  0  0  0  0  0  0  0  0  0  0  0
   31.4000   24.0600   45.8140 N   0  0  0  0  0  0  0  0  0  0  0  0
   30.3000   24.7740   46.0670 C   0  0  0  0  0  0  0  0  0  0  0  0
   29.3300   24.4640   45.6890 H   0  0  0  0  0  0  0  0  0  0  0  0
   30.3600   25.9060   46.8030 N   0  0  0  0  0  0  0  0  0  0  0  0
   31.5470   26.3120   47.2820 C   0  0  0  0  0  0  0  0  0  0  0  0
  1  7  1  1  0  0  0
  1  6  1  0  0  0  0
  1  2  1  0  0  0  0
  2  9  1  0  0  0  0
  2  3  1  0  0  0  0
  3 10  1  0  0  0  0
  3  4  1  0  0  0  0
  4 13  1  0  0  0  0
  4 12  1  0  0  0  0
  5 15  1  0  0  0  0
  5 14  1  0  0  0  0
  5  4  1  0  0  0  0
  6 16  1  6  0  0  0
  6  5  1  0  0  0  0
  8  2  1  0  0  0  0
 11  3  1  0  0  0  0
 17  1  1  0  0  0  0
 18 17  1  0  0  0  0
 18 23  1  0  0  0  0
 19 18  2  0  0  0  0
 20 21  2  0  0  0  0
 20 19  1  0  0  0  0
 21 22  1  0  0  0  0
 22 17  2  0  0  0  0
 24 19  1  0  0  0  0
 25 21  1  0  0  0  0
 26 27  2  0  0  0  0
 28 26  1  0  0  0  0
 28  6  1  0  0  0  0
 29 28  1  0  0  0  0
 31 32  1  0  0  0  0
 31 30  1  0  0  0  0
 32 26  1  0  0  0  0
 33 32  2  0  0  0  0
 34 41  1  0  0  0  0
 34 33  1  0  0  0  0
 35 34  2  0  0  0  0
 36 35  1  0  0  0  0
 37 38  2  0  0  0  0
 37 35  1  0  0  0  0
 38 40  1  0  0  0  0
 39 38  1  0  0  0  0
 40 41  2  0  0  0  0
 41 31  1  0  0  0  0
M  END
>  <minimizedAffinity>
-6.08539534

>  <minimizedRMSD>
0.76781255

$$$$
