
 OpenBabel03272508103D

 37 40  0  0  0  0  0  0  0  0999 V2000
   36.7030   29.5610   44.0910 Cl  0  0  0  0  0  0  0  0  0  0  0  0
   38.3510   29.9260   43.5540 C   0  0  0  0  0  0  0  0  0  0  0  0
   39.3560   30.3870   44.4040 C   0  0  0  0  0  0  0  0  0  0  0  0
   40.5950   30.6330   43.8540 C   0  0  0  0  0  0  0  0  0  0  0  0
   40.8220   30.4260   42.5130 C   0  0  0  0  0  0  0  0  0  0  0  0
   39.8430   29.9730   41.6640 C   0  0  0  0  0  0  0  0  0  0  0  0
   38.6050   29.7240   42.1950 C   0  0  0  0  0  0  0  0  0  0  0  0
   41.3100   30.9880   44.5890 H   0  0  0  0  0  0  0  0  0  0  0  0
   41.8200   30.6390   42.1460 H   0  0  0  0  0  0  0  0  0  0  0  0
   40.0580   29.8210   40.6050 H   0  0  0  0  0  0  0  0  0  0  0  0
   37.6020   29.2550   41.3020 N   0  0  0  0  0  0  0  0  0  0  0  0
   37.3800   27.9700   40.9340 C   0  0  0  0  0  0  0  0  0  0  0  0
   37.9260   27.0800   41.2570 H   0  0  0  0  0  0  0  0  0  0  0  0
   36.3460   27.8820   40.0700 N   0  0  0  0  0  0  0  0  0  0  0  0
   35.8760   29.1400   39.8630 C   0  0  0  0  0  0  0  0  0  0  0  0
   34.8630   29.7140   39.1110 C   0  0  0  0  0  0  0  0  0  0  0  0
   34.2440   29.0580   38.5060 H   0  0  0  0  0  0  0  0  0  0  0  0
   34.6800   31.0620   39.1520 N   0  0  0  0  0  0  0  0  0  0  0  0
   35.4500   31.8680   39.9010 C   0  0  0  0  0  0  0  0  0  0  0  0
   35.3100   32.9440   39.9410 H   0  0  0  0  0  0  0  0  0  0  0  0
   36.4250   31.2710   40.6190 N   0  0  0  0  0  0  0  0  0  0  0  0
   36.6700   29.9660   40.6350 C   0  0  0  0  0  0  0  0  0  0  0  0
   38.9260   30.5250   45.6920 O   0  0  0  0  0  0  0  0  0  0  0  0
   39.4500   32.5600   47.1990 O   0  0  0  0  0  0  0  0  0  0  0  0
   38.3380   31.8740   46.4830 P   0  0  1  0  0  0  0  0  0  0  0  0
   37.7590   32.8910   45.2360 O   0  0  0  0  0  0  0  0  0  0  0  0
   38.3910   33.6420   45.1170 H   0  0  0  0  0  0  0  0  0  0  0  0
   37.0420   31.4230   47.4850 O   0  0  0  0  0  0  0  0  0  0  0  0
   37.5930   30.5180   51.0160 C   0  0  0  0  0  0  0  0  0  0  0  0
   37.7030   31.3060   49.8650 C   0  0  0  0  0  0  0  0  0  0  0  0
   37.0730   30.8410   48.7010 C   0  0  0  0  0  0  0  0  0  0  0  0
   36.3950   29.6570   48.7550 N   0  0  0  0  0  0  0  0  0  0  0  0
   36.3210   28.9390   49.8870 C   0  0  0  0  0  0  0  0  0  0  0  0
   36.9140   29.3600   51.0160 N   0  0  0  0  0  0  0  0  0  0  0  0
   38.1050   30.9310   51.8950 H   0  0  0  0  0  0  0  0  0  0  0  0
   38.2140   32.2310   49.7630 H   0  0  0  0  0  0  0  0  0  0  0  0
   35.7850   27.9970   49.9400 H   0  0  0  0  0  0  0  0  0  0  0  0
  2  1  1  0  0  0  0
  2  3  1  0  0  0  0
  3 23  1  0  0  0  0
  4  3  2  0  0  0  0
  4  8  1  0  0  0  0
  5  4  1  0  0  0  0
  6  7  1  0  0  0  0
  6  5  2  0  0  0  0
  7  2  2  0  0  0  0
  9  5  1  0  0  0  0
 10  6  1  0  0  0  0
 11  7  1  0  0  0  0
 12 13  1  0  0  0  0
 12 11  1  0  0  0  0
 14 12  2  0  0  0  0
 15 14  1  0  0  0  0
 15 22  1  0  0  0  0
 16 18  1  0  0  0  0
 16 15  2  0  0  0  0
 17 16  1  0  0  0  0
 18 19  2  0  0  0  0
 19 20  1  0  0  0  0
 19 21  1  0  0  0  0
 21 22  2  0  0  0  0
 22 11  1  0  0  0  0
 23 25  1  0  0  0  0
 25 24  2  1  0  0  0
 25 28  1  0  0  0  0
 26 25  1  0  0  0  0
 27 26  1  0  0  0  0
 28 31  1  0  0  0  0
 29 34  1  0  0  0  0
 29 35  1  0  0  0  0
 30 29  2  0  0  0  0
 31 32  2  0  0  0  0
 31 30  1  0  0  0  0
 32 33  1  0  0  0  0
 33 37  1  0  0  0  0
 33 34  2  0  0  0  0
 36 30  1  0  0  0  0
M  END
>  <minimizedAffinity>
-4.93637514

>  <minimizedRMSD>
0.742530942

$$$$
