
 OpenBabel03272510063D

 33 36  0  0  0  0  0  0  0  0999 V2000
   36.2350   30.2310   48.0530 C   0  0  0  0  0  0  0  0  0  0  0  0
   36.6070   30.6380   46.7540 C   0  0  0  0  0  0  0  0  0  0  0  0
   35.8180   30.2140   45.6710 C   0  0  0  0  0  0  0  0  0  0  0  0
   34.7410   29.4360   45.9390 N   0  0  0  0  0  0  0  0  0  0  0  0
   34.4050   29.0590   47.1920 C   0  0  0  0  0  0  0  0  0  0  0  0
   35.1470   29.4550   48.2260 N   0  0  0  0  0  0  0  0  0  0  0  0
   33.2460   28.2340   47.3720 N   0  0  0  0  0  0  0  0  0  0  0  0
   31.9050   28.6370   46.9440 C   0  0  0  0  0  0  0  0  0  0  0  0
   31.0810   27.4190   47.1150 C   0  0  0  0  0  0  0  0  0  0  0  0
   32.0450   26.2830   47.3850 C   0  0  0  0  0  0  0  0  0  0  0  0
   33.2470   26.9190   47.9900 C   0  0  0  0  0  0  0  0  0  0  0  0
   36.7880   30.5120   48.9380 H   0  0  0  0  0  0  0  0  0  0  0  0
   36.0900   30.5190   44.6680 H   0  0  0  0  0  0  0  0  0  0  0  0
   31.9970   28.9320   45.8790 H   0  0  0  0  0  0  0  0  0  0  0  0
   31.6090   29.5090   47.5560 H   0  0  0  0  0  0  0  0  0  0  0  0
   30.4440   27.5210   48.0190 H   0  0  0  0  0  0  0  0  0  0  0  0
   30.4750   27.2160   46.2130 H   0  0  0  0  0  0  0  0  0  0  0  0
   31.6160   25.5970   48.1580 H   0  0  0  0  0  0  0  0  0  0  0  0
   32.2460   25.6870   46.4770 H   0  0  0  0  0  0  0  0  0  0  0  0
   34.1430   26.3250   47.7220 H   0  0  0  0  0  0  0  0  0  0  0  0
   33.1750   27.0090   49.0890 H   0  0  0  0  0  0  0  0  0  0  0  0
   37.7490   31.4480   46.5920 N   0  0  0  0  0  0  0  0  0  0  0  0
   38.4790   31.4340   45.4790 C   0  0  0  0  0  0  0  0  0  0  0  0
   38.3840   30.8730   44.5550 H   0  0  0  0  0  0  0  0  0  0  0  0
   39.5080   32.3110   45.6100 N   0  0  0  0  0  0  0  0  0  0  0  0
   39.4060   32.8730   46.8290 C   0  0  0  0  0  0  0  0  0  0  0  0
   40.1190   33.8160   47.5580 C   0  0  0  0  0  0  0  0  0  0  0  0
   40.9790   34.2220   47.0490 H   0  0  0  0  0  0  0  0  0  0  0  0
   39.7620   34.1940   48.8060 N   0  0  0  0  0  0  0  0  0  0  0  0
   38.6730   33.6360   49.3700 C   0  0  0  0  0  0  0  0  0  0  0  0
   38.3820   33.9320   50.3650 H   0  0  0  0  0  0  0  0  0  0  0  0
   37.9270   32.7060   48.7130 N   0  0  0  0  0  0  0  0  0  0  0  0
   38.2830   32.3220   47.4540 C   0  0  0  0  0  0  0  0  0  0  0  0
  1  6  1  0  0  0  0
  1 12  1  0  0  0  0
  2  1  2  0  0  0  0
  3  4  2  0  0  0  0
  3  2  1  0  0  0  0
  4  5  1  0  0  0  0
  5  7  1  0  0  0  0
  5  6  2  0  0  0  0
  7 11  1  0  0  0  0
  8  9  1  0  0  0  0
  8  7  1  0  0  0  0
  8 15  1  0  0  0  0
  9 10  1  0  0  0  0
  9 16  1  0  0  0  0
 10 11  1  0  0  0  0
 10 18  1  0  0  0  0
 11 21  1  0  0  0  0
 13  3  1  0  0  0  0
 14  8  1  0  0  0  0
 17  9  1  0  0  0  0
 19 10  1  0  0  0  0
 20 11  1  0  0  0  0
 22  2  1  0  0  0  0
 22 33  1  0  0  0  0
 23 25  2  0  0  0  0
 23 22  1  0  0  0  0
 24 23  1  0  0  0  0
 25 26  1  0  0  0  0
 26 33  2  0  0  0  0
 26 27  1  0  0  0  0
 27 29  2  0  0  0  0
 28 27  1  0  0  0  0
 29 30  1  0  0  0  0
 30 31  1  0  0  0  0
 32 30  2  0  0  0  0
 33 32  1  0  0  0  0
M  END
>  <minimizedAffinity>
-4.58281612

>  <minimizedRMSD>
3.79026437

$$$$
