REMARK  Name = 
REMARK  3 active torsions:
REMARK  status: ('A' for Active; 'I' for Inactive)
REMARK    1  A    between atoms: C_1  and  C_15
REMARK    2  A    between atoms: C_3  and  C_9
REMARK    3  A    between atoms: C_13  and  N_14
REMARK                            x       y       z     vdW  Elec       q    Type
REMARK                         _______ _______ _______ _____ _____    ______ ____
ROOT
ATOM      1  C   UNL     1      35.334  30.388  49.974  0.00  0.00    +0.000 C 
ATOM      2  C   UNL     1      36.253  31.377  49.422  0.00  0.00    +0.000 C 
ATOM      3  C   UNL     1      37.738  30.903  49.451  0.00  0.00    +0.000 C 
ATOM      4  C   UNL     1      38.216  30.578  50.773  0.00  0.00    +0.000 C 
ATOM      5  C   UNL     1      37.175  29.876  51.647  0.00  0.00    +0.000 C 
ATOM      6  C   UNL     1      36.054  29.329  50.815  0.00  0.00    +0.000 C 
ATOM      7  H   UNL     1      34.626  30.862  50.718  0.00  0.00    +0.000 HD
ATOM      8  H   UNL     1      36.135  31.824  48.464  0.00  0.00    +0.000 HD
ATOM      9  H   UNL     1      36.305  32.254  50.156  0.00  0.00    +0.000 HD
ATOM     10  H   UNL     1      37.822  30.066  48.733  0.00  0.00    +0.000 HD
ATOM     11  H   UNL     1      39.146  29.977  50.691  0.00  0.00    +0.000 HD
ATOM     12  H   UNL     1      38.509  31.479  51.347  0.00  0.00    +0.000 HD
ATOM     13  H   UNL     1      37.682  28.994  52.089  0.00  0.00    +0.000 HD
ATOM     14  H   UNL     1      36.821  30.494  52.478  0.00  0.00    +0.000 HD
ATOM     15  H   UNL     1      36.412  28.525  50.153  0.00  0.00    +0.000 HD
ATOM     16  H   UNL     1      35.308  28.878  51.488  0.00  0.00    +0.000 HD
ENDROOT
BRANCH   1  17
ATOM     17  C   UNL     1      34.501  29.667  49.016  0.00  0.00    +0.000 A 
ATOM     18  C   UNL     1      34.503  30.216  47.743  0.00  0.00    +0.000 A 
ATOM     19  C   UNL     1      33.757  29.593  46.744  0.00  0.00    +0.000 A 
ATOM     20  N   UNL     1      33.039  28.440  47.078  0.00  0.00    +0.000 NA
ATOM     21  C   UNL     1      33.068  27.948  48.323  0.00  0.00    +0.000 A 
ATOM     22  N   UNL     1      33.795  28.574  49.249  0.00  0.00    +0.000 NA
ATOM     23  H   UNL     1      34.937  31.056  47.219  0.00  0.00    +0.000 HD
ATOM     24  H   UNL     1      33.595  29.806  45.714  0.00  0.00    +0.000 HD
ATOM     25  N   UNL     1      32.343  26.777  48.676  0.00  0.00    +0.000 N 
ATOM     26  C   UNL     1      32.711  25.476  48.746  0.00  0.00    +0.000 A 
ATOM     27  H   UNL     1      33.717  25.139  48.514  0.00  0.00    +0.000 HD
ATOM     28  N   UNL     1      31.631  24.754  49.138  0.00  0.00    +0.000 NA
ATOM     29  C   UNL     1      30.591  25.588  49.314  0.00  0.00    +0.000 A 
ATOM     30  C   UNL     1      29.258  25.454  49.698  0.00  0.00    +0.000 A 
ATOM     31  H   UNL     1      28.878  24.474  49.932  0.00  0.00    +0.000 HD
ATOM     32  N   UNL     1      28.428  26.511  49.787  0.00  0.00    +0.000 NA
ATOM     33  C   UNL     1      28.878  27.752  49.500  0.00  0.00    +0.000 A 
ATOM     34  H   UNL     1      28.237  28.633  49.560  0.00  0.00    +0.000 HD
ATOM     35  N   UNL     1      30.155  27.882  49.132  0.00  0.00    +0.000 NA
ATOM     36  C   UNL     1      31.028  26.851  49.028  0.00  0.00    +0.000 A 
ENDBRANCH   1  17
BRANCH   3  39
ATOM     37 CL   UNL     1      38.568  30.618  46.631  0.00  0.00    +0.000 Cl
ATOM     38  C   UNL     1      38.955  32.027  47.585  0.00  0.00    +0.000 A 
ATOM     39  C   UNL     1      38.474  32.070  48.869  0.00  0.00    +0.000 A 
ATOM     40  C   UNL     1      38.790  33.235  49.540  0.00  0.00    +0.000 A 
ATOM     41  C   UNL     1      39.522  34.263  48.979  0.00  0.00    +0.000 A 
ATOM     42  C   UNL     1      39.978  34.142  47.664  0.00  0.00    +0.000 A 
ATOM     43  C   UNL     1      39.680  32.982  46.949  0.00  0.00    +0.000 A 
ATOM     44  H   UNL     1      38.438  33.340  50.562  0.00  0.00    +0.000 HD
ATOM     45  H   UNL     1      39.735  35.146  49.556  0.00  0.00    +0.000 HD
ATOM     46  H   UNL     1      40.554  34.922  47.185  0.00  0.00    +0.000 HD
BRANCH  43  47
ATOM     47  N   UNL     1      40.146  32.858  45.615  0.00  0.00    +0.000 N 
ATOM     48  H   UNL     1      40.660  31.938  45.508  0.00  0.00    +0.000 HD
ATOM     49  H   UNL     1      40.080  33.457  44.786  0.00  0.00    +0.000 HD
ENDBRANCH  43  47
ENDBRANCH   3  39
TORSDOF 3
