
 OpenBabel03272509323D

 41 44  0  0  1  0  0  0  0  0999 V2000
   38.5700   26.0870   34.4300 C   0  0  2  0  0  0  0  0  0  0  0  0
   38.3430   27.3790   35.1570 C   0  0  0  0  0  0  0  0  0  0  0  0
   36.9380   27.9130   34.9800 C   0  0  0  0  0  0  0  0  0  0  0  0
   36.6100   28.0860   33.4980 C   0  0  0  0  0  0  0  0  0  0  0  0
   37.2000   27.0150   32.6140 C   0  0  0  0  0  0  0  0  0  0  0  0
   37.4590   25.7710   33.4860 C   0  0  1  0  0  0  0  0  0  0  0  0
   39.5010   26.0940   33.7820 H   0  0  0  0  0  0  0  0  0  0  0  0
   38.6670   27.4420   36.1770 H   0  0  0  0  0  0  0  0  0  0  0  0
   38.9880   28.1360   34.5970 H   0  0  0  0  0  0  0  0  0  0  0  0
   36.9190   28.8920   35.4800 H   0  0  0  0  0  0  0  0  0  0  0  0
   36.1620   27.2550   35.3960 H   0  0  0  0  0  0  0  0  0  0  0  0
   36.9400   29.1030   33.2310 H   0  0  0  0  0  0  0  0  0  0  0  0
   35.5080   28.0480   33.3710 H   0  0  0  0  0  0  0  0  0  0  0  0
   36.5510   26.7720   31.7690 H   0  0  0  0  0  0  0  0  0  0  0  0
   38.2060   27.3650   32.3030 H   0  0  0  0  0  0  0  0  0  0  0  0
   36.5240   25.7060   33.9880 H   0  0  0  0  0  0  0  0  0  0  0  0
   38.7290   24.9600   35.3830 C   0  0  0  0  0  0  0  0  0  0  0  0
   38.0510   25.0950   36.6050 C   0  0  0  0  0  0  0  0  0  0  0  0
   38.1820   24.0450   37.5210 C   0  0  0  0  0  0  0  0  0  0  0  0
   38.9540   22.9580   37.1710 N   0  0  0  0  0  0  0  0  0  0  0  0
   39.5930   22.8740   35.9640 C   0  0  0  0  0  0  0  0  0  0  0  0
   39.4680   23.8840   35.0880 N   0  0  0  0  0  0  0  0  0  0  0  0
   37.4200   25.8670   36.9980 H   0  0  0  0  0  0  0  0  0  0  0  0
   37.7240   24.0090   38.4920 H   0  0  0  0  0  0  0  0  0  0  0  0
   40.1700   21.9810   35.7970 H   0  0  0  0  0  0  0  0  0  0  0  0
   36.6340   23.9150   31.9630 C   0  0  0  0  0  0  0  0  0  0  0  0
   35.4510   24.2700   31.6170 O   0  0  0  0  0  0  0  0  0  0  0  0
   37.6080   24.5550   32.7700 N   0  0  0  0  0  0  0  0  0  0  0  0
   38.5390   24.0300   32.8130 H   0  0  0  0  0  0  0  0  0  0  0  0
   35.1170   21.4560   31.7340 H   0  0  0  0  0  0  0  0  0  0  0  0
   36.1010   21.5210   31.3350 N   0  0  0  0  0  0  0  0  0  0  0  0
   36.9350   22.5930   31.3610 C   0  0  0  0  0  0  0  0  0  0  0  0
   37.9960   22.1160   30.7350 N   0  0  0  0  0  0  0  0  0  0  0  0
   37.8840   20.8620   30.3330 C   0  0  0  0  0  0  0  0  0  0  0  0
   38.7220   20.0000   29.6660 C   0  0  0  0  0  0  0  0  0  0  0  0
   39.7160   20.3510   29.3650 H   0  0  0  0  0  0  0  0  0  0  0  0
   38.2520   18.7450   29.4180 N   0  0  0  0  0  0  0  0  0  0  0  0
   37.0310   18.3620   29.8040 C   0  0  0  0  0  0  0  0  0  0  0  0
   36.6680   17.3600   29.6010 H   0  0  0  0  0  0  0  0  0  0  0  0
   36.2120   19.2120   30.4600 N   0  0  0  0  0  0  0  0  0  0  0  0
   36.6370   20.4590   30.7240 C   0  0  0  0  0  0  0  0  0  0  0  0
  1  7  1  6  0  0  0
  1  2  1  0  0  0  0
  1 17  1  0  0  0  0
  2  8  1  0  0  0  0
  3  2  1  0  0  0  0
  3 11  1  0  0  0  0
  3 10  1  0  0  0  0
  4  3  1  0  0  0  0
  5  6  1  0  0  0  0
  5  4  1  0  0  0  0
  6 16  1  1  0  0  0
  6  1  1  0  0  0  0
  9  2  1  0  0  0  0
 12  4  1  0  0  0  0
 13  4  1  0  0  0  0
 14  5  1  0  0  0  0
 15  5  1  0  0  0  0
 17 18  1  0  0  0  0
 18 23  1  0  0  0  0
 18 19  2  0  0  0  0
 19 24  1  0  0  0  0
 20 19  1  0  0  0  0
 21 20  2  0  0  0  0
 22 17  2  0  0  0  0
 22 21  1  0  0  0  0
 25 21  1  0  0  0  0
 26 28  1  0  0  0  0
 27 26  2  0  0  0  0
 28 29  1  0  0  0  0
 28  6  1  0  0  0  0
 31 32  1  0  0  0  0
 31 30  1  0  0  0  0
 32 26  1  0  0  0  0
 33 32  2  0  0  0  0
 34 41  1  0  0  0  0
 34 33  1  0  0  0  0
 35 34  2  0  0  0  0
 36 35  1  0  0  0  0
 37 35  1  0  0  0  0
 37 38  2  0  0  0  0
 38 40  1  0  0  0  0
 39 38  1  0  0  0  0
 40 41  2  0  0  0  0
 41 31  1  0  0  0  0
M  END
>  <minimizedAffinity>
-5.53032541

$$$$

 OpenBabel03272509323D

 41 44  0  0  1  0  0  0  0  0999 V2000
   33.8540   30.9350   35.7300 C   0  0  2  0  0  0  0  0  0  0  0  0
   33.4970   32.3110   36.2040 C   0  0  0  0  0  0  0  0  0  0  0  0
   34.3680   33.3870   35.5950 C   0  0  0  0  0  0  0  0  0  0  0  0
   35.8440   33.1070   35.8730 C   0  0  0  0  0  0  0  0  0  0  0  0
   36.2030   31.6420   35.8440 C   0  0  0  0  0  0  0  0  0  0  0  0
   35.1490   30.9140   34.9890 C   0  0  1  0  0  0  0  0  0  0  0  0
   33.9980   30.1910   36.5750 H   0  0  0  0  0  0  0  0  0  0  0  0
   32.4600   32.5880   36.2000 H   0  0  0  0  0  0  0  0  0  0  0  0
   33.7970   32.3180   37.3060 H   0  0  0  0  0  0  0  0  0  0  0  0
   34.0720   34.3300   36.0770 H   0  0  0  0  0  0  0  0  0  0  0  0
   34.2680   33.4680   34.5030 H   0  0  0  0  0  0  0  0  0  0  0  0
   36.0670   33.5920   36.8380 H   0  0  0  0  0  0  0  0  0  0  0  0
   36.4550   33.6130   35.0970 H   0  0  0  0  0  0  0  0  0  0  0  0
   37.2100   31.4710   35.4530 H   0  0  0  0  0  0  0  0  0  0  0  0
   36.0640   31.2500   36.8720 H   0  0  0  0  0  0  0  0  0  0  0  0
   35.1260   31.5580   34.1430 H   0  0  0  0  0  0  0  0  0  0  0  0
   32.7890   30.3780   34.8570 C   0  0  0  0  0  0  0  0  0  0  0  0
   31.9670   29.4040   35.4450 C   0  0  0  0  0  0  0  0  0  0  0  0
   30.9530   28.8640   34.6450 C   0  0  0  0  0  0  0  0  0  0  0  0
   30.8250   29.3180   33.3500 N   0  0  0  0  0  0  0  0  0  0  0  0
   31.6520   30.2730   32.8240 C   0  0  0  0  0  0  0  0  0  0  0  0
   32.6260   30.7880   33.5930 N   0  0  0  0  0  0  0  0  0  0  0  0
   31.9490   28.9720   36.4250 H   0  0  0  0  0  0  0  0  0  0  0  0
   30.2510   28.1140   34.9570 H   0  0  0  0  0  0  0  0  0  0  0  0
   31.4620   30.5520   31.8030 H   0  0  0  0  0  0  0  0  0  0  0  0
   35.9280   29.3130   33.1800 C   0  0  0  0  0  0  0  0  0  0  0  0
   36.0920   30.0420   32.1380 O   0  0  0  0  0  0  0  0  0  0  0  0
   35.5420   29.6400   34.5040 N   0  0  0  0  0  0  0  0  0  0  0  0
   35.5670   28.8060   35.1750 H   0  0  0  0  0  0  0  0  0  0  0  0
   35.0460   27.5870   31.0250 H   0  0  0  0  0  0  0  0  0  0  0  0
   35.7180   27.2240   31.7650 N   0  0  0  0  0  0  0  0  0  0  0  0
   36.2210   27.9010   32.8290 C   0  0  0  0  0  0  0  0  0  0  0  0
   36.9800   26.9790   33.3930 N   0  0  0  0  0  0  0  0  0  0  0  0
   36.9860   25.8110   32.7720 C   0  0  0  0  0  0  0  0  0  0  0  0
   37.6170   24.6130   33.0080 C   0  0  0  0  0  0  0  0  0  0  0  0
   38.2770   24.5220   33.8790 H   0  0  0  0  0  0  0  0  0  0  0  0
   37.3750   23.6010   32.1280 N   0  0  0  0  0  0  0  0  0  0  0  0
   36.5620   23.7590   31.0790 C   0  0  0  0  0  0  0  0  0  0  0  0
   36.3780   22.9450   30.3860 H   0  0  0  0  0  0  0  0  0  0  0  0
   35.9440   24.9380   30.8520 N   0  0  0  0  0  0  0  0  0  0  0  0
   36.1560   25.9620   31.6960 C   0  0  0  0  0  0  0  0  0  0  0  0
  1  2  1  0  0  0  0
  1  7  1  1  0  0  0
  2  9  1  0  0  0  0
  3  4  1  0  0  0  0
  3 10  1  0  0  0  0
  3  2  1  0  0  0  0
  4 12  1  0  0  0  0
  5  4  1  0  0  0  0
  5 15  1  0  0  0  0
  6 16  1  6  0  0  0
  6  1  1  0  0  0  0
  6  5  1  0  0  0  0
  8  2  1  0  0  0  0
 11  3  1  0  0  0  0
 13  4  1  0  0  0  0
 14  5  1  0  0  0  0
 17 18  1  0  0  0  0
 17  1  1  0  0  0  0
 18 23  1  0  0  0  0
 19 24  1  0  0  0  0
 19 18  2  0  0  0  0
 20 19  1  0  0  0  0
 21 20  2  0  0  0  0
 21 22  1  0  0  0  0
 22 17  2  0  0  0  0
 25 21  1  0  0  0  0
 26 28  1  0  0  0  0
 27 26  2  0  0  0  0
 28  6  1  0  0  0  0
 28 29  1  0  0  0  0
 30 31  1  0  0  0  0
 31 32  1  0  0  0  0
 32 26  1  0  0  0  0
 32 33  2  0  0  0  0
 34 35  1  0  0  0  0
 34 33  1  0  0  0  0
 35 36  1  0  0  0  0
 37 35  2  0  0  0  0
 38 37  1  0  0  0  0
 39 38  1  0  0  0  0
 40 38  2  0  0  0  0
 40 41  1  0  0  0  0
 41 31  1  0  0  0  0
 41 34  2  0  0  0  0
M  END
>  <minimizedAffinity>
-5.4228344

$$$$

 OpenBabel03272509323D

 41 44  0  0  1  0  0  0  0  0999 V2000
   40.7090   22.4470   35.6060 C   0  0  2  0  0  0  0  0  0  0  0  0
   41.7130   21.6360   36.3680 C   0  0  0  0  0  0  0  0  0  0  0  0
   43.0380   22.3480   36.5330 C   0  0  0  0  0  0  0  0  0  0  0  0
   43.6120   22.7410   35.1730 C   0  0  0  0  0  0  0  0  0  0  0  0
   42.5670   23.1690   34.1710 C   0  0  0  0  0  0  0  0  0  0  0  0
   41.3260   23.6380   34.9530 C   0  0  1  0  0  0  0  0  0  0  0  0
   40.2230   21.8750   34.7540 H   0  0  0  0  0  0  0  0  0  0  0  0
   41.3930   21.1750   37.2820 H   0  0  0  0  0  0  0  0  0  0  0  0
   41.9630   20.7660   35.6720 H   0  0  0  0  0  0  0  0  0  0  0  0
   43.7110   21.6310   37.0250 H   0  0  0  0  0  0  0  0  0  0  0  0
   42.9690   23.2740   37.1220 H   0  0  0  0  0  0  0  0  0  0  0  0
   44.2120   21.8800   34.8370 H   0  0  0  0  0  0  0  0  0  0  0  0
   44.3050   23.5970   35.3130 H   0  0  0  0  0  0  0  0  0  0  0  0
   42.9300   23.9550   33.5050 H   0  0  0  0  0  0  0  0  0  0  0  0
   42.2410   22.2570   33.6290 H   0  0  0  0  0  0  0  0  0  0  0  0
   41.7920   24.2760   35.6640 H   0  0  0  0  0  0  0  0  0  0  0  0
   39.6050   22.8990   36.4910 C   0  0  0  0  0  0  0  0  0  0  0  0
   39.9080   22.9590   37.8600 C   0  0  0  0  0  0  0  0  0  0  0  0
   38.8870   23.3840   38.7170 C   0  0  0  0  0  0  0  0  0  0  0  0
   37.6650   23.7150   38.1710 N   0  0  0  0  0  0  0  0  0  0  0  0
   37.4210   23.6410   36.8270 C   0  0  0  0  0  0  0  0  0  0  0  0
   38.4020   23.2310   36.0070 N   0  0  0  0  0  0  0  0  0  0  0  0
   40.8020   22.7430   38.4110 H   0  0  0  0  0  0  0  0  0  0  0  0
   38.9720   23.4780   39.7830 H   0  0  0  0  0  0  0  0  0  0  0  0
   36.4320   23.9240   36.5100 H   0  0  0  0  0  0  0  0  0  0  0  0
   40.3110   25.8660   34.2810 C   0  0  0  0  0  0  0  0  0  0  0  0
   40.9930   26.7470   34.9170 O   0  0  0  0  0  0  0  0  0  0  0  0
   40.4260   24.4540   34.2210 N   0  0  0  0  0  0  0  0  0  0  0  0
   39.7420   23.9990   33.5340 H   0  0  0  0  0  0  0  0  0  0  0  0
   37.6960   26.8890   34.9980 H   0  0  0  0  0  0  0  0  0  0  0  0
   38.0520   26.9750   34.0000 N   0  0  0  0  0  0  0  0  0  0  0  0
   39.2450   26.5490   33.5080 C   0  0  0  0  0  0  0  0  0  0  0  0
   39.1500   26.9080   32.2400 N   0  0  0  0  0  0  0  0  0  0  0  0
   38.0170   27.5090   31.9190 C   0  0  0  0  0  0  0  0  0  0  0  0
   37.5180   28.0300   30.7490 C   0  0  0  0  0  0  0  0  0  0  0  0
   38.1270   27.9760   29.8390 H   0  0  0  0  0  0  0  0  0  0  0  0
   36.2750   28.5880   30.8000 N   0  0  0  0  0  0  0  0  0  0  0  0
   35.5680   28.6310   31.9330 C   0  0  0  0  0  0  0  0  0  0  0  0
   34.5800   29.0790   31.9610 H   0  0  0  0  0  0  0  0  0  0  0  0
   36.0640   28.1180   33.0800 N   0  0  0  0  0  0  0  0  0  0  0  0
   37.2860   27.5580   33.0730 C   0  0  0  0  0  0  0  0  0  0  0  0
  1  7  1  6  0  0  0
  1  2  1  0  0  0  0
  1 17  1  0  0  0  0
  2  3  1  0  0  0  0
  2  8  1  0  0  0  0
  3 10  1  0  0  0  0
  3 11  1  0  0  0  0
  4 13  1  0  0  0  0
  4  3  1  0  0  0  0
  5  6  1  0  0  0  0
  5  4  1  0  0  0  0
  6  1  1  0  0  0  0
  6 16  1  1  0  0  0
  9  2  1  0  0  0  0
 12  4  1  0  0  0  0
 14  5  1  0  0  0  0
 15  5  1  0  0  0  0
 17 18  1  0  0  0  0
 18 23  1  0  0  0  0
 18 19  2  0  0  0  0
 19 24  1  0  0  0  0
 20 19  1  0  0  0  0
 21 20  2  0  0  0  0
 22 17  2  0  0  0  0
 22 21  1  0  0  0  0
 25 21  1  0  0  0  0
 26 27  2  0  0  0  0
 28 26  1  0  0  0  0
 28  6  1  0  0  0  0
 29 28  1  0  0  0  0
 31 30  1  0  0  0  0
 32 31  1  0  0  0  0
 32 26  1  0  0  0  0
 33 32  2  0  0  0  0
 34 33  1  0  0  0  0
 34 41  1  0  0  0  0
 35 37  1  0  0  0  0
 35 34  2  0  0  0  0
 36 35  1  0  0  0  0
 37 38  2  0  0  0  0
 38 39  1  0  0  0  0
 38 40  1  0  0  0  0
 41 40  2  0  0  0  0
 41 31  1  0  0  0  0
M  END
>  <minimizedAffinity>
-5.26374483

$$$$

 OpenBabel03272509323D

 41 44  0  0  1  0  0  0  0  0999 V2000
   38.5490   23.2990   34.7220 C   0  0  2  0  0  0  0  0  0  0  0  0
   38.4700   22.4210   35.9350 C   0  0  0  0  0  0  0  0  0  0  0  0
   37.5610   22.9810   37.0070 C   0  0  0  0  0  0  0  0  0  0  0  0
   38.0040   24.3860   37.4100 C   0  0  0  0  0  0  0  0  0  0  0  0
   38.5290   25.2130   36.2620 C   0  0  0  0  0  0  0  0  0  0  0  0
   37.9400   24.6400   34.9590 C   0  0  1  0  0  0  0  0  0  0  0  0
   39.6130   23.5230   34.3980 H   0  0  0  0  0  0  0  0  0  0  0  0
   38.3070   21.3720   35.7820 H   0  0  0  0  0  0  0  0  0  0  0  0
   39.5090   22.4910   36.4030 H   0  0  0  0  0  0  0  0  0  0  0  0
   37.6510   22.3020   37.8680 H   0  0  0  0  0  0  0  0  0  0  0  0
   36.5110   23.0630   36.6930 H   0  0  0  0  0  0  0  0  0  0  0  0
   38.7380   24.2500   38.2220 H   0  0  0  0  0  0  0  0  0  0  0  0
   37.1320   24.9260   37.8350 H   0  0  0  0  0  0  0  0  0  0  0  0
   38.2840   26.2730   36.3700 H   0  0  0  0  0  0  0  0  0  0  0  0
   39.6200   25.0240   36.1940 H   0  0  0  0  0  0  0  0  0  0  0  0
   36.9180   24.5620   35.2430 H   0  0  0  0  0  0  0  0  0  0  0  0
   37.8800   22.6630   33.5590 C   0  0  0  0  0  0  0  0  0  0  0  0
   36.9840   21.6260   33.8630 C   0  0  0  0  0  0  0  0  0  0  0  0
   36.3380   21.0100   32.7860 C   0  0  0  0  0  0  0  0  0  0  0  0
   36.6140   21.4560   31.5110 N   0  0  0  0  0  0  0  0  0  0  0  0
   37.4950   22.4750   31.2670 C   0  0  0  0  0  0  0  0  0  0  0  0
   38.1160   23.0620   32.3030 N   0  0  0  0  0  0  0  0  0  0  0  0
   36.6740   21.1910   34.7920 H   0  0  0  0  0  0  0  0  0  0  0  0
   35.6310   20.2060   32.8640 H   0  0  0  0  0  0  0  0  0  0  0  0
   37.6340   22.7410   30.2340 H   0  0  0  0  0  0  0  0  0  0  0  0
   37.3240   26.7740   33.7290 C   0  0  0  0  0  0  0  0  0  0  0  0
   36.6320   27.4540   34.5690 O   0  0  0  0  0  0  0  0  0  0  0  0
   37.9740   25.5190   33.8460 N   0  0  0  0  0  0  0  0  0  0  0  0
   38.5400   25.2490   32.9780 H   0  0  0  0  0  0  0  0  0  0  0  0
   38.7590   26.3170   31.2530 H   0  0  0  0  0  0  0  0  0  0  0  0
   38.1290   27.1670   31.3610 N   0  0  0  0  0  0  0  0  0  0  0  0
   37.3950   27.5200   32.4490 C   0  0  0  0  0  0  0  0  0  0  0  0
   36.8230   28.6350   32.0300 N   0  0  0  0  0  0  0  0  0  0  0  0
   37.1390   28.9900   30.7970 C   0  0  0  0  0  0  0  0  0  0  0  0
   36.7840   30.0460   29.9920 C   0  0  0  0  0  0  0  0  0  0  0  0
   36.0910   30.8020   30.3800 H   0  0  0  0  0  0  0  0  0  0  0  0
   37.3260   30.0820   28.7410 N   0  0  0  0  0  0  0  0  0  0  0  0
   38.1660   29.1370   28.3100 C   0  0  0  0  0  0  0  0  0  0  0  0
   38.5910   29.1770   27.3130 H   0  0  0  0  0  0  0  0  0  0  0  0
   38.5130   28.1020   29.1060 N   0  0  0  0  0  0  0  0  0  0  0  0
   38.0010   28.0280   30.3460 C   0  0  0  0  0  0  0  0  0  0  0  0
  1  7  1  6  0  0  0
  1  6  1  0  0  0  0
  1  2  1  0  0  0  0
  2  9  1  0  0  0  0
  2  3  1  0  0  0  0
  3  4  1  0  0  0  0
  3 10  1  0  0  0  0
  4 13  1  0  0  0  0
  4 12  1  0  0  0  0
  5 14  1  0  0  0  0
  5  4  1  0  0  0  0
  6 16  1  1  0  0  0
  6  5  1  0  0  0  0
  8  2  1  0  0  0  0
 11  3  1  0  0  0  0
 15  5  1  0  0  0  0
 17 18  1  0  0  0  0
 17  1  1  0  0  0  0
 18 23  1  0  0  0  0
 19 24  1  0  0  0  0
 19 18  2  0  0  0  0
 20 19  1  0  0  0  0
 21 20  2  0  0  0  0
 21 22  1  0  0  0  0
 22 17  2  0  0  0  0
 25 21  1  0  0  0  0
 26 28  1  0  0  0  0
 26 27  2  0  0  0  0
 28  6  1  0  0  0  0
 29 28  1  0  0  0  0
 30 31  1  0  0  0  0
 31 32  1  0  0  0  0
 32 26  1  0  0  0  0
 33 32  2  0  0  0  0
 34 33  1  0  0  0  0
 35 36  1  0  0  0  0
 35 34  2  0  0  0  0
 37 35  1  0  0  0  0
 38 37  2  0  0  0  0
 38 40  1  0  0  0  0
 39 38  1  0  0  0  0
 40 41  2  0  0  0  0
 41 34  1  0  0  0  0
 41 31  1  0  0  0  0
M  END
>  <minimizedAffinity>
-5.23337555

$$$$

 OpenBabel03272509323D

 41 44  0  0  1  0  0  0  0  0999 V2000
   37.8700   27.5200   30.4710 C   0  0  2  0  0  0  0  0  0  0  0  0
   37.4480   28.4790   29.3980 C   0  0  0  0  0  0  0  0  0  0  0  0
   37.1660   29.8670   29.9290 C   0  0  0  0  0  0  0  0  0  0  0  0
   36.1080   29.8190   31.0290 C   0  0  0  0  0  0  0  0  0  0  0  0
   36.2060   28.6020   31.9170 C   0  0  0  0  0  0  0  0  0  0  0  0
   37.6510   28.0750   31.8380 C   0  0  1  0  0  0  0  0  0  0  0  0
   37.2850   26.5480   30.4610 H   0  0  0  0  0  0  0  0  0  0  0  0
   38.0290   28.5080   28.4970 H   0  0  0  0  0  0  0  0  0  0  0  0
   36.4200   28.1040   29.0720 H   0  0  0  0  0  0  0  0  0  0  0  0
   36.7880   30.4490   29.0760 H   0  0  0  0  0  0  0  0  0  0  0  0
   38.0470   30.3580   30.3660 H   0  0  0  0  0  0  0  0  0  0  0  0
   35.1350   29.9090   30.5180 H   0  0  0  0  0  0  0  0  0  0  0  0
   36.2270   30.7120   31.6780 H   0  0  0  0  0  0  0  0  0  0  0  0
   35.9250   28.8210   32.9510 H   0  0  0  0  0  0  0  0  0  0  0  0
   35.5820   27.8090   31.4560 H   0  0  0  0  0  0  0  0  0  0  0  0
   38.1830   28.9850   31.9820 H   0  0  0  0  0  0  0  0  0  0  0  0
   39.3010   27.1510   30.3230 C   0  0  0  0  0  0  0  0  0  0  0  0
   39.5770   26.1490   29.3790 C   0  0  0  0  0  0  0  0  0  0  0  0
   40.9180   25.7830   29.2180 C   0  0  0  0  0  0  0  0  0  0  0  0
   41.8720   26.4220   29.9820 N   0  0  0  0  0  0  0  0  0  0  0  0
   41.5500   27.3950   30.8890 C   0  0  0  0  0  0  0  0  0  0  0  0
   40.2610   27.7430   31.0430 N   0  0  0  0  0  0  0  0  0  0  0  0
   38.9470   25.5850   28.7210 H   0  0  0  0  0  0  0  0  0  0  0  0
   41.2790   25.0350   28.5370 H   0  0  0  0  0  0  0  0  0  0  0  0
   42.3730   27.8260   31.4310 H   0  0  0  0  0  0  0  0  0  0  0  0
   37.5210   25.9320   33.1930 C   0  0  0  0  0  0  0  0  0  0  0  0
   36.6690   25.1990   32.5750 O   0  0  0  0  0  0  0  0  0  0  0  0
   38.0380   27.2200   32.9010 N   0  0  0  0  0  0  0  0  0  0  0  0
   38.8020   27.5370   33.5820 H   0  0  0  0  0  0  0  0  0  0  0  0
   36.7560   26.0800   35.9850 H   0  0  0  0  0  0  0  0  0  0  0  0
   37.5130   25.4020   35.6690 N   0  0  0  0  0  0  0  0  0  0  0  0
   37.9810   25.2150   34.4080 C   0  0  0  0  0  0  0  0  0  0  0  0
   38.8910   24.2770   34.6020 N   0  0  0  0  0  0  0  0  0  0  0  0
   39.0170   23.8790   35.8560 C   0  0  0  0  0  0  0  0  0  0  0  0
   39.8180   22.9540   36.4820 C   0  0  0  0  0  0  0  0  0  0  0  0
   40.5350   22.3790   35.8840 H   0  0  0  0  0  0  0  0  0  0  0  0
   39.6650   22.8130   37.8290 N   0  0  0  0  0  0  0  0  0  0  0  0
   38.7770   23.5370   38.5170 C   0  0  0  0  0  0  0  0  0  0  0  0
   38.6650   23.4150   39.5890 H   0  0  0  0  0  0  0  0  0  0  0  0
   37.9930   24.4450   37.8960 N   0  0  0  0  0  0  0  0  0  0  0  0
   38.1120   24.6150   36.5690 C   0  0  0  0  0  0  0  0  0  0  0  0
  1  7  1  6  0  0  0
  1  6  1  0  0  0  0
  2  3  1  0  0  0  0
  2  1  1  0  0  0  0
  3 11  1  0  0  0  0
  3  4  1  0  0  0  0
  4 13  1  0  0  0  0
  4  5  1  0  0  0  0
  5 14  1  0  0  0  0
  6  5  1  0  0  0  0
  6 16  1  1  0  0  0
  6 28  1  0  0  0  0
  8  2  1  0  0  0  0
  9  2  1  0  0  0  0
 10  3  1  0  0  0  0
 12  4  1  0  0  0  0
 15  5  1  0  0  0  0
 17  1  1  0  0  0  0
 17 22  1  0  0  0  0
 18 17  2  0  0  0  0
 19 18  1  0  0  0  0
 19 20  2  0  0  0  0
 20 21  1  0  0  0  0
 21 22  2  0  0  0  0
 21 25  1  0  0  0  0
 23 18  1  0  0  0  0
 24 19  1  0  0  0  0
 26 32  1  0  0  0  0
 27 26  2  0  0  0  0
 28 26  1  0  0  0  0
 28 29  1  0  0  0  0
 31 30  1  0  0  0  0
 31 41  1  0  0  0  0
 32 33  2  0  0  0  0
 32 31  1  0  0  0  0
 33 34  1  0  0  0  0
 34 35  2  0  0  0  0
 34 41  1  0  0  0  0
 35 37  1  0  0  0  0
 36 35  1  0  0  0  0
 37 38  2  0  0  0  0
 38 39  1  0  0  0  0
 40 38  1  0  0  0  0
 41 40  2  0  0  0  0
M  END
>  <minimizedAffinity>
-5.19391203

$$$$

 OpenBabel03272509323D

 41 44  0  0  1  0  0  0  0  0999 V2000
   39.2700   23.7250   36.0850 C   0  0  2  0  0  0  0  0  0  0  0  0
   39.4230   22.9740   37.3740 C   0  0  0  0  0  0  0  0  0  0  0  0
   38.2100   23.0940   38.2710 C   0  0  0  0  0  0  0  0  0  0  0  0
   37.8940   24.5610   38.5570 C   0  0  0  0  0  0  0  0  0  0  0  0
   38.1460   25.4790   37.3860 C   0  0  0  0  0  0  0  0  0  0  0  0
   38.0860   24.6320   36.1000 C   0  0  1  0  0  0  0  0  0  0  0  0
   40.1480   24.4060   35.8540 H   0  0  0  0  0  0  0  0  0  0  0  0
   39.7840   21.9660   37.3250 H   0  0  0  0  0  0  0  0  0  0  0  0
   40.2320   23.5480   37.9410 H   0  0  0  0  0  0  0  0  0  0  0  0
   38.4720   22.5820   39.2080 H   0  0  0  0  0  0  0  0  0  0  0  0
   37.2990   22.6580   37.8380 H   0  0  0  0  0  0  0  0  0  0  0  0
   38.4780   24.8270   39.4530 H   0  0  0  0  0  0  0  0  0  0  0  0
   36.8200   24.6490   38.8210 H   0  0  0  0  0  0  0  0  0  0  0  0
   37.4290   26.3030   37.3450 H   0  0  0  0  0  0  0  0  0  0  0  0
   39.1990   25.8220   37.4580 H   0  0  0  0  0  0  0  0  0  0  0  0
   37.1850   24.0970   36.2790 H   0  0  0  0  0  0  0  0  0  0  0  0
   39.1490   22.7920   34.9360 C   0  0  0  0  0  0  0  0  0  0  0  0
   40.3580   22.3960   34.3430 C   0  0  0  0  0  0  0  0  0  0  0  0
   40.2730   21.5150   33.2590 C   0  0  0  0  0  0  0  0  0  0  0  0
   39.0260   21.0940   32.8490 N   0  0  0  0  0  0  0  0  0  0  0  0
   37.8760   21.5080   33.4640 C   0  0  0  0  0  0  0  0  0  0  0  0
   37.9600   22.3560   34.5030 N   0  0  0  0  0  0  0  0  0  0  0  0
   41.3800   22.6340   34.5600 H   0  0  0  0  0  0  0  0  0  0  0  0
   41.1090   21.1280   32.7070 H   0  0  0  0  0  0  0  0  0  0  0  0
   36.9580   21.1170   33.0610 H   0  0  0  0  0  0  0  0  0  0  0  0
   38.7200   26.3720   34.3630 C   0  0  0  0  0  0  0  0  0  0  0  0
   39.8650   26.8140   34.7380 O   0  0  0  0  0  0  0  0  0  0  0  0
   37.8790   25.3670   34.9050 N   0  0  0  0  0  0  0  0  0  0  0  0
   37.0070   25.1760   34.3130 H   0  0  0  0  0  0  0  0  0  0  0  0
   39.8860   26.6620   31.7260 H   0  0  0  0  0  0  0  0  0  0  0  0
   38.9670   27.1420   31.9640 N   0  0  0  0  0  0  0  0  0  0  0  0
   38.2970   27.1050   33.1450 C   0  0  0  0  0  0  0  0  0  0  0  0
   37.2480   27.8620   32.8760 N   0  0  0  0  0  0  0  0  0  0  0  0
   37.2190   28.3510   31.6480 C   0  0  0  0  0  0  0  0  0  0  0  0
   36.3400   29.1600   30.9690 C   0  0  0  0  0  0  0  0  0  0  0  0
   35.4420   29.5220   31.4840 H   0  0  0  0  0  0  0  0  0  0  0  0
   36.6490   29.4650   29.6770 N   0  0  0  0  0  0  0  0  0  0  0  0
   37.7560   29.0010   29.0890 C   0  0  0  0  0  0  0  0  0  0  0  0
   37.9910   29.2510   28.0600 H   0  0  0  0  0  0  0  0  0  0  0  0
   38.6170   28.2060   29.7620 N   0  0  0  0  0  0  0  0  0  0  0  0
   38.3490   27.8820   31.0380 C   0  0  0  0  0  0  0  0  0  0  0  0
  1  7  1  6  0  0  0
  1  6  1  0  0  0  0
  1  2  1  0  0  0  0
  2  9  1  0  0  0  0
  2  3  1  0  0  0  0
  3  4  1  0  0  0  0
  3 10  1  0  0  0  0
  4 13  1  0  0  0  0
  4 12  1  0  0  0  0
  5 15  1  0  0  0  0
  5  4  1  0  0  0  0
  6 16  1  1  0  0  0
  6  5  1  0  0  0  0
  8  2  1  0  0  0  0
 11  3  1  0  0  0  0
 14  5  1  0  0  0  0
 17  1  1  0  0  0  0
 18 23  1  0  0  0  0
 18 17  2  0  0  0  0
 19 18  1  0  0  0  0
 20 19  2  0  0  0  0
 20 21  1  0  0  0  0
 21 22  2  0  0  0  0
 22 17  1  0  0  0  0
 24 19  1  0  0  0  0
 25 21  1  0  0  0  0
 26 27  2  0  0  0  0
 26 28  1  0  0  0  0
 28  6  1  0  0  0  0
 29 28  1  0  0  0  0
 30 31  1  0  0  0  0
 31 32  1  0  0  0  0
 32 26  1  0  0  0  0
 33 32  2  0  0  0  0
 34 33  1  0  0  0  0
 35 36  1  0  0  0  0
 35 34  2  0  0  0  0
 37 35  1  0  0  0  0
 38 37  2  0  0  0  0
 38 40  1  0  0  0  0
 39 38  1  0  0  0  0
 40 41  2  0  0  0  0
 41 34  1  0  0  0  0
 41 31  1  0  0  0  0
M  END
>  <minimizedAffinity>
-5.18231821

$$$$

 OpenBabel03272509323D

 41 44  0  0  1  0  0  0  0  0999 V2000
   37.0870   22.5930   33.1410 C   0  0  2  0  0  0  0  0  0  0  0  0
   37.0760   21.1000   33.2810 C   0  0  0  0  0  0  0  0  0  0  0  0
   37.2700   20.3850   31.9620 C   0  0  0  0  0  0  0  0  0  0  0  0
   36.2100   20.8210   30.9510 C   0  0  0  0  0  0  0  0  0  0  0  0
   35.8370   22.2800   31.0500 C   0  0  0  0  0  0  0  0  0  0  0  0
   37.0110   23.0250   31.7150 C   0  0  1  0  0  0  0  0  0  0  0  0
   36.2010   23.0970   33.6400 H   0  0  0  0  0  0  0  0  0  0  0  0
   37.6720   20.6660   34.0600 H   0  0  0  0  0  0  0  0  0  0  0  0
   35.9980   20.8500   33.5630 H   0  0  0  0  0  0  0  0  0  0  0  0
   37.1580   19.3130   32.1760 H   0  0  0  0  0  0  0  0  0  0  0  0
   38.2450   20.5830   31.4950 H   0  0  0  0  0  0  0  0  0  0  0  0
   35.3550   20.1410   31.0970 H   0  0  0  0  0  0  0  0  0  0  0  0
   36.6030   20.6490   29.9270 H   0  0  0  0  0  0  0  0  0  0  0  0
   35.6020   22.7140   30.0750 H   0  0  0  0  0  0  0  0  0  0  0  0
   34.9990   22.3560   31.7730 H   0  0  0  0  0  0  0  0  0  0  0  0
   37.8180   22.6340   31.1440 H   0  0  0  0  0  0  0  0  0  0  0  0
   38.3050   23.1770   33.7580 C   0  0  0  0  0  0  0  0  0  0  0  0
   38.2270   23.4310   35.1370 C   0  0  0  0  0  0  0  0  0  0  0  0
   39.3630   23.9790   35.7450 C   0  0  0  0  0  0  0  0  0  0  0  0
   40.4710   24.2300   34.9640 N   0  0  0  0  0  0  0  0  0  0  0  0
   40.4960   23.9620   33.6220 C   0  0  0  0  0  0  0  0  0  0  0  0
   39.4050   23.4370   33.0410 N   0  0  0  0  0  0  0  0  0  0  0  0
   37.4470   23.2790   35.8550 H   0  0  0  0  0  0  0  0  0  0  0  0
   39.4500   24.2260   36.7860 H   0  0  0  0  0  0  0  0  0  0  0  0
   41.4130   24.1970   33.1110 H   0  0  0  0  0  0  0  0  0  0  0  0
   35.9050   25.2740   31.3120 C   0  0  0  0  0  0  0  0  0  0  0  0
   34.6450   25.0330   31.3330 O   0  0  0  0  0  0  0  0  0  0  0  0
   37.0250   24.4280   31.5120 N   0  0  0  0  0  0  0  0  0  0  0  0
   37.9610   24.9490   31.5020 H   0  0  0  0  0  0  0  0  0  0  0  0
   37.3360   26.6790   29.2200 H   0  0  0  0  0  0  0  0  0  0  0  0
   36.8260   27.2200   29.9800 N   0  0  0  0  0  0  0  0  0  0  0  0
   36.1160   26.7130   31.0210 C   0  0  0  0  0  0  0  0  0  0  0  0
   35.7150   27.8160   31.6280 N   0  0  0  0  0  0  0  0  0  0  0  0
   36.1130   28.9390   31.0550 C   0  0  0  0  0  0  0  0  0  0  0  0
   35.9290   30.2700   31.3450 C   0  0  0  0  0  0  0  0  0  0  0  0
   35.3360   30.5460   32.2250 H   0  0  0  0  0  0  0  0  0  0  0  0
   36.5070   31.1730   30.5040 N   0  0  0  0  0  0  0  0  0  0  0  0
   37.2230   30.7890   29.4420 C   0  0  0  0  0  0  0  0  0  0  0  0
   37.6780   31.5190   28.7800 H   0  0  0  0  0  0  0  0  0  0  0  0
   37.4010   29.4800   29.1620 N   0  0  0  0  0  0  0  0  0  0  0  0
   36.8470   28.5570   29.9660 C   0  0  0  0  0  0  0  0  0  0  0  0
  1  2  1  0  0  0  0
  1  7  1  1  0  0  0
  1 17  1  0  0  0  0
  2  9  1  0  0  0  0
  2  8  1  0  0  0  0
  3 10  1  0  0  0  0
  3  2  1  0  0  0  0
  4  5  1  0  0  0  0
  4 12  1  0  0  0  0
  4  3  1  0  0  0  0
  5  6  1  0  0  0  0
  5 15  1  0  0  0  0
  6 16  1  6  0  0  0
  6  1  1  0  0  0  0
 11  3  1  0  0  0  0
 13  4  1  0  0  0  0
 14  5  1  0  0  0  0
 17 18  1  0  0  0  0
 18 19  2  0  0  0  0
 18 23  1  0  0  0  0
 19 24  1  0  0  0  0
 20 19  1  0  0  0  0
 21 20  2  0  0  0  0
 22 21  1  0  0  0  0
 22 17  2  0  0  0  0
 25 21  1  0  0  0  0
 26 27  2  0  0  0  0
 26 28  1  0  0  0  0
 28  6  1  0  0  0  0
 29 28  1  0  0  0  0
 30 31  1  0  0  0  0
 31 32  1  0  0  0  0
 32 26  1  0  0  0  0
 32 33  2  0  0  0  0
 34 35  1  0  0  0  0
 34 33  1  0  0  0  0
 35 36  1  0  0  0  0
 37 35  2  0  0  0  0
 38 37  1  0  0  0  0
 39 38  1  0  0  0  0
 40 38  2  0  0  0  0
 40 41  1  0  0  0  0
 41 31  1  0  0  0  0
 41 34  2  0  0  0  0
M  END
>  <minimizedAffinity>
-5.14355278

$$$$

 OpenBabel03272509323D

 41 44  0  0  1  0  0  0  0  0999 V2000
   37.2170   29.9240   30.6350 C   0  0  2  0  0  0  0  0  0  0  0  0
   37.4390   31.2640   30.0010 C   0  0  0  0  0  0  0  0  0  0  0  0
   37.1540   31.2660   28.5150 C   0  0  0  0  0  0  0  0  0  0  0  0
   37.9960   30.2080   27.8040 C   0  0  0  0  0  0  0  0  0  0  0  0
   38.1890   28.9430   28.6030 C   0  0  0  0  0  0  0  0  0  0  0  0
   37.0350   28.8450   29.6200 C   0  0  1  0  0  0  0  0  0  0  0  0
   38.0920   29.5750   31.2670 H   0  0  0  0  0  0  0  0  0  0  0  0
   37.0190   32.1230   30.4880 H   0  0  0  0  0  0  0  0  0  0  0  0
   38.5690   31.4200   30.0560 H   0  0  0  0  0  0  0  0  0  0  0  0
   37.4320   32.2660   28.1520 H   0  0  0  0  0  0  0  0  0  0  0  0
   36.1050   31.0470   28.2690 H   0  0  0  0  0  0  0  0  0  0  0  0
   38.9430   30.7040   27.5360 H   0  0  0  0  0  0  0  0  0  0  0  0
   37.4880   29.9270   26.8570 H   0  0  0  0  0  0  0  0  0  0  0  0
   38.2270   28.0540   27.9680 H   0  0  0  0  0  0  0  0  0  0  0  0
   39.1040   29.0790   29.2160 H   0  0  0  0  0  0  0  0  0  0  0  0
   36.2120   29.0470   28.9780 H   0  0  0  0  0  0  0  0  0  0  0  0
   36.0330   29.9480   31.5310 C   0  0  0  0  0  0  0  0  0  0  0  0
   34.9490   30.7230   31.0890 C   0  0  0  0  0  0  0  0  0  0  0  0
   33.8190   30.7600   31.9140 C   0  0  0  0  0  0  0  0  0  0  0  0
   33.8390   30.0430   33.0900 N   0  0  0  0  0  0  0  0  0  0  0  0
   34.9220   29.2990   33.4760 C   0  0  0  0  0  0  0  0  0  0  0  0
   36.0060   29.2670   32.6830 N   0  0  0  0  0  0  0  0  0  0  0  0
   34.7980   31.3130   30.2080 H   0  0  0  0  0  0  0  0  0  0  0  0
   32.9200   31.3090   31.7070 H   0  0  0  0  0  0  0  0  0  0  0  0
   34.8280   28.7800   34.4130 H   0  0  0  0  0  0  0  0  0  0  0  0
   37.7260   26.7660   30.9010 C   0  0  0  0  0  0  0  0  0  0  0  0
   38.9060   27.0200   31.3370 O   0  0  0  0  0  0  0  0  0  0  0  0
   36.8120   27.5510   30.1540 N   0  0  0  0  0  0  0  0  0  0  0  0
   35.8640   27.0750   30.0040 H   0  0  0  0  0  0  0  0  0  0  0  0
   35.8520   24.8340   29.8270 H   0  0  0  0  0  0  0  0  0  0  0  0
   36.4370   24.5980   30.6830 N   0  0  0  0  0  0  0  0  0  0  0  0
   37.3520   25.3880   31.3030 C   0  0  0  0  0  0  0  0  0  0  0  0
   37.7570   24.6010   32.2830 N   0  0  0  0  0  0  0  0  0  0  0  0
   37.1770   23.4130   32.3160 C   0  0  0  0  0  0  0  0  0  0  0  0
   37.2970   22.3200   33.1410 C   0  0  0  0  0  0  0  0  0  0  0  0
   38.0060   22.3590   33.9770 H   0  0  0  0  0  0  0  0  0  0  0  0
   36.5130   21.2420   32.8590 N   0  0  0  0  0  0  0  0  0  0  0  0
   35.6620   21.2400   31.8280 C   0  0  0  0  0  0  0  0  0  0  0  0
   35.0430   20.3750   31.6140 H   0  0  0  0  0  0  0  0  0  0  0  0
   35.5480   22.3170   31.0210 N   0  0  0  0  0  0  0  0  0  0  0  0
   36.3040   23.4010   31.2640 C   0  0  0  0  0  0  0  0  0  0  0  0
  1  7  1  1  0  0  0
  1 17  1  0  0  0  0
  2  9  1  0  0  0  0
  2  8  1  0  0  0  0
  2  1  1  0  0  0  0
  3  2  1  0  0  0  0
  4  3  1  0  0  0  0
  4  5  1  0  0  0  0
  5 15  1  0  0  0  0
  5  6  1  0  0  0  0
  6 16  1  6  0  0  0
  6 28  1  0  0  0  0
  6  1  1  0  0  0  0
 10  3  1  0  0  0  0
 11  3  1  0  0  0  0
 12  4  1  0  0  0  0
 13  4  1  0  0  0  0
 14  5  1  0  0  0  0
 17 22  1  0  0  0  0
 18 17  2  0  0  0  0
 18 19  1  0  0  0  0
 19 20  2  0  0  0  0
 20 21  1  0  0  0  0
 21 25  1  0  0  0  0
 22 21  2  0  0  0  0
 23 18  1  0  0  0  0
 24 19  1  0  0  0  0
 26 32  1  0  0  0  0
 26 27  2  0  0  0  0
 28 26  1  0  0  0  0
 29 28  1  0  0  0  0
 30 31  1  0  0  0  0
 31 41  1  0  0  0  0
 31 32  1  0  0  0  0
 32 33  2  0  0  0  0
 33 34  1  0  0  0  0
 34 35  1  0  0  0  0
 35 36  1  0  0  0  0
 37 35  2  0  0  0  0
 38 37  1  0  0  0  0
 39 38  1  0  0  0  0
 40 41  1  0  0  0  0
 40 38  2  0  0  0  0
 41 34  2  0  0  0  0
M  END
>  <minimizedAffinity>
-5.0730319

$$$$

 OpenBabel03272509323D

 41 44  0  0  1  0  0  0  0  0999 V2000
   32.8690   30.9460   33.8540 C   0  0  2  0  0  0  0  0  0  0  0  0
   31.7620   31.1560   34.8430 C   0  0  0  0  0  0  0  0  0  0  0  0
   31.3210   29.8720   35.5120 C   0  0  0  0  0  0  0  0  0  0  0  0
   30.8970   28.8390   34.4690 C   0  0  0  0  0  0  0  0  0  0  0  0
   31.7280   28.8680   33.2090 C   0  0  0  0  0  0  0  0  0  0  0  0
   33.0900   29.5010   33.5550 C   0  0  1  0  0  0  0  0  0  0  0  0
   32.6630   31.4170   32.8420 H   0  0  0  0  0  0  0  0  0  0  0  0
   31.8690   31.9560   35.5500 H   0  0  0  0  0  0  0  0  0  0  0  0
   30.8620   31.4470   34.2040 H   0  0  0  0  0  0  0  0  0  0  0  0
   30.4600   30.1360   36.1420 H   0  0  0  0  0  0  0  0  0  0  0  0
   32.1070   29.3980   36.1170 H   0  0  0  0  0  0  0  0  0  0  0  0
   29.8240   29.0150   34.2880 H   0  0  0  0  0  0  0  0  0  0  0  0
   31.0000   27.8260   34.9090 H   0  0  0  0  0  0  0  0  0  0  0  0
   31.8580   27.8730   32.7760 H   0  0  0  0  0  0  0  0  0  0  0  0
   31.2440   29.5850   32.5140 H   0  0  0  0  0  0  0  0  0  0  0  0
   33.3250   28.9510   34.4340 H   0  0  0  0  0  0  0  0  0  0  0  0
   34.1410   31.5380   34.3420 C   0  0  0  0  0  0  0  0  0  0  0  0
   34.4650   31.2650   35.6800 C   0  0  0  0  0  0  0  0  0  0  0  0
   35.6600   31.8080   36.1660 C   0  0  0  0  0  0  0  0  0  0  0  0
   36.4340   32.5640   35.3120 N   0  0  0  0  0  0  0  0  0  0  0  0
   36.0740   32.7990   34.0130 C   0  0  0  0  0  0  0  0  0  0  0  0
   34.9250   32.2780   33.5500 N   0  0  0  0  0  0  0  0  0  0  0  0
   33.9690   30.6960   36.4410 H   0  0  0  0  0  0  0  0  0  0  0  0
   36.0360   31.6860   37.1640 H   0  0  0  0  0  0  0  0  0  0  0  0
   36.7530   33.4020   33.4360 H   0  0  0  0  0  0  0  0  0  0  0  0
   35.4300   28.7460   32.9240 C   0  0  0  0  0  0  0  0  0  0  0  0
   35.9660   28.3690   34.0270 O   0  0  0  0  0  0  0  0  0  0  0  0
   34.1310   29.2320   32.6300 N   0  0  0  0  0  0  0  0  0  0  0  0
   33.9630   29.3960   31.5860 H   0  0  0  0  0  0  0  0  0  0  0  0
   35.3690   29.3940   30.1000 H   0  0  0  0  0  0  0  0  0  0  0  0
   36.2410   28.9680   30.5360 N   0  0  0  0  0  0  0  0  0  0  0  0
   36.4260   28.6100   31.8340 C   0  0  0  0  0  0  0  0  0  0  0  0
   37.6630   28.1480   31.8050 N   0  0  0  0  0  0  0  0  0  0  0  0
   38.2430   28.1920   30.6180 C   0  0  0  0  0  0  0  0  0  0  0  0
   39.4840   27.8250   30.1530 C   0  0  0  0  0  0  0  0  0  0  0  0
   40.2090   27.3950   30.8530 H   0  0  0  0  0  0  0  0  0  0  0  0
   39.7330   28.0240   28.8270 N   0  0  0  0  0  0  0  0  0  0  0  0
   38.8160   28.5520   28.0100 C   0  0  0  0  0  0  0  0  0  0  0  0
   39.0270   28.7050   26.9570 H   0  0  0  0  0  0  0  0  0  0  0  0
   37.5990   28.9100   28.4720 N   0  0  0  0  0  0  0  0  0  0  0  0
   37.3130   28.7310   29.7730 C   0  0  0  0  0  0  0  0  0  0  0  0
  1  7  1  6  0  0  0
  1 17  1  0  0  0  0
  1  2  1  0  0  0  0
  2  3  1  0  0  0  0
  2  8  1  0  0  0  0
  3 11  1  0  0  0  0
  3 10  1  0  0  0  0
  4 13  1  0  0  0  0
  4  3  1  0  0  0  0
  5  6  1  0  0  0  0
  5  4  1  0  0  0  0
  6  1  1  0  0  0  0
  6 16  1  1  0  0  0
  9  2  1  0  0  0  0
 12  4  1  0  0  0  0
 14  5  1  0  0  0  0
 15  5  1  0  0  0  0
 17 18  1  0  0  0  0
 18 19  2  0  0  0  0
 18 23  1  0  0  0  0
 19 24  1  0  0  0  0
 20 19  1  0  0  0  0
 21 20  2  0  0  0  0
 22 21  1  0  0  0  0
 22 17  2  0  0  0  0
 25 21  1  0  0  0  0
 26 27  2  0  0  0  0
 28 26  1  0  0  0  0
 28  6  1  0  0  0  0
 29 28  1  0  0  0  0
 30 31  1  0  0  0  0
 31 32  1  0  0  0  0
 32 26  1  0  0  0  0
 33 32  2  0  0  0  0
 34 33  1  0  0  0  0
 35 34  1  0  0  0  0
 35 36  1  0  0  0  0
 37 35  2  0  0  0  0
 38 40  2  0  0  0  0
 38 37  1  0  0  0  0
 39 38  1  0  0  0  0
 40 41  1  0  0  0  0
 41 31  1  0  0  0  0
 41 34  2  0  0  0  0
M  END
>  <minimizedAffinity>
-5.05488586

$$$$
