
     RDKit          3D

 23 25  0  0  0  0  0  0  0  0999 V2000
   37.3076   30.2148   51.4228 C   0  0  0  0  0  0  0  0  0  0  0  0
   38.0925   30.7496   50.3972 C   0  0  0  0  0  0  0  0  0  0  0  0
   37.7396   30.4203   49.0669 C   0  0  0  0  0  0  0  0  0  0  0  0
   36.6570   29.6031   48.8757 N   0  0  0  0  0  0  0  0  0  0  0  0
   35.9421   29.1204   49.8986 C   0  0  0  0  0  0  0  0  0  0  0  0
   36.2549   29.4176   51.1869 N   0  0  0  0  0  0  0  0  0  0  0  0
   34.8471   28.2862   49.5518 N   0  0  0  0  0  0  0  0  0  0  0  0
   37.5127   30.4191   52.4572 H   0  0  0  0  0  0  0  0  0  0  0  0
   38.9329   31.3877   50.6202 H   0  0  0  0  0  0  0  0  0  0  0  0
   34.6244   27.2942   49.7780 H   0  0  0  0  0  0  0  0  0  0  0  0
   34.1176   28.7689   48.9459 H   0  0  0  0  0  0  0  0  0  0  0  0
   38.5065   30.9390   47.9872 N   0  0  0  0  0  0  0  0  0  0  0  0
   38.5604   32.2891   47.8080 C   0  0  0  0  0  0  0  0  0  0  0  0
   38.1073   33.0961   48.3581 H   0  0  0  0  0  0  0  0  0  0  0  0
   39.3271   32.5901   46.7453 N   0  0  0  0  0  0  0  0  0  0  0  0
   39.7717   31.4298   46.2344 C   0  0  0  0  0  0  0  0  0  0  0  0
   40.5770   31.0020   45.1771 C   0  0  0  0  0  0  0  0  0  0  0  0
   40.9985   31.7836   44.5445 H   0  0  0  0  0  0  0  0  0  0  0  0
   40.7928   29.6848   44.9883 N   0  0  0  0  0  0  0  0  0  0  0  0
   40.2680   28.7368   45.7739 C   0  0  0  0  0  0  0  0  0  0  0  0
   40.5243   27.7411   45.5052 H   0  0  0  0  0  0  0  0  0  0  0  0
   39.4738   29.0919   46.8220 N   0  0  0  0  0  0  0  0  0  0  0  0
   39.2613   30.4075   47.0064 C   0  0  0  0  0  0  0  0  0  0  0  0
  2  1  2  0
  3  2  1  0
  4  3  2  0
  4  5  1  0
  5  6  2  0
  6  1  1  0
  7  5  1  0
  1  8  1  0
  2  9  1  0
  7 10  1  0
  7 11  1  0
 12 13  1  0
 13 14  1  0
 13 15  2  0
 15 16  1  0
 16 17  2  0
 17 18  1  0
 17 19  1  0
 19 20  2  0
 20 21  1  0
 20 22  1  0
 22 23  2  0
 23 12  1  0
 23 16  1  0
  3 12  1  0
M  ISO  5   8  14   9  14  14  15  18  16  21  16
M  END
>  <DihAtoms>  (1) 
1,2,11,12

>  <DihDeg>  (1) 
-107.19895442890736

$$$$
