REMARK  Name = 
REMARK  3 active torsions:
REMARK  status: ('A' for Active; 'I' for Inactive)
REMARK    1  A    between atoms: C_2  and  C_10
REMARK    2  A    between atoms: C_3  and  C_16
REMARK    3  A    between atoms: C_16  and  N_25
REMARK                            x       y       z     vdW  Elec       q    Type
REMARK                         _______ _______ _______ _____ _____    ______ ____
ROOT
ATOM      1  C   UNL     1      37.823  30.494  50.181  0.00  0.00    +0.000 A 
ATOM      2  C   UNL     1      37.329  30.691  48.907  0.00  0.00    +0.000 A 
ATOM      3  C   UNL     1      36.012  30.291  48.578  0.00  0.00    +0.000 A 
ATOM      4  N   UNL     1      35.274  29.713  49.563  0.00  0.00    +0.000 NA
ATOM      5  C   UNL     1      35.803  29.534  50.823  0.00  0.00    +0.000 A 
ATOM      6  N   UNL     1      37.073  29.924  51.126  0.00  0.00    +0.000 NA
ATOM      7  N   UNL     1      34.949  28.916  51.798  0.00  0.00    +0.000 N 
ATOM      8  H   UNL     1      38.823  30.787  50.468  0.00  0.00    +0.000 HD
ATOM      9  H   UNL     1      34.301  29.434  52.451  0.00  0.00    +0.000 HD
ATOM     10  H   UNL     1      34.919  27.880  51.922  0.00  0.00    +0.000 HD
ENDROOT
BRANCH   2  13
ATOM     11 CL   UNL     1      38.221  33.582  49.194  0.00  0.00    +0.000 Cl
ATOM     12  C   UNL     1      38.714  32.600  47.861  0.00  0.00    +0.000 A 
ATOM     13  C   UNL     1      38.218  31.328  47.909  0.00  0.00    +0.000 A 
ATOM     14  C   UNL     1      38.574  30.446  46.863  0.00  0.00    +0.000 A 
ATOM     15  C   UNL     1      39.373  30.825  45.838  0.00  0.00    +0.000 A 
ATOM     16  C   UNL     1      39.860  32.130  45.820  0.00  0.00    +0.000 A 
ATOM     17 CL   UNL     1      40.894  32.666  44.522  0.00  0.00    +0.000 Cl
ATOM     18  C   UNL     1      39.523  32.983  46.824  0.00  0.00    +0.000 A 
ATOM     19  H   UNL     1      38.256  29.415  46.798  0.00  0.00    +0.000 HD
ATOM     20  H   UNL     1      39.669  30.185  45.018  0.00  0.00    +0.000 HD
ATOM     21  H   UNL     1      39.877  34.017  46.859  0.00  0.00    +0.000 HD
ENDBRANCH   2  13
BRANCH   3  22
ATOM     22  C   UNL     1      35.499  30.517  47.241  0.00  0.00    +0.000 C 
ATOM     23  H   UNL     1      35.511  31.635  47.082  0.00  0.00    +0.000 HD
ATOM     24  H   UNL     1      36.065  30.114  46.396  0.00  0.00    +0.000 HD
BRANCH  22  25
ATOM     25  N   UNL     1      34.112  30.030  47.156  0.00  0.00    +0.000 N 
ATOM     26  C   UNL     1      33.232  29.989  48.170  0.00  0.00    +0.000 A 
ATOM     27  H   UNL     1      33.390  30.295  49.179  0.00  0.00    +0.000 HD
ATOM     28  N   UNL     1      32.063  29.486  47.737  0.00  0.00    +0.000 NA
ATOM     29  C   UNL     1      32.191  29.203  46.436  0.00  0.00    +0.000 A 
ATOM     30  C   UNL     1      31.283  28.671  45.535  0.00  0.00    +0.000 A 
ATOM     31  H   UNL     1      30.272  28.404  45.829  0.00  0.00    +0.000 HD
ATOM     32  N   UNL     1      31.745  28.512  44.281  0.00  0.00    +0.000 NA
ATOM     33  C   UNL     1      32.989  28.832  43.888  0.00  0.00    +0.000 A 
ATOM     34  H   UNL     1      33.241  28.657  42.846  0.00  0.00    +0.000 HD
ATOM     35  N   UNL     1      33.885  29.357  44.776  0.00  0.00    +0.000 NA
ATOM     36  C   UNL     1      33.496  29.548  46.063  0.00  0.00    +0.000 A 
ENDBRANCH  22  25
ENDBRANCH   3  22
TORSDOF 3
