
     RDKit          3D

 47 51  0  0  0  0  0  0  0  0999 V2000
   37.2309   29.2396   50.5761 C   0  0  0  0  0  0  0  0  0  0  0  0
   37.3967   30.5951   50.9015 C   0  0  0  0  0  0  0  0  0  0  0  0
   36.6819   31.5160   50.1423 C   0  0  0  0  0  0  0  0  0  0  0  0
   35.8799   31.0487   49.1477 N   0  0  0  0  0  0  0  0  0  0  0  0
   35.7564   29.7530   48.8782 C   0  0  0  0  0  0  0  0  0  0  0  0
   36.4275   28.8474   49.5871 N   0  0  0  0  0  0  0  0  0  0  0  0
   34.9002   29.3363   47.8280 N   0  0  0  0  0  0  0  0  0  0  0  0
   34.2468   28.0311   47.8450 C   0  0  0  0  0  0  0  0  0  0  0  0
   32.7737   28.1989   47.6718 C   0  0  0  0  0  0  0  0  0  0  0  0
   32.3360   29.4133   47.1985 N   0  0  0  0  0  0  0  0  0  0  0  0
   33.1997   30.2930   46.4502 C   0  0  0  0  0  0  0  0  0  0  0  0
   34.6256   30.1824   46.6804 C   0  0  2  0  0  0  0  0  0  0  0  0
   35.3805   29.6295   45.5650 N   0  0  0  0  0  0  0  0  0  0  0  0
   36.5497   30.4588   45.2691 C   0  0  0  0  0  0  0  0  0  0  0  0
   36.7571   30.4072   43.7730 C   0  0  0  0  0  0  0  0  0  0  0  0
   35.7404   29.4331   43.3115 C   0  0  0  0  0  0  0  0  0  0  0  0
   34.6251   29.5468   44.3656 C   0  0  1  0  0  0  0  0  0  0  0  0
   37.8148   28.5893   51.2060 H   0  0  0  0  0  0  0  0  0  0  0  0
   38.0010   31.0321   51.6589 H   0  0  0  0  0  0  0  0  0  0  0  0
   36.7248   32.5839   50.2948 H   0  0  0  0  0  0  0  0  0  0  0  0
   34.7388   27.3307   47.1724 H   0  0  0  0  0  0  0  0  0  0  0  0
   34.4408   27.6040   48.8779 H   0  0  0  0  0  0  0  0  0  0  0  0
   32.2439   27.9507   48.6143 H   0  0  0  0  0  0  0  0  0  0  0  0
   32.4514   27.3842   46.9617 H   0  0  0  0  0  0  0  0  0  0  0  0
   31.4472   29.8125   47.5077 H   0  0  0  0  0  0  0  0  0  0  0  0
   32.7618   30.3408   45.4666 H   0  0  0  0  0  0  0  0  0  0  0  0
   32.8933   31.3140   46.8761 H   0  0  0  0  0  0  0  0  0  0  0  0
   35.1119   31.1797   46.9058 H   0  0  0  0  0  0  0  0  0  0  0  0
   37.4273   30.2065   45.8629 H   0  0  0  0  0  0  0  0  0  0  0  0
   36.2079   31.5118   45.4927 H   0  0  0  0  0  0  0  0  0  0  0  0
   36.7005   31.3974   43.2819 H   0  0  0  0  0  0  0  0  0  0  0  0
   37.7704   29.9755   43.6127 H   0  0  0  0  0  0  0  0  0  0  0  0
   35.3930   29.7580   42.3075 H   0  0  0  0  0  0  0  0  0  0  0  0
   36.0920   28.4067   43.2013 H   0  0  0  0  0  0  0  0  0  0  0  0
   34.1251   30.4412   44.0077 H   0  0  0  0  0  0  0  0  0  0  0  0
   33.8873   28.3189   44.1505 N   0  0  0  0  0  0  0  0  0  0  0  0
   32.7617   27.7915   44.7248 C   0  0  0  0  0  0  0  0  0  0  0  0
   32.2676   28.3613   45.5241 H   0  0  0  0  0  0  0  0  0  0  0  0
   32.4694   26.6067   44.1586 N   0  0  0  0  0  0  0  0  0  0  0  0
   33.4019   26.3452   43.2060 C   0  0  0  0  0  0  0  0  0  0  0  0
   33.4499   25.2268   42.4022 C   0  0  0  0  0  0  0  0  0  0  0  0
   32.7142   24.4381   42.4744 H   0  0  0  0  0  0  0  0  0  0  0  0
   34.4761   25.1874   41.5229 N   0  0  0  0  0  0  0  0  0  0  0  0
   35.3563   26.2035   41.4858 C   0  0  0  0  0  0  0  0  0  0  0  0
   36.1874   26.1607   40.7661 H   0  0  0  0  0  0  0  0  0  0  0  0
   35.2508   27.2635   42.2975 N   0  0  0  0  0  0  0  0  0  0  0  0
   34.2791   27.4112   43.2056 C   0  0  0  0  0  0  0  0  0  0  0  0
  1  2  2  0
  3  2  1  0
  4  3  2  0
  5  4  1  0
  5  6  2  0
  6  1  1  0
  7  8  1  0
  7  5  1  0
  9  8  1  0
 10  9  1  0
 11 12  1  0
 11 10  1  0
 12  7  1  0
 13 14  1  0
 13 12  1  0
 15 14  1  0
 16 15  1  0
 16 17  1  0
 17 13  1  0
  1 18  1  0
  2 19  1  0
  3 20  1  0
  8 21  1  0
  8 22  1  0
  9 23  1  0
  9 24  1  0
 10 25  1  0
 11 26  1  0
 11 27  1  0
 12 28  1  1
 14 29  1  0
 14 30  1  0
 15 31  1  0
 15 32  1  0
 16 33  1  0
 16 34  1  0
 17 35  1  6
 36 37  1  0
 37 38  1  0
 37 39  2  0
 39 40  1  0
 40 41  2  0
 41 42  1  0
 41 43  1  0
 43 44  2  0
 44 45  1  0
 44 46  1  0
 46 47  2  0
 47 36  1  0
 47 40  1  0
 17 36  1  0
M  ISO  8  18  14  19  14  20  14  21  13  22  13  23  13  24  13  25   5
M  ISO  8  26  13  27  13  28  13  29  13  30  13  31  13  32  13  33  13
M  ISO  5  34  13  35  13  38  15  42  16  45  16
M  END
>  <DihAtoms>  (1) 
15,16,35,36

>  <DihDeg>  (1) 
-118.47667568340972

$$$$
