REMARK  Name = 
REMARK  4 active torsions:
REMARK  status: ('A' for Active; 'I' for Inactive)
REMARK    1  A    between atoms: C_1  and  C_2
REMARK    2  A    between atoms: C_1  and  C_13
REMARK    3  A    between atoms: C_13  and  C_18
REMARK    4  A    between atoms: C_16  and  N_36
REMARK                            x       y       z     vdW  Elec       q    Type
REMARK                         _______ _______ _______ _____ _____    ______ ____
ROOT
ATOM      1  C   UNL     1      34.827  28.366  49.427  0.00  0.00    +0.000 C 
ATOM      2  H   UNL     1      35.729  28.169  48.812  0.00  0.00    +0.000 HD
ATOM      3  H   UNL     1      34.777  27.542  50.181  0.00  0.00    +0.000 HD
ENDROOT
BRANCH   1   4
ATOM      4  C   UNL     1      33.588  28.306  48.563  0.00  0.00    +0.000 A 
ATOM      5  C   UNL     1      33.692  28.686  47.169  0.00  0.00    +0.000 A 
ATOM      6  S   UNL     1      32.016  28.442  46.643  0.00  0.00    +0.000 S 
ATOM      7  C   UNL     1      31.400  27.872  48.329  0.00  0.00    +0.000 A 
ATOM      8  N   UNL     1      32.410  27.940  48.954  0.00  0.00    +0.000 NA
ATOM      9  N   UNL     1      30.078  27.459  48.773  0.00  0.00    +0.000 N 
ATOM     10  C   UNL     1      29.232  26.880  47.780  0.00  0.00    +0.000 C 
ATOM     11  C   UNL     1      27.799  26.792  48.168  0.00  0.00    +0.000 C 
ATOM     12  N   UNL     1      27.485  27.557  49.376  0.00  0.00    +0.000 NA
ATOM     13  C   UNL     1      28.387  27.017  50.395  0.00  0.00    +0.000 C 
ATOM     14  C   UNL     1      29.723  27.662  50.157  0.00  0.00    +0.000 C 
ATOM     15  H   UNL     1      34.548  29.008  46.667  0.00  0.00    +0.000 HD
ATOM     16  H   UNL     1      29.638  25.921  47.389  0.00  0.00    +0.000 HD
ATOM     17  H   UNL     1      29.274  27.565  46.882  0.00  0.00    +0.000 HD
ATOM     18  H   UNL     1      27.093  27.184  47.394  0.00  0.00    +0.000 HD
ATOM     19  H   UNL     1      27.554  25.718  48.302  0.00  0.00    +0.000 HD
ATOM     20  H   UNL     1      26.524  27.250  49.681  0.00  0.00    +0.000 HD
ATOM     21  H   UNL     1      28.010  27.120  51.411  0.00  0.00    +0.000 HD
ATOM     22  H   UNL     1      28.530  25.914  50.222  0.00  0.00    +0.000 HD
ATOM     23  H   UNL     1      29.601  28.756  50.325  0.00  0.00    +0.000 HD
ATOM     24  H   UNL     1      30.531  27.256  50.799  0.00  0.00    +0.000 HD
ENDBRANCH   1   4
BRANCH   1  25
ATOM     25  C   UNL     1      34.937  29.677  50.126  0.00  0.00    +0.000 C 
ATOM     26  H   UNL     1      35.158  29.540  51.202  0.00  0.00    +0.000 HD
ATOM     27  H   UNL     1      34.020  30.246  49.925  0.00  0.00    +0.000 HD
BRANCH  25  32
ATOM     28  C   UNL     1      37.512  32.290  49.548  0.00  0.00    +0.000 A 
ATOM     29  C   UNL     1      38.286  31.757  48.530  0.00  0.00    +0.000 A 
ATOM     30  C   UNL     1      37.921  30.502  48.046  0.00  0.00    +0.000 A 
ATOM     31  N   UNL     1      36.851  29.863  48.572  0.00  0.00    +0.000 NA
ATOM     32  C   UNL     1      36.133  30.442  49.571  0.00  0.00    +0.000 A 
ATOM     33  N   UNL     1      36.467  31.629  50.038  0.00  0.00    +0.000 NA
ATOM     34  H   UNL     1      37.853  33.264  49.874  0.00  0.00    +0.000 HD
ATOM     35  H   UNL     1      39.154  32.162  48.032  0.00  0.00    +0.000 HD
BRANCH  30  36
ATOM     36  N   UNL     1      38.544  29.732  47.008  0.00  0.00    +0.000 N 
ATOM     37  C   UNL     1      39.838  29.781  46.580  0.00  0.00    +0.000 A 
ATOM     38  H   UNL     1      40.562  30.455  47.019  0.00  0.00    +0.000 HD
ATOM     39  N   UNL     1      39.946  28.869  45.584  0.00  0.00    +0.000 NA
ATOM     40  C   UNL     1      38.765  28.260  45.383  0.00  0.00    +0.000 A 
ATOM     41  C   UNL     1      38.287  27.282  44.533  0.00  0.00    +0.000 A 
ATOM     42  H   UNL     1      38.971  26.841  43.818  0.00  0.00    +0.000 HD
ATOM     43  N   UNL     1      36.982  26.884  44.599  0.00  0.00    +0.000 NA
ATOM     44  C   UNL     1      36.133  27.443  45.501  0.00  0.00    +0.000 A 
ATOM     45  H   UNL     1      35.098  27.069  45.491  0.00  0.00    +0.000 HD
ATOM     46  N   UNL     1      36.562  28.401  46.346  0.00  0.00    +0.000 NA
ATOM     47  C   UNL     1      37.864  28.801  46.284  0.00  0.00    +0.000 A 
ENDBRANCH  30  36
ENDBRANCH  25  32
ENDBRANCH   1  25
TORSDOF 4
