REMARK  Name = 
REMARK  5 active torsions:
REMARK  status: ('A' for Active; 'I' for Inactive)
REMARK    1  A    between atoms: C_3  and  O_7
REMARK    2  A    between atoms: O_7  and  P_9
REMARK    3  A    between atoms: P_9  and  O_10
REMARK    4  A    between atoms: P_9  and  O_11
REMARK    5  A    between atoms: O_11  and  C_18
REMARK                            x       y       z     vdW  Elec       q    Type
REMARK                         _______ _______ _______ _____ _____    ______ ____
ROOT
ATOM      1  O   UNL     1      39.066  32.729  48.145  0.00  0.00    +0.000 OA
ATOM      2  P   UNL     1      38.697  31.711  47.109  0.00  0.00    +0.000 P 
ENDROOT
BRANCH   2   3
ATOM      3  O   UNL     1      37.823  32.468  45.853  0.00  0.00    +0.000 OA
ATOM      4  H   UNL     1      37.958  33.437  45.913  0.00  0.00    +0.000 HD
ENDBRANCH   2   3
BRANCH   2   5
ATOM      5  O   UNL     1      37.881  30.370  47.699  0.00  0.00    +0.000 OA
BRANCH   5   8
ATOM      6  C   UNL     1      37.335  30.163  51.354  0.00  0.00    +0.000 A 
ATOM      7  C   UNL     1      37.997  30.511  50.172  0.00  0.00    +0.000 A 
ATOM      8  C   UNL     1      37.424  30.143  48.964  0.00  0.00    +0.000 A 
ATOM      9  N   UNL     1      36.236  29.456  48.984  0.00  0.00    +0.000 NA
ATOM     10  C   UNL     1      35.634  29.142  50.153  0.00  0.00    +0.000 A 
ATOM     11  N   UNL     1      36.181  29.494  51.328  0.00  0.00    +0.000 NA
ATOM     12  H   UNL     1      37.805  30.462  52.268  0.00  0.00    +0.000 HD
ATOM     13  H   UNL     1      38.919  31.041  50.085  0.00  0.00    +0.000 HD
ATOM     14  H   UNL     1      34.684  28.592  50.128  0.00  0.00    +0.000 HD
ENDBRANCH   5   8
ENDBRANCH   2   5
BRANCH   2  15
ATOM     15  O   UNL     1      40.147  31.186  46.391  0.00  0.00    +0.000 OA
BRANCH  15  18
ATOM     16  H   UNL     1      38.406  29.025  46.077  0.00  0.00    +0.000 HD
ATOM     17  N   UNL     1      39.178  29.142  45.387  0.00  0.00    +0.000 N 
ATOM     18  C   UNL     1      40.078  30.156  45.448  0.00  0.00    +0.000 A 
ATOM     19  N   UNL     1      40.881  29.931  44.388  0.00  0.00    +0.000 NA
ATOM     20  C   UNL     1      40.515  28.851  43.705  0.00  0.00    +0.000 A 
ATOM     21  C   UNL     1      40.926  28.152  42.587  0.00  0.00    +0.000 A 
ATOM     22  H   UNL     1      41.787  28.517  42.048  0.00  0.00    +0.000 HD
ATOM     23  N   UNL     1      40.294  27.050  42.160  0.00  0.00    +0.000 NA
ATOM     24  C   UNL     1      39.211  26.596  42.843  0.00  0.00    +0.000 A 
ATOM     25  H   UNL     1      38.684  25.692  42.500  0.00  0.00    +0.000 HD
ATOM     26  N   UNL     1      38.769  27.240  43.939  0.00  0.00    +0.000 NA
ATOM     27  C   UNL     1      39.416  28.342  44.351  0.00  0.00    +0.000 A 
ENDBRANCH  15  18
ENDBRANCH   2  15
TORSDOF 5
