
 OpenBabel03272506403D

 40 43  0  0  1  0  0  0  0  0999 V2000
   38.7870   24.6100   32.1040 O   0  0  0  0  0  0  0  0  0  0  0  0
   39.5000   25.2290   32.9100 C   0  0  0  0  0  0  0  0  0  0  0  0
   39.4020   26.6650   33.0620 C   0  0  2  0  0  0  0  0  0  0  0  0
   40.3360   26.8940   34.2960 C   0  0  0  0  0  0  0  0  0  0  0  0
   41.2960   25.7450   34.2030 C   0  0  0  0  0  0  0  0  0  0  0  0
   40.4860   24.6180   33.7720 N   0  0  0  0  0  0  0  0  0  0  0  0
   39.7670   27.2930   32.2450 H   0  0  0  0  0  0  0  0  0  0  0  0
   39.7480   26.9100   35.2130 H   0  0  0  0  0  0  0  0  0  0  0  0
   40.7760   27.8870   34.1560 H   0  0  0  0  0  0  0  0  0  0  0  0
   42.1690   25.9420   33.5840 H   0  0  0  0  0  0  0  0  0  0  0  0
   41.6380   25.4980   35.2410 H   0  0  0  0  0  0  0  0  0  0  0  0
   40.6340   23.2240   34.1280 C   0  0  0  0  0  0  0  0  0  0  0  0
   40.0060   22.5790   33.5040 H   0  0  0  0  0  0  0  0  0  0  0  0
   41.7020   22.9630   33.8660 H   0  0  0  0  0  0  0  0  0  0  0  0
   40.4770   22.9930   35.5330 N   0  0  0  0  0  0  0  0  0  0  0  0
   41.2970   22.2680   36.3450 C   0  0  0  0  0  0  0  0  0  0  0  0
   42.1850   21.7820   35.9640 H   0  0  0  0  0  0  0  0  0  0  0  0
   40.8340   22.2630   37.6260 N   0  0  0  0  0  0  0  0  0  0  0  0
   39.6990   22.9950   37.6460 C   0  0  0  0  0  0  0  0  0  0  0  0
   38.8200   23.3240   38.6620 C   0  0  0  0  0  0  0  0  0  0  0  0
   39.0290   22.9530   39.6480 H   0  0  0  0  0  0  0  0  0  0  0  0
   37.7740   24.0860   38.3090 N   0  0  0  0  0  0  0  0  0  0  0  0
   37.5680   24.5200   37.0460 C   0  0  0  0  0  0  0  0  0  0  0  0
   36.6820   25.1310   36.8930 H   0  0  0  0  0  0  0  0  0  0  0  0
   38.4070   24.2130   36.0460 N   0  0  0  0  0  0  0  0  0  0  0  0
   39.4870   23.4390   36.3530 C   0  0  0  0  0  0  0  0  0  0  0  0
   38.1130   27.1260   33.4690 O   0  0  0  0  0  0  0  0  0  0  0  0
   37.3590   27.8310   32.5340 C   0  0  0  0  0  0  0  0  0  0  0  0
   36.3820   28.6740   33.0320 C   0  0  0  0  0  0  0  0  0  0  0  0
   35.6120   29.3910   32.1250 C   0  0  0  0  0  0  0  0  0  0  0  0
   35.8520   29.2340   30.7950 N   0  0  0  0  0  0  0  0  0  0  0  0
   36.8040   28.4130   30.3280 C   0  0  0  0  0  0  0  0  0  0  0  0
   37.5310   27.7350   31.2030 N   0  0  0  0  0  0  0  0  0  0  0  0
   38.3470   28.6340   28.5420 C   0  0  0  0  0  0  0  0  0  0  0  0
   39.2870   29.0440   29.2710 O   0  0  0  0  0  0  0  0  0  0  0  0
   37.0240   28.2730   28.9290 N   0  0  0  0  0  0  0  0  0  0  0  0
   36.1610   28.8260   34.0710 H   0  0  0  0  0  0  0  0  0  0  0  0
   34.8400   30.0580   32.4810 H   0  0  0  0  0  0  0  0  0  0  0  0
   38.6770   28.5840   27.5080 H   0  0  0  0  0  0  0  0  0  0  0  0
   36.3550   27.9530   28.2180 H   0  0  0  0  0  0  0  0  0  0  0  0
  1  2  2  0  0  0  0
  2  3  1  0  0  0  0
  2  6  1  0  0  0  0
  3  7  1  6  0  0  0
  3 27  1  0  0  0  0
  3  4  1  0  0  0  0
  4  8  1  0  0  0  0
  5  4  1  0  0  0  0
  5 11  1  0  0  0  0
  6 12  1  0  0  0  0
  6  5  1  0  0  0  0
  9  4  1  0  0  0  0
 10  5  1  0  0  0  0
 12 15  1  0  0  0  0
 13 12  1  0  0  0  0
 14 12  1  0  0  0  0
 15 16  1  0  0  0  0
 15 26  1  0  0  0  0
 16 18  2  0  0  0  0
 17 16  1  0  0  0  0
 18 19  1  0  0  0  0
 19 20  1  0  0  0  0
 20 21  1  0  0  0  0
 22 20  2  0  0  0  0
 23 22  1  0  0  0  0
 24 23  1  0  0  0  0
 25 26  1  0  0  0  0
 25 23  2  0  0  0  0
 26 19  2  0  0  0  0
 28 29  1  0  0  0  0
 28 27  1  0  0  0  0
 29 37  1  0  0  0  0
 30 38  1  0  0  0  0
 30 29  2  0  0  0  0
 31 30  1  0  0  0  0
 32 31  2  0  0  0  0
 32 33  1  0  0  0  0
 33 28  2  0  0  0  0
 34 36  1  0  0  0  0
 34 35  2  0  0  0  0
 36 32  1  0  0  0  0
 39 34  1  0  0  0  0
 40 36  1  0  0  0  0
M  END
>  <minimizedAffinity>
-5.83428192

$$$$

 OpenBabel03272506403D

 40 43  0  0  1  0  0  0  0  0999 V2000
   37.2530   26.0610   34.0570 O   0  0  0  0  0  0  0  0  0  0  0  0
   37.6690   25.5440   33.0080 C   0  0  0  0  0  0  0  0  0  0  0  0
   38.7720   24.6060   33.0100 C   0  0  2  0  0  0  0  0  0  0  0  0
   38.7530   24.1280   31.5210 C   0  0  0  0  0  0  0  0  0  0  0  0
   38.1610   25.3040   30.8020 C   0  0  0  0  0  0  0  0  0  0  0  0
   37.1250   25.8000   31.6940 N   0  0  0  0  0  0  0  0  0  0  0  0
   39.7720   24.9920   33.2260 H   0  0  0  0  0  0  0  0  0  0  0  0
   38.1740   23.2110   31.4280 H   0  0  0  0  0  0  0  0  0  0  0  0
   39.7950   23.9000   31.2690 H   0  0  0  0  0  0  0  0  0  0  0  0
   38.8880   26.0510   30.4900 H   0  0  0  0  0  0  0  0  0  0  0  0
   37.6260   24.9190   29.8960 H   0  0  0  0  0  0  0  0  0  0  0  0
   35.8570   26.4010   31.3430 C   0  0  0  0  0  0  0  0  0  0  0  0
   35.4910   26.0340   30.3770 H   0  0  0  0  0  0  0  0  0  0  0  0
   35.1250   26.0210   32.1150 H   0  0  0  0  0  0  0  0  0  0  0  0
   35.8750   27.8290   31.4460 N   0  0  0  0  0  0  0  0  0  0  0  0
   35.3300   28.5900   32.4370 C   0  0  0  0  0  0  0  0  0  0  0  0
   34.8100   28.1420   33.2730 H   0  0  0  0  0  0  0  0  0  0  0  0
   35.5400   29.9150   32.2050 N   0  0  0  0  0  0  0  0  0  0  0  0
   36.2300   30.0170   31.0480 C   0  0  0  0  0  0  0  0  0  0  0  0
   36.7080   31.1050   30.3410 C   0  0  0  0  0  0  0  0  0  0  0  0
   36.5250   32.0850   30.7400 H   0  0  0  0  0  0  0  0  0  0  0  0
   37.3650   30.8240   29.2050 N   0  0  0  0  0  0  0  0  0  0  0  0
   37.5620   29.5640   28.7580 C   0  0  0  0  0  0  0  0  0  0  0  0
   38.1100   29.4730   27.8230 H   0  0  0  0  0  0  0  0  0  0  0  0
   37.1070   28.4950   29.4270 N   0  0  0  0  0  0  0  0  0  0  0  0
   36.4310   28.7270   30.5890 C   0  0  0  0  0  0  0  0  0  0  0  0
   38.5430   23.4320   33.7900 O   0  0  0  0  0  0  0  0  0  0  0  0
   39.3600   23.2300   34.9000 C   0  0  0  0  0  0  0  0  0  0  0  0
   40.7250   23.2450   34.6770 C   0  0  0  0  0  0  0  0  0  0  0  0
   41.5680   23.0450   35.7640 C   0  0  0  0  0  0  0  0  0  0  0  0
   41.0160   22.8450   36.9910 N   0  0  0  0  0  0  0  0  0  0  0  0
   39.6900   22.8340   37.1900 C   0  0  0  0  0  0  0  0  0  0  0  0
   38.8980   23.0260   36.1460 N   0  0  0  0  0  0  0  0  0  0  0  0
   38.3450   23.7070   38.9370 C   0  0  0  0  0  0  0  0  0  0  0  0
   38.0810   24.7800   38.3340 O   0  0  0  0  0  0  0  0  0  0  0  0
   39.1500   22.6190   38.4900 N   0  0  0  0  0  0  0  0  0  0  0  0
   41.2000   23.3980   33.7270 H   0  0  0  0  0  0  0  0  0  0  0  0
   42.6390   23.0510   35.6240 H   0  0  0  0  0  0  0  0  0  0  0  0
   37.8590   23.7010   39.9080 H   0  0  0  0  0  0  0  0  0  0  0  0
   39.2790   21.7990   39.0950 H   0  0  0  0  0  0  0  0  0  0  0  0
  2  3  1  0  0  0  0
  2  1  2  0  0  0  0
  3  7  1  1  0  0  0
  3 27  1  0  0  0  0
  4  3  1  0  0  0  0
  5  4  1  0  0  0  0
  5  6  1  0  0  0  0
  6  2  1  0  0  0  0
  8  4  1  0  0  0  0
  9  4  1  0  0  0  0
 10  5  1  0  0  0  0
 11  5  1  0  0  0  0
 12 15  1  0  0  0  0
 12  6  1  0  0  0  0
 12 14  1  0  0  0  0
 13 12  1  0  0  0  0
 15 16  1  0  0  0  0
 16 17  1  0  0  0  0
 18 16  2  0  0  0  0
 19 18  1  0  0  0  0
 20 21  1  0  0  0  0
 20 19  2  0  0  0  0
 22 20  1  0  0  0  0
 23 22  2  0  0  0  0
 23 25  1  0  0  0  0
 24 23  1  0  0  0  0
 25 26  2  0  0  0  0
 26 19  1  0  0  0  0
 26 15  1  0  0  0  0
 27 28  1  0  0  0  0
 28 33  1  0  0  0  0
 29 28  2  0  0  0  0
 29 30  1  0  0  0  0
 30 31  2  0  0  0  0
 31 32  1  0  0  0  0
 32 36  1  0  0  0  0
 33 32  2  0  0  0  0
 34 39  1  0  0  0  0
 35 34  2  0  0  0  0
 36 34  1  0  0  0  0
 36 40  1  0  0  0  0
 37 29  1  0  0  0  0
 38 30  1  0  0  0  0
M  END
>  <minimizedAffinity>
-5.69536972

$$$$

 OpenBabel03272506403D

 40 43  0  0  1  0  0  0  0  0999 V2000
   37.0380   27.9390   34.8000 O   0  0  0  0  0  0  0  0  0  0  0  0
   36.9300   27.5280   33.6340 C   0  0  0  0  0  0  0  0  0  0  0  0
   37.6750   26.3790   33.1630 C   0  0  2  0  0  0  0  0  0  0  0  0
   37.0390   26.1780   31.7480 C   0  0  0  0  0  0  0  0  0  0  0  0
   36.5850   27.5610   31.3880 C   0  0  0  0  0  0  0  0  0  0  0  0
   36.0740   28.1190   32.6300 N   0  0  0  0  0  0  0  0  0  0  0  0
   38.7560   26.4880   33.0330 H   0  0  0  0  0  0  0  0  0  0  0  0
   36.2370   25.4430   31.7990 H   0  0  0  0  0  0  0  0  0  0  0  0
   37.8370   25.7670   31.1200 H   0  0  0  0  0  0  0  0  0  0  0  0
   37.3420   28.1660   30.8940 H   0  0  0  0  0  0  0  0  0  0  0  0
   35.6980   27.4650   30.7090 H   0  0  0  0  0  0  0  0  0  0  0  0
   34.9740   29.0390   32.8100 C   0  0  0  0  0  0  0  0  0  0  0  0
   34.1920   28.8860   32.0570 H   0  0  0  0  0  0  0  0  0  0  0  0
   34.5090   28.7560   33.8000 H   0  0  0  0  0  0  0  0  0  0  0  0
   35.4050   30.4000   32.9210 N   0  0  0  0  0  0  0  0  0  0  0  0
   35.7940   31.2270   31.9090 C   0  0  0  0  0  0  0  0  0  0  0  0
   35.8050   30.8940   30.8800 H   0  0  0  0  0  0  0  0  0  0  0  0
   36.1400   32.4540   32.3870 N   0  0  0  0  0  0  0  0  0  0  0  0
   35.9740   32.4250   33.7280 C   0  0  0  0  0  0  0  0  0  0  0  0
   36.1700   33.3770   34.7110 C   0  0  0  0  0  0  0  0  0  0  0  0
   36.5230   34.3450   34.4110 H   0  0  0  0  0  0  0  0  0  0  0  0
   35.8970   32.9880   35.9660 N   0  0  0  0  0  0  0  0  0  0  0  0
   35.4560   31.7490   36.2770 C   0  0  0  0  0  0  0  0  0  0  0  0
   35.2710   31.5620   37.3320 H   0  0  0  0  0  0  0  0  0  0  0  0
   35.2580   30.8120   35.3390 N   0  0  0  0  0  0  0  0  0  0  0  0
   35.5220   31.1570   34.0470 C   0  0  0  0  0  0  0  0  0  0  0  0
   37.4080   25.1720   33.8770 O   0  0  0  0  0  0  0  0  0  0  0  0
   38.4530   24.6130   34.6080 C   0  0  0  0  0  0  0  0  0  0  0  0
   39.7310   24.8180   34.1190 C   0  0  0  0  0  0  0  0  0  0  0  0
   40.7970   24.2730   34.8250 C   0  0  0  0  0  0  0  0  0  0  0  0
   40.5370   23.5670   35.9590 N   0  0  0  0  0  0  0  0  0  0  0  0
   39.2920   23.3780   36.4190 C   0  0  0  0  0  0  0  0  0  0  0  0
   38.2860   23.9030   35.7370 N   0  0  0  0  0  0  0  0  0  0  0  0
   38.3990   23.3920   38.6150 C   0  0  0  0  0  0  0  0  0  0  0  0
   38.0220   24.5920   38.5630 O   0  0  0  0  0  0  0  0  0  0  0  0
   39.0600   22.6310   37.6090 N   0  0  0  0  0  0  0  0  0  0  0  0
   39.9780   25.3670   33.2310 H   0  0  0  0  0  0  0  0  0  0  0  0
   41.8070   24.4140   34.4710 H   0  0  0  0  0  0  0  0  0  0  0  0
   38.1480   22.9690   39.5840 H   0  0  0  0  0  0  0  0  0  0  0  0
   39.3110   21.6520   37.7930 H   0  0  0  0  0  0  0  0  0  0  0  0
  2  1  2  0  0  0  0
  3  7  1  6  0  0  0
  3  2  1  0  0  0  0
  3 27  1  0  0  0  0
  4  8  1  0  0  0  0
  4  3  1  0  0  0  0
  5  4  1  0  0  0  0
  5  6  1  0  0  0  0
  6 12  1  0  0  0  0
  6  2  1  0  0  0  0
  9  4  1  0  0  0  0
 10  5  1  0  0  0  0
 11  5  1  0  0  0  0
 12 15  1  0  0  0  0
 12 14  1  0  0  0  0
 13 12  1  0  0  0  0
 15 26  1  0  0  0  0
 16 18  2  0  0  0  0
 16 15  1  0  0  0  0
 17 16  1  0  0  0  0
 18 19  1  0  0  0  0
 19 26  2  0  0  0  0
 19 20  1  0  0  0  0
 20 22  2  0  0  0  0
 21 20  1  0  0  0  0
 22 23  1  0  0  0  0
 23 24  1  0  0  0  0
 25 23  2  0  0  0  0
 26 25  1  0  0  0  0
 27 28  1  0  0  0  0
 28 33  1  0  0  0  0
 29 28  2  0  0  0  0
 29 30  1  0  0  0  0
 30 31  2  0  0  0  0
 31 32  1  0  0  0  0
 32 36  1  0  0  0  0
 33 32  2  0  0  0  0
 34 39  1  0  0  0  0
 35 34  2  0  0  0  0
 36 40  1  0  0  0  0
 36 34  1  0  0  0  0
 37 29  1  0  0  0  0
 38 30  1  0  0  0  0
M  END
>  <minimizedAffinity>
-5.63315439

$$$$

 OpenBabel03272506403D

 40 43  0  0  1  0  0  0  0  0999 V2000
   36.5100   27.8230   35.0720 O   0  0  0  0  0  0  0  0  0  0  0  0
   36.7690   27.7670   33.8590 C   0  0  0  0  0  0  0  0  0  0  0  0
   37.8240   26.9160   33.3480 C   0  0  2  0  0  0  0  0  0  0  0  0
   37.5980   27.0640   31.8070 C   0  0  0  0  0  0  0  0  0  0  0  0
   36.9700   28.4220   31.6930 C   0  0  0  0  0  0  0  0  0  0  0  0
   36.0760   28.5140   32.8350 N   0  0  0  0  0  0  0  0  0  0  0  0
   38.8580   27.1970   33.5650 H   0  0  0  0  0  0  0  0  0  0  0  0
   36.9740   26.2510   31.4400 H   0  0  0  0  0  0  0  0  0  0  0  0
   38.5890   26.9650   31.3510 H   0  0  0  0  0  0  0  0  0  0  0  0
   37.6830   29.2390   31.6050 H   0  0  0  0  0  0  0  0  0  0  0  0
   36.3100   28.4190   30.7870 H   0  0  0  0  0  0  0  0  0  0  0  0
   34.8000   29.1900   32.9180 C   0  0  0  0  0  0  0  0  0  0  0  0
   34.4880   29.5840   31.9440 H   0  0  0  0  0  0  0  0  0  0  0  0
   34.0530   28.3830   33.1790 H   0  0  0  0  0  0  0  0  0  0  0  0
   34.7570   30.1600   33.9710 N   0  0  0  0  0  0  0  0  0  0  0  0
   35.5950   31.2200   34.1500 C   0  0  0  0  0  0  0  0  0  0  0  0
   36.4090   31.4190   33.4650 H   0  0  0  0  0  0  0  0  0  0  0  0
   35.2550   31.9300   35.2610 N   0  0  0  0  0  0  0  0  0  0  0  0
   34.1800   31.3230   35.8110 C   0  0  0  0  0  0  0  0  0  0  0  0
   33.4240   31.6070   36.9340 C   0  0  0  0  0  0  0  0  0  0  0  0
   33.6970   32.4620   37.5220 H   0  0  0  0  0  0  0  0  0  0  0  0
   32.4060   30.7690   37.1820 N   0  0  0  0  0  0  0  0  0  0  0  0
   32.1150   29.7070   36.3990 C   0  0  0  0  0  0  0  0  0  0  0  0
   31.2630   29.1070   36.7110 H   0  0  0  0  0  0  0  0  0  0  0  0
   32.8340   29.4140   35.3060 N   0  0  0  0  0  0  0  0  0  0  0  0
   33.8810   30.2350   35.0100 C   0  0  0  0  0  0  0  0  0  0  0  0
   37.6460   25.5270   33.6280 O   0  0  0  0  0  0  0  0  0  0  0  0
   38.6260   24.8950   34.3880 C   0  0  0  0  0  0  0  0  0  0  0  0
   39.9390   25.0930   33.9970 C   0  0  0  0  0  0  0  0  0  0  0  0
   40.9410   24.4750   34.7340 C   0  0  0  0  0  0  0  0  0  0  0  0
   40.5900   23.7070   35.8010 N   0  0  0  0  0  0  0  0  0  0  0  0
   39.3130   23.5260   36.1670 C   0  0  0  0  0  0  0  0  0  0  0  0
   38.3670   24.1210   35.4560 N   0  0  0  0  0  0  0  0  0  0  0  0
   38.2760   23.4300   38.2970 C   0  0  0  0  0  0  0  0  0  0  0  0
   37.9330   24.6400   38.2980 O   0  0  0  0  0  0  0  0  0  0  0  0
   38.9840   22.7140   37.2890 N   0  0  0  0  0  0  0  0  0  0  0  0
   40.2570   25.6890   33.1640 H   0  0  0  0  0  0  0  0  0  0  0  0
   41.9760   24.6090   34.4560 H   0  0  0  0  0  0  0  0  0  0  0  0
   37.9510   22.9550   39.2190 H   0  0  0  0  0  0  0  0  0  0  0  0
   39.1980   21.7180   37.4260 H   0  0  0  0  0  0  0  0  0  0  0  0
  2  1  2  0  0  0  0
  3  7  1  1  0  0  0
  3 27  1  0  0  0  0
  3  2  1  0  0  0  0
  4  3  1  0  0  0  0
  5  4  1  0  0  0  0
  5  6  1  0  0  0  0
  6 12  1  0  0  0  0
  6  2  1  0  0  0  0
  8  4  1  0  0  0  0
  9  4  1  0  0  0  0
 10  5  1  0  0  0  0
 11  5  1  0  0  0  0
 12 14  1  0  0  0  0
 12 15  1  0  0  0  0
 13 12  1  0  0  0  0
 15 16  1  0  0  0  0
 15 26  1  0  0  0  0
 16 18  2  0  0  0  0
 17 16  1  0  0  0  0
 18 19  1  0  0  0  0
 19 20  1  0  0  0  0
 20 22  2  0  0  0  0
 20 21  1  0  0  0  0
 23 24  1  0  0  0  0
 23 22  1  0  0  0  0
 25 23  2  0  0  0  0
 26 25  1  0  0  0  0
 26 19  2  0  0  0  0
 27 28  1  0  0  0  0
 28 33  1  0  0  0  0
 29 28  2  0  0  0  0
 29 30  1  0  0  0  0
 30 31  2  0  0  0  0
 31 32  1  0  0  0  0
 32 36  1  0  0  0  0
 33 32  2  0  0  0  0
 34 35  2  0  0  0  0
 34 39  1  0  0  0  0
 36 40  1  0  0  0  0
 36 34  1  0  0  0  0
 37 29  1  0  0  0  0
 38 30  1  0  0  0  0
M  END
>  <minimizedAffinity>
-5.63074636

$$$$

 OpenBabel03272506403D

 40 43  0  0  1  0  0  0  0  0999 V2000
   37.1300   27.9940   35.1330 O   0  0  0  0  0  0  0  0  0  0  0  0
   36.4720   28.3410   34.1390 C   0  0  0  0  0  0  0  0  0  0  0  0
   35.3830   29.2900   34.2450 C   0  0  2  0  0  0  0  0  0  0  0  0
   35.0450   29.5170   32.7350 C   0  0  0  0  0  0  0  0  0  0  0  0
   35.4740   28.2280   32.1010 C   0  0  0  0  0  0  0  0  0  0  0  0
   36.6980   27.8620   32.7950 N   0  0  0  0  0  0  0  0  0  0  0  0
   34.4680   28.9660   34.7490 H   0  0  0  0  0  0  0  0  0  0  0  0
   35.5710   30.3950   32.3610 H   0  0  0  0  0  0  0  0  0  0  0  0
   33.9700   29.7240   32.6990 H   0  0  0  0  0  0  0  0  0  0  0  0
   34.7070   27.4560   32.0930 H   0  0  0  0  0  0  0  0  0  0  0  0
   35.7760   28.4480   31.0440 H   0  0  0  0  0  0  0  0  0  0  0  0
   37.8600   27.1860   32.2610 C   0  0  0  0  0  0  0  0  0  0  0  0
   37.9290   27.3000   31.1730 H   0  0  0  0  0  0  0  0  0  0  0  0
   38.7470   27.7390   32.6880 H   0  0  0  0  0  0  0  0  0  0  0  0
   37.9590   25.8270   32.7030 N   0  0  0  0  0  0  0  0  0  0  0  0
   38.8350   25.3200   33.6160 C   0  0  0  0  0  0  0  0  0  0  0  0
   39.5670   25.9470   34.1070 H   0  0  0  0  0  0  0  0  0  0  0  0
   38.6400   23.9830   33.7890 N   0  0  0  0  0  0  0  0  0  0  0  0
   37.6250   23.6170   32.9760 C   0  0  0  0  0  0  0  0  0  0  0  0
   37.0100   22.4000   32.7440 C   0  0  0  0  0  0  0  0  0  0  0  0
   37.3680   21.5440   33.2840 H   0  0  0  0  0  0  0  0  0  0  0  0
   36.0110   22.4090   31.8480 N   0  0  0  0  0  0  0  0  0  0  0  0
   35.6090   23.5250   31.2010 C   0  0  0  0  0  0  0  0  0  0  0  0
   34.7870   23.3960   30.5010 H   0  0  0  0  0  0  0  0  0  0  0  0
   36.1900   24.7140   31.4110 N   0  0  0  0  0  0  0  0  0  0  0  0
   37.2120   24.7590   32.3120 C   0  0  0  0  0  0  0  0  0  0  0  0
   35.7670   30.5700   34.7470 O   0  0  0  0  0  0  0  0  0  0  0  0
   34.9120   31.1850   35.6590 C   0  0  0  0  0  0  0  0  0  0  0  0
   35.3820   32.3290   36.2780 C   0  0  0  0  0  0  0  0  0  0  0  0
   34.5540   32.9660   37.1930 C   0  0  0  0  0  0  0  0  0  0  0  0
   33.3230   32.4390   37.4390 N   0  0  0  0  0  0  0  0  0  0  0  0
   32.8820   31.3290   36.8290 C   0  0  0  0  0  0  0  0  0  0  0  0
   33.6820   30.7320   35.9590 N   0  0  0  0  0  0  0  0  0  0  0  0
   30.7560   30.7410   35.9600 C   0  0  0  0  0  0  0  0  0  0  0  0
   31.0320   31.0810   34.7800 O   0  0  0  0  0  0  0  0  0  0  0  0
   31.5890   30.8060   37.1150 N   0  0  0  0  0  0  0  0  0  0  0  0
   36.3440   32.7760   36.1120 H   0  0  0  0  0  0  0  0  0  0  0  0
   34.8900   33.8610   37.6940 H   0  0  0  0  0  0  0  0  0  0  0  0
   29.7380   30.3650   36.0060 H   0  0  0  0  0  0  0  0  0  0  0  0
   31.2270   30.4900   38.0220 H   0  0  0  0  0  0  0  0  0  0  0  0
  2  3  1  0  0  0  0
  2  1  2  0  0  0  0
  3 27  1  0  0  0  0
  3  7  1  1  0  0  0
  4  3  1  0  0  0  0
  5  4  1  0  0  0  0
  5  6  1  0  0  0  0
  6  2  1  0  0  0  0
  8  4  1  0  0  0  0
  9  4  1  0  0  0  0
 10  5  1  0  0  0  0
 11  5  1  0  0  0  0
 12 14  1  0  0  0  0
 12 15  1  0  0  0  0
 12  6  1  0  0  0  0
 13 12  1  0  0  0  0
 15 16  1  0  0  0  0
 16 18  2  0  0  0  0
 16 17  1  0  0  0  0
 19 18  1  0  0  0  0
 20 19  1  0  0  0  0
 20 21  1  0  0  0  0
 22 20  2  0  0  0  0
 23 25  2  0  0  0  0
 23 22  1  0  0  0  0
 24 23  1  0  0  0  0
 25 26  1  0  0  0  0
 26 15  1  0  0  0  0
 26 19  2  0  0  0  0
 27 28  1  0  0  0  0
 28 33  2  0  0  0  0
 28 29  1  0  0  0  0
 29 30  2  0  0  0  0
 30 31  1  0  0  0  0
 30 38  1  0  0  0  0
 32 36  1  0  0  0  0
 32 31  2  0  0  0  0
 33 32  1  0  0  0  0
 34 39  1  0  0  0  0
 34 36  1  0  0  0  0
 35 34  2  0  0  0  0
 36 40  1  0  0  0  0
 37 29  1  0  0  0  0
M  END
>  <minimizedAffinity>
-5.59794235

$$$$

 OpenBabel03272506403D

 40 43  0  0  1  0  0  0  0  0999 V2000
   37.0010   28.0790   35.2730 O   0  0  0  0  0  0  0  0  0  0  0  0
   36.5010   28.1830   34.1420 C   0  0  0  0  0  0  0  0  0  0  0  0
   35.3810   29.0650   33.8860 C   0  0  2  0  0  0  0  0  0  0  0  0
   35.2840   28.9710   32.3280 C   0  0  0  0  0  0  0  0  0  0  0  0
   35.8500   27.6120   32.0410 C   0  0  0  0  0  0  0  0  0  0  0  0
   36.9570   27.4670   32.9730 N   0  0  0  0  0  0  0  0  0  0  0  0
   34.4070   28.7880   34.3000 H   0  0  0  0  0  0  0  0  0  0  0  0
   35.8360   29.7900   31.8680 H   0  0  0  0  0  0  0  0  0  0  0  0
   34.2230   29.0990   32.0880 H   0  0  0  0  0  0  0  0  0  0  0  0
   35.1190   26.8070   32.0720 H   0  0  0  0  0  0  0  0  0  0  0  0
   36.3120   27.6410   31.0200 H   0  0  0  0  0  0  0  0  0  0  0  0
   38.2100   26.7740   32.7700 C   0  0  0  0  0  0  0  0  0  0  0  0
   38.6900   27.0750   31.8320 H   0  0  0  0  0  0  0  0  0  0  0  0
   38.8880   27.1400   33.5960 H   0  0  0  0  0  0  0  0  0  0  0  0
   38.0870   25.3550   32.9230 N   0  0  0  0  0  0  0  0  0  0  0  0
   37.8320   24.4400   31.9460 C   0  0  0  0  0  0  0  0  0  0  0  0
   37.6950   24.7370   30.9150 H   0  0  0  0  0  0  0  0  0  0  0  0
   37.7840   23.1790   32.4580 N   0  0  0  0  0  0  0  0  0  0  0  0
   38.0100   23.2770   33.7870 C   0  0  0  0  0  0  0  0  0  0  0  0
   38.0760   22.3300   34.7920 C   0  0  0  0  0  0  0  0  0  0  0  0
   37.9240   21.3010   34.5260 H   0  0  0  0  0  0  0  0  0  0  0  0
   38.3260   22.7990   36.0250 N   0  0  0  0  0  0  0  0  0  0  0  0
   38.5070   24.1110   36.2930 C   0  0  0  0  0  0  0  0  0  0  0  0
   38.7030   24.3590   37.3340 H   0  0  0  0  0  0  0  0  0  0  0  0
   38.4480   25.0450   35.3330 N   0  0  0  0  0  0  0  0  0  0  0  0
   38.1960   24.6200   34.0630 C   0  0  0  0  0  0  0  0  0  0  0  0
   35.6380   30.4400   34.1710 O   0  0  0  0  0  0  0  0  0  0  0  0
   34.9650   31.0090   35.2490 C   0  0  0  0  0  0  0  0  0  0  0  0
   35.6020   32.0500   35.8990 C   0  0  0  0  0  0  0  0  0  0  0  0
   34.9570   32.6400   36.9800 C   0  0  0  0  0  0  0  0  0  0  0  0
   33.7350   32.1680   37.3490 N   0  0  0  0  0  0  0  0  0  0  0  0
   33.1310   31.1570   36.7070 C   0  0  0  0  0  0  0  0  0  0  0  0
   33.7560   30.6050   35.6790 N   0  0  0  0  0  0  0  0  0  0  0  0
   30.8680   30.7980   36.1000 C   0  0  0  0  0  0  0  0  0  0  0  0
   31.0050   31.2410   34.9300 O   0  0  0  0  0  0  0  0  0  0  0  0
   31.8530   30.6900   37.1240 N   0  0  0  0  0  0  0  0  0  0  0  0
   36.5640   32.4510   35.6410 H   0  0  0  0  0  0  0  0  0  0  0  0
   35.4270   33.4550   37.5090 H   0  0  0  0  0  0  0  0  0  0  0  0
   29.8400   30.4840   36.2560 H   0  0  0  0  0  0  0  0  0  0  0  0
   31.5940   30.3050   38.0410 H   0  0  0  0  0  0  0  0  0  0  0  0
  2  1  2  0  0  0  0
  3  2  1  0  0  0  0
  3 27  1  0  0  0  0
  3  7  1  1  0  0  0
  4  3  1  0  0  0  0
  5 10  1  0  0  0  0
  5  4  1  0  0  0  0
  5  6  1  0  0  0  0
  6  2  1  0  0  0  0
  8  4  1  0  0  0  0
  9  4  1  0  0  0  0
 11  5  1  0  0  0  0
 12 15  1  0  0  0  0
 12  6  1  0  0  0  0
 12 14  1  0  0  0  0
 13 12  1  0  0  0  0
 15 26  1  0  0  0  0
 16 18  2  0  0  0  0
 16 15  1  0  0  0  0
 17 16  1  0  0  0  0
 18 19  1  0  0  0  0
 19 26  2  0  0  0  0
 19 20  1  0  0  0  0
 20 22  2  0  0  0  0
 21 20  1  0  0  0  0
 22 23  1  0  0  0  0
 23 24  1  0  0  0  0
 25 23  2  0  0  0  0
 26 25  1  0  0  0  0
 27 28  1  0  0  0  0
 28 33  2  0  0  0  0
 28 29  1  0  0  0  0
 29 30  2  0  0  0  0
 30 31  1  0  0  0  0
 30 38  1  0  0  0  0
 32 36  1  0  0  0  0
 32 31  2  0  0  0  0
 33 32  1  0  0  0  0
 34 39  1  0  0  0  0
 34 36  1  0  0  0  0
 35 34  2  0  0  0  0
 36 40  1  0  0  0  0
 37 29  1  0  0  0  0
M  END
>  <minimizedAffinity>
-5.5121727

$$$$

 OpenBabel03272506403D

 40 43  0  0  1  0  0  0  0  0999 V2000
   37.2300   26.3620   31.2540 O   0  0  0  0  0  0  0  0  0  0  0  0
   37.0960   26.6790   32.4460 C   0  0  0  0  0  0  0  0  0  0  0  0
   36.5670   27.9700   32.8330 C   0  0  2  0  0  0  0  0  0  0  0  0
   36.4250   27.7780   34.3790 C   0  0  0  0  0  0  0  0  0  0  0  0
   37.4790   26.7560   34.6850 C   0  0  0  0  0  0  0  0  0  0  0  0
   37.4350   25.8290   33.5650 N   0  0  0  0  0  0  0  0  0  0  0  0
   37.1920   28.8520   32.6610 H   0  0  0  0  0  0  0  0  0  0  0  0
   35.4120   27.4610   34.6250 H   0  0  0  0  0  0  0  0  0  0  0  0
   36.5880   28.7680   34.8180 H   0  0  0  0  0  0  0  0  0  0  0  0
   38.4620   27.1760   34.8900 H   0  0  0  0  0  0  0  0  0  0  0  0
   37.1420   26.1710   35.5800 H   0  0  0  0  0  0  0  0  0  0  0  0
   37.6700   24.4030   33.5770 C   0  0  0  0  0  0  0  0  0  0  0  0
   36.7500   23.8430   33.7810 H   0  0  0  0  0  0  0  0  0  0  0  0
   37.9630   24.1420   32.5180 H   0  0  0  0  0  0  0  0  0  0  0  0
   38.7660   24.0310   34.4200 N   0  0  0  0  0  0  0  0  0  0  0  0
   40.0790   23.9260   34.0670 C   0  0  0  0  0  0  0  0  0  0  0  0
   40.4110   24.1290   33.0580 H   0  0  0  0  0  0  0  0  0  0  0  0
   40.8410   23.5470   35.1300 N   0  0  0  0  0  0  0  0  0  0  0  0
   40.0130   23.4050   36.1880 C   0  0  0  0  0  0  0  0  0  0  0  0
   40.2370   23.0430   37.5040 C   0  0  0  0  0  0  0  0  0  0  0  0
   41.2450   22.8200   37.8000 H   0  0  0  0  0  0  0  0  0  0  0  0
   39.1540   23.0050   38.2940 N   0  0  0  0  0  0  0  0  0  0  0  0
   37.9090   23.2990   37.8570 C   0  0  0  0  0  0  0  0  0  0  0  0
   37.1180   23.2300   38.5990 H   0  0  0  0  0  0  0  0  0  0  0  0
   37.6700   23.6520   36.5860 N   0  0  0  0  0  0  0  0  0  0  0  0
   38.7390   23.7050   35.7410 C   0  0  0  0  0  0  0  0  0  0  0  0
   35.2470   28.2310   32.3580 O   0  0  0  0  0  0  0  0  0  0  0  0
   34.5840   29.3390   32.8790 C   0  0  0  0  0  0  0  0  0  0  0  0
   33.2020   29.2810   32.9050 C   0  0  0  0  0  0  0  0  0  0  0  0
   32.5100   30.3700   33.4200 C   0  0  0  0  0  0  0  0  0  0  0  0
   33.2190   31.4410   33.8720 N   0  0  0  0  0  0  0  0  0  0  0  0
   34.5590   31.4810   33.8400 C   0  0  0  0  0  0  0  0  0  0  0  0
   35.2050   30.4360   33.3480 N   0  0  0  0  0  0  0  0  0  0  0  0
   36.1530   32.3040   35.3900 C   0  0  0  0  0  0  0  0  0  0  0  0
   36.3630   31.1840   35.9230 O   0  0  0  0  0  0  0  0  0  0  0  0
   35.2650   32.6200   34.3210 N   0  0  0  0  0  0  0  0  0  0  0  0
   32.6070   28.4580   32.5590 H   0  0  0  0  0  0  0  0  0  0  0  0
   31.4310   30.3570   33.4550 H   0  0  0  0  0  0  0  0  0  0  0  0
   36.7670   33.0610   35.8690 H   0  0  0  0  0  0  0  0  0  0  0  0
   35.1960   33.5880   33.9850 H   0  0  0  0  0  0  0  0  0  0  0  0
  1  2  2  0  0  0  0
  2  3  1  0  0  0  0
  2  6  1  0  0  0  0
  3  7  1  6  0  0  0
  3  4  1  0  0  0  0
  4  8  1  0  0  0  0
  4  5  1  0  0  0  0
  4  9  1  0  0  0  0
  5 10  1  0  0  0  0
  5 11  1  0  0  0  0
  6 12  1  0  0  0  0
  6  5  1  0  0  0  0
 12 13  1  0  0  0  0
 12 15  1  0  0  0  0
 14 12  1  0  0  0  0
 15 26  1  0  0  0  0
 16 15  1  0  0  0  0
 16 18  2  0  0  0  0
 17 16  1  0  0  0  0
 18 19  1  0  0  0  0
 19 20  1  0  0  0  0
 20 21  1  0  0  0  0
 20 22  2  0  0  0  0
 23 22  1  0  0  0  0
 23 24  1  0  0  0  0
 25 23  2  0  0  0  0
 26 19  2  0  0  0  0
 26 25  1  0  0  0  0
 27  3  1  0  0  0  0
 27 28  1  0  0  0  0
 28 29  2  0  0  0  0
 28 33  1  0  0  0  0
 29 30  1  0  0  0  0
 30 38  1  0  0  0  0
 30 31  2  0  0  0  0
 32 31  1  0  0  0  0
 32 36  1  0  0  0  0
 33 32  2  0  0  0  0
 34 39  1  0  0  0  0
 34 35  2  0  0  0  0
 36 34  1  0  0  0  0
 37 29  1  0  0  0  0
 40 36  1  0  0  0  0
M  END
>  <minimizedAffinity>
-5.37318611

$$$$

 OpenBabel03272506403D

 40 43  0  0  1  0  0  0  0  0999 V2000
   36.2740   25.3080   32.2880 O   0  0  0  0  0  0  0  0  0  0  0  0
   37.3530   25.6880   32.7690 C   0  0  0  0  0  0  0  0  0  0  0  0
   37.6190   27.0890   33.0220 C   0  0  2  0  0  0  0  0  0  0  0  0
   38.9810   26.9960   33.7850 C   0  0  0  0  0  0  0  0  0  0  0  0
   39.5730   25.7240   33.2540 C   0  0  0  0  0  0  0  0  0  0  0  0
   38.4460   24.8140   33.1290 N   0  0  0  0  0  0  0  0  0  0  0  0
   37.7620   27.7470   32.1600 H   0  0  0  0  0  0  0  0  0  0  0  0
   38.8080   26.9920   34.8610 H   0  0  0  0  0  0  0  0  0  0  0  0
   39.5270   27.9110   33.5310 H   0  0  0  0  0  0  0  0  0  0  0  0
   40.1610   25.8490   32.3470 H   0  0  0  0  0  0  0  0  0  0  0  0
   40.2290   25.2910   34.0530 H   0  0  0  0  0  0  0  0  0  0  0  0
   38.4300   23.3810   33.3230 C   0  0  0  0  0  0  0  0  0  0  0  0
   37.4070   22.9860   33.3300 H   0  0  0  0  0  0  0  0  0  0  0  0
   38.9210   22.9510   32.4010 H   0  0  0  0  0  0  0  0  0  0  0  0
   39.2130   22.9670   34.4480 N   0  0  0  0  0  0  0  0  0  0  0  0
   40.3760   22.2560   34.4260 C   0  0  0  0  0  0  0  0  0  0  0  0
   40.8230   21.9320   33.4950 H   0  0  0  0  0  0  0  0  0  0  0  0
   40.8420   22.0430   35.6870 N   0  0  0  0  0  0  0  0  0  0  0  0
   39.9700   22.6230   36.5410 C   0  0  0  0  0  0  0  0  0  0  0  0
   39.9410   22.7190   37.9200 C   0  0  0  0  0  0  0  0  0  0  0  0
   40.7400   22.2620   38.4740 H   0  0  0  0  0  0  0  0  0  0  0  0
   38.8980   23.3830   38.4400 N   0  0  0  0  0  0  0  0  0  0  0  0
   37.9230   23.9360   37.6850 C   0  0  0  0  0  0  0  0  0  0  0  0
   37.1340   24.4490   38.2310 H   0  0  0  0  0  0  0  0  0  0  0  0
   37.9320   23.8560   36.3470 N   0  0  0  0  0  0  0  0  0  0  0  0
   38.9710   23.1890   35.7690 C   0  0  0  0  0  0  0  0  0  0  0  0
   36.7100   27.7040   33.9360 O   0  0  0  0  0  0  0  0  0  0  0  0
   35.8990   28.7230   33.4450 C   0  0  0  0  0  0  0  0  0  0  0  0
   36.0110   29.0130   32.0970 C   0  0  0  0  0  0  0  0  0  0  0  0
   35.2150   30.0260   31.5770 C   0  0  0  0  0  0  0  0  0  0  0  0
   34.3650   30.6840   32.4120 N   0  0  0  0  0  0  0  0  0  0  0  0
   34.2680   30.3900   33.7160 C   0  0  0  0  0  0  0  0  0  0  0  0
   35.0320   29.4230   34.1990 N   0  0  0  0  0  0  0  0  0  0  0  0
   32.4020   30.2560   35.1720 C   0  0  0  0  0  0  0  0  0  0  0  0
   32.2690   29.0100   35.0510 O   0  0  0  0  0  0  0  0  0  0  0  0
   33.3690   31.1040   34.5590 N   0  0  0  0  0  0  0  0  0  0  0  0
   36.6670   28.5190   31.4070 H   0  0  0  0  0  0  0  0  0  0  0  0
   35.2780   30.2770   30.5280 H   0  0  0  0  0  0  0  0  0  0  0  0
   31.6430   30.6430   35.8450 H   0  0  0  0  0  0  0  0  0  0  0  0
   33.3570   32.1120   34.7520 H   0  0  0  0  0  0  0  0  0  0  0  0
  1  2  2  0  0  0  0
  2  3  1  0  0  0  0
  2  6  1  0  0  0  0
  3  7  1  6  0  0  0
  3  4  1  0  0  0  0
  3 27  1  0  0  0  0
  4  8  1  0  0  0  0
  5  4  1  0  0  0  0
  5 11  1  0  0  0  0
  6  5  1  0  0  0  0
  6 12  1  0  0  0  0
  9  4  1  0  0  0  0
 10  5  1  0  0  0  0
 12 13  1  0  0  0  0
 12 15  1  0  0  0  0
 14 12  1  0  0  0  0
 15 26  1  0  0  0  0
 16 15  1  0  0  0  0
 16 18  2  0  0  0  0
 17 16  1  0  0  0  0
 18 19  1  0  0  0  0
 19 20  1  0  0  0  0
 20 22  2  0  0  0  0
 20 21  1  0  0  0  0
 23 24  1  0  0  0  0
 23 22  1  0  0  0  0
 25 23  2  0  0  0  0
 26 25  1  0  0  0  0
 26 19  2  0  0  0  0
 28 27  1  0  0  0  0
 28 33  1  0  0  0  0
 29 28  2  0  0  0  0
 30 29  1  0  0  0  0
 30 31  2  0  0  0  0
 31 32  1  0  0  0  0
 32 33  2  0  0  0  0
 32 36  1  0  0  0  0
 34 39  1  0  0  0  0
 35 34  2  0  0  0  0
 36 40  1  0  0  0  0
 36 34  1  0  0  0  0
 37 29  1  0  0  0  0
 38 30  1  0  0  0  0
M  END
>  <minimizedAffinity>
-5.35814095

$$$$

 OpenBabel03272506403D

 40 43  0  0  1  0  0  0  0  0999 V2000
   35.8420   23.7600   31.4740 O   0  0  0  0  0  0  0  0  0  0  0  0
   36.8300   24.3600   31.9260 C   0  0  0  0  0  0  0  0  0  0  0  0
   37.0280   25.7760   31.6950 C   0  0  2  0  0  0  0  0  0  0  0  0
   38.2620   26.0520   32.6160 C   0  0  0  0  0  0  0  0  0  0  0  0
   38.9510   24.7210   32.6580 C   0  0  0  0  0  0  0  0  0  0  0  0
   37.8720   23.7470   32.7170 N   0  0  0  0  0  0  0  0  0  0  0  0
   37.2860   26.0980   30.6820 H   0  0  0  0  0  0  0  0  0  0  0  0
   37.9300   26.4140   33.5880 H   0  0  0  0  0  0  0  0  0  0  0  0
   38.8230   26.8560   32.1270 H   0  0  0  0  0  0  0  0  0  0  0  0
   39.6650   24.5610   31.8530 H   0  0  0  0  0  0  0  0  0  0  0  0
   39.4870   24.6430   33.6390 H   0  0  0  0  0  0  0  0  0  0  0  0
   37.8540   22.4760   33.4060 C   0  0  0  0  0  0  0  0  0  0  0  0
   36.8470   22.2210   33.7560 H   0  0  0  0  0  0  0  0  0  0  0  0
   38.1120   21.7080   32.6180 H   0  0  0  0  0  0  0  0  0  0  0  0
   38.8560   22.3860   34.4260 N   0  0  0  0  0  0  0  0  0  0  0  0
   40.1390   21.9500   34.2830 C   0  0  0  0  0  0  0  0  0  0  0  0
   40.5210   21.6190   33.3270 H   0  0  0  0  0  0  0  0  0  0  0  0
   40.8070   22.0010   35.4690 N   0  0  0  0  0  0  0  0  0  0  0  0
   39.9450   22.4760   36.3950 C   0  0  0  0  0  0  0  0  0  0  0  0
   40.0790   22.7320   37.7470 C   0  0  0  0  0  0  0  0  0  0  0  0
   41.0290   22.5340   38.2050 H   0  0  0  0  0  0  0  0  0  0  0  0
   38.9880   23.2110   38.3640 N   0  0  0  0  0  0  0  0  0  0  0  0
   37.8180   23.4390   37.7260 C   0  0  0  0  0  0  0  0  0  0  0  0
   37.0110   23.8300   38.3420 H   0  0  0  0  0  0  0  0  0  0  0  0
   37.6670   23.1990   36.4160 N   0  0  0  0  0  0  0  0  0  0  0  0
   38.7470   22.7100   35.7430 C   0  0  0  0  0  0  0  0  0  0  0  0
   35.9820   26.6060   32.1990 O   0  0  0  0  0  0  0  0  0  0  0  0
   36.0380   27.9640   31.8970 C   0  0  0  0  0  0  0  0  0  0  0  0
   35.6680   28.8400   32.9020 C   0  0  0  0  0  0  0  0  0  0  0  0
   35.7130   30.2020   32.6320 C   0  0  0  0  0  0  0  0  0  0  0  0
   36.1150   30.6110   31.3980 N   0  0  0  0  0  0  0  0  0  0  0  0
   36.4710   29.7490   30.4350 C   0  0  0  0  0  0  0  0  0  0  0  0
   36.4240   28.4540   30.7060 N   0  0  0  0  0  0  0  0  0  0  0  0
   38.2090   29.8070   28.8240 C   0  0  0  0  0  0  0  0  0  0  0  0
   39.0060   29.1150   29.5100 O   0  0  0  0  0  0  0  0  0  0  0  0
   36.8850   30.2160   29.1560 N   0  0  0  0  0  0  0  0  0  0  0  0
   35.3450   28.5580   33.8860 H   0  0  0  0  0  0  0  0  0  0  0  0
   35.4310   30.9120   33.3950 H   0  0  0  0  0  0  0  0  0  0  0  0
   38.6760   30.0800   27.8820 H   0  0  0  0  0  0  0  0  0  0  0  0
   36.3460   30.7850   28.4910 H   0  0  0  0  0  0  0  0  0  0  0  0
  1  2  2  0  0  0  0
  2  6  1  0  0  0  0
  3  7  1  6  0  0  0
  3  2  1  0  0  0  0
  3 27  1  0  0  0  0
  3  4  1  0  0  0  0
  4  5  1  0  0  0  0
  4  8  1  0  0  0  0
  5  6  1  0  0  0  0
  5 11  1  0  0  0  0
  6 12  1  0  0  0  0
  9  4  1  0  0  0  0
 10  5  1  0  0  0  0
 12 13  1  0  0  0  0
 12 15  1  0  0  0  0
 14 12  1  0  0  0  0
 15 26  1  0  0  0  0
 16 15  1  0  0  0  0
 16 18  2  0  0  0  0
 17 16  1  0  0  0  0
 18 19  1  0  0  0  0
 19 20  1  0  0  0  0
 20 21  1  0  0  0  0
 20 22  2  0  0  0  0
 23 24  1  0  0  0  0
 23 22  1  0  0  0  0
 25 23  2  0  0  0  0
 26 19  2  0  0  0  0
 26 25  1  0  0  0  0
 28 27  1  0  0  0  0
 28 29  1  0  0  0  0
 29 37  1  0  0  0  0
 30 29  2  0  0  0  0
 30 38  1  0  0  0  0
 31 30  1  0  0  0  0
 32 33  1  0  0  0  0
 32 31  2  0  0  0  0
 33 28  2  0  0  0  0
 34 36  1  0  0  0  0
 34 35  2  0  0  0  0
 36 32  1  0  0  0  0
 39 34  1  0  0  0  0
 40 36  1  0  0  0  0
M  END
>  <minimizedAffinity>
-5.32709217

$$$$
