
 OpenBabel03272505513D

 47 51  0  0  1  0  0  0  0  0999 V2000
   35.2030   29.7630   45.4750 N   0  0  2  0  0  0  0  0  0  0  0  0
   36.5500   30.3360   45.4400 C   0  0  0  0  0  0  0  0  0  0  0  0
   36.9100   30.5230   43.9850 C   0  0  0  0  0  0  0  0  0  0  0  0
   35.7660   29.9190   43.2610 C   0  0  0  0  0  0  0  0  0  0  0  0
   34.5890   30.0890   44.2380 C   0  0  1  0  0  0  0  0  0  0  0  0
   37.2780   29.7770   46.0250 H   0  0  0  0  0  0  0  0  0  0  0  0
   36.4200   31.3780   45.8580 H   0  0  0  0  0  0  0  0  0  0  0  0
   37.1230   31.5730   43.7110 H   0  0  0  0  0  0  0  0  0  0  0  0
   37.8170   29.9050   43.8060 H   0  0  0  0  0  0  0  0  0  0  0  0
   35.6130   30.5020   42.3260 H   0  0  0  0  0  0  0  0  0  0  0  0
   35.8990   28.8800   42.9600 H   0  0  0  0  0  0  0  0  0  0  0  0
   34.3370   31.1260   44.0430 H   0  0  0  0  0  0  0  0  0  0  0  0
   37.1760   29.2110   50.4240 C   0  0  0  0  0  0  0  0  0  0  0  0
   37.3220   30.5550   50.8000 C   0  0  0  0  0  0  0  0  0  0  0  0
   36.5720   31.4910   50.0950 C   0  0  0  0  0  0  0  0  0  0  0  0
   35.7560   31.0470   49.1010 N   0  0  0  0  0  0  0  0  0  0  0  0
   35.6520   29.7610   48.7820 C   0  0  0  0  0  0  0  0  0  0  0  0
   36.3580   28.8410   49.4380 N   0  0  0  0  0  0  0  0  0  0  0  0
   34.7810   29.3690   47.7350 N   0  0  0  0  0  0  0  0  0  0  0  0
   34.1540   28.0510   47.7130 C   0  0  0  0  0  0  0  0  0  0  0  0
   32.6750   28.1950   47.5790 C   0  0  0  0  0  0  0  0  0  0  0  0
   32.2020   29.4180   47.1660 N   0  0  0  0  0  0  0  0  0  0  0  0
   33.0310   30.3450   46.4340 C   0  0  0  0  0  0  0  0  0  0  0  0
   34.4640   30.2540   46.6280 C   0  0  2  0  0  0  0  0  0  0  0  0
   37.7870   28.5470   51.0140 H   0  0  0  0  0  0  0  0  0  0  0  0
   37.9340   30.9730   51.5620 H   0  0  0  0  0  0  0  0  0  0  0  0
   36.5970   32.5520   50.2910 H   0  0  0  0  0  0  0  0  0  0  0  0
   34.6450   27.3890   47.0010 H   0  0  0  0  0  0  0  0  0  0  0  0
   34.3810   27.5870   48.7230 H   0  0  0  0  0  0  0  0  0  0  0  0
   32.1720   27.8980   48.5220 H   0  0  0  0  0  0  0  0  0  0  0  0
   32.3520   27.4030   46.8440 H   0  0  0  0  0  0  0  0  0  0  0  0
   31.3130   29.7850   47.5100 H   0  0  0  0  0  0  0  0  0  0  0  0
   32.5700   30.4230   45.4640 H   0  0  0  0  0  0  0  0  0  0  0  0
   32.7140   31.3410   46.9080 H   0  0  0  0  0  0  0  0  0  0  0  0
   34.9350   31.2520   46.8840 H   0  0  0  0  0  0  0  0  0  0  0  0
   33.6330   29.1320   43.7190 N   0  0  0  0  0  0  0  0  0  0  0  0
   32.4570   29.2630   43.0320 C   0  0  0  0  0  0  0  0  0  0  0  0
   32.1020   30.2760   42.7940 H   0  0  0  0  0  0  0  0  0  0  0  0
   31.9410   28.0500   42.7680 N   0  0  0  0  0  0  0  0  0  0  0  0
   32.7750   27.1080   43.2810 C   0  0  0  0  0  0  0  0  0  0  0  0
   32.5960   25.7420   43.2170 C   0  0  0  0  0  0  0  0  0  0  0  0
   31.7380   25.3000   42.7320 H   0  0  0  0  0  0  0  0  0  0  0  0
   33.5640   25.0020   43.8020 N   0  0  0  0  0  0  0  0  0  0  0  0
   34.6060   25.6180   44.3890 C   0  0  0  0  0  0  0  0  0  0  0  0
   35.3880   25.0050   44.8610 H   0  0  0  0  0  0  0  0  0  0  0  0
   34.7180   26.9520   44.4150 N   0  0  0  0  0  0  0  0  0  0  0  0
   33.8230   27.7850   43.8700 C   0  0  0  0  0  0  0  0  0  0  0  0
  1  2  1  6  0  0  0
  1 24  1  0  0  0  0
  2  7  1  0  0  0  0
  2  6  1  0  0  0  0
  3  2  1  0  0  0  0
  4  3  1  0  0  0  0
  4  5  1  0  0  0  0
  5 12  1  6  0  0  0
  5  1  1  0  0  0  0
  8  3  1  0  0  0  0
  9  3  1  0  0  0  0
 10  4  1  0  0  0  0
 11  4  1  0  0  0  0
 13 14  1  0  0  0  0
 13 25  1  0  0  0  0
 14 26  1  0  0  0  0
 15 27  1  0  0  0  0
 15 14  2  0  0  0  0
 16 15  1  0  0  0  0
 17 16  2  0  0  0  0
 17 18  1  0  0  0  0
 18 13  2  0  0  0  0
 19 17  1  0  0  0  0
 20 19  1  0  0  0  0
 20 29  1  0  0  0  0
 21 20  1  0  0  0  0
 21 30  1  0  0  0  0
 22 32  1  0  0  0  0
 22 21  1  0  0  0  0
 23 24  1  0  0  0  0
 23 34  1  0  0  0  0
 23 22  1  0  0  0  0
 24 35  1  1  0  0  0
 24 19  1  0  0  0  0
 28 20  1  0  0  0  0
 31 21  1  0  0  0  0
 33 23  1  0  0  0  0
 36 47  1  0  0  0  0
 36  5  1  0  0  0  0
 37 36  1  0  0  0  0
 38 37  1  0  0  0  0
 39 37  2  0  0  0  0
 39 40  1  0  0  0  0
 40 47  1  0  0  0  0
 41 40  2  0  0  0  0
 41 43  1  0  0  0  0
 42 41  1  0  0  0  0
 43 44  2  0  0  0  0
 44 46  1  0  0  0  0
 44 45  1  0  0  0  0
 47 46  2  0  0  0  0
M  END
>  <minimizedAffinity>
-4.58199739

>  <minimizedRMSD>
1.29208696

$$$$
