REMARK  Name = 
REMARK  3 active torsions:
REMARK  status: ('A' for Active; 'I' for Inactive)
REMARK    1  A    between atoms: C_1  and  C_7
REMARK    2  A    between atoms: C_6  and  N_15
REMARK    3  A    between atoms: C_13  and  C_32
REMARK                            x       y       z     vdW  Elec       q    Type
REMARK                         _______ _______ _______ _____ _____    ______ ____
ROOT
ATOM      1  C   UNL     1      36.080  30.688  49.066  0.00  0.00    +0.000 C 
ATOM      2  C   UNL     1      37.020  31.642  49.740  0.00  0.00    +0.000 C 
ATOM      3  C   UNL     1      38.045  30.943  50.606  0.00  0.00    +0.000 C 
ATOM      4  C   UNL     1      37.359  30.064  51.650  0.00  0.00    +0.000 C 
ATOM      5  C   UNL     1      36.106  29.388  51.150  0.00  0.00    +0.000 C 
ATOM      6  C   UNL     1      36.194  29.305  49.614  0.00  0.00    +0.000 C 
ATOM      7  H   UNL     1      34.987  30.960  49.205  0.00  0.00    +0.000 HD
ATOM      8  H   UNL     1      37.464  32.413  49.141  0.00  0.00    +0.000 HD
ATOM      9  H   UNL     1      36.367  32.197  50.495  0.00  0.00    +0.000 HD
ATOM     10  H   UNL     1      38.614  31.739  51.108  0.00  0.00    +0.000 HD
ATOM     11  H   UNL     1      38.722  30.286  50.042  0.00  0.00    +0.000 HD
ATOM     12  H   UNL     1      37.186  30.712  52.525  0.00  0.00    +0.000 HD
ATOM     13  H   UNL     1      38.064  29.265  51.961  0.00  0.00    +0.000 HD
ATOM     14  H   UNL     1      35.968  28.396  51.588  0.00  0.00    +0.000 HD
ATOM     15  H   UNL     1      35.259  30.075  51.355  0.00  0.00    +0.000 HD
ATOM     16  H   UNL     1      37.181  28.923  49.511  0.00  0.00    +0.000 HD
ENDROOT
BRANCH   1  17
ATOM     17  C   UNL     1      36.320  30.648  47.601  0.00  0.00    +0.000 A 
ATOM     18  C   UNL     1      37.576  31.110  47.177  0.00  0.00    +0.000 A 
ATOM     19  C   UNL     1      37.830  31.081  45.801  0.00  0.00    +0.000 A 
ATOM     20  N   UNL     1      36.847  30.605  44.960  0.00  0.00    +0.000 NA
ATOM     21  C   UNL     1      35.638  30.163  45.425  0.00  0.00    +0.000 A 
ATOM     22  N   UNL     1      35.396  30.194  46.746  0.00  0.00    +0.000 NA
ATOM     23  H   UNL     1      38.422  31.492  47.712  0.00  0.00    +0.000 HD
ATOM     24  H   UNL     1      38.741  31.402  45.332  0.00  0.00    +0.000 HD
ATOM     25  H   UNL     1      34.945  29.813  44.680  0.00  0.00    +0.000 HD
ENDBRANCH   1  17
BRANCH   6  28
ATOM     26  C   UNL     1      33.945  28.190  49.237  0.00  0.00    +0.000 C 
ATOM     27  O   UNL     1      33.115  28.869  49.941  0.00  0.00    +0.000 OA
ATOM     28  N   UNL     1      35.336  28.349  49.013  0.00  0.00    +0.000 N 
ATOM     29  H   UNL     1      35.737  27.652  48.306  0.00  0.00    +0.000 HD
BRANCH  26  32
ATOM     30  H   UNL     1      33.965  27.122  46.543  0.00  0.00    +0.000 HD
ATOM     31  N   UNL     1      33.343  26.689  47.289  0.00  0.00    +0.000 N 
ATOM     32  C   UNL     1      33.221  27.070  48.587  0.00  0.00    +0.000 A 
ATOM     33  N   UNL     1      32.332  26.200  49.034  0.00  0.00    +0.000 NA
ATOM     34  C   UNL     1      31.907  25.331  48.133  0.00  0.00    +0.000 A 
ATOM     35  C   UNL     1      31.013  24.287  48.168  0.00  0.00    +0.000 A 
ATOM     36  H   UNL     1      30.498  24.059  49.109  0.00  0.00    +0.000 HD
ATOM     37  N   UNL     1      30.823  23.594  47.011  0.00  0.00    +0.000 NA
ATOM     38  C   UNL     1      31.475  23.909  45.887  0.00  0.00    +0.000 A 
ATOM     39  H   UNL     1      31.315  23.349  44.971  0.00  0.00    +0.000 HD
ATOM     40  N   UNL     1      32.352  24.936  45.857  0.00  0.00    +0.000 NA
ATOM     41  C   UNL     1      32.568  25.645  46.978  0.00  0.00    +0.000 A 
ENDBRANCH  26  32
ENDBRANCH   6  28
TORSDOF 3
