
 OpenBabel03262521423D

 46 51  0  0  0  0  0  0  0  0999 V2000
   38.7760   24.3160   35.5090 C   0  0  0  0  0  0  0  0  0  0  0  0
   37.7390   24.4970   36.3840 N   0  0  0  0  0  0  0  0  0  0  0  0
   37.7950   23.9300   37.6130 C   0  0  0  0  0  0  0  0  0  0  0  0
   38.8330   23.1850   38.0280 N   0  0  0  0  0  0  0  0  0  0  0  0
   39.8790   22.9760   37.2100 C   0  0  0  0  0  0  0  0  0  0  0  0
   40.9270   22.2230   37.6390 C   0  0  0  0  0  0  0  0  0  0  0  0
   42.0080   22.0030   36.8090 C   0  0  0  0  0  0  0  0  0  0  0  0
   42.0150   22.5630   35.5170 C   0  0  0  0  0  0  0  0  0  0  0  0
   40.9110   23.3220   35.1410 C   0  0  0  0  0  0  0  0  0  0  0  0
   39.8400   23.5470   35.9500 C   0  0  0  0  0  0  0  0  0  0  0  0
   36.9740   24.0760   38.2950 H   0  0  0  0  0  0  0  0  0  0  0  0
   40.8990   21.8030   38.6360 H   0  0  0  0  0  0  0  0  0  0  0  0
   42.8150   21.3930   37.2070 H   0  0  0  0  0  0  0  0  0  0  0  0
   42.8990   22.3290   34.9640 H   0  0  0  0  0  0  0  0  0  0  0  0
   41.1140   23.7910   33.8180 N   0  0  0  0  0  0  0  0  0  0  0  0
   40.8260   23.2630   32.5870 C   0  0  0  0  0  0  0  0  0  0  0  0
   40.3190   22.2940   32.5350 H   0  0  0  0  0  0  0  0  0  0  0  0
   41.2440   24.0810   31.6060 N   0  0  0  0  0  0  0  0  0  0  0  0
   41.8210   25.1750   32.1260 C   0  0  0  0  0  0  0  0  0  0  0  0
   42.4190   26.3270   31.6720 C   0  0  0  0  0  0  0  0  0  0  0  0
   42.4400   26.3900   30.5890 H   0  0  0  0  0  0  0  0  0  0  0  0
   42.9080   27.2490   32.5230 N   0  0  0  0  0  0  0  0  0  0  0  0
   42.8050   27.0260   33.8410 C   0  0  0  0  0  0  0  0  0  0  0  0
   43.2220   27.8130   34.4550 H   0  0  0  0  0  0  0  0  0  0  0  0
   42.2300   25.9170   34.3240 N   0  0  0  0  0  0  0  0  0  0  0  0
   41.7290   24.9740   33.5080 C   0  0  0  0  0  0  0  0  0  0  0  0
   38.8580   24.9890   33.8850 S   0  0  0  0  0  0  0  0  0  0  0  0
   37.9650   22.2310   33.4660 F   0  0  0  0  0  0  0  0  0  0  0  0
   37.2080   23.1140   32.7420 C   0  0  0  0  0  0  0  0  0  0  0  0
   36.1740   22.6640   31.9420 C   0  0  0  0  0  0  0  0  0  0  0  0
   35.4240   23.6030   31.2170 C   0  0  0  0  0  0  0  0  0  0  0  0
   35.7110   24.9710   31.2980 C   0  0  0  0  0  0  0  0  0  0  0  0
   36.7590   25.3350   32.1190 C   0  0  0  0  0  0  0  0  0  0  0  0
   37.5140   24.4420   32.8420 C   0  0  0  0  0  0  0  0  0  0  0  0
   34.6210   23.2170   30.6000 H   0  0  0  0  0  0  0  0  0  0  0  0
   35.1190   25.6700   30.7320 H   0  0  0  0  0  0  0  0  0  0  0  0
   36.9290   26.3930   32.1410 H   0  0  0  0  0  0  0  0  0  0  0  0
   36.4330   20.6170   30.7920 C   0  0  0  0  0  0  0  0  0  0  0  0
   35.9300   21.2690   31.8990 C   0  0  0  0  0  0  0  0  0  0  0  0
   35.2550   20.4880   32.8230 C   0  0  0  0  0  0  0  0  0  0  0  0
   35.1220   19.1480   32.6010 N   0  0  0  0  0  0  0  0  0  0  0  0
   35.6300   18.5730   31.5160 C   0  0  0  0  0  0  0  0  0  0  0  0
   36.2970   19.2860   30.5820 N   0  0  0  0  0  0  0  0  0  0  0  0
   36.9860   21.1310   29.9930 H   0  0  0  0  0  0  0  0  0  0  0  0
   34.8690   21.0170   33.6810 H   0  0  0  0  0  0  0  0  0  0  0  0
   35.4910   17.5000   31.3950 H   0  0  0  0  0  0  0  0  0  0  0  0
  1 10  2  0  0  0  0
  1  2  1  0  0  0  0
  2  3  2  0  0  0  0
  3  4  1  0  0  0  0
  3 11  1  0  0  0  0
  5  6  1  0  0  0  0
  5  4  2  0  0  0  0
  6 12  1  0  0  0  0
  7 13  1  0  0  0  0
  7  6  2  0  0  0  0
  8  7  1  0  0  0  0
  9  8  2  0  0  0  0
  9 10  1  0  0  0  0
 10  5  1  0  0  0  0
 14  8  1  0  0  0  0
 15  9  1  0  0  0  0
 16 15  1  0  0  0  0
 17 16  1  0  0  0  0
 18 19  1  0  0  0  0
 18 16  2  0  0  0  0
 19 26  1  0  0  0  0
 20 19  2  0  0  0  0
 20 22  1  0  0  0  0
 21 20  1  0  0  0  0
 22 23  2  0  0  0  0
 23 25  1  0  0  0  0
 23 24  1  0  0  0  0
 26 15  1  0  0  0  0
 26 25  2  0  0  0  0
 27  1  1  0  0  0  0
 29 34  1  0  0  0  0
 29 28  1  0  0  0  0
 30 29  2  0  0  0  0
 31 32  2  0  0  0  0
 31 30  1  0  0  0  0
 32 33  1  0  0  0  0
 33 37  1  0  0  0  0
 33 34  2  0  0  0  0
 34 27  1  0  0  0  0
 35 31  1  0  0  0  0
 36 32  1  0  0  0  0
 38 39  1  0  0  0  0
 39 30  1  0  0  0  0
 39 40  2  0  0  0  0
 40 45  1  0  0  0  0
 41 40  1  0  0  0  0
 42 41  2  0  0  0  0
 43 38  2  0  0  0  0
 43 42  1  0  0  0  0
 44 38  1  0  0  0  0
 46 42  1  0  0  0  0
M  END
>  <minimizedAffinity>
-6.75305271

$$$$

 OpenBabel03262521423D

 46 51  0  0  0  0  0  0  0  0999 V2000
   36.8100   25.4180   32.1720 C   0  0  0  0  0  0  0  0  0  0  0  0
   35.7520   25.4120   31.3030 N   0  0  0  0  0  0  0  0  0  0  0  0
   35.1740   24.2360   30.9620 C   0  0  0  0  0  0  0  0  0  0  0  0
   35.5890   23.0510   31.4400 N   0  0  0  0  0  0  0  0  0  0  0  0
   36.6230   22.9980   32.2970 C   0  0  0  0  0  0  0  0  0  0  0  0
   37.0360   21.7950   32.7780 C   0  0  0  0  0  0  0  0  0  0  0  0
   38.0960   21.7280   33.6600 C   0  0  0  0  0  0  0  0  0  0  0  0
   38.7430   22.9130   34.0570 C   0  0  0  0  0  0  0  0  0  0  0  0
   38.2710   24.1100   33.5270 C   0  0  0  0  0  0  0  0  0  0  0  0
   37.2280   24.1900   32.6570 C   0  0  0  0  0  0  0  0  0  0  0  0
   34.3430   24.2400   30.2780 H   0  0  0  0  0  0  0  0  0  0  0  0
   36.5220   20.8970   32.4590 H   0  0  0  0  0  0  0  0  0  0  0  0
   38.3800   20.7380   34.0100 H   0  0  0  0  0  0  0  0  0  0  0  0
   39.5470   22.7430   34.7400 H   0  0  0  0  0  0  0  0  0  0  0  0
   39.0520   25.1740   34.0470 N   0  0  0  0  0  0  0  0  0  0  0  0
   38.8880   26.0130   35.1170 C   0  0  0  0  0  0  0  0  0  0  0  0
   38.0110   25.8850   35.7600 H   0  0  0  0  0  0  0  0  0  0  0  0
   39.8980   26.8980   35.1900 N   0  0  0  0  0  0  0  0  0  0  0  0
   40.7680   26.6940   34.1880 C   0  0  0  0  0  0  0  0  0  0  0  0
   41.9460   27.2380   33.7350 C   0  0  0  0  0  0  0  0  0  0  0  0
   42.2880   28.0680   34.3450 H   0  0  0  0  0  0  0  0  0  0  0  0
   42.5710   26.7540   32.6440 N   0  0  0  0  0  0  0  0  0  0  0  0
   42.0210   25.7190   31.9950 C   0  0  0  0  0  0  0  0  0  0  0  0
   42.5830   25.3910   31.1310 H   0  0  0  0  0  0  0  0  0  0  0  0
   40.8740   25.1610   32.4040 N   0  0  0  0  0  0  0  0  0  0  0  0
   40.2200   25.6140   33.4880 C   0  0  0  0  0  0  0  0  0  0  0  0
   37.6640   26.8570   32.7160 S   0  0  0  0  0  0  0  0  0  0  0  0
   36.5060   28.4250   34.9030 F   0  0  0  0  0  0  0  0  0  0  0  0
   36.2020   28.9720   33.6830 C   0  0  0  0  0  0  0  0  0  0  0  0
   35.4370   30.1200   33.5980 C   0  0  0  0  0  0  0  0  0  0  0  0
   35.1500   30.6460   32.3290 C   0  0  0  0  0  0  0  0  0  0  0  0
   35.6250   30.0250   31.1680 C   0  0  0  0  0  0  0  0  0  0  0  0
   36.3800   28.8830   31.3420 C   0  0  0  0  0  0  0  0  0  0  0  0
   36.6800   28.3410   32.5690 C   0  0  0  0  0  0  0  0  0  0  0  0
   34.5480   31.5470   32.2970 H   0  0  0  0  0  0  0  0  0  0  0  0
   35.3900   30.4500   30.2060 H   0  0  0  0  0  0  0  0  0  0  0  0
   36.7160   28.4550   30.4190 H   0  0  0  0  0  0  0  0  0  0  0  0
   33.6690   30.4410   35.1310 C   0  0  0  0  0  0  0  0  0  0  0  0
   34.9850   30.7050   34.8060 C   0  0  0  0  0  0  0  0  0  0  0  0
   35.6920   31.5000   35.6930 C   0  0  0  0  0  0  0  0  0  0  0  0
   35.0740   31.9720   36.8130 N   0  0  0  0  0  0  0  0  0  0  0  0
   33.8030   31.6850   37.0750 C   0  0  0  0  0  0  0  0  0  0  0  0
   33.0650   30.9150   36.2460 N   0  0  0  0  0  0  0  0  0  0  0  0
   33.0090   29.8230   34.5050 H   0  0  0  0  0  0  0  0  0  0  0  0
   36.7190   31.6940   35.4210 H   0  0  0  0  0  0  0  0  0  0  0  0
   33.3660   32.0910   37.9860 H   0  0  0  0  0  0  0  0  0  0  0  0
  1 10  1  0  0  0  0
  1 27  1  0  0  0  0
  2  1  2  0  0  0  0
  3  2  1  0  0  0  0
  3  4  2  0  0  0  0
  4  5  1  0  0  0  0
  5 10  2  0  0  0  0
  5  6  1  0  0  0  0
  6  7  2  0  0  0  0
  7 13  1  0  0  0  0
  7  8  1  0  0  0  0
  8 14  1  0  0  0  0
  9 15  1  0  0  0  0
  9  8  2  0  0  0  0
 10  9  1  0  0  0  0
 11  3  1  0  0  0  0
 12  6  1  0  0  0  0
 15 16  1  0  0  0  0
 16 18  2  0  0  0  0
 16 17  1  0  0  0  0
 19 18  1  0  0  0  0
 20 19  1  0  0  0  0
 20 21  1  0  0  0  0
 22 20  2  0  0  0  0
 23 25  2  0  0  0  0
 23 22  1  0  0  0  0
 24 23  1  0  0  0  0
 25 26  1  0  0  0  0
 26 15  1  0  0  0  0
 26 19  2  0  0  0  0
 29 28  1  0  0  0  0
 30 29  1  0  0  0  0
 30 39  1  0  0  0  0
 31 30  2  0  0  0  0
 32 33  2  0  0  0  0
 32 31  1  0  0  0  0
 33 34  1  0  0  0  0
 34 27  1  0  0  0  0
 34 29  2  0  0  0  0
 35 31  1  0  0  0  0
 36 32  1  0  0  0  0
 37 33  1  0  0  0  0
 38 43  1  0  0  0  0
 39 38  2  0  0  0  0
 39 40  1  0  0  0  0
 40 41  2  0  0  0  0
 41 42  1  0  0  0  0
 42 46  1  0  0  0  0
 43 42  2  0  0  0  0
 44 38  1  0  0  0  0
 45 40  1  0  0  0  0
M  END
>  <minimizedAffinity>
-6.73558235

$$$$

 OpenBabel03262521423D

 46 51  0  0  0  0  0  0  0  0999 V2000
   39.3700   27.1220   32.0210 C   0  0  0  0  0  0  0  0  0  0  0  0
   39.2630   27.4830   30.7040 N   0  0  0  0  0  0  0  0  0  0  0  0
   40.3760   27.8250   30.0130 C   0  0  0  0  0  0  0  0  0  0  0  0
   41.6040   27.8280   30.5590 N   0  0  0  0  0  0  0  0  0  0  0  0
   41.7670   27.4810   31.8470 C   0  0  0  0  0  0  0  0  0  0  0  0
   43.0130   27.4850   32.3910 C   0  0  0  0  0  0  0  0  0  0  0  0
   43.1930   27.1280   33.7130 C   0  0  0  0  0  0  0  0  0  0  0  0
   42.0780   26.7620   34.4900 C   0  0  0  0  0  0  0  0  0  0  0  0
   40.8320   26.7800   33.8720 C   0  0  0  0  0  0  0  0  0  0  0  0
   40.6410   27.1300   32.5710 C   0  0  0  0  0  0  0  0  0  0  0  0
   40.2830   28.1090   28.9790 H   0  0  0  0  0  0  0  0  0  0  0  0
   43.8550   27.7710   31.7750 H   0  0  0  0  0  0  0  0  0  0  0  0
   44.2120   27.1500   34.0920 H   0  0  0  0  0  0  0  0  0  0  0  0
   42.3340   26.5050   35.4950 H   0  0  0  0  0  0  0  0  0  0  0  0
   39.8520   26.3820   34.8180 N   0  0  0  0  0  0  0  0  0  0  0  0
   38.9490   27.0810   35.5750 C   0  0  0  0  0  0  0  0  0  0  0  0
   38.9030   28.1700   35.4690 H   0  0  0  0  0  0  0  0  0  0  0  0
   38.2400   26.2520   36.3600 N   0  0  0  0  0  0  0  0  0  0  0  0
   38.6290   24.9820   36.1670 C   0  0  0  0  0  0  0  0  0  0  0  0
   38.3070   23.7330   36.6430 C   0  0  0  0  0  0  0  0  0  0  0  0
   37.5170   23.7580   37.3860 H   0  0  0  0  0  0  0  0  0  0  0  0
   38.9360   22.6270   36.2010 N   0  0  0  0  0  0  0  0  0  0  0  0
   39.8950   22.7610   35.2750 C   0  0  0  0  0  0  0  0  0  0  0  0
   40.3500   21.8270   34.9730 H   0  0  0  0  0  0  0  0  0  0  0  0
   40.2390   23.9600   34.7850 N   0  0  0  0  0  0  0  0  0  0  0  0
   39.6350   25.0870   35.2000 C   0  0  0  0  0  0  0  0  0  0  0  0
   38.0240   26.6470   33.0520 S   0  0  0  0  0  0  0  0  0  0  0  0
   37.8770   23.7250   32.8990 F   0  0  0  0  0  0  0  0  0  0  0  0
   36.8550   24.3120   32.2000 C   0  0  0  0  0  0  0  0  0  0  0  0
   35.9210   23.5370   31.5370 C   0  0  0  0  0  0  0  0  0  0  0  0
   34.8910   24.1790   30.8320 C   0  0  0  0  0  0  0  0  0  0  0  0
   34.8040   25.5770   30.7980 C   0  0  0  0  0  0  0  0  0  0  0  0
   35.7760   26.2730   31.4860 C   0  0  0  0  0  0  0  0  0  0  0  0
   36.7990   25.6770   32.1850 C   0  0  0  0  0  0  0  0  0  0  0  0
   34.1750   23.5430   30.3240 H   0  0  0  0  0  0  0  0  0  0  0  0
   34.0030   26.0430   30.2500 H   0  0  0  0  0  0  0  0  0  0  0  0
   35.6560   27.3360   31.4240 H   0  0  0  0  0  0  0  0  0  0  0  0
   35.1610   21.4910   32.4370 C   0  0  0  0  0  0  0  0  0  0  0  0
   36.0600   22.1290   31.6070 C   0  0  0  0  0  0  0  0  0  0  0  0
   36.9770   21.3240   30.9520 C   0  0  0  0  0  0  0  0  0  0  0  0
   36.9500   19.9750   31.1530 N   0  0  0  0  0  0  0  0  0  0  0  0
   36.0600   19.4130   31.9640 C   0  0  0  0  0  0  0  0  0  0  0  0
   35.1430   20.1500   32.6290 N   0  0  0  0  0  0  0  0  0  0  0  0
   34.3880   22.0240   33.0090 H   0  0  0  0  0  0  0  0  0  0  0  0
   37.6710   21.8430   30.3090 H   0  0  0  0  0  0  0  0  0  0  0  0
   36.0890   18.3320   32.0830 H   0  0  0  0  0  0  0  0  0  0  0  0
  1 10  1  0  0  0  0
  1 27  1  0  0  0  0
  2  1  2  0  0  0  0
  3  4  2  0  0  0  0
  3  2  1  0  0  0  0
  4  5  1  0  0  0  0
  5  6  2  0  0  0  0
  5 10  1  0  0  0  0
  6  7  1  0  0  0  0
  7 13  1  0  0  0  0
  7  8  2  0  0  0  0
  8 14  1  0  0  0  0
  9  8  1  0  0  0  0
  9 15  1  0  0  0  0
 10  9  2  0  0  0  0
 11  3  1  0  0  0  0
 12  6  1  0  0  0  0
 15 26  1  0  0  0  0
 15 16  1  0  0  0  0
 16 18  2  0  0  0  0
 17 16  1  0  0  0  0
 19 18  1  0  0  0  0
 19 20  1  0  0  0  0
 20 21  1  0  0  0  0
 22 20  2  0  0  0  0
 23 22  1  0  0  0  0
 24 23  1  0  0  0  0
 25 26  1  0  0  0  0
 25 23  2  0  0  0  0
 26 19  2  0  0  0  0
 29 28  1  0  0  0  0
 30 39  1  0  0  0  0
 30 29  2  0  0  0  0
 31 30  1  0  0  0  0
 32 31  2  0  0  0  0
 32 33  1  0  0  0  0
 33 34  2  0  0  0  0
 34 29  1  0  0  0  0
 34 27  1  0  0  0  0
 35 31  1  0  0  0  0
 36 32  1  0  0  0  0
 37 33  1  0  0  0  0
 38 43  1  0  0  0  0
 38 44  1  0  0  0  0
 39 38  2  0  0  0  0
 40 41  2  0  0  0  0
 40 39  1  0  0  0  0
 41 42  1  0  0  0  0
 42 46  1  0  0  0  0
 42 43  2  0  0  0  0
 45 40  1  0  0  0  0
M  END
>  <minimizedAffinity>
-6.70913935

$$$$

 OpenBabel03262521423D

 46 51  0  0  0  0  0  0  0  0999 V2000
   40.5160   25.8560   34.4630 C   0  0  0  0  0  0  0  0  0  0  0  0
   41.0340   26.9820   33.8820 N   0  0  0  0  0  0  0  0  0  0  0  0
   42.3760   27.1650   33.8570 C   0  0  0  0  0  0  0  0  0  0  0  0
   43.2440   26.2830   34.3810 N   0  0  0  0  0  0  0  0  0  0  0  0
   42.7900   25.1600   34.9630 C   0  0  0  0  0  0  0  0  0  0  0  0
   43.6750   24.2720   35.4890 C   0  0  0  0  0  0  0  0  0  0  0  0
   43.2220   23.1130   36.0870 C   0  0  0  0  0  0  0  0  0  0  0  0
   41.8390   22.8590   36.1480 C   0  0  0  0  0  0  0  0  0  0  0  0
   40.9870   23.8100   35.5910 C   0  0  0  0  0  0  0  0  0  0  0  0
   41.4220   24.9550   34.9990 C   0  0  0  0  0  0  0  0  0  0  0  0
   42.7740   28.0540   33.3990 H   0  0  0  0  0  0  0  0  0  0  0  0
   44.7340   24.4870   35.4310 H   0  0  0  0  0  0  0  0  0  0  0  0
   43.9770   22.4410   36.4890 H   0  0  0  0  0  0  0  0  0  0  0  0
   41.6020   21.9360   36.6310 H   0  0  0  0  0  0  0  0  0  0  0  0
   39.6490   23.3690   35.7540 N   0  0  0  0  0  0  0  0  0  0  0  0
   38.7290   23.5360   36.7550 C   0  0  0  0  0  0  0  0  0  0  0  0
   39.0030   24.1340   37.6300 H   0  0  0  0  0  0  0  0  0  0  0  0
   37.5840   22.8940   36.4630 N   0  0  0  0  0  0  0  0  0  0  0  0
   37.6850   22.2800   35.2740 C   0  0  0  0  0  0  0  0  0  0  0  0
   36.8990   21.5000   34.4600 C   0  0  0  0  0  0  0  0  0  0  0  0
   35.9130   21.3170   34.8760 H   0  0  0  0  0  0  0  0  0  0  0  0
   37.3500   21.0380   33.2770 N   0  0  0  0  0  0  0  0  0  0  0  0
   38.5970   21.3520   32.9000 C   0  0  0  0  0  0  0  0  0  0  0  0
   38.8840   20.9430   31.9400 H   0  0  0  0  0  0  0  0  0  0  0  0
   39.3950   22.1090   33.6640 N   0  0  0  0  0  0  0  0  0  0  0  0
   38.9810   22.5900   34.8490 C   0  0  0  0  0  0  0  0  0  0  0  0
   38.8020   25.4690   34.5700 S   0  0  0  0  0  0  0  0  0  0  0  0
   37.2170   27.6570   35.7020 F   0  0  0  0  0  0  0  0  0  0  0  0
   37.0880   27.6030   34.3390 C   0  0  0  0  0  0  0  0  0  0  0  0
   36.2860   28.5100   33.6720 C   0  0  0  0  0  0  0  0  0  0  0  0
   36.1820   28.4180   32.2750 C   0  0  0  0  0  0  0  0  0  0  0  0
   36.8750   27.4300   31.5650 C   0  0  0  0  0  0  0  0  0  0  0  0
   37.6520   26.5660   32.3080 C   0  0  0  0  0  0  0  0  0  0  0  0
   37.7760   26.6260   33.6760 C   0  0  0  0  0  0  0  0  0  0  0  0
   35.5450   29.1450   31.7830 H   0  0  0  0  0  0  0  0  0  0  0  0
   36.7770   27.3830   30.4930 H   0  0  0  0  0  0  0  0  0  0  0  0
   38.1580   25.8340   31.7090 H   0  0  0  0  0  0  0  0  0  0  0  0
   34.2330   29.4140   34.4090 C   0  0  0  0  0  0  0  0  0  0  0  0
   35.6100   29.4870   34.4430 C   0  0  0  0  0  0  0  0  0  0  0  0
   36.1560   30.4970   35.2180 C   0  0  0  0  0  0  0  0  0  0  0  0
   35.3310   31.3480   35.8930 N   0  0  0  0  0  0  0  0  0  0  0  0
   34.0090   31.2290   35.8240 C   0  0  0  0  0  0  0  0  0  0  0  0
   33.4210   30.2640   35.0830 N   0  0  0  0  0  0  0  0  0  0  0  0
   33.6860   28.6560   33.8290 H   0  0  0  0  0  0  0  0  0  0  0  0
   37.2350   30.5370   35.2310 H   0  0  0  0  0  0  0  0  0  0  0  0
   33.4030   31.9390   36.3850 H   0  0  0  0  0  0  0  0  0  0  0  0
  1 27  1  0  0  0  0
  1 10  1  0  0  0  0
  2  1  2  0  0  0  0
  3  2  1  0  0  0  0
  3  4  2  0  0  0  0
  4  5  1  0  0  0  0
  5 10  2  0  0  0  0
  5  6  1  0  0  0  0
  6  7  2  0  0  0  0
  7  8  1  0  0  0  0
  7 13  1  0  0  0  0
  8 14  1  0  0  0  0
  9 15  1  0  0  0  0
  9  8  2  0  0  0  0
 10  9  1  0  0  0  0
 11  3  1  0  0  0  0
 12  6  1  0  0  0  0
 15 16  1  0  0  0  0
 16 17  1  0  0  0  0
 18 16  2  0  0  0  0
 19 18  1  0  0  0  0
 20 21  1  0  0  0  0
 20 19  2  0  0  0  0
 22 20  1  0  0  0  0
 23 22  2  0  0  0  0
 23 25  1  0  0  0  0
 24 23  1  0  0  0  0
 25 26  2  0  0  0  0
 26 19  1  0  0  0  0
 26 15  1  0  0  0  0
 29 28  1  0  0  0  0
 30 29  2  0  0  0  0
 30 39  1  0  0  0  0
 31 30  1  0  0  0  0
 32 31  2  0  0  0  0
 32 33  1  0  0  0  0
 33 34  2  0  0  0  0
 34 29  1  0  0  0  0
 34 27  1  0  0  0  0
 35 31  1  0  0  0  0
 36 32  1  0  0  0  0
 37 33  1  0  0  0  0
 38 39  2  0  0  0  0
 38 43  1  0  0  0  0
 39 40  1  0  0  0  0
 40 45  1  0  0  0  0
 40 41  2  0  0  0  0
 42 41  1  0  0  0  0
 42 46  1  0  0  0  0
 43 42  2  0  0  0  0
 44 38  1  0  0  0  0
M  END
>  <minimizedAffinity>
-6.67418432

$$$$

 OpenBabel03262521423D

 46 51  0  0  0  0  0  0  0  0999 V2000
   34.6740   31.5120   34.8230 C   0  0  0  0  0  0  0  0  0  0  0  0
   35.9780   31.9260   34.8700 N   0  0  0  0  0  0  0  0  0  0  0  0
   36.3070   33.0150   35.6050 C   0  0  0  0  0  0  0  0  0  0  0  0
   35.4060   33.7240   36.3060 N   0  0  0  0  0  0  0  0  0  0  0  0
   34.1120   33.3610   36.2960 C   0  0  0  0  0  0  0  0  0  0  0  0
   33.2070   34.0830   37.0090 C   0  0  0  0  0  0  0  0  0  0  0  0
   31.8750   33.7190   37.0090 C   0  0  0  0  0  0  0  0  0  0  0  0
   31.4630   32.5970   36.2660 C   0  0  0  0  0  0  0  0  0  0  0  0
   32.4400   31.9030   35.5580 C   0  0  0  0  0  0  0  0  0  0  0  0
   33.7550   32.2520   35.5500 C   0  0  0  0  0  0  0  0  0  0  0  0
   37.3340   33.3350   35.6360 H   0  0  0  0  0  0  0  0  0  0  0  0
   33.5460   34.9420   37.5740 H   0  0  0  0  0  0  0  0  0  0  0  0
   31.1990   34.3340   37.5980 H   0  0  0  0  0  0  0  0  0  0  0  0
   30.4140   32.4080   36.3380 H   0  0  0  0  0  0  0  0  0  0  0  0
   31.8250   30.8180   34.8820 N   0  0  0  0  0  0  0  0  0  0  0  0
   31.3570   30.6600   33.6050 C   0  0  0  0  0  0  0  0  0  0  0  0
   31.4610   31.4890   32.8980 H   0  0  0  0  0  0  0  0  0  0  0  0
   30.8200   29.4390   33.4400 N   0  0  0  0  0  0  0  0  0  0  0  0
   30.9030   28.7360   34.5800 C   0  0  0  0  0  0  0  0  0  0  0  0
   30.5530   27.4870   35.0360 C   0  0  0  0  0  0  0  0  0  0  0  0
   30.0720   26.8820   34.2750 H   0  0  0  0  0  0  0  0  0  0  0  0
   30.8040   27.1040   36.3030 N   0  0  0  0  0  0  0  0  0  0  0  0
   31.4090   27.9700   37.1280 C   0  0  0  0  0  0  0  0  0  0  0  0
   31.5740   27.5870   38.1260 H   0  0  0  0  0  0  0  0  0  0  0  0
   31.7660   29.1960   36.7230 N   0  0  0  0  0  0  0  0  0  0  0  0
   31.5340   29.6150   35.4670 C   0  0  0  0  0  0  0  0  0  0  0  0
   34.0870   30.1180   33.9220 S   0  0  0  0  0  0  0  0  0  0  0  0
   36.0020   28.1120   34.8630 F   0  0  0  0  0  0  0  0  0  0  0  0
   36.1960   28.4020   33.5380 C   0  0  0  0  0  0  0  0  0  0  0  0
   37.1970   27.7740   32.8190 C   0  0  0  0  0  0  0  0  0  0  0  0
   37.3610   28.1020   31.4640 C   0  0  0  0  0  0  0  0  0  0  0  0
   36.5300   29.0440   30.8450 C   0  0  0  0  0  0  0  0  0  0  0  0
   35.5570   29.6220   31.6340 C   0  0  0  0  0  0  0  0  0  0  0  0
   35.3690   29.3260   32.9640 C   0  0  0  0  0  0  0  0  0  0  0  0
   38.1550   27.5920   30.9300 H   0  0  0  0  0  0  0  0  0  0  0  0
   36.6780   29.2750   29.8040 H   0  0  0  0  0  0  0  0  0  0  0  0
   34.9540   30.3320   31.1050 H   0  0  0  0  0  0  0  0  0  0  0  0
   37.5940   25.5180   33.3910 C   0  0  0  0  0  0  0  0  0  0  0  0
   38.0060   26.8300   33.4980 C   0  0  0  0  0  0  0  0  0  0  0  0
   39.1480   27.0610   34.2490 C   0  0  0  0  0  0  0  0  0  0  0  0
   39.7930   26.0100   34.8310 N   0  0  0  0  0  0  0  0  0  0  0  0
   39.3510   24.7640   34.6930 C   0  0  0  0  0  0  0  0  0  0  0  0
   38.2430   24.4800   33.9730 N   0  0  0  0  0  0  0  0  0  0  0  0
   36.7040   25.2120   32.8230 H   0  0  0  0  0  0  0  0  0  0  0  0
   39.4520   28.0940   34.3210 H   0  0  0  0  0  0  0  0  0  0  0  0
   39.9090   23.9670   35.1810 H   0  0  0  0  0  0  0  0  0  0  0  0
  1  2  2  0  0  0  0
  1 10  1  0  0  0  0
  2  3  1  0  0  0  0
  3 11  1  0  0  0  0
  3  4  2  0  0  0  0
  5  4  1  0  0  0  0
  5  6  1  0  0  0  0
  6 12  1  0  0  0  0
  7  6  2  0  0  0  0
  7 13  1  0  0  0  0
  8 14  1  0  0  0  0
  8  7  1  0  0  0  0
  9  8  2  0  0  0  0
 10  9  1  0  0  0  0
 10  5  2  0  0  0  0
 15 26  1  0  0  0  0
 15  9  1  0  0  0  0
 16 15  1  0  0  0  0
 17 16  1  0  0  0  0
 18 16  2  0  0  0  0
 18 19  1  0  0  0  0
 19 20  2  0  0  0  0
 19 26  1  0  0  0  0
 20 22  1  0  0  0  0
 21 20  1  0  0  0  0
 22 23  2  0  0  0  0
 23 24  1  0  0  0  0
 25 23  1  0  0  0  0
 26 25  2  0  0  0  0
 27  1  1  0  0  0  0
 29 28  1  0  0  0  0
 30 39  1  0  0  0  0
 30 29  2  0  0  0  0
 31 30  1  0  0  0  0
 32 31  2  0  0  0  0
 32 33  1  0  0  0  0
 33 34  2  0  0  0  0
 34 29  1  0  0  0  0
 34 27  1  0  0  0  0
 35 31  1  0  0  0  0
 36 32  1  0  0  0  0
 37 33  1  0  0  0  0
 38 39  2  0  0  0  0
 38 43  1  0  0  0  0
 39 40  1  0  0  0  0
 40 45  1  0  0  0  0
 40 41  2  0  0  0  0
 42 41  1  0  0  0  0
 42 46  1  0  0  0  0
 43 42  2  0  0  0  0
 44 38  1  0  0  0  0
M  END
>  <minimizedAffinity>
-6.58407354

$$$$

 OpenBabel03262521423D

 46 51  0  0  0  0  0  0  0  0999 V2000
   40.6810   25.8270   34.3140 C   0  0  0  0  0  0  0  0  0  0  0  0
   41.2320   26.9380   33.7340 N   0  0  0  0  0  0  0  0  0  0  0  0
   42.5680   27.1440   33.8220 C   0  0  0  0  0  0  0  0  0  0  0  0
   43.3980   26.3000   34.4580 N   0  0  0  0  0  0  0  0  0  0  0  0
   42.9100   25.1930   35.0440 C   0  0  0  0  0  0  0  0  0  0  0  0
   43.7570   24.3440   35.6840 C   0  0  0  0  0  0  0  0  0  0  0  0
   43.2680   23.2020   36.2870 C   0  0  0  0  0  0  0  0  0  0  0  0
   41.8890   22.9260   36.2350 C   0  0  0  0  0  0  0  0  0  0  0  0
   41.0780   23.8370   35.5650 C   0  0  0  0  0  0  0  0  0  0  0  0
   41.5470   24.9660   34.9660 C   0  0  0  0  0  0  0  0  0  0  0  0
   42.9930   28.0210   33.3650 H   0  0  0  0  0  0  0  0  0  0  0  0
   44.8140   24.5760   35.7110 H   0  0  0  0  0  0  0  0  0  0  0  0
   43.9940   22.5610   36.7830 H   0  0  0  0  0  0  0  0  0  0  0  0
   41.6230   22.0190   36.7330 H   0  0  0  0  0  0  0  0  0  0  0  0
   39.7360   23.3800   35.6260 N   0  0  0  0  0  0  0  0  0  0  0  0
   38.7370   23.5460   36.5470 C   0  0  0  0  0  0  0  0  0  0  0  0
   38.9310   24.1600   37.4330 H   0  0  0  0  0  0  0  0  0  0  0  0
   37.6280   22.8840   36.1740 N   0  0  0  0  0  0  0  0  0  0  0  0
   37.8320   22.2550   35.0060 C   0  0  0  0  0  0  0  0  0  0  0  0
   37.1250   21.4530   34.1420 C   0  0  0  0  0  0  0  0  0  0  0  0
   36.1120   21.2620   34.4810 H   0  0  0  0  0  0  0  0  0  0  0  0
   37.6770   20.9820   33.0070 N   0  0  0  0  0  0  0  0  0  0  0  0
   38.9450   21.3090   32.7260 C   0  0  0  0  0  0  0  0  0  0  0  0
   39.3140   20.8910   31.7990 H   0  0  0  0  0  0  0  0  0  0  0  0
   39.6690   22.0880   33.5420 N   0  0  0  0  0  0  0  0  0  0  0  0
   39.1540   22.5790   34.6820 C   0  0  0  0  0  0  0  0  0  0  0  0
   38.9700   25.4140   34.2840 S   0  0  0  0  0  0  0  0  0  0  0  0
   38.9380   26.7090   31.6560 F   0  0  0  0  0  0  0  0  0  0  0  0
   38.0320   27.2870   32.5060 C   0  0  0  0  0  0  0  0  0  0  0  0
   37.2470   28.3440   32.0850 C   0  0  0  0  0  0  0  0  0  0  0  0
   36.3320   28.9060   32.9890 C   0  0  0  0  0  0  0  0  0  0  0  0
   36.2110   28.4110   34.2930 C   0  0  0  0  0  0  0  0  0  0  0  0
   37.0310   27.3550   34.6320 C   0  0  0  0  0  0  0  0  0  0  0  0
   37.9380   26.7800   33.7730 C   0  0  0  0  0  0  0  0  0  0  0  0
   35.7320   29.7340   32.6270 H   0  0  0  0  0  0  0  0  0  0  0  0
   35.5000   28.8610   34.9660 H   0  0  0  0  0  0  0  0  0  0  0  0
   36.8920   27.0200   35.6400 H   0  0  0  0  0  0  0  0  0  0  0  0
   37.0350   30.1100   30.5320 C   0  0  0  0  0  0  0  0  0  0  0  0
   37.4130   28.8020   30.7550 C   0  0  0  0  0  0  0  0  0  0  0  0
   37.9040   28.1060   29.6630 C   0  0  0  0  0  0  0  0  0  0  0  0
   37.9880   28.7280   28.4510 N   0  0  0  0  0  0  0  0  0  0  0  0
   37.6090   29.9920   28.2950 C   0  0  0  0  0  0  0  0  0  0  0  0
   37.1220   30.7190   29.3250 N   0  0  0  0  0  0  0  0  0  0  0  0
   36.6310   30.7620   31.3210 H   0  0  0  0  0  0  0  0  0  0  0  0
   38.1940   27.0850   29.8590 H   0  0  0  0  0  0  0  0  0  0  0  0
   37.7000   30.4320   27.3040 H   0  0  0  0  0  0  0  0  0  0  0  0
  1 10  1  0  0  0  0
  2  3  1  0  0  0  0
  2  1  2  0  0  0  0
  3  4  2  0  0  0  0
  4  5  1  0  0  0  0
  5  6  1  0  0  0  0
  6 12  1  0  0  0  0
  6  7  2  0  0  0  0
  7 13  1  0  0  0  0
  8  7  1  0  0  0  0
  8 14  1  0  0  0  0
  9 15  1  0  0  0  0
  9  8  2  0  0  0  0
 10  5  2  0  0  0  0
 10  9  1  0  0  0  0
 11  3  1  0  0  0  0
 15 16  1  0  0  0  0
 16 17  1  0  0  0  0
 18 16  2  0  0  0  0
 19 18  1  0  0  0  0
 20 21  1  0  0  0  0
 20 19  2  0  0  0  0
 22 20  1  0  0  0  0
 23 22  2  0  0  0  0
 23 25  1  0  0  0  0
 24 23  1  0  0  0  0
 25 26  2  0  0  0  0
 26 19  1  0  0  0  0
 26 15  1  0  0  0  0
 27  1  1  0  0  0  0
 28 29  1  0  0  0  0
 29 34  1  0  0  0  0
 30 29  2  0  0  0  0
 30 31  1  0  0  0  0
 31 32  2  0  0  0  0
 32 33  1  0  0  0  0
 32 36  1  0  0  0  0
 33 37  1  0  0  0  0
 34 27  1  0  0  0  0
 34 33  2  0  0  0  0
 35 31  1  0  0  0  0
 38 39  1  0  0  0  0
 38 44  1  0  0  0  0
 39 30  1  0  0  0  0
 40 45  1  0  0  0  0
 40 39  2  0  0  0  0
 41 40  1  0  0  0  0
 42 41  2  0  0  0  0
 42 43  1  0  0  0  0
 43 38  2  0  0  0  0
 46 42  1  0  0  0  0
M  END
>  <minimizedAffinity>
-6.57596016

$$$$

 OpenBabel03262521423D

 46 51  0  0  0  0  0  0  0  0999 V2000
   34.7160   31.5040   34.9820 C   0  0  0  0  0  0  0  0  0  0  0  0
   36.0020   31.9660   35.0630 N   0  0  0  0  0  0  0  0  0  0  0  0
   36.2570   33.1200   35.7260 C   0  0  0  0  0  0  0  0  0  0  0  0
   35.2980   33.8490   36.3200 N   0  0  0  0  0  0  0  0  0  0  0  0
   34.0180   33.4410   36.2720 C   0  0  0  0  0  0  0  0  0  0  0  0
   33.0530   34.1840   36.8780 C   0  0  0  0  0  0  0  0  0  0  0  0
   31.7350   33.7750   36.8370 C   0  0  0  0  0  0  0  0  0  0  0  0
   31.3990   32.5850   36.1640 C   0  0  0  0  0  0  0  0  0  0  0  0
   32.4350   31.8730   35.5650 C   0  0  0  0  0  0  0  0  0  0  0  0
   33.7370   32.2660   35.5980 C   0  0  0  0  0  0  0  0  0  0  0  0
   37.2710   33.4760   35.7850 H   0  0  0  0  0  0  0  0  0  0  0  0
   33.3350   35.0960   37.3890 H   0  0  0  0  0  0  0  0  0  0  0  0
   31.0100   34.4100   37.3390 H   0  0  0  0  0  0  0  0  0  0  0  0
   30.3540   32.3660   36.1960 H   0  0  0  0  0  0  0  0  0  0  0  0
   31.8910   30.7180   34.9470 N   0  0  0  0  0  0  0  0  0  0  0  0
   31.5300   30.4340   33.6560 C   0  0  0  0  0  0  0  0  0  0  0  0
   31.6810   31.1970   32.8860 H   0  0  0  0  0  0  0  0  0  0  0  0
   31.0250   29.1920   33.5640 N   0  0  0  0  0  0  0  0  0  0  0  0
   31.0250   28.5980   34.7670 C   0  0  0  0  0  0  0  0  0  0  0  0
   30.6550   27.3890   35.3080 C   0  0  0  0  0  0  0  0  0  0  0  0
   30.2460   26.7070   34.5710 H   0  0  0  0  0  0  0  0  0  0  0  0
   30.8080   27.1290   36.6210 N   0  0  0  0  0  0  0  0  0  0  0  0
   31.3320   28.0800   37.4070 C   0  0  0  0  0  0  0  0  0  0  0  0
   31.4200   27.7930   38.4470 H   0  0  0  0  0  0  0  0  0  0  0  0
   31.7040   29.2710   36.9190 N   0  0  0  0  0  0  0  0  0  0  0  0
   31.5700   29.5680   35.6150 C   0  0  0  0  0  0  0  0  0  0  0  0
   34.2230   30.0250   34.1640 S   0  0  0  0  0  0  0  0  0  0  0  0
   35.4770   29.9850   31.5180 F   0  0  0  0  0  0  0  0  0  0  0  0
   36.0940   29.1100   32.3740 C   0  0  0  0  0  0  0  0  0  0  0  0
   37.1650   28.3470   31.9490 C   0  0  0  0  0  0  0  0  0  0  0  0
   37.7660   27.4630   32.8580 C   0  0  0  0  0  0  0  0  0  0  0  0
   37.2960   27.3530   34.1730 C   0  0  0  0  0  0  0  0  0  0  0  0
   36.2230   28.1500   34.5140 C   0  0  0  0  0  0  0  0  0  0  0  0
   35.6100   29.0250   33.6490 C   0  0  0  0  0  0  0  0  0  0  0  0
   38.6040   26.8800   32.4930 H   0  0  0  0  0  0  0  0  0  0  0  0
   37.7770   26.6670   34.8500 H   0  0  0  0  0  0  0  0  0  0  0  0
   35.9100   28.0220   35.5310 H   0  0  0  0  0  0  0  0  0  0  0  0
   38.5770   27.6190   30.2010 C   0  0  0  0  0  0  0  0  0  0  0  0
   37.5970   28.5010   30.6090 C   0  0  0  0  0  0  0  0  0  0  0  0
   37.1610   29.4200   29.6670 C   0  0  0  0  0  0  0  0  0  0  0  0
   37.7060   29.4110   28.4170 N   0  0  0  0  0  0  0  0  0  0  0  0
   38.6470   28.5360   28.0790 C   0  0  0  0  0  0  0  0  0  0  0  0
   39.1110   27.6180   28.9560 N   0  0  0  0  0  0  0  0  0  0  0  0
   39.0000   26.8470   30.8580 H   0  0  0  0  0  0  0  0  0  0  0  0
   36.3950   30.1010   30.0070 H   0  0  0  0  0  0  0  0  0  0  0  0
   39.0420   28.5780   27.0650 H   0  0  0  0  0  0  0  0  0  0  0  0
  1  2  2  0  0  0  0
  1 10  1  0  0  0  0
  2  3  1  0  0  0  0
  3 11  1  0  0  0  0
  3  4  2  0  0  0  0
  5  4  1  0  0  0  0
  5  6  1  0  0  0  0
  6 12  1  0  0  0  0
  7  6  2  0  0  0  0
  7 13  1  0  0  0  0
  8 14  1  0  0  0  0
  8  7  1  0  0  0  0
  9 10  1  0  0  0  0
  9  8  2  0  0  0  0
 10  5  2  0  0  0  0
 15  9  1  0  0  0  0
 15 26  1  0  0  0  0
 16 15  1  0  0  0  0
 17 16  1  0  0  0  0
 18 16  2  0  0  0  0
 18 19  1  0  0  0  0
 19 20  2  0  0  0  0
 19 26  1  0  0  0  0
 20 22  1  0  0  0  0
 21 20  1  0  0  0  0
 22 23  2  0  0  0  0
 23 24  1  0  0  0  0
 25 23  1  0  0  0  0
 26 25  2  0  0  0  0
 27  1  1  0  0  0  0
 28 29  1  0  0  0  0
 29 34  1  0  0  0  0
 30 29  2  0  0  0  0
 30 31  1  0  0  0  0
 31 32  2  0  0  0  0
 32 33  1  0  0  0  0
 32 36  1  0  0  0  0
 33 37  1  0  0  0  0
 34 27  1  0  0  0  0
 34 33  2  0  0  0  0
 35 31  1  0  0  0  0
 38 39  1  0  0  0  0
 38 44  1  0  0  0  0
 39 30  1  0  0  0  0
 40 45  1  0  0  0  0
 40 39  2  0  0  0  0
 41 40  1  0  0  0  0
 42 41  2  0  0  0  0
 42 43  1  0  0  0  0
 43 38  2  0  0  0  0
 46 42  1  0  0  0  0
M  END
>  <minimizedAffinity>
-6.55978203

$$$$

 OpenBabel03262521423D

 46 51  0  0  0  0  0  0  0  0999 V2000
   40.0320   25.8640   34.4720 C   0  0  0  0  0  0  0  0  0  0  0  0
   40.4370   27.0370   33.8940 N   0  0  0  0  0  0  0  0  0  0  0  0
   41.7600   27.3020   33.7750 C   0  0  0  0  0  0  0  0  0  0  0  0
   42.7160   26.4600   34.2010 N   0  0  0  0  0  0  0  0  0  0  0  0
   42.3750   25.2930   34.7760 C   0  0  0  0  0  0  0  0  0  0  0  0
   43.3480   24.4450   35.2030 C   0  0  0  0  0  0  0  0  0  0  0  0
   43.0110   23.2440   35.7930 C   0  0  0  0  0  0  0  0  0  0  0  0
   41.6540   22.9050   35.9480 C   0  0  0  0  0  0  0  0  0  0  0  0
   40.7080   23.8180   35.4900 C   0  0  0  0  0  0  0  0  0  0  0  0
   41.0280   25.0050   34.9070 C   0  0  0  0  0  0  0  0  0  0  0  0
   42.0690   28.2270   33.3190 H   0  0  0  0  0  0  0  0  0  0  0  0
   44.3850   24.7270   35.0730 H   0  0  0  0  0  0  0  0  0  0  0  0
   43.8320   22.6080   36.1130 H   0  0  0  0  0  0  0  0  0  0  0  0
   41.5100   21.9550   36.4150 H   0  0  0  0  0  0  0  0  0  0  0  0
   39.4140   23.2920   35.7390 N   0  0  0  0  0  0  0  0  0  0  0  0
   38.5630   23.3780   36.8080 C   0  0  0  0  0  0  0  0  0  0  0  0
   38.8650   23.9710   37.6770 H   0  0  0  0  0  0  0  0  0  0  0  0
   37.4400   22.6740   36.5830 N   0  0  0  0  0  0  0  0  0  0  0  0
   37.4880   22.0950   35.3730 C   0  0  0  0  0  0  0  0  0  0  0  0
   36.6920   21.2870   34.5970 C   0  0  0  0  0  0  0  0  0  0  0  0
   35.7530   21.0340   35.0790 H   0  0  0  0  0  0  0  0  0  0  0  0
   37.0810   20.8810   33.3720 N   0  0  0  0  0  0  0  0  0  0  0  0
   38.2750   21.2800   32.9130 C   0  0  0  0  0  0  0  0  0  0  0  0
   38.5140   20.9120   31.9250 H   0  0  0  0  0  0  0  0  0  0  0  0
   39.0810   22.0670   33.6390 N   0  0  0  0  0  0  0  0  0  0  0  0
   38.7290   22.4940   34.8640 C   0  0  0  0  0  0  0  0  0  0  0  0
   38.3570   25.3710   34.6950 S   0  0  0  0  0  0  0  0  0  0  0  0
   37.2690   27.9680   33.8890 F   0  0  0  0  0  0  0  0  0  0  0  0
   36.9010   26.9820   33.0120 C   0  0  0  0  0  0  0  0  0  0  0  0
   36.1130   27.2730   31.9150 C   0  0  0  0  0  0  0  0  0  0  0  0
   35.7600   26.2320   31.0420 C   0  0  0  0  0  0  0  0  0  0  0  0
   36.1950   24.9210   31.2730 C   0  0  0  0  0  0  0  0  0  0  0  0
   36.9770   24.7170   32.3910 C   0  0  0  0  0  0  0  0  0  0  0  0
   37.3410   25.7130   33.2660 C   0  0  0  0  0  0  0  0  0  0  0  0
   35.1410   26.4950   30.1920 H   0  0  0  0  0  0  0  0  0  0  0  0
   35.9090   24.1410   30.5870 H   0  0  0  0  0  0  0  0  0  0  0  0
   37.2790   23.6960   32.5120 H   0  0  0  0  0  0  0  0  0  0  0  0
   36.3920   29.3160   30.7630 C   0  0  0  0  0  0  0  0  0  0  0  0
   35.7040   28.6170   31.7330 C   0  0  0  0  0  0  0  0  0  0  0  0
   34.7080   29.3090   32.4040 C   0  0  0  0  0  0  0  0  0  0  0  0
   34.4610   30.6120   32.0820 N   0  0  0  0  0  0  0  0  0  0  0  0
   35.1560   31.2340   31.1360 C   0  0  0  0  0  0  0  0  0  0  0  0
   36.1390   30.6090   30.4510 N   0  0  0  0  0  0  0  0  0  0  0  0
   37.2020   28.8740   30.1650 H   0  0  0  0  0  0  0  0  0  0  0  0
   34.1820   28.7440   33.1590 H   0  0  0  0  0  0  0  0  0  0  0  0
   34.9130   32.2740   30.9250 H   0  0  0  0  0  0  0  0  0  0  0  0
  1 27  1  0  0  0  0
  1 10  1  0  0  0  0
  2  1  2  0  0  0  0
  3  2  1  0  0  0  0
  3  4  2  0  0  0  0
  4  5  1  0  0  0  0
  5 10  2  0  0  0  0
  5  6  1  0  0  0  0
  6  7  2  0  0  0  0
  7  8  1  0  0  0  0
  7 13  1  0  0  0  0
  8 14  1  0  0  0  0
  9 15  1  0  0  0  0
  9  8  2  0  0  0  0
 10  9  1  0  0  0  0
 11  3  1  0  0  0  0
 12  6  1  0  0  0  0
 15 16  1  0  0  0  0
 16 17  1  0  0  0  0
 18 16  2  0  0  0  0
 19 18  1  0  0  0  0
 20 21  1  0  0  0  0
 20 19  2  0  0  0  0
 22 20  1  0  0  0  0
 23 22  2  0  0  0  0
 23 25  1  0  0  0  0
 24 23  1  0  0  0  0
 25 26  2  0  0  0  0
 26 19  1  0  0  0  0
 26 15  1  0  0  0  0
 29 34  1  0  0  0  0
 29 28  1  0  0  0  0
 30 29  2  0  0  0  0
 31 32  2  0  0  0  0
 31 30  1  0  0  0  0
 32 33  1  0  0  0  0
 33 37  1  0  0  0  0
 33 34  2  0  0  0  0
 34 27  1  0  0  0  0
 35 31  1  0  0  0  0
 36 32  1  0  0  0  0
 38 39  1  0  0  0  0
 39 30  1  0  0  0  0
 39 40  2  0  0  0  0
 40 45  1  0  0  0  0
 41 40  1  0  0  0  0
 42 41  2  0  0  0  0
 43 38  2  0  0  0  0
 43 42  1  0  0  0  0
 44 38  1  0  0  0  0
 46 42  1  0  0  0  0
M  END
>  <minimizedAffinity>
-6.55890465

$$$$

 OpenBabel03262521423D

 46 51  0  0  0  0  0  0  0  0999 V2000
   36.6430   23.8970   32.2940 C   0  0  0  0  0  0  0  0  0  0  0  0
   35.5030   23.8650   31.5350 N   0  0  0  0  0  0  0  0  0  0  0  0
   35.0990   24.9850   30.8900 C   0  0  0  0  0  0  0  0  0  0  0  0
   35.7690   26.1480   30.9540 N   0  0  0  0  0  0  0  0  0  0  0  0
   36.8940   26.2350   31.6830 C   0  0  0  0  0  0  0  0  0  0  0  0
   37.5670   27.4160   31.7410 C   0  0  0  0  0  0  0  0  0  0  0  0
   38.7260   27.5170   32.4850 C   0  0  0  0  0  0  0  0  0  0  0  0
   39.2040   26.3910   33.1810 C   0  0  0  0  0  0  0  0  0  0  0  0
   38.4670   25.2140   33.0800 C   0  0  0  0  0  0  0  0  0  0  0  0
   37.3230   25.1020   32.3510 C   0  0  0  0  0  0  0  0  0  0  0  0
   34.2010   24.9520   30.2970 H   0  0  0  0  0  0  0  0  0  0  0  0
   37.1810   28.2680   31.1970 H   0  0  0  0  0  0  0  0  0  0  0  0
   39.2200   28.4860   32.4930 H   0  0  0  0  0  0  0  0  0  0  0  0
   40.1050   26.5830   33.7220 H   0  0  0  0  0  0  0  0  0  0  0  0
   39.1110   24.2100   33.8480 N   0  0  0  0  0  0  0  0  0  0  0  0
   39.9740   23.1980   33.5220 C   0  0  0  0  0  0  0  0  0  0  0  0
   40.2940   23.0920   32.4800 H   0  0  0  0  0  0  0  0  0  0  0  0
   40.2940   22.4740   34.6080 N   0  0  0  0  0  0  0  0  0  0  0  0
   39.6680   22.9590   35.6920 C   0  0  0  0  0  0  0  0  0  0  0  0
   39.5850   22.6750   37.0340 C   0  0  0  0  0  0  0  0  0  0  0  0
   40.1890   21.8200   37.3210 H   0  0  0  0  0  0  0  0  0  0  0  0
   38.8220   23.4120   37.8650 N   0  0  0  0  0  0  0  0  0  0  0  0
   38.1320   24.4430   37.3570 C   0  0  0  0  0  0  0  0  0  0  0  0
   37.5450   24.9830   38.0870 H   0  0  0  0  0  0  0  0  0  0  0  0
   38.1860   24.7530   36.0550 N   0  0  0  0  0  0  0  0  0  0  0  0
   38.9360   24.0430   35.1940 C   0  0  0  0  0  0  0  0  0  0  0  0
   37.3030   22.5300   33.1860 S   0  0  0  0  0  0  0  0  0  0  0  0
   38.0450   21.3120   30.6270 F   0  0  0  0  0  0  0  0  0  0  0  0
   37.1820   20.5110   31.3270 C   0  0  0  0  0  0  0  0  0  0  0  0
   36.7700   19.2980   30.8080 C   0  0  0  0  0  0  0  0  0  0  0  0
   35.8840   18.5090   31.5590 C   0  0  0  0  0  0  0  0  0  0  0  0
   35.4240   18.9350   32.8110 C   0  0  0  0  0  0  0  0  0  0  0  0
   35.8840   20.1580   33.2550 C   0  0  0  0  0  0  0  0  0  0  0  0
   36.7510   20.9560   32.5450 C   0  0  0  0  0  0  0  0  0  0  0  0
   35.5810   17.5640   31.1230 H   0  0  0  0  0  0  0  0  0  0  0  0
   34.7460   18.3090   33.3660 H   0  0  0  0  0  0  0  0  0  0  0  0
   35.4990   20.4290   34.2170 H   0  0  0  0  0  0  0  0  0  0  0  0
   38.6000   18.5570   29.5120 C   0  0  0  0  0  0  0  0  0  0  0  0
   37.2680   18.9190   29.5370 C   0  0  0  0  0  0  0  0  0  0  0  0
   36.5900   18.8670   28.3300 C   0  0  0  0  0  0  0  0  0  0  0  0
   37.2520   18.4730   27.2040 N   0  0  0  0  0  0  0  0  0  0  0  0
   38.5370   18.1350   27.2390 C   0  0  0  0  0  0  0  0  0  0  0  0
   39.2470   18.1670   28.3880 N   0  0  0  0  0  0  0  0  0  0  0  0
   39.2390   18.5590   30.4060 H   0  0  0  0  0  0  0  0  0  0  0  0
   35.5500   19.1540   28.3720 H   0  0  0  0  0  0  0  0  0  0  0  0
   39.0090   17.8290   26.3070 H   0  0  0  0  0  0  0  0  0  0  0  0
  1 10  1  0  0  0  0
  1 27  1  0  0  0  0
  2  1  2  0  0  0  0
  3  4  2  0  0  0  0
  3  2  1  0  0  0  0
  4  5  1  0  0  0  0
  5  6  2  0  0  0  0
  5 10  1  0  0  0  0
  6  7  1  0  0  0  0
  7 13  1  0  0  0  0
  7  8  2  0  0  0  0
  8 14  1  0  0  0  0
  9  8  1  0  0  0  0
  9 15  1  0  0  0  0
 10  9  2  0  0  0  0
 11  3  1  0  0  0  0
 12  6  1  0  0  0  0
 15 26  1  0  0  0  0
 16 15  1  0  0  0  0
 16 18  2  0  0  0  0
 17 16  1  0  0  0  0
 18 19  1  0  0  0  0
 19 20  1  0  0  0  0
 20 21  1  0  0  0  0
 20 22  2  0  0  0  0
 23 22  1  0  0  0  0
 23 24  1  0  0  0  0
 25 23  2  0  0  0  0
 26 19  2  0  0  0  0
 26 25  1  0  0  0  0
 28 29  1  0  0  0  0
 29 34  1  0  0  0  0
 30 29  2  0  0  0  0
 30 31  1  0  0  0  0
 31 32  2  0  0  0  0
 32 33  1  0  0  0  0
 32 36  1  0  0  0  0
 33 37  1  0  0  0  0
 34 27  1  0  0  0  0
 34 33  2  0  0  0  0
 35 31  1  0  0  0  0
 38 39  1  0  0  0  0
 38 44  1  0  0  0  0
 39 30  1  0  0  0  0
 40 45  1  0  0  0  0
 40 39  2  0  0  0  0
 41 42  2  0  0  0  0
 41 40  1  0  0  0  0
 42 43  1  0  0  0  0
 43 38  2  0  0  0  0
 46 42  1  0  0  0  0
M  END
>  <minimizedAffinity>
-6.53882074

$$$$
