
     RDKit          3D

 27 29  0  0  0  0  0  0  0  0999 V2000
   37.3353   30.1629   51.3536 C   0  0  0  0  0  0  0  0  0  0  0  0
   37.9971   30.5106   50.1721 C   0  0  0  0  0  0  0  0  0  0  0  0
   37.4236   30.1426   48.9644 C   0  0  0  0  0  0  0  0  0  0  0  0
   36.2365   29.4561   48.9837 N   0  0  0  0  0  0  0  0  0  0  0  0
   35.6338   29.1422   50.1532 C   0  0  0  0  0  0  0  0  0  0  0  0
   36.1808   29.4940   51.3284 N   0  0  0  0  0  0  0  0  0  0  0  0
   37.8812   30.3696   47.6988 O   0  0  0  0  0  0  0  0  0  0  0  0
   39.0657   32.7291   48.1450 O   0  0  0  0  0  0  0  0  0  0  0  0
   38.6966   31.7110   47.1092 P   0  0  2  0  0  0  0  0  0  0  0  0
   37.8227   32.4684   45.8534 O   0  0  0  0  0  0  0  0  0  0  0  0
   40.1467   31.1856   46.3912 O   0  0  0  0  0  0  0  0  0  0  0  0
   37.8046   30.4619   52.2683 H   0  0  0  0  0  0  0  0  0  0  0  0
   38.9186   31.0414   50.0851 H   0  0  0  0  0  0  0  0  0  0  0  0
   34.6841   28.5918   50.1282 H   0  0  0  0  0  0  0  0  0  0  0  0
   37.9584   33.4366   45.9129 H   0  0  0  0  0  0  0  0  0  0  0  0
   41.9416   29.1768   45.6556 H   0  0  0  0  0  0  0  0  0  0  0  0
   41.0215   29.2213   45.1670 N   0  0  0  0  0  0  0  0  0  0  0  0
   40.0784   30.1563   45.4477 C   0  0  0  0  0  0  0  0  0  0  0  0
   39.0714   29.8528   44.6036 N   0  0  0  0  0  0  0  0  0  0  0  0
   39.3573   28.8008   43.8433 C   0  0  0  0  0  0  0  0  0  0  0  0
   38.7551   28.0587   42.8460 C   0  0  0  0  0  0  0  0  0  0  0  0
   37.7647   28.3435   42.5283 H   0  0  0  0  0  0  0  0  0  0  0  0
   39.3602   27.0100   42.2715 N   0  0  0  0  0  0  0  0  0  0  0  0
   40.6080   26.6557   42.6759 C   0  0  0  0  0  0  0  0  0  0  0  0
   41.1139   25.7959   42.2105 H   0  0  0  0  0  0  0  0  0  0  0  0
   41.2392   27.3465   43.6447 N   0  0  0  0  0  0  0  0  0  0  0  0
   40.6163   28.3938   44.2077 C   0  0  0  0  0  0  0  0  0  0  0  0
  2  1  2  0
  3  4  2  0
  3  2  1  0
  4  5  1  0
  5  6  2  0
  6  1  1  0
  7  3  1  0
  9  7  1  1
  9  8  2  0
 10  9  1  0
 11  9  1  0
  1 12  1  0
  2 13  1  0
  5 14  1  0
 10 15  1  0
 16 17  1  0
 17 18  1  0
 18 19  2  0
 19 20  1  0
 20 21  2  0
 21 22  1  0
 21 23  1  0
 23 24  2  0
 24 25  1  0
 24 26  1  0
 26 27  2  0
 27 17  1  0
 27 20  1  0
 11 18  1  0
M  ISO  7  12  14  13  14  14  14  15   3  16   9  22  16  25  16
M  END
>  <DihAtoms>  (1) 
8,10,17,16

>  <DihDeg>  (1) 
-0.0001689816874141416

$$$$
