
 OpenBabel03272508083D

 27 29  0  0  0  0  0  0  0  0999 V2000
   39.0540   32.7540   48.1180 O   0  0  0  0  0  0  0  0  0  0  0  0
   38.6500   31.7380   47.0920 P   0  0  2  0  0  0  0  0  0  0  0  0
   37.6650   32.4810   45.9130 O   0  0  0  0  0  0  0  0  0  0  0  0
   37.7690   33.4540   45.9800 H   0  0  0  0  0  0  0  0  0  0  0  0
   37.9260   30.3600   47.7140 O   0  0  0  0  0  0  0  0  0  0  0  0
   37.3400   30.1840   51.3640 C   0  0  0  0  0  0  0  0  0  0  0  0
   38.0150   30.5220   50.1870 C   0  0  0  0  0  0  0  0  0  0  0  0
   37.4550   30.1430   48.9760 C   0  0  0  0  0  0  0  0  0  0  0  0
   36.2670   29.4560   48.9890 N   0  0  0  0  0  0  0  0  0  0  0  0
   35.6530   29.1520   50.1540 C   0  0  0  0  0  0  0  0  0  0  0  0
   36.1870   29.5140   51.3310 N   0  0  0  0  0  0  0  0  0  0  0  0
   37.8000   30.4910   52.2810 H   0  0  0  0  0  0  0  0  0  0  0  0
   38.9370   31.0520   50.1050 H   0  0  0  0  0  0  0  0  0  0  0  0
   34.7030   28.6010   50.1230 H   0  0  0  0  0  0  0  0  0  0  0  0
   40.0650   31.2780   46.2670 O   0  0  0  0  0  0  0  0  0  0  0  0
   40.5940   32.7080   43.9280 H   0  0  0  0  0  0  0  0  0  0  0  0
   40.2460   31.7300   43.8400 N   0  0  0  0  0  0  0  0  0  0  0  0
   39.9570   30.9480   44.9120 C   0  0  0  0  0  0  0  0  0  0  0  0
   39.5490   29.7890   44.3580 N   0  0  0  0  0  0  0  0  0  0  0  0
   39.5760   29.8340   43.0300 C   0  0  0  0  0  0  0  0  0  0  0  0
   39.2880   29.0000   41.9660 C   0  0  0  0  0  0  0  0  0  0  0  0
   38.9320   28.0060   42.1820 H   0  0  0  0  0  0  0  0  0  0  0  0
   39.4370   29.3900   40.6930 N   0  0  0  0  0  0  0  0  0  0  0  0
   39.8870   30.6450   40.4270 C   0  0  0  0  0  0  0  0  0  0  0  0
   40.0130   30.9750   39.3840 H   0  0  0  0  0  0  0  0  0  0  0  0
   40.1830   31.4960   41.4280 N   0  0  0  0  0  0  0  0  0  0  0  0
   40.0260   31.0870   42.6960 C   0  0  0  0  0  0  0  0  0  0  0  0
  2  5  1  0  0  0  0
  2  1  2  1  0  0  0
  3  4  1  0  0  0  0
  3  2  1  0  0  0  0
  5  8  1  0  0  0  0
  6 12  1  0  0  0  0
  7  6  2  0  0  0  0
  8  9  2  0  0  0  0
  8  7  1  0  0  0  0
  9 10  1  0  0  0  0
 10 11  2  0  0  0  0
 11  6  1  0  0  0  0
 13  7  1  0  0  0  0
 14 10  1  0  0  0  0
 15  2  1  0  0  0  0
 17 16  1  0  0  0  0
 17 18  1  0  0  0  0
 18 15  1  0  0  0  0
 19 18  2  0  0  0  0
 20 19  1  0  0  0  0
 21 22  1  0  0  0  0
 21 20  2  0  0  0  0
 23 21  1  0  0  0  0
 24 23  2  0  0  0  0
 24 26  1  0  0  0  0
 25 24  1  0  0  0  0
 26 27  2  0  0  0  0
 27 20  1  0  0  0  0
 27 17  1  0  0  0  0
M  END
>  <minimizedAffinity>
-5.52539968

>  <minimizedRMSD>
1.76229119

$$$$
