
     RDKit          3D

 40 44  0  0  0  0  0  0  0  0999 V2000
   37.5073   32.2963   48.8568 C   0  0  1  0  0  0  0  0  0  0  0  0
   38.7793   32.9318   49.0683 C   0  0  0  0  0  0  0  0  0  0  0  0
   38.6829   31.8277   47.9961 C   0  0  2  0  0  0  0  0  0  0  0  0
   35.2551   29.6891   50.3169 C   0  0  0  0  0  0  0  0  0  0  0  0
   35.7257   30.6793   49.4581 C   0  0  0  0  0  0  0  0  0  0  0  0
   36.9657   31.2328   49.7274 C   0  0  0  0  0  0  0  0  0  0  0  0
   37.6662   30.7794   50.8236 N   0  0  0  0  0  0  0  0  0  0  0  0
   37.1879   29.8185   51.6408 C   0  0  0  0  0  0  0  0  0  0  0  0
   35.9623   29.2591   51.3895 N   0  0  0  0  0  0  0  0  0  0  0  0
   37.9636   31.7635   45.5515 C   0  0  1  0  0  0  0  0  0  0  0  0
   38.7917   32.3950   46.5968 C   0  0  2  0  0  0  0  0  0  0  0  0
   40.2230   32.1762   46.0756 C   0  0  0  0  0  0  0  0  0  0  0  0
   40.1311   30.9089   45.5771 O   0  0  0  0  0  0  0  0  0  0  0  0
   38.8904   30.6971   45.0029 C   0  0  0  0  0  0  0  0  0  0  0  0
   36.7948   31.1973   46.0247 O   0  0  0  0  0  0  0  0  0  0  0  0
   36.7248   32.8440   48.2550 H   0  0  0  0  0  0  0  0  0  0  0  0
   39.0117   33.9533   48.7742 H   0  0  0  0  0  0  0  0  0  0  0  0
   39.3483   32.6237   49.9936 H   0  0  0  0  0  0  0  0  0  0  0  0
   39.1613   30.8738   48.2191 H   0  0  0  0  0  0  0  0  0  0  0  0
   34.2784   29.2657   50.0891 H   0  0  0  0  0  0  0  0  0  0  0  0
   35.1108   30.9769   48.6199 H   0  0  0  0  0  0  0  0  0  0  0  0
   37.8063   29.5246   52.4777 H   0  0  0  0  0  0  0  0  0  0  0  0
   37.7243   32.4697   44.7564 H   0  0  0  0  0  0  0  0  0  0  0  0
   38.6436   33.4854   46.5693 H   0  0  0  0  0  0  0  0  0  0  0  0
   40.5300   32.9451   45.3636 H   0  0  0  0  0  0  0  0  0  0  0  0
   40.8654   32.1474   46.9925 H   0  0  0  0  0  0  0  0  0  0  0  0
   38.5376   29.6646   45.2155 H   0  0  0  0  0  0  0  0  0  0  0  0
   38.9315   30.7542   43.8872 H   0  0  0  0  0  0  0  0  0  0  0  0
   34.1059   30.8285   46.8764 H   0  0  0  0  0  0  0  0  0  0  0  0
   34.3037   31.3163   45.9899 N   0  0  0  0  0  0  0  0  0  0  0  0
   35.5352   31.5424   45.4974 C   0  0  0  0  0  0  0  0  0  0  0  0
   35.3513   32.2038   44.3276 N   0  0  0  0  0  0  0  0  0  0  0  0
   34.0259   32.3792   44.1086 C   0  0  0  0  0  0  0  0  0  0  0  0
   33.3474   32.9789   43.0845 C   0  0  0  0  0  0  0  0  0  0  0  0
   33.8660   33.4245   42.2506 H   0  0  0  0  0  0  0  0  0  0  0  0
   32.0133   33.0087   43.1265 N   0  0  0  0  0  0  0  0  0  0  0  0
   31.3348   32.4570   44.1618 C   0  0  0  0  0  0  0  0  0  0  0  0
   30.2722   32.5452   44.0798 H   0  0  0  0  0  0  0  0  0  0  0  0
   32.0209   31.8636   45.1742 N   0  0  0  0  0  0  0  0  0  0  0  0
   33.3703   31.8084   45.1763 C   0  0  0  0  0  0  0  0  0  0  0  0
  1  2  1  0
  1  6  1  0
  3  1  1  0
  3  2  1  0
  4  9  2  0
  5  6  2  0
  5  4  1  0
  6  7  1  0
  7  8  2  0
  9  8  1  0
 10 15  1  0
 10 11  1  0
 11 12  1  0
 11  3  1  0
 13 12  1  0
 14 10  1  0
 14 13  1  0
  1 16  1  6
  2 17  1  0
  2 18  1  0
  3 19  1  1
  4 20  1  0
  5 21  1  0
  8 22  1  0
 10 23  1  6
 11 24  1  1
 12 25  1  0
 12 26  1  0
 14 27  1  0
 14 28  1  0
 29 30  1  0
 30 31  1  0
 31 32  2  0
 32 33  1  0
 33 34  2  0
 34 35  1  0
 34 36  1  0
 36 37  2  0
 37 38  1  0
 37 39  1  0
 39 40  2  0
 40 30  1  0
 40 33  1  0
 15 31  1  0
M  ISO  8  16  13  17  13  18  13  19  13  20  14  21  14  22  14  23  13
M  ISO  8  24  13  25  13  26  13  27  13  28  13  29   9  35  16  38  16
M  END
>  <DihAtoms>  (1) 
9,14,30,29

>  <DihDeg>  (1) 
0.0016315203374330056

$$$$
