
 OpenBabel03272508133D

 37 40  0  0  0  0  0  0  0  0999 V2000
   38.5990   26.7960   32.6610 Cl  0  0  0  0  0  0  0  0  0  0  0  0
   37.3410   25.6950   32.0780 C   0  0  0  0  0  0  0  0  0  0  0  0
   37.4430   24.3050   32.1380 C   0  0  0  0  0  0  0  0  0  0  0  0
   36.3890   23.5650   31.6470 C   0  0  0  0  0  0  0  0  0  0  0  0
   35.2810   24.1860   31.1190 C   0  0  0  0  0  0  0  0  0  0  0  0
   35.1670   25.5520   31.0530 C   0  0  0  0  0  0  0  0  0  0  0  0
   36.2050   26.3020   31.5370 C   0  0  0  0  0  0  0  0  0  0  0  0
   36.5580   22.4970   31.7350 H   0  0  0  0  0  0  0  0  0  0  0  0
   34.4880   23.5440   30.7500 H   0  0  0  0  0  0  0  0  0  0  0  0
   34.2720   26.0110   30.6270 H   0  0  0  0  0  0  0  0  0  0  0  0
   36.0710   27.7170   31.4610 N   0  0  0  0  0  0  0  0  0  0  0  0
   35.4120   28.5170   32.3330 C   0  0  0  0  0  0  0  0  0  0  0  0
   34.8730   28.2180   33.2360 H   0  0  0  0  0  0  0  0  0  0  0  0
   35.4840   29.8100   31.9590 N   0  0  0  0  0  0  0  0  0  0  0  0
   36.2090   29.8670   30.8100 C   0  0  0  0  0  0  0  0  0  0  0  0
   36.6340   30.8640   29.9460 C   0  0  0  0  0  0  0  0  0  0  0  0
   36.3540   31.8890   30.1760 H   0  0  0  0  0  0  0  0  0  0  0  0
   37.3740   30.5320   28.8540 N   0  0  0  0  0  0  0  0  0  0  0  0
   37.7140   29.2630   28.5760 C   0  0  0  0  0  0  0  0  0  0  0  0
   38.3060   28.9900   27.7070 H   0  0  0  0  0  0  0  0  0  0  0  0
   37.2840   28.3210   29.4410 N   0  0  0  0  0  0  0  0  0  0  0  0
   36.5580   28.5590   30.5290 C   0  0  0  0  0  0  0  0  0  0  0  0
   38.6190   23.8920   32.6950 O   0  0  0  0  0  0  0  0  0  0  0  0
   38.8710   21.3300   32.4570 O   0  0  0  0  0  0  0  0  0  0  0  0
   38.9990   22.4460   33.4370 P   0  0  1  0  0  0  0  0  0  0  0  0
   40.6390   22.6090   33.8940 O   0  0  0  0  0  0  0  0  0  0  0  0
   41.1960   22.0640   33.2860 H   0  0  0  0  0  0  0  0  0  0  0  0
   38.0460   22.2560   34.8310 O   0  0  0  0  0  0  0  0  0  0  0  0
   37.9480   23.5640   38.2770 C   0  0  0  0  0  0  0  0  0  0  0  0
   37.4390   23.2540   37.0110 C   0  0  0  0  0  0  0  0  0  0  0  0
   38.3090   22.6430   36.0960 C   0  0  0  0  0  0  0  0  0  0  0  0
   39.5930   22.3870   36.4880 N   0  0  0  0  0  0  0  0  0  0  0  0
   40.0310   22.7060   37.7170 C   0  0  0  0  0  0  0  0  0  0  0  0
   39.2190   23.2910   38.6130 N   0  0  0  0  0  0  0  0  0  0  0  0
   37.2230   24.0390   38.9500 H   0  0  0  0  0  0  0  0  0  0  0  0
   36.4550   23.4280   36.6520 H   0  0  0  0  0  0  0  0  0  0  0  0
   41.0480   22.5080   38.0370 H   0  0  0  0  0  0  0  0  0  0  0  0
  2  3  1  0  0  0  0
  2  1  1  0  0  0  0
  3 23  1  0  0  0  0
  4  8  1  0  0  0  0
  4  3  2  0  0  0  0
  5  4  1  0  0  0  0
  6  5  2  0  0  0  0
  6  7  1  0  0  0  0
  7  2  2  0  0  0  0
  9  5  1  0  0  0  0
 10  6  1  0  0  0  0
 11  7  1  0  0  0  0
 11 12  1  0  0  0  0
 12 13  1  0  0  0  0
 14 12  2  0  0  0  0
 15 14  1  0  0  0  0
 16 17  1  0  0  0  0
 16 15  2  0  0  0  0
 18 16  1  0  0  0  0
 19 18  2  0  0  0  0
 19 21  1  0  0  0  0
 20 19  1  0  0  0  0
 21 22  2  0  0  0  0
 22 15  1  0  0  0  0
 22 11  1  0  0  0  0
 23 25  1  0  0  0  0
 25 24  2  6  0  0  0
 25 26  1  0  0  0  0
 25 28  1  0  0  0  0
 27 26  1  0  0  0  0
 28 31  1  0  0  0  0
 29 34  1  0  0  0  0
 29 35  1  0  0  0  0
 30 29  2  0  0  0  0
 31 32  2  0  0  0  0
 31 30  1  0  0  0  0
 32 33  1  0  0  0  0
 33 37  1  0  0  0  0
 33 34  2  0  0  0  0
 36 30  1  0  0  0  0
M  END
>  <minimizedAffinity>
-5.93285513

$$$$

 OpenBabel03272508133D

 37 40  0  0  0  0  0  0  0  0999 V2000
   38.6010   27.2490   35.1440 Cl  0  0  0  0  0  0  0  0  0  0  0  0
   37.7570   26.4010   33.8380 C   0  0  0  0  0  0  0  0  0  0  0  0
   36.8490   27.0170   32.9780 C   0  0  0  0  0  0  0  0  0  0  0  0
   36.2620   26.2380   32.0030 C   0  0  0  0  0  0  0  0  0  0  0  0
   36.5710   24.9020   31.8930 C   0  0  0  0  0  0  0  0  0  0  0  0
   37.4630   24.2820   32.7310 C   0  0  0  0  0  0  0  0  0  0  0  0
   38.0540   25.0420   33.7050 C   0  0  0  0  0  0  0  0  0  0  0  0
   35.5720   26.8010   31.3850 H   0  0  0  0  0  0  0  0  0  0  0  0
   36.0730   24.3480   31.1030 H   0  0  0  0  0  0  0  0  0  0  0  0
   37.6840   23.2190   32.6150 H   0  0  0  0  0  0  0  0  0  0  0  0
   38.9770   24.3850   34.5670 N   0  0  0  0  0  0  0  0  0  0  0  0
   40.2410   24.0050   34.2630 C   0  0  0  0  0  0  0  0  0  0  0  0
   40.7670   24.1350   33.3140 H   0  0  0  0  0  0  0  0  0  0  0  0
   40.8370   23.4070   35.3150 N   0  0  0  0  0  0  0  0  0  0  0  0
   39.9440   23.3910   36.3400 C   0  0  0  0  0  0  0  0  0  0  0  0
   39.9350   22.9360   37.6490 C   0  0  0  0  0  0  0  0  0  0  0  0
   40.8350   22.4580   38.0260 H   0  0  0  0  0  0  0  0  0  0  0  0
   38.8170   23.1010   38.4070 N   0  0  0  0  0  0  0  0  0  0  0  0
   37.7090   23.6930   37.9330 C   0  0  0  0  0  0  0  0  0  0  0  0
   36.8130   23.8300   38.5320 H   0  0  0  0  0  0  0  0  0  0  0  0
   37.7570   24.1240   36.6550 N   0  0  0  0  0  0  0  0  0  0  0  0
   38.8060   24.0030   35.8480 C   0  0  0  0  0  0  0  0  0  0  0  0
   36.6830   28.3420   33.2560 O   0  0  0  0  0  0  0  0  0  0  0  0
   36.0840   29.6150   31.0870 O   0  0  0  0  0  0  0  0  0  0  0  0
   35.7010   29.4740   32.5200 P   0  0  1  0  0  0  0  0  0  0  0  0
   34.1260   28.8130   32.6200 O   0  0  0  0  0  0  0  0  0  0  0  0
   33.8600   28.4840   31.7260 H   0  0  0  0  0  0  0  0  0  0  0  0
   35.7530   30.9280   33.3970 O   0  0  0  0  0  0  0  0  0  0  0  0
   35.0610   32.0380   36.8440 C   0  0  0  0  0  0  0  0  0  0  0  0
   35.8270   31.8600   35.6870 C   0  0  0  0  0  0  0  0  0  0  0  0
   35.2180   31.2100   34.6030 C   0  0  0  0  0  0  0  0  0  0  0  0
   33.9250   30.7900   34.7370 N   0  0  0  0  0  0  0  0  0  0  0  0
   33.2340   30.9870   35.8720 C   0  0  0  0  0  0  0  0  0  0  0  0
   33.7920   31.6070   36.9240 N   0  0  0  0  0  0  0  0  0  0  0  0
   35.5880   32.5530   37.6580 H   0  0  0  0  0  0  0  0  0  0  0  0
   36.8310   32.1630   35.5260 H   0  0  0  0  0  0  0  0  0  0  0  0
   32.2070   30.6570   35.9870 H   0  0  0  0  0  0  0  0  0  0  0  0
  2  1  1  0  0  0  0
  3 23  1  0  0  0  0
  3  2  2  0  0  0  0
  4  3  1  0  0  0  0
  5  4  2  0  0  0  0
  5  6  1  0  0  0  0
  6  7  2  0  0  0  0
  7  2  1  0  0  0  0
  7 11  1  0  0  0  0
  8  4  1  0  0  0  0
  9  5  1  0  0  0  0
 10  6  1  0  0  0  0
 11 22  1  0  0  0  0
 12 11  1  0  0  0  0
 12 14  2  0  0  0  0
 13 12  1  0  0  0  0
 14 15  1  0  0  0  0
 15 16  1  0  0  0  0
 16 17  1  0  0  0  0
 16 18  2  0  0  0  0
 19 18  1  0  0  0  0
 19 20  1  0  0  0  0
 21 19  2  0  0  0  0
 22 15  2  0  0  0  0
 22 21  1  0  0  0  0
 25 24  2  6  0  0  0
 25 26  1  0  0  0  0
 25 23  1  0  0  0  0
 25 28  1  0  0  0  0
 27 26  1  0  0  0  0
 28 31  1  0  0  0  0
 29 34  1  0  0  0  0
 29 35  1  0  0  0  0
 30 29  2  0  0  0  0
 31 32  2  0  0  0  0
 31 30  1  0  0  0  0
 32 33  1  0  0  0  0
 33 37  1  0  0  0  0
 33 34  2  0  0  0  0
 36 30  1  0  0  0  0
M  END
>  <minimizedAffinity>
-5.91629553

$$$$

 OpenBabel03272508133D

 37 40  0  0  0  0  0  0  0  0999 V2000
   38.5140   26.3010   34.2370 Cl  0  0  0  0  0  0  0  0  0  0  0  0
   37.5860   25.1810   33.2270 C   0  0  0  0  0  0  0  0  0  0  0  0
   36.6290   25.5900   32.2990 C   0  0  0  0  0  0  0  0  0  0  0  0
   35.9780   24.6110   31.5780 C   0  0  0  0  0  0  0  0  0  0  0  0
   36.2710   23.2820   31.7760 C   0  0  0  0  0  0  0  0  0  0  0  0
   37.2100   22.8640   32.6860 C   0  0  0  0  0  0  0  0  0  0  0  0
   37.8660   23.8240   33.4110 C   0  0  0  0  0  0  0  0  0  0  0  0
   35.2540   25.0230   30.8830 H   0  0  0  0  0  0  0  0  0  0  0  0
   35.7220   22.5640   31.1760 H   0  0  0  0  0  0  0  0  0  0  0  0
   37.4170   21.8000   32.8180 H   0  0  0  0  0  0  0  0  0  0  0  0
   38.8360   23.3750   34.3500 N   0  0  0  0  0  0  0  0  0  0  0  0
   40.0610   22.8680   34.0700 C   0  0  0  0  0  0  0  0  0  0  0  0
   40.5110   22.7160   33.0870 H   0  0  0  0  0  0  0  0  0  0  0  0
   40.7220   22.5420   35.2000 N   0  0  0  0  0  0  0  0  0  0  0  0
   39.9140   22.8410   36.2510 C   0  0  0  0  0  0  0  0  0  0  0  0
   39.9990   22.7510   37.6320 C   0  0  0  0  0  0  0  0  0  0  0  0
   40.9120   22.3460   38.0600 H   0  0  0  0  0  0  0  0  0  0  0  0
   38.9510   23.1640   38.3950 N   0  0  0  0  0  0  0  0  0  0  0  0
   37.8250   23.6620   37.8590 C   0  0  0  0  0  0  0  0  0  0  0  0
   36.9840   23.9950   38.4600 H   0  0  0  0  0  0  0  0  0  0  0  0
   37.7810   23.7360   36.5120 N   0  0  0  0  0  0  0  0  0  0  0  0
   38.7580   23.3540   35.6950 C   0  0  0  0  0  0  0  0  0  0  0  0
   36.4900   26.9470   32.2570 O   0  0  0  0  0  0  0  0  0  0  0  0
   38.6050   27.8690   31.0910 O   0  0  0  0  0  0  0  0  0  0  0  0
   37.1290   28.0530   31.1820 P   0  0  1  0  0  0  0  0  0  0  0  0
   36.4180   27.6590   29.6780 O   0  0  0  0  0  0  0  0  0  0  0  0
   37.0950   27.2130   29.1110 H   0  0  0  0  0  0  0  0  0  0  0  0
   36.6530   29.6210   31.6320 O   0  0  0  0  0  0  0  0  0  0  0  0
   34.3550   30.5180   34.3720 C   0  0  0  0  0  0  0  0  0  0  0  0
   35.5580   30.0910   33.7990 C   0  0  0  0  0  0  0  0  0  0  0  0
   35.6130   30.0030   32.4000 C   0  0  0  0  0  0  0  0  0  0  0  0
   34.4990   30.3350   31.6820 N   0  0  0  0  0  0  0  0  0  0  0  0
   33.3680   30.7380   32.2830 C   0  0  0  0  0  0  0  0  0  0  0  0
   33.2880   30.8320   33.6200 N   0  0  0  0  0  0  0  0  0  0  0  0
   34.3710   30.5680   35.4680 H   0  0  0  0  0  0  0  0  0  0  0  0
   36.4520   29.8220   34.3040 H   0  0  0  0  0  0  0  0  0  0  0  0
   32.4780   31.0030   31.7210 H   0  0  0  0  0  0  0  0  0  0  0  0
  2  7  1  0  0  0  0
  2  1  1  0  0  0  0
  3  2  2  0  0  0  0
  4  5  2  0  0  0  0
  4  3  1  0  0  0  0
  5  6  1  0  0  0  0
  6 10  1  0  0  0  0
  6  7  2  0  0  0  0
  7 11  1  0  0  0  0
  8  4  1  0  0  0  0
  9  5  1  0  0  0  0
 11 22  1  0  0  0  0
 12 11  1  0  0  0  0
 12 14  2  0  0  0  0
 13 12  1  0  0  0  0
 14 15  1  0  0  0  0
 15 16  1  0  0  0  0
 16 17  1  0  0  0  0
 16 18  2  0  0  0  0
 19 18  1  0  0  0  0
 19 20  1  0  0  0  0
 21 19  2  0  0  0  0
 22 15  2  0  0  0  0
 22 21  1  0  0  0  0
 23  3  1  0  0  0  0
 25 24  2  6  0  0  0
 25 28  1  0  0  0  0
 25 23  1  0  0  0  0
 26 25  1  0  0  0  0
 27 26  1  0  0  0  0
 28 31  1  0  0  0  0
 29 35  1  0  0  0  0
 30 36  1  0  0  0  0
 30 29  1  0  0  0  0
 31 30  2  0  0  0  0
 32 33  2  0  0  0  0
 32 31  1  0  0  0  0
 33 34  1  0  0  0  0
 34 29  2  0  0  0  0
 37 33  1  0  0  0  0
M  END
>  <minimizedAffinity>
-5.86319399

$$$$

 OpenBabel03272508133D

 37 40  0  0  0  0  0  0  0  0999 V2000
   38.9970   26.5870   31.9140 Cl  0  0  0  0  0  0  0  0  0  0  0  0
   37.5470   25.6140   31.6220 C   0  0  0  0  0  0  0  0  0  0  0  0
   37.5110   24.2250   31.7450 C   0  0  0  0  0  0  0  0  0  0  0  0
   36.3150   23.5920   31.4870 C   0  0  0  0  0  0  0  0  0  0  0  0
   35.2020   24.3140   31.1220 C   0  0  0  0  0  0  0  0  0  0  0  0
   35.2220   25.6810   30.9970 C   0  0  0  0  0  0  0  0  0  0  0  0
   36.4030   26.3260   31.2500 C   0  0  0  0  0  0  0  0  0  0  0  0
   36.3830   22.5160   31.6070 H   0  0  0  0  0  0  0  0  0  0  0  0
   34.2930   23.7520   30.9340 H   0  0  0  0  0  0  0  0  0  0  0  0
   34.3190   26.2220   30.7050 H   0  0  0  0  0  0  0  0  0  0  0  0
   36.4070   27.7420   31.1160 N   0  0  0  0  0  0  0  0  0  0  0  0
   36.7300   28.4510   30.0070 C   0  0  0  0  0  0  0  0  0  0  0  0
   37.0410   28.0630   29.0350 H   0  0  0  0  0  0  0  0  0  0  0  0
   36.6260   29.7770   30.2290 N   0  0  0  0  0  0  0  0  0  0  0  0
   36.2240   29.9490   31.5170 C   0  0  0  0  0  0  0  0  0  0  0  0
   35.9400   31.0290   32.3380 C   0  0  0  0  0  0  0  0  0  0  0  0
   36.0430   32.0270   31.9190 H   0  0  0  0  0  0  0  0  0  0  0  0
   35.5490   30.8090   33.6220 N   0  0  0  0  0  0  0  0  0  0  0  0
   35.4250   29.5730   34.1330 C   0  0  0  0  0  0  0  0  0  0  0  0
   35.1130   29.3880   35.1560 H   0  0  0  0  0  0  0  0  0  0  0  0
   35.7080   28.5470   33.3020 N   0  0  0  0  0  0  0  0  0  0  0  0
   36.0960   28.6750   32.0370 C   0  0  0  0  0  0  0  0  0  0  0  0
   38.7160   23.7040   32.1150 O   0  0  0  0  0  0  0  0  0  0  0  0
   39.3130   21.5120   33.3500 O   0  0  0  0  0  0  0  0  0  0  0  0
   39.1730   22.9820   33.5500 P   0  0  1  0  0  0  0  0  0  0  0  0
   40.7060   23.6510   33.9050 O   0  0  0  0  0  0  0  0  0  0  0  0
   41.4010   22.9720   33.7240 H   0  0  0  0  0  0  0  0  0  0  0  0
   38.0780   23.4130   34.7750 O   0  0  0  0  0  0  0  0  0  0  0  0
   37.9380   24.1320   38.3880 C   0  0  0  0  0  0  0  0  0  0  0  0
   37.5170   24.1900   37.0550 C   0  0  0  0  0  0  0  0  0  0  0  0
   38.2850   23.5010   36.1050 C   0  0  0  0  0  0  0  0  0  0  0  0
   39.3900   22.8180   36.5290 N   0  0  0  0  0  0  0  0  0  0  0  0
   39.7490   22.7950   37.8230 C   0  0  0  0  0  0  0  0  0  0  0  0
   39.0320   23.4460   38.7540 N   0  0  0  0  0  0  0  0  0  0  0  0
   37.2990   24.6880   39.0860 H   0  0  0  0  0  0  0  0  0  0  0  0
   36.6720   24.7010   36.6680 H   0  0  0  0  0  0  0  0  0  0  0  0
   40.6250   22.2570   38.1700 H   0  0  0  0  0  0  0  0  0  0  0  0
  2  3  1  0  0  0  0
  2  1  1  0  0  0  0
  3 23  1  0  0  0  0
  4  8  1  0  0  0  0
  4  3  2  0  0  0  0
  5  4  1  0  0  0  0
  6  5  2  0  0  0  0
  6  7  1  0  0  0  0
  7  2  2  0  0  0  0
  9  5  1  0  0  0  0
 10  6  1  0  0  0  0
 11  7  1  0  0  0  0
 11 22  1  0  0  0  0
 12 14  2  0  0  0  0
 12 11  1  0  0  0  0
 13 12  1  0  0  0  0
 14 15  1  0  0  0  0
 15 22  2  0  0  0  0
 15 16  1  0  0  0  0
 16 18  2  0  0  0  0
 17 16  1  0  0  0  0
 18 19  1  0  0  0  0
 19 20  1  0  0  0  0
 21 19  2  0  0  0  0
 22 21  1  0  0  0  0
 23 25  1  0  0  0  0
 25 24  2  6  0  0  0
 25 26  1  0  0  0  0
 25 28  1  0  0  0  0
 27 26  1  0  0  0  0
 28 31  1  0  0  0  0
 29 34  1  0  0  0  0
 29 35  1  0  0  0  0
 30 29  2  0  0  0  0
 31 32  2  0  0  0  0
 31 30  1  0  0  0  0
 32 33  1  0  0  0  0
 33 37  1  0  0  0  0
 33 34  2  0  0  0  0
 36 30  1  0  0  0  0
M  END
>  <minimizedAffinity>
-5.82849741

$$$$

 OpenBabel03272508133D

 37 40  0  0  0  0  0  0  0  0999 V2000
   40.0320   25.6430   32.2000 Cl  0  0  0  0  0  0  0  0  0  0  0  0
   39.1610   26.4240   33.5300 C   0  0  0  0  0  0  0  0  0  0  0  0
   38.0200   27.2070   33.3510 C   0  0  0  0  0  0  0  0  0  0  0  0
   37.4410   27.7570   34.4740 C   0  0  0  0  0  0  0  0  0  0  0  0
   37.9770   27.5340   35.7210 C   0  0  0  0  0  0  0  0  0  0  0  0
   39.0980   26.7660   35.9120 C   0  0  0  0  0  0  0  0  0  0  0  0
   39.6860   26.2130   34.8070 C   0  0  0  0  0  0  0  0  0  0  0  0
   36.5630   28.3490   34.2380 H   0  0  0  0  0  0  0  0  0  0  0  0
   37.4700   27.9980   36.5620 H   0  0  0  0  0  0  0  0  0  0  0  0
   39.4960   26.6110   36.9170 H   0  0  0  0  0  0  0  0  0  0  0  0
   40.8480   25.4190   35.0220 N   0  0  0  0  0  0  0  0  0  0  0  0
   42.1330   25.7840   34.7980 C   0  0  0  0  0  0  0  0  0  0  0  0
   42.4970   26.7410   34.4160 H   0  0  0  0  0  0  0  0  0  0  0  0
   42.9850   24.7870   35.1110 N   0  0  0  0  0  0  0  0  0  0  0  0
   42.2440   23.7360   35.5530 C   0  0  0  0  0  0  0  0  0  0  0  0
   42.5050   22.4550   36.0140 C   0  0  0  0  0  0  0  0  0  0  0  0
   43.5420   22.1340   36.0620 H   0  0  0  0  0  0  0  0  0  0  0  0
   41.4700   21.6530   36.3850 N   0  0  0  0  0  0  0  0  0  0  0  0
   40.1910   22.0580   36.3220 C   0  0  0  0  0  0  0  0  0  0  0  0
   39.3590   21.4250   36.6160 H   0  0  0  0  0  0  0  0  0  0  0  0
   39.9770   23.3110   35.8700 N   0  0  0  0  0  0  0  0  0  0  0  0
   40.9290   24.1570   35.4880 C   0  0  0  0  0  0  0  0  0  0  0  0
   37.6540   27.3030   32.0400 O   0  0  0  0  0  0  0  0  0  0  0  0
   35.2670   28.2840   31.8820 O   0  0  0  0  0  0  0  0  0  0  0  0
   36.1390   27.2020   31.3450 P   0  0  1  0  0  0  0  0  0  0  0  0
   36.4080   27.4690   29.6770 O   0  0  0  0  0  0  0  0  0  0  0  0
   36.0920   28.3770   29.4440 H   0  0  0  0  0  0  0  0  0  0  0  0
   35.5170   25.6370   31.5660 O   0  0  0  0  0  0  0  0  0  0  0  0
   36.4390   22.0770   31.2940 C   0  0  0  0  0  0  0  0  0  0  0  0
   35.6480   23.1690   31.6680 C   0  0  0  0  0  0  0  0  0  0  0  0
   36.1040   24.4480   31.3160 C   0  0  0  0  0  0  0  0  0  0  0  0
   37.2830   24.5560   30.6350 N   0  0  0  0  0  0  0  0  0  0  0  0
   38.0050   23.4740   30.3010 C   0  0  0  0  0  0  0  0  0  0  0  0
   37.5920   22.2370   30.6250 N   0  0  0  0  0  0  0  0  0  0  0  0
   36.0330   21.1030   31.5950 H   0  0  0  0  0  0  0  0  0  0  0  0
   34.7270   23.1470   32.1950 H   0  0  0  0  0  0  0  0  0  0  0  0
   38.9420   23.5490   29.7610 H   0  0  0  0  0  0  0  0  0  0  0  0
  1  2  1  0  0  0  0
  2  7  1  0  0  0  0
  3  2  2  0  0  0  0
  3  4  1  0  0  0  0
  4  5  2  0  0  0  0
  5  6  1  0  0  0  0
  5  9  1  0  0  0  0
  6 10  1  0  0  0  0
  7 11  1  0  0  0  0
  7  6  2  0  0  0  0
  8  4  1  0  0  0  0
 11 22  1  0  0  0  0
 12 11  1  0  0  0  0
 12 14  2  0  0  0  0
 13 12  1  0  0  0  0
 14 15  1  0  0  0  0
 15 16  1  0  0  0  0
 16 17  1  0  0  0  0
 16 18  2  0  0  0  0
 19 18  1  0  0  0  0
 19 20  1  0  0  0  0
 21 19  2  0  0  0  0
 22 15  2  0  0  0  0
 22 21  1  0  0  0  0
 23  3  1  0  0  0  0
 25 28  1  0  0  0  0
 25 24  2  1  0  0  0
 25 23  1  0  0  0  0
 26 25  1  0  0  0  0
 27 26  1  0  0  0  0
 29 35  1  0  0  0  0
 29 30  1  0  0  0  0
 30 36  1  0  0  0  0
 31 28  1  0  0  0  0
 31 30  2  0  0  0  0
 32 31  1  0  0  0  0
 33 34  1  0  0  0  0
 33 32  2  0  0  0  0
 34 29  2  0  0  0  0
 37 33  1  0  0  0  0
M  END
>  <minimizedAffinity>
-5.70645618

$$$$

 OpenBabel03272508133D

 37 40  0  0  0  0  0  0  0  0999 V2000
   36.0510   26.6470   30.9570 Cl  0  0  0  0  0  0  0  0  0  0  0  0
   36.5980   26.8670   32.6270 C   0  0  0  0  0  0  0  0  0  0  0  0
   37.1640   25.8490   33.3940 C   0  0  0  0  0  0  0  0  0  0  0  0
   37.5460   26.1570   34.6820 C   0  0  0  0  0  0  0  0  0  0  0  0
   37.3720   27.4270   35.1810 C   0  0  0  0  0  0  0  0  0  0  0  0
   36.8170   28.4380   34.4380 C   0  0  0  0  0  0  0  0  0  0  0  0
   36.4310   28.1490   33.1570 C   0  0  0  0  0  0  0  0  0  0  0  0
   37.9730   25.3050   35.2010 H   0  0  0  0  0  0  0  0  0  0  0  0
   37.6950   27.6000   36.2030 H   0  0  0  0  0  0  0  0  0  0  0  0
   36.6930   29.4350   34.8680 H   0  0  0  0  0  0  0  0  0  0  0  0
   35.8580   29.2090   32.3990 N   0  0  0  0  0  0  0  0  0  0  0  0
   36.5020   30.0290   31.5360 C   0  0  0  0  0  0  0  0  0  0  0  0
   37.5630   30.0220   31.2740 H   0  0  0  0  0  0  0  0  0  0  0  0
   35.6540   30.9240   30.9880 N   0  0  0  0  0  0  0  0  0  0  0  0
   34.4180   30.6880   31.5030 C   0  0  0  0  0  0  0  0  0  0  0  0
   33.1540   31.2370   31.3550 C   0  0  0  0  0  0  0  0  0  0  0  0
   33.0400   32.0730   30.6710 H   0  0  0  0  0  0  0  0  0  0  0  0
   32.1120   30.7180   32.0600 N   0  0  0  0  0  0  0  0  0  0  0  0
   32.2610   29.6840   32.9040 C   0  0  0  0  0  0  0  0  0  0  0  0
   31.4350   29.2640   33.4700 H   0  0  0  0  0  0  0  0  0  0  0  0
   33.5060   29.1760   33.0200 N   0  0  0  0  0  0  0  0  0  0  0  0
   34.5760   29.6230   32.3700 C   0  0  0  0  0  0  0  0  0  0  0  0
   37.2470   24.6680   32.7150 O   0  0  0  0  0  0  0  0  0  0  0  0
   38.0210   22.3290   31.9330 O   0  0  0  0  0  0  0  0  0  0  0  0
   38.1380   23.2990   33.0580 P   0  0  1  0  0  0  0  0  0  0  0  0
   39.7550   23.8470   33.1640 O   0  0  0  0  0  0  0  0  0  0  0  0
   40.2430   23.5610   32.3530 H   0  0  0  0  0  0  0  0  0  0  0  0
   37.6600   22.6740   34.5640 O   0  0  0  0  0  0  0  0  0  0  0  0
   38.5960   23.3320   38.0690 C   0  0  0  0  0  0  0  0  0  0  0  0
   37.7610   23.3320   36.9460 C   0  0  0  0  0  0  0  0  0  0  0  0
   38.2730   22.7840   35.7610 C   0  0  0  0  0  0  0  0  0  0  0  0
   39.5460   22.2870   35.7680 N   0  0  0  0  0  0  0  0  0  0  0  0
   40.3060   22.3130   36.8750 C   0  0  0  0  0  0  0  0  0  0  0  0
   39.8410   22.8320   38.0230 N   0  0  0  0  0  0  0  0  0  0  0  0
   38.1430   23.7720   38.9660 H   0  0  0  0  0  0  0  0  0  0  0  0
   36.7680   23.7010   36.8810 H   0  0  0  0  0  0  0  0  0  0  0  0
   41.3170   21.9220   36.8900 H   0  0  0  0  0  0  0  0  0  0  0  0
  1  2  1  0  0  0  0
  2  7  2  0  0  0  0
  2  3  1  0  0  0  0
  3  4  2  0  0  0  0
  4  5  1  0  0  0  0
  4  8  1  0  0  0  0
  5  9  1  0  0  0  0
  6 10  1  0  0  0  0
  6  5  2  0  0  0  0
  7  6  1  0  0  0  0
 11  7  1  0  0  0  0
 12 11  1  0  0  0  0
 13 12  1  0  0  0  0
 14 15  1  0  0  0  0
 14 12  2  0  0  0  0
 15 22  1  0  0  0  0
 16 15  2  0  0  0  0
 16 18  1  0  0  0  0
 17 16  1  0  0  0  0
 18 19  2  0  0  0  0
 19 21  1  0  0  0  0
 19 20  1  0  0  0  0
 22 11  1  0  0  0  0
 22 21  2  0  0  0  0
 23 25  1  0  0  0  0
 23  3  1  0  0  0  0
 25 24  2  6  0  0  0
 25 26  1  0  0  0  0
 25 28  1  0  0  0  0
 27 26  1  0  0  0  0
 28 31  1  0  0  0  0
 29 35  1  0  0  0  0
 30 29  2  0  0  0  0
 31 32  2  0  0  0  0
 31 30  1  0  0  0  0
 32 33  1  0  0  0  0
 33 37  1  0  0  0  0
 33 34  2  0  0  0  0
 34 29  1  0  0  0  0
 36 30  1  0  0  0  0
M  END
>  <minimizedAffinity>
-5.65665674

$$$$

 OpenBabel03272508133D

 37 40  0  0  0  0  0  0  0  0999 V2000
   36.9150   24.8500   32.5970 Cl  0  0  0  0  0  0  0  0  0  0  0  0
   37.5010   25.7010   34.0350 C   0  0  0  0  0  0  0  0  0  0  0  0
   37.9590   25.0540   35.1820 C   0  0  0  0  0  0  0  0  0  0  0  0
   38.3860   25.8390   36.2310 C   0  0  0  0  0  0  0  0  0  0  0  0
   38.3580   27.2110   36.1380 C   0  0  0  0  0  0  0  0  0  0  0  0
   37.9110   27.8620   35.0150 C   0  0  0  0  0  0  0  0  0  0  0  0
   37.4820   27.0960   33.9640 C   0  0  0  0  0  0  0  0  0  0  0  0
   38.7220   25.2500   37.0780 H   0  0  0  0  0  0  0  0  0  0  0  0
   38.7090   27.7690   37.0000 H   0  0  0  0  0  0  0  0  0  0  0  0
   37.9020   28.9530   34.9760 H   0  0  0  0  0  0  0  0  0  0  0  0
   37.0210   27.7860   32.8080 N   0  0  0  0  0  0  0  0  0  0  0  0
   35.8140   28.3770   32.6440 C   0  0  0  0  0  0  0  0  0  0  0  0
   34.9920   28.4260   33.3620 H   0  0  0  0  0  0  0  0  0  0  0  0
   35.7090   28.9420   31.4230 N   0  0  0  0  0  0  0  0  0  0  0  0
   36.8770   28.7180   30.7640 C   0  0  0  0  0  0  0  0  0  0  0  0
   37.3940   29.0270   29.5160 C   0  0  0  0  0  0  0  0  0  0  0  0
   36.7650   29.5900   28.8310 H   0  0  0  0  0  0  0  0  0  0  0  0
   38.6520   28.6220   29.1930 N   0  0  0  0  0  0  0  0  0  0  0  0
   39.4230   27.9270   30.0450 C   0  0  0  0  0  0  0  0  0  0  0  0
   40.4280   27.6000   29.7970 H   0  0  0  0  0  0  0  0  0  0  0  0
   38.8860   27.6460   31.2510 N   0  0  0  0  0  0  0  0  0  0  0  0
   37.6670   28.0030   31.6450 C   0  0  0  0  0  0  0  0  0  0  0  0
   37.9030   23.6950   35.0720 O   0  0  0  0  0  0  0  0  0  0  0  0
   40.4090   23.3000   34.5680 O   0  0  0  0  0  0  0  0  0  0  0  0
   39.1400   22.5870   34.8890 P   0  0  1  0  0  0  0  0  0  0  0  0
   39.2850   21.8410   36.4220 O   0  0  0  0  0  0  0  0  0  0  0  0
   40.0990   22.1820   36.8680 H   0  0  0  0  0  0  0  0  0  0  0  0
   38.6910   21.4200   33.7400 O   0  0  0  0  0  0  0  0  0  0  0  0
   35.1920   20.9150   32.6930 C   0  0  0  0  0  0  0  0  0  0  0  0
   36.2590   20.9960   33.5950 C   0  0  0  0  0  0  0  0  0  0  0  0
   37.5260   21.2920   33.0720 C   0  0  0  0  0  0  0  0  0  0  0  0
   37.6470   21.4840   31.7250 N   0  0  0  0  0  0  0  0  0  0  0  0
   36.5890   21.3940   30.9030 C   0  0  0  0  0  0  0  0  0  0  0  0
   35.3650   21.1120   31.3760 N   0  0  0  0  0  0  0  0  0  0  0  0
   34.2260   20.6810   33.1580 H   0  0  0  0  0  0  0  0  0  0  0  0
   36.2250   20.8570   34.6470 H   0  0  0  0  0  0  0  0  0  0  0  0
   36.6750   21.5440   29.8320 H   0  0  0  0  0  0  0  0  0  0  0  0
  1  2  1  0  0  0  0
  2  3  1  0  0  0  0
  3  4  2  0  0  0  0
  4  8  1  0  0  0  0
  5  4  1  0  0  0  0
  5  9  1  0  0  0  0
  6  5  2  0  0  0  0
  7  2  2  0  0  0  0
  7  6  1  0  0  0  0
 10  6  1  0  0  0  0
 11  7  1  0  0  0  0
 12 11  1  0  0  0  0
 12 13  1  0  0  0  0
 14 12  2  0  0  0  0
 15 14  1  0  0  0  0
 15 22  1  0  0  0  0
 16 15  2  0  0  0  0
 17 16  1  0  0  0  0
 18 16  1  0  0  0  0
 18 19  2  0  0  0  0
 19 21  1  0  0  0  0
 20 19  1  0  0  0  0
 21 22  2  0  0  0  0
 22 11  1  0  0  0  0
 23  3  1  0  0  0  0
 25 24  2  6  0  0  0
 25 23  1  0  0  0  0
 25 26  1  0  0  0  0
 26 27  1  0  0  0  0
 28 25  1  0  0  0  0
 29 35  1  0  0  0  0
 29 30  1  0  0  0  0
 30 36  1  0  0  0  0
 31 30  2  0  0  0  0
 31 28  1  0  0  0  0
 32 31  1  0  0  0  0
 33 34  1  0  0  0  0
 33 32  2  0  0  0  0
 34 29  2  0  0  0  0
 37 33  1  0  0  0  0
M  END
>  <minimizedAffinity>
-5.62892771

$$$$

 OpenBabel03272508133D

 37 40  0  0  0  0  0  0  0  0999 V2000
   36.5420   25.4180   32.2970 Cl  0  0  0  0  0  0  0  0  0  0  0  0
   37.3130   25.9490   33.8000 C   0  0  0  0  0  0  0  0  0  0  0  0
   37.9100   25.0780   34.7110 C   0  0  0  0  0  0  0  0  0  0  0  0
   38.4740   25.6250   35.8430 C   0  0  0  0  0  0  0  0  0  0  0  0
   38.4430   26.9840   36.0560 C   0  0  0  0  0  0  0  0  0  0  0  0
   37.8590   27.8530   35.1690 C   0  0  0  0  0  0  0  0  0  0  0  0
   37.2940   27.3250   34.0390 C   0  0  0  0  0  0  0  0  0  0  0  0
   38.9120   24.8730   36.4910 H   0  0  0  0  0  0  0  0  0  0  0  0
   38.9050   27.3480   36.9680 H   0  0  0  0  0  0  0  0  0  0  0  0
   37.8520   28.9260   35.3710 H   0  0  0  0  0  0  0  0  0  0  0  0
   36.6930   28.2400   33.1290 N   0  0  0  0  0  0  0  0  0  0  0  0
   37.1250   28.5460   31.8820 C   0  0  0  0  0  0  0  0  0  0  0  0
   38.0010   28.1490   31.3640 H   0  0  0  0  0  0  0  0  0  0  0  0
   36.3170   29.4520   31.2950 N   0  0  0  0  0  0  0  0  0  0  0  0
   35.3260   29.7530   32.1760 C   0  0  0  0  0  0  0  0  0  0  0  0
   34.2160   30.5830   32.1850 C   0  0  0  0  0  0  0  0  0  0  0  0
   34.0210   31.1800   31.2980 H   0  0  0  0  0  0  0  0  0  0  0  0
   33.4200   30.6240   33.2870 N   0  0  0  0  0  0  0  0  0  0  0  0
   33.6680   29.8840   34.3800 C   0  0  0  0  0  0  0  0  0  0  0  0
   33.0370   29.9100   35.2640 H   0  0  0  0  0  0  0  0  0  0  0  0
   34.7560   29.0870   34.3330 N   0  0  0  0  0  0  0  0  0  0  0  0
   35.5850   28.9880   33.2980 C   0  0  0  0  0  0  0  0  0  0  0  0
   37.8330   23.7750   34.3130 O   0  0  0  0  0  0  0  0  0  0  0  0
   40.2830   23.0480   34.7050 O   0  0  0  0  0  0  0  0  0  0  0  0
   38.8980   22.5150   34.5710 P   0  0  1  0  0  0  0  0  0  0  0  0
   38.4110   21.8310   36.0600 O   0  0  0  0  0  0  0  0  0  0  0  0
   39.0620   22.0890   36.7590 H   0  0  0  0  0  0  0  0  0  0  0  0
   38.7170   21.3580   33.3390 O   0  0  0  0  0  0  0  0  0  0  0  0
   36.1590   20.2960   30.9060 C   0  0  0  0  0  0  0  0  0  0  0  0
   37.4330   20.6850   31.3360 C   0  0  0  0  0  0  0  0  0  0  0  0
   37.5950   20.9690   32.7000 C   0  0  0  0  0  0  0  0  0  0  0  0
   36.5110   20.8530   33.5240 N   0  0  0  0  0  0  0  0  0  0  0  0
   35.3100   20.4760   33.0590 C   0  0  0  0  0  0  0  0  0  0  0  0
   35.1260   20.1970   31.7580 N   0  0  0  0  0  0  0  0  0  0  0  0
   36.0910   20.0860   29.8310 H   0  0  0  0  0  0  0  0  0  0  0  0
   38.3070   20.7920   30.7450 H   0  0  0  0  0  0  0  0  0  0  0  0
   34.4440   20.3810   33.7050 H   0  0  0  0  0  0  0  0  0  0  0  0
  1  2  1  0  0  0  0
  2  7  2  0  0  0  0
  2  3  1  0  0  0  0
  3  4  2  0  0  0  0
  4  5  1  0  0  0  0
  4  8  1  0  0  0  0
  5  9  1  0  0  0  0
  6 10  1  0  0  0  0
  6  5  2  0  0  0  0
  7  6  1  0  0  0  0
 11 22  1  0  0  0  0
 11  7  1  0  0  0  0
 12 11  1  0  0  0  0
 13 12  1  0  0  0  0
 14 12  2  0  0  0  0
 14 15  1  0  0  0  0
 15 16  2  0  0  0  0
 15 22  1  0  0  0  0
 16 18  1  0  0  0  0
 17 16  1  0  0  0  0
 18 19  2  0  0  0  0
 19 20  1  0  0  0  0
 21 19  1  0  0  0  0
 22 21  2  0  0  0  0
 23 25  1  0  0  0  0
 23  3  1  0  0  0  0
 25 24  2  1  0  0  0
 25 26  1  0  0  0  0
 26 27  1  0  0  0  0
 28 25  1  0  0  0  0
 29 30  2  0  0  0  0
 29 34  1  0  0  0  0
 30 31  1  0  0  0  0
 31 28  1  0  0  0  0
 31 32  2  0  0  0  0
 33 32  1  0  0  0  0
 33 37  1  0  0  0  0
 34 33  2  0  0  0  0
 35 29  1  0  0  0  0
 36 30  1  0  0  0  0
M  END
>  <minimizedAffinity>
-5.62890148

$$$$

 OpenBabel03272508133D

 37 40  0  0  0  0  0  0  0  0999 V2000
   39.8070   24.6080   32.3220 Cl  0  0  0  0  0  0  0  0  0  0  0  0
   38.9080   25.6200   33.4630 C   0  0  0  0  0  0  0  0  0  0  0  0
   37.6880   26.2260   33.1630 C   0  0  0  0  0  0  0  0  0  0  0  0
   37.0950   26.9890   34.1450 C   0  0  0  0  0  0  0  0  0  0  0  0
   37.6940   27.1400   35.3740 C   0  0  0  0  0  0  0  0  0  0  0  0
   38.8940   26.5500   35.6840 C   0  0  0  0  0  0  0  0  0  0  0  0
   39.4960   25.7880   34.7190 C   0  0  0  0  0  0  0  0  0  0  0  0
   36.1530   27.4200   33.8210 H   0  0  0  0  0  0  0  0  0  0  0  0
   37.1720   27.7550   36.1020 H   0  0  0  0  0  0  0  0  0  0  0  0
   39.3400   26.6920   36.6710 H   0  0  0  0  0  0  0  0  0  0  0  0
   40.7390   25.1830   35.0570 N   0  0  0  0  0  0  0  0  0  0  0  0
   41.9760   25.6800   34.8120 C   0  0  0  0  0  0  0  0  0  0  0  0
   42.2310   26.6200   34.3180 H   0  0  0  0  0  0  0  0  0  0  0  0
   42.9340   24.8470   35.2670 N   0  0  0  0  0  0  0  0  0  0  0  0
   42.3150   23.7730   35.8260 C   0  0  0  0  0  0  0  0  0  0  0  0
   42.7180   22.6030   36.4520 C   0  0  0  0  0  0  0  0  0  0  0  0
   43.7840   22.4260   36.5610 H   0  0  0  0  0  0  0  0  0  0  0  0
   41.7780   21.7280   36.9020 N   0  0  0  0  0  0  0  0  0  0  0  0
   40.4620   21.9540   36.7630 C   0  0  0  0  0  0  0  0  0  0  0  0
   39.7050   21.2610   37.1200 H   0  0  0  0  0  0  0  0  0  0  0  0
   40.1100   23.1030   36.1500 N   0  0  0  0  0  0  0  0  0  0  0  0
   40.9610   24.0100   35.6820 C   0  0  0  0  0  0  0  0  0  0  0  0
   37.2690   25.9520   31.8940 O   0  0  0  0  0  0  0  0  0  0  0  0
   35.1630   24.9230   30.8020 O   0  0  0  0  0  0  0  0  0  0  0  0
   36.5310   24.5830   31.2850 P   0  0  1  0  0  0  0  0  0  0  0  0
   37.5000   24.1220   29.9530 O   0  0  0  0  0  0  0  0  0  0  0  0
   37.0240   24.3500   29.1170 H   0  0  0  0  0  0  0  0  0  0  0  0
   36.5670   23.3520   32.4550 O   0  0  0  0  0  0  0  0  0  0  0  0
   35.5190   19.8470   32.9140 C   0  0  0  0  0  0  0  0  0  0  0  0
   35.7650   21.1700   33.2990 C   0  0  0  0  0  0  0  0  0  0  0  0
   36.2580   22.0450   32.3200 C   0  0  0  0  0  0  0  0  0  0  0  0
   36.4690   21.5630   31.0590 N   0  0  0  0  0  0  0  0  0  0  0  0
   36.2150   20.2830   30.7440 C   0  0  0  0  0  0  0  0  0  0  0  0
   35.7430   19.4230   31.6600 N   0  0  0  0  0  0  0  0  0  0  0  0
   35.1340   19.2080   33.7200 H   0  0  0  0  0  0  0  0  0  0  0  0
   35.6210   21.5990   34.2590 H   0  0  0  0  0  0  0  0  0  0  0  0
   36.3800   19.8910   29.7460 H   0  0  0  0  0  0  0  0  0  0  0  0
  1  2  1  0  0  0  0
  2  7  1  0  0  0  0
  3  2  2  0  0  0  0
  3  4  1  0  0  0  0
  4  5  2  0  0  0  0
  5  6  1  0  0  0  0
  5  9  1  0  0  0  0
  6 10  1  0  0  0  0
  7 11  1  0  0  0  0
  7  6  2  0  0  0  0
  8  4  1  0  0  0  0
 11 22  1  0  0  0  0
 12 11  1  0  0  0  0
 12 14  2  0  0  0  0
 13 12  1  0  0  0  0
 14 15  1  0  0  0  0
 15 16  1  0  0  0  0
 16 17  1  0  0  0  0
 16 18  2  0  0  0  0
 19 18  1  0  0  0  0
 19 20  1  0  0  0  0
 21 19  2  0  0  0  0
 22 15  2  0  0  0  0
 22 21  1  0  0  0  0
 23  3  1  0  0  0  0
 25 24  2  6  0  0  0
 25 23  1  0  0  0  0
 25 28  1  0  0  0  0
 26 25  1  0  0  0  0
 27 26  1  0  0  0  0
 29 30  1  0  0  0  0
 29 35  1  0  0  0  0
 30 36  1  0  0  0  0
 31 28  1  0  0  0  0
 31 30  2  0  0  0  0
 32 31  1  0  0  0  0
 33 32  2  0  0  0  0
 33 34  1  0  0  0  0
 34 29  2  0  0  0  0
 37 33  1  0  0  0  0
M  END
>  <minimizedAffinity>
-5.61235332

$$$$
