
 OpenBabel03272508113D

 37 40  0  0  0  0  0  0  0  0999 V2000
   36.7140   29.5210   44.1910 Cl  0  0  0  0  0  0  0  0  0  0  0  0
   38.3510   29.8690   43.6130 C   0  0  0  0  0  0  0  0  0  0  0  0
   39.3690   30.3650   44.4270 C   0  0  0  0  0  0  0  0  0  0  0  0
   40.5980   30.5920   43.8470 C   0  0  0  0  0  0  0  0  0  0  0  0
   40.8020   30.3350   42.5120 C   0  0  0  0  0  0  0  0  0  0  0  0
   39.8110   29.8470   41.6980 C   0  0  0  0  0  0  0  0  0  0  0  0
   38.5830   29.6160   42.2590 C   0  0  0  0  0  0  0  0  0  0  0  0
   41.3240   30.9770   44.5560 H   0  0  0  0  0  0  0  0  0  0  0  0
   41.7940   30.5370   42.1190 H   0  0  0  0  0  0  0  0  0  0  0  0
   40.0080   29.6550   40.6410 H   0  0  0  0  0  0  0  0  0  0  0  0
   37.5660   29.1100   41.4010 N   0  0  0  0  0  0  0  0  0  0  0  0
   37.3450   27.8110   41.0820 C   0  0  0  0  0  0  0  0  0  0  0  0
   37.9040   26.9370   41.4250 H   0  0  0  0  0  0  0  0  0  0  0  0
   36.2980   27.6870   40.2430 N   0  0  0  0  0  0  0  0  0  0  0  0
   35.8140   28.9340   40.0000 C   0  0  0  0  0  0  0  0  0  0  0  0
   34.7840   29.4760   39.2480 C   0  0  0  0  0  0  0  0  0  0  0  0
   34.1580   28.7950   38.6780 H   0  0  0  0  0  0  0  0  0  0  0  0
   34.5920   30.8240   39.2460 N   0  0  0  0  0  0  0  0  0  0  0  0
   35.3700   31.6600   39.9530 C   0  0  0  0  0  0  0  0  0  0  0  0
   35.2250   32.7360   39.9590 H   0  0  0  0  0  0  0  0  0  0  0  0
   36.3630   31.0940   40.6730 N   0  0  0  0  0  0  0  0  0  0  0  0
   36.6180   29.7910   40.7290 C   0  0  0  0  0  0  0  0  0  0  0  0
   38.9610   30.5510   45.7160 O   0  0  0  0  0  0  0  0  0  0  0  0
   39.5000   32.6290   47.1570 O   0  0  0  0  0  0  0  0  0  0  0  0
   38.3820   31.9270   46.4650 P   0  0  1  0  0  0  0  0  0  0  0  0
   37.8050   32.9070   45.1880 O   0  0  0  0  0  0  0  0  0  0  0  0
   38.4410   33.6510   45.0430 H   0  0  0  0  0  0  0  0  0  0  0  0
   37.0860   31.5160   47.4840 O   0  0  0  0  0  0  0  0  0  0  0  0
   37.6240   30.5110   50.9900 C   0  0  0  0  0  0  0  0  0  0  0  0
   37.7370   31.3320   49.8620 C   0  0  0  0  0  0  0  0  0  0  0  0
   37.1130   30.8990   48.6830 C   0  0  0  0  0  0  0  0  0  0  0  0
   36.4370   29.7120   48.7000 N   0  0  0  0  0  0  0  0  0  0  0  0
   36.3590   28.9620   49.8110 C   0  0  0  0  0  0  0  0  0  0  0  0
   36.9460   29.3520   50.9540 N   0  0  0  0  0  0  0  0  0  0  0  0
   38.1310   30.8990   51.8820 H   0  0  0  0  0  0  0  0  0  0  0  0
   38.2470   32.2600   49.7900 H   0  0  0  0  0  0  0  0  0  0  0  0
   35.8250   28.0180   49.8340 H   0  0  0  0  0  0  0  0  0  0  0  0
  2  1  1  0  0  0  0
  2  3  1  0  0  0  0
  3 23  1  0  0  0  0
  4  3  2  0  0  0  0
  4  8  1  0  0  0  0
  5  4  1  0  0  0  0
  6  7  1  0  0  0  0
  6  5  2  0  0  0  0
  7  2  2  0  0  0  0
  9  5  1  0  0  0  0
 10  6  1  0  0  0  0
 11  7  1  0  0  0  0
 12 11  1  0  0  0  0
 12 13  1  0  0  0  0
 14 12  2  0  0  0  0
 15 14  1  0  0  0  0
 15 22  1  0  0  0  0
 16 15  2  0  0  0  0
 17 16  1  0  0  0  0
 18 16  1  0  0  0  0
 18 19  2  0  0  0  0
 19 20  1  0  0  0  0
 19 21  1  0  0  0  0
 21 22  2  0  0  0  0
 22 11  1  0  0  0  0
 23 25  1  0  0  0  0
 25 24  2  1  0  0  0
 25 28  1  0  0  0  0
 26 25  1  0  0  0  0
 27 26  1  0  0  0  0
 28 31  1  0  0  0  0
 29 35  1  0  0  0  0
 30 29  2  0  0  0  0
 31 32  2  0  0  0  0
 31 30  1  0  0  0  0
 32 33  1  0  0  0  0
 33 37  1  0  0  0  0
 33 34  2  0  0  0  0
 34 29  1  0  0  0  0
 36 30  1  0  0  0  0
M  END
>  <minimizedAffinity>
-4.90247107

>  <minimizedRMSD>
0.160037369

$$$$
