
 OpenBabel03272506233D

 34 37  0  0  0  0  0  0  0  0999 V2000
   37.0280   29.7470   43.4330 C   0  0  0  0  0  0  0  0  0  0  0  0
   37.3210   29.1970   42.2120 C   0  0  0  0  0  0  0  0  0  0  0  0
   38.5770   28.7830   41.8180 C   0  0  0  0  0  0  0  0  0  0  0  0
   39.6480   28.9370   42.7400 C   0  0  0  0  0  0  0  0  0  0  0  0
   39.3490   29.4930   43.9730 C   0  0  0  0  0  0  0  0  0  0  0  0
   38.0830   29.8950   44.3360 C   0  0  0  0  0  0  0  0  0  0  0  0
   36.5570   29.0480   41.4590 H   0  0  0  0  0  0  0  0  0  0  0  0
   38.7760   28.3520   40.8470 H   0  0  0  0  0  0  0  0  0  0  0  0
   40.6290   28.6200   42.4490 H   0  0  0  0  0  0  0  0  0  0  0  0
   40.1540   29.6210   44.6970 H   0  0  0  0  0  0  0  0  0  0  0  0
   37.7600   30.4670   45.5930 N   0  0  0  0  0  0  0  0  0  0  0  0
   36.7840   30.2050   46.5080 C   0  0  0  0  0  0  0  0  0  0  0  0
   36.0680   29.3990   46.2880 H   0  0  0  0  0  0  0  0  0  0  0  0
   36.9070   31.0420   47.5580 N   0  0  0  0  0  0  0  0  0  0  0  0
   37.9730   31.8590   47.3320 C   0  0  0  0  0  0  0  0  0  0  0  0
   38.4670   32.8630   48.1340 C   0  0  0  0  0  0  0  0  0  0  0  0
   37.9870   33.0770   49.0790 H   0  0  0  0  0  0  0  0  0  0  0  0
   39.5520   33.5100   47.6320 N   0  0  0  0  0  0  0  0  0  0  0  0
   40.0670   33.1520   46.4300 C   0  0  0  0  0  0  0  0  0  0  0  0
   40.9440   33.7340   46.1130 H   0  0  0  0  0  0  0  0  0  0  0  0
   39.5850   32.1710   45.6470 N   0  0  0  0  0  0  0  0  0  0  0  0
   38.5080   31.4950   46.0940 C   0  0  0  0  0  0  0  0  0  0  0  0
   34.7920   29.1160   44.2100 C   0  0  0  0  0  0  0  0  0  0  0  0
   35.6520   30.1210   43.6710 C   0  0  0  0  0  0  0  0  0  0  0  0
   35.0930   31.3720   43.4230 C   0  0  0  0  0  0  0  0  0  0  0  0
   33.7780   31.5650   43.7030 N   0  0  0  0  0  0  0  0  0  0  0  0
   32.9820   30.5870   44.2160 C   0  0  0  0  0  0  0  0  0  0  0  0
   33.5050   29.3550   44.4690 N   0  0  0  0  0  0  0  0  0  0  0  0
   35.1640   28.1220   44.4260 H   0  0  0  0  0  0  0  0  0  0  0  0
   31.9540   30.8740   44.3920 H   0  0  0  0  0  0  0  0  0  0  0  0
   35.8590   32.4970   42.8710 C   0  0  0  0  0  0  0  0  0  0  0  0
   35.0340   33.6360   42.7690 F   0  0  0  0  0  0  0  0  0  0  0  0
   36.9950   32.8530   43.5190 F   0  0  0  0  0  0  0  0  0  0  0  0
   36.1890   32.2510   41.5310 F   0  0  0  0  0  0  0  0  0  0  0  0
  1 24  1  0  0  0  0
  1  6  1  0  0  0  0
  2  1  2  0  0  0  0
  3  2  1  0  0  0  0
  3  4  2  0  0  0  0
  4  5  1  0  0  0  0
  5  6  2  0  0  0  0
  5 10  1  0  0  0  0
  6 11  1  0  0  0  0
  7  2  1  0  0  0  0
  8  3  1  0  0  0  0
  9  4  1  0  0  0  0
 11 22  1  0  0  0  0
 11 12  1  0  0  0  0
 12 14  2  0  0  0  0
 13 12  1  0  0  0  0
 15 14  1  0  0  0  0
 15 16  1  0  0  0  0
 16 17  1  0  0  0  0
 18 16  2  0  0  0  0
 19 18  1  0  0  0  0
 20 19  1  0  0  0  0
 21 22  1  0  0  0  0
 21 19  2  0  0  0  0
 22 15  2  0  0  0  0
 23 29  1  0  0  0  0
 23 28  1  0  0  0  0
 24 23  2  0  0  0  0
 25 24  1  0  0  0  0
 25 26  2  0  0  0  0
 26 27  1  0  0  0  0
 27 30  1  0  0  0  0
 27 28  2  0  0  0  0
 31 25  1  0  0  0  0
 31 33  1  0  0  0  0
 32 31  1  0  0  0  0
 34 31  1  0  0  0  0
M  END
>  <minimizedAffinity>
-3.95107889

>  <minimizedRMSD>
5.79447174

$$$$
