
 OpenBabel03272509193D

 36 39  0  0  0  0  0  0  0  0999 V2000
   38.0650   31.4070   47.8120 C   0  0  0  0  0  0  0  0  0  0  0  0
   37.0570   31.3590   48.7700 C   0  0  0  0  0  0  0  0  0  0  0  0
   37.0550   32.4330   49.6740 C   0  0  0  0  0  0  0  0  0  0  0  0
   38.0150   33.4590   49.5840 C   0  0  0  0  0  0  0  0  0  0  0  0
   38.9910   33.4080   48.5740 C   0  0  0  0  0  0  0  0  0  0  0  0
   38.9960   32.3580   47.6880 C   0  0  0  0  0  0  0  0  0  0  0  0
   36.2960   32.4270   50.4200 H   0  0  0  0  0  0  0  0  0  0  0  0
   37.9530   34.2480   50.3060 H   0  0  0  0  0  0  0  0  0  0  0  0
   39.6650   34.2350   48.5980 H   0  0  0  0  0  0  0  0  0  0  0  0
   34.9580   30.3270   48.0330 C   0  0  0  0  0  0  0  0  0  0  0  0
   36.0820   30.3100   48.8560 C   0  0  0  0  0  0  0  0  0  0  0  0
   36.2180   29.2410   49.7590 C   0  0  0  0  0  0  0  0  0  0  0  0
   35.2390   28.2940   49.7670 N   0  0  0  0  0  0  0  0  0  0  0  0
   34.1600   28.3520   48.9450 C   0  0  0  0  0  0  0  0  0  0  0  0
   34.0200   29.3710   48.0780 N   0  0  0  0  0  0  0  0  0  0  0  0
   34.7820   31.1250   47.3070 H   0  0  0  0  0  0  0  0  0  0  0  0
   33.5160   27.4950   49.1260 H   0  0  0  0  0  0  0  0  0  0  0  0
   37.3860   29.1700   50.6550 C   0  0  0  0  0  0  0  0  0  0  0  0
   38.2500   28.6420   50.1910 H   0  0  0  0  0  0  0  0  0  0  0  0
   37.7630   30.2080   50.8730 H   0  0  0  0  0  0  0  0  0  0  0  0
   37.0850   28.7520   51.6400 H   0  0  0  0  0  0  0  0  0  0  0  0
   38.1320   30.3660   46.8730 O   0  0  0  0  0  0  0  0  0  0  0  0
   38.4570   29.4430   47.1200 H   0  0  0  0  0  0  0  0  0  0  0  0
   39.9800   32.3550   46.7110 O   0  0  0  0  0  0  0  0  0  0  0  0
   37.6150   33.2690   45.5640 H   0  0  0  0  0  0  0  0  0  0  0  0
   38.3900   32.8280   45.0130 N   0  0  0  0  0  0  0  0  0  0  0  0
   39.5880   32.3330   45.3790 C   0  0  0  0  0  0  0  0  0  0  0  0
   40.2300   31.8710   44.2880 N   0  0  0  0  0  0  0  0  0  0  0  0
   39.4400   32.0680   43.1930 C   0  0  0  0  0  0  0  0  0  0  0  0
   39.6430   31.7690   41.8480 C   0  0  0  0  0  0  0  0  0  0  0  0
   40.5560   31.2980   41.5120 H   0  0  0  0  0  0  0  0  0  0  0  0
   38.6390   32.1000   40.9840 N   0  0  0  0  0  0  0  0  0  0  0  0
   37.5250   32.6850   41.4570 C   0  0  0  0  0  0  0  0  0  0  0  0
   36.7720   32.9170   40.7080 H   0  0  0  0  0  0  0  0  0  0  0  0
   37.3080   32.9850   42.7720 N   0  0  0  0  0  0  0  0  0  0  0  0
   38.2770   32.6760   43.6740 C   0  0  0  0  0  0  0  0  0  0  0  0
  1  2  1  0  0  0  0
  2 11  1  0  0  0  0
  2  3  2  0  0  0  0
  3  7  1  0  0  0  0
  4  3  1  0  0  0  0
  4  8  1  0  0  0  0
  5  9  1  0  0  0  0
  5  4  2  0  0  0  0
  6  1  2  0  0  0  0
  6  5  1  0  0  0  0
 10 15  2  0  0  0  0
 10 11  1  0  0  0  0
 11 12  2  0  0  0  0
 12 13  1  0  0  0  0
 12 18  1  0  0  0  0
 14 17  1  0  0  0  0
 14 13  2  0  0  0  0
 15 14  1  0  0  0  0
 16 10  1  0  0  0  0
 18 20  1  0  0  0  0
 18 21  1  0  0  0  0
 19 18  1  0  0  0  0
 22 23  1  0  0  0  0
 22  1  1  0  0  0  0
 24  6  1  0  0  0  0
 26 27  1  0  0  0  0
 26 25  1  0  0  0  0
 27 24  1  0  0  0  0
 28 27  2  0  0  0  0
 29 36  1  0  0  0  0
 29 28  1  0  0  0  0
 30 29  2  0  0  0  0
 31 30  1  0  0  0  0
 32 33  2  0  0  0  0
 32 30  1  0  0  0  0
 33 35  1  0  0  0  0
 34 33  1  0  0  0  0
 35 36  2  0  0  0  0
 36 26  1  0  0  0  0
M  END
>  <minimizedAffinity>
-7.07432604

>  <minimizedRMSD>
0.404191941

$$$$
