
 OpenBabel03272509193D

 36 39  0  0  0  0  0  0  0  0999 V2000
   38.1430   31.2660   47.7430 C   0  0  0  0  0  0  0  0  0  0  0  0
   37.1010   31.3110   48.6630 C   0  0  0  0  0  0  0  0  0  0  0  0
   37.1080   32.4370   49.5030 C   0  0  0  0  0  0  0  0  0  0  0  0
   38.1100   33.4200   49.3890 C   0  0  0  0  0  0  0  0  0  0  0  0
   39.1180   33.2740   48.4210 C   0  0  0  0  0  0  0  0  0  0  0  0
   39.1130   32.1730   47.5980 C   0  0  0  0  0  0  0  0  0  0  0  0
   36.3240   32.5020   50.2190 H   0  0  0  0  0  0  0  0  0  0  0  0
   38.0520   34.2530   50.0610 H   0  0  0  0  0  0  0  0  0  0  0  0
   39.8220   34.0750   48.4220 H   0  0  0  0  0  0  0  0  0  0  0  0
   34.9650   30.3440   47.9450 C   0  0  0  0  0  0  0  0  0  0  0  0
   36.0830   30.3060   48.7740 C   0  0  0  0  0  0  0  0  0  0  0  0
   36.1730   29.2590   49.7070 C   0  0  0  0  0  0  0  0  0  0  0  0
   35.1560   28.3520   49.7370 N   0  0  0  0  0  0  0  0  0  0  0  0
   34.0840   28.4300   48.9080 C   0  0  0  0  0  0  0  0  0  0  0  0
   33.9890   29.4280   48.0110 N   0  0  0  0  0  0  0  0  0  0  0  0
   34.8250   31.1280   47.1940 H   0  0  0  0  0  0  0  0  0  0  0  0
   33.4050   27.6050   49.1090 H   0  0  0  0  0  0  0  0  0  0  0  0
   37.3320   29.1660   50.6110 C   0  0  0  0  0  0  0  0  0  0  0  0
   38.1760   28.5910   50.1680 H   0  0  0  0  0  0  0  0  0  0  0  0
   37.7510   30.1940   50.8020 H   0  0  0  0  0  0  0  0  0  0  0  0
   37.0110   28.7890   51.6060 H   0  0  0  0  0  0  0  0  0  0  0  0
   38.2030   30.1700   46.8690 O   0  0  0  0  0  0  0  0  0  0  0  0
   38.4830   29.2520   47.1810 H   0  0  0  0  0  0  0  0  0  0  0  0
   40.1300   32.0760   46.6600 O   0  0  0  0  0  0  0  0  0  0  0  0
   39.7940   30.0480   44.7840 H   0  0  0  0  0  0  0  0  0  0  0  0
   39.6800   31.0670   44.5600 N   0  0  0  0  0  0  0  0  0  0  0  0
   39.7990   32.1740   45.3150 C   0  0  0  0  0  0  0  0  0  0  0  0
   39.5510   33.2590   44.5560 N   0  0  0  0  0  0  0  0  0  0  0  0
   39.2660   32.8550   43.2840 C   0  0  0  0  0  0  0  0  0  0  0  0
   38.9460   33.5790   42.1380 C   0  0  0  0  0  0  0  0  0  0  0  0
   38.8880   34.6560   42.1580 H   0  0  0  0  0  0  0  0  0  0  0  0
   38.7110   32.8620   41.0000 N   0  0  0  0  0  0  0  0  0  0  0  0
   38.7990   31.5190   41.0350 C   0  0  0  0  0  0  0  0  0  0  0  0
   38.5990   31.0210   40.0890 H   0  0  0  0  0  0  0  0  0  0  0  0
   39.1110   30.7940   42.1470 N   0  0  0  0  0  0  0  0  0  0  0  0
   39.3530   31.4590   43.3070 C   0  0  0  0  0  0  0  0  0  0  0  0
  1  2  1  0  0  0  0
  2 11  1  0  0  0  0
  2  3  2  0  0  0  0
  3  7  1  0  0  0  0
  4  3  1  0  0  0  0
  4  8  1  0  0  0  0
  5  9  1  0  0  0  0
  5  4  2  0  0  0  0
  6  1  2  0  0  0  0
  6  5  1  0  0  0  0
 10 15  2  0  0  0  0
 10 11  1  0  0  0  0
 11 12  2  0  0  0  0
 12 13  1  0  0  0  0
 12 18  1  0  0  0  0
 14 17  1  0  0  0  0
 14 13  2  0  0  0  0
 15 14  1  0  0  0  0
 16 10  1  0  0  0  0
 18 20  1  0  0  0  0
 18 21  1  0  0  0  0
 19 18  1  0  0  0  0
 22 23  1  0  0  0  0
 22  1  1  0  0  0  0
 24  6  1  0  0  0  0
 26 25  1  0  0  0  0
 26 27  1  0  0  0  0
 27 24  1  0  0  0  0
 28 27  2  0  0  0  0
 29 36  1  0  0  0  0
 29 28  1  0  0  0  0
 30 31  1  0  0  0  0
 30 29  2  0  0  0  0
 32 33  2  0  0  0  0
 32 30  1  0  0  0  0
 33 35  1  0  0  0  0
 34 33  1  0  0  0  0
 35 36  2  0  0  0  0
 36 26  1  0  0  0  0
M  END
>  <minimizedAffinity>
-6.57101488

>  <minimizedRMSD>
0.604779959

$$$$
