
 OpenBabel03272509183D

 36 39  0  0  0  0  0  0  0  0999 V2000
   38.0990   31.2420   47.7610 C   0  0  0  0  0  0  0  0  0  0  0  0
   37.1110   31.3150   48.7370 C   0  0  0  0  0  0  0  0  0  0  0  0
   37.1730   32.4580   49.5510 C   0  0  0  0  0  0  0  0  0  0  0  0
   38.1740   33.4300   49.3600 C   0  0  0  0  0  0  0  0  0  0  0  0
   39.1250   33.2550   48.3410 C   0  0  0  0  0  0  0  0  0  0  0  0
   39.0670   32.1380   47.5430 C   0  0  0  0  0  0  0  0  0  0  0  0
   36.4310   32.5450   50.3080 H   0  0  0  0  0  0  0  0  0  0  0  0
   38.1600   34.2770   50.0170 H   0  0  0  0  0  0  0  0  0  0  0  0
   39.8340   34.0510   48.2860 H   0  0  0  0  0  0  0  0  0  0  0  0
   34.9500   30.3260   48.1300 C   0  0  0  0  0  0  0  0  0  0  0  0
   36.0930   30.3210   48.9250 C   0  0  0  0  0  0  0  0  0  0  0  0
   36.2080   29.3180   49.9030 C   0  0  0  0  0  0  0  0  0  0  0  0
   35.1900   28.4190   50.0060 N   0  0  0  0  0  0  0  0  0  0  0  0
   34.0930   28.4630   49.2070 C   0  0  0  0  0  0  0  0  0  0  0  0
   33.9740   29.4190   48.2690 N   0  0  0  0  0  0  0  0  0  0  0  0
   34.7900   31.0750   47.3490 H   0  0  0  0  0  0  0  0  0  0  0  0
   33.4170   27.6520   49.4680 H   0  0  0  0  0  0  0  0  0  0  0  0
   37.3950   29.2610   50.7740 C   0  0  0  0  0  0  0  0  0  0  0  0
   38.2230   28.6620   50.3320 H   0  0  0  0  0  0  0  0  0  0  0  0
   37.8220   30.2940   50.9040 H   0  0  0  0  0  0  0  0  0  0  0  0
   37.1030   28.9320   51.7950 H   0  0  0  0  0  0  0  0  0  0  0  0
   38.1020   30.1280   46.9080 O   0  0  0  0  0  0  0  0  0  0  0  0
   38.3930   29.2140   47.2230 H   0  0  0  0  0  0  0  0  0  0  0  0
   40.0290   32.0130   46.5520 O   0  0  0  0  0  0  0  0  0  0  0  0
   40.0920   34.1730   44.7980 H   0  0  0  0  0  0  0  0  0  0  0  0
   39.7310   33.2250   44.5320 N   0  0  0  0  0  0  0  0  0  0  0  0
   39.6220   32.0760   45.2260 C   0  0  0  0  0  0  0  0  0  0  0  0
   39.0920   31.1260   44.4320 N   0  0  0  0  0  0  0  0  0  0  0  0
   38.8500   31.6620   43.1990 C   0  0  0  0  0  0  0  0  0  0  0  0
   38.3170   31.1020   42.0410 C   0  0  0  0  0  0  0  0  0  0  0  0
   38.0090   30.0680   42.0140 H   0  0  0  0  0  0  0  0  0  0  0  0
   38.2050   31.9210   40.9550 N   0  0  0  0  0  0  0  0  0  0  0  0
   38.6060   33.2020   41.0480 C   0  0  0  0  0  0  0  0  0  0  0  0
   38.4850   33.7900   40.1410 H   0  0  0  0  0  0  0  0  0  0  0  0
   39.1310   33.7670   42.1740 N   0  0  0  0  0  0  0  0  0  0  0  0
   39.2640   32.9950   43.2840 C   0  0  0  0  0  0  0  0  0  0  0  0
  1  2  1  0  0  0  0
  2 11  1  0  0  0  0
  2  3  2  0  0  0  0
  3  7  1  0  0  0  0
  4  3  1  0  0  0  0
  4  8  1  0  0  0  0
  5  4  2  0  0  0  0
  6  1  2  0  0  0  0
  6  5  1  0  0  0  0
  9  5  1  0  0  0  0
 10 15  2  0  0  0  0
 10 11  1  0  0  0  0
 11 12  2  0  0  0  0
 12 13  1  0  0  0  0
 12 18  1  0  0  0  0
 14 17  1  0  0  0  0
 14 13  2  0  0  0  0
 15 14  1  0  0  0  0
 16 10  1  0  0  0  0
 18 20  1  0  0  0  0
 18 21  1  0  0  0  0
 19 18  1  0  0  0  0
 22 23  1  0  0  0  0
 22  1  1  0  0  0  0
 24  6  1  0  0  0  0
 26 25  1  0  0  0  0
 26 27  1  0  0  0  0
 27 24  1  0  0  0  0
 28 27  2  0  0  0  0
 29 36  1  0  0  0  0
 29 28  1  0  0  0  0
 30 29  2  0  0  0  0
 31 30  1  0  0  0  0
 32 33  2  0  0  0  0
 32 30  1  0  0  0  0
 33 35  1  0  0  0  0
 34 33  1  0  0  0  0
 35 36  2  0  0  0  0
 36 26  1  0  0  0  0
M  END
>  <minimizedAffinity>
-6.58903313

>  <minimizedRMSD>
0.433015049

$$$$
