
 OpenBabel03272509183D

 36 39  0  0  0  0  0  0  0  0999 V2000
   38.0160   31.3940   47.7230 C   0  0  0  0  0  0  0  0  0  0  0  0
   37.0620   31.3330   48.7350 C   0  0  0  0  0  0  0  0  0  0  0  0
   37.1330   32.3760   49.6720 C   0  0  0  0  0  0  0  0  0  0  0  0
   38.1090   33.3850   49.5610 C   0  0  0  0  0  0  0  0  0  0  0  0
   39.0250   33.3500   48.4970 C   0  0  0  0  0  0  0  0  0  0  0  0
   38.9580   32.3300   47.5780 C   0  0  0  0  0  0  0  0  0  0  0  0
   36.4180   32.3590   50.4590 H   0  0  0  0  0  0  0  0  0  0  0  0
   38.1040   34.1510   50.3120 H   0  0  0  0  0  0  0  0  0  0  0  0
   39.7170   34.1620   48.5100 H   0  0  0  0  0  0  0  0  0  0  0  0
   34.9340   30.3320   48.0360 C   0  0  0  0  0  0  0  0  0  0  0  0
   36.0710   30.3010   48.8420 C   0  0  0  0  0  0  0  0  0  0  0  0
   36.2050   29.2340   49.7470 C   0  0  0  0  0  0  0  0  0  0  0  0
   35.2100   28.3030   49.7750 N   0  0  0  0  0  0  0  0  0  0  0  0
   34.1190   28.3750   48.9700 C   0  0  0  0  0  0  0  0  0  0  0  0
   33.9820   29.3920   48.1010 N   0  0  0  0  0  0  0  0  0  0  0  0
   34.7610   31.1300   47.3090 H   0  0  0  0  0  0  0  0  0  0  0  0
   33.4640   27.5300   49.1660 H   0  0  0  0  0  0  0  0  0  0  0  0
   37.3850   29.1470   50.6240 C   0  0  0  0  0  0  0  0  0  0  0  0
   38.2320   28.6030   50.1500 H   0  0  0  0  0  0  0  0  0  0  0  0
   37.7830   30.1800   50.8310 H   0  0  0  0  0  0  0  0  0  0  0  0
   37.0930   28.7390   51.6160 H   0  0  0  0  0  0  0  0  0  0  0  0
   38.0090   30.3850   46.7480 O   0  0  0  0  0  0  0  0  0  0  0  0
   38.3270   29.4480   46.9460 H   0  0  0  0  0  0  0  0  0  0  0  0
   39.8860   32.3420   46.5470 O   0  0  0  0  0  0  0  0  0  0  0  0
   37.8790   33.7210   45.2000 H   0  0  0  0  0  0  0  0  0  0  0  0
   38.4360   32.9450   44.7670 N   0  0  0  0  0  0  0  0  0  0  0  0
   39.4300   32.1730   45.2470 C   0  0  0  0  0  0  0  0  0  0  0  0
   39.8220   31.3100   44.2900 N   0  0  0  0  0  0  0  0  0  0  0  0
   39.0760   31.5200   43.1670 C   0  0  0  0  0  0  0  0  0  0  0  0
   39.0920   30.8980   41.9220 C   0  0  0  0  0  0  0  0  0  0  0  0
   39.7820   30.0960   41.7090 H   0  0  0  0  0  0  0  0  0  0  0  0
   38.1980   31.3510   40.9940 N   0  0  0  0  0  0  0  0  0  0  0  0
   37.3620   32.3560   41.3160 C   0  0  0  0  0  0  0  0  0  0  0  0
   36.6820   32.6600   40.5240 H   0  0  0  0  0  0  0  0  0  0  0  0
   37.3320   32.9770   42.5310 N   0  0  0  0  0  0  0  0  0  0  0  0
   38.2020   32.5630   43.4910 C   0  0  0  0  0  0  0  0  0  0  0  0
  1  2  1  0  0  0  0
  2 11  1  0  0  0  0
  2  3  2  0  0  0  0
  3  7  1  0  0  0  0
  4  3  1  0  0  0  0
  4  8  1  0  0  0  0
  5  9  1  0  0  0  0
  5  4  2  0  0  0  0
  6  1  2  0  0  0  0
  6  5  1  0  0  0  0
 10 15  2  0  0  0  0
 10 11  1  0  0  0  0
 11 12  2  0  0  0  0
 12 13  1  0  0  0  0
 12 18  1  0  0  0  0
 14 17  1  0  0  0  0
 14 13  2  0  0  0  0
 15 14  1  0  0  0  0
 16 10  1  0  0  0  0
 18 20  1  0  0  0  0
 18 21  1  0  0  0  0
 19 18  1  0  0  0  0
 22 23  1  0  0  0  0
 22  1  1  0  0  0  0
 24  6  1  0  0  0  0
 26 25  1  0  0  0  0
 26 27  1  0  0  0  0
 27 24  1  0  0  0  0
 28 27  2  0  0  0  0
 29 36  1  0  0  0  0
 29 28  1  0  0  0  0
 30 29  2  0  0  0  0
 31 30  1  0  0  0  0
 32 33  2  0  0  0  0
 32 30  1  0  0  0  0
 33 35  1  0  0  0  0
 34 33  1  0  0  0  0
 35 36  2  0  0  0  0
 36 26  1  0  0  0  0
M  END
>  <minimizedAffinity>
-7.01928568

>  <minimizedRMSD>
0.507520676

$$$$
