
 OpenBabel03272504223D

 42 45  0  0  1  0  0  0  0  0999 V2000
   38.7760   32.4200   47.7870 C   0  0  2  0  0  0  0  0  0  0  0  0
   38.2140   31.3870   48.7310 C   0  0  1  0  0  0  0  0  0  0  0  0
   38.8340   31.9130   50.0400 C   0  0  0  0  0  0  0  0  0  0  0  0
   38.4990   33.2470   49.9790 O   0  0  0  0  0  0  0  0  0  0  0  0
   38.6610   33.6660   48.6730 C   0  0  0  0  0  0  0  0  0  0  0  0
   39.8360   32.1490   47.6060 H   0  0  0  0  0  0  0  0  0  0  0  0
   38.5190   30.3690   48.5030 H   0  0  0  0  0  0  0  0  0  0  0  0
   39.9270   31.7740   50.0160 H   0  0  0  0  0  0  0  0  0  0  0  0
   38.3540   31.4280   50.9110 H   0  0  0  0  0  0  0  0  0  0  0  0
   39.6230   34.2380   48.6150 H   0  0  0  0  0  0  0  0  0  0  0  0
   37.8000   34.2950   48.3270 H   0  0  0  0  0  0  0  0  0  0  0  0
   36.8400   31.5900   48.7890 O   0  0  0  0  0  0  0  0  0  0  0  0
   35.8990   29.8720   47.0720 O   0  0  0  0  0  0  0  0  0  0  0  0
   35.9660   30.1820   48.5470 P   0  0  1  0  0  0  0  0  0  0  0  0
   36.7600   28.8620   49.3150 O   0  0  0  0  0  0  0  0  0  0  0  0
   37.2320   29.1720   50.1240 H   0  0  0  0  0  0  0  0  0  0  0  0
   34.4040   30.3410   49.1900 O   0  0  0  0  0  0  0  0  0  0  0  0
   34.1290   29.1760   49.8820 C   0  0  0  0  0  0  0  0  0  0  0  0
   35.0360   28.6460   50.2310 H   0  0  0  0  0  0  0  0  0  0  0  0
   33.5590   29.4470   50.8150 H   0  0  0  0  0  0  0  0  0  0  0  0
   33.2660   28.2350   49.1340 C   0  0  0  0  0  0  0  0  0  0  0  0
   33.9030   27.3550   48.2920 C   0  0  0  0  0  0  0  0  0  0  0  0
   33.1490   26.4370   47.5540 C   0  0  0  0  0  0  0  0  0  0  0  0
   31.7960   26.4750   47.7210 N   0  0  0  0  0  0  0  0  0  0  0  0
   31.1930   27.3500   48.5560 C   0  0  0  0  0  0  0  0  0  0  0  0
   31.9290   28.2310   49.2630 N   0  0  0  0  0  0  0  0  0  0  0  0
   34.9530   27.2450   48.0910 H   0  0  0  0  0  0  0  0  0  0  0  0
   33.5540   25.7020   46.8640 H   0  0  0  0  0  0  0  0  0  0  0  0
   30.1350   27.3830   48.6900 H   0  0  0  0  0  0  0  0  0  0  0  0
   37.9620   32.4870   46.6810 O   0  0  0  0  0  0  0  0  0  0  0  0
   37.5190   33.6030   44.1020 H   0  0  0  0  0  0  0  0  0  0  0  0
   38.1960   32.8250   44.1460 N   0  0  0  0  0  0  0  0  0  0  0  0
   38.3930   32.3110   45.3680 C   0  0  0  0  0  0  0  0  0  0  0  0
   39.2990   31.3090   45.2630 N   0  0  0  0  0  0  0  0  0  0  0  0
   39.6900   31.1700   43.9850 C   0  0  0  0  0  0  0  0  0  0  0  0
   40.5420   30.3840   43.2340 C   0  0  0  0  0  0  0  0  0  0  0  0
   41.0870   29.6320   43.7970 H   0  0  0  0  0  0  0  0  0  0  0  0
   40.6470   30.5830   41.8940 N   0  0  0  0  0  0  0  0  0  0  0  0
   39.9290   31.5450   41.2740 C   0  0  0  0  0  0  0  0  0  0  0  0
   40.0670   31.6400   40.2180 H   0  0  0  0  0  0  0  0  0  0  0  0
   39.0730   32.3500   41.9680 N   0  0  0  0  0  0  0  0  0  0  0  0
   38.9800   32.1380   43.3010 C   0  0  0  0  0  0  0  0  0  0  0  0
  1  6  1  6  0  0  0
  1  5  1  0  0  0  0
  1  2  1  0  0  0  0
  2  7  1  6  0  0  0
  2 12  1  0  0  0  0
  2  3  1  0  0  0  0
  3  9  1  0  0  0  0
  4  3  1  0  0  0  0
  5  4  1  0  0  0  0
  8  3  1  0  0  0  0
 10  5  1  0  0  0  0
 11  5  1  0  0  0  0
 14 13  2  6  0  0  0
 14 12  1  0  0  0  0
 14 17  1  0  0  0  0
 14 15  1  0  0  0  0
 15 16  1  0  0  0  0
 17 18  1  0  0  0  0
 18 19  1  0  0  0  0
 18 20  1  0  0  0  0
 21 26  1  0  0  0  0
 21 18  1  0  0  0  0
 22 21  2  0  0  0  0
 23 24  2  0  0  0  0
 23 22  1  0  0  0  0
 24 25  1  0  0  0  0
 25 29  1  0  0  0  0
 25 26  2  0  0  0  0
 27 22  1  0  0  0  0
 28 23  1  0  0  0  0
 30  1  1  0  0  0  0
 31 32  1  0  0  0  0
 32 33  1  0  0  0  0
 33 30  1  0  0  0  0
 34 33  2  0  0  0  0
 35 34  1  0  0  0  0
 36 37  1  0  0  0  0
 36 35  2  0  0  0  0
 38 36  1  0  0  0  0
 39 38  2  0  0  0  0
 39 41  1  0  0  0  0
 40 39  1  0  0  0  0
 41 42  2  0  0  0  0
 42 35  1  0  0  0  0
 42 32  1  0  0  0  0
M  END
>  <minimizedAffinity>
-5.16246367

>  <minimizedRMSD>
0.337022871

$$$$
