
 OpenBabel03272501583D

 34 37  0  0  0  0  0  0  0  0999 V2000
   32.9770   28.1850   47.8070 C   0  0  0  0  0  0  0  0  0  0  0  0
   31.9590   27.4140   48.3450 C   0  0  0  0  0  0  0  0  0  0  0  0
   30.7520   27.8360   47.8030 C   0  0  0  0  0  0  0  0  0  0  0  0
   31.0790   28.8480   46.9560 N   0  0  0  0  0  0  0  0  0  0  0  0
   32.3860   29.0450   46.9650 N   0  0  0  0  0  0  0  0  0  0  0  0
   32.0870   26.6170   49.0670 H   0  0  0  0  0  0  0  0  0  0  0  0
   29.7960   27.3970   48.0570 H   0  0  0  0  0  0  0  0  0  0  0  0
   28.2170   28.6270   46.9550 H   0  0  0  0  0  0  0  0  0  0  0  0
   28.6940   29.2960   46.3300 N   0  0  0  0  0  0  0  0  0  0  0  0
   30.0240   29.4850   46.2450 C   0  0  0  0  0  0  0  0  0  0  0  0
   30.2220   30.4480   45.3090 N   0  0  0  0  0  0  0  0  0  0  0  0
   29.0440   30.8550   44.8160 C   0  0  0  0  0  0  0  0  0  0  0  0
   28.7430   31.8010   43.8580 C   0  0  0  0  0  0  0  0  0  0  0  0
   29.5270   32.3780   43.3480 H   0  0  0  0  0  0  0  0  0  0  0  0
   27.4610   32.0200   43.5430 N   0  0  0  0  0  0  0  0  0  0  0  0
   26.4920   31.3100   44.1710 C   0  0  0  0  0  0  0  0  0  0  0  0
   25.4700   31.5040   43.8990 H   0  0  0  0  0  0  0  0  0  0  0  0
   26.7780   30.3790   45.1130 N   0  0  0  0  0  0  0  0  0  0  0  0
   28.0620   30.1300   45.4570 C   0  0  0  0  0  0  0  0  0  0  0  0
   34.4500   28.0760   48.1090 C   0  0  0  0  0  0  0  0  0  0  0  0
   34.9930   28.8200   47.5000 H   0  0  0  0  0  0  0  0  0  0  0  0
   34.7390   27.0250   47.9150 H   0  0  0  0  0  0  0  0  0  0  0  0
   34.5780   28.3220   49.5940 C   0  0  0  0  0  0  0  0  0  0  0  0
   33.7000   28.9220   49.9700 H   0  0  0  0  0  0  0  0  0  0  0  0
   34.5560   27.3880   50.1750 H   0  0  0  0  0  0  0  0  0  0  0  0
   37.2670   30.1670   51.3490 C   0  0  0  0  0  0  0  0  0  0  0  0
   38.0370   30.6500   50.2710 C   0  0  0  0  0  0  0  0  0  0  0  0
   37.6250   30.3370   48.9520 C   0  0  0  0  0  0  0  0  0  0  0  0
   36.5060   29.5860   48.8080 N   0  0  0  0  0  0  0  0  0  0  0  0
   35.7920   29.1410   49.8730 C   0  0  0  0  0  0  0  0  0  0  0  0
   36.1820   29.4360   51.1010 N   0  0  0  0  0  0  0  0  0  0  0  0
   37.5800   30.4060   52.3710 H   0  0  0  0  0  0  0  0  0  0  0  0
   38.9270   31.2490   50.4790 H   0  0  0  0  0  0  0  0  0  0  0  0
   38.2020   30.6980   48.1290 H   0  0  0  0  0  0  0  0  0  0  0  0
  1 20  1  0  0  0  0
  1  2  1  0  0  0  0
  2  6  1  0  0  0  0
  3  7  1  0  0  0  0
  3  2  2  0  0  0  0
  4  5  1  0  0  0  0
  4  3  1  0  0  0  0
  5  1  2  0  0  0  0
  9  8  1  0  0  0  0
 10  9  1  0  0  0  0
 10  4  1  0  0  0  0
 11 10  2  0  0  0  0
 12 11  1  0  0  0  0
 12 19  1  0  0  0  0
 13 12  2  0  0  0  0
 14 13  1  0  0  0  0
 15 13  1  0  0  0  0
 15 16  2  0  0  0  0
 16 18  1  0  0  0  0
 17 16  1  0  0  0  0
 18 19  2  0  0  0  0
 19  9  1  0  0  0  0
 20 23  1  0  0  0  0
 21 20  1  0  0  0  0
 22 20  1  0  0  0  0
 23 30  1  0  0  0  0
 23 24  1  0  0  0  0
 23 25  1  0  0  0  0
 26 32  1  0  0  0  0
 27 33  1  0  0  0  0
 27 26  2  0  0  0  0
 28 27  1  0  0  0  0
 29 28  2  0  0  0  0
 29 30  1  0  0  0  0
 30 31  2  0  0  0  0
 31 26  1  0  0  0  0
 34 28  1  0  0  0  0
M  END
>  <minimizedAffinity>
-5.47430992

>  <minimizedRMSD>
0.542486131

$$$$
