
 OpenBabel03272509183D

 36 39  0  0  0  0  0  0  0  0999 V2000
   37.9120   31.3680   47.6950 C   0  0  0  0  0  0  0  0  0  0  0  0
   37.0580   31.3280   48.7920 C   0  0  0  0  0  0  0  0  0  0  0  0
   37.2320   32.3770   49.7100 C   0  0  0  0  0  0  0  0  0  0  0  0
   38.2070   33.3710   49.4990 C   0  0  0  0  0  0  0  0  0  0  0  0
   39.0180   33.3150   48.3520 C   0  0  0  0  0  0  0  0  0  0  0  0
   38.8500   32.2900   47.4520 C   0  0  0  0  0  0  0  0  0  0  0  0
   36.5950   32.3760   50.5620 H   0  0  0  0  0  0  0  0  0  0  0  0
   38.2840   34.1420   50.2400 H   0  0  0  0  0  0  0  0  0  0  0  0
   39.7190   34.1170   48.2930 H   0  0  0  0  0  0  0  0  0  0  0  0
   34.8860   30.3190   48.2620 C   0  0  0  0  0  0  0  0  0  0  0  0
   36.0670   30.3120   49.0010 C   0  0  0  0  0  0  0  0  0  0  0  0
   36.2450   29.2850   49.9440 C   0  0  0  0  0  0  0  0  0  0  0  0
   35.2470   28.3660   50.0700 N   0  0  0  0  0  0  0  0  0  0  0  0
   34.1120   28.4130   49.3270 C   0  0  0  0  0  0  0  0  0  0  0  0
   33.9330   29.3930   48.4220 N   0  0  0  0  0  0  0  0  0  0  0  0
   34.6770   31.0860   47.5110 H   0  0  0  0  0  0  0  0  0  0  0  0
   33.4630   27.5840   49.5960 H   0  0  0  0  0  0  0  0  0  0  0  0
   37.4730   29.2240   50.7550 C   0  0  0  0  0  0  0  0  0  0  0  0
   38.2880   28.6520   50.2570 H   0  0  0  0  0  0  0  0  0  0  0  0
   37.8900   30.2610   50.8930 H   0  0  0  0  0  0  0  0  0  0  0  0
   37.2370   28.8630   51.7790 H   0  0  0  0  0  0  0  0  0  0  0  0
   37.7980   30.3530   46.7330 O   0  0  0  0  0  0  0  0  0  0  0  0
   38.1210   29.4130   46.9080 H   0  0  0  0  0  0  0  0  0  0  0  0
   39.6750   32.2800   46.3380 O   0  0  0  0  0  0  0  0  0  0  0  0
   40.8710   33.3310   44.0550 H   0  0  0  0  0  0  0  0  0  0  0  0
   39.8590   33.0580   44.1030 N   0  0  0  0  0  0  0  0  0  0  0  0
   39.1120   32.5430   45.0970 C   0  0  0  0  0  0  0  0  0  0  0  0
   37.8500   32.3670   44.6590 N   0  0  0  0  0  0  0  0  0  0  0  0
   37.7710   32.7740   43.3580 C   0  0  0  0  0  0  0  0  0  0  0  0
   36.7030   32.7970   42.4650 C   0  0  0  0  0  0  0  0  0  0  0  0
   35.7230   32.4510   42.7590 H   0  0  0  0  0  0  0  0  0  0  0  0
   36.9570   33.2710   41.2110 N   0  0  0  0  0  0  0  0  0  0  0  0
   38.1990   33.6870   40.9000 C   0  0  0  0  0  0  0  0  0  0  0  0
   38.3220   34.0520   39.8820 H   0  0  0  0  0  0  0  0  0  0  0  0
   39.2570   33.6730   41.7620 N   0  0  0  0  0  0  0  0  0  0  0  0
   39.0570   33.2090   43.0250 C   0  0  0  0  0  0  0  0  0  0  0  0
  1  2  1  0  0  0  0
  2 11  1  0  0  0  0
  2  3  2  0  0  0  0
  3  7  1  0  0  0  0
  4  3  1  0  0  0  0
  4  8  1  0  0  0  0
  5  4  2  0  0  0  0
  6  1  2  0  0  0  0
  6  5  1  0  0  0  0
  9  5  1  0  0  0  0
 10 15  2  0  0  0  0
 10 11  1  0  0  0  0
 11 12  2  0  0  0  0
 12 13  1  0  0  0  0
 12 18  1  0  0  0  0
 14 17  1  0  0  0  0
 14 13  2  0  0  0  0
 15 14  1  0  0  0  0
 16 10  1  0  0  0  0
 18 20  1  0  0  0  0
 18 21  1  0  0  0  0
 19 18  1  0  0  0  0
 22 23  1  0  0  0  0
 22  1  1  0  0  0  0
 24  6  1  0  0  0  0
 25 26  1  0  0  0  0
 26 27  1  0  0  0  0
 27 24  1  0  0  0  0
 28 27  2  0  0  0  0
 29 28  1  0  0  0  0
 30 31  1  0  0  0  0
 30 29  2  0  0  0  0
 32 30  1  0  0  0  0
 33 32  2  0  0  0  0
 33 35  1  0  0  0  0
 34 33  1  0  0  0  0
 35 36  2  0  0  0  0
 36 29  1  0  0  0  0
 36 26  1  0  0  0  0
M  END
>  <minimizedAffinity>
-6.92496109

>  <minimizedRMSD>
0.412690908

$$$$
