
 OpenBabel03272508193D

 34 37  0  0  0  0  0  0  0  0999 V2000
   37.5480   31.6210   47.9390 C   0  0  0  0  0  0  0  0  0  0  0  0
   37.5020   32.0880   48.9270 H   0  0  0  0  0  0  0  0  0  0  0  0
   37.2980   32.4870   47.2270 H   0  0  0  0  0  0  0  0  0  0  0  0
   35.9100   29.9820   48.8960 C   0  0  0  0  0  0  0  0  0  0  0  0
   36.4390   30.6950   47.8130 C   0  0  0  0  0  0  0  0  0  0  0  0
   35.8650   30.4070   46.6030 C   0  0  0  0  0  0  0  0  0  0  0  0
   34.8570   29.4970   46.4870 N   0  0  0  0  0  0  0  0  0  0  0  0
   34.3680   28.8240   47.5480 C   0  0  0  0  0  0  0  0  0  0  0  0
   34.8950   29.0650   48.7580 N   0  0  0  0  0  0  0  0  0  0  0  0
   36.1310   30.8120   45.6530 H   0  0  0  0  0  0  0  0  0  0  0  0
   33.5710   28.1090   47.4240 H   0  0  0  0  0  0  0  0  0  0  0  0
   36.4590   30.3270   50.2720 C   0  0  0  0  0  0  0  0  0  0  0  0
   36.1890   29.5310   51.4090 C   0  0  0  0  0  0  0  0  0  0  0  0
   37.4800   29.2000   50.6800 C   0  0  0  0  0  0  0  0  0  0  0  0
   37.0090   31.3000   50.2950 H   0  0  0  0  0  0  0  0  0  0  0  0
   35.4760   28.7120   51.4940 H   0  0  0  0  0  0  0  0  0  0  0  0
   36.3730   30.0060   52.4180 H   0  0  0  0  0  0  0  0  0  0  0  0
   38.4280   29.5560   51.0830 H   0  0  0  0  0  0  0  0  0  0  0  0
   37.5040   28.2850   50.1040 H   0  0  0  0  0  0  0  0  0  0  0  0
   38.8940   31.2020   47.5370 C   0  0  0  0  0  0  0  0  0  0  0  0
   39.5760   31.3570   48.4250 H   0  0  0  0  0  0  0  0  0  0  0  0
   38.9800   30.0760   47.3840 H   0  0  0  0  0  0  0  0  0  0  0  0
   39.4720   31.8230   46.3920 N   0  0  0  0  0  0  0  0  0  0  0  0
   40.0420   32.9500   45.9930 C   0  0  0  0  0  0  0  0  0  0  0  0
   40.2070   33.7780   46.6400 H   0  0  0  0  0  0  0  0  0  0  0  0
   40.3950   32.9810   44.6970 N   0  0  0  0  0  0  0  0  0  0  0  0
   40.0470   31.7930   44.1480 C   0  0  0  0  0  0  0  0  0  0  0  0
   40.2020   31.3560   42.8630 C   0  0  0  0  0  0  0  0  0  0  0  0
   40.6550   31.9860   42.1350 H   0  0  0  0  0  0  0  0  0  0  0  0
   39.7480   30.1080   42.6280 N   0  0  0  0  0  0  0  0  0  0  0  0
   39.1940   29.3970   43.6180 C   0  0  0  0  0  0  0  0  0  0  0  0
   38.8320   28.3840   43.3960 H   0  0  0  0  0  0  0  0  0  0  0  0
   39.0570   29.8540   44.8630 N   0  0  0  0  0  0  0  0  0  0  0  0
   39.4800   31.0970   45.2150 C   0  0  0  0  0  0  0  0  0  0  0  0
  1  2  1  0  0  0  0
  3  1  1  0  0  0  0
  4 12  1  0  0  0  0
  5  1  1  0  0  0  0
  5  4  2  0  0  0  0
  6  5  1  0  0  0  0
  7  6  2  0  0  0  0
  7  8  1  0  0  0  0
  8  9  2  0  0  0  0
  9  4  1  0  0  0  0
 10  6  1  0  0  0  0
 11  8  1  0  0  0  0
 12 15  1  0  0  0  0
 12 14  1  0  0  0  0
 12 13  1  0  0  0  0
 13 16  1  0  0  0  0
 13 17  1  0  0  0  0
 14 18  1  0  0  0  0
 14 13  1  0  0  0  0
 19 14  1  0  0  0  0
 20  1  1  0  0  0  0
 20 21  1  0  0  0  0
 22 20  1  0  0  0  0
 23 20  1  0  0  0  0
 24 23  1  0  0  0  0
 24 25  1  0  0  0  0
 26 24  2  0  0  0  0
 27 26  1  0  0  0  0
 27 34  1  0  0  0  0
 28 27  2  0  0  0  0
 29 28  1  0  0  0  0
 30 28  1  0  0  0  0
 30 31  2  0  0  0  0
 31 33  1  0  0  0  0
 32 31  1  0  0  0  0
 33 34  2  0  0  0  0
 34 23  1  0  0  0  0
M  END
>  <minimizedAffinity>
-5.41294861

>  <minimizedRMSD>
4.38549995

$$$$
