
 OpenBabel03262520463D

 37 40  0  0  1  0  0  0  0  0999 V2000
   38.5720   32.2970   46.9440 C   0  0  1  0  0  0  0  0  0  0  0  0
   39.7750   33.0740   46.4350 C   0  0  0  0  0  0  0  0  0  0  0  0
   39.8200   31.6110   46.5600 C   0  0  2  0  0  0  0  0  0  0  0  0
   37.6680   32.2000   46.2970 H   0  0  0  0  0  0  0  0  0  0  0  0
   40.3370   33.7130   47.1370 H   0  0  0  0  0  0  0  0  0  0  0  0
   39.6150   33.4600   45.3880 H   0  0  0  0  0  0  0  0  0  0  0  0
   40.5040   31.2410   47.3790 H   0  0  0  0  0  0  0  0  0  0  0  0
   38.2340   32.5280   48.3990 C   0  0  0  0  0  0  0  0  0  0  0  0
   39.1280   32.7750   48.9870 H   0  0  0  0  0  0  0  0  0  0  0  0
   37.5070   33.3720   48.4720 H   0  0  0  0  0  0  0  0  0  0  0  0
   37.4520   29.8480   50.8920 C   0  0  0  0  0  0  0  0  0  0  0  0
   38.0300   31.0060   50.2630 C   0  0  0  0  0  0  0  0  0  0  0  0
   37.6100   31.3310   48.9990 C   0  0  0  0  0  0  0  0  0  0  0  0
   36.6820   30.5700   48.3930 N   0  0  0  0  0  0  0  0  0  0  0  0
   36.1450   29.4840   48.9920 C   0  0  0  0  0  0  0  0  0  0  0  0
   36.5360   29.1460   50.2190 N   0  0  0  0  0  0  0  0  0  0  0  0
   37.7580   29.5600   51.8870 H   0  0  0  0  0  0  0  0  0  0  0  0
   38.7610   31.5090   50.8830 H   0  0  0  0  0  0  0  0  0  0  0  0
   35.4210   29.0080   48.3420 H   0  0  0  0  0  0  0  0  0  0  0  0
   39.7460   30.6800   45.3950 C   0  0  0  0  0  0  0  0  0  0  0  0
   40.0350   29.6630   45.7270 H   0  0  0  0  0  0  0  0  0  0  0  0
   38.7110   30.6350   44.9640 H   0  0  0  0  0  0  0  0  0  0  0  0
   40.6260   31.1140   44.2300 C   0  0  0  0  0  0  0  0  0  0  0  0
   41.6390   30.7070   44.2970 H   0  0  0  0  0  0  0  0  0  0  0  0
   40.6340   32.2060   44.1380 H   0  0  0  0  0  0  0  0  0  0  0  0
   39.9550   30.6320   43.0150 N   0  0  0  0  0  0  0  0  0  0  0  0
   40.1350   29.5360   42.2560 C   0  0  0  0  0  0  0  0  0  0  0  0
   40.8960   28.8200   42.5150 H   0  0  0  0  0  0  0  0  0  0  0  0
   39.2570   29.5580   41.2440 N   0  0  0  0  0  0  0  0  0  0  0  0
   38.4940   30.6660   41.3300 C   0  0  0  0  0  0  0  0  0  0  0  0
   37.4630   31.2200   40.6100 C   0  0  0  0  0  0  0  0  0  0  0  0
   37.0950   30.7260   39.7410 H   0  0  0  0  0  0  0  0  0  0  0  0
   36.8690   32.3910   40.9510 N   0  0  0  0  0  0  0  0  0  0  0  0
   37.3310   33.0180   42.0470 C   0  0  0  0  0  0  0  0  0  0  0  0
   36.9850   33.9450   42.4630 H   0  0  0  0  0  0  0  0  0  0  0  0
   38.3380   32.5070   42.7780 N   0  0  0  0  0  0  0  0  0  0  0  0
   38.9470   31.3450   42.4620 C   0  0  0  0  0  0  0  0  0  0  0  0
  1  4  1  6  0  0  0
  1  8  1  0  0  0  0
  2  3  1  0  0  0  0
  2  1  1  0  0  0  0
  2  5  1  0  0  0  0
  3  1  1  0  0  0  0
  3  7  1  1  0  0  0
  6  2  1  0  0  0  0
  8 10  1  0  0  0  0
  8  9  1  0  0  0  0
  8 13  1  0  0  0  0
 11 17  1  0  0  0  0
 12 18  1  0  0  0  0
 12 11  1  0  0  0  0
 13 12  2  0  0  0  0
 14 15  2  0  0  0  0
 14 13  1  0  0  0  0
 15 16  1  0  0  0  0
 16 11  2  0  0  0  0
 19 15  1  0  0  0  0
 20 21  1  0  0  0  0
 20  3  1  0  0  0  0
 22 20  1  0  0  0  0
 23 24  1  0  0  0  0
 23 20  1  0  0  0  0
 25 23  1  0  0  0  0
 26 23  1  0  0  0  0
 27 28  1  0  0  0  0
 27 26  1  0  0  0  0
 29 30  1  0  0  0  0
 29 27  2  0  0  0  0
 30 37  1  0  0  0  0
 31 33  1  0  0  0  0
 31 30  2  0  0  0  0
 32 31  1  0  0  0  0
 33 34  2  0  0  0  0
 34 35  1  0  0  0  0
 34 36  1  0  0  0  0
 37 36  2  0  0  0  0
 37 26  1  0  0  0  0
M  END
>  <minimizedAffinity>
-5.07311916

>  <minimizedRMSD>
2.33337831

$$$$
