
 OpenBabel03262520463D

 37 40  0  0  1  0  0  0  0  0999 V2000
   38.5820   32.2550   46.8590 C   0  0  1  0  0  0  0  0  0  0  0  0
   39.8080   32.9450   46.2860 C   0  0  0  0  0  0  0  0  0  0  0  0
   39.7500   31.4810   46.3980 C   0  0  2  0  0  0  0  0  0  0  0  0
   37.6370   32.2330   46.2650 H   0  0  0  0  0  0  0  0  0  0  0  0
   40.4570   33.5330   46.9600 H   0  0  0  0  0  0  0  0  0  0  0  0
   39.6180   33.3550   45.2540 H   0  0  0  0  0  0  0  0  0  0  0  0
   40.4500   31.0520   47.1730 H   0  0  0  0  0  0  0  0  0  0  0  0
   38.3470   32.4930   48.3330 C   0  0  0  0  0  0  0  0  0  0  0  0
   39.2870   32.6840   48.8660 H   0  0  0  0  0  0  0  0  0  0  0  0
   37.6750   33.3770   48.4540 H   0  0  0  0  0  0  0  0  0  0  0  0
   37.4740   29.9210   50.9080 C   0  0  0  0  0  0  0  0  0  0  0  0
   38.0820   31.0460   50.2480 C   0  0  0  0  0  0  0  0  0  0  0  0
   37.6920   31.3290   48.9650 C   0  0  0  0  0  0  0  0  0  0  0  0
   36.7650   30.5600   48.3690 N   0  0  0  0  0  0  0  0  0  0  0  0
   36.1990   29.5050   48.9970 C   0  0  0  0  0  0  0  0  0  0  0  0
   36.5610   29.2080   50.2440 N   0  0  0  0  0  0  0  0  0  0  0  0
   37.7550   29.6670   51.9190 H   0  0  0  0  0  0  0  0  0  0  0  0
   38.8080   31.5610   50.8640 H   0  0  0  0  0  0  0  0  0  0  0  0
   35.4800   29.0160   48.3510 H   0  0  0  0  0  0  0  0  0  0  0  0
   39.5390   30.5730   45.2320 C   0  0  0  0  0  0  0  0  0  0  0  0
   39.7460   29.5310   45.5460 H   0  0  0  0  0  0  0  0  0  0  0  0
   38.4870   30.6280   44.8470 H   0  0  0  0  0  0  0  0  0  0  0  0
   40.4050   30.9340   44.0320 C   0  0  0  0  0  0  0  0  0  0  0  0
   41.3040   30.3160   43.9640 H   0  0  0  0  0  0  0  0  0  0  0  0
   40.6470   32.0030   44.0390 H   0  0  0  0  0  0  0  0  0  0  0  0
   39.5550   30.7420   42.8480 N   0  0  0  0  0  0  0  0  0  0  0  0
   38.7240   31.5670   42.1870 C   0  0  0  0  0  0  0  0  0  0  0  0
   38.5960   32.5820   42.5200 H   0  0  0  0  0  0  0  0  0  0  0  0
   38.1770   30.9020   41.1590 N   0  0  0  0  0  0  0  0  0  0  0  0
   38.6440   29.6370   41.1390 C   0  0  0  0  0  0  0  0  0  0  0  0
   38.4590   28.5230   40.3540 C   0  0  0  0  0  0  0  0  0  0  0  0
   37.7950   28.5620   39.5220 H   0  0  0  0  0  0  0  0  0  0  0  0
   39.0900   27.3450   40.5850 N   0  0  0  0  0  0  0  0  0  0  0  0
   39.9280   27.2920   41.6340 C   0  0  0  0  0  0  0  0  0  0  0  0
   40.5080   26.4510   41.9650 H   0  0  0  0  0  0  0  0  0  0  0  0
   40.1360   28.3600   42.4240 N   0  0  0  0  0  0  0  0  0  0  0  0
   39.5230   29.5440   42.2190 C   0  0  0  0  0  0  0  0  0  0  0  0
  1  4  1  6  0  0  0
  1  8  1  0  0  0  0
  2  3  1  0  0  0  0
  2  1  1  0  0  0  0
  2  5  1  0  0  0  0
  3  1  1  0  0  0  0
  3  7  1  1  0  0  0
  6  2  1  0  0  0  0
  8 10  1  0  0  0  0
  8  9  1  0  0  0  0
  8 13  1  0  0  0  0
 11 17  1  0  0  0  0
 12 18  1  0  0  0  0
 12 11  1  0  0  0  0
 13 12  2  0  0  0  0
 14 13  1  0  0  0  0
 14 15  2  0  0  0  0
 15 16  1  0  0  0  0
 16 11  2  0  0  0  0
 19 15  1  0  0  0  0
 20 21  1  0  0  0  0
 20  3  1  0  0  0  0
 22 20  1  0  0  0  0
 23 25  1  0  0  0  0
 23 20  1  0  0  0  0
 24 23  1  0  0  0  0
 26 23  1  0  0  0  0
 27 28  1  0  0  0  0
 27 26  1  0  0  0  0
 29 27  2  0  0  0  0
 30 29  1  0  0  0  0
 30 37  1  0  0  0  0
 31 33  1  0  0  0  0
 31 30  2  0  0  0  0
 32 31  1  0  0  0  0
 33 34  2  0  0  0  0
 34 35  1  0  0  0  0
 34 36  1  0  0  0  0
 37 36  2  0  0  0  0
 37 26  1  0  0  0  0
M  END
>  <minimizedAffinity>
-5.15652418

>  <minimizedRMSD>
1.54949701

$$$$
