
 OpenBabel03262520463D

 37 40  0  0  1  0  0  0  0  0999 V2000
   38.6360   32.0390   46.9420 C   0  0  1  0  0  0  0  0  0  0  0  0
   39.7560   32.7810   46.2320 C   0  0  0  0  0  0  0  0  0  0  0  0
   39.7320   31.3120   46.2750 C   0  0  2  0  0  0  0  0  0  0  0  0
   37.6140   32.0280   46.4930 H   0  0  0  0  0  0  0  0  0  0  0  0
   40.4900   33.3470   46.8320 H   0  0  0  0  0  0  0  0  0  0  0  0
   39.4100   33.2380   45.2610 H   0  0  0  0  0  0  0  0  0  0  0  0
   40.5440   30.8590   46.9150 H   0  0  0  0  0  0  0  0  0  0  0  0
   38.6180   32.1990   48.4450 C   0  0  0  0  0  0  0  0  0  0  0  0
   39.6320   32.1910   48.8640 H   0  0  0  0  0  0  0  0  0  0  0  0
   38.1280   33.1690   48.6990 H   0  0  0  0  0  0  0  0  0  0  0  0
   37.3190   29.9180   51.1120 C   0  0  0  0  0  0  0  0  0  0  0  0
   38.0440   30.9610   50.4380 C   0  0  0  0  0  0  0  0  0  0  0  0
   37.8500   31.1140   49.0890 C   0  0  0  0  0  0  0  0  0  0  0  0
   37.0000   30.2950   48.4450 N   0  0  0  0  0  0  0  0  0  0  0  0
   36.3230   29.3170   49.0880 C   0  0  0  0  0  0  0  0  0  0  0  0
   36.4940   29.1480   50.3970 N   0  0  0  0  0  0  0  0  0  0  0  0
   37.4450   29.7670   52.1740 H   0  0  0  0  0  0  0  0  0  0  0  0
   38.6860   31.5310   51.0970 H   0  0  0  0  0  0  0  0  0  0  0  0
   35.6930   28.7710   48.3960 H   0  0  0  0  0  0  0  0  0  0  0  0
   39.3620   30.4600   45.1060 C   0  0  0  0  0  0  0  0  0  0  0  0
   39.4960   29.3940   45.3820 H   0  0  0  0  0  0  0  0  0  0  0  0
   38.2960   30.6170   44.7980 H   0  0  0  0  0  0  0  0  0  0  0  0
   40.1730   30.7770   43.8570 C   0  0  0  0  0  0  0  0  0  0  0  0
   41.2440   30.8590   44.0630 H   0  0  0  0  0  0  0  0  0  0  0  0
   39.7860   31.6750   43.3630 H   0  0  0  0  0  0  0  0  0  0  0  0
   39.9120   29.6790   42.9160 N   0  0  0  0  0  0  0  0  0  0  0  0
   39.3790   28.4550   43.0790 C   0  0  0  0  0  0  0  0  0  0  0  0
   39.0550   28.1340   44.0540 H   0  0  0  0  0  0  0  0  0  0  0  0
   39.3590   27.8280   41.8950 N   0  0  0  0  0  0  0  0  0  0  0  0
   39.8760   28.6330   40.9470 C   0  0  0  0  0  0  0  0  0  0  0  0
   40.1110   28.5530   39.5940 C   0  0  0  0  0  0  0  0  0  0  0  0
   39.8560   27.6670   39.0610 H   0  0  0  0  0  0  0  0  0  0  0  0
   40.6660   29.5630   38.8790 N   0  0  0  0  0  0  0  0  0  0  0  0
   40.9900   30.6820   39.5470 C   0  0  0  0  0  0  0  0  0  0  0  0
   41.4350   31.5760   39.1490 H   0  0  0  0  0  0  0  0  0  0  0  0
   40.7760   30.8000   40.8700 N   0  0  0  0  0  0  0  0  0  0  0  0
   40.2270   29.8130   41.6060 C   0  0  0  0  0  0  0  0  0  0  0  0
  1  4  1  6  0  0  0
  1  8  1  0  0  0  0
  2  3  1  0  0  0  0
  2  5  1  0  0  0  0
  2  1  1  0  0  0  0
  3  7  1  1  0  0  0
  3  1  1  0  0  0  0
  6  2  1  0  0  0  0
  8 10  1  0  0  0  0
  8  9  1  0  0  0  0
  8 13  1  0  0  0  0
 11 17  1  0  0  0  0
 12 18  1  0  0  0  0
 12 11  1  0  0  0  0
 13 12  2  0  0  0  0
 14 15  2  0  0  0  0
 14 13  1  0  0  0  0
 15 16  1  0  0  0  0
 16 11  2  0  0  0  0
 19 15  1  0  0  0  0
 20 21  1  0  0  0  0
 20  3  1  0  0  0  0
 22 20  1  0  0  0  0
 23 24  1  0  0  0  0
 23 20  1  0  0  0  0
 25 23  1  0  0  0  0
 26 27  1  0  0  0  0
 26 23  1  0  0  0  0
 27 28  1  0  0  0  0
 29 27  2  0  0  0  0
 30 37  1  0  0  0  0
 30 29  1  0  0  0  0
 31 30  2  0  0  0  0
 32 31  1  0  0  0  0
 33 34  2  0  0  0  0
 33 31  1  0  0  0  0
 34 36  1  0  0  0  0
 35 34  1  0  0  0  0
 36 37  2  0  0  0  0
 37 26  1  0  0  0  0
M  END
>  <minimizedAffinity>
-5.15335464

>  <minimizedRMSD>
0.33126387

$$$$
