
 OpenBabel03262520463D

 37 40  0  0  1  0  0  0  0  0999 V2000
   38.7140   32.2540   46.9270 C   0  0  1  0  0  0  0  0  0  0  0  0
   39.8770   33.0130   46.3130 C   0  0  0  0  0  0  0  0  0  0  0  0
   39.8850   31.5460   46.3770 C   0  0  2  0  0  0  0  0  0  0  0  0
   37.7390   32.2100   46.3860 H   0  0  0  0  0  0  0  0  0  0  0  0
   40.5380   33.6060   46.9690 H   0  0  0  0  0  0  0  0  0  0  0  0
   39.6130   33.4470   45.3060 H   0  0  0  0  0  0  0  0  0  0  0  0
   40.6440   31.1220   47.0980 H   0  0  0  0  0  0  0  0  0  0  0  0
   38.5520   32.4340   48.4200 C   0  0  0  0  0  0  0  0  0  0  0  0
   39.5230   32.5250   48.9230 H   0  0  0  0  0  0  0  0  0  0  0  0
   37.9570   33.3600   48.6090 H   0  0  0  0  0  0  0  0  0  0  0  0
   37.4440   29.9260   50.9680 C   0  0  0  0  0  0  0  0  0  0  0  0
   38.1210   31.0280   50.3350 C   0  0  0  0  0  0  0  0  0  0  0  0
   37.8310   31.2940   49.0210 C   0  0  0  0  0  0  0  0  0  0  0  0
   36.9370   30.5280   48.3720 N   0  0  0  0  0  0  0  0  0  0  0  0
   36.3070   29.4950   48.9750 C   0  0  0  0  0  0  0  0  0  0  0  0
   36.5700   29.2160   50.2490 N   0  0  0  0  0  0  0  0  0  0  0  0
   37.6460   29.6860   52.0010 H   0  0  0  0  0  0  0  0  0  0  0  0
   38.8080   31.5430   50.9940 H   0  0  0  0  0  0  0  0  0  0  0  0
   35.6300   29.0070   48.2850 H   0  0  0  0  0  0  0  0  0  0  0  0
   39.6460   30.6670   45.1940 C   0  0  0  0  0  0  0  0  0  0  0  0
   39.9900   29.6400   45.4320 H   0  0  0  0  0  0  0  0  0  0  0  0
   38.5590   30.6250   44.9200 H   0  0  0  0  0  0  0  0  0  0  0  0
   40.3400   31.1650   43.9330 C   0  0  0  0  0  0  0  0  0  0  0  0
   41.3850   30.8500   43.8790 H   0  0  0  0  0  0  0  0  0  0  0  0
   40.2390   32.2520   43.8410 H   0  0  0  0  0  0  0  0  0  0  0  0
   39.5750   30.6120   42.8060 N   0  0  0  0  0  0  0  0  0  0  0  0
   38.2760   30.6950   42.4660 C   0  0  0  0  0  0  0  0  0  0  0  0
   37.5940   31.2550   43.0810 H   0  0  0  0  0  0  0  0  0  0  0  0
   38.0790   30.0060   41.3330 N   0  0  0  0  0  0  0  0  0  0  0  0
   39.2430   29.4660   40.9210 C   0  0  0  0  0  0  0  0  0  0  0  0
   39.6600   28.6850   39.8690 C   0  0  0  0  0  0  0  0  0  0  0  0
   38.9590   28.3710   39.1310 H   0  0  0  0  0  0  0  0  0  0  0  0
   40.9440   28.2820   39.7110 N   0  0  0  0  0  0  0  0  0  0  0  0
   41.8320   28.6780   40.6410 C   0  0  0  0  0  0  0  0  0  0  0  0
   42.8810   28.4560   40.6770 H   0  0  0  0  0  0  0  0  0  0  0  0
   41.4620   29.4420   41.6840 N   0  0  0  0  0  0  0  0  0  0  0  0
   40.1930   29.8580   41.8670 C   0  0  0  0  0  0  0  0  0  0  0  0
  1  4  1  6  0  0  0
  1  8  1  0  0  0  0
  2  3  1  0  0  0  0
  2  1  1  0  0  0  0
  2  5  1  0  0  0  0
  3  1  1  0  0  0  0
  3  7  1  1  0  0  0
  6  2  1  0  0  0  0
  8 10  1  0  0  0  0
  8  9  1  0  0  0  0
  8 13  1  0  0  0  0
 11 17  1  0  0  0  0
 12 11  1  0  0  0  0
 12 18  1  0  0  0  0
 13 12  2  0  0  0  0
 14 15  2  0  0  0  0
 14 13  1  0  0  0  0
 15 16  1  0  0  0  0
 16 11  2  0  0  0  0
 19 15  1  0  0  0  0
 20 21  1  0  0  0  0
 20  3  1  0  0  0  0
 22 20  1  0  0  0  0
 23 20  1  0  0  0  0
 24 23  1  0  0  0  0
 25 23  1  0  0  0  0
 26 23  1  0  0  0  0
 27 26  1  0  0  0  0
 27 28  1  0  0  0  0
 29 27  2  0  0  0  0
 30 29  1  0  0  0  0
 30 37  1  0  0  0  0
 31 30  2  0  0  0  0
 32 31  1  0  0  0  0
 33 31  1  0  0  0  0
 33 34  2  0  0  0  0
 34 35  1  0  0  0  0
 34 36  1  0  0  0  0
 36 37  2  0  0  0  0
 37 26  1  0  0  0  0
M  END
>  <minimizedAffinity>
-5.23302031

>  <minimizedRMSD>
0.943292737

$$$$
