
 OpenBabel03262520463D

 37 40  0  0  1  0  0  0  0  0999 V2000
   38.6990   32.2030   46.8980 C   0  0  1  0  0  0  0  0  0  0  0  0
   39.8440   32.9720   46.2620 C   0  0  0  0  0  0  0  0  0  0  0  0
   39.8620   31.5040   46.3200 C   0  0  2  0  0  0  0  0  0  0  0  0
   37.7130   32.1560   46.3780 H   0  0  0  0  0  0  0  0  0  0  0  0
   40.5160   33.5660   46.9060 H   0  0  0  0  0  0  0  0  0  0  0  0
   39.5560   33.4080   45.2630 H   0  0  0  0  0  0  0  0  0  0  0  0
   40.6400   31.0820   47.0230 H   0  0  0  0  0  0  0  0  0  0  0  0
   38.5680   32.3770   48.3940 C   0  0  0  0  0  0  0  0  0  0  0  0
   39.5500   32.4430   48.8800 H   0  0  0  0  0  0  0  0  0  0  0  0
   37.9970   33.3140   48.6000 H   0  0  0  0  0  0  0  0  0  0  0  0
   37.4260   29.9000   50.9560 C   0  0  0  0  0  0  0  0  0  0  0  0
   38.1160   30.9890   50.3180 C   0  0  0  0  0  0  0  0  0  0  0  0
   37.8340   31.2490   49.0010 C   0  0  0  0  0  0  0  0  0  0  0  0
   36.9330   30.4890   48.3550 N   0  0  0  0  0  0  0  0  0  0  0  0
   36.2900   29.4670   48.9630 C   0  0  0  0  0  0  0  0  0  0  0  0
   36.5460   29.1940   50.2400 N   0  0  0  0  0  0  0  0  0  0  0  0
   37.6210   29.6650   51.9920 H   0  0  0  0  0  0  0  0  0  0  0  0
   38.8070   31.5010   50.9750 H   0  0  0  0  0  0  0  0  0  0  0  0
   35.6100   28.9800   48.2750 H   0  0  0  0  0  0  0  0  0  0  0  0
   39.6030   30.6290   45.1390 C   0  0  0  0  0  0  0  0  0  0  0  0
   39.7290   29.5700   45.4410 H   0  0  0  0  0  0  0  0  0  0  0  0
   38.5640   30.7650   44.7390 H   0  0  0  0  0  0  0  0  0  0  0  0
   40.5120   30.9400   43.9570 C   0  0  0  0  0  0  0  0  0  0  0  0
   41.5490   30.6440   44.1370 H   0  0  0  0  0  0  0  0  0  0  0  0
   40.4340   31.9970   43.6780 H   0  0  0  0  0  0  0  0  0  0  0  0
   39.9560   30.2010   42.8140 N   0  0  0  0  0  0  0  0  0  0  0  0
   40.1480   28.9470   42.3690 C   0  0  0  0  0  0  0  0  0  0  0  0
   40.8210   28.2880   42.8870 H   0  0  0  0  0  0  0  0  0  0  0  0
   39.3970   28.7550   41.2750 N   0  0  0  0  0  0  0  0  0  0  0  0
   38.7080   29.8790   40.9950 C   0  0  0  0  0  0  0  0  0  0  0  0
   37.8080   30.2790   40.0350 C   0  0  0  0  0  0  0  0  0  0  0  0
   37.5110   29.6010   39.2680 H   0  0  0  0  0  0  0  0  0  0  0  0
   37.2610   31.5190   40.0070 N   0  0  0  0  0  0  0  0  0  0  0  0
   37.6330   32.3760   40.9740 C   0  0  0  0  0  0  0  0  0  0  0  0
   37.3060   33.3900   41.1090 H   0  0  0  0  0  0  0  0  0  0  0  0
   38.5100   32.0220   41.9290 N   0  0  0  0  0  0  0  0  0  0  0  0
   39.0700   30.7960   41.9820 C   0  0  0  0  0  0  0  0  0  0  0  0
  1  4  1  6  0  0  0
  1  8  1  0  0  0  0
  2  3  1  0  0  0  0
  2  1  1  0  0  0  0
  2  5  1  0  0  0  0
  3  1  1  0  0  0  0
  3  7  1  1  0  0  0
  6  2  1  0  0  0  0
  8 10  1  0  0  0  0
  8  9  1  0  0  0  0
  8 13  1  0  0  0  0
 11 17  1  0  0  0  0
 12 11  1  0  0  0  0
 12 18  1  0  0  0  0
 13 12  2  0  0  0  0
 14 15  2  0  0  0  0
 14 13  1  0  0  0  0
 15 16  1  0  0  0  0
 16 11  2  0  0  0  0
 19 15  1  0  0  0  0
 20 21  1  0  0  0  0
 20  3  1  0  0  0  0
 22 20  1  0  0  0  0
 23 24  1  0  0  0  0
 23 20  1  0  0  0  0
 25 23  1  0  0  0  0
 26 23  1  0  0  0  0
 27 26  1  0  0  0  0
 27 28  1  0  0  0  0
 29 27  2  0  0  0  0
 30 29  1  0  0  0  0
 30 37  1  0  0  0  0
 31 30  2  0  0  0  0
 32 31  1  0  0  0  0
 33 31  1  0  0  0  0
 33 34  2  0  0  0  0
 34 35  1  0  0  0  0
 34 36  1  0  0  0  0
 36 37  2  0  0  0  0
 37 26  1  0  0  0  0
M  END
>  <minimizedAffinity>
-5.01115513

>  <minimizedRMSD>
0.474483639

$$$$
