
 OpenBabel03262520463D

 37 40  0  0  1  0  0  0  0  0999 V2000
   38.5460   31.9450   46.9280 C   0  0  1  0  0  0  0  0  0  0  0  0
   39.6640   32.6180   46.1510 C   0  0  0  0  0  0  0  0  0  0  0  0
   39.5710   31.1530   46.2230 C   0  0  2  0  0  0  0  0  0  0  0  0
   37.5030   31.9760   46.5310 H   0  0  0  0  0  0  0  0  0  0  0  0
   40.4530   33.1570   46.7030 H   0  0  0  0  0  0  0  0  0  0  0  0
   39.2930   33.0740   45.1890 H   0  0  0  0  0  0  0  0  0  0  0  0
   40.3910   30.6710   46.8320 H   0  0  0  0  0  0  0  0  0  0  0  0
   38.6100   32.1310   48.4270 C   0  0  0  0  0  0  0  0  0  0  0  0
   39.6440   32.0950   48.7940 H   0  0  0  0  0  0  0  0  0  0  0  0
   38.1670   33.1220   48.6870 H   0  0  0  0  0  0  0  0  0  0  0  0
   37.3180   29.9930   51.2140 C   0  0  0  0  0  0  0  0  0  0  0  0
   38.0450   30.9970   50.4830 C   0  0  0  0  0  0  0  0  0  0  0  0
   37.8400   31.0850   49.1300 C   0  0  0  0  0  0  0  0  0  0  0  0
   36.9780   30.2430   48.5350 N   0  0  0  0  0  0  0  0  0  0  0  0
   36.2990   29.3030   49.2300 C   0  0  0  0  0  0  0  0  0  0  0  0
   36.4800   29.1970   50.5440 N   0  0  0  0  0  0  0  0  0  0  0  0
   37.4520   29.8930   52.2810 H   0  0  0  0  0  0  0  0  0  0  0  0
   38.6970   31.5930   51.1090 H   0  0  0  0  0  0  0  0  0  0  0  0
   35.6590   28.7290   48.5710 H   0  0  0  0  0  0  0  0  0  0  0  0
   39.1020   30.2990   45.0920 C   0  0  0  0  0  0  0  0  0  0  0  0
   39.1810   29.2340   45.3880 H   0  0  0  0  0  0  0  0  0  0  0  0
   38.0360   30.5170   44.8210 H   0  0  0  0  0  0  0  0  0  0  0  0
   39.8810   30.5370   43.8050 C   0  0  0  0  0  0  0  0  0  0  0  0
   40.9240   30.8060   43.9900 H   0  0  0  0  0  0  0  0  0  0  0  0
   39.3750   31.2830   43.1800 H   0  0  0  0  0  0  0  0  0  0  0  0
   39.7990   29.2820   43.0450 N   0  0  0  0  0  0  0  0  0  0  0  0
   39.1290   28.1360   43.2610 C   0  0  0  0  0  0  0  0  0  0  0  0
   38.5100   28.0310   44.1330 H   0  0  0  0  0  0  0  0  0  0  0  0
   39.3910   27.2840   42.2600 N   0  0  0  0  0  0  0  0  0  0  0  0
   40.2340   27.8620   41.3810 C   0  0  0  0  0  0  0  0  0  0  0  0
   40.8400   27.5010   40.2010 C   0  0  0  0  0  0  0  0  0  0  0  0
   40.6660   26.5350   39.7870 H   0  0  0  0  0  0  0  0  0  0  0  0
   41.6700   28.3250   39.5140 N   0  0  0  0  0  0  0  0  0  0  0  0
   41.8920   29.5450   40.0330 C   0  0  0  0  0  0  0  0  0  0  0  0
   42.5130   30.3230   39.6310 H   0  0  0  0  0  0  0  0  0  0  0  0
   41.3180   29.9350   41.1860 N   0  0  0  0  0  0  0  0  0  0  0  0
   40.4890   29.1370   41.8900 C   0  0  0  0  0  0  0  0  0  0  0  0
  1  4  1  6  0  0  0
  1  8  1  0  0  0  0
  2  3  1  0  0  0  0
  2  5  1  0  0  0  0
  2  1  1  0  0  0  0
  3  7  1  1  0  0  0
  3  1  1  0  0  0  0
  6  2  1  0  0  0  0
  8 10  1  0  0  0  0
  8  9  1  0  0  0  0
  8 13  1  0  0  0  0
 11 17  1  0  0  0  0
 12 18  1  0  0  0  0
 12 11  2  0  0  0  0
 13 12  1  0  0  0  0
 14 13  2  0  0  0  0
 14 15  1  0  0  0  0
 15 16  2  0  0  0  0
 16 11  1  0  0  0  0
 19 15  1  0  0  0  0
 20 21  1  0  0  0  0
 20  3  1  0  0  0  0
 22 20  1  0  0  0  0
 23 24  1  0  0  0  0
 23 20  1  0  0  0  0
 25 23  1  0  0  0  0
 26 27  1  0  0  0  0
 26 23  1  0  0  0  0
 27 28  1  0  0  0  0
 29 27  2  0  0  0  0
 30 37  1  0  0  0  0
 30 29  1  0  0  0  0
 31 30  2  0  0  0  0
 32 31  1  0  0  0  0
 33 34  2  0  0  0  0
 33 31  1  0  0  0  0
 34 36  1  0  0  0  0
 35 34  1  0  0  0  0
 36 37  2  0  0  0  0
 37 26  1  0  0  0  0
M  END
>  <minimizedAffinity>
-5.46254635

>  <minimizedRMSD>
0.782657027

$$$$
