
 OpenBabel03272508533D

 36 38  0  0  1  0  0  0  0  0999 V2000
   38.4570   31.7540   44.6120 C   0  0  0  0  0  0  0  0  0  0  0  0
   37.4210   32.4690   44.4720 O   0  0  0  0  0  0  0  0  0  0  0  0
   38.8850   31.3470   45.9150 N   0  0  0  0  0  0  0  0  0  0  0  0
   39.8070   30.9340   46.0840 H   0  0  0  0  0  0  0  0  0  0  0  0
   39.2380   31.3300   43.4380 C   0  0  0  0  0  0  0  0  0  0  0  0
   40.2630   30.4430   43.6300 C   0  0  0  0  0  0  0  0  0  0  0  0
   40.9990   30.0410   42.5230 C   0  0  0  0  0  0  0  0  0  0  0  0
   40.6550   30.5570   41.3080 C   0  0  0  0  0  0  0  0  0  0  0  0
   39.6070   31.4680   41.0940 C   0  0  0  0  0  0  0  0  0  0  0  0
   38.9480   31.8040   42.2130 N   0  0  0  0  0  0  0  0  0  0  0  0
   40.5260   30.0430   44.5930 H   0  0  0  0  0  0  0  0  0  0  0  0
   41.8190   29.3420   42.6220 H   0  0  0  0  0  0  0  0  0  0  0  0
   41.2340   30.2370   40.4560 H   0  0  0  0  0  0  0  0  0  0  0  0
   39.2990   31.9780   39.7450 C   0  0  0  0  0  2  0  0  0  0  0  0
   38.5120   31.0890   38.9390 N   0  0  0  0  0  4  0  0  0  0  0  0
   37.9430   31.6640   38.2780 H   0  0  0  0  0  0  0  0  0  0  0  0
   39.3180   30.1900   38.1300 C   0  0  0  0  0  2  0  0  0  0  0  0
   40.1690   30.7360   37.7090 H   0  0  0  0  0  0  0  0  0  0  0  0
   37.5740   30.3170   39.7690 C   0  0  0  0  0  2  0  0  0  0  0  0
   36.5360   30.5980   39.5760 H   0  0  0  0  0  0  0  0  0  0  0  0
   38.0970   30.7210   48.1980 C   0  0  2  0  0  0  0  0  0  0  0  0
   38.6520   32.0810   48.2970 C   0  0  0  0  0  0  0  0  0  0  0  0
   37.9610   31.5360   47.0180 C   0  0  1  0  0  0  0  0  0  0  0  0
   38.8950   29.9310   48.2570 H   0  0  0  0  0  0  0  0  0  0  0  0
   38.0870   32.8600   48.8590 H   0  0  0  0  0  0  0  0  0  0  0  0
   39.7250   32.2600   48.2520 H   0  0  0  0  0  0  0  0  0  0  0  0
   36.9840   32.0120   46.7870 H   0  0  0  0  0  0  0  0  0  0  0  0
   34.5650   30.0550   49.0460 C   0  0  0  0  0  0  0  0  0  0  0  0
   34.6630   29.5110   50.3540 C   0  0  0  0  0  0  0  0  0  0  0  0
   35.9810   29.3930   50.9340 C   0  0  0  0  0  0  0  0  0  0  0  0
   37.0550   29.8000   50.2100 N   0  0  0  0  0  0  0  0  0  0  0  0
   36.8870   30.3130   48.9590 C   0  0  0  0  0  0  0  0  0  0  0  0
   35.6550   30.4520   48.3510 N   0  0  0  0  0  0  0  0  0  0  0  0
   33.5540   30.1190   48.6660 H   0  0  0  0  0  0  0  0  0  0  0  0
   33.7890   29.2040   50.8860 H   0  0  0  0  0  0  0  0  0  0  0  0
   36.0630   28.9800   51.9300 H   0  0  0  0  0  0  0  0  0  0  0  0
  1  3  1  0  0  0  0
  2  1  2  0  0  0  0
  3  4  1  0  0  0  0
  3 23  1  0  0  0  0
  5  6  1  0  0  0  0
  5  1  1  0  0  0  0
  6 11  1  0  0  0  0
  7 12  1  0  0  0  0
  7  6  2  0  0  0  0
  8  7  1  0  0  0  0
  9  8  2  0  0  0  0
  9 10  1  0  0  0  0
 10  5  2  0  0  0  0
 13  8  1  0  0  0  0
 14  9  1  0  0  0  0
 15 14  1  0  0  0  0
 15 19  1  0  0  0  0
 16 15  1  0  0  0  0
 17 15  1  0  0  0  0
 18 17  1  0  0  0  0
 20 19  1  0  0  0  0
 21 24  1  6  0  0  0
 21 22  1  0  0  0  0
 21 32  1  0  0  0  0
 22 25  1  0  0  0  0
 23 27  1  6  0  0  0
 23 21  1  0  0  0  0
 23 22  1  0  0  0  0
 26 22  1  0  0  0  0
 28 29  1  0  0  0  0
 29 35  1  0  0  0  0
 29 30  2  0  0  0  0
 30 36  1  0  0  0  0
 31 30  1  0  0  0  0
 32 31  2  0  0  0  0
 33 32  1  0  0  0  0
 33 28  2  0  0  0  0
 34 28  1  0  0  0  0
M  END
>  <minimizedAffinity>
-4.7811532

>  <minimizedRMSD>
0.984511316

$$$$
