
 OpenBabel03272507223D

 41 44  0  0  1  0  0  0  0  0999 V2000
   37.1530   31.8830   48.9750 C   0  0  0  0  0  0  0  0  0  0  0  0
   37.6980   32.9860   49.5920 C   0  0  0  0  0  0  0  0  0  0  0  0
   38.7760   33.5750   48.9200 C   0  0  0  0  0  0  0  0  0  0  0  0
   39.2230   33.0600   47.7380 N   0  0  0  0  0  0  0  0  0  0  0  0
   38.6620   31.9730   47.1590 C   0  0  0  0  0  0  0  0  0  0  0  0
   37.6150   31.3870   47.7960 N   0  0  0  0  0  0  0  0  0  0  0  0
   37.3840   33.4190   50.5100 H   0  0  0  0  0  0  0  0  0  0  0  0
   39.2670   34.4490   49.3360 H   0  0  0  0  0  0  0  0  0  0  0  0
   40.0950   32.1640   45.2050 C   0  0  0  0  0  0  0  0  0  0  0  0
   39.1550   31.4290   45.8930 C   0  0  0  0  0  0  0  0  0  0  0  0
   38.7110   30.2210   45.3750 C   0  0  0  0  0  0  0  0  0  0  0  0
   39.1680   29.7000   44.1800 C   0  0  0  0  0  0  0  0  0  0  0  0
   38.9160   28.5870   43.4710 N   0  0  0  0  0  0  0  0  0  0  0  0
   39.6960   28.6580   42.3740 C   0  0  0  0  0  0  0  0  0  0  0  0
   40.4210   29.7850   42.3900 N   0  0  0  0  0  0  0  0  0  0  0  0
   40.1200   30.4710   43.5110 C   0  0  0  0  0  0  0  0  0  0  0  0
   40.5820   31.6800   44.0030 C   0  0  0  0  0  0  0  0  0  0  0  0
   40.4770   33.1080   45.5590 H   0  0  0  0  0  0  0  0  0  0  0  0
   37.9710   29.6600   45.9340 H   0  0  0  0  0  0  0  0  0  0  0  0
   38.2280   27.8610   43.7910 H   0  0  0  0  0  0  0  0  0  0  0  0
   39.7210   27.9040   41.6010 H   0  0  0  0  0  0  0  0  0  0  0  0
   41.3260   32.2240   43.4220 H   0  0  0  0  0  0  0  0  0  0  0  0
   35.9960   31.2060   49.6730 C   0  0  1  0  0  0  0  0  0  0  0  0
   34.9600   30.5340   48.9240 C   0  0  2  0  0  0  0  0  0  0  0  0
   36.0820   29.6870   49.5680 C   0  0  2  0  0  0  0  0  0  0  0  0
   35.7340   31.6980   50.6370 H   0  0  0  0  0  0  0  0  0  0  0  0
   34.0610   30.0790   49.4740 H   0  0  0  0  0  0  0  0  0  0  0  0
   36.7620   29.2490   48.8410 H   0  0  0  0  0  0  0  0  0  0  0  0
   35.0000   30.5480   47.5720 O   0  0  0  0  0  0  0  0  0  0  0  0
   34.1880   30.2900   46.5520 C   0  0  0  0  0  0  0  0  0  0  0  0
   34.6590   29.5000   45.6750 O   0  0  0  0  0  0  0  0  0  0  0  0
   32.9640   30.9100   46.5900 N   0  0  0  0  0  0  0  0  0  0  0  0
   32.0450   30.5570   46.9470 H   0  0  0  0  0  0  0  0  0  0  0  0
   32.7640   31.8800   46.2490 H   0  0  0  0  0  0  0  0  0  0  0  0
   35.8950   29.0100   50.8770 C   0  0  0  0  0  2  0  0  0  0  0  0
   37.0910   28.7550   51.6140 N   0  0  0  0  0  4  0  0  0  0  0  0
   36.9220   27.9870   52.3030 H   0  0  0  0  0  0  0  0  0  0  0  0
   38.2390   28.3930   50.8360 C   0  0  0  0  0  2  0  0  0  0  0  0
   39.1110   28.4170   51.5380 H   0  0  0  0  0  0  0  0  0  0  0  0
   37.4290   29.9200   52.4110 C   0  0  0  0  0  2  0  0  0  0  0  0
   38.3050   30.4680   51.9610 H   0  0  0  0  0  0  0  0  0  0  0  0
  1  2  1  0  0  0  0
  1 23  1  0  0  0  0
  2  7  1  0  0  0  0
  3  8  1  0  0  0  0
  3  2  2  0  0  0  0
  4  3  1  0  0  0  0
  5  4  2  0  0  0  0
  5  6  1  0  0  0  0
  6  1  2  0  0  0  0
  9 18  1  0  0  0  0
  9 10  1  0  0  0  0
 10  5  1  0  0  0  0
 11 10  2  0  0  0  0
 11 19  1  0  0  0  0
 12 11  1  0  0  0  0
 13 20  1  0  0  0  0
 13 12  1  0  0  0  0
 14 15  2  0  0  0  0
 14 13  1  0  0  0  0
 15 16  1  0  0  0  0
 16 17  1  0  0  0  0
 16 12  2  0  0  0  0
 17  9  2  0  0  0  0
 21 14  1  0  0  0  0
 22 17  1  0  0  0  0
 23 26  1  1  0  0  0
 24 27  1  1  0  0  0
 24 25  1  0  0  0  0
 24 23  1  0  0  0  0
 25 28  1  6  0  0  0
 25 23  1  0  0  0  0
 25 35  1  0  0  0  0
 29 24  1  0  0  0  0
 30 32  1  0  0  0  0
 30 29  1  0  0  0  0
 31 30  2  0  0  0  0
 32 33  1  0  0  0  0
 34 32  1  0  0  0  0
 35 36  1  0  0  0  0
 36 37  1  0  0  0  0
 36 40  1  0  0  0  0
 38 39  1  0  0  0  0
 38 36  1  0  0  0  0
 41 40  1  0  0  0  0
M  END
>  <minimizedAffinity>
-5.25616121

>  <minimizedRMSD>
0.922068596

$$$$
