REMARK  Name = 
REMARK  6 active torsions:
REMARK  status: ('A' for Active; 'I' for Inactive)
REMARK    1  A    between atoms: C_1  and  C_14
REMARK    2  A    between atoms: C_2  and  C_9
REMARK    3  A    between atoms: C_11  and  C_25
REMARK    4  A    between atoms: C_25  and  N_26
REMARK    5  A    between atoms: N_26  and  C_27
REMARK    6  A    between atoms: N_26  and  C_29
REMARK                            x       y       z     vdW  Elec       q    Type
REMARK                         _______ _______ _______ _____ _____    ______ ____
ROOT
ATOM      1  C   UNL     1      38.868  32.349  47.532  0.00  0.00    +0.000 A 
ATOM      2  C   UNL     1      38.333  31.113  47.332  0.00  0.00    +0.000 A 
ATOM      3  C   UNL     1      38.790  30.405  46.246  0.00  0.00    +0.000 A 
ATOM      4  C   UNL     1      39.722  30.888  45.404  0.00  0.00    +0.000 A 
ATOM      5  C   UNL     1      40.285  32.145  45.582  0.00  0.00    +0.000 A 
ATOM      6  C   UNL     1      39.831  32.856  46.667  0.00  0.00    +0.000 A 
ATOM      7  H   UNL     1      38.364  29.417  46.084  0.00  0.00    +0.000 HD
ATOM      8  H   UNL     1      40.025  30.256  44.568  0.00  0.00    +0.000 HD
ATOM      9  H   UNL     1      41.029  32.482  44.875  0.00  0.00    +0.000 HD
ATOM     10  H   UNL     1      40.318  33.822  46.733  0.00  0.00    +0.000 HD
ENDROOT
BRANCH   2  13
ATOM     11  C   UNL     1      36.844  29.312  50.241  0.00  0.00    +0.000 A 
ATOM     12  C   UNL     1      37.749  29.836  49.299  0.00  0.00    +0.000 A 
ATOM     13  C   UNL     1      37.331  30.622  48.245  0.00  0.00    +0.000 A 
ATOM     14  N   UNL     1      35.992  30.822  48.226  0.00  0.00    +0.000 NA
ATOM     15  C   UNL     1      35.112  30.337  49.105  0.00  0.00    +0.000 A 
ATOM     16  N   UNL     1      35.549  29.574  50.123  0.00  0.00    +0.000 NA
ATOM     17  H   UNL     1      37.209  28.698  51.057  0.00  0.00    +0.000 HD
ATOM     18  H   UNL     1      38.799  29.604  49.425  0.00  0.00    +0.000 HD
BRANCH  15  19
ATOM     19  C   UNL     1      33.666  30.650  48.942  0.00  0.00    +0.000 C 
BRANCH  19  20
ATOM     20  N   UNL     1      32.792  29.832  49.711  0.00  0.00    +0.000 N 
ATOM     21  H   UNL     1      32.036  29.468  49.086  0.00  0.00    +0.000 HD
BRANCH  20  22
ATOM     22  C   UNL     1      32.111  30.597  50.751  0.00  0.00    +0.000 C 
ATOM     23  H   UNL     1      31.201  30.083  51.073  0.00  0.00    +0.000 HD
ENDBRANCH  20  22
BRANCH  20  24
ATOM     24  C   UNL     1      33.439  28.678  50.296  0.00  0.00    +0.000 C 
ATOM     25  H   UNL     1      34.331  28.948  50.901  0.00  0.00    +0.000 HD
ENDBRANCH  20  24
ENDBRANCH  19  20
ENDBRANCH  15  19
ENDBRANCH   2  13
BRANCH   1  27
ATOM     26  N   UNL     1      39.349  34.314  48.822  0.00  0.00    +0.000 NA
ATOM     27  C   UNL     1      38.574  33.271  48.589  0.00  0.00    +0.000 C 
ATOM     28  N   UNL     1      37.664  33.551  49.623  0.00  0.00    +0.000 N 
ATOM     29  H   UNL     1      39.147  34.948  49.631  0.00  0.00    +0.000 HD
ATOM     30  H   UNL     1      37.820  33.079  50.541  0.00  0.00    +0.000 HD
ATOM     31  H   UNL     1      36.845  34.194  49.537  0.00  0.00    +0.000 HD
ENDBRANCH   1  27
TORSDOF 6
