
 OpenBabel03272507193D

 28 29  0  0  1  0  0  0  0  0999 V2000
   37.5930   31.3000   49.4330 C   0  0  0  0  0  0  0  0  0  0  0  0
   38.3450   32.4510   49.6230 C   0  0  0  0  0  0  0  0  0  0  0  0
   38.8690   33.0000   48.4350 C   0  0  0  0  0  0  0  0  0  0  0  0
   38.6300   32.4120   47.2170 N   0  0  0  0  0  0  0  0  0  0  0  0
   37.8870   31.2880   47.0900 C   0  0  0  0  0  0  0  0  0  0  0  0
   37.3600   30.7240   48.2290 N   0  0  0  0  0  0  0  0  0  0  0  0
   38.5120   32.8820   50.5790 H   0  0  0  0  0  0  0  0  0  0  0  0
   39.4640   33.8960   48.5180 H   0  0  0  0  0  0  0  0  0  0  0  0
   36.9940   30.7000   50.6680 C   0  0  1  0  0  0  0  0  0  0  0  0
   36.1180   29.5320   50.6140 C   0  0  2  0  0  0  0  0  0  0  0  0
   37.5570   29.2970   50.9680 C   0  0  0  0  0  0  0  0  0  0  0  0
   36.9680   31.3830   51.5520 H   0  0  0  0  0  0  0  0  0  0  0  0
   35.3090   29.5630   51.3940 H   0  0  0  0  0  0  0  0  0  0  0  0
   38.2300   28.8220   50.2560 H   0  0  0  0  0  0  0  0  0  0  0  0
   37.6940   29.0800   52.0600 H   0  0  0  0  0  0  0  0  0  0  0  0
   35.6630   29.1380   49.3630 O   0  0  0  0  0  0  0  0  0  0  0  0
   34.4780   28.5860   49.0060 C   0  0  0  0  0  0  0  0  0  0  0  0
   34.3960   27.6870   48.1420 O   0  0  0  0  0  0  0  0  0  0  0  0
   33.4680   29.1980   49.7520 N   0  0  0  0  0  0  0  0  0  0  0  0
   33.2260   29.0500   50.7430 H   0  0  0  0  0  0  0  0  0  0  0  0
   32.7460   29.9230   49.4940 H   0  0  0  0  0  0  0  0  0  0  0  0
   37.6410   30.6700   45.7630 C   0  0  0  0  0  2  0  0  0  0  0  0
   36.6910   31.3680   44.9670 N   0  0  0  0  0  4  0  0  0  0  0  0
   36.1760   32.0320   45.5910 H   0  0  0  0  0  0  0  0  0  0  0  0
   37.2900   32.2090   43.9470 C   0  0  0  0  0  2  0  0  0  0  0  0
   37.5020   33.2340   44.3610 H   0  0  0  0  0  0  0  0  0  0  0  0
   35.6990   30.4730   44.4140 C   0  0  0  0  0  2  0  0  0  0  0  0
   35.1370   31.0570   43.6480 H   0  0  0  0  0  0  0  0  0  0  0  0
  1  2  1  0  0  0  0
  1  9  1  0  0  0  0
  2  7  1  0  0  0  0
  3  8  1  0  0  0  0
  3  2  2  0  0  0  0
  4  3  1  0  0  0  0
  5  4  2  0  0  0  0
  5  6  1  0  0  0  0
  6  1  2  0  0  0  0
  9 11  1  0  0  0  0
  9 12  1  1  0  0  0
 10  9  1  0  0  0  0
 10 11  1  0  0  0  0
 10 13  1  1  0  0  0
 11 15  1  0  0  0  0
 14 11  1  0  0  0  0
 16 10  1  0  0  0  0
 17 16  1  0  0  0  0
 17 19  1  0  0  0  0
 18 17  2  0  0  0  0
 19 20  1  0  0  0  0
 21 19  1  0  0  0  0
 22  5  1  0  0  0  0
 23 24  1  0  0  0  0
 23 22  1  0  0  0  0
 25 26  1  0  0  0  0
 25 23  1  0  0  0  0
 27 23  1  0  0  0  0
 28 27  1  0  0  0  0
M  END
>  <minimizedAffinity>
-5.00793171

>  <minimizedRMSD>
1.41775787

$$$$
