
 OpenBabel03272508333D

 45 48  0  0  1  0  0  0  0  0999 V2000
   34.4970   30.2920   46.3540 N   0  0  0  0  0  0  0  0  0  0  0  0
   33.2860   30.9840   46.7350 C   0  0  0  0  0  0  0  0  0  0  0  0
   32.2250   30.9160   45.6890 C   0  0  0  0  0  0  0  0  0  0  0  0
   32.4100   29.7430   44.8720 N   0  0  0  0  0  0  0  0  0  0  0  0
   33.6220   29.9620   44.0760 C   0  0  0  0  0  0  0  0  0  0  0  0
   34.7670   29.7190   44.9920 C   0  0  1  0  0  0  0  0  0  0  0  0
   33.3990   32.0210   47.0310 H   0  0  0  0  0  0  0  0  0  0  0  0
   32.9050   30.4150   47.6160 H   0  0  0  0  0  0  0  0  0  0  0  0
   31.2230   30.8840   46.1990 H   0  0  0  0  0  0  0  0  0  0  0  0
   32.2040   31.8140   45.0420 H   0  0  0  0  0  0  0  0  0  0  0  0
   31.5980   29.5340   44.2680 H   0  0  0  0  0  0  0  0  0  0  0  0
   33.5560   30.9990   43.7340 H   0  0  0  0  0  0  0  0  0  0  0  0
   33.6090   29.2170   43.2620 H   0  0  0  0  0  0  0  0  0  0  0  0
   34.8760   28.6270   45.1860 H   0  0  0  0  0  0  0  0  0  0  0  0
   36.2840   31.5020   44.0030 C   0  0  0  0  0  0  0  0  0  0  0  0
   36.0520   30.1800   44.4590 C   0  0  0  0  0  0  0  0  0  0  0  0
   37.0730   29.2650   44.4850 C   0  0  0  0  0  0  0  0  0  0  0  0
   38.3140   29.6750   44.0640 C   0  0  0  0  0  0  0  0  0  0  0  0
   38.5400   31.0120   43.6020 C   0  0  0  0  0  0  0  0  0  0  0  0
   37.5040   31.9710   43.5620 C   0  0  0  0  0  0  0  0  0  0  0  0
   39.8910   31.1830   43.2200 O   0  0  0  0  0  0  0  0  0  0  0  0
   40.5800   30.1220   43.8170 C   0  0  0  0  0  0  0  0  0  0  0  0
   39.5720   29.0930   43.9490 O   0  0  0  0  0  0  0  0  0  0  0  0
   35.4340   32.1660   44.0040 H   0  0  0  0  0  0  0  0  0  0  0  0
   37.1820   28.2320   44.6910 H   0  0  0  0  0  0  0  0  0  0  0  0
   37.6570   32.9690   43.2100 H   0  0  0  0  0  0  0  0  0  0  0  0
   40.7990   30.3950   44.8800 H   0  0  0  0  0  0  0  0  0  0  0  0
   41.4770   29.7740   43.3130 H   0  0  0  0  0  0  0  0  0  0  0  0
   35.3400   29.0340   48.2760 C   0  0  0  0  0  0  0  0  0  0  0  0
   35.4900   30.1110   47.3500 C   0  0  0  0  0  0  0  0  0  0  0  0
   36.6100   30.8650   47.4580 C   0  0  0  0  0  0  0  0  0  0  0  0
   37.5220   30.5420   48.4480 N   0  0  0  0  0  0  0  0  0  0  0  0
   37.3500   29.5380   49.2830 C   0  0  0  0  0  0  0  0  0  0  0  0
   36.2760   28.7750   49.2190 N   0  0  0  0  0  0  0  0  0  0  0  0
   38.3550   29.2900   50.2600 N   0  0  0  0  0  0  0  0  0  0  0  0
   34.4580   28.4130   48.2310 H   0  0  0  0  0  0  0  0  0  0  0  0
   38.6490   28.3170   50.4880 H   0  0  0  0  0  0  0  0  0  0  0  0
   38.7700   30.1480   50.7260 H   0  0  0  0  0  0  0  0  0  0  0  0
   37.0150   32.0530   46.7180 C   0  0  0  0  0  2  0  0  0  0  0  0
   38.1880   32.7390   47.1770 N   0  0  0  0  0  4  0  0  0  0  0  0
   38.3870   33.5460   46.5510 H   0  0  0  0  0  0  0  0  0  0  0  0
   38.2980   32.9850   48.5720 C   0  0  0  0  0  2  0  0  0  0  0  0
   38.8270   33.9850   48.6690 H   0  0  0  0  0  0  0  0  0  0  0  0
   39.3260   31.7970   46.8810 C   0  0  0  0  0  2  0  0  0  0  0  0
   40.2470   32.3800   46.9660 H   0  0  0  0  0  0  0  0  0  0  0  0
  1  2  1  0  0  0  0
  1 30  1  0  0  0  0
  2  7  1  0  0  0  0
  2  8  1  0  0  0  0
  3  9  1  0  0  0  0
  3  2  1  0  0  0  0
  4  3  1  0  0  0  0
  5  4  1  0  0  0  0
  5  6  1  0  0  0  0
  6 14  1  1  0  0  0
  6  1  1  0  0  0  0
 10  3  1  0  0  0  0
 11  4  1  0  0  0  0
 12  5  1  0  0  0  0
 13  5  1  0  0  0  0
 15 24  1  0  0  0  0
 15 16  1  0  0  0  0
 16 17  2  0  0  0  0
 16  6  1  0  0  0  0
 17 25  1  0  0  0  0
 18 17  1  0  0  0  0
 19 18  2  0  0  0  0
 20 19  1  0  0  0  0
 20 15  2  0  0  0  0
 21 19  1  0  0  0  0
 21 22  1  0  0  0  0
 22 23  1  0  0  0  0
 22 27  1  0  0  0  0
 23 18  1  0  0  0  0
 26 20  1  0  0  0  0
 28 22  1  0  0  0  0
 29 34  1  0  0  0  0
 30 31  1  0  0  0  0
 30 29  2  0  0  0  0
 31 32  2  0  0  0  0
 32 33  1  0  0  0  0
 33 35  1  0  0  0  0
 34 33  2  0  0  0  0
 35 37  1  0  0  0  0
 35 38  1  0  0  0  0
 36 29  1  0  0  0  0
 39 40  1  0  0  0  0
 39 31  1  0  0  0  0
 40 42  1  0  0  0  0
 41 40  1  0  0  0  0
 42 43  1  0  0  0  0
 44 45  1  0  0  0  0
 44 40  1  0  0  0  0
M  END
>  <minimizedAffinity>
-2.9834609

>  <minimizedRMSD>
3.38768458

$$$$
