
 OpenBabel03272508043D

 33 35  0  0  0  0  0  0  0  0999 V2000
   38.9390   30.9130   45.7440 C   0  0  0  0  0  0  0  0  0  0  0  0
   40.1280   31.5530   45.9870 C   0  0  0  0  0  0  0  0  0  0  0  0
   40.9440   31.4760   44.8740 C   0  0  0  0  0  0  0  0  0  0  0  0
   40.1940   30.7730   43.9750 N   0  0  0  0  0  0  0  0  0  0  0  0
   39.0270   30.4420   44.4740 N   0  0  0  0  0  0  0  0  0  0  0  0
   40.4130   32.0570   46.9180 H   0  0  0  0  0  0  0  0  0  0  0  0
   41.9390   31.8550   44.6900 H   0  0  0  0  0  0  0  0  0  0  0  0
   37.8010   30.7600   46.6470 C   0  0  0  0  0  0  0  0  0  0  0  0
   38.0260   30.9990   48.0280 C   0  0  0  0  0  0  0  0  0  0  0  0
   36.9460   30.8550   48.8940 C   0  0  0  0  0  0  0  0  0  0  0  0
   35.7400   30.4920   48.3640 N   0  0  0  0  0  0  0  0  0  0  0  0
   35.5580   30.2710   47.0440 C   0  0  0  0  0  0  0  0  0  0  0  0
   36.5950   30.4070   46.1960 N   0  0  0  0  0  0  0  0  0  0  0  0
   39.0200   31.2870   48.3840 H   0  0  0  0  0  0  0  0  0  0  0  0
   34.6070   29.9880   46.6450 H   0  0  0  0  0  0  0  0  0  0  0  0
   37.1600   31.1010   50.3520 C   0  0  0  0  0  0  0  0  0  0  0  0
   36.6390   32.3490   50.5910 F   0  0  0  0  0  0  0  0  0  0  0  0
   36.4800   30.1880   51.1420 F   0  0  0  0  0  0  0  0  0  0  0  0
   38.5060   31.1050   50.6830 F   0  0  0  0  0  0  0  0  0  0  0  0
   40.5560   30.3910   42.6140 C   0  0  0  0  0  0  0  0  0  0  0  0
   40.1450   31.1530   41.5120 C   0  0  0  0  0  0  0  0  0  0  0  0
   40.5020   30.7850   40.2590 C   0  0  0  0  0  0  0  0  0  0  0  0
   41.2950   29.6180   40.0920 C   0  0  0  0  0  0  0  0  0  0  0  0
   41.5170   29.0500   41.8520 S   0  0  0  0  0  0  0  0  0  0  0  0
   39.5350   32.0560   41.5900 H   0  0  0  0  0  0  0  0  0  0  0  0
   40.3040   31.2130   39.2950 H   0  0  0  0  0  0  0  0  0  0  0  0
   41.9080   28.8490   39.0030 C   0  0  0  0  0  2  0  0  0  0  0  0
   42.9260   29.5590   38.2850 N   0  0  0  0  0  4  0  0  0  0  0  0
   42.5770   29.7610   37.3300 H   0  0  0  0  0  0  0  0  0  0  0  0
   43.2490   30.7660   39.0210 C   0  0  0  0  0  2  0  0  0  0  0  0
   43.4460   31.5930   38.3250 H   0  0  0  0  0  0  0  0  0  0  0  0
   44.1250   28.7440   38.1540 C   0  0  0  0  0  2  0  0  0  0  0  0
   44.6750   29.0860   37.2730 H   0  0  0  0  0  0  0  0  0  0  0  0
  1  2  1  0  0  0  0
  1  8  1  0  0  0  0
  2  6  1  0  0  0  0
  3  2  2  0  0  0  0
  4  5  1  0  0  0  0
  4  3  1  0  0  0  0
  5  1  2  0  0  0  0
  7  3  1  0  0  0  0
  8  9  1  0  0  0  0
  9 14  1  0  0  0  0
  9 10  2  0  0  0  0
 10 16  1  0  0  0  0
 11 10  1  0  0  0  0
 12 11  2  0  0  0  0
 13  8  2  0  0  0  0
 13 12  1  0  0  0  0
 15 12  1  0  0  0  0
 16 17  1  0  0  0  0
 16 19  1  0  0  0  0
 16 18  1  0  0  0  0
 20  4  1  0  0  0  0
 21 25  1  0  0  0  0
 21 20  2  0  0  0  0
 22 21  1  0  0  0  0
 23 22  2  0  0  0  0
 23 24  1  0  0  0  0
 24 20  1  0  0  0  0
 26 22  1  0  0  0  0
 27 23  1  0  0  0  0
 28 27  1  0  0  0  0
 28 30  1  0  0  0  0
 29 28  1  0  0  0  0
 31 30  1  0  0  0  0
 32 28  1  0  0  0  0
 33 32  1  0  0  0  0
M  END
>  <minimizedAffinity>
-5.98893213

>  <minimizedRMSD>
0.48332116

$$$$
