
 OpenBabel03272508043D

 33 35  0  0  0  0  0  0  0  0999 V2000
   38.8960   30.9090   45.8030 C   0  0  0  0  0  0  0  0  0  0  0  0
   40.0690   31.5690   46.0680 C   0  0  0  0  0  0  0  0  0  0  0  0
   40.9080   31.5030   44.9710 C   0  0  0  0  0  0  0  0  0  0  0  0
   40.1870   30.7860   44.0600 N   0  0  0  0  0  0  0  0  0  0  0  0
   39.0150   30.4380   44.5370 N   0  0  0  0  0  0  0  0  0  0  0  0
   40.3280   32.0790   47.0030 H   0  0  0  0  0  0  0  0  0  0  0  0
   41.9000   31.8970   44.8060 H   0  0  0  0  0  0  0  0  0  0  0  0
   37.7440   30.7400   46.6840 C   0  0  0  0  0  0  0  0  0  0  0  0
   37.9480   30.9430   48.0750 C   0  0  0  0  0  0  0  0  0  0  0  0
   36.8540   30.7830   48.9210 C   0  0  0  0  0  0  0  0  0  0  0  0
   35.6550   30.4390   48.3630 N   0  0  0  0  0  0  0  0  0  0  0  0
   35.4920   30.2520   47.0350 C   0  0  0  0  0  0  0  0  0  0  0  0
   36.5430   30.4040   46.2070 N   0  0  0  0  0  0  0  0  0  0  0  0
   38.9380   31.2180   48.4530 H   0  0  0  0  0  0  0  0  0  0  0  0
   34.5460   29.9840   46.6140 H   0  0  0  0  0  0  0  0  0  0  0  0
   37.0470   30.9930   50.3870 C   0  0  0  0  0  0  0  0  0  0  0  0
   36.5440   32.2440   50.6450 F   0  0  0  0  0  0  0  0  0  0  0  0
   36.3360   30.0740   51.1440 F   0  0  0  0  0  0  0  0  0  0  0  0
   38.3860   30.9640   50.7410 F   0  0  0  0  0  0  0  0  0  0  0  0
   40.5810   30.4070   42.7060 C   0  0  0  0  0  0  0  0  0  0  0  0
   40.1840   31.1650   41.5950 C   0  0  0  0  0  0  0  0  0  0  0  0
   40.5710   30.7990   40.3510 C   0  0  0  0  0  0  0  0  0  0  0  0
   41.3800   29.6420   40.2000 C   0  0  0  0  0  0  0  0  0  0  0  0
   41.5720   29.0780   41.9650 S   0  0  0  0  0  0  0  0  0  0  0  0
   39.5620   32.0600   41.6600 H   0  0  0  0  0  0  0  0  0  0  0  0
   40.3870   31.2250   39.3820 H   0  0  0  0  0  0  0  0  0  0  0  0
   42.0240   28.8790   39.1240 C   0  0  0  0  0  2  0  0  0  0  0  0
   41.1310   28.0360   38.3860 N   0  0  0  0  0  4  0  0  0  0  0  0
   41.6850   27.4730   37.7160 H   0  0  0  0  0  0  0  0  0  0  0  0
   40.3980   27.2090   39.3250 C   0  0  0  0  0  2  0  0  0  0  0  0
   40.2490   26.2040   38.9100 H   0  0  0  0  0  0  0  0  0  0  0  0
   40.1890   28.8360   37.6180 C   0  0  0  0  0  2  0  0  0  0  0  0
   39.8500   28.2410   36.7670 H   0  0  0  0  0  0  0  0  0  0  0  0
  1  2  1  0  0  0  0
  1  8  1  0  0  0  0
  2  6  1  0  0  0  0
  3  2  2  0  0  0  0
  4  5  1  0  0  0  0
  4  3  1  0  0  0  0
  5  1  2  0  0  0  0
  7  3  1  0  0  0  0
  8  9  1  0  0  0  0
  9 14  1  0  0  0  0
  9 10  2  0  0  0  0
 10 16  1  0  0  0  0
 11 10  1  0  0  0  0
 12 11  2  0  0  0  0
 13  8  2  0  0  0  0
 13 12  1  0  0  0  0
 15 12  1  0  0  0  0
 16 17  1  0  0  0  0
 16 19  1  0  0  0  0
 16 18  1  0  0  0  0
 20  4  1  0  0  0  0
 21 25  1  0  0  0  0
 21 20  2  0  0  0  0
 22 21  1  0  0  0  0
 23 22  2  0  0  0  0
 23 24  1  0  0  0  0
 24 20  1  0  0  0  0
 26 22  1  0  0  0  0
 27 23  1  0  0  0  0
 28 27  1  0  0  0  0
 28 30  1  0  0  0  0
 29 28  1  0  0  0  0
 31 30  1  0  0  0  0
 32 28  1  0  0  0  0
 33 32  1  0  0  0  0
M  END
>  <minimizedAffinity>
-5.80408239

>  <minimizedRMSD>
0.140938506

$$$$
