REMARK  Name = 
REMARK  7 active torsions:
REMARK  status: ('A' for Active; 'I' for Inactive)
REMARK    1  A    between atoms: C_2  and  S_8
REMARK    2  A    between atoms: C_6  and  O_7
REMARK    3  A    between atoms: S_8  and  C_9
REMARK    4  A    between atoms: C_13  and  C_25
REMARK    5  A    between atoms: C_25  and  N_26
REMARK    6  A    between atoms: N_26  and  C_27
REMARK    7  A    between atoms: N_26  and  C_29
REMARK                            x       y       z     vdW  Elec       q    Type
REMARK                         _______ _______ _______ _____ _____    ______ ____
ROOT
ATOM      1  S   UNL     1      36.181  29.447  49.331  0.00  0.00    +0.000 S 
ENDROOT
BRANCH   1   3
ATOM      2  N   UNL     1      33.601  28.706  49.030  0.00  0.00    +0.000 NA
ATOM      3  C   UNL     1      34.446  29.882  48.928  0.00  0.00    +0.000 C 
ATOM      4  C   UNL     1      34.380  30.385  47.502  0.00  0.00    +0.000 C 
ATOM      5  O   UNL     1      33.253  29.864  46.827  0.00  0.00    +0.000 OA
ATOM      6  C   UNL     1      33.545  28.502  46.665  0.00  0.00    +0.000 C 
ATOM      7  C   UNL     1      33.928  27.818  47.946  0.00  0.00    +0.000 C 
ATOM      8  H   UNL     1      32.629  29.056  48.868  0.00  0.00    +0.000 HD
ATOM      9  H   UNL     1      34.136  30.695  49.612  0.00  0.00    +0.000 HD
ATOM     10  H   UNL     1      35.268  29.983  46.962  0.00  0.00    +0.000 HD
ATOM     11  H   UNL     1      34.416  31.490  47.435  0.00  0.00    +0.000 HD
ATOM     12  H   UNL     1      34.418  28.376  45.966  0.00  0.00    +0.000 HD
ATOM     13  H   UNL     1      32.693  28.002  46.170  0.00  0.00    +0.000 HD
ATOM     14  H   UNL     1      35.011  27.554  48.001  0.00  0.00    +0.000 HD
BRANCH   7  15
ATOM     15  O   UNL     1      33.166  26.637  48.129  0.00  0.00    +0.000 OA
ATOM     16  H   UNL     1      32.675  26.401  47.312  0.00  0.00    +0.000 HD
ENDBRANCH   7  15
ENDBRANCH   1   3
BRANCH   1  17
ATOM     17  C   UNL     1      37.285  30.730  48.815  0.00  0.00    +0.000 A 
ATOM     18  C   UNL     1      37.225  31.857  49.661  0.00  0.00    +0.000 A 
ATOM     19  C   UNL     1      38.044  32.952  49.371  0.00  0.00    +0.000 A 
ATOM     20  N   UNL     1      38.866  32.870  48.275  0.00  0.00    +0.000 NA
ATOM     21  C   UNL     1      38.889  31.769  47.496  0.00  0.00    +0.000 A 
ATOM     22  N   UNL     1      38.116  30.719  47.756  0.00  0.00    +0.000 NA
ATOM     23  H   UNL     1      36.603  31.973  50.526  0.00  0.00    +0.000 HD
ATOM     24  H   UNL     1      38.035  33.836  49.987  0.00  0.00    +0.000 HD
BRANCH  21  25
ATOM     25  C   UNL     1      39.767  31.649  46.303  0.00  0.00    +0.000 C 
BRANCH  25  26
ATOM     26  N   UNL     1      38.970  31.801  45.089  0.00  0.00    +0.000 N 
ATOM     27  H   UNL     1      38.096  31.259  45.251  0.00  0.00    +0.000 HD
BRANCH  26  28
ATOM     28  C   UNL     1      38.685  33.224  44.956  0.00  0.00    +0.000 C 
ATOM     29  H   UNL     1      38.493  33.494  43.897  0.00  0.00    +0.000 HD
ENDBRANCH  26  28
BRANCH  26  30
ATOM     30  C   UNL     1      39.677  31.288  43.938  0.00  0.00    +0.000 C 
ATOM     31  H   UNL     1      39.336  30.273  43.698  0.00  0.00    +0.000 HD
ENDBRANCH  26  30
ENDBRANCH  25  26
ENDBRANCH  21  25
ENDBRANCH   1  17
TORSDOF 7
