
     RDKit          3D

 28 28  0  0  0  0  0  0  0  0999 V2000
   35.6447   30.4729   49.7457 C   0  0  0  0  0  0  0  0  0  0  0  0
   35.9658   29.4679   50.6781 C   0  0  0  0  0  0  0  0  0  0  0  0
   37.2350   29.5114   51.2577 C   0  0  0  0  0  0  0  0  0  0  0  0
   38.0920   30.5042   50.9039 N   0  0  0  0  0  0  0  0  0  0  0  0
   37.7489   31.4541   50.0035 C   0  0  0  0  0  0  0  0  0  0  0  0
   36.5289   31.4468   49.4197 N   0  0  0  0  0  0  0  0  0  0  0  0
   34.4405   30.5806   49.0806 O   0  0  0  0  0  0  0  0  0  0  0  0
   35.4954   30.1480   46.6417 O   0  0  0  0  0  0  0  0  0  0  0  0
   34.2368   30.0286   47.4644 P   0  0  0  0  0  0  0  0  0  0  0  0
   33.7558   28.3932   47.5810 O   0  0  0  0  0  0  0  0  0  0  0  0
   33.0583   30.9423   46.6804 O   0  0  0  0  0  0  0  0  0  0  0  0
   35.2178   28.7430   50.8774 H   0  0  0  0  0  0  0  0  0  0  0  0
   38.4972   32.2050   49.7843 H   0  0  0  0  0  0  0  0  0  0  0  0
   32.8441   28.3629   47.9577 H   0  0  0  0  0  0  0  0  0  0  0  0
   32.7245   30.4236   45.8894 H   0  0  0  0  0  0  0  0  0  0  0  0
   37.5902   28.4754   52.2306 C   0  0  0  0  0  0  0  0  0  0  0  0
   38.5186   28.8970   53.2342 N   0  0  0  0  0  4  0  0  0  0  0  0
   37.8167   29.4841   54.3773 C   0  0  0  0  0  0  0  0  0  0  0  0
   38.4762   29.5508   55.2550 H   0  0  0  0  0  0  0  0  0  0  0  0
   39.2049   27.7193   53.7339 C   0  0  0  0  0  0  0  0  0  0  0  0
   40.1147   27.5106   53.1115 H   0  0  0  0  0  0  0  0  0  0  0  0
   38.0258   27.5626   51.7327 H   0  0  0  0  0  0  0  0  0  0  0  0
   36.6733   28.1271   52.7793 H   0  0  0  0  0  0  0  0  0  0  0  0
   39.2311   29.5777   52.8869 H   0  0  0  0  0  0  0  0  0  0  0  0
   37.4534   30.5061   54.1490 H   0  0  0  0  0  0  0  0  0  0  0  0
   36.9892   28.7930   54.6197 H   0  0  0  0  0  0  0  0  0  0  0  0
   38.5190   26.8593   53.6268 H   0  0  0  0  0  0  0  0  0  0  0  0
   39.4320   27.8125   54.8151 H   0  0  0  0  0  0  0  0  0  0  0  0
  1  2  2  0
  2  3  1  0
  4  3  2  0
  5  4  1  0
  6  1  1  0
  6  5  2  0
  7  1  1  0
  8  9  2  0
  9 10  1  0
  9  7  1  0
 11  9  1  0
  2 12  1  0
  5 13  1  0
 10 14  1  0
 11 15  1  0
 16 17  1  0
 17 18  1  0
 18 19  1  0
 17 20  1  0
 20 21  1  0
 16 22  1  0
 16 23  1  0
 17 24  1  0
 18 25  1  0
 18 26  1  0
 20 27  1  0
 20 28  1  0
  3 16  1  0
M  CHG  1  17   1
M  ISO  6  12  14  13  14  14   3  15   3  19   8  21   8
M  END
>  <DihAtoms>  (1) 
1,2,15,16

>  <DihDeg>  (1) 
90.00565075745223

$$$$
