
 OpenBabel03272506463D

 40 42  0  0  1  0  0  0  0  0999 V2000
   32.1540   28.5240   47.4320 C   0  0  2  0  0  0  0  0  0  0  0  0
   33.3980   28.3750   48.2540 C   0  0  1  0  0  0  0  0  0  0  0  0
   33.7960   27.0630   48.1710 O   0  0  0  0  0  0  0  0  0  0  0  0
   33.1090   26.4420   47.1320 C   0  0  0  0  0  0  0  0  0  0  0  0
   32.5020   27.5240   46.2760 C   0  0  1  0  0  0  0  0  0  0  0  0
   31.2430   28.1580   47.8860 H   0  0  0  0  0  0  0  0  0  0  0  0
   33.2270   28.7120   49.2980 H   0  0  0  0  0  0  0  0  0  0  0  0
   33.9270   25.9860   46.4830 H   0  0  0  0  0  0  0  0  0  0  0  0
   32.4470   25.6810   47.5030 H   0  0  0  0  0  0  0  0  0  0  0  0
   33.2070   28.0780   45.6590 H   0  0  0  0  0  0  0  0  0  0  0  0
   32.0710   29.8240   46.9020 O   0  0  0  0  0  0  0  0  0  0  0  0
   31.1070   30.0460   46.7860 H   0  0  0  0  0  0  0  0  0  0  0  0
   34.7050   29.4140   47.5030 S   0  0  0  0  0  0  0  0  0  0  0  0
   37.1360   29.3010   50.6160 C   0  0  0  0  0  0  0  0  0  0  0  0
   37.6260   30.5810   50.7490 C   0  0  0  0  0  0  0  0  0  0  0  0
   37.1910   31.5410   49.8330 C   0  0  0  0  0  0  0  0  0  0  0  0
   36.3150   31.1670   48.8720 N   0  0  0  0  0  0  0  0  0  0  0  0
   35.8550   29.9000   48.7720 C   0  0  0  0  0  0  0  0  0  0  0  0
   36.2630   28.9480   49.6500 N   0  0  0  0  0  0  0  0  0  0  0  0
   37.5180   28.5800   51.3650 H   0  0  0  0  0  0  0  0  0  0  0  0
   38.3250   30.9450   51.4860 H   0  0  0  0  0  0  0  0  0  0  0  0
   37.4610   32.5930   49.7750 H   0  0  0  0  0  0  0  0  0  0  0  0
   31.3660   27.0460   45.6850 O   0  0  0  0  0  0  0  0  0  0  0  0
   29.8070   29.0140   44.1520 Cl  0  0  0  0  0  0  0  0  0  0  0  0
   29.3100   28.0410   45.5120 C   0  0  0  0  0  0  0  0  0  0  0  0
   30.1260   27.1430   46.1590 C   0  0  0  0  0  0  0  0  0  0  0  0
   29.5940   26.4220   47.2260 C   0  0  0  0  0  0  0  0  0  0  0  0
   28.2870   26.6030   47.6220 C   0  0  0  0  0  0  0  0  0  0  0  0
   27.4570   27.4980   46.9810 C   0  0  0  0  0  0  0  0  0  0  0  0
   27.9920   28.2210   45.9080 C   0  0  0  0  0  0  0  0  0  0  0  0
   30.1750   25.7010   47.7750 H   0  0  0  0  0  0  0  0  0  0  0  0
   27.9040   26.0300   48.4530 H   0  0  0  0  0  0  0  0  0  0  0  0
   26.4580   27.6060   47.3320 H   0  0  0  0  0  0  0  0  0  0  0  0
   27.0300   29.1550   45.2690 C   0  0  0  0  0  2  0  0  0  0  0  0
   26.5140   28.7670   44.0050 N   0  0  0  0  0  4  0  0  0  0  0  0
   27.1660   28.2590   43.3670 H   0  0  0  0  0  0  0  0  0  0  0  0
   25.3210   27.9670   44.1240 C   0  0  0  0  0  2  0  0  0  0  0  0
   24.9820   27.5700   43.1370 H   0  0  0  0  0  0  0  0  0  0  0  0
   26.0680   30.0260   43.3690 C   0  0  0  0  0  2  0  0  0  0  0  0
   25.4740   29.7610   42.5060 H   0  0  0  0  0  0  0  0  0  0  0  0
  1  6  1  1  0  0  0
  1  2  1  0  0  0  0
  2  7  1  1  0  0  0
  3  2  1  0  0  0  0
  4  9  1  0  0  0  0
  4  3  1  0  0  0  0
  5 10  1  6  0  0  0
  5  4  1  0  0  0  0
  5  1  1  0  0  0  0
  8  4  1  0  0  0  0
 11  1  1  0  0  0  0
 12 11  1  0  0  0  0
 13  2  1  0  0  0  0
 13 18  1  0  0  0  0
 14 15  1  0  0  0  0
 14 20  1  0  0  0  0
 15 21  1  0  0  0  0
 16 15  2  0  0  0  0
 17 16  1  0  0  0  0
 18 17  2  0  0  0  0
 18 19  1  0  0  0  0
 19 14  2  0  0  0  0
 22 16  1  0  0  0  0
 23 26  1  0  0  0  0
 23  5  1  0  0  0  0
 24 25  1  0  0  0  0
 25 30  2  0  0  0  0
 25 26  1  0  0  0  0
 26 27  2  0  0  0  0
 27 28  1  0  0  0  0
 27 31  1  0  0  0  0
 28 32  1  0  0  0  0
 29 33  1  0  0  0  0
 29 28  2  0  0  0  0
 30 29  1  0  0  0  0
 34 30  1  0  0  0  0
 35 37  1  0  0  0  0
 35 34  1  0  0  0  0
 36 35  1  0  0  0  0
 38 37  1  0  0  0  0
 39 35  1  0  0  0  0
 40 39  1  0  0  0  0
M  END
>  <minimizedAffinity>
-4.72998762

>  <minimizedRMSD>
0.248556286

$$$$
