REMARK  Name = 
REMARK  6 active torsions:
REMARK  status: ('A' for Active; 'I' for Inactive)
REMARK    1  A    between atoms: C_3  and  C_10
REMARK    2  A    between atoms: C_7  and  C_14
REMARK    3  A    between atoms: C_17  and  C_27
REMARK    4  A    between atoms: C_27  and  N_28
REMARK    5  A    between atoms: N_28  and  C_29
REMARK    6  A    between atoms: N_28  and  C_31
REMARK                            x       y       z     vdW  Elec       q    Type
REMARK                         _______ _______ _______ _____ _____    ______ ____
ROOT
ATOM      1 BR   UNL     1      38.412  31.314  48.265  0.00  0.00    +0.000 Br
ATOM      2  C   UNL     1      37.222  30.800  46.872  0.00  0.00    +0.000 A 
ATOM      3  C   UNL     1      36.042  30.160  47.157  0.00  0.00    +0.000 A 
ATOM      4  C   UNL     1      35.200  29.812  46.098  0.00  0.00    +0.000 A 
ATOM      5  C   UNL     1      35.568  30.114  44.804  0.00  0.00    +0.000 A 
ATOM      6  C   UNL     1      36.761  30.761  44.507  0.00  0.00    +0.000 A 
ATOM      7  C   UNL     1      37.587  31.101  45.575  0.00  0.00    +0.000 A 
ATOM      8  H   UNL     1      34.278  29.309  46.360  0.00  0.00    +0.000 HD
ATOM      9  H   UNL     1      34.898  29.834  44.002  0.00  0.00    +0.000 HD
ATOM     10  H   UNL     1      37.050  30.997  43.505  0.00  0.00    +0.000 HD
ENDROOT
BRANCH   3  13
ATOM     11  C   UNL     1      36.371  29.090  50.761  0.00  0.00    +0.000 A 
ATOM     12  C   UNL     1      36.675  29.331  49.414  0.00  0.00    +0.000 A 
ATOM     13  C   UNL     1      35.752  29.891  48.564  0.00  0.00    +0.000 A 
ATOM     14  N   UNL     1      34.525  30.198  49.104  0.00  0.00    +0.000 NA
ATOM     15  C   UNL     1      34.233  29.966  50.400  0.00  0.00    +0.000 A 
ATOM     16  N   UNL     1      35.139  29.419  51.224  0.00  0.00    +0.000 NA
ATOM     17  H   UNL     1      37.084  28.650  51.451  0.00  0.00    +0.000 HD
ATOM     18  H   UNL     1      37.660  29.032  49.117  0.00  0.00    +0.000 HD
ATOM     19  H   UNL     1      33.221  30.276  50.625  0.00  0.00    +0.000 HD
ENDBRANCH   3  13
BRANCH   7  20
ATOM     20  C   UNL     1      38.851  31.777  45.308  0.00  0.00    +0.000 A 
ATOM     21  C   UNL     1      39.028  33.062  44.886  0.00  0.00    +0.000 A 
ATOM     22  N   UNL     1      40.325  33.338  44.743  0.00  0.00    +0.000 N 
ATOM     23  C   UNL     1      41.002  32.234  45.072  0.00  0.00    +0.000 A 
ATOM     24  N   UNL     1      40.119  31.255  45.425  0.00  0.00    +0.000 NA
ATOM     25  H   UNL     1      38.194  33.726  44.705  0.00  0.00    +0.000 HD
ATOM     26  H   UNL     1      40.674  34.269  44.428  0.00  0.00    +0.000 HD
BRANCH  23  27
ATOM     27  C   UNL     1      42.483  32.103  45.054  0.00  0.00    +0.000 C 
BRANCH  27  28
ATOM     28  N   UNL     1      43.144  33.031  45.930  0.00  0.00    +0.000 N 
ATOM     29  H   UNL     1      42.972  34.012  45.616  0.00  0.00    +0.000 HD
BRANCH  28  30
ATOM     30  C   UNL     1      44.578  32.785  45.768  0.00  0.00    +0.000 C 
ATOM     31  H   UNL     1      44.719  31.687  45.910  0.00  0.00    +0.000 HD
ENDBRANCH  28  30
BRANCH  28  32
ATOM     32  C   UNL     1      42.851  32.864  47.321  0.00  0.00    +0.000 C 
ATOM     33  H   UNL     1      41.952  32.282  47.557  0.00  0.00    +0.000 HD
ENDBRANCH  28  32
ENDBRANCH  27  28
ENDBRANCH  23  27
ENDBRANCH   7  20
TORSDOF 6
