
     RDKit          3D

 34 35  0  0  0  0  0  0  0  0999 V2000
   36.7595   30.7715   50.7180 C   0  0  1  0  0  0  0  0  0  0  0  0
   36.0250   29.5161   50.8563 C   0  0  2  0  0  0  0  0  0  0  0  0
   37.4703   29.5144   51.2580 C   0  0  0  0  0  0  0  0  0  0  0  0
   37.3221   31.2207   49.4047 C   0  0  0  0  0  0  0  0  0  0  0  0
   38.3259   32.1756   49.4718 C   0  0  0  0  0  0  0  0  0  0  0  0
   38.8111   32.5930   48.2151 C   0  0  0  0  0  0  0  0  0  0  0  0
   38.3024   32.0711   47.0507 N   0  0  0  0  0  0  0  0  0  0  0  0
   37.3197   31.1386   47.0449 C   0  0  0  0  0  0  0  0  0  0  0  0
   36.8242   30.7089   48.2537 N   0  0  0  0  0  0  0  0  0  0  0  0
   35.6539   28.8667   49.6857 O   0  0  0  0  0  0  0  0  0  0  0  0
   34.4426   28.3941   49.3036 C   0  0  0  0  0  0  0  0  0  0  0  0
   34.3221   27.3912   48.5681 O   0  0  0  0  0  0  0  0  0  0  0  0
   33.4580   29.2091   49.8655 N   0  0  0  0  0  0  0  0  0  0  0  0
   36.6312   31.5848   51.4733 H   0  0  0  0  0  0  0  0  0  0  0  0
   35.1947   29.5828   51.6121 H   0  0  0  0  0  0  0  0  0  0  0  0
   38.2134   29.0078   50.6442 H   0  0  0  0  0  0  0  0  0  0  0  0
   37.5994   29.5013   52.3728 H   0  0  0  0  0  0  0  0  0  0  0  0
   38.6987   32.5607   50.3889 H   0  0  0  0  0  0  0  0  0  0  0  0
   39.5945   33.3353   48.2019 H   0  0  0  0  0  0  0  0  0  0  0  0
   33.1282   29.2337   50.8408 H   0  0  0  0  0  0  0  0  0  0  0  0
   32.8454   29.9588   49.4457 H   0  0  0  0  0  0  0  0  0  0  0  0
   36.7849   30.5888   45.7739 C   0  0  0  0  0  0  0  0  0  0  0  0
   35.5547   29.8901   45.9182 N   0  0  0  0  0  4  0  0  0  0  0  0
   35.7096   28.4508   46.0163 C   0  0  0  0  0  0  0  0  0  0  0  0
   35.7025   27.9872   44.9903 H   0  0  0  0  0  0  0  0  0  0  0  0
   34.7649   30.4223   47.0063 C   0  0  0  0  0  0  0  0  0  0  0  0
   33.9375   29.6959   47.1834 H   0  0  0  0  0  0  0  0  0  0  0  0
   36.6503   31.4441   45.0901 H   0  0  0  0  0  0  0  0  0  0  0  0
   37.5644   29.9352   45.3388 H   0  0  0  0  0  0  0  0  0  0  0  0
   34.9964   30.0393   45.0468 H   0  0  0  0  0  0  0  0  0  0  0  0
   36.6343   28.1193   46.4913 H   0  0  0  0  0  0  0  0  0  0  0  0
   34.7899   28.0208   46.5114 H   0  0  0  0  0  0  0  0  0  0  0  0
   34.2793   31.3514   46.6366 H   0  0  0  0  0  0  0  0  0  0  0  0
   35.3369   30.6152   47.9296 H   0  0  0  0  0  0  0  0  0  0  0  0
  1  2  1  0
  1  3  1  0
  2  3  1  0
  4  5  2  0
  4  1  1  0
  6  5  1  0
  7  6  2  0
  8  7  1  0
  8  9  2  0
  9  4  1  0
 10  2  1  0
 11 10  1  0
 11 13  1  0
 12 11  2  0
  1 14  1  1
  2 15  1  1
  3 16  1  0
  3 17  1  0
  5 18  1  0
  6 19  1  0
 13 20  1  0
 13 21  1  0
 22 23  1  0
 23 24  1  0
 24 25  1  0
 23 26  1  0
 26 27  1  0
 22 28  1  0
 22 29  1  0
 23 30  1  0
 24 31  1  0
 24 32  1  0
 26 33  1  0
 26 34  1  0
  8 22  1  0
M  ISO  8  14  13  15  13  16  13  17  13  18  14  19  14  25   8  27   8
M  CHG  1  23   1
M  END
>  <DihAtoms>  (1) 
6,7,21,22

>  <DihDeg>  (1) 
89.997782672063

$$$$
