
 OpenBabel03272509383D

 28 29  0  0  1  0  0  0  0  0999 V2000
   36.1910   29.8510   48.7790 C   0  0  0  0  0  0  0  0  0  0  0  0
   36.2590   29.8770   50.1720 C   0  0  0  0  0  0  0  0  0  0  0  0
   37.2480   30.5860   50.8570 C   0  0  0  0  0  0  0  0  0  0  0  0
   38.1970   31.2880   50.0940 C   0  0  0  0  0  0  0  0  0  0  0  0
   38.1100   31.2480   48.7230 C   0  0  0  0  0  0  0  0  0  0  0  0
   37.1290   30.5480   48.0390 C   0  0  0  0  0  0  0  0  0  0  0  0
   35.5080   29.3180   50.7450 H   0  0  0  0  0  0  0  0  0  0  0  0
   37.2270   30.5490   51.9200 H   0  0  0  0  0  0  0  0  0  0  0  0
   38.9110   31.7940   50.7240 H   0  0  0  0  0  0  0  0  0  0  0  0
   38.9280   31.8340   48.3280 H   0  0  0  0  0  0  0  0  0  0  0  0
   35.1280   29.0590   48.1760 C   0  0  1  0  0  3  0  0  0  0  0  0
   34.8910   27.9450   48.7720 O   0  0  0  0  0  1  0  0  0  0  0  0
   32.7920   30.9870   46.1930 C   0  0  0  0  0  0  0  0  0  0  0  0
   32.8250   30.3640   44.9320 C   0  0  0  0  0  0  0  0  0  0  0  0
   33.6560   29.2560   44.7620 C   0  0  0  0  0  0  0  0  0  0  0  0
   34.4110   28.8060   45.8110 N   0  0  0  0  0  0  0  0  0  0  0  0
   34.3510   29.4290   47.0000 C   0  0  0  0  0  0  0  0  0  0  0  0
   33.5550   30.4830   47.1460 N   0  0  0  0  0  0  0  0  0  0  0  0
   32.1370   31.8320   46.2590 H   0  0  0  0  0  0  0  0  0  0  0  0
   32.2690   30.6460   44.0480 H   0  0  0  0  0  0  0  0  0  0  0  0
   33.7670   28.6900   43.8410 H   0  0  0  0  0  0  0  0  0  0  0  0
   37.1260   30.6070   46.5900 C   0  0  0  0  0  2  0  0  0  0  0  0
   38.2980   31.3010   46.0220 N   0  0  0  0  0  4  0  0  0  0  0  0
   38.9890   31.5740   46.7220 H   0  0  0  0  0  0  0  0  0  0  0  0
   38.9470   30.2330   45.2290 C   0  0  0  0  0  2  0  0  0  0  0  0
   38.4180   30.2120   44.2290 H   0  0  0  0  0  0  0  0  0  0  0  0
   37.9460   32.3060   45.0590 C   0  0  0  0  0  2  0  0  0  0  0  0
   38.6650   33.1720   45.1920 H   0  0  0  0  0  0  0  0  0  0  0  0
  1  2  1  0  0  0  0
  2  7  1  0  0  0  0
  2  3  2  0  0  0  0
  3  8  1  0  0  0  0
  4  9  1  0  0  0  0
  4  3  1  0  0  0  0
  5  4  2  0  0  0  0
  6  5  1  0  0  0  0
  6  1  2  0  0  0  0
 10  5  1  0  0  0  0
 11 12  1  1  0  0  0
 11  1  1  0  0  0  0
 13 19  1  0  0  0  0
 13 18  1  0  0  0  0
 14 13  2  0  0  0  0
 15 14  1  0  0  0  0
 15 16  2  0  0  0  0
 16 17  1  0  0  0  0
 17 18  2  0  0  0  0
 17 11  1  0  0  0  0
 20 14  1  0  0  0  0
 21 15  1  0  0  0  0
 22  6  1  0  0  0  0
 23 22  1  0  0  0  0
 23 24  1  0  0  0  0
 25 23  1  0  0  0  0
 26 25  1  0  0  0  0
 27 28  1  0  0  0  0
 27 23  1  0  0  0  0
M  END
>  <minimizedAffinity>
-4.84980345

>  <minimizedRMSD>
0.709350049

$$$$
