REMARK  Name = 
REMARK  7 active torsions:
REMARK  status: ('A' for Active; 'I' for Inactive)
REMARK    1  A    between atoms: C_1  and  O_13
REMARK    2  A    between atoms: C_2  and  C_8
REMARK    3  A    between atoms: C_6  and  O_14
REMARK    4  A    between atoms: C_9  and  C_22
REMARK    5  A    between atoms: C_22  and  N_23
REMARK    6  A    between atoms: N_23  and  C_24
REMARK    7  A    between atoms: N_23  and  C_26
REMARK                            x       y       z     vdW  Elec       q    Type
REMARK                         _______ _______ _______ _____ _____    ______ ____
ROOT
ATOM      1  C   UNL     1      36.211  30.983  49.376  0.00  0.00    +0.000 A 
ATOM      2  C   UNL     1      37.544  31.188  49.731  0.00  0.00    +0.000 A 
ATOM      3  C   UNL     1      38.021  30.442  50.808  0.00  0.00    +0.000 A 
ATOM      4  N   UNL     1      37.178  29.576  51.440  0.00  0.00    +0.000 NA
ATOM      5  C   UNL     1      35.887  29.417  51.050  0.00  0.00    +0.000 A 
ATOM      6  N   UNL     1      35.401  30.131  50.005  0.00  0.00    +0.000 NA
ATOM      7  H   UNL     1      35.823  31.554  48.543  0.00  0.00    +0.000 HD
ATOM      8  H   UNL     1      35.362  28.693  51.658  0.00  0.00    +0.000 HD
ENDROOT
BRANCH   2  10
ATOM      9  C   UNL     1      38.877  31.884  47.774  0.00  0.00    +0.000 A 
ATOM     10  C   UNL     1      38.357  32.118  49.018  0.00  0.00    +0.000 A 
ATOM     11  C   UNL     1      38.686  33.363  49.550  0.00  0.00    +0.000 A 
ATOM     12  C   UNL     1      39.476  34.287  48.868  0.00  0.00    +0.000 A 
ATOM     13  C   UNL     1      39.957  33.956  47.609  0.00  0.00    +0.000 A 
ATOM     14  C   UNL     1      39.654  32.732  47.047  0.00  0.00    +0.000 A 
ATOM     15  H   UNL     1      38.336  33.661  50.523  0.00  0.00    +0.000 HD
ATOM     16  H   UNL     1      39.738  35.255  49.268  0.00  0.00    +0.000 HD
ATOM     17  H   UNL     1      40.575  34.632  47.032  0.00  0.00    +0.000 HD
BRANCH   9  18
ATOM     18  O   UNL     1      38.602  30.651  47.145  0.00  0.00    +0.000 OA
ATOM     19  H   UNL     1      37.869  30.704  46.430  0.00  0.00    +0.000 HD
ENDBRANCH   9  18
BRANCH  14  20
ATOM     20  O   UNL     1      40.148  32.426  45.782  0.00  0.00    +0.000 OA
ATOM     21  H   UNL     1      39.571  32.391  44.964  0.00  0.00    +0.000 HD
ENDBRANCH  14  20
ENDBRANCH   2  10
BRANCH   3  22
ATOM     22  C   UNL     1      39.403  30.554  51.273  0.00  0.00    +0.000 C 
BRANCH  22  23
ATOM     23  N   UNL     1      39.667  30.075  52.590  0.00  0.00    +0.000 N 
ATOM     24  H   UNL     1      40.025  29.097  52.613  0.00  0.00    +0.000 HD
BRANCH  23  25
ATOM     25  C   UNL     1      40.740  30.907  53.166  0.00  0.00    +0.000 C 
ATOM     26  H   UNL     1      41.695  30.475  52.781  0.00  0.00    +0.000 HD
ENDBRANCH  23  25
BRANCH  23  27
ATOM     27  C   UNL     1      38.502  30.130  53.458  0.00  0.00    +0.000 C 
ATOM     28  H   UNL     1      38.687  29.618  54.424  0.00  0.00    +0.000 HD
ENDBRANCH  23  27
ENDBRANCH  22  23
ENDBRANCH   3  22
TORSDOF 7
