
 OpenBabel03272508553D

 36 38  0  0  1  0  0  0  0  0999 V2000
   35.6160   25.4450   31.0890 C   0  0  0  0  0  0  0  0  0  0  0  0
   34.3610   25.5500   30.9470 O   0  0  0  0  0  0  0  0  0  0  0  0
   36.4200   26.6090   31.3010 N   0  0  0  0  0  0  0  0  0  0  0  0
   37.4420   26.5880   31.2320 H   0  0  0  0  0  0  0  0  0  0  0  0
   36.2670   24.1260   31.0380 C   0  0  0  0  0  0  0  0  0  0  0  0
   37.5920   24.0720   30.6970 C   0  0  0  0  0  0  0  0  0  0  0  0
   38.2080   22.8290   30.6510 C   0  0  0  0  0  0  0  0  0  0  0  0
   37.4520   21.7320   30.9500 C   0  0  0  0  0  0  0  0  0  0  0  0
   36.0930   21.7710   31.3020 C   0  0  0  0  0  0  0  0  0  0  0  0
   35.5760   23.0070   31.3230 N   0  0  0  0  0  0  0  0  0  0  0  0
   38.1780   24.9430   30.4620 H   0  0  0  0  0  0  0  0  0  0  0  0
   39.2530   22.7320   30.3860 H   0  0  0  0  0  0  0  0  0  0  0  0
   37.9420   20.7720   30.9100 H   0  0  0  0  0  0  0  0  0  0  0  0
   35.3480   20.5360   31.6110 C   0  0  0  0  0  2  0  0  0  0  0  0
   35.8500   19.8050   32.7370 N   0  0  0  0  0  4  0  0  0  0  0  0
   36.8900   19.7370   32.6460 H   0  0  0  0  0  0  0  0  0  0  0  0
   35.5800   20.4570   34.0070 C   0  0  0  0  0  2  0  0  0  0  0  0
   35.7450   21.5350   33.9100 H   0  0  0  0  0  0  0  0  0  0  0  0
   35.3210   18.4330   32.7520 C   0  0  0  0  0  2  0  0  0  0  0  0
   36.1050   17.6940   32.5630 H   0  0  0  0  0  0  0  0  0  0  0  0
   36.2010   28.6380   32.7360 C   0  0  2  0  0  0  0  0  0  0  0  0
   36.6330   29.1020   31.4080 C   0  0  0  0  0  0  0  0  0  0  0  0
   35.7390   27.8500   31.6230 C   0  0  1  0  0  0  0  0  0  0  0  0
   37.0640   28.2860   33.3650 H   0  0  0  0  0  0  0  0  0  0  0  0
   36.1300   29.9840   30.9490 H   0  0  0  0  0  0  0  0  0  0  0  0
   37.6500   28.9400   31.0530 H   0  0  0  0  0  0  0  0  0  0  0  0
   34.6950   27.9660   31.2610 H   0  0  0  0  0  0  0  0  0  0  0  0
   33.0030   29.9400   34.0490 C   0  0  0  0  0  0  0  0  0  0  0  0
   33.4310   30.7930   35.1010 C   0  0  0  0  0  0  0  0  0  0  0  0
   34.8520   30.9100   35.3340 C   0  0  0  0  0  0  0  0  0  0  0  0
   35.7060   30.2070   34.5470 N   0  0  0  0  0  0  0  0  0  0  0  0
   35.2250   29.4060   33.5540 C   0  0  0  0  0  0  0  0  0  0  0  0
   33.8810   29.2540   33.2810 N   0  0  0  0  0  0  0  0  0  0  0  0
   31.9300   29.8940   33.9220 H   0  0  0  0  0  0  0  0  0  0  0  0
   32.7220   31.3270   35.6940 H   0  0  0  0  0  0  0  0  0  0  0  0
   35.1840   31.5580   36.1330 H   0  0  0  0  0  0  0  0  0  0  0  0
  1  3  1  0  0  0  0
  2  1  2  0  0  0  0
  3 23  1  0  0  0  0
  4  3  1  0  0  0  0
  5  1  1  0  0  0  0
  5 10  1  0  0  0  0
  6  5  2  0  0  0  0
  7  6  1  0  0  0  0
  7  8  2  0  0  0  0
  8  9  1  0  0  0  0
  9 10  2  0  0  0  0
  9 14  1  0  0  0  0
 11  6  1  0  0  0  0
 12  7  1  0  0  0  0
 13  8  1  0  0  0  0
 14 15  1  0  0  0  0
 15 19  1  0  0  0  0
 15 17  1  0  0  0  0
 16 15  1  0  0  0  0
 18 17  1  0  0  0  0
 20 19  1  0  0  0  0
 21 24  1  1  0  0  0
 21 32  1  0  0  0  0
 22 23  1  0  0  0  0
 22 21  1  0  0  0  0
 23 27  1  6  0  0  0
 23 21  1  0  0  0  0
 25 22  1  0  0  0  0
 26 22  1  0  0  0  0
 28 29  1  0  0  0  0
 29 30  2  0  0  0  0
 29 35  1  0  0  0  0
 30 36  1  0  0  0  0
 31 30  1  0  0  0  0
 32 31  2  0  0  0  0
 33 32  1  0  0  0  0
 33 28  2  0  0  0  0
 34 28  1  0  0  0  0
M  END
>  <minimizedAffinity>
-4.97119141

$$$$

 OpenBabel03272508553D

 36 38  0  0  1  0  0  0  0  0999 V2000
   38.7640   26.3150   34.9400 C   0  0  0  0  0  0  0  0  0  0  0  0
   39.6750   27.1960   34.9390 O   0  0  0  0  0  0  0  0  0  0  0  0
   37.6610   26.4140   34.0340 N   0  0  0  0  0  0  0  0  0  0  0  0
   36.8210   25.8360   34.1300 H   0  0  0  0  0  0  0  0  0  0  0  0
   38.8250   25.1770   35.8700 C   0  0  0  0  0  0  0  0  0  0  0  0
   37.9890   25.1820   36.9550 C   0  0  0  0  0  0  0  0  0  0  0  0
   38.0440   24.1080   37.8310 C   0  0  0  0  0  0  0  0  0  0  0  0
   38.9310   23.1080   37.5590 C   0  0  0  0  0  0  0  0  0  0  0  0
   39.7960   23.0860   36.4510 C   0  0  0  0  0  0  0  0  0  0  0  0
   39.6790   24.1590   35.6560 N   0  0  0  0  0  0  0  0  0  0  0  0
   37.2940   25.9770   37.1600 H   0  0  0  0  0  0  0  0  0  0  0  0
   37.4050   24.0650   38.7040 H   0  0  0  0  0  0  0  0  0  0  0  0
   38.9650   22.2780   38.2470 H   0  0  0  0  0  0  0  0  0  0  0  0
   40.7260   21.9640   36.2280 C   0  0  0  0  0  2  0  0  0  0  0  0
   41.8990   21.9910   37.0530 N   0  0  0  0  0  4  0  0  0  0  0  0
   41.6370   22.3950   37.9810 H   0  0  0  0  0  0  0  0  0  0  0  0
   42.4460   20.6700   37.3080 C   0  0  0  0  0  2  0  0  0  0  0  0
   41.6320   19.9640   37.5010 H   0  0  0  0  0  0  0  0  0  0  0  0
   42.9320   22.8610   36.4710 C   0  0  0  0  0  2  0  0  0  0  0  0
   43.0990   23.7550   37.0790 H   0  0  0  0  0  0  0  0  0  0  0  0
   37.0990   27.1020   31.7020 C   0  0  2  0  0  0  0  0  0  0  0  0
   36.3990   28.0340   32.6010 C   0  0  0  0  0  0  0  0  0  0  0  0
   37.7610   27.3760   32.9510 C   0  0  1  0  0  0  0  0  0  0  0  0
   36.5290   26.1430   31.5580 H   0  0  0  0  0  0  0  0  0  0  0  0
   36.4290   29.1260   32.3830 H   0  0  0  0  0  0  0  0  0  0  0  0
   35.5270   27.7220   33.1750 H   0  0  0  0  0  0  0  0  0  0  0  0
   38.6180   28.0830   32.9770 H   0  0  0  0  0  0  0  0  0  0  0  0
   37.6710   28.9960   28.5840 C   0  0  0  0  0  0  0  0  0  0  0  0
   38.8710   28.4170   28.0920 C   0  0  0  0  0  0  0  0  0  0  0  0
   39.4660   27.3500   28.8630 C   0  0  0  0  0  0  0  0  0  0  0  0
   38.8600   26.9540   30.0130 N   0  0  0  0  0  0  0  0  0  0  0  0
   37.7090   27.5550   30.4260 C   0  0  0  0  0  0  0  0  0  0  0  0
   37.0910   28.5770   29.7330 N   0  0  0  0  0  0  0  0  0  0  0  0
   37.2720   29.7870   27.9640 H   0  0  0  0  0  0  0  0  0  0  0  0
   39.3110   28.7610   27.1820 H   0  0  0  0  0  0  0  0  0  0  0  0
   40.3800   26.9050   28.4940 H   0  0  0  0  0  0  0  0  0  0  0  0
  1  5  1  0  0  0  0
  2  1  2  0  0  0  0
  3  4  1  0  0  0  0
  3  1  1  0  0  0  0
  5  6  1  0  0  0  0
  6 11  1  0  0  0  0
  6  7  2  0  0  0  0
  7 12  1  0  0  0  0
  8  7  1  0  0  0  0
  8 13  1  0  0  0  0
  9  8  2  0  0  0  0
 10  5  2  0  0  0  0
 10  9  1  0  0  0  0
 14  9  1  0  0  0  0
 14 15  1  0  0  0  0
 15 17  1  0  0  0  0
 15 16  1  0  0  0  0
 17 18  1  0  0  0  0
 19 15  1  0  0  0  0
 19 20  1  0  0  0  0
 21 24  1  6  0  0  0
 21 22  1  0  0  0  0
 21 23  1  0  0  0  0
 22 23  1  0  0  0  0
 22 26  1  0  0  0  0
 23 27  1  6  0  0  0
 23  3  1  0  0  0  0
 25 22  1  0  0  0  0
 28 33  1  0  0  0  0
 29 28  2  0  0  0  0
 29 30  1  0  0  0  0
 30 31  2  0  0  0  0
 31 32  1  0  0  0  0
 32 21  1  0  0  0  0
 33 32  2  0  0  0  0
 34 28  1  0  0  0  0
 35 29  1  0  0  0  0
 36 30  1  0  0  0  0
M  END
>  <minimizedAffinity>
-4.74648666

$$$$

 OpenBabel03272508553D

 36 38  0  0  1  0  0  0  0  0999 V2000
   37.1540   26.3010   33.0620 C   0  0  0  0  0  0  0  0  0  0  0  0
   37.9190   25.8590   33.9700 O   0  0  0  0  0  0  0  0  0  0  0  0
   36.7790   25.4660   31.9620 N   0  0  0  0  0  0  0  0  0  0  0  0
   36.3240   25.8380   31.1230 H   0  0  0  0  0  0  0  0  0  0  0  0
   36.6400   27.6790   33.1210 C   0  0  0  0  0  0  0  0  0  0  0  0
   36.2530   28.1720   34.3390 C   0  0  0  0  0  0  0  0  0  0  0  0
   35.7690   29.4720   34.3960 C   0  0  0  0  0  0  0  0  0  0  0  0
   35.7090   30.1810   33.2320 C   0  0  0  0  0  0  0  0  0  0  0  0
   36.1010   29.6900   31.9760 C   0  0  0  0  0  0  0  0  0  0  0  0
   36.5550   28.4290   32.0080 N   0  0  0  0  0  0  0  0  0  0  0  0
   36.3040   27.6040   35.2500 H   0  0  0  0  0  0  0  0  0  0  0  0
   35.4500   29.9090   35.3340 H   0  0  0  0  0  0  0  0  0  0  0  0
   35.3310   31.1900   33.2900 H   0  0  0  0  0  0  0  0  0  0  0  0
   36.0040   30.5240   30.7630 C   0  0  0  0  0  2  0  0  0  0  0  0
   37.2650   30.8740   30.1790 N   0  0  0  0  0  4  0  0  0  0  0  0
   38.0230   30.4170   30.7370 H   0  0  0  0  0  0  0  0  0  0  0  0
   37.4100   30.4040   28.8120 C   0  0  0  0  0  2  0  0  0  0  0  0
   37.0040   29.3910   28.7240 H   0  0  0  0  0  0  0  0  0  0  0  0
   37.4900   32.3250   30.2410 C   0  0  0  0  0  2  0  0  0  0  0  0
   38.3060   32.5810   30.9220 H   0  0  0  0  0  0  0  0  0  0  0  0
   36.3120   23.1170   31.2620 C   0  0  2  0  0  0  0  0  0  0  0  0
   37.6530   23.4530   30.7560 C   0  0  0  0  0  0  0  0  0  0  0  0
   37.0650   24.0470   32.0650 C   0  0  1  0  0  0  0  0  0  0  0  0
   35.4960   23.4830   30.5800 H   0  0  0  0  0  0  0  0  0  0  0  0
   38.4830   22.7220   30.8840 H   0  0  0  0  0  0  0  0  0  0  0  0
   37.7870   24.1300   29.9120 H   0  0  0  0  0  0  0  0  0  0  0  0
   37.5650   23.6940   32.9920 H   0  0  0  0  0  0  0  0  0  0  0  0
   35.6110   19.4940   31.4040 C   0  0  0  0  0  0  0  0  0  0  0  0
   35.4500   19.2690   32.7980 C   0  0  0  0  0  0  0  0  0  0  0  0
   35.5820   20.4060   33.6790 C   0  0  0  0  0  0  0  0  0  0  0  0
   35.8520   21.6250   33.1440 N   0  0  0  0  0  0  0  0  0  0  0  0
   35.9930   21.7670   31.7960 C   0  0  0  0  0  0  0  0  0  0  0  0
   35.8780   20.7220   30.9020 N   0  0  0  0  0  0  0  0  0  0  0  0
   35.5000   18.6070   30.7950 H   0  0  0  0  0  0  0  0  0  0  0  0
   35.2380   18.2930   33.1730 H   0  0  0  0  0  0  0  0  0  0  0  0
   35.4610   20.2420   34.7420 H   0  0  0  0  0  0  0  0  0  0  0  0
  1  5  1  0  0  0  0
  1  2  2  0  0  0  0
  3 23  1  0  0  0  0
  3  1  1  0  0  0  0
  4  3  1  0  0  0  0
  5  6  1  0  0  0  0
  6  7  2  0  0  0  0
  6 11  1  0  0  0  0
  7 12  1  0  0  0  0
  8 13  1  0  0  0  0
  8  7  1  0  0  0  0
  9 10  1  0  0  0  0
  9  8  2  0  0  0  0
 10  5  2  0  0  0  0
 14  9  1  0  0  0  0
 15 19  1  0  0  0  0
 15 16  1  0  0  0  0
 15 14  1  0  0  0  0
 17 15  1  0  0  0  0
 18 17  1  0  0  0  0
 19 20  1  0  0  0  0
 21 24  1  6  0  0  0
 21 32  1  0  0  0  0
 21 23  1  0  0  0  0
 22 25  1  0  0  0  0
 22 21  1  0  0  0  0
 22 23  1  0  0  0  0
 23 27  1  1  0  0  0
 26 22  1  0  0  0  0
 28 29  1  0  0  0  0
 29 35  1  0  0  0  0
 29 30  2  0  0  0  0
 30 36  1  0  0  0  0
 31 30  1  0  0  0  0
 32 31  2  0  0  0  0
 33 28  2  0  0  0  0
 33 32  1  0  0  0  0
 34 28  1  0  0  0  0
M  END
>  <minimizedAffinity>
-4.72048044

$$$$

 OpenBabel03272508553D

 36 38  0  0  1  0  0  0  0  0999 V2000
   37.7460   27.4000   33.6000 C   0  0  0  0  0  0  0  0  0  0  0  0
   37.8000   27.6520   34.8410 O   0  0  0  0  0  0  0  0  0  0  0  0
   38.4800   26.3020   33.0520 N   0  0  0  0  0  0  0  0  0  0  0  0
   38.6120   26.1810   32.0430 H   0  0  0  0  0  0  0  0  0  0  0  0
   36.9270   28.2320   32.7030 C   0  0  0  0  0  0  0  0  0  0  0  0
   37.3630   28.4190   31.4180 C   0  0  0  0  0  0  0  0  0  0  0  0
   36.5910   29.2020   30.5710 C   0  0  0  0  0  0  0  0  0  0  0  0
   35.4400   29.7390   31.0710 C   0  0  0  0  0  0  0  0  0  0  0  0
   34.9800   29.5570   32.3860 C   0  0  0  0  0  0  0  0  0  0  0  0
   35.7820   28.7890   33.1370 N   0  0  0  0  0  0  0  0  0  0  0  0
   38.2720   27.9920   31.0350 H   0  0  0  0  0  0  0  0  0  0  0  0
   36.8920   29.3810   29.5470 H   0  0  0  0  0  0  0  0  0  0  0  0
   34.8490   30.3450   30.4030 H   0  0  0  0  0  0  0  0  0  0  0  0
   33.7220   30.1730   32.8480 C   0  0  0  0  0  2  0  0  0  0  0  0
   33.0100   29.4070   33.8290 N   0  0  0  0  0  4  0  0  0  0  0  0
   33.5720   28.5540   34.0500 H   0  0  0  0  0  0  0  0  0  0  0  0
   32.8180   30.1210   35.0800 C   0  0  0  0  0  2  0  0  0  0  0  0
   33.7320   30.6650   35.3380 H   0  0  0  0  0  0  0  0  0  0  0  0
   31.7140   28.9540   33.3030 C   0  0  0  0  0  2  0  0  0  0  0  0
   31.6860   27.8690   33.1710 H   0  0  0  0  0  0  0  0  0  0  0  0
   38.1760   24.4220   34.6630 C   0  0  2  0  0  0  0  0  0  0  0  0
   38.8890   23.8720   33.4980 C   0  0  0  0  0  0  0  0  0  0  0  0
   39.0480   25.3400   33.9790 C   0  0  1  0  0  0  0  0  0  0  0  0
   37.0630   24.4630   34.5000 H   0  0  0  0  0  0  0  0  0  0  0  0
   39.7690   23.2100   33.6620 H   0  0  0  0  0  0  0  0  0  0  0  0
   38.3810   23.7060   32.5490 H   0  0  0  0  0  0  0  0  0  0  0  0
   40.0460   25.5760   34.4070 H   0  0  0  0  0  0  0  0  0  0  0  0
   37.9110   23.9260   38.3130 C   0  0  0  0  0  0  0  0  0  0  0  0
   39.0680   23.1530   38.6000 C   0  0  0  0  0  0  0  0  0  0  0  0
   39.9420   22.8200   37.4990 C   0  0  0  0  0  0  0  0  0  0  0  0
   39.6220   23.2540   36.2520 N   0  0  0  0  0  0  0  0  0  0  0  0
   38.4940   23.9920   36.0500 C   0  0  0  0  0  0  0  0  0  0  0  0
   37.6210   24.3430   37.0590 N   0  0  0  0  0  0  0  0  0  0  0  0
   37.2960   24.1440   39.1760 H   0  0  0  0  0  0  0  0  0  0  0  0
   39.2790   22.8340   39.5970 H   0  0  0  0  0  0  0  0  0  0  0  0
   40.8250   22.2320   37.7110 H   0  0  0  0  0  0  0  0  0  0  0  0
  1  2  2  0  0  0  0
  3  1  1  0  0  0  0
  3 23  1  0  0  0  0
  4  3  1  0  0  0  0
  5 10  1  0  0  0  0
  5  1  1  0  0  0  0
  6  5  2  0  0  0  0
  7  8  2  0  0  0  0
  7  6  1  0  0  0  0
  8  9  1  0  0  0  0
  9 14  1  0  0  0  0
  9 10  2  0  0  0  0
 11  6  1  0  0  0  0
 12  7  1  0  0  0  0
 13  8  1  0  0  0  0
 14 15  1  0  0  0  0
 15 16  1  0  0  0  0
 15 17  1  0  0  0  0
 17 18  1  0  0  0  0
 19 15  1  0  0  0  0
 20 19  1  0  0  0  0
 21 24  1  6  0  0  0
 21 32  1  0  0  0  0
 22 25  1  0  0  0  0
 22 23  1  0  0  0  0
 22 21  1  0  0  0  0
 23 27  1  1  0  0  0
 23 21  1  0  0  0  0
 26 22  1  0  0  0  0
 28 29  1  0  0  0  0
 28 34  1  0  0  0  0
 29 35  1  0  0  0  0
 30 36  1  0  0  0  0
 30 29  2  0  0  0  0
 31 30  1  0  0  0  0
 32 31  2  0  0  0  0
 32 33  1  0  0  0  0
 33 28  2  0  0  0  0
M  END
>  <minimizedAffinity>
-4.71266413

$$$$

 OpenBabel03272508553D

 36 38  0  0  1  0  0  0  0  0999 V2000
   36.0790   28.7900   34.0370 C   0  0  0  0  0  0  0  0  0  0  0  0
   36.8750   28.0450   34.6820 O   0  0  0  0  0  0  0  0  0  0  0  0
   36.0280   28.7280   32.6080 N   0  0  0  0  0  0  0  0  0  0  0  0
   35.5440   29.4350   32.0470 H   0  0  0  0  0  0  0  0  0  0  0  0
   35.1940   29.7300   34.7430 C   0  0  0  0  0  0  0  0  0  0  0  0
   35.7370   30.8920   35.2240 C   0  0  0  0  0  0  0  0  0  0  0  0
   34.9020   31.7790   35.8890 C   0  0  0  0  0  0  0  0  0  0  0  0
   33.5880   31.4400   36.0240 C   0  0  0  0  0  0  0  0  0  0  0  0
   33.0160   30.2520   35.5370 C   0  0  0  0  0  0  0  0  0  0  0  0
   33.8880   29.4510   34.9090 N   0  0  0  0  0  0  0  0  0  0  0  0
   36.7750   31.1490   35.1130 H   0  0  0  0  0  0  0  0  0  0  0  0
   35.2820   32.7110   36.2880 H   0  0  0  0  0  0  0  0  0  0  0  0
   32.9500   32.1380   36.5420 H   0  0  0  0  0  0  0  0  0  0  0  0
   31.5820   29.9610   35.7250 C   0  0  0  0  0  2  0  0  0  0  0  0
   31.2920   28.5980   36.0610 N   0  0  0  0  0  4  0  0  0  0  0  0
   32.1070   28.0080   35.7730 H   0  0  0  0  0  0  0  0  0  0  0  0
   31.1050   28.3890   37.4870 C   0  0  0  0  0  2  0  0  0  0  0  0
   31.8500   28.9660   38.0440 H   0  0  0  0  0  0  0  0  0  0  0  0
   30.1170   28.1120   35.3220 C   0  0  0  0  0  2  0  0  0  0  0  0
   30.3860   27.3450   34.5900 H   0  0  0  0  0  0  0  0  0  0  0  0
   35.9180   26.6890   31.1750 C   0  0  2  0  0  0  0  0  0  0  0  0
   36.6500   27.7090   30.4070 C   0  0  0  0  0  0  0  0  0  0  0  0
   36.6950   27.6160   31.9570 C   0  0  1  0  0  0  0  0  0  0  0  0
   34.8030   26.8110   31.0880 H   0  0  0  0  0  0  0  0  0  0  0  0
   37.5860   27.4230   29.8760 H   0  0  0  0  0  0  0  0  0  0  0  0
   36.1380   28.5650   29.9690 H   0  0  0  0  0  0  0  0  0  0  0  0
   37.6780   27.3010   32.3680 H   0  0  0  0  0  0  0  0  0  0  0  0
   37.9400   23.6240   30.7810 C   0  0  0  0  0  0  0  0  0  0  0  0
   37.0090   22.6010   31.1030 C   0  0  0  0  0  0  0  0  0  0  0  0
   35.6650   23.0030   31.4490 C   0  0  0  0  0  0  0  0  0  0  0  0
   35.3550   24.3250   31.4530 N   0  0  0  0  0  0  0  0  0  0  0  0
   36.3000   25.2530   31.1330 C   0  0  0  0  0  0  0  0  0  0  0  0
   37.5990   24.9330   30.7930 N   0  0  0  0  0  0  0  0  0  0  0  0
   38.9290   23.2630   30.5310 H   0  0  0  0  0  0  0  0  0  0  0  0
   37.2980   21.5740   31.0870 H   0  0  0  0  0  0  0  0  0  0  0  0
   34.9510   22.2290   31.6950 H   0  0  0  0  0  0  0  0  0  0  0  0
  1  2  2  0  0  0  0
  1  5  1  0  0  0  0
  3  1  1  0  0  0  0
  4  3  1  0  0  0  0
  5 10  2  0  0  0  0
  5  6  1  0  0  0  0
  6  7  2  0  0  0  0
  7  8  1  0  0  0  0
  7 12  1  0  0  0  0
  8 13  1  0  0  0  0
  9 14  1  0  0  0  0
  9  8  2  0  0  0  0
 10  9  1  0  0  0  0
 11  6  1  0  0  0  0
 14 15  1  0  0  0  0
 15 17  1  0  0  0  0
 16 15  1  0  0  0  0
 17 18  1  0  0  0  0
 19 15  1  0  0  0  0
 20 19  1  0  0  0  0
 21 24  1  1  0  0  0
 21 23  1  0  0  0  0
 22 21  1  0  0  0  0
 22 23  1  0  0  0  0
 23 27  1  1  0  0  0
 23  3  1  0  0  0  0
 25 22  1  0  0  0  0
 26 22  1  0  0  0  0
 28 33  2  0  0  0  0
 28 29  1  0  0  0  0
 29 30  2  0  0  0  0
 30 31  1  0  0  0  0
 30 36  1  0  0  0  0
 32 21  1  0  0  0  0
 32 31  2  0  0  0  0
 33 32  1  0  0  0  0
 34 28  1  0  0  0  0
 35 29  1  0  0  0  0
M  END
>  <minimizedAffinity>
-4.70884371

$$$$

 OpenBabel03272508553D

 36 38  0  0  1  0  0  0  0  0999 V2000
   37.0120   26.3600   32.6980 C   0  0  0  0  0  0  0  0  0  0  0  0
   37.7800   26.0500   33.6560 O   0  0  0  0  0  0  0  0  0  0  0  0
   36.6600   25.3880   31.7090 N   0  0  0  0  0  0  0  0  0  0  0  0
   36.2020   25.6430   30.8290 H   0  0  0  0  0  0  0  0  0  0  0  0
   36.4680   27.7230   32.5840 C   0  0  0  0  0  0  0  0  0  0  0  0
   36.3300   28.2630   31.3330 C   0  0  0  0  0  0  0  0  0  0  0  0
   35.8160   29.5470   31.2260 C   0  0  0  0  0  0  0  0  0  0  0  0
   35.4780   30.1970   32.3770 C   0  0  0  0  0  0  0  0  0  0  0  0
   35.6130   29.6580   33.6670 C   0  0  0  0  0  0  0  0  0  0  0  0
   36.1160   28.4150   33.6830 N   0  0  0  0  0  0  0  0  0  0  0  0
   36.6010   27.7420   30.4330 H   0  0  0  0  0  0  0  0  0  0  0  0
   35.6880   30.0190   30.2600 H   0  0  0  0  0  0  0  0  0  0  0  0
   35.0790   31.1940   32.2800 H   0  0  0  0  0  0  0  0  0  0  0  0
   35.2220   30.4280   34.8630 C   0  0  0  0  0  2  0  0  0  0  0  0
   33.8230   30.7320   34.9430 N   0  0  0  0  0  4  0  0  0  0  0  0
   33.5400   31.2090   34.0570 H   0  0  0  0  0  0  0  0  0  0  0  0
   32.9890   29.5480   35.0690 C   0  0  0  0  0  2  0  0  0  0  0  0
   33.3630   28.7610   34.4050 H   0  0  0  0  0  0  0  0  0  0  0  0
   33.5490   31.6610   36.0490 C   0  0  0  0  0  2  0  0  0  0  0  0
   33.2250   32.6400   35.6860 H   0  0  0  0  0  0  0  0  0  0  0  0
   36.4050   22.9670   31.1590 C   0  0  2  0  0  0  0  0  0  0  0  0
   37.7990   23.3270   30.8550 C   0  0  0  0  0  0  0  0  0  0  0  0
   36.9740   23.9980   31.9870 C   0  0  1  0  0  0  0  0  0  0  0  0
   35.7050   23.2330   30.3190 H   0  0  0  0  0  0  0  0  0  0  0  0
   38.6210   22.6520   31.1880 H   0  0  0  0  0  0  0  0  0  0  0  0
   38.0520   23.9360   29.9880 H   0  0  0  0  0  0  0  0  0  0  0  0
   37.3210   23.7510   33.0140 H   0  0  0  0  0  0  0  0  0  0  0  0
   35.6070   19.3740   31.4650 C   0  0  0  0  0  0  0  0  0  0  0  0
   35.4330   19.2190   32.8660 C   0  0  0  0  0  0  0  0  0  0  0  0
   35.5900   20.3920   33.6950 C   0  0  0  0  0  0  0  0  0  0  0  0
   35.8950   21.5770   33.1050 N   0  0  0  0  0  0  0  0  0  0  0  0
   36.0470   21.6530   31.7530 C   0  0  0  0  0  0  0  0  0  0  0  0
   35.9090   20.5700   30.9080 N   0  0  0  0  0  0  0  0  0  0  0  0
   35.4770   18.4630   30.8970 H   0  0  0  0  0  0  0  0  0  0  0  0
   35.1930   18.2670   33.2850 H   0  0  0  0  0  0  0  0  0  0  0  0
   35.4580   20.2820   34.7630 H   0  0  0  0  0  0  0  0  0  0  0  0
  1  2  2  0  0  0  0
  3 23  1  0  0  0  0
  3  1  1  0  0  0  0
  4  3  1  0  0  0  0
  5  1  1  0  0  0  0
  5 10  1  0  0  0  0
  6  5  2  0  0  0  0
  7  6  1  0  0  0  0
  7  8  2  0  0  0  0
  8  9  1  0  0  0  0
  9 10  2  0  0  0  0
  9 14  1  0  0  0  0
 11  6  1  0  0  0  0
 12  7  1  0  0  0  0
 13  8  1  0  0  0  0
 14 15  1  0  0  0  0
 15 17  1  0  0  0  0
 15 19  1  0  0  0  0
 16 15  1  0  0  0  0
 18 17  1  0  0  0  0
 20 19  1  0  0  0  0
 21 24  1  6  0  0  0
 21 32  1  0  0  0  0
 21 23  1  0  0  0  0
 22 21  1  0  0  0  0
 22 25  1  0  0  0  0
 22 23  1  0  0  0  0
 23 27  1  1  0  0  0
 26 22  1  0  0  0  0
 28 29  1  0  0  0  0
 29 35  1  0  0  0  0
 29 30  2  0  0  0  0
 30 36  1  0  0  0  0
 31 30  1  0  0  0  0
 32 31  2  0  0  0  0
 33 28  2  0  0  0  0
 33 32  1  0  0  0  0
 34 28  1  0  0  0  0
M  END
>  <minimizedAffinity>
-4.70164776

$$$$

 OpenBabel03272508553D

 36 38  0  0  1  0  0  0  0  0999 V2000
   37.8690   26.5810   35.3200 C   0  0  0  0  0  0  0  0  0  0  0  0
   38.7520   27.4160   35.6780 O   0  0  0  0  0  0  0  0  0  0  0  0
   36.7280   27.0110   34.5710 N   0  0  0  0  0  0  0  0  0  0  0  0
   35.9100   26.4110   34.4270 H   0  0  0  0  0  0  0  0  0  0  0  0
   37.9990   25.1570   35.6690 C   0  0  0  0  0  0  0  0  0  0  0  0
   38.1170   24.8230   36.9920 C   0  0  0  0  0  0  0  0  0  0  0  0
   38.2390   23.4810   37.3210 C   0  0  0  0  0  0  0  0  0  0  0  0
   38.2330   22.5710   36.3040 C   0  0  0  0  0  0  0  0  0  0  0  0
   38.1130   22.8970   34.9420 C   0  0  0  0  0  0  0  0  0  0  0  0
   38.0010   24.2120   34.7100 N   0  0  0  0  0  0  0  0  0  0  0  0
   38.1220   25.5480   37.7850 H   0  0  0  0  0  0  0  0  0  0  0  0
   38.3360   23.1650   38.3520 H   0  0  0  0  0  0  0  0  0  0  0  0
   38.3280   21.5310   36.5730 H   0  0  0  0  0  0  0  0  0  0  0  0
   38.1150   21.8510   33.9030 C   0  0  0  0  0  2  0  0  0  0  0  0
   36.8930   21.7480   33.1610 N   0  0  0  0  0  4  0  0  0  0  0  0
   36.4470   22.6930   33.1290 H   0  0  0  0  0  0  0  0  0  0  0  0
   37.0950   21.3310   31.7840 C   0  0  0  0  0  2  0  0  0  0  0  0
   37.9700   21.8420   31.3690 H   0  0  0  0  0  0  0  0  0  0  0  0
   35.9470   20.8400   33.8280 C   0  0  0  0  0  2  0  0  0  0  0  0
   35.0760   21.3760   34.2170 H   0  0  0  0  0  0  0  0  0  0  0  0
   35.8120   28.6970   32.9760 C   0  0  2  0  0  0  0  0  0  0  0  0
   35.4800   29.1680   34.3300 C   0  0  0  0  0  0  0  0  0  0  0  0
   36.7580   28.3470   34.0050 C   0  0  1  0  0  0  0  0  0  0  0  0
   35.0740   27.9370   32.5970 H   0  0  0  0  0  0  0  0  0  0  0  0
   35.6440   30.2390   34.5900 H   0  0  0  0  0  0  0  0  0  0  0  0
   34.7080   28.6830   34.9260 H   0  0  0  0  0  0  0  0  0  0  0  0
   37.7060   28.9180   34.0990 H   0  0  0  0  0  0  0  0  0  0  0  0
   36.5140   31.8370   31.1620 C   0  0  0  0  0  0  0  0  0  0  0  0
   36.9880   31.3650   29.9090 C   0  0  0  0  0  0  0  0  0  0  0  0
   37.0470   29.9360   29.7100 C   0  0  0  0  0  0  0  0  0  0  0  0
   36.6530   29.1150   30.7180 N   0  0  0  0  0  0  0  0  0  0  0  0
   36.2090   29.6370   31.8950 C   0  0  0  0  0  0  0  0  0  0  0  0
   36.1270   30.9920   32.1460 N   0  0  0  0  0  0  0  0  0  0  0  0
   36.4910   32.9140   31.2530 H   0  0  0  0  0  0  0  0  0  0  0  0
   37.2860   32.0490   29.1450 H   0  0  0  0  0  0  0  0  0  0  0  0
   37.4070   29.5700   28.7580 H   0  0  0  0  0  0  0  0  0  0  0  0
  1  5  1  0  0  0  0
  1  2  2  0  0  0  0
  3  1  1  0  0  0  0
  4  3  1  0  0  0  0
  5  6  1  0  0  0  0
  6  7  2  0  0  0  0
  6 11  1  0  0  0  0
  7 12  1  0  0  0  0
  8 13  1  0  0  0  0
  8  7  1  0  0  0  0
  9  8  2  0  0  0  0
 10  9  1  0  0  0  0
 10  5  2  0  0  0  0
 14  9  1  0  0  0  0
 15 19  1  0  0  0  0
 15 14  1  0  0  0  0
 16 15  1  0  0  0  0
 17 15  1  0  0  0  0
 18 17  1  0  0  0  0
 19 20  1  0  0  0  0
 21 24  1  6  0  0  0
 21 23  1  0  0  0  0
 21 22  1  0  0  0  0
 22 25  1  0  0  0  0
 22 26  1  0  0  0  0
 23 27  1  1  0  0  0
 23 22  1  0  0  0  0
 23  3  1  0  0  0  0
 28 34  1  0  0  0  0
 28 33  1  0  0  0  0
 29 28  2  0  0  0  0
 30 29  1  0  0  0  0
 30 31  2  0  0  0  0
 31 32  1  0  0  0  0
 32 33  2  0  0  0  0
 32 21  1  0  0  0  0
 35 29  1  0  0  0  0
 36 30  1  0  0  0  0
M  END
>  <minimizedAffinity>
-4.69073772

$$$$

 OpenBabel03272508553D

 36 38  0  0  1  0  0  0  0  0999 V2000
   35.8370   24.9570   31.1600 C   0  0  0  0  0  0  0  0  0  0  0  0
   34.6190   25.2240   30.9360 O   0  0  0  0  0  0  0  0  0  0  0  0
   36.8480   25.9420   30.9260 N   0  0  0  0  0  0  0  0  0  0  0  0
   37.8460   25.7090   30.9140 H   0  0  0  0  0  0  0  0  0  0  0  0
   36.2320   23.6320   31.6640 C   0  0  0  0  0  0  0  0  0  0  0  0
   35.5980   22.5310   31.1540 C   0  0  0  0  0  0  0  0  0  0  0  0
   35.9720   21.2810   31.6270 C   0  0  0  0  0  0  0  0  0  0  0  0
   36.9530   21.2240   32.5740 C   0  0  0  0  0  0  0  0  0  0  0  0
   37.6130   22.3440   33.1070 C   0  0  0  0  0  0  0  0  0  0  0  0
   37.1940   23.5110   32.5980 N   0  0  0  0  0  0  0  0  0  0  0  0
   34.8250   22.5870   30.4080 H   0  0  0  0  0  0  0  0  0  0  0  0
   35.5000   20.3790   31.2570 H   0  0  0  0  0  0  0  0  0  0  0  0
   37.2340   20.2470   32.9330 H   0  0  0  0  0  0  0  0  0  0  0  0
   38.6650   22.1960   34.1290 C   0  0  0  0  0  2  0  0  0  0  0  0
   38.6020   23.1580   35.1910 N   0  0  0  0  0  4  0  0  0  0  0  0
   38.1960   24.0420   34.8080 H   0  0  0  0  0  0  0  0  0  0  0  0
   37.7430   22.7410   36.2870 C   0  0  0  0  0  2  0  0  0  0  0  0
   36.8370   22.2740   35.8880 H   0  0  0  0  0  0  0  0  0  0  0  0
   39.9460   23.4740   35.6960 C   0  0  0  0  0  2  0  0  0  0  0  0
   40.2360   24.5020   35.4620 H   0  0  0  0  0  0  0  0  0  0  0  0
   36.3400   28.2160   31.8180 C   0  0  2  0  0  0  0  0  0  0  0  0
   37.5400   28.3480   30.9760 C   0  0  0  0  0  0  0  0  0  0  0  0
   36.4180   27.3100   30.7010 C   0  0  1  0  0  0  0  0  0  0  0  0
   36.5860   27.8630   32.8570 H   0  0  0  0  0  0  0  0  0  0  0  0
   37.6080   29.1920   30.2530 H   0  0  0  0  0  0  0  0  0  0  0  0
   38.5080   27.9690   31.3040 H   0  0  0  0  0  0  0  0  0  0  0  0
   35.8230   27.5110   29.7850 H   0  0  0  0  0  0  0  0  0  0  0  0
   33.2350   30.0230   32.6740 C   0  0  0  0  0  0  0  0  0  0  0  0
   33.3680   31.2270   31.9320 C   0  0  0  0  0  0  0  0  0  0  0  0
   34.5550   31.3870   31.1230 C   0  0  0  0  0  0  0  0  0  0  0  0
   35.4800   30.3930   31.1090 N   0  0  0  0  0  0  0  0  0  0  0  0
   35.2870   29.2640   31.8480 C   0  0  0  0  0  0  0  0  0  0  0  0
   34.1750   29.0510   32.6380 N   0  0  0  0  0  0  0  0  0  0  0  0
   32.3280   29.9600   33.2600 H   0  0  0  0  0  0  0  0  0  0  0  0
   32.6140   31.9810   31.9730 H   0  0  0  0  0  0  0  0  0  0  0  0
   34.6620   32.3010   30.5540 H   0  0  0  0  0  0  0  0  0  0  0  0
  1  5  1  0  0  0  0
  2  1  2  0  0  0  0
  3  1  1  0  0  0  0
  4  3  1  0  0  0  0
  5 10  1  0  0  0  0
  6  7  1  0  0  0  0
  6  5  2  0  0  0  0
  7  8  2  0  0  0  0
  8 13  1  0  0  0  0
  8  9  1  0  0  0  0
  9 14  1  0  0  0  0
 10  9  2  0  0  0  0
 11  6  1  0  0  0  0
 12  7  1  0  0  0  0
 14 15  1  0  0  0  0
 15 19  1  0  0  0  0
 15 17  1  0  0  0  0
 16 15  1  0  0  0  0
 18 17  1  0  0  0  0
 20 19  1  0  0  0  0
 21 32  1  0  0  0  0
 21 24  1  1  0  0  0
 22 26  1  0  0  0  0
 22 21  1  0  0  0  0
 23 27  1  6  0  0  0
 23  3  1  0  0  0  0
 23 22  1  0  0  0  0
 23 21  1  0  0  0  0
 25 22  1  0  0  0  0
 28 34  1  0  0  0  0
 29 35  1  0  0  0  0
 29 28  2  0  0  0  0
 30 29  1  0  0  0  0
 31 30  2  0  0  0  0
 31 32  1  0  0  0  0
 32 33  2  0  0  0  0
 33 28  1  0  0  0  0
 36 30  1  0  0  0  0
M  END
>  <minimizedAffinity>
-4.68134499

$$$$

 OpenBabel03272508553D

 36 38  0  0  1  0  0  0  0  0999 V2000
   36.8720   27.3620   32.8030 C   0  0  0  0  0  0  0  0  0  0  0  0
   36.6730   26.1500   32.4910 O   0  0  0  0  0  0  0  0  0  0  0  0
   37.1430   27.7250   34.1600 N   0  0  0  0  0  0  0  0  0  0  0  0
   37.1220   28.6970   34.4810 H   0  0  0  0  0  0  0  0  0  0  0  0
   36.8270   28.4160   31.7770 C   0  0  0  0  0  0  0  0  0  0  0  0
   36.1380   29.5660   32.0600 C   0  0  0  0  0  0  0  0  0  0  0  0
   36.0970   30.5610   31.0940 C   0  0  0  0  0  0  0  0  0  0  0  0
   36.7480   30.3330   29.9160 C   0  0  0  0  0  0  0  0  0  0  0  0
   37.4580   29.1610   29.6100 C   0  0  0  0  0  0  0  0  0  0  0  0
   37.4490   28.2510   30.5950 N   0  0  0  0  0  0  0  0  0  0  0  0
   35.6280   29.7340   32.9910 H   0  0  0  0  0  0  0  0  0  0  0  0
   35.5660   31.4880   31.2680 H   0  0  0  0  0  0  0  0  0  0  0  0
   36.7090   31.1140   29.1730 H   0  0  0  0  0  0  0  0  0  0  0  0
   38.1360   28.9940   28.3110 C   0  0  0  0  0  2  0  0  0  0  0  0
   39.4140   28.3480   28.3850 N   0  0  0  0  0  4  0  0  0  0  0  0
   39.3970   27.6790   29.1890 H   0  0  0  0  0  0  0  0  0  0  0  0
   39.7300   27.5730   27.1980 C   0  0  0  0  0  2  0  0  0  0  0  0
   38.8390   27.0320   26.8620 H   0  0  0  0  0  0  0  0  0  0  0  0
   40.4820   29.3240   28.6500 C   0  0  0  0  0  2  0  0  0  0  0  0
   40.9190   29.1870   29.6430 H   0  0  0  0  0  0  0  0  0  0  0  0
   38.8190   26.2100   35.2200 C   0  0  2  0  0  0  0  0  0  0  0  0
   38.3530   27.1290   36.2700 C   0  0  0  0  0  0  0  0  0  0  0  0
   37.4560   26.6580   35.0940 C   0  0  1  0  0  0  0  0  0  0  0  0
   39.6290   26.6640   34.5860 H   0  0  0  0  0  0  0  0  0  0  0  0
   38.0910   26.7230   37.2740 H   0  0  0  0  0  0  0  0  0  0  0  0
   38.6570   28.1760   36.2840 H   0  0  0  0  0  0  0  0  0  0  0  0
   36.6240   25.9850   35.3930 H   0  0  0  0  0  0  0  0  0  0  0  0
   40.6580   23.0420   35.6890 C   0  0  0  0  0  0  0  0  0  0  0  0
   39.6270   22.1440   36.0730 C   0  0  0  0  0  0  0  0  0  0  0  0
   38.2810   22.6650   36.1540 C   0  0  0  0  0  0  0  0  0  0  0  0
   38.0650   23.9740   35.8650 N   0  0  0  0  0  0  0  0  0  0  0  0
   39.1040   24.7790   35.5030 C   0  0  0  0  0  0  0  0  0  0  0  0
   40.4100   24.3410   35.4060 N   0  0  0  0  0  0  0  0  0  0  0  0
   41.6420   22.5960   35.6460 H   0  0  0  0  0  0  0  0  0  0  0  0
   39.8440   21.1220   36.2910 H   0  0  0  0  0  0  0  0  0  0  0  0
   37.4910   21.9870   36.4450 H   0  0  0  0  0  0  0  0  0  0  0  0
  1  3  1  0  0  0  0
  2  1  2  0  0  0  0
  3  4  1  0  0  0  0
  3 23  1  0  0  0  0
  5  6  1  0  0  0  0
  5  1  1  0  0  0  0
  6 11  1  0  0  0  0
  7 12  1  0  0  0  0
  7  6  2  0  0  0  0
  8  7  1  0  0  0  0
  9  8  2  0  0  0  0
  9 10  1  0  0  0  0
 10  5  2  0  0  0  0
 13  8  1  0  0  0  0
 14 15  1  0  0  0  0
 14  9  1  0  0  0  0
 15 19  1  0  0  0  0
 15 16  1  0  0  0  0
 17 15  1  0  0  0  0
 18 17  1  0  0  0  0
 19 20  1  0  0  0  0
 21 24  1  6  0  0  0
 21 32  1  0  0  0  0
 21 22  1  0  0  0  0
 22 26  1  0  0  0  0
 22 25  1  0  0  0  0
 23 21  1  0  0  0  0
 23 27  1  1  0  0  0
 23 22  1  0  0  0  0
 28 29  1  0  0  0  0
 29 30  2  0  0  0  0
 29 35  1  0  0  0  0
 30 36  1  0  0  0  0
 31 30  1  0  0  0  0
 32 31  2  0  0  0  0
 33 32  1  0  0  0  0
 33 28  2  0  0  0  0
 34 28  1  0  0  0  0
M  END
>  <minimizedAffinity>
-4.65151072

$$$$
