
     RDKit          3D

 49 51  0  0  0  0  0  0  0  0999 V2000
   35.2723   30.3682   49.6980 C   0  0  2  0  0  0  0  0  0  0  0  0
   36.2664   31.0840   48.8619 C   0  0  0  0  0  0  0  0  0  0  0  0
   37.6708   30.4860   48.9553 C   0  0  2  0  0  0  0  0  0  0  0  0
   38.1614   30.5957   50.3748 C   0  0  0  0  0  0  0  0  0  0  0  0
   37.1251   30.1253   51.3766 C   0  0  0  0  0  0  0  0  0  0  0  0
   35.9533   29.4621   50.7003 C   0  0  0  0  0  0  0  0  0  0  0  0
   34.3483   29.5256   48.9060 C   0  0  0  0  0  0  0  0  0  0  0  0
   34.3150   29.7929   47.5370 C   0  0  0  0  0  0  0  0  0  0  0  0
   33.4862   29.0275   46.7440 C   0  0  0  0  0  0  0  0  0  0  0  0
   32.7229   28.0295   47.3320 N   0  0  0  0  0  0  0  0  0  0  0  0
   32.7841   27.8022   48.6680 C   0  0  0  0  0  0  0  0  0  0  0  0
   33.5861   28.5465   49.4169 N   0  0  0  0  0  0  0  0  0  0  0  0
   38.5769   31.0380   47.9373 C   0  0  2  0  0  0  0  0  0  0  0  0
   38.7643   32.5258   47.9275 C   0  0  0  0  0  0  0  0  0  0  0  0
   39.5316   32.6308   46.5921 C   0  0  0  0  0  0  0  0  0  0  0  0
   38.8656   31.7726   45.7448 O   0  0  0  0  0  0  0  0  0  0  0  0
   38.2445   30.7902   46.5126 C   0  0  1  0  0  0  0  0  0  0  0  0
   34.5981   31.0642   50.2794 H   0  0  0  0  0  0  0  0  0  0  0  0
   36.4124   32.0945   49.3906 H   0  0  0  0  0  0  0  0  0  0  0  0
   36.0904   31.3303   47.8528 H   0  0  0  0  0  0  0  0  0  0  0  0
   37.5433   29.4053   48.7413 H   0  0  0  0  0  0  0  0  0  0  0  0
   38.3898   31.6576   50.5717 H   0  0  0  0  0  0  0  0  0  0  0  0
   39.1119   30.0295   50.4794 H   0  0  0  0  0  0  0  0  0  0  0  0
   36.7781   30.9603   52.0350 H   0  0  0  0  0  0  0  0  0  0  0  0
   37.5940   29.3989   52.0560 H   0  0  0  0  0  0  0  0  0  0  0  0
   36.3209   28.5784   50.1648 H   0  0  0  0  0  0  0  0  0  0  0  0
   35.2114   29.2347   51.4916 H   0  0  0  0  0  0  0  0  0  0  0  0
   34.7744   30.4757   46.8446 H   0  0  0  0  0  0  0  0  0  0  0  0
   33.2754   29.0223   45.6898 H   0  0  0  0  0  0  0  0  0  0  0  0
   32.1972   27.0318   49.1353 H   0  0  0  0  0  0  0  0  0  0  0  0
   39.5946   30.6166   48.1371 H   0  0  0  0  0  0  0  0  0  0  0  0
   37.8054   33.0718   47.8448 H   0  0  0  0  0  0  0  0  0  0  0  0
   39.3910   32.8591   48.7572 H   0  0  0  0  0  0  0  0  0  0  0  0
   40.5673   32.2867   46.7575 H   0  0  0  0  0  0  0  0  0  0  0  0
   39.4449   33.6817   46.2835 H   0  0  0  0  0  0  0  0  0  0  0  0
   37.1939   30.7134   46.2517 H   0  0  0  0  0  0  0  0  0  0  0  0
   38.8840   29.4722   46.1267 C   0  0  0  0  0  0  0  0  0  0  0  0
   38.4558   28.9730   44.8490 N   0  0  0  0  0  4  0  0  0  0  0  0
   39.2126   27.7257   44.6567 C   0  0  0  0  0  0  0  0  0  0  0  0
   38.6827   26.8545   45.0504 H   0  0  0  0  0  0  0  0  0  0  0  0
   38.8903   29.8396   43.7706 C   0  0  0  0  0  0  0  0  0  0  0  0
   39.1477   29.2345   42.8755 H   0  0  0  0  0  0  0  0  0  0  0  0
   38.6249   28.6674   46.8688 H   0  0  0  0  0  0  0  0  0  0  0  0
   39.9829   29.5136   46.1117 H   0  0  0  0  0  0  0  0  0  0  0  0
   37.4289   28.7861   44.8426 H   0  0  0  0  0  0  0  0  0  0  0  0
   39.4904   27.5859   43.5810 H   0  0  0  0  0  0  0  0  0  0  0  0
   40.2088   27.8050   45.1842 H   0  0  0  0  0  0  0  0  0  0  0  0
   38.1263   30.5964   43.5266 H   0  0  0  0  0  0  0  0  0  0  0  0
   39.8305   30.3357   44.0890 H   0  0  0  0  0  0  0  0  0  0  0  0
  1  6  1  0
  2  3  1  0
  2  1  1  0
  3  4  1  0
  4  5  1  0
  6  5  1  0
  7 12  1  0
  7  1  1  0
  8  7  2  0
  9 10  2  0
  9  8  1  0
 10 11  1  0
 11 12  2  0
 13 17  1  0
 13  3  1  0
 14 13  1  0
 15 14  1  0
 16 17  1  0
 16 15  1  0
  1 18  1  1
  2 19  1  0
  2 20  1  0
  3 21  1  6
  4 22  1  0
  4 23  1  0
  5 24  1  0
  5 25  1  0
  6 26  1  0
  6 27  1  0
  8 28  1  0
  9 29  1  0
 11 30  1  0
 13 31  1  1
 14 32  1  0
 14 33  1  0
 15 34  1  0
 15 35  1  0
 17 36  1  1
 37 38  1  0
 38 39  1  0
 39 40  1  0
 38 41  1  0
 41 42  1  0
 37 43  1  0
 37 44  1  0
 38 45  1  0
 39 46  1  0
 39 47  1  0
 41 48  1  0
 41 49  1  0
 17 37  1  0
M  ISO  8  18  13  19  13  20  13  21  13  22  13  23  13  24  13  25  13
M  ISO  8  26  13  27  13  28  14  29  14  30  14  31  13  32  13  33  13
M  CHG  1  38   1
M  ISO  5  34  13  35  13  36  13  40   8  42   8
M  END
>  <DihAtoms>  (1) 
12,16,36,37

>  <DihDeg>  (1) 
-175.60213485465164

$$$$
