
 OpenBabel03262523383D

 43 45  0  0  1  0  0  0  0  0999 V2000
   35.1780   30.0560   49.4640 C   0  0  2  0  0  0  0  0  0  0  0  0
   36.1320   31.1640   49.2130 C   0  0  0  0  0  0  0  0  0  0  0  0
   37.5780   30.8000   49.5520 C   0  0  2  0  0  0  0  0  0  0  0  0
   37.6770   30.4880   51.0220 C   0  0  0  0  0  0  0  0  0  0  0  0
   36.5840   29.5420   51.4820 C   0  0  0  0  0  0  0  0  0  0  0  0
   35.8070   28.9790   50.3200 C   0  0  0  0  0  0  0  0  0  0  0  0
   34.2360   30.3930   49.9880 H   0  0  0  0  0  0  0  0  0  0  0  0
   35.8940   31.9380   50.0280 H   0  0  0  0  0  0  0  0  0  0  0  0
   36.1430   31.7130   48.3140 H   0  0  0  0  0  0  0  0  0  0  0  0
   37.7770   29.8540   49.0070 H   0  0  0  0  0  0  0  0  0  0  0  0
   37.5820   31.4380   51.5760 H   0  0  0  0  0  0  0  0  0  0  0  0
   38.6870   30.0770   51.2420 H   0  0  0  0  0  0  0  0  0  0  0  0
   35.8960   30.0320   52.2150 H   0  0  0  0  0  0  0  0  0  0  0  0
   37.0450   28.7100   52.0320 H   0  0  0  0  0  0  0  0  0  0  0  0
   36.4980   28.4040   49.6920 H   0  0  0  0  0  0  0  0  0  0  0  0
   34.9800   28.3780   50.7490 H   0  0  0  0  0  0  0  0  0  0  0  0
   38.5330   31.8050   49.0610 C   0  0  2  0  0  0  0  0  0  0  0  0
   38.4670   33.1670   49.6860 C   0  0  0  0  0  0  0  0  0  0  0  0
   39.4140   33.8920   48.7040 C   0  0  0  0  0  0  0  0  0  0  0  0
   39.0470   33.4210   47.4630 O   0  0  0  0  0  0  0  0  0  0  0  0
   38.4830   32.1560   47.6210 C   0  0  1  0  0  0  0  0  0  0  0  0
   39.5600   31.4270   49.2930 H   0  0  0  0  0  0  0  0  0  0  0  0
   37.4570   33.6140   49.6210 H   0  0  0  0  0  0  0  0  0  0  0  0
   38.8860   33.1690   50.6940 H   0  0  0  0  0  0  0  0  0  0  0  0
   40.4510   33.5990   48.9400 H   0  0  0  0  0  0  0  0  0  0  0  0
   39.2030   34.9640   48.8280 H   0  0  0  0  0  0  0  0  0  0  0  0
   37.5160   32.1090   47.1290 H   0  0  0  0  0  0  0  0  0  0  0  0
   39.3870   31.1850   46.8920 C   0  0  0  0  0  2  0  0  0  0  0  0
   39.5270   31.4660   45.4890 N   0  0  0  0  0  4  0  0  0  0  0  0
   38.9140   32.2610   45.2010 H   0  0  0  0  0  0  0  0  0  0  0  0
   39.1180   30.2240   44.8120 C   0  0  0  0  0  2  0  0  0  0  0  0
   38.0480   30.2070   44.5890 H   0  0  0  0  0  0  0  0  0  0  0  0
   40.9180   31.6460   45.1220 C   0  0  0  0  0  2  0  0  0  0  0  0
   41.0990   31.2360   44.1060 H   0  0  0  0  0  0  0  0  0  0  0  0
   34.7060   29.4050   48.2220 C   0  0  0  0  0  0  0  0  0  0  0  0
   35.0080   30.0790   47.0380 C   0  0  0  0  0  0  0  0  0  0  0  0
   34.6100   29.5110   45.8460 C   0  0  0  0  0  0  0  0  0  0  0  0
   33.9290   28.3020   45.8680 N   0  0  0  0  0  0  0  0  0  0  0  0
   33.6530   27.6800   47.0420 C   0  0  0  0  0  0  0  0  0  0  0  0
   34.0440   28.2390   48.1800 N   0  0  0  0  0  0  0  0  0  0  0  0
   35.4970   30.9880   46.7390 H   0  0  0  0  0  0  0  0  0  0  0  0
   34.7110   29.8100   44.8180 H   0  0  0  0  0  0  0  0  0  0  0  0
   33.1260   26.7440   47.0720 H   0  0  0  0  0  0  0  0  0  0  0  0
  1  7  1  1  0  0  0
  1  6  1  0  0  0  0
  2  1  1  0  0  0  0
  2  3  1  0  0  0  0
  2  8  1  0  0  0  0
  3 10  1  6  0  0  0
  3  4  1  0  0  0  0
  4 12  1  0  0  0  0
  4  5  1  0  0  0  0
  4 11  1  0  0  0  0
  5 14  1  0  0  0  0
  5 13  1  0  0  0  0
  6 16  1  0  0  0  0
  6  5  1  0  0  0  0
  9  2  1  0  0  0  0
 15  6  1  0  0  0  0
 17 22  1  1  0  0  0
 17  3  1  0  0  0  0
 17 18  1  0  0  0  0
 18 24  1  0  0  0  0
 19 26  1  0  0  0  0
 19 25  1  0  0  0  0
 19 18  1  0  0  0  0
 20 21  1  0  0  0  0
 20 19  1  0  0  0  0
 21 27  1  6  0  0  0
 21 17  1  0  0  0  0
 23 18  1  0  0  0  0
 28 21  1  0  0  0  0
 29 28  1  0  0  0  0
 30 29  1  0  0  0  0
 31 29  1  0  0  0  0
 32 31  1  0  0  0  0
 33 29  1  0  0  0  0
 34 33  1  0  0  0  0
 35  1  1  0  0  0  0
 36 35  2  0  0  0  0
 37 38  2  0  0  0  0
 37 36  1  0  0  0  0
 38 39  1  0  0  0  0
 39 43  1  0  0  0  0
 39 40  2  0  0  0  0
 40 35  1  0  0  0  0
 41 36  1  0  0  0  0
 42 37  1  0  0  0  0
M  END
>  <minimizedAffinity>
-6.23528481

>  <minimizedRMSD>
1.60284793

$$$$
