
 OpenBabel03272509383D

 28 29  0  0  1  0  0  0  0  0999 V2000
   36.1910   29.8520   48.7790 C   0  0  0  0  0  0  0  0  0  0  0  0
   36.2590   29.8770   50.1720 C   0  0  0  0  0  0  0  0  0  0  0  0
   37.2490   30.5860   50.8580 C   0  0  0  0  0  0  0  0  0  0  0  0
   38.1980   31.2880   50.0940 C   0  0  0  0  0  0  0  0  0  0  0  0
   38.1100   31.2490   48.7230 C   0  0  0  0  0  0  0  0  0  0  0  0
   37.1290   30.5490   48.0390 C   0  0  0  0  0  0  0  0  0  0  0  0
   35.5090   29.3190   50.7450 H   0  0  0  0  0  0  0  0  0  0  0  0
   37.2280   30.5490   51.9200 H   0  0  0  0  0  0  0  0  0  0  0  0
   38.9120   31.7940   50.7240 H   0  0  0  0  0  0  0  0  0  0  0  0
   38.9280   31.8350   48.3280 H   0  0  0  0  0  0  0  0  0  0  0  0
   35.1280   29.0600   48.1770 C   0  0  1  0  0  3  0  0  0  0  0  0
   34.8910   27.9460   48.7730 O   0  0  0  0  0  1  0  0  0  0  0  0
   32.7920   30.9860   46.1930 C   0  0  0  0  0  0  0  0  0  0  0  0
   32.8260   30.3630   44.9320 C   0  0  0  0  0  0  0  0  0  0  0  0
   33.6580   29.2570   44.7620 C   0  0  0  0  0  0  0  0  0  0  0  0
   34.4120   28.8070   45.8110 N   0  0  0  0  0  0  0  0  0  0  0  0
   34.3520   29.4300   47.0000 C   0  0  0  0  0  0  0  0  0  0  0  0
   33.5550   30.4820   47.1460 N   0  0  0  0  0  0  0  0  0  0  0  0
   32.1360   31.8320   46.2590 H   0  0  0  0  0  0  0  0  0  0  0  0
   32.2700   30.6460   44.0480 H   0  0  0  0  0  0  0  0  0  0  0  0
   33.7700   28.6910   43.8410 H   0  0  0  0  0  0  0  0  0  0  0  0
   37.1250   30.6080   46.5900 C   0  0  0  0  0  2  0  0  0  0  0  0
   38.2970   31.3020   46.0220 N   0  0  0  0  0  4  0  0  0  0  0  0
   38.9890   31.5750   46.7230 H   0  0  0  0  0  0  0  0  0  0  0  0
   38.9490   30.2340   45.2300 C   0  0  0  0  0  2  0  0  0  0  0  0
   38.4190   30.2120   44.2290 H   0  0  0  0  0  0  0  0  0  0  0  0
   37.9470   32.3060   45.0600 C   0  0  0  0  0  2  0  0  0  0  0  0
   38.6640   33.1730   45.1910 H   0  0  0  0  0  0  0  0  0  0  0  0
  1  2  1  0  0  0  0
  2  7  1  0  0  0  0
  2  3  2  0  0  0  0
  3  8  1  0  0  0  0
  4  9  1  0  0  0  0
  4  3  1  0  0  0  0
  5  4  2  0  0  0  0
  6  5  1  0  0  0  0
  6  1  2  0  0  0  0
 10  5  1  0  0  0  0
 11 12  1  1  0  0  0
 11  1  1  0  0  0  0
 13 19  1  0  0  0  0
 13 18  1  0  0  0  0
 14 13  2  0  0  0  0
 15 14  1  0  0  0  0
 15 16  2  0  0  0  0
 16 17  1  0  0  0  0
 17 18  2  0  0  0  0
 17 11  1  0  0  0  0
 20 14  1  0  0  0  0
 21 15  1  0  0  0  0
 22  6  1  0  0  0  0
 23 22  1  0  0  0  0
 23 24  1  0  0  0  0
 25 23  1  0  0  0  0
 26 25  1  0  0  0  0
 27 28  1  0  0  0  0
 27 23  1  0  0  0  0
M  END
>  <minimizedAffinity>
-4.85064459

>  <minimizedRMSD>
1.12876475

$$$$
