
     RDKit          3D

 43 45  0  0  0  0  0  0  0  0999 V2000
   36.3920   30.9075   45.6908 Cl  0  0  0  0  0  0  0  0  0  0  0  0
   36.6735   30.7563   47.4122 C   0  0  0  0  0  0  0  0  0  0  0  0
   37.9410   31.0782   47.8749 C   0  0  0  0  0  0  0  0  0  0  0  0
   38.1787   30.9649   49.2303 C   0  0  0  0  0  0  0  0  0  0  0  0
   37.1789   30.5462   50.0704 C   0  0  0  0  0  0  0  0  0  0  0  0
   35.9260   30.2389   49.5325 C   0  0  0  0  0  0  0  0  0  0  0  0
   35.6156   30.3281   48.1933 C   0  0  0  0  0  0  0  0  0  0  0  0
   40.2064   33.3053   46.0885 C   0  0  0  0  0  0  0  0  0  0  0  0
   40.9110   32.4685   45.2118 C   0  0  0  0  0  0  0  0  0  0  0  0
   40.5888   31.0973   45.2447 C   0  0  0  0  0  0  0  0  0  0  0  0
   39.6280   30.6773   46.1121 N   0  0  0  0  0  0  0  0  0  0  0  0
   38.9858   31.5255   46.9291 C   0  0  0  0  0  0  0  0  0  0  0  0
   39.2789   32.8207   46.9094 N   0  0  0  0  0  0  0  0  0  0  0  0
   34.0400   29.9441   47.5107 S   0  0  0  0  0  0  0  0  0  0  0  0
   33.7545   29.1795   44.4629 Cl  0  0  0  0  0  0  0  0  0  0  0  0
   33.7839   27.9500   45.7178 C   0  0  0  0  0  0  0  0  0  0  0  0
   33.9043   28.2021   47.0849 C   0  0  0  0  0  0  0  0  0  0  0  0
   33.9136   27.1559   47.9783 C   0  0  0  0  0  0  0  0  0  0  0  0
   33.8052   25.8621   47.5294 C   0  0  0  0  0  0  0  0  0  0  0  0
   33.6839   25.5582   46.1884 C   0  0  0  0  0  0  0  0  0  0  0  0
   33.6779   26.6294   45.3198 C   0  0  0  0  0  0  0  0  0  0  0  0
   39.1682   31.2212   49.5585 H   0  0  0  0  0  0  0  0  0  0  0  0
   37.3584   30.4544   51.1291 H   0  0  0  0  0  0  0  0  0  0  0  0
   35.1591   29.9106   50.2262 H   0  0  0  0  0  0  0  0  0  0  0  0
   40.4602   34.3391   46.0500 H   0  0  0  0  0  0  0  0  0  0  0  0
   41.6802   32.7864   44.5108 H   0  0  0  0  0  0  0  0  0  0  0  0
   41.0784   30.3684   44.6059 H   0  0  0  0  0  0  0  0  0  0  0  0
   34.0104   27.4283   49.0340 H   0  0  0  0  0  0  0  0  0  0  0  0
   33.8237   25.1180   48.3202 H   0  0  0  0  0  0  0  0  0  0  0  0
   33.6027   24.5269   45.8898 H   0  0  0  0  0  0  0  0  0  0  0  0
   33.5506   26.3090   43.8592 C   0  0  0  0  0  0  0  0  0  0  0  0
   32.8069   25.0900   43.6272 N   0  0  0  0  0  4  0  0  0  0  0  0
   33.7587   23.9998   43.5566 C   0  0  0  0  0  0  0  0  0  0  0  0
   33.8633   23.5659   44.5724 H   0  0  0  0  0  0  0  0  0  0  0  0
   32.1956   25.2082   42.2978 C   0  0  0  0  0  0  0  0  0  0  0  0
   31.8783   24.2300   41.8902 H   0  0  0  0  0  0  0  0  0  0  0  0
   33.0300   27.1250   43.3165 H   0  0  0  0  0  0  0  0  0  0  0  0
   34.5380   26.1943   43.3830 H   0  0  0  0  0  0  0  0  0  0  0  0
   32.0654   24.9294   44.3436 H   0  0  0  0  0  0  0  0  0  0  0  0
   34.7396   24.4054   43.2230 H   0  0  0  0  0  0  0  0  0  0  0  0
   33.4525   23.2520   42.8022 H   0  0  0  0  0  0  0  0  0  0  0  0
   31.3895   25.9649   42.2889 H   0  0  0  0  0  0  0  0  0  0  0  0
   33.0012   25.6230   41.6415 H   0  0  0  0  0  0  0  0  0  0  0  0
  1  2  1  0
  2  3  2  0
  2  7  1  0
  3  4  1  0
  4  5  2  0
  6  5  1  0
  7  6  2  0
  8 13  2  0
  9 10  2  0
  9  8  1  0
 10 11  1  0
 11 12  2  0
 12  3  1  0
 13 12  1  0
 14  7  1  0
 15 16  1  0
 16 17  2  0
 17 14  1  0
 17 18  1  0
 19 18  2  0
 20 19  1  0
 21 16  1  0
 21 20  2  0
  4 22  1  0
  5 23  1  0
  6 24  1  0
  8 25  1  0
  9 26  1  0
 10 27  1  0
 18 28  1  0
 19 29  1  0
 20 30  1  0
 31 32  1  0
 32 33  1  0
 33 34  1  0
 32 35  1  0
 35 36  1  0
 31 37  1  0
 31 38  1  0
 32 39  1  0
 33 40  1  0
 33 41  1  0
 35 42  1  0
 35 43  1  0
 21 31  1  0
M  ISO  8  22  14  23  14  24  14  25  14  26  14  27  14  28  14  29  14
M  CHG  1  32   1
M  ISO  3  30  14  34   8  36   8
M  END
>  <DihAtoms>  (1) 
15,20,30,31

>  <DihDeg>  (1) 
-75.79508501594096

$$$$
