
 OpenBabel03272508533D

 36 38  0  0  1  0  0  0  0  0999 V2000
   37.9590   31.2370   44.9270 C   0  0  0  0  0  0  0  0  0  0  0  0
   36.9120   30.5650   45.1680 O   0  0  0  0  0  0  0  0  0  0  0  0
   38.4600   32.1670   45.8920 N   0  0  0  0  0  0  0  0  0  0  0  0
   39.1820   32.8570   45.6630 H   0  0  0  0  0  0  0  0  0  0  0  0
   38.6770   31.0730   43.6520 C   0  0  0  0  0  0  0  0  0  0  0  0
   39.9620   30.6020   43.6900 C   0  0  0  0  0  0  0  0  0  0  0  0
   40.6390   30.4450   42.4890 C   0  0  0  0  0  0  0  0  0  0  0  0
   39.9800   30.7710   41.3390 C   0  0  0  0  0  0  0  0  0  0  0  0
   38.6630   31.2550   41.2830 C   0  0  0  0  0  0  0  0  0  0  0  0
   38.0810   31.3770   42.4850 N   0  0  0  0  0  0  0  0  0  0  0  0
   40.4720   30.3490   44.6020 H   0  0  0  0  0  0  0  0  0  0  0  0
   41.6570   30.0770   42.4640 H   0  0  0  0  0  0  0  0  0  0  0  0
   40.5170   30.6450   40.4120 H   0  0  0  0  0  0  0  0  0  0  0  0
   38.0220   31.5830   39.9960 C   0  0  0  0  0  2  0  0  0  0  0  0
   38.2410   32.9280   39.5490 N   0  0  0  0  0  4  0  0  0  0  0  0
   37.3760   33.2550   39.0610 H   0  0  0  0  0  0  0  0  0  0  0  0
   38.4870   33.8570   40.6390 C   0  0  0  0  0  2  0  0  0  0  0  0
   37.8100   33.6380   41.4700 H   0  0  0  0  0  0  0  0  0  0  0  0
   39.3430   32.9870   38.5770 C   0  0  0  0  0  2  0  0  0  0  0  0
   38.9890   33.2490   37.5770 H   0  0  0  0  0  0  0  0  0  0  0  0
   38.5610   31.3030   48.2300 C   0  0  2  0  0  0  0  0  0  0  0  0
   38.8430   32.7460   48.2980 C   0  0  0  0  0  0  0  0  0  0  0  0
   37.9080   32.1110   47.2330 C   0  0  1  0  0  0  0  0  0  0  0  0
   39.4760   30.7030   47.9680 H   0  0  0  0  0  0  0  0  0  0  0  0
   38.3420   33.3630   49.0780 H   0  0  0  0  0  0  0  0  0  0  0  0
   39.7920   33.1550   47.9540 H   0  0  0  0  0  0  0  0  0  0  0  0
   36.8340   32.3720   47.3520 H   0  0  0  0  0  0  0  0  0  0  0  0
   36.0320   29.1280   49.8150 C   0  0  0  0  0  0  0  0  0  0  0  0
   36.2970   29.3110   51.1990 C   0  0  0  0  0  0  0  0  0  0  0  0
   37.3660   30.2120   51.5630 C   0  0  0  0  0  0  0  0  0  0  0  0
   38.0620   30.8370   50.5790 N   0  0  0  0  0  0  0  0  0  0  0  0
   37.7530   30.6140   49.2700 C   0  0  0  0  0  0  0  0  0  0  0  0
   36.7440   29.7660   48.8590 N   0  0  0  0  0  0  0  0  0  0  0  0
   35.2220   28.4430   49.6040 H   0  0  0  0  0  0  0  0  0  0  0  0
   35.7230   28.7980   51.9380 H   0  0  0  0  0  0  0  0  0  0  0  0
   37.5730   30.3570   52.6150 H   0  0  0  0  0  0  0  0  0  0  0  0
  1  2  2  0  0  0  0
  1  3  1  0  0  0  0
  3 23  1  0  0  0  0
  4  3  1  0  0  0  0
  5  6  1  0  0  0  0
  5  1  1  0  0  0  0
  6 11  1  0  0  0  0
  7  6  2  0  0  0  0
  8  7  1  0  0  0  0
  9  8  2  0  0  0  0
  9 10  1  0  0  0  0
 10  5  2  0  0  0  0
 12  7  1  0  0  0  0
 13  8  1  0  0  0  0
 14  9  1  0  0  0  0
 15 14  1  0  0  0  0
 15 17  1  0  0  0  0
 16 15  1  0  0  0  0
 17 18  1  0  0  0  0
 19 15  1  0  0  0  0
 20 19  1  0  0  0  0
 21 24  1  6  0  0  0
 21 22  1  0  0  0  0
 21 32  1  0  0  0  0
 22 25  1  0  0  0  0
 23 27  1  1  0  0  0
 23 21  1  0  0  0  0
 23 22  1  0  0  0  0
 26 22  1  0  0  0  0
 28 29  1  0  0  0  0
 29 30  2  0  0  0  0
 29 35  1  0  0  0  0
 30 36  1  0  0  0  0
 31 30  1  0  0  0  0
 32 31  2  0  0  0  0
 33 32  1  0  0  0  0
 33 28  2  0  0  0  0
 34 28  1  0  0  0  0
M  END
>  <minimizedAffinity>
-5.00725031

>  <minimizedRMSD>
1.0471524

$$$$
