
 OpenBabel03272506473D

 40 42  0  0  1  0  0  0  0  0999 V2000
   31.9880   28.4090   47.4530 C   0  0  2  0  0  0  0  0  0  0  0  0
   33.2420   28.2440   48.2570 C   0  0  1  0  0  0  0  0  0  0  0  0
   33.6200   26.9260   48.1730 O   0  0  0  0  0  0  0  0  0  0  0  0
   32.9080   26.3110   47.1480 C   0  0  0  0  0  0  0  0  0  0  0  0
   32.3030   27.3990   46.2970 C   0  0  1  0  0  0  0  0  0  0  0  0
   31.0790   28.0580   47.9230 H   0  0  0  0  0  0  0  0  0  0  0  0
   33.0930   28.5880   49.3020 H   0  0  0  0  0  0  0  0  0  0  0  0
   33.7090   25.8410   46.4880 H   0  0  0  0  0  0  0  0  0  0  0  0
   32.2410   25.5610   47.5320 H   0  0  0  0  0  0  0  0  0  0  0  0
   33.0070   27.9410   45.6670 H   0  0  0  0  0  0  0  0  0  0  0  0
   31.9150   29.7080   46.9200 O   0  0  0  0  0  0  0  0  0  0  0  0
   30.9540   29.9430   46.8180 H   0  0  0  0  0  0  0  0  0  0  0  0
   34.5530   29.2610   47.4820 S   0  0  0  0  0  0  0  0  0  0  0  0
   37.0260   29.2510   50.5630 C   0  0  0  0  0  0  0  0  0  0  0  0
   37.4420   30.5560   50.7080 C   0  0  0  0  0  0  0  0  0  0  0  0
   36.9390   31.5000   49.8100 C   0  0  0  0  0  0  0  0  0  0  0  0
   36.0750   31.0880   48.8550 N   0  0  0  0  0  0  0  0  0  0  0  0
   35.6880   29.7970   48.7430 C   0  0  0  0  0  0  0  0  0  0  0  0
   36.1630   28.8600   49.6030 N   0  0  0  0  0  0  0  0  0  0  0  0
   37.4590   28.5440   51.2970 H   0  0  0  0  0  0  0  0  0  0  0  0
   38.1270   30.9510   51.4410 H   0  0  0  0  0  0  0  0  0  0  0  0
   37.1460   32.5670   49.7640 H   0  0  0  0  0  0  0  0  0  0  0  0
   31.1510   26.9350   45.7250 O   0  0  0  0  0  0  0  0  0  0  0  0
   29.6610   28.8790   44.0970 Cl  0  0  0  0  0  0  0  0  0  0  0  0
   29.1310   27.9900   45.5010 C   0  0  0  0  0  0  0  0  0  0  0  0
   29.9160   27.0970   46.1920 C   0  0  0  0  0  0  0  0  0  0  0  0
   29.3590   26.4480   47.2910 C   0  0  0  0  0  0  0  0  0  0  0  0
   28.0590   26.6920   47.6760 C   0  0  0  0  0  0  0  0  0  0  0  0
   27.2600   27.5830   46.9910 C   0  0  0  0  0  0  0  0  0  0  0  0
   27.8190   28.2340   45.8850 C   0  0  0  0  0  0  0  0  0  0  0  0
   29.9150   25.7350   47.8760 H   0  0  0  0  0  0  0  0  0  0  0  0
   27.6560   26.1730   48.5340 H   0  0  0  0  0  0  0  0  0  0  0  0
   26.2660   27.7420   47.3340 H   0  0  0  0  0  0  0  0  0  0  0  0
   26.8900   29.1690   45.2000 C   0  0  0  0  0  2  0  0  0  0  0  0
   26.3900   28.7540   43.9390 N   0  0  0  0  0  4  0  0  0  0  0  0
   27.0600   28.2620   43.3060 H   0  0  0  0  0  0  0  0  0  0  0  0
   25.2210   27.9180   44.0600 C   0  0  0  0  0  2  0  0  0  0  0  0
   24.8980   27.5030   43.0750 H   0  0  0  0  0  0  0  0  0  0  0  0
   25.9080   29.9930   43.2910 C   0  0  0  0  0  2  0  0  0  0  0  0
   25.3250   29.7030   42.4270 H   0  0  0  0  0  0  0  0  0  0  0  0
  1  6  1  1  0  0  0
  1  2  1  0  0  0  0
  2  7  1  1  0  0  0
  3  2  1  0  0  0  0
  4  9  1  0  0  0  0
  4  3  1  0  0  0  0
  5 10  1  6  0  0  0
  5  4  1  0  0  0  0
  5  1  1  0  0  0  0
  8  4  1  0  0  0  0
 11  1  1  0  0  0  0
 12 11  1  0  0  0  0
 13  2  1  0  0  0  0
 13 18  1  0  0  0  0
 14 15  1  0  0  0  0
 14 20  1  0  0  0  0
 15 21  1  0  0  0  0
 16 15  2  0  0  0  0
 17 16  1  0  0  0  0
 18 17  2  0  0  0  0
 18 19  1  0  0  0  0
 19 14  2  0  0  0  0
 22 16  1  0  0  0  0
 23 26  1  0  0  0  0
 23  5  1  0  0  0  0
 24 25  1  0  0  0  0
 25 30  2  0  0  0  0
 25 26  1  0  0  0  0
 26 27  2  0  0  0  0
 27 28  1  0  0  0  0
 27 31  1  0  0  0  0
 28 32  1  0  0  0  0
 29 33  1  0  0  0  0
 29 28  2  0  0  0  0
 30 29  1  0  0  0  0
 34 30  1  0  0  0  0
 35 37  1  0  0  0  0
 35 34  1  0  0  0  0
 36 35  1  0  0  0  0
 38 37  1  0  0  0  0
 39 35  1  0  0  0  0
 40 39  1  0  0  0  0
M  END
>  <minimizedAffinity>
-4.72588205

>  <minimizedRMSD>
0.642342389

$$$$
