
 OpenBabel03272506473D

 40 42  0  0  1  0  0  0  0  0999 V2000
   31.9590   28.5910   47.3780 C   0  0  2  0  0  0  0  0  0  0  0  0
   33.1780   28.2240   48.1700 C   0  0  1  0  0  0  0  0  0  0  0  0
   33.3660   26.8690   48.0410 O   0  0  0  0  0  0  0  0  0  0  0  0
   32.5730   26.3950   46.9990 C   0  0  0  0  0  0  0  0  0  0  0  0
   32.1290   27.5850   46.1870 C   0  0  1  0  0  0  0  0  0  0  0  0
   31.0100   28.3560   47.8400 H   0  0  0  0  0  0  0  0  0  0  0  0
   33.0790   28.5510   49.2250 H   0  0  0  0  0  0  0  0  0  0  0  0
   33.3000   25.8380   46.3210 H   0  0  0  0  0  0  0  0  0  0  0  0
   31.8070   25.7350   47.3620 H   0  0  0  0  0  0  0  0  0  0  0  0
   32.9020   28.0420   45.5720 H   0  0  0  0  0  0  0  0  0  0  0  0
   32.0710   29.9040   46.8870 O   0  0  0  0  0  0  0  0  0  0  0  0
   31.1530   30.2750   46.7980 H   0  0  0  0  0  0  0  0  0  0  0  0
   34.6190   29.0700   47.4210 S   0  0  0  0  0  0  0  0  0  0  0  0
   36.8820   29.2740   50.6540 C   0  0  0  0  0  0  0  0  0  0  0  0
   37.2670   30.5940   50.7540 C   0  0  0  0  0  0  0  0  0  0  0  0
   36.8090   31.4780   49.7740 C   0  0  0  0  0  0  0  0  0  0  0  0
   36.0170   30.9970   48.7880 N   0  0  0  0  0  0  0  0  0  0  0  0
   35.6590   29.6960   48.7230 C   0  0  0  0  0  0  0  0  0  0  0  0
   36.0910   28.8150   49.6620 N   0  0  0  0  0  0  0  0  0  0  0  0
   37.2760   28.6170   51.4530 H   0  0  0  0  0  0  0  0  0  0  0  0
   37.8950   31.0400   51.5070 H   0  0  0  0  0  0  0  0  0  0  0  0
   37.0020   32.5440   49.6830 H   0  0  0  0  0  0  0  0  0  0  0  0
   30.9220   27.3080   45.6070 O   0  0  0  0  0  0  0  0  0  0  0  0
   29.4310   29.7230   44.8350 Cl  0  0  0  0  0  0  0  0  0  0  0  0
   28.9510   28.4350   45.9080 C   0  0  0  0  0  0  0  0  0  0  0  0
   29.7320   27.3410   46.2000 C   0  0  0  0  0  0  0  0  0  0  0  0
   29.2180   26.3790   47.0670 C   0  0  0  0  0  0  0  0  0  0  0  0
   27.9620   26.5200   47.6170 C   0  0  0  0  0  0  0  0  0  0  0  0
   27.1670   27.6090   47.3300 C   0  0  0  0  0  0  0  0  0  0  0  0
   27.6840   28.5740   46.4580 C   0  0  0  0  0  0  0  0  0  0  0  0
   29.7730   25.4980   47.3370 H   0  0  0  0  0  0  0  0  0  0  0  0
   27.5910   25.7570   48.2860 H   0  0  0  0  0  0  0  0  0  0  0  0
   26.2090   27.6730   47.7870 H   0  0  0  0  0  0  0  0  0  0  0  0
   26.7620   29.7090   46.1960 C   0  0  0  0  0  0  0  0  0  0  0  0
   27.0590   30.9320   46.8510 N   0  0  0  0  0  0  0  0  0  0  0  0
   28.0560   31.0900   47.1210 H   0  0  0  0  0  0  0  0  0  0  0  0
   26.6340   32.0790   46.0890 C   0  0  0  0  0  0  0  0  0  0  0  0
   26.9690   33.0390   46.5520 H   0  0  0  0  0  0  0  0  0  0  0  0
   26.2050   30.9370   48.0590 C   0  0  0  0  0  0  0  0  0  0  0  0
   26.2350   31.9370   48.4730 H   0  0  0  0  0  0  0  0  0  0  0  0
  1  6  1  1  0  0  0
  1  2  1  0  0  0  0
  2  7  1  1  0  0  0
  3  2  1  0  0  0  0
  4  9  1  0  0  0  0
  4  3  1  0  0  0  0
  5 10  1  6  0  0  0
  5  4  1  0  0  0  0
  5  1  1  0  0  0  0
  8  4  1  0  0  0  0
 11  1  1  0  0  0  0
 12 11  1  0  0  0  0
 13  2  1  0  0  0  0
 13 18  1  0  0  0  0
 14 15  1  0  0  0  0
 14 20  1  0  0  0  0
 15 21  1  0  0  0  0
 16 15  2  0  0  0  0
 17 16  1  0  0  0  0
 18 17  2  0  0  0  0
 18 19  1  0  0  0  0
 19 14  2  0  0  0  0
 22 16  1  0  0  0  0
 23  5  1  0  0  0  0
 23 26  1  0  0  0  0
 24 25  1  0  0  0  0
 25 26  2  0  0  0  0
 25 30  1  0  0  0  0
 26 27  1  0  0  0  0
 27 31  1  0  0  0  0
 27 28  2  0  0  0  0
 28 32  1  0  0  0  0
 29 28  1  0  0  0  0
 29 33  1  0  0  0  0
 30 29  2  0  0  0  0
 34 30  1  0  0  0  0
 34 35  1  0  0  0  0
 35 36  1  0  0  0  0
 35 39  1  0  0  0  0
 37 38  1  0  0  0  0
 37 35  1  0  0  0  0
 39 40  1  0  0  0  0
M  END
>  <minimizedAffinity>
-4.95517254

>  <minimizedRMSD>
1.16274154

$$$$
