REMARK  Name = 
REMARK  6 active torsions:
REMARK  status: ('A' for Active; 'I' for Inactive)
REMARK    1  A    between atoms: C_1  and  C_7
REMARK    2  A    between atoms: C_3  and  C_13
REMARK    3  A    between atoms: C_17  and  C_37
REMARK    4  A    between atoms: C_37  and  N_38
REMARK    5  A    between atoms: N_38  and  C_39
REMARK    6  A    between atoms: N_38  and  C_41
REMARK                            x       y       z     vdW  Elec       q    Type
REMARK                         _______ _______ _______ _____ _____    ______ ____
ROOT
ATOM      1  C   UNL     1      35.272  30.368  49.698  0.00  0.00    +0.000 C 
ATOM      2  C   UNL     1      36.266  31.084  48.862  0.00  0.00    +0.000 C 
ATOM      3  C   UNL     1      37.671  30.486  48.955  0.00  0.00    +0.000 C 
ATOM      4  C   UNL     1      38.161  30.596  50.375  0.00  0.00    +0.000 C 
ATOM      5  C   UNL     1      37.125  30.125  51.377  0.00  0.00    +0.000 C 
ATOM      6  C   UNL     1      35.953  29.462  50.700  0.00  0.00    +0.000 C 
ATOM      7  H   UNL     1      34.598  31.064  50.279  0.00  0.00    +0.000 HD
ATOM      8  H   UNL     1      36.412  32.094  49.391  0.00  0.00    +0.000 HD
ATOM      9  H   UNL     1      36.090  31.330  47.853  0.00  0.00    +0.000 HD
ATOM     10  H   UNL     1      37.543  29.405  48.741  0.00  0.00    +0.000 HD
ATOM     11  H   UNL     1      38.390  31.658  50.572  0.00  0.00    +0.000 HD
ATOM     12  H   UNL     1      39.112  30.029  50.479  0.00  0.00    +0.000 HD
ATOM     13  H   UNL     1      36.778  30.960  52.035  0.00  0.00    +0.000 HD
ATOM     14  H   UNL     1      37.594  29.399  52.056  0.00  0.00    +0.000 HD
ATOM     15  H   UNL     1      36.321  28.578  50.165  0.00  0.00    +0.000 HD
ATOM     16  H   UNL     1      35.211  29.235  51.492  0.00  0.00    +0.000 HD
ENDROOT
BRANCH   3  17
ATOM     17  C   UNL     1      38.577  31.038  47.937  0.00  0.00    +0.000 C 
ATOM     18  C   UNL     1      38.764  32.526  47.928  0.00  0.00    +0.000 C 
ATOM     19  C   UNL     1      39.532  32.631  46.592  0.00  0.00    +0.000 C 
ATOM     20  O   UNL     1      38.866  31.773  45.745  0.00  0.00    +0.000 OA
ATOM     21  C   UNL     1      38.245  30.790  46.513  0.00  0.00    +0.000 C 
ATOM     22  H   UNL     1      39.595  30.617  48.137  0.00  0.00    +0.000 HD
ATOM     23  H   UNL     1      37.805  33.072  47.845  0.00  0.00    +0.000 HD
ATOM     24  H   UNL     1      39.391  32.859  48.757  0.00  0.00    +0.000 HD
ATOM     25  H   UNL     1      40.567  32.287  46.758  0.00  0.00    +0.000 HD
ATOM     26  H   UNL     1      39.445  33.682  46.283  0.00  0.00    +0.000 HD
ATOM     27  H   UNL     1      37.194  30.713  46.252  0.00  0.00    +0.000 HD
BRANCH  21  28
ATOM     28  C   UNL     1      38.884  29.472  46.127  0.00  0.00    +0.000 C 
BRANCH  28  29
ATOM     29  N   UNL     1      39.038  29.297  44.709  0.00  0.00    +0.000 N 
ATOM     30  H   UNL     1      38.112  29.298  44.226  0.00  0.00    +0.000 HD
BRANCH  29  31
ATOM     31  C   UNL     1      39.701  27.991  44.559  0.00  0.00    +0.000 C 
ATOM     32  H   UNL     1      38.984  27.171  44.470  0.00  0.00    +0.000 HD
ENDBRANCH  29  31
BRANCH  29  33
ATOM     33  C   UNL     1      39.977  30.254  44.157  0.00  0.00    +0.000 C 
ATOM     34  H   UNL     1      40.561  29.785  43.337  0.00  0.00    +0.000 HD
ENDBRANCH  29  33
ENDBRANCH  28  29
ENDBRANCH  21  28
ENDBRANCH   3  17
BRANCH   1  35
ATOM     35  C   UNL     1      34.348  29.526  48.906  0.00  0.00    +0.000 A 
ATOM     36  C   UNL     1      34.315  29.793  47.537  0.00  0.00    +0.000 A 
ATOM     37  C   UNL     1      33.486  29.027  46.744  0.00  0.00    +0.000 A 
ATOM     38  N   UNL     1      32.723  28.029  47.332  0.00  0.00    +0.000 NA
ATOM     39  C   UNL     1      32.784  27.802  48.668  0.00  0.00    +0.000 A 
ATOM     40  N   UNL     1      33.586  28.547  49.417  0.00  0.00    +0.000 NA
ATOM     41  H   UNL     1      34.774  30.476  46.845  0.00  0.00    +0.000 HD
ATOM     42  H   UNL     1      33.275  29.022  45.690  0.00  0.00    +0.000 HD
ATOM     43  H   UNL     1      32.197  27.032  49.135  0.00  0.00    +0.000 HD
ENDBRANCH   1  35
TORSDOF 6
