
 OpenBabel03272505113D

 37 39  0  0  0  0  0  0  0  0999 V2000
   36.3980   30.8550   45.6390 Cl  0  0  0  0  0  0  0  0  0  0  0  0
   36.6560   30.7110   47.3640 C   0  0  0  0  0  0  0  0  0  0  0  0
   37.9130   31.0500   47.8440 C   0  0  0  0  0  0  0  0  0  0  0  0
   38.1330   30.9420   49.2030 C   0  0  0  0  0  0  0  0  0  0  0  0
   37.1260   30.5120   50.0290 C   0  0  0  0  0  0  0  0  0  0  0  0
   35.8850   30.1890   49.4740 C   0  0  0  0  0  0  0  0  0  0  0  0
   35.5940   30.2710   48.1310 C   0  0  0  0  0  0  0  0  0  0  0  0
   39.1140   31.2120   49.5460 H   0  0  0  0  0  0  0  0  0  0  0  0
   37.2910   30.4250   51.0910 H   0  0  0  0  0  0  0  0  0  0  0  0
   35.1130   29.8520   50.1580 H   0  0  0  0  0  0  0  0  0  0  0  0
   40.1790   33.3010   46.0900 C   0  0  0  0  0  0  0  0  0  0  0  0
   40.9040   32.4720   45.2220 C   0  0  0  0  0  0  0  0  0  0  0  0
   40.5950   31.0980   45.2500 C   0  0  0  0  0  0  0  0  0  0  0  0
   39.6270   30.6670   46.1040 N   0  0  0  0  0  0  0  0  0  0  0  0
   38.9660   31.5090   46.9130 C   0  0  0  0  0  0  0  0  0  0  0  0
   39.2460   32.8070   46.8970 N   0  0  0  0  0  0  0  0  0  0  0  0
   40.4230   34.3370   46.0550 H   0  0  0  0  0  0  0  0  0  0  0  0
   41.6790   32.7980   44.5310 H   0  0  0  0  0  0  0  0  0  0  0  0
   41.1000   30.3740   44.6170 H   0  0  0  0  0  0  0  0  0  0  0  0
   34.0320   29.8660   47.4270 S   0  0  0  0  0  0  0  0  0  0  0  0
   33.8560   29.0340   44.3880 Cl  0  0  0  0  0  0  0  0  0  0  0  0
   33.8400   27.8320   45.6700 C   0  0  0  0  0  0  0  0  0  0  0  0
   33.9120   28.1150   47.0350 C   0  0  0  0  0  0  0  0  0  0  0  0
   33.8900   27.0890   47.9510 C   0  0  0  0  0  0  0  0  0  0  0  0
   33.7970   25.7850   47.5270 C   0  0  0  0  0  0  0  0  0  0  0  0
   33.7240   25.4510   46.1900 C   0  0  0  0  0  0  0  0  0  0  0  0
   33.7490   26.5030   45.2980 C   0  0  0  0  0  0  0  0  0  0  0  0
   33.9490   27.3840   49.0030 H   0  0  0  0  0  0  0  0  0  0  0  0
   33.7880   25.0590   48.3340 H   0  0  0  0  0  0  0  0  0  0  0  0
   33.6540   24.4140   45.9120 H   0  0  0  0  0  0  0  0  0  0  0  0
   33.6740   26.1500   43.8410 C   0  0  0  0  0  2  0  0  0  0  0  0
   34.8050   25.3580   43.4090 N   0  0  0  0  0  4  0  0  0  0  0  0
   35.1810   24.7470   44.1690 H   0  0  0  0  0  0  0  0  0  0  0  0
   35.8010   26.2650   42.8790 C   0  0  0  0  0  2  0  0  0  0  0  0
   36.4960   26.5360   43.7010 H   0  0  0  0  0  0  0  0  0  0  0  0
   34.3440   24.5290   42.2890 C   0  0  0  0  0  2  0  0  0  0  0  0
   35.1800   24.1310   41.6860 H   0  0  0  0  0  0  0  0  0  0  0  0
  1  2  1  0  0  0  0
  2  3  2  0  0  0  0
  2  7  1  0  0  0  0
  3  4  1  0  0  0  0
  4  8  1  0  0  0  0
  4  5  2  0  0  0  0
  5  9  1  0  0  0  0
  6  5  1  0  0  0  0
  6 10  1  0  0  0  0
  7  6  2  0  0  0  0
 11 16  1  0  0  0  0
 12 13  1  0  0  0  0
 12 11  2  0  0  0  0
 13 14  2  0  0  0  0
 14 15  1  0  0  0  0
 15  3  1  0  0  0  0
 16 15  2  0  0  0  0
 17 11  1  0  0  0  0
 18 12  1  0  0  0  0
 19 13  1  0  0  0  0
 20  7  1  0  0  0  0
 21 22  1  0  0  0  0
 22 23  1  0  0  0  0
 23 20  1  0  0  0  0
 23 24  2  0  0  0  0
 24 28  1  0  0  0  0
 25 24  1  0  0  0  0
 25 29  1  0  0  0  0
 26 25  2  0  0  0  0
 27 22  2  0  0  0  0
 27 26  1  0  0  0  0
 30 26  1  0  0  0  0
 31 27  1  0  0  0  0
 32 31  1  0  0  0  0
 32 33  1  0  0  0  0
 34 32  1  0  0  0  0
 34 35  1  0  0  0  0
 36 32  1  0  0  0  0
 37 36  1  0  0  0  0
M  END
>  <minimizedAffinity>
-5.40570641

>  <minimizedRMSD>
0.753743947

$$$$
