
 OpenBabel03272506463D

 40 42  0  0  1  0  0  0  0  0999 V2000
   32.1700   28.5360   47.3740 C   0  0  2  0  0  0  0  0  0  0  0  0
   33.4130   28.3770   48.1970 C   0  0  1  0  0  0  0  0  0  0  0  0
   33.8280   27.0730   48.0750 O   0  0  0  0  0  0  0  0  0  0  0  0
   33.1520   26.4760   47.0150 C   0  0  0  0  0  0  0  0  0  0  0  0
   32.5350   27.5760   46.1900 C   0  0  1  0  0  0  0  0  0  0  0  0
   31.2630   28.1450   47.8140 H   0  0  0  0  0  0  0  0  0  0  0  0
   33.2350   28.6800   49.2490 H   0  0  0  0  0  0  0  0  0  0  0  0
   33.9780   26.0510   46.3550 H   0  0  0  0  0  0  0  0  0  0  0  0
   32.4990   25.6950   47.3600 H   0  0  0  0  0  0  0  0  0  0  0  0
   33.2350   28.1580   45.5930 H   0  0  0  0  0  0  0  0  0  0  0  0
   32.0730   29.8510   46.8850 O   0  0  0  0  0  0  0  0  0  0  0  0
   31.1070   30.0640   46.7720 H   0  0  0  0  0  0  0  0  0  0  0  0
   34.7100   29.4550   47.4830 S   0  0  0  0  0  0  0  0  0  0  0  0
   37.1150   29.2810   50.6130 C   0  0  0  0  0  0  0  0  0  0  0  0
   37.6030   30.5590   50.7760 C   0  0  0  0  0  0  0  0  0  0  0  0
   37.1730   31.5370   49.8760 C   0  0  0  0  0  0  0  0  0  0  0  0
   36.3070   31.1810   48.9000 N   0  0  0  0  0  0  0  0  0  0  0  0
   35.8480   29.9160   48.7710 C   0  0  0  0  0  0  0  0  0  0  0  0
   36.2510   28.9470   49.6330 N   0  0  0  0  0  0  0  0  0  0  0  0
   37.4920   28.5450   51.3500 H   0  0  0  0  0  0  0  0  0  0  0  0
   38.2950   30.9090   51.5260 H   0  0  0  0  0  0  0  0  0  0  0  0
   37.4420   32.5900   49.8420 H   0  0  0  0  0  0  0  0  0  0  0  0
   31.4060   27.1030   45.5800 O   0  0  0  0  0  0  0  0  0  0  0  0
   29.8010   29.0880   44.1210 Cl  0  0  0  0  0  0  0  0  0  0  0  0
   29.3290   28.0570   45.4460 C   0  0  0  0  0  0  0  0  0  0  0  0
   30.1670   27.1560   46.0590 C   0  0  0  0  0  0  0  0  0  0  0  0
   29.6540   26.3860   47.1010 C   0  0  0  0  0  0  0  0  0  0  0  0
   28.3430   26.5240   47.5060 C   0  0  0  0  0  0  0  0  0  0  0  0
   27.4920   27.4220   46.8980 C   0  0  0  0  0  0  0  0  0  0  0  0
   28.0080   28.1940   45.8500 C   0  0  0  0  0  0  0  0  0  0  0  0
   30.2520   25.6590   47.6230 H   0  0  0  0  0  0  0  0  0  0  0  0
   27.9750   25.9130   48.3170 H   0  0  0  0  0  0  0  0  0  0  0  0
   26.4920   27.4950   47.2540 H   0  0  0  0  0  0  0  0  0  0  0  0
   27.0240   29.1280   45.2460 C   0  0  0  0  0  2  0  0  0  0  0  0
   26.4920   28.7590   43.9840 N   0  0  0  0  0  4  0  0  0  0  0  0
   27.1330   28.2550   43.3320 H   0  0  0  0  0  0  0  0  0  0  0  0
   25.2930   27.9660   44.1050 C   0  0  0  0  0  2  0  0  0  0  0  0
   24.9420   27.5840   43.1160 H   0  0  0  0  0  0  0  0  0  0  0  0
   26.0490   30.0300   43.3690 C   0  0  0  0  0  2  0  0  0  0  0  0
   25.4440   29.7800   42.5070 H   0  0  0  0  0  0  0  0  0  0  0  0
  1  6  1  1  0  0  0
  1  2  1  0  0  0  0
  2  7  1  1  0  0  0
  3  2  1  0  0  0  0
  4  9  1  0  0  0  0
  4  3  1  0  0  0  0
  5 10  1  6  0  0  0
  5  4  1  0  0  0  0
  5  1  1  0  0  0  0
  8  4  1  0  0  0  0
 11  1  1  0  0  0  0
 12 11  1  0  0  0  0
 13  2  1  0  0  0  0
 13 18  1  0  0  0  0
 14 15  1  0  0  0  0
 14 20  1  0  0  0  0
 15 21  1  0  0  0  0
 16 15  2  0  0  0  0
 17 16  1  0  0  0  0
 18 17  2  0  0  0  0
 18 19  1  0  0  0  0
 19 14  2  0  0  0  0
 22 16  1  0  0  0  0
 23 26  1  0  0  0  0
 23  5  1  0  0  0  0
 24 25  1  0  0  0  0
 25 30  2  0  0  0  0
 25 26  1  0  0  0  0
 26 27  2  0  0  0  0
 27 28  1  0  0  0  0
 27 31  1  0  0  0  0
 28 32  1  0  0  0  0
 29 33  1  0  0  0  0
 29 28  2  0  0  0  0
 30 29  1  0  0  0  0
 34 30  1  0  0  0  0
 35 37  1  0  0  0  0
 35 34  1  0  0  0  0
 36 35  1  0  0  0  0
 38 37  1  0  0  0  0
 39 35  1  0  0  0  0
 40 39  1  0  0  0  0
M  END
>  <minimizedAffinity>
-4.70875978

>  <minimizedRMSD>
0.81651777

$$$$
