
 OpenBabel03272508533D

 36 38  0  0  1  0  0  0  0  0999 V2000
   38.1840   31.7560   44.4390 C   0  0  0  0  0  0  0  0  0  0  0  0
   36.9920   32.1790   44.3630 O   0  0  0  0  0  0  0  0  0  0  0  0
   38.8380   31.6590   45.7080 N   0  0  0  0  0  0  0  0  0  0  0  0
   39.8470   31.5040   45.7930 H   0  0  0  0  0  0  0  0  0  0  0  0
   38.9160   31.3580   43.2250 C   0  0  0  0  0  0  0  0  0  0  0  0
   40.1610   30.8080   43.3720 C   0  0  0  0  0  0  0  0  0  0  0  0
   40.8500   30.4310   42.2280 C   0  0  0  0  0  0  0  0  0  0  0  0
   40.2430   30.6320   41.0230 C   0  0  0  0  0  0  0  0  0  0  0  0
   38.9680   31.1950   40.8550 C   0  0  0  0  0  0  0  0  0  0  0  0
   38.3710   31.5310   42.0070 N   0  0  0  0  0  0  0  0  0  0  0  0
   40.6300   30.6550   44.3270 H   0  0  0  0  0  0  0  0  0  0  0  0
   41.8380   29.9910   42.2900 H   0  0  0  0  0  0  0  0  0  0  0  0
   40.7890   30.3340   40.1410 H   0  0  0  0  0  0  0  0  0  0  0  0
   38.3820   31.3780   39.5140 C   0  0  0  0  0  2  0  0  0  0  0  0
   38.5990   32.6750   38.9420 N   0  0  0  0  0  4  0  0  0  0  0  0
   37.7980   32.8900   38.3070 H   0  0  0  0  0  0  0  0  0  0  0  0
   38.6430   33.7340   39.9360 C   0  0  0  0  0  2  0  0  0  0  0  0
   37.8670   33.5670   40.6880 H   0  0  0  0  0  0  0  0  0  0  0  0
   39.8230   32.6940   38.1280 C   0  0  0  0  0  2  0  0  0  0  0  0
   39.6020   32.8190   37.0650 H   0  0  0  0  0  0  0  0  0  0  0  0
   38.4140   31.0980   48.1020 C   0  0  2  0  0  0  0  0  0  0  0  0
   38.7480   32.5300   48.0540 C   0  0  0  0  0  0  0  0  0  0  0  0
   38.0200   31.7880   46.9000 C   0  0  1  0  0  0  0  0  0  0  0  0
   39.3310   30.4470   48.1110 H   0  0  0  0  0  0  0  0  0  0  0  0
   38.1290   33.2540   48.6320 H   0  0  0  0  0  0  0  0  0  0  0  0
   39.7670   32.8690   47.8700 H   0  0  0  0  0  0  0  0  0  0  0  0
   36.9600   32.0880   46.7590 H   0  0  0  0  0  0  0  0  0  0  0  0
   35.1160   30.2160   49.5110 C   0  0  0  0  0  0  0  0  0  0  0  0
   35.4680   29.5420   50.7110 C   0  0  0  0  0  0  0  0  0  0  0  0
   36.8730   29.4120   51.0190 C   0  0  0  0  0  0  0  0  0  0  0  0
   37.7850   29.9320   50.1580 N   0  0  0  0  0  0  0  0  0  0  0  0
   37.3760   30.5670   49.0240 C   0  0  0  0  0  0  0  0  0  0  0  0
   36.0490   30.7240   48.6740 N   0  0  0  0  0  0  0  0  0  0  0  0
   34.0510   30.2820   49.3340 H   0  0  0  0  0  0  0  0  0  0  0  0
   34.7150   29.1490   51.3580 H   0  0  0  0  0  0  0  0  0  0  0  0
   37.1480   28.9000   51.9310 H   0  0  0  0  0  0  0  0  0  0  0  0
  1  3  1  0  0  0  0
  2  1  2  0  0  0  0
  3  4  1  0  0  0  0
  3 23  1  0  0  0  0
  5  6  1  0  0  0  0
  5  1  1  0  0  0  0
  6 11  1  0  0  0  0
  7 12  1  0  0  0  0
  7  6  2  0  0  0  0
  8  7  1  0  0  0  0
  9  8  2  0  0  0  0
  9 10  1  0  0  0  0
 10  5  2  0  0  0  0
 13  8  1  0  0  0  0
 14  9  1  0  0  0  0
 15 14  1  0  0  0  0
 15 17  1  0  0  0  0
 16 15  1  0  0  0  0
 17 18  1  0  0  0  0
 19 15  1  0  0  0  0
 20 19  1  0  0  0  0
 21 24  1  6  0  0  0
 21 32  1  0  0  0  0
 22 21  1  0  0  0  0
 22 25  1  0  0  0  0
 23 27  1  6  0  0  0
 23 22  1  0  0  0  0
 23 21  1  0  0  0  0
 26 22  1  0  0  0  0
 28 29  1  0  0  0  0
 29 30  2  0  0  0  0
 29 35  1  0  0  0  0
 30 36  1  0  0  0  0
 31 30  1  0  0  0  0
 32 31  2  0  0  0  0
 33 32  1  0  0  0  0
 33 28  2  0  0  0  0
 34 28  1  0  0  0  0
M  END
>  <minimizedAffinity>
-4.67030525

>  <minimizedRMSD>
0.733967543

$$$$
