REMARK  Name = 
REMARK  7 active torsions:
REMARK  status: ('A' for Active; 'I' for Inactive)
REMARK    1  A    between atoms: C_1  and  C_6
REMARK    2  A    between atoms: N_4  and  C_16
REMARK    3  A    between atoms: C_8  and  C_12
REMARK    4  A    between atoms: C_19  and  C_27
REMARK    5  A    between atoms: C_27  and  N_28
REMARK    6  A    between atoms: N_28  and  C_29
REMARK    7  A    between atoms: N_28  and  C_31
REMARK                            x       y       z     vdW  Elec       q    Type
REMARK                         _______ _______ _______ _____ _____    ______ ____
ROOT
ATOM      1  C   UNL     1      38.929  30.902  45.773  0.00  0.00    +0.000 A 
ATOM      2  C   UNL     1      40.122  31.529  46.028  0.00  0.00    +0.000 A 
ATOM      3  C   UNL     1      40.941  31.459  44.917  0.00  0.00    +0.000 A 
ATOM      4  N   UNL     1      40.189  30.773  44.007  0.00  0.00    +0.000 N 
ATOM      5  N   UNL     1      39.017  30.446  44.498  0.00  0.00    +0.000 NA
ATOM      6  H   UNL     1      40.408  32.019  46.966  0.00  0.00    +0.000 HD
ATOM      7  H   UNL     1      41.940  31.832  44.741  0.00  0.00    +0.000 HD
ENDROOT
BRANCH   1   8
ATOM      8  C   UNL     1      37.787  30.747  46.670  0.00  0.00    +0.000 A 
ATOM      9  C   UNL     1      38.007  30.976  48.054  0.00  0.00    +0.000 A 
ATOM     10  C   UNL     1      36.923  30.830  48.915  0.00  0.00    +0.000 A 
ATOM     11  N   UNL     1      35.718  30.475  48.377  0.00  0.00    +0.000 NA
ATOM     12  C   UNL     1      35.540  30.264  47.055  0.00  0.00    +0.000 A 
ATOM     13  N   UNL     1      36.581  30.402  46.212  0.00  0.00    +0.000 NA
ATOM     14  H   UNL     1      39.001  31.258  48.416  0.00  0.00    +0.000 HD
ATOM     15  H   UNL     1      34.590  29.987  46.650  0.00  0.00    +0.000 HD
BRANCH  10  16
ATOM     16  C   UNL     1      37.132  31.066  50.375  0.00  0.00    +0.000 C 
ATOM     17  F   UNL     1      36.604  32.309  50.622  0.00  0.00    +0.000 F 
ATOM     18  F   UNL     1      36.454  30.143  51.156  0.00  0.00    +0.000 F 
ATOM     19  F   UNL     1      38.477  31.073  50.710  0.00  0.00    +0.000 F 
ENDBRANCH  10  16
ENDBRANCH   1   8
BRANCH   4  20
ATOM     20  C   UNL     1      40.552  30.405  42.642  0.00  0.00    +0.000 A 
ATOM     21  C   UNL     1      40.187  31.207  41.552  0.00  0.00    +0.000 A 
ATOM     22  C   UNL     1      40.545  30.850  40.296  0.00  0.00    +0.000 A 
ATOM     23  C   UNL     1      41.291  29.655  40.113  0.00  0.00    +0.000 A 
ATOM     24  S   UNL     1      41.466  29.042  41.863  0.00  0.00    +0.000 S 
ATOM     25  H   UNL     1      39.614  32.132  41.642  0.00  0.00    +0.000 HD
ATOM     26  H   UNL     1      40.377  31.306  39.339  0.00  0.00    +0.000 HD
BRANCH  23  27
ATOM     27  C   UNL     1      41.886  28.884  39.015  0.00  0.00    +0.000 C 
BRANCH  27  28
ATOM     28  N   UNL     1      42.558  27.689  39.435  0.00  0.00    +0.000 N 
ATOM     29  H   UNL     1      42.837  27.154  38.593  0.00  0.00    +0.000 HD
BRANCH  28  30
ATOM     30  C   UNL     1      43.697  28.065  40.249  0.00  0.00    +0.000 C 
ATOM     31  H   UNL     1      44.543  27.395  40.052  0.00  0.00    +0.000 HD
ENDBRANCH  28  30
BRANCH  28  32
ATOM     32  C   UNL     1      41.667  26.847  40.218  0.00  0.00    +0.000 C 
ATOM     33  H   UNL     1      42.015  25.814  40.138  0.00  0.00    +0.000 HD
ENDBRANCH  28  32
ENDBRANCH  27  28
ENDBRANCH  23  27
ENDBRANCH   4  20
TORSDOF 7
