REMARK  Name = 
REMARK  7 active torsions:
REMARK  status: ('A' for Active; 'I' for Inactive)
REMARK    1  A    between atoms: C_3  and  C_12
REMARK    2  A    between atoms: C_7  and  S_14
REMARK    3  A    between atoms: S_14  and  C_17
REMARK    4  A    between atoms: C_21  and  C_31
REMARK    5  A    between atoms: C_31  and  N_32
REMARK    6  A    between atoms: N_32  and  C_33
REMARK    7  A    between atoms: N_32  and  C_35
REMARK                            x       y       z     vdW  Elec       q    Type
REMARK                         _______ _______ _______ _____ _____    ______ ____
ROOT
ATOM      1 CL   UNL     1      36.392  30.907  45.691  0.00  0.00    +0.000 Cl
ATOM      2  C   UNL     1      36.673  30.756  47.412  0.00  0.00    +0.000 A 
ATOM      3  C   UNL     1      37.941  31.078  47.875  0.00  0.00    +0.000 A 
ATOM      4  C   UNL     1      38.179  30.965  49.230  0.00  0.00    +0.000 A 
ATOM      5  C   UNL     1      37.179  30.546  50.070  0.00  0.00    +0.000 A 
ATOM      6  C   UNL     1      35.926  30.239  49.532  0.00  0.00    +0.000 A 
ATOM      7  C   UNL     1      35.616  30.328  48.193  0.00  0.00    +0.000 A 
ATOM      8  H   UNL     1      39.168  31.221  49.559  0.00  0.00    +0.000 HD
ATOM      9  H   UNL     1      37.358  30.454  51.129  0.00  0.00    +0.000 HD
ATOM     10  H   UNL     1      35.159  29.911  50.226  0.00  0.00    +0.000 HD
ENDROOT
BRANCH   3  15
ATOM     11  C   UNL     1      40.206  33.305  46.089  0.00  0.00    +0.000 A 
ATOM     12  C   UNL     1      40.911  32.468  45.212  0.00  0.00    +0.000 A 
ATOM     13  C   UNL     1      40.589  31.097  45.245  0.00  0.00    +0.000 A 
ATOM     14  N   UNL     1      39.628  30.677  46.112  0.00  0.00    +0.000 NA
ATOM     15  C   UNL     1      38.986  31.526  46.929  0.00  0.00    +0.000 A 
ATOM     16  N   UNL     1      39.279  32.821  46.909  0.00  0.00    +0.000 NA
ATOM     17  H   UNL     1      40.460  34.339  46.050  0.00  0.00    +0.000 HD
ATOM     18  H   UNL     1      41.680  32.786  44.511  0.00  0.00    +0.000 HD
ATOM     19  H   UNL     1      41.078  30.368  44.606  0.00  0.00    +0.000 HD
ENDBRANCH   3  15
BRANCH   7  20
ATOM     20  S   UNL     1      34.040  29.944  47.511  0.00  0.00    +0.000 S 
BRANCH  20  23
ATOM     21 CL   UNL     1      33.755  29.180  44.463  0.00  0.00    +0.000 Cl
ATOM     22  C   UNL     1      33.784  27.950  45.718  0.00  0.00    +0.000 A 
ATOM     23  C   UNL     1      33.904  28.202  47.085  0.00  0.00    +0.000 A 
ATOM     24  C   UNL     1      33.914  27.156  47.978  0.00  0.00    +0.000 A 
ATOM     25  C   UNL     1      33.805  25.862  47.529  0.00  0.00    +0.000 A 
ATOM     26  C   UNL     1      33.684  25.558  46.188  0.00  0.00    +0.000 A 
ATOM     27  C   UNL     1      33.678  26.629  45.320  0.00  0.00    +0.000 A 
ATOM     28  H   UNL     1      34.010  27.428  49.034  0.00  0.00    +0.000 HD
ATOM     29  H   UNL     1      33.824  25.118  48.320  0.00  0.00    +0.000 HD
ATOM     30  H   UNL     1      33.603  24.527  45.890  0.00  0.00    +0.000 HD
BRANCH  27  31
ATOM     31  C   UNL     1      33.551  26.309  43.859  0.00  0.00    +0.000 C 
BRANCH  31  32
ATOM     32  N   UNL     1      32.807  25.090  43.627  0.00  0.00    +0.000 N 
ATOM     33  H   UNL     1      32.065  24.929  44.344  0.00  0.00    +0.000 HD
BRANCH  32  34
ATOM     34  C   UNL     1      33.759  24.000  43.557  0.00  0.00    +0.000 C 
ATOM     35  H   UNL     1      33.863  23.566  44.572  0.00  0.00    +0.000 HD
ENDBRANCH  32  34
BRANCH  32  36
ATOM     36  C   UNL     1      32.196  25.208  42.298  0.00  0.00    +0.000 C 
ATOM     37  H   UNL     1      31.878  24.230  41.890  0.00  0.00    +0.000 HD
ENDBRANCH  32  36
ENDBRANCH  31  32
ENDBRANCH  27  31
ENDBRANCH  20  23
ENDBRANCH   7  20
TORSDOF 7
