
     RDKit          3D

 34 35  0  0  0  0  0  0  0  0999 V2000
   38.8767   31.8844   47.7739 C   0  0  0  0  0  0  0  0  0  0  0  0
   38.3574   32.1183   49.0181 C   0  0  0  0  0  0  0  0  0  0  0  0
   38.6864   33.3631   49.5496 C   0  0  0  0  0  0  0  0  0  0  0  0
   39.4761   34.2867   48.8683 C   0  0  0  0  0  0  0  0  0  0  0  0
   39.9568   33.9560   47.6086 C   0  0  0  0  0  0  0  0  0  0  0  0
   39.6535   32.7317   47.0467 C   0  0  0  0  0  0  0  0  0  0  0  0
   36.2113   30.9835   49.3755 C   0  0  0  0  0  0  0  0  0  0  0  0
   37.5439   31.1875   49.7308 C   0  0  0  0  0  0  0  0  0  0  0  0
   38.0210   30.4421   50.8083 C   0  0  0  0  0  0  0  0  0  0  0  0
   37.1775   29.5759   51.4395 N   0  0  0  0  0  0  0  0  0  0  0  0
   35.8870   29.4173   51.0501 C   0  0  0  0  0  0  0  0  0  0  0  0
   35.4006   30.1311   50.0050 N   0  0  0  0  0  0  0  0  0  0  0  0
   38.6022   30.6511   47.1452 O   0  0  0  0  0  0  0  0  0  0  0  0
   40.1485   32.4261   45.7824 O   0  0  0  0  0  0  0  0  0  0  0  0
   38.3363   33.6612   50.5235 H   0  0  0  0  0  0  0  0  0  0  0  0
   39.7378   35.2553   49.2680 H   0  0  0  0  0  0  0  0  0  0  0  0
   40.5750   34.6322   47.0323 H   0  0  0  0  0  0  0  0  0  0  0  0
   35.8233   31.5541   48.5426 H   0  0  0  0  0  0  0  0  0  0  0  0
   35.3616   28.6931   51.6576 H   0  0  0  0  0  0  0  0  0  0  0  0
   37.8690   30.7041   46.4298 H   0  0  0  0  0  0  0  0  0  0  0  0
   39.5713   32.3909   44.9638 H   0  0  0  0  0  0  0  0  0  0  0  0
   39.4033   30.5542   51.2733 C   0  0  0  0  0  0  0  0  0  0  0  0
   39.6131   30.3932   52.6750 N   0  0  0  0  0  4  0  0  0  0  0  0
   40.7472   31.2525   53.0620 C   0  0  0  0  0  0  0  0  0  0  0  0
   41.6655   30.6649   52.8230 H   0  0  0  0  0  0  0  0  0  0  0  0
   38.4488   30.7526   53.4669 C   0  0  0  0  0  0  0  0  0  0  0  0
   38.5805   30.4806   54.5345 H   0  0  0  0  0  0  0  0  0  0  0  0
   40.0403   29.8027   50.7577 H   0  0  0  0  0  0  0  0  0  0  0  0
   39.8109   31.5493   50.9202 H   0  0  0  0  0  0  0  0  0  0  0  0
   39.8868   29.4258   52.9460 H   0  0  0  0  0  0  0  0  0  0  0  0
   40.7997   32.1652   52.4127 H   0  0  0  0  0  0  0  0  0  0  0  0
   40.7522   31.4621   54.1336 H   0  0  0  0  0  0  0  0  0  0  0  0
   38.4273   31.8833   53.4438 H   0  0  0  0  0  0  0  0  0  0  0  0
   37.5297   30.2877   53.1114 H   0  0  0  0  0  0  0  0  0  0  0  0
  1  2  2  0
  2  3  1  0
  2  8  1  0
  4  3  2  0
  5  4  1  0
  6  5  2  0
  6  1  1  0
  7  8  2  0
  7 12  1  0
  8  9  1  0
  9 10  2  0
 11 10  1  0
 12 11  2  0
 13  1  1  0
 14  6  1  0
  3 15  1  0
  4 16  1  0
  5 17  1  0
  7 18  1  0
 11 19  1  0
 13 20  1  0
 14 21  1  0
 22 23  1  0
 23 24  1  0
 24 25  1  0
 23 26  1  0
 26 27  1  0
 22 28  1  0
 22 29  1  0
 23 30  1  0
 24 31  1  0
 24 32  1  0
 26 33  1  0
 26 34  1  0
  9 22  1  0
M  ISO  8  15  14  16  14  17  14  18  14  19  14  20   3  21   3  25   8
M  CHG  1  23   1
M  ISO  1  27   8
M  END
>  <DihAtoms>  (1) 
7,8,21,22

>  <DihDeg>  (1) 
-78.32424152386915

$$$$
