
 OpenBabel03272508533D

 36 38  0  0  1  0  0  0  0  0999 V2000
   38.4450   31.8210   44.5700 C   0  0  0  0  0  0  0  0  0  0  0  0
   37.3410   32.4270   44.4310 O   0  0  0  0  0  0  0  0  0  0  0  0
   38.9520   31.5310   45.8760 N   0  0  0  0  0  0  0  0  0  0  0  0
   39.9140   31.2170   46.0320 H   0  0  0  0  0  0  0  0  0  0  0  0
   39.2240   31.4050   43.3920 C   0  0  0  0  0  0  0  0  0  0  0  0
   40.2540   30.5220   43.5770 C   0  0  0  0  0  0  0  0  0  0  0  0
   40.9880   30.1290   42.4680 C   0  0  0  0  0  0  0  0  0  0  0  0
   40.6370   30.6460   41.2550 C   0  0  0  0  0  0  0  0  0  0  0  0
   39.5840   31.5520   41.0480 C   0  0  0  0  0  0  0  0  0  0  0  0
   38.9270   31.8810   42.1690 N   0  0  0  0  0  0  0  0  0  0  0  0
   40.5230   30.1210   44.5380 H   0  0  0  0  0  0  0  0  0  0  0  0
   41.8130   29.4330   42.5610 H   0  0  0  0  0  0  0  0  0  0  0  0
   41.2150   30.3320   40.4000 H   0  0  0  0  0  0  0  0  0  0  0  0
   39.2690   32.0650   39.7010 C   0  0  0  0  0  2  0  0  0  0  0  0
   38.5300   31.1530   38.8770 N   0  0  0  0  0  4  0  0  0  0  0  0
   37.9600   31.7110   38.2010 H   0  0  0  0  0  0  0  0  0  0  0  0
   39.3830   30.2800   38.0870 C   0  0  0  0  0  2  0  0  0  0  0  0
   40.2270   30.8520   37.6880 H   0  0  0  0  0  0  0  0  0  0  0  0
   37.5970   30.3520   39.6820 C   0  0  0  0  0  2  0  0  0  0  0  0
   36.5550   30.6010   39.4640 H   0  0  0  0  0  0  0  0  0  0  0  0
   38.3970   31.1160   48.2730 C   0  0  2  0  0  0  0  0  0  0  0  0
   38.6580   32.5590   48.1410 C   0  0  0  0  0  0  0  0  0  0  0  0
   38.0500   31.6960   47.0010 C   0  0  1  0  0  0  0  0  0  0  0  0
   39.3450   30.5220   48.3890 H   0  0  0  0  0  0  0  0  0  0  0  0
   37.9640   33.2840   48.6230 H   0  0  0  0  0  0  0  0  0  0  0  0
   39.6680   32.9420   47.9970 H   0  0  0  0  0  0  0  0  0  0  0  0
   36.9870   31.9240   46.7720 H   0  0  0  0  0  0  0  0  0  0  0  0
   35.0570   30.2060   49.5600 C   0  0  0  0  0  0  0  0  0  0  0  0
   35.3670   29.5820   50.7970 C   0  0  0  0  0  0  0  0  0  0  0  0
   36.7590   29.4950   51.1740 C   0  0  0  0  0  0  0  0  0  0  0  0
   37.6990   30.0070   50.3380 N   0  0  0  0  0  0  0  0  0  0  0  0
   37.3290   30.5930   49.1650 C   0  0  0  0  0  0  0  0  0  0  0  0
   36.0180   30.7080   48.7500 N   0  0  0  0  0  0  0  0  0  0  0  0
   34.0010   30.2420   49.3320 H   0  0  0  0  0  0  0  0  0  0  0  0
   34.5940   29.1940   51.4230 H   0  0  0  0  0  0  0  0  0  0  0  0
   37.0030   29.0210   52.1150 H   0  0  0  0  0  0  0  0  0  0  0  0
  1  3  1  0  0  0  0
  2  1  2  0  0  0  0
  3  4  1  0  0  0  0
  3 23  1  0  0  0  0
  5  6  1  0  0  0  0
  5  1  1  0  0  0  0
  6 11  1  0  0  0  0
  7 12  1  0  0  0  0
  7  6  2  0  0  0  0
  8  7  1  0  0  0  0
  9  8  2  0  0  0  0
  9 10  1  0  0  0  0
 10  5  2  0  0  0  0
 13  8  1  0  0  0  0
 14  9  1  0  0  0  0
 15 19  1  0  0  0  0
 15 14  1  0  0  0  0
 16 15  1  0  0  0  0
 17 15  1  0  0  0  0
 18 17  1  0  0  0  0
 20 19  1  0  0  0  0
 21 24  1  6  0  0  0
 21 32  1  0  0  0  0
 22 21  1  0  0  0  0
 22 25  1  0  0  0  0
 23 27  1  6  0  0  0
 23 22  1  0  0  0  0
 23 21  1  0  0  0  0
 26 22  1  0  0  0  0
 28 29  1  0  0  0  0
 29 30  2  0  0  0  0
 29 35  1  0  0  0  0
 30 36  1  0  0  0  0
 31 30  1  0  0  0  0
 32 31  2  0  0  0  0
 33 32  1  0  0  0  0
 33 28  2  0  0  0  0
 34 28  1  0  0  0  0
M  END
>  <minimizedAffinity>
-4.77462196

>  <minimizedRMSD>
1.0042218

$$$$
