
     RDKit          3D

 37 38  0  0  0  0  0  0  0  0999 V2000
   33.6008   28.7065   49.0297 N   0  0  0  0  0  0  0  0  0  0  0  0
   34.4457   29.8816   48.9276 C   0  0  2  0  0  0  0  0  0  0  0  0
   34.3803   30.3848   47.5024 C   0  0  0  0  0  0  0  0  0  0  0  0
   33.2534   29.8641   46.8267 O   0  0  0  0  0  0  0  0  0  0  0  0
   33.5448   28.5019   46.6650 C   0  0  0  0  0  0  0  0  0  0  0  0
   33.9279   27.8176   47.9459 C   0  0  2  0  0  0  0  0  0  0  0  0
   33.1657   26.6374   48.1285 O   0  0  0  0  0  0  0  0  0  0  0  0
   36.1812   29.4472   49.3307 S   0  0  0  0  0  0  0  0  0  0  0  0
   37.2855   30.7302   48.8147 C   0  0  0  0  0  0  0  0  0  0  0  0
   37.2248   31.8571   49.6609 C   0  0  0  0  0  0  0  0  0  0  0  0
   38.0445   32.9522   49.3715 C   0  0  0  0  0  0  0  0  0  0  0  0
   38.8664   32.8700   48.2754 N   0  0  0  0  0  0  0  0  0  0  0  0
   38.8888   31.7693   47.4957 C   0  0  0  0  0  0  0  0  0  0  0  0
   38.1163   30.7193   47.7563 N   0  0  0  0  0  0  0  0  0  0  0  0
   32.6286   29.0559   48.8679 H   0  0  0  0  0  0  0  0  0  0  0  0
   34.1363   30.6950   49.6124 H   0  0  0  0  0  0  0  0  0  0  0  0
   35.2680   29.9835   46.9617 H   0  0  0  0  0  0  0  0  0  0  0  0
   34.4158   31.4900   47.4347 H   0  0  0  0  0  0  0  0  0  0  0  0
   34.4183   28.3760   45.9660 H   0  0  0  0  0  0  0  0  0  0  0  0
   32.6928   28.0017   46.1703 H   0  0  0  0  0  0  0  0  0  0  0  0
   35.0115   27.5537   48.0012 H   0  0  0  0  0  0  0  0  0  0  0  0
   32.6751   26.4007   47.3124 H   0  0  0  0  0  0  0  0  0  0  0  0
   36.6035   31.9734   50.5263 H   0  0  0  0  0  0  0  0  0  0  0  0
   38.0347   33.8358   49.9871 H   0  0  0  0  0  0  0  0  0  0  0  0
   39.7665   31.6490   46.3029 C   0  0  0  0  0  0  0  0  0  0  0  0
   39.0636   32.1452   45.1236 N   0  0  0  0  0  4  0  0  0  0  0  0
   39.0836   33.6002   45.2112 C   0  0  0  0  0  0  0  0  0  0  0  0
   38.9905   34.0607   44.2059 H   0  0  0  0  0  0  0  0  0  0  0  0
   39.6920   31.6755   43.9102 C   0  0  0  0  0  0  0  0  0  0  0  0
   39.1583   30.8023   43.5142 H   0  0  0  0  0  0  0  0  0  0  0  0
   40.0638   30.6068   46.0758 H   0  0  0  0  0  0  0  0  0  0  0  0
   40.7356   32.1927   46.4501 H   0  0  0  0  0  0  0  0  0  0  0  0
   38.0922   31.7805   45.1952 H   0  0  0  0  0  0  0  0  0  0  0  0
   38.2411   33.8815   45.8795 H   0  0  0  0  0  0  0  0  0  0  0  0
   40.0403   33.8796   45.6948 H   0  0  0  0  0  0  0  0  0  0  0  0
   39.6592   32.4843   43.1436 H   0  0  0  0  0  0  0  0  0  0  0  0
   40.7566   31.4240   44.1175 H   0  0  0  0  0  0  0  0  0  0  0  0
  2  1  1  0
  2  8  1  0
  3  2  1  0
  4  3  1  0
  5  4  1  0
  5  6  1  0
  6  7  1  0
  6  1  1  0
  9  8  1  0
  9 10  2  0
 11 10  1  0
 12 11  2  0
 13 14  2  0
 13 12  1  0
 14  9  1  0
  1 15  1  0
  2 16  1  1
  3 17  1  0
  3 18  1  0
  5 19  1  0
  5 20  1  0
  6 21  1  6
  7 22  1  0
 10 23  1  0
 11 24  1  0
 25 26  1  0
 26 27  1  0
 27 28  1  0
 26 29  1  0
 29 30  1  0
 25 31  1  0
 25 32  1  0
 26 33  1  0
 27 34  1  0
 27 35  1  0
 29 36  1  0
 29 37  1  0
 13 25  1  0
M  ISO  8  15   5  16  13  17  13  18  13  19  13  20  13  21  13  22   3
M  CHG  1  26   1
M  ISO  4  23  14  24  14  28   8  30   8
M  END
>  <DihAtoms>  (1) 
13,12,24,25

>  <DihDeg>  (1) 
-89.99541805402264

$$$$
