REMARK  Name = 
REMARK  5 active torsions:
REMARK  status: ('A' for Active; 'I' for Inactive)
REMARK    1  A    between atoms: C_1  and  C_17
REMARK    2  A    between atoms: C_15  and  C_34
REMARK    3  A    between atoms: C_34  and  N_35
REMARK    4  A    between atoms: N_35  and  C_36
REMARK    5  A    between atoms: N_35  and  C_38
REMARK                            x       y       z     vdW  Elec       q    Type
REMARK                         _______ _______ _______ _____ _____    ______ ____
ROOT
ATOM      1  C   UNL     1      36.016  30.277  48.639  0.00  0.00    +0.000 A 
ATOM      2  C   UNL     1      36.066  29.325  49.635  0.00  0.00    +0.000 A 
ATOM      3  C   UNL     1      35.091  28.338  49.711  0.00  0.00    +0.000 A 
ATOM      4  C   UNL     1      34.102  28.376  48.753  0.00  0.00    +0.000 A 
ATOM      5  C   UNL     1      34.045  29.331  47.748  0.00  0.00    +0.000 A 
ATOM      6  N   UNL     1      35.020  30.258  47.730  0.00  0.00    +0.000 NA
ATOM      7  N   UNL     1      32.984  29.270  46.822  0.00  0.00    +0.000 N 
ATOM      8  C   UNL     1      31.837  28.453  47.131  0.00  0.00    +0.000 C 
ATOM      9  C   UNL     1      30.932  28.479  45.925  0.00  0.00    +0.000 C 
ATOM     10  C   UNL     1      30.521  29.913  45.637  0.00  0.00    +0.000 C 
ATOM     11  C   UNL     1      31.717  30.791  45.470  0.00  0.00    +0.000 C 
ATOM     12  C   UNL     1      32.977  29.986  45.566  0.00  0.00    +0.000 C 
ATOM     13  H   UNL     1      36.885  29.381  50.340  0.00  0.00    +0.000 HD
ATOM     14  H   UNL     1      35.153  27.609  50.496  0.00  0.00    +0.000 HD
ATOM     15  H   UNL     1      33.368  27.566  48.877  0.00  0.00    +0.000 HD
ATOM     16  H   UNL     1      32.088  27.383  47.299  0.00  0.00    +0.000 HD
ATOM     17  H   UNL     1      31.266  28.908  47.961  0.00  0.00    +0.000 HD
ATOM     18  H   UNL     1      31.380  27.986  45.049  0.00  0.00    +0.000 HD
ATOM     19  H   UNL     1      30.003  27.950  46.228  0.00  0.00    +0.000 HD
ATOM     20  H   UNL     1      29.984  30.264  46.564  0.00  0.00    +0.000 HD
ATOM     21  H   UNL     1      29.784  29.990  44.840  0.00  0.00    +0.000 HD
ATOM     22  H   UNL     1      31.785  31.640  46.153  0.00  0.00    +0.000 HD
ATOM     23  H   UNL     1      31.687  31.198  44.419  0.00  0.00    +0.000 HD
ATOM     24  H   UNL     1      33.884  30.624  45.552  0.00  0.00    +0.000 HD
ATOM     25  H   UNL     1      33.052  29.206  44.776  0.00  0.00    +0.000 HD
ENDROOT
BRANCH   1  30
ATOM     26  C   UNL     1      38.086  33.181  49.496  0.00  0.00    +0.000 A 
ATOM     27  C   UNL     1      39.001  33.233  48.448  0.00  0.00    +0.000 A 
ATOM     28  C   UNL     1      38.906  32.278  47.456  0.00  0.00    +0.000 A 
ATOM     29  N   UNL     1      37.916  31.327  47.553  0.00  0.00    +0.000 NA
ATOM     30  C   UNL     1      37.048  31.303  48.577  0.00  0.00    +0.000 A 
ATOM     31  N   UNL     1      37.152  32.231  49.528  0.00  0.00    +0.000 NA
ATOM     32  H   UNL     1      38.192  33.944  50.253  0.00  0.00    +0.000 HD
ATOM     33  H   UNL     1      39.757  33.995  48.415  0.00  0.00    +0.000 HD
BRANCH  28  34
ATOM     34  C   UNL     1      39.853  32.306  46.340  0.00  0.00    +0.000 C 
BRANCH  34  35
ATOM     35  N   UNL     1      39.437  33.089  45.215  0.00  0.00    +0.000 N 
ATOM     36  H   UNL     1      40.053  32.805  44.401  0.00  0.00    +0.000 HD
BRANCH  35  37
ATOM     37  C   UNL     1      39.685  34.506  45.387  0.00  0.00    +0.000 C 
ATOM     38  H   UNL     1      39.642  35.002  44.401  0.00  0.00    +0.000 HD
ENDBRANCH  35  37
BRANCH  35  39
ATOM     39  C   UNL     1      38.076  32.890  44.813  0.00  0.00    +0.000 C 
ATOM     40  H   UNL     1      37.736  33.800  44.258  0.00  0.00    +0.000 HD
ENDBRANCH  35  39
ENDBRANCH  34  35
ENDBRANCH  28  34
ENDBRANCH   1  30
TORSDOF 5
