REMARK  Name = 
REMARK  8 active torsions:
REMARK  status: ('A' for Active; 'I' for Inactive)
REMARK    1  A    between atoms: C_1  and  O_7
REMARK    2  A    between atoms: C_3  and  C_16
REMARK    3  A    between atoms: O_7  and  P_9
REMARK    4  A    between atoms: P_9  and  O_10
REMARK    5  A    between atoms: P_9  and  O_11
REMARK    6  A    between atoms: C_16  and  N_17
REMARK    7  A    between atoms: N_17  and  C_18
REMARK    8  A    between atoms: N_17  and  C_20
REMARK                            x       y       z     vdW  Elec       q    Type
REMARK                         _______ _______ _______ _____ _____    ______ ____
ROOT
ATOM      1  C   UNL     1      35.645  30.473  49.746  0.00  0.00    +0.000 A 
ATOM      2  C   UNL     1      35.966  29.468  50.678  0.00  0.00    +0.000 A 
ATOM      3  C   UNL     1      37.235  29.511  51.258  0.00  0.00    +0.000 A 
ATOM      4  N   UNL     1      38.092  30.504  50.904  0.00  0.00    +0.000 NA
ATOM      5  C   UNL     1      37.749  31.454  50.004  0.00  0.00    +0.000 A 
ATOM      6  N   UNL     1      36.529  31.447  49.420  0.00  0.00    +0.000 NA
ATOM      7  H   UNL     1      35.218  28.743  50.877  0.00  0.00    +0.000 HD
ATOM      8  H   UNL     1      38.497  32.205  49.784  0.00  0.00    +0.000 HD
ENDROOT
BRANCH   1   9
ATOM      9  O   UNL     1      34.441  30.581  49.081  0.00  0.00    +0.000 OA
BRANCH   9  11
ATOM     10  O   UNL     1      35.495  30.148  46.642  0.00  0.00    +0.000 OA
ATOM     11  P   UNL     1      34.237  30.029  47.464  0.00  0.00    +0.000 P 
BRANCH  11  12
ATOM     12  O   UNL     1      33.756  28.393  47.581  0.00  0.00    +0.000 OA
ATOM     13  H   UNL     1      32.844  28.363  47.958  0.00  0.00    +0.000 HD
ENDBRANCH  11  12
BRANCH  11  14
ATOM     14  O   UNL     1      33.058  30.942  46.680  0.00  0.00    +0.000 OA
ATOM     15  H   UNL     1      32.724  30.424  45.889  0.00  0.00    +0.000 HD
ENDBRANCH  11  14
ENDBRANCH   9  11
ENDBRANCH   1   9
BRANCH   3  16
ATOM     16  C   UNL     1      37.590  28.475  52.231  0.00  0.00    +0.000 C 
BRANCH  16  17
ATOM     17  N   UNL     1      38.519  28.897  53.234  0.00  0.00    +0.000 N 
ATOM     18  H   UNL     1      39.231  29.578  52.887  0.00  0.00    +0.000 HD
BRANCH  17  19
ATOM     19  C   UNL     1      37.817  29.484  54.377  0.00  0.00    +0.000 C 
ATOM     20  H   UNL     1      38.476  29.551  55.255  0.00  0.00    +0.000 HD
ENDBRANCH  17  19
BRANCH  17  21
ATOM     21  C   UNL     1      39.205  27.719  53.734  0.00  0.00    +0.000 C 
ATOM     22  H   UNL     1      40.115  27.511  53.111  0.00  0.00    +0.000 HD
ENDBRANCH  17  21
ENDBRANCH  16  17
ENDBRANCH   3  16
TORSDOF 8
