
 OpenBabel03272508533D

 36 38  0  0  1  0  0  0  0  0999 V2000
   37.9730   31.5630   45.2830 C   0  0  0  0  0  0  0  0  0  0  0  0
   36.8940   30.9220   45.4550 O   0  0  0  0  0  0  0  0  0  0  0  0
   38.4640   32.4400   46.3010 N   0  0  0  0  0  0  0  0  0  0  0  0
   39.2200   33.1100   46.1280 H   0  0  0  0  0  0  0  0  0  0  0  0
   38.7400   31.4160   44.0350 C   0  0  0  0  0  0  0  0  0  0  0  0
   39.9980   30.8800   44.1080 C   0  0  0  0  0  0  0  0  0  0  0  0
   40.7210   30.7400   42.9320 C   0  0  0  0  0  0  0  0  0  0  0  0
   40.1330   31.1460   41.7700 C   0  0  0  0  0  0  0  0  0  0  0  0
   38.8440   31.6980   41.6770 C   0  0  0  0  0  0  0  0  0  0  0  0
   38.2150   31.7990   42.8570 N   0  0  0  0  0  0  0  0  0  0  0  0
   40.4530   30.5640   45.0300 H   0  0  0  0  0  0  0  0  0  0  0  0
   41.7200   30.3220   42.9370 H   0  0  0  0  0  0  0  0  0  0  0  0
   40.7050   31.0320   40.8630 H   0  0  0  0  0  0  0  0  0  0  0  0
   38.2800   32.1120   40.3790 C   0  0  0  0  0  0  0  0  0  0  0  0
   37.1930   33.0420   40.4730 N   0  0  0  0  0  0  0  0  0  0  0  0
   37.1390   33.3850   41.4590 H   0  0  0  0  0  0  0  0  0  0  0  0
   37.3700   34.2110   39.6290 C   0  0  0  0  0  0  0  0  0  0  0  0
   38.4110   34.5470   39.6770 H   0  0  0  0  0  0  0  0  0  0  0  0
   35.9130   32.3870   40.1650 C   0  0  0  0  0  0  0  0  0  0  0  0
   35.2690   32.3210   41.0470 H   0  0  0  0  0  0  0  0  0  0  0  0
   38.4480   31.5150   48.6180 C   0  0  2  0  0  0  0  0  0  0  0  0
   38.7480   32.9510   48.7360 C   0  0  0  0  0  0  0  0  0  0  0  0
   37.8520   32.3590   47.6140 C   0  0  1  0  0  0  0  0  0  0  0  0
   39.3640   30.9070   48.3810 H   0  0  0  0  0  0  0  0  0  0  0  0
   38.2220   33.5560   49.5090 H   0  0  0  0  0  0  0  0  0  0  0  0
   39.7180   33.3540   48.4450 H   0  0  0  0  0  0  0  0  0  0  0  0
   36.7780   32.6340   47.6930 H   0  0  0  0  0  0  0  0  0  0  0  0
   35.5770   29.7150   50.0870 C   0  0  0  0  0  0  0  0  0  0  0  0
   36.0150   29.4760   51.4160 C   0  0  0  0  0  0  0  0  0  0  0  0
   37.3240   29.9620   51.7880 C   0  0  0  0  0  0  0  0  0  0  0  0
   38.0690   30.6180   50.8610 N   0  0  0  0  0  0  0  0  0  0  0  0
   37.5840   30.8120   49.6030 C   0  0  0  0  0  0  0  0  0  0  0  0
   36.3430   30.3740   49.1870 N   0  0  0  0  0  0  0  0  0  0  0  0
   34.5910   29.3290   49.8680 H   0  0  0  0  0  0  0  0  0  0  0  0
   35.3950   28.9550   52.1110 H   0  0  0  0  0  0  0  0  0  0  0  0
   37.6640   29.7830   52.7990 H   0  0  0  0  0  0  0  0  0  0  0  0
  1  2  2  0  0  0  0
  1  3  1  0  0  0  0
  3 23  1  0  0  0  0
  4  3  1  0  0  0  0
  5  6  1  0  0  0  0
  5  1  1  0  0  0  0
  6 11  1  0  0  0  0
  7 12  1  0  0  0  0
  7  6  2  0  0  0  0
  8  7  1  0  0  0  0
  9  8  2  0  0  0  0
  9 10  1  0  0  0  0
 10  5  2  0  0  0  0
 13  8  1  0  0  0  0
 14 15  1  0  0  0  0
 14  9  1  0  0  0  0
 15 16  1  0  0  0  0
 17 18  1  0  0  0  0
 17 15  1  0  0  0  0
 19 15  1  0  0  0  0
 19 20  1  0  0  0  0
 21 24  1  6  0  0  0
 21 22  1  0  0  0  0
 21 32  1  0  0  0  0
 22 25  1  0  0  0  0
 23 27  1  1  0  0  0
 23 21  1  0  0  0  0
 23 22  1  0  0  0  0
 26 22  1  0  0  0  0
 28 29  1  0  0  0  0
 29 30  2  0  0  0  0
 29 35  1  0  0  0  0
 30 36  1  0  0  0  0
 31 30  1  0  0  0  0
 32 31  2  0  0  0  0
 33 32  1  0  0  0  0
 33 28  2  0  0  0  0
 34 28  1  0  0  0  0
M  END
>  <minimizedAffinity>
-5.10609055

>  <minimizedRMSD>
1.45727575

$$$$
