
 OpenBabel03272508533D

 36 38  0  0  1  0  0  0  0  0999 V2000
   38.4120   31.8520   44.5400 C   0  0  0  0  0  0  0  0  0  0  0  0
   37.3020   32.4500   44.4190 O   0  0  0  0  0  0  0  0  0  0  0  0
   38.9390   31.5600   45.8370 N   0  0  0  0  0  0  0  0  0  0  0  0
   39.9060   31.2530   45.9790 H   0  0  0  0  0  0  0  0  0  0  0  0
   39.1770   31.4470   43.3500 C   0  0  0  0  0  0  0  0  0  0  0  0
   40.1850   30.5340   43.5090 C   0  0  0  0  0  0  0  0  0  0  0  0
   40.9060   30.1500   42.3870 C   0  0  0  0  0  0  0  0  0  0  0  0
   40.5650   30.7070   41.1890 C   0  0  0  0  0  0  0  0  0  0  0  0
   39.5350   31.6450   41.0080 C   0  0  0  0  0  0  0  0  0  0  0  0
   38.8890   31.9610   42.1400 N   0  0  0  0  0  0  0  0  0  0  0  0
   40.4450   30.1010   44.4580 H   0  0  0  0  0  0  0  0  0  0  0  0
   41.7130   29.4320   42.4590 H   0  0  0  0  0  0  0  0  0  0  0  0
   41.1330   30.4010   40.3240 H   0  0  0  0  0  0  0  0  0  0  0  0
   39.2300   32.2000   39.6770 C   0  0  0  0  0  2  0  0  0  0  0  0
   38.0180   31.7070   39.0900 N   0  0  0  0  0  4  0  0  0  0  0  0
   38.1210   31.7350   38.0500 H   0  0  0  0  0  0  0  0  0  0  0  0
   37.7330   30.3270   39.4470 C   0  0  0  0  0  2  0  0  0  0  0  0
   38.6570   29.7400   39.4190 H   0  0  0  0  0  0  0  0  0  0  0  0
   36.8760   32.5640   39.4420 C   0  0  0  0  0  2  0  0  0  0  0  0
   36.4850   33.0970   38.5710 H   0  0  0  0  0  0  0  0  0  0  0  0
   38.4100   31.1110   48.2340 C   0  0  2  0  0  0  0  0  0  0  0  0
   38.6810   32.5530   48.1220 C   0  0  0  0  0  0  0  0  0  0  0  0
   38.0530   31.7140   46.9760 C   0  0  1  0  0  0  0  0  0  0  0  0
   39.3550   30.5070   48.3290 H   0  0  0  0  0  0  0  0  0  0  0  0
   38.0000   33.2760   48.6250 H   0  0  0  0  0  0  0  0  0  0  0  0
   39.6930   32.9300   47.9730 H   0  0  0  0  0  0  0  0  0  0  0  0
   36.9890   31.9550   46.7640 H   0  0  0  0  0  0  0  0  0  0  0  0
   35.0790   30.2000   49.5430 C   0  0  0  0  0  0  0  0  0  0  0  0
   35.3990   29.5590   50.7700 C   0  0  0  0  0  0  0  0  0  0  0  0
   36.7940   29.4610   51.1310 C   0  0  0  0  0  0  0  0  0  0  0  0
   37.7280   29.9790   50.2920 N   0  0  0  0  0  0  0  0  0  0  0  0
   37.3490   30.5810   49.1300 C   0  0  0  0  0  0  0  0  0  0  0  0
   36.0340   30.7070   48.7290 N   0  0  0  0  0  0  0  0  0  0  0  0
   34.0210   30.2430   49.3270 H   0  0  0  0  0  0  0  0  0  0  0  0
   34.6300   29.1660   51.3980 H   0  0  0  0  0  0  0  0  0  0  0  0
   37.0450   28.9750   52.0640 H   0  0  0  0  0  0  0  0  0  0  0  0
  1  3  1  0  0  0  0
  2  1  2  0  0  0  0
  3  4  1  0  0  0  0
  3 23  1  0  0  0  0
  5  6  1  0  0  0  0
  5  1  1  0  0  0  0
  6 11  1  0  0  0  0
  7 12  1  0  0  0  0
  7  6  2  0  0  0  0
  8  7  1  0  0  0  0
  9  8  2  0  0  0  0
  9 10  1  0  0  0  0
 10  5  2  0  0  0  0
 13  8  1  0  0  0  0
 14  9  1  0  0  0  0
 15 19  1  0  0  0  0
 15 17  1  0  0  0  0
 15 14  1  0  0  0  0
 16 15  1  0  0  0  0
 18 17  1  0  0  0  0
 20 19  1  0  0  0  0
 21 24  1  6  0  0  0
 21 32  1  0  0  0  0
 22 21  1  0  0  0  0
 22 25  1  0  0  0  0
 23 27  1  6  0  0  0
 23 22  1  0  0  0  0
 23 21  1  0  0  0  0
 26 22  1  0  0  0  0
 28 29  1  0  0  0  0
 29 30  2  0  0  0  0
 29 35  1  0  0  0  0
 30 36  1  0  0  0  0
 31 30  1  0  0  0  0
 32 31  2  0  0  0  0
 33 32  1  0  0  0  0
 33 28  2  0  0  0  0
 34 28  1  0  0  0  0
M  END
>  <minimizedAffinity>
-4.80762005

>  <minimizedRMSD>
0.220816791

$$$$
