
 OpenBabel03272509383D

 28 29  0  0  0  0  0  0  0  0999 V2000
   35.6070   29.3800   48.8860 C   0  0  0  0  0  0  0  0  0  0  0  0
   35.3870   29.0640   50.2270 C   0  0  0  0  0  0  0  0  0  0  0  0
   36.1720   29.5900   51.2560 C   0  0  0  0  0  0  0  0  0  0  0  0
   37.2150   30.4640   50.9000 C   0  0  0  0  0  0  0  0  0  0  0  0
   37.4120   30.7610   49.5730 C   0  0  0  0  0  0  0  0  0  0  0  0
   36.6340   30.2430   48.5500 C   0  0  0  0  0  0  0  0  0  0  0  0
   34.5690   28.3780   50.4780 H   0  0  0  0  0  0  0  0  0  0  0  0
   35.9370   29.2940   52.2490 H   0  0  0  0  0  0  0  0  0  0  0  0
   37.7540   30.8050   51.7700 H   0  0  0  0  0  0  0  0  0  0  0  0
   38.2580   31.4310   49.5120 H   0  0  0  0  0  0  0  0  0  0  0  0
   34.7370   28.7520   47.9010 C   0  0  0  0  0  0  0  0  0  0  0  0
   34.4530   27.5240   48.1480 O   0  0  0  0  0  0  0  0  0  0  0  0
   32.6310   30.9900   45.9870 C   0  0  0  0  0  0  0  0  0  0  0  0
   33.0390   30.7820   44.6560 C   0  0  0  0  0  0  0  0  0  0  0  0
   34.0480   29.8510   44.4110 C   0  0  0  0  0  0  0  0  0  0  0  0
   34.6110   29.1680   45.4550 N   0  0  0  0  0  0  0  0  0  0  0  0
   34.1940   29.3960   46.7110 C   0  0  0  0  0  0  0  0  0  0  0  0
   33.2320   30.2860   46.9290 N   0  0  0  0  0  0  0  0  0  0  0  0
   31.8550   31.7190   46.1100 H   0  0  0  0  0  0  0  0  0  0  0  0
   32.6560   31.2720   43.7710 H   0  0  0  0  0  0  0  0  0  0  0  0
   34.4470   29.6010   43.4310 H   0  0  0  0  0  0  0  0  0  0  0  0
   36.9240   30.6550   47.1900 C   0  0  0  0  0  2  0  0  0  0  0  0
   38.3510   30.9380   46.9480 N   0  0  0  0  0  4  0  0  0  0  0  0
   38.9790   30.4450   47.5830 H   0  0  0  0  0  0  0  0  0  0  0  0
   38.5780   30.3230   45.6210 C   0  0  0  0  0  2  0  0  0  0  0  0
   38.2490   31.0870   44.8540 H   0  0  0  0  0  0  0  0  0  0  0  0
   38.6230   32.3340   46.7520 C   0  0  0  0  0  2  0  0  0  0  0  0
   39.6200   32.5590   47.2420 H   0  0  0  0  0  0  0  0  0  0  0  0
  1  2  1  0  0  0  0
  2  7  1  0  0  0  0
  2  3  2  0  0  0  0
  3  8  1  0  0  0  0
  4  3  1  0  0  0  0
  4  9  1  0  0  0  0
  5  4  2  0  0  0  0
  6  1  2  0  0  0  0
  6  5  1  0  0  0  0
 10  5  1  0  0  0  0
 11 12  2  0  0  0  0
 11  1  1  0  0  0  0
 13 19  1  0  0  0  0
 13 18  1  0  0  0  0
 14 13  2  0  0  0  0
 15 14  1  0  0  0  0
 15 16  2  0  0  0  0
 16 17  1  0  0  0  0
 17 18  2  0  0  0  0
 17 11  1  0  0  0  0
 20 14  1  0  0  0  0
 21 15  1  0  0  0  0
 22  6  1  0  0  0  0
 23 22  1  0  0  0  0
 23 24  1  0  0  0  0
 25 23  1  0  0  0  0
 26 25  1  0  0  0  0
 27 23  1  0  0  0  0
 27 28  1  0  0  0  0
M  END
>  <minimizedAffinity>
-4.84067011

>  <minimizedRMSD>
1.26804745

$$$$
