
 OpenBabel03272502363D

 34 35  0  0  1  0  0  0  0  0999 V2000
   35.3260   29.1660   33.8140 C   0  0  2  0  0  0  0  0  0  0  0  0
   34.6000   28.3900   33.4940 H   0  0  0  0  0  0  0  0  0  0  0  0
   34.7770   30.0850   34.8260 C   0  0  0  0  0  0  0  0  0  0  0  0
   35.7610   30.9280   35.4090 C   0  0  0  0  0  0  0  0  0  0  0  0
   35.4930   31.8670   36.3720 C   0  0  0  0  0  0  0  0  0  0  0  0
   34.1820   32.0470   36.8460 C   0  0  0  0  0  0  0  0  0  0  0  0
   33.2820   31.1870   36.2280 C   0  0  0  0  0  0  0  0  0  0  0  0
   33.5230   30.2650   35.2870 N   0  0  0  0  0  0  0  0  0  0  0  0
   36.8470   30.9820   35.2070 H   0  0  0  0  0  0  0  0  0  0  0  0
   36.1930   32.5320   36.8500 H   0  0  0  0  0  0  0  0  0  0  0  0
   33.7950   32.7170   37.5780 H   0  0  0  0  0  0  0  0  0  0  0  0
   32.2220   31.2080   36.4920 H   0  0  0  0  0  0  0  0  0  0  0  0
   36.7680   27.2750   34.0570 C   0  0  0  0  0  3  0  0  0  0  0  0
   36.5690   28.5170   34.3540 C   0  0  0  0  0  3  0  0  0  0  0  0
   40.3450   26.4590   34.7320 C   0  0  0  0  0  0  0  0  0  0  0  0
   39.1820   27.1020   34.3450 C   0  0  0  0  0  0  0  0  0  0  0  0
   37.9370   26.5490   34.5070 C   0  0  0  0  0  0  0  0  0  0  0  0
   37.8820   25.3200   35.0750 N   0  0  0  0  0  0  0  0  0  0  0  0
   39.0060   24.7040   35.4480 C   0  0  0  0  0  0  0  0  0  0  0  0
   40.2240   25.2440   35.2890 N   0  0  0  0  0  0  0  0  0  0  0  0
   41.3380   26.8550   34.6250 H   0  0  0  0  0  0  0  0  0  0  0  0
   39.4030   28.0680   33.9130 H   0  0  0  0  0  0  0  0  0  0  0  0
   38.9260   23.3580   36.0690 C   0  0  0  0  0  2  0  0  0  0  0  0
   39.5390   23.3070   37.3680 N   0  0  0  0  0  4  0  0  0  0  0  0
   40.1180   24.1900   37.4380 H   0  0  0  0  0  0  0  0  0  0  0  0
   38.6150   23.3560   38.4690 C   0  0  0  0  0  2  0  0  0  0  0  0
   38.5850   24.3530   38.9700 H   0  0  0  0  0  0  0  0  0  0  0  0
   40.4990   22.2270   37.4940 C   0  0  0  0  0  2  0  0  0  0  0  0
   40.0250   21.2550   37.3570 H   0  0  0  0  0  0  0  0  0  0  0  0
   35.8330   30.2100   32.4040 S   0  0  0  0  0  0  0  0  0  0  0  0
   36.3940   29.2100   31.0370 C   0  0  0  0  0  0  0  0  0  0  0  0
   35.7670   27.9790   30.9620 F   0  0  0  0  0  0  0  0  0  0  0  0
   36.3210   29.8950   29.8400 F   0  0  0  0  0  0  0  0  0  0  0  0
   37.7720   28.9800   31.2580 F   0  0  0  0  0  0  0  0  0  0  0  0
  1  2  1  6  0  0  0
  1 14  1  0  0  0  0
  1  3  1  0  0  0  0
  3  8  2  0  0  0  0
  3  4  1  0  0  0  0
  4  5  2  0  0  0  0
  5  6  1  0  0  0  0
  5 10  1  0  0  0  0
  6 11  1  0  0  0  0
  7 12  1  0  0  0  0
  7  6  2  0  0  0  0
  8  7  1  0  0  0  0
  9  4  1  0  0  0  0
 13 14  2  0  0  0  0
 13 17  1  0  0  0  0
 15 20  1  0  0  0  0
 16 17  1  0  0  0  0
 16 15  2  0  0  0  0
 17 18  2  0  0  0  0
 18 19  1  0  0  0  0
 19 23  1  0  0  0  0
 20 19  2  0  0  0  0
 21 15  1  0  0  0  0
 22 16  1  0  0  0  0
 23 24  1  0  0  0  0
 24 25  1  0  0  0  0
 24 28  1  0  0  0  0
 24 26  1  0  0  0  0
 26 27  1  0  0  0  0
 29 28  1  0  0  0  0
 30  1  1  0  0  0  0
 31 34  1  0  0  0  0
 31 30  1  0  0  0  0
 32 31  1  0  0  0  0
 33 31  1  0  0  0  0
M  END
>  <minimizedAffinity>
-5.23282099

$$$$

 OpenBabel03272502363D

 34 35  0  0  1  0  0  0  0  0999 V2000
   39.2550   23.0010   35.7370 C   0  0  2  0  0  0  0  0  0  0  0  0
   39.8560   22.3060   36.3590 H   0  0  0  0  0  0  0  0  0  0  0  0
   40.0070   24.1960   35.3190 C   0  0  0  0  0  0  0  0  0  0  0  0
   39.2170   25.3780   35.3050 C   0  0  0  0  0  0  0  0  0  0  0  0
   39.6940   26.6140   34.9530 C   0  0  0  0  0  0  0  0  0  0  0  0
   41.0380   26.7790   34.5750 C   0  0  0  0  0  0  0  0  0  0  0  0
   41.7400   25.5790   34.6150 C   0  0  0  0  0  0  0  0  0  0  0  0
   41.2940   24.3640   34.9550 N   0  0  0  0  0  0  0  0  0  0  0  0
   38.1490   25.5110   35.5590 H   0  0  0  0  0  0  0  0  0  0  0  0
   39.1470   27.5430   34.9230 H   0  0  0  0  0  0  0  0  0  0  0  0
   41.5730   27.6500   34.2760 H   0  0  0  0  0  0  0  0  0  0  0  0
   42.7990   25.5460   34.3460 H   0  0  0  0  0  0  0  0  0  0  0  0
   37.5050   21.9010   34.5350 C   0  0  0  0  0  3  0  0  0  0  0  0
   38.7390   22.2860   34.5200 C   0  0  0  0  0  3  0  0  0  0  0  0
   34.9570   20.0930   32.4970 C   0  0  0  0  0  0  0  0  0  0  0  0
   35.6000   20.7710   33.5180 C   0  0  0  0  0  0  0  0  0  0  0  0
   36.8940   21.2160   33.4150 C   0  0  0  0  0  0  0  0  0  0  0  0
   37.5380   20.9640   32.2500 N   0  0  0  0  0  0  0  0  0  0  0  0
   36.9140   20.3090   31.2690 C   0  0  0  0  0  0  0  0  0  0  0  0
   35.6490   19.8740   31.3680 N   0  0  0  0  0  0  0  0  0  0  0  0
   33.9470   19.7280   32.5350 H   0  0  0  0  0  0  0  0  0  0  0  0
   34.9470   20.8900   34.3710 H   0  0  0  0  0  0  0  0  0  0  0  0
   37.6350   20.0420   29.9990 C   0  0  0  0  0  2  0  0  0  0  0  0
   37.8480   18.6400   29.7650 N   0  0  0  0  0  4  0  0  0  0  0  0
   37.0440   18.1510   30.2480 H   0  0  0  0  0  0  0  0  0  0  0  0
   37.7720   18.2460   28.3830 C   0  0  0  0  0  2  0  0  0  0  0  0
   36.8160   17.7300   28.1280 H   0  0  0  0  0  0  0  0  0  0  0  0
   39.0370   18.1340   30.4240 C   0  0  0  0  0  2  0  0  0  0  0  0
   39.9370   18.6310   30.0600 H   0  0  0  0  0  0  0  0  0  0  0  0
   37.8010   23.6140   36.6570 S   0  0  0  0  0  0  0  0  0  0  0  0
   38.1240   23.6550   38.4110 C   0  0  0  0  0  0  0  0  0  0  0  0
   39.4280   23.3260   38.7390 F   0  0  0  0  0  0  0  0  0  0  0  0
   37.7440   24.8580   38.9720 F   0  0  0  0  0  0  0  0  0  0  0  0
   37.2760   22.6820   38.9900 F   0  0  0  0  0  0  0  0  0  0  0  0
  1  2  1  1  0  0  0
  1 30  1  0  0  0  0
  3  1  1  0  0  0  0
  4  3  1  0  0  0  0
  4  9  1  0  0  0  0
  5  4  2  0  0  0  0
  6  7  2  0  0  0  0
  6  5  1  0  0  0  0
  7  8  1  0  0  0  0
  8  3  2  0  0  0  0
 10  5  1  0  0  0  0
 11  6  1  0  0  0  0
 12  7  1  0  0  0  0
 14 13  2  0  0  0  0
 14  1  1  0  0  0  0
 15 21  1  0  0  0  0
 15 16  1  0  0  0  0
 16 22  1  0  0  0  0
 17 16  2  0  0  0  0
 17 13  1  0  0  0  0
 18 17  1  0  0  0  0
 19 20  1  0  0  0  0
 19 18  2  0  0  0  0
 20 15  2  0  0  0  0
 23 19  1  0  0  0  0
 24 23  1  0  0  0  0
 24 25  1  0  0  0  0
 24 28  1  0  0  0  0
 26 24  1  0  0  0  0
 27 26  1  0  0  0  0
 29 28  1  0  0  0  0
 30 31  1  0  0  0  0
 31 32  1  0  0  0  0
 31 33  1  0  0  0  0
 31 34  1  0  0  0  0
M  END
>  <minimizedAffinity>
-5.12078094

$$$$

 OpenBabel03272502363D

 34 35  0  0  1  0  0  0  0  0999 V2000
   34.9140   30.7650   34.4600 C   0  0  2  0  0  0  0  0  0  0  0  0
   34.7550   31.4710   33.6190 H   0  0  0  0  0  0  0  0  0  0  0  0
   33.6680   30.4220   35.1660 C   0  0  0  0  0  0  0  0  0  0  0  0
   33.4480   31.2110   36.3280 C   0  0  0  0  0  0  0  0  0  0  0  0
   32.3590   31.0790   37.1490 C   0  0  0  0  0  0  0  0  0  0  0  0
   31.3670   30.1220   36.8700 C   0  0  0  0  0  0  0  0  0  0  0  0
   31.6560   29.3950   35.7210 C   0  0  0  0  0  0  0  0  0  0  0  0
   32.7120   29.5070   34.9070 N   0  0  0  0  0  0  0  0  0  0  0  0
   34.0700   32.0200   36.7550 H   0  0  0  0  0  0  0  0  0  0  0  0
   32.1370   31.6440   38.0400 H   0  0  0  0  0  0  0  0  0  0  0  0
   30.4670   29.8830   37.3870 H   0  0  0  0  0  0  0  0  0  0  0  0
   30.9770   28.6110   35.3740 H   0  0  0  0  0  0  0  0  0  0  0  0
   36.3240   28.8620   34.7810 C   0  0  0  0  0  3  0  0  0  0  0  0
   35.5640   29.5070   33.9580 C   0  0  0  0  0  3  0  0  0  0  0  0
   38.6380   25.9400   34.9580 C   0  0  0  0  0  0  0  0  0  0  0  0
   37.9450   27.1030   35.2500 C   0  0  0  0  0  0  0  0  0  0  0  0
   36.9920   27.6300   34.4150 C   0  0  0  0  0  0  0  0  0  0  0  0
   36.7450   26.9570   33.2660 N   0  0  0  0  0  0  0  0  0  0  0  0
   37.4150   25.8370   32.9890 C   0  0  0  0  0  0  0  0  0  0  0  0
   38.3470   25.3210   33.8040 N   0  0  0  0  0  0  0  0  0  0  0  0
   39.3900   25.4930   35.5810 H   0  0  0  0  0  0  0  0  0  0  0  0
   38.2610   27.5100   36.2000 H   0  0  0  0  0  0  0  0  0  0  0  0
   37.1300   25.1130   31.7240 C   0  0  0  0  0  2  0  0  0  0  0  0
   35.8040   24.5590   31.6870 N   0  0  0  0  0  4  0  0  0  0  0  0
   35.4130   24.7050   32.6590 H   0  0  0  0  0  0  0  0  0  0  0  0
   34.8990   25.2310   30.7940 C   0  0  0  0  0  2  0  0  0  0  0  0
   34.1710   25.8890   31.3250 H   0  0  0  0  0  0  0  0  0  0  0  0
   35.8020   23.1200   31.5030 C   0  0  0  0  0  2  0  0  0  0  0  0
   36.2630   22.8380   30.5560 H   0  0  0  0  0  0  0  0  0  0  0  0
   36.0280   31.4820   35.7170 S   0  0  0  0  0  0  0  0  0  0  0  0
   36.4260   33.1770   35.3260 C   0  0  0  0  0  0  0  0  0  0  0  0
   35.5570   34.0910   35.8940 F   0  0  0  0  0  0  0  0  0  0  0  0
   37.7430   33.4720   35.6210 F   0  0  0  0  0  0  0  0  0  0  0  0
   36.3170   33.2930   33.9220 F   0  0  0  0  0  0  0  0  0  0  0  0
  1  2  1  6  0  0  0
  1  3  1  0  0  0  0
  1 30  1  0  0  0  0
  3  4  1  0  0  0  0
  4  9  1  0  0  0  0
  4  5  2  0  0  0  0
  5 10  1  0  0  0  0
  6  5  1  0  0  0  0
  6 11  1  0  0  0  0
  7  6  2  0  0  0  0
  8  3  2  0  0  0  0
  8  7  1  0  0  0  0
 12  7  1  0  0  0  0
 14  1  1  0  0  0  0
 14 13  2  0  0  0  0
 15 16  1  0  0  0  0
 15 21  1  0  0  0  0
 16 22  1  0  0  0  0
 17 13  1  0  0  0  0
 17 16  2  0  0  0  0
 18 17  1  0  0  0  0
 19 18  2  0  0  0  0
 19 20  1  0  0  0  0
 20 15  2  0  0  0  0
 23 19  1  0  0  0  0
 24 23  1  0  0  0  0
 24 25  1  0  0  0  0
 26 27  1  0  0  0  0
 26 24  1  0  0  0  0
 28 24  1  0  0  0  0
 29 28  1  0  0  0  0
 31 33  1  0  0  0  0
 31 30  1  0  0  0  0
 31 32  1  0  0  0  0
 34 31  1  0  0  0  0
M  END
>  <minimizedAffinity>
-5.10373592

$$$$

 OpenBabel03272502363D

 34 35  0  0  1  0  0  0  0  0999 V2000
   36.9080   28.1060   32.4570 C   0  0  2  0  0  0  0  0  0  0  0  0
   37.9910   28.2680   32.6380 H   0  0  0  0  0  0  0  0  0  0  0  0
   36.5760   26.6990   32.1760 C   0  0  0  0  0  0  0  0  0  0  0  0
   35.4920   26.5500   31.2680 C   0  0  0  0  0  0  0  0  0  0  0  0
   35.0010   25.3390   30.8530 C   0  0  0  0  0  0  0  0  0  0  0  0
   35.5680   24.1410   31.3220 C   0  0  0  0  0  0  0  0  0  0  0  0
   36.6180   24.3730   32.2020 C   0  0  0  0  0  0  0  0  0  0  0  0
   37.1130   25.5440   32.6210 N   0  0  0  0  0  0  0  0  0  0  0  0
   34.8880   27.3270   30.7640 H   0  0  0  0  0  0  0  0  0  0  0  0
   34.1860   25.1630   30.1700 H   0  0  0  0  0  0  0  0  0  0  0  0
   35.3210   23.1270   31.1100 H   0  0  0  0  0  0  0  0  0  0  0  0
   37.1600   23.5370   32.6530 H   0  0  0  0  0  0  0  0  0  0  0  0
   35.7870   29.8290   33.6780 C   0  0  0  0  0  3  0  0  0  0  0  0
   36.1120   28.5780   33.6410 C   0  0  0  0  0  3  0  0  0  0  0  0
   34.9070   31.9030   36.6510 C   0  0  0  0  0  0  0  0  0  0  0  0
   35.5810   31.3330   35.5850 C   0  0  0  0  0  0  0  0  0  0  0  0
   35.0100   30.3950   34.7610 C   0  0  0  0  0  0  0  0  0  0  0  0
   33.7320   30.0380   35.0320 N   0  0  0  0  0  0  0  0  0  0  0  0
   33.0860   30.5910   36.0600 C   0  0  0  0  0  0  0  0  0  0  0  0
   33.6420   31.5070   36.8670 N   0  0  0  0  0  0  0  0  0  0  0  0
   35.3130   32.6390   37.3200 H   0  0  0  0  0  0  0  0  0  0  0  0
   36.5840   31.7280   35.5090 H   0  0  0  0  0  0  0  0  0  0  0  0
   31.6850   30.1870   36.3410 C   0  0  0  0  0  2  0  0  0  0  0  0
   31.3350   28.9340   35.7300 N   0  0  0  0  0  4  0  0  0  0  0  0
   32.0940   28.7490   35.0170 H   0  0  0  0  0  0  0  0  0  0  0  0
   31.3520   27.8070   36.6230 C   0  0  0  0  0  2  0  0  0  0  0  0
   32.2490   27.1570   36.4890 H   0  0  0  0  0  0  0  0  0  0  0  0
   30.1120   29.0110   34.9540 C   0  0  0  0  0  2  0  0  0  0  0  0
   29.2590   29.2800   35.5780 H   0  0  0  0  0  0  0  0  0  0  0  0
   36.3350   29.0600   31.0090 S   0  0  0  0  0  0  0  0  0  0  0  0
   37.6620   29.3140   29.8440 C   0  0  0  0  0  0  0  0  0  0  0  0
   37.9180   30.6490   29.5840 F   0  0  0  0  0  0  0  0  0  0  0  0
   38.8050   28.6370   30.2180 F   0  0  0  0  0  0  0  0  0  0  0  0
   37.2430   28.7120   28.6350 F   0  0  0  0  0  0  0  0  0  0  0  0
  1  2  1  1  0  0  0
  1 14  1  0  0  0  0
  3  1  1  0  0  0  0
  3  8  1  0  0  0  0
  4  3  2  0  0  0  0
  5  4  1  0  0  0  0
  5  6  2  0  0  0  0
  6  7  1  0  0  0  0
  7  8  2  0  0  0  0
  7 12  1  0  0  0  0
  9  4  1  0  0  0  0
 10  5  1  0  0  0  0
 11  6  1  0  0  0  0
 13 17  1  0  0  0  0
 14 13  2  0  0  0  0
 15 20  1  0  0  0  0
 15 21  1  0  0  0  0
 16 15  2  0  0  0  0
 17 18  2  0  0  0  0
 17 16  1  0  0  0  0
 18 19  1  0  0  0  0
 19 23  1  0  0  0  0
 19 20  2  0  0  0  0
 22 16  1  0  0  0  0
 24 23  1  0  0  0  0
 24 26  1  0  0  0  0
 25 24  1  0  0  0  0
 27 26  1  0  0  0  0
 28 29  1  0  0  0  0
 28 24  1  0  0  0  0
 30  1  1  0  0  0  0
 31 33  1  0  0  0  0
 31 30  1  0  0  0  0
 32 31  1  0  0  0  0
 34 31  1  0  0  0  0
M  END
>  <minimizedAffinity>
-5.07251501

$$$$

 OpenBabel03272502363D

 34 35  0  0  1  0  0  0  0  0999 V2000
   34.8660   30.6800   34.4120 C   0  0  2  0  0  0  0  0  0  0  0  0
   34.7220   31.4010   33.5800 H   0  0  0  0  0  0  0  0  0  0  0  0
   33.6090   30.3320   35.0960 C   0  0  0  0  0  0  0  0  0  0  0  0
   33.3780   31.1030   36.2680 C   0  0  0  0  0  0  0  0  0  0  0  0
   32.2760   30.9630   37.0720 C   0  0  0  0  0  0  0  0  0  0  0  0
   31.2830   30.0170   36.7630 C   0  0  0  0  0  0  0  0  0  0  0  0
   31.5830   29.3080   35.6050 C   0  0  0  0  0  0  0  0  0  0  0  0
   32.6520   29.4270   34.8080 N   0  0  0  0  0  0  0  0  0  0  0  0
   33.9980   31.9010   36.7170 H   0  0  0  0  0  0  0  0  0  0  0  0
   32.0460   31.5150   37.9690 H   0  0  0  0  0  0  0  0  0  0  0  0
   30.3740   29.7750   37.2640 H   0  0  0  0  0  0  0  0  0  0  0  0
   30.9050   28.5340   35.2360 H   0  0  0  0  0  0  0  0  0  0  0  0
   36.2220   28.7380   34.7360 C   0  0  0  0  0  3  0  0  0  0  0  0
   35.5170   29.4260   33.9000 C   0  0  0  0  0  3  0  0  0  0  0  0
   37.4860   25.9410   32.6150 C   0  0  0  0  0  0  0  0  0  0  0  0
   36.8910   27.1140   33.0450 C   0  0  0  0  0  0  0  0  0  0  0  0
   36.8830   27.5060   34.3610 C   0  0  0  0  0  0  0  0  0  0  0  0
   37.4940   26.6840   35.2480 N   0  0  0  0  0  0  0  0  0  0  0  0
   38.0670   25.5530   34.8290 C   0  0  0  0  0  0  0  0  0  0  0  0
   38.0750   25.1700   33.5430 N   0  0  0  0  0  0  0  0  0  0  0  0
   37.5160   25.5970   31.5980 H   0  0  0  0  0  0  0  0  0  0  0  0
   36.4540   27.6500   32.2150 H   0  0  0  0  0  0  0  0  0  0  0  0
   38.7320   24.6660   35.8150 C   0  0  0  0  0  2  0  0  0  0  0  0
   37.8250   23.7290   36.4210 N   0  0  0  0  0  4  0  0  0  0  0  0
   36.8580   24.0600   36.1480 H   0  0  0  0  0  0  0  0  0  0  0  0
   37.9340   22.3840   35.9250 C   0  0  0  0  0  2  0  0  0  0  0  0
   37.1090   22.1090   35.2250 H   0  0  0  0  0  0  0  0  0  0  0  0
   37.8400   23.7910   37.8700 C   0  0  0  0  0  2  0  0  0  0  0  0
   38.8230   23.5450   38.2700 H   0  0  0  0  0  0  0  0  0  0  0  0
   35.9660   31.3710   35.6960 S   0  0  0  0  0  0  0  0  0  0  0  0
   36.3120   33.0930   35.3830 C   0  0  0  0  0  0  0  0  0  0  0  0
   37.6480   33.4220   35.5330 F   0  0  0  0  0  0  0  0  0  0  0  0
   35.8200   33.4980   34.1580 F   0  0  0  0  0  0  0  0  0  0  0  0
   35.5780   33.8230   36.3460 F   0  0  0  0  0  0  0  0  0  0  0  0
  1  2  1  6  0  0  0
  1  3  1  0  0  0  0
  1 30  1  0  0  0  0
  3  4  1  0  0  0  0
  4  9  1  0  0  0  0
  4  5  2  0  0  0  0
  5 10  1  0  0  0  0
  6  5  1  0  0  0  0
  6 11  1  0  0  0  0
  7  6  2  0  0  0  0
  8  3  2  0  0  0  0
  8  7  1  0  0  0  0
 12  7  1  0  0  0  0
 14  1  1  0  0  0  0
 14 13  2  0  0  0  0
 15 16  2  0  0  0  0
 15 20  1  0  0  0  0
 16 17  1  0  0  0  0
 17 13  1  0  0  0  0
 17 18  2  0  0  0  0
 19 18  1  0  0  0  0
 19 23  1  0  0  0  0
 20 19  2  0  0  0  0
 21 15  1  0  0  0  0
 22 16  1  0  0  0  0
 23 24  1  0  0  0  0
 24 28  1  0  0  0  0
 25 24  1  0  0  0  0
 26 24  1  0  0  0  0
 27 26  1  0  0  0  0
 28 29  1  0  0  0  0
 31 32  1  0  0  0  0
 31 30  1  0  0  0  0
 31 34  1  0  0  0  0
 33 31  1  0  0  0  0
M  END
>  <minimizedAffinity>
-5.05065727

$$$$

 OpenBabel03272502363D

 34 35  0  0  1  0  0  0  0  0999 V2000
   38.6380   23.8410   34.1700 C   0  0  2  0  0  0  0  0  0  0  0  0
   39.5880   23.9440   33.6070 H   0  0  0  0  0  0  0  0  0  0  0  0
   38.8450   23.6110   35.6100 C   0  0  0  0  0  0  0  0  0  0  0  0
   37.8890   24.2770   36.4260 C   0  0  0  0  0  0  0  0  0  0  0  0
   37.8740   24.2130   37.7950 C   0  0  0  0  0  0  0  0  0  0  0  0
   38.8390   23.4570   38.4850 C   0  0  0  0  0  0  0  0  0  0  0  0
   39.7320   22.8390   37.6170 C   0  0  0  0  0  0  0  0  0  0  0  0
   39.7650   22.8890   36.2800 N   0  0  0  0  0  0  0  0  0  0  0  0
   37.0420   24.9220   36.1290 H   0  0  0  0  0  0  0  0  0  0  0  0
   37.1800   24.6940   38.4660 H   0  0  0  0  0  0  0  0  0  0  0  0
   38.9780   23.2950   39.5280 H   0  0  0  0  0  0  0  0  0  0  0  0
   40.5420   22.2160   38.0050 H   0  0  0  0  0  0  0  0  0  0  0  0
   38.2250   25.9670   33.1570 C   0  0  0  0  0  3  0  0  0  0  0  0
   37.7910   25.0680   33.9790 C   0  0  0  0  0  3  0  0  0  0  0  0
   37.0030   28.9930   31.3490 C   0  0  0  0  0  0  0  0  0  0  0  0
   37.6570   27.8180   31.6760 C   0  0  0  0  0  0  0  0  0  0  0  0
   37.4890   27.1830   32.8810 C   0  0  0  0  0  0  0  0  0  0  0  0
   36.6390   27.7610   33.7640 N   0  0  0  0  0  0  0  0  0  0  0  0
   36.0100   28.8940   33.4450 C   0  0  0  0  0  0  0  0  0  0  0  0
   36.1740   29.5150   32.2670 N   0  0  0  0  0  0  0  0  0  0  0  0
   37.1040   29.5220   30.4200 H   0  0  0  0  0  0  0  0  0  0  0  0
   38.2920   27.4930   30.8640 H   0  0  0  0  0  0  0  0  0  0  0  0
   35.0820   29.5110   34.4250 C   0  0  0  0  0  2  0  0  0  0  0  0
   35.2800   30.9280   34.5630 N   0  0  0  0  0  4  0  0  0  0  0  0
   35.9350   31.1960   33.7770 H   0  0  0  0  0  0  0  0  0  0  0  0
   34.0940   31.7200   34.3720 C   0  0  0  0  0  2  0  0  0  0  0  0
   34.0650   32.2300   33.3800 H   0  0  0  0  0  0  0  0  0  0  0  0
   35.9960   31.2800   35.7740 C   0  0  0  0  0  2  0  0  0  0  0  0
   35.4460   30.9740   36.6650 H   0  0  0  0  0  0  0  0  0  0  0  0
   37.6670   22.4180   33.5640 S   0  0  0  0  0  0  0  0  0  0  0  0
   37.0040   22.7420   31.9390 C   0  0  0  0  0  0  0  0  0  0  0  0
   35.8120   23.4450   31.9610 F   0  0  0  0  0  0  0  0  0  0  0  0
   37.9370   23.3430   31.1180 F   0  0  0  0  0  0  0  0  0  0  0  0
   36.7480   21.4780   31.3600 F   0  0  0  0  0  0  0  0  0  0  0  0
  1  2  1  6  0  0  0
  1  3  1  0  0  0  0
  3  8  2  0  0  0  0
  3  4  1  0  0  0  0
  4  5  2  0  0  0  0
  5 10  1  0  0  0  0
  5  6  1  0  0  0  0
  6 11  1  0  0  0  0
  7 12  1  0  0  0  0
  7  6  2  0  0  0  0
  8  7  1  0  0  0  0
  9  4  1  0  0  0  0
 13 14  2  0  0  0  0
 14  1  1  0  0  0  0
 15 16  2  0  0  0  0
 15 20  1  0  0  0  0
 16 17  1  0  0  0  0
 17 13  1  0  0  0  0
 17 18  2  0  0  0  0
 19 18  1  0  0  0  0
 19 23  1  0  0  0  0
 20 19  2  0  0  0  0
 21 15  1  0  0  0  0
 22 16  1  0  0  0  0
 23 24  1  0  0  0  0
 24 28  1  0  0  0  0
 25 24  1  0  0  0  0
 26 24  1  0  0  0  0
 27 26  1  0  0  0  0
 28 29  1  0  0  0  0
 30  1  1  0  0  0  0
 31 32  1  0  0  0  0
 31 30  1  0  0  0  0
 33 31  1  0  0  0  0
 34 31  1  0  0  0  0
M  END
>  <minimizedAffinity>
-4.91524458

$$$$

 OpenBabel03272502363D

 34 35  0  0  1  0  0  0  0  0999 V2000
   37.5500   26.9220   32.4500 C   0  0  2  0  0  0  0  0  0  0  0  0
   37.3660   27.2600   31.4090 H   0  0  0  0  0  0  0  0  0  0  0  0
   38.9680   27.0060   32.8390 C   0  0  0  0  0  0  0  0  0  0  0  0
   39.1860   26.7320   34.2170 C   0  0  0  0  0  0  0  0  0  0  0  0
   40.4200   26.7470   34.8150 C   0  0  0  0  0  0  0  0  0  0  0  0
   41.5720   27.0460   34.0660 C   0  0  0  0  0  0  0  0  0  0  0  0
   41.2730   27.3010   32.7320 C   0  0  0  0  0  0  0  0  0  0  0  0
   40.0780   27.2920   32.1290 N   0  0  0  0  0  0  0  0  0  0  0  0
   38.4550   26.4720   35.0050 H   0  0  0  0  0  0  0  0  0  0  0  0
   40.6490   26.5490   35.8500 H   0  0  0  0  0  0  0  0  0  0  0  0
   42.5950   27.1020   34.3580 H   0  0  0  0  0  0  0  0  0  0  0  0
   42.0660   27.5490   32.0230 H   0  0  0  0  0  0  0  0  0  0  0  0
   35.9580   28.6460   32.9060 C   0  0  0  0  0  3  0  0  0  0  0  0
   36.7210   27.7310   33.4070 C   0  0  0  0  0  3  0  0  0  0  0  0
   32.8750   30.2760   34.2330 C   0  0  0  0  0  0  0  0  0  0  0  0
   33.7500   29.4920   33.5010 C   0  0  0  0  0  0  0  0  0  0  0  0
   35.1040   29.4780   33.7290 C   0  0  0  0  0  0  0  0  0  0  0  0
   35.5670   30.2770   34.7200 N   0  0  0  0  0  0  0  0  0  0  0  0
   34.7190   31.0310   35.4230 C   0  0  0  0  0  0  0  0  0  0  0  0
   33.3960   31.0450   35.2010 N   0  0  0  0  0  0  0  0  0  0  0  0
   31.8120   30.3180   34.0890 H   0  0  0  0  0  0  0  0  0  0  0  0
   33.2200   28.9180   32.7550 H   0  0  0  0  0  0  0  0  0  0  0  0
   35.2450   31.8990   36.5060 C   0  0  0  0  0  2  0  0  0  0  0  0
   34.8270   33.2680   36.3740 N   0  0  0  0  0  4  0  0  0  0  0  0
   34.0430   33.2530   35.6640 H   0  0  0  0  0  0  0  0  0  0  0  0
   34.2640   33.8400   37.5680 C   0  0  0  0  0  2  0  0  0  0  0  0
   33.1520   33.9200   37.5310 H   0  0  0  0  0  0  0  0  0  0  0  0
   35.8450   34.1120   35.7790 C   0  0  0  0  0  2  0  0  0  0  0  0
   36.7470   34.1410   36.3900 H   0  0  0  0  0  0  0  0  0  0  0  0
   37.0680   25.1730   32.6660 S   0  0  0  0  0  0  0  0  0  0  0  0
   35.9170   24.6650   31.4010 C   0  0  0  0  0  0  0  0  0  0  0  0
   35.1100   23.6090   31.7840 F   0  0  0  0  0  0  0  0  0  0  0  0
   35.1750   25.7300   30.9290 F   0  0  0  0  0  0  0  0  0  0  0  0
   36.7010   24.2350   30.3070 F   0  0  0  0  0  0  0  0  0  0  0  0
  1  2  1  6  0  0  0
  1 30  1  0  0  0  0
  1  3  1  0  0  0  0
  1 14  1  0  0  0  0
  3  4  1  0  0  0  0
  4  5  2  0  0  0  0
  4  9  1  0  0  0  0
  5 10  1  0  0  0  0
  6 11  1  0  0  0  0
  6  5  1  0  0  0  0
  7  6  2  0  0  0  0
  8  7  1  0  0  0  0
  8  3  2  0  0  0  0
 12  7  1  0  0  0  0
 13 14  2  0  0  0  0
 13 17  1  0  0  0  0
 15 20  1  0  0  0  0
 16 17  1  0  0  0  0
 16 15  2  0  0  0  0
 17 18  2  0  0  0  0
 18 19  1  0  0  0  0
 19 23  1  0  0  0  0
 20 19  2  0  0  0  0
 21 15  1  0  0  0  0
 22 16  1  0  0  0  0
 24 23  1  0  0  0  0
 24 26  1  0  0  0  0
 25 24  1  0  0  0  0
 27 26  1  0  0  0  0
 28 24  1  0  0  0  0
 28 29  1  0  0  0  0
 31 32  1  0  0  0  0
 31 30  1  0  0  0  0
 33 31  1  0  0  0  0
 34 31  1  0  0  0  0
M  END
>  <minimizedAffinity>
-4.89539814

$$$$

 OpenBabel03272502363D

 34 35  0  0  1  0  0  0  0  0999 V2000
   34.8120   29.9290   34.0620 C   0  0  2  0  0  0  0  0  0  0  0  0
   34.4070   29.7010   35.0700 H   0  0  0  0  0  0  0  0  0  0  0  0
   35.5240   31.2170   34.0070 C   0  0  0  0  0  0  0  0  0  0  0  0
   35.8680   31.7220   35.2910 C   0  0  0  0  0  0  0  0  0  0  0  0
   36.5350   32.9020   35.4970 C   0  0  0  0  0  0  0  0  0  0  0  0
   36.9250   33.7000   34.4070 C   0  0  0  0  0  0  0  0  0  0  0  0
   36.5530   33.1370   33.1910 C   0  0  0  0  0  0  0  0  0  0  0  0
   35.9020   31.9890   32.9680 N   0  0  0  0  0  0  0  0  0  0  0  0
   35.6770   31.2870   36.2900 H   0  0  0  0  0  0  0  0  0  0  0  0
   36.8220   33.3350   36.4410 H   0  0  0  0  0  0  0  0  0  0  0  0
   37.4430   34.6300   34.3780 H   0  0  0  0  0  0  0  0  0  0  0  0
   36.7870   33.6430   32.2500 H   0  0  0  0  0  0  0  0  0  0  0  0
   36.3280   28.1430   34.5410 C   0  0  0  0  0  3  0  0  0  0  0  0
   35.7370   28.8300   33.6190 C   0  0  0  0  0  3  0  0  0  0  0  0
   38.4710   25.8120   32.5680 C   0  0  0  0  0  0  0  0  0  0  0  0
   37.6280   26.8460   32.9380 C   0  0  0  0  0  0  0  0  0  0  0  0
   37.2290   27.0520   34.2350 C   0  0  0  0  0  0  0  0  0  0  0  0
   37.7010   26.1870   35.1660 N   0  0  0  0  0  0  0  0  0  0  0  0
   38.5140   25.1920   34.8040 C   0  0  0  0  0  0  0  0  0  0  0  0
   38.9040   24.9900   33.5370 N   0  0  0  0  0  0  0  0  0  0  0  0
   38.8080   25.6150   31.5680 H   0  0  0  0  0  0  0  0  0  0  0  0
   37.3480   27.4390   32.0800 H   0  0  0  0  0  0  0  0  0  0  0  0
   39.0210   24.2560   35.8380 C   0  0  0  0  0  2  0  0  0  0  0  0
   37.9700   23.5160   36.4820 N   0  0  0  0  0  4  0  0  0  0  0  0
   37.1000   24.1050   36.3610 H   0  0  0  0  0  0  0  0  0  0  0  0
   37.6730   22.2460   35.8760 C   0  0  0  0  0  2  0  0  0  0  0  0
   36.7370   22.2610   35.2680 H   0  0  0  0  0  0  0  0  0  0  0  0
   38.1510   23.4190   37.9180 C   0  0  0  0  0  2  0  0  0  0  0  0
   39.0730   22.8950   38.1700 H   0  0  0  0  0  0  0  0  0  0  0  0
   33.4730   30.0360   32.8250 S   0  0  0  0  0  0  0  0  0  0  0  0
   32.0200   29.1590   33.3780 C   0  0  0  0  0  0  0  0  0  0  0  0
   32.0720   28.7950   34.7110 F   0  0  0  0  0  0  0  0  0  0  0  0
   30.8630   29.8520   33.0810 F   0  0  0  0  0  0  0  0  0  0  0  0
   31.9600   27.9740   32.6080 F   0  0  0  0  0  0  0  0  0  0  0  0
  1  2  1  1  0  0  0
  3  1  1  0  0  0  0
  3  4  1  0  0  0  0
  4  5  2  0  0  0  0
  4  9  1  0  0  0  0
  5 10  1  0  0  0  0
  6  5  1  0  0  0  0
  7  6  2  0  0  0  0
  8  7  1  0  0  0  0
  8  3  2  0  0  0  0
 11  6  1  0  0  0  0
 12  7  1  0  0  0  0
 14  1  1  0  0  0  0
 14 13  2  0  0  0  0
 15 16  2  0  0  0  0
 15 20  1  0  0  0  0
 16 17  1  0  0  0  0
 17 13  1  0  0  0  0
 17 18  2  0  0  0  0
 19 18  1  0  0  0  0
 19 23  1  0  0  0  0
 20 19  2  0  0  0  0
 21 15  1  0  0  0  0
 22 16  1  0  0  0  0
 23 24  1  0  0  0  0
 24 28  1  0  0  0  0
 25 24  1  0  0  0  0
 26 24  1  0  0  0  0
 27 26  1  0  0  0  0
 28 29  1  0  0  0  0
 30 31  1  0  0  0  0
 30  1  1  0  0  0  0
 31 32  1  0  0  0  0
 33 31  1  0  0  0  0
 34 31  1  0  0  0  0
M  END
>  <minimizedAffinity>
-4.89289713

$$$$

 OpenBabel03272502363D

 34 35  0  0  1  0  0  0  0  0999 V2000
   37.6880   26.8640   33.7500 C   0  0  2  0  0  0  0  0  0  0  0  0
   38.6270   27.4260   33.5630 H   0  0  0  0  0  0  0  0  0  0  0  0
   37.9080   25.5990   34.4710 C   0  0  0  0  0  0  0  0  0  0  0  0
   37.9610   25.7620   35.8820 C   0  0  0  0  0  0  0  0  0  0  0  0
   38.1550   24.7310   36.7650 C   0  0  0  0  0  0  0  0  0  0  0  0
   38.3160   23.4140   36.3000 C   0  0  0  0  0  0  0  0  0  0  0  0
   38.2510   23.3410   34.9130 C   0  0  0  0  0  0  0  0  0  0  0  0
   38.0630   24.3330   34.0340 N   0  0  0  0  0  0  0  0  0  0  0  0
   37.8620   26.6830   36.4860 H   0  0  0  0  0  0  0  0  0  0  0  0
   38.2050   24.7910   37.8400 H   0  0  0  0  0  0  0  0  0  0  0  0
   38.4720   22.5040   36.8320 H   0  0  0  0  0  0  0  0  0  0  0  0
   38.3590   22.3810   34.4020 H   0  0  0  0  0  0  0  0  0  0  0  0
   36.1700   28.7050   33.9010 C   0  0  0  0  0  3  0  0  0  0  0  0
   36.7240   27.7180   34.5250 C   0  0  0  0  0  3  0  0  0  0  0  0
   34.7900   31.6690   35.6980 C   0  0  0  0  0  0  0  0  0  0  0  0
   35.6410   30.7850   35.0570 C   0  0  0  0  0  0  0  0  0  0  0  0
   35.2150   29.5870   34.5400 C   0  0  0  0  0  0  0  0  0  0  0  0
   33.9010   29.2900   34.6810 N   0  0  0  0  0  0  0  0  0  0  0  0
   33.0850   30.1460   35.3000 C   0  0  0  0  0  0  0  0  0  0  0  0
   33.4990   31.3180   35.8050 N   0  0  0  0  0  0  0  0  0  0  0  0
   35.0790   32.6150   36.1160 H   0  0  0  0  0  0  0  0  0  0  0  0
   36.6490   31.1730   35.0290 H   0  0  0  0  0  0  0  0  0  0  0  0
   31.6470   29.8040   35.4440 C   0  0  0  0  0  2  0  0  0  0  0  0
   31.4400   28.4940   35.9960 N   0  0  0  0  0  4  0  0  0  0  0  0
   32.3300   27.9600   35.7910 H   0  0  0  0  0  0  0  0  0  0  0  0
   31.2850   28.4640   37.4260 C   0  0  0  0  0  2  0  0  0  0  0  0
   32.1970   28.1000   37.9560 H   0  0  0  0  0  0  0  0  0  0  0  0
   30.4000   27.7530   35.3080 C   0  0  0  0  0  2  0  0  0  0  0  0
   29.4360   28.2560   35.3820 H   0  0  0  0  0  0  0  0  0  0  0  0
   36.8680   26.4170   32.1800 S   0  0  0  0  0  0  0  0  0  0  0  0
   37.5560   27.3350   30.8140 C   0  0  0  0  0  0  0  0  0  0  0  0
   38.2540   28.4640   31.2060 F   0  0  0  0  0  0  0  0  0  0  0  0
   38.3110   26.5280   29.9860 F   0  0  0  0  0  0  0  0  0  0  0  0
   36.4570   27.7570   30.0310 F   0  0  0  0  0  0  0  0  0  0  0  0
  1  2  1  6  0  0  0
  1  3  1  0  0  0  0
  1 14  1  0  0  0  0
  3  4  1  0  0  0  0
  4  9  1  0  0  0  0
  4  5  2  0  0  0  0
  5 10  1  0  0  0  0
  6  5  1  0  0  0  0
  6 11  1  0  0  0  0
  7  6  2  0  0  0  0
  8  3  2  0  0  0  0
  8  7  1  0  0  0  0
 12  7  1  0  0  0  0
 13 14  2  0  0  0  0
 13 17  1  0  0  0  0
 15 20  1  0  0  0  0
 15 21  1  0  0  0  0
 16 15  2  0  0  0  0
 17 18  2  0  0  0  0
 17 16  1  0  0  0  0
 18 19  1  0  0  0  0
 19 23  1  0  0  0  0
 19 20  2  0  0  0  0
 22 16  1  0  0  0  0
 23 24  1  0  0  0  0
 24 26  1  0  0  0  0
 25 24  1  0  0  0  0
 26 27  1  0  0  0  0
 28 29  1  0  0  0  0
 28 24  1  0  0  0  0
 30  1  1  0  0  0  0
 31 32  1  0  0  0  0
 31 30  1  0  0  0  0
 33 31  1  0  0  0  0
 34 31  1  0  0  0  0
M  END
>  <minimizedAffinity>
-4.88367796

$$$$
