
 OpenBabel03272503203D

 33 35  0  0  0  0  0  0  0  0999 V2000
   37.6480   31.2090   48.1690 C   0  0  0  0  0  0  0  0  0  0  0  0
   38.5540   32.1820   48.0650 C   0  0  0  0  0  0  0  0  0  0  0  0
   38.9610   32.6070   46.8650 C   0  0  0  0  0  0  0  0  0  0  0  0
   38.4100   32.0020   45.7520 C   0  0  0  0  0  0  0  0  0  0  0  0
   37.2650   30.7790   46.5100 S   0  0  0  0  0  0  0  0  0  0  0  0
   38.9500   32.6180   48.9930 H   0  0  0  0  0  0  0  0  0  0  0  0
   39.6820   33.3800   46.6350 H   0  0  0  0  0  0  0  0  0  0  0  0
   41.1620   31.2020   44.6980 Cl  0  0  0  0  0  0  0  0  0  0  0  0
   39.7970   31.8260   43.7840 C   0  0  0  0  0  0  0  0  0  0  0  0
   38.5790   32.1660   44.3350 C   0  0  0  0  0  0  0  0  0  0  0  0
   37.5130   32.6460   43.6750 C   0  0  0  0  0  0  0  0  0  0  0  0
   37.6180   32.8270   42.2920 C   0  0  0  0  0  0  0  0  0  0  0  0
   38.8000   32.5110   41.6680 C   0  0  0  0  0  0  0  0  0  0  0  0
   39.0080   32.7110   39.9390 Cl  0  0  0  0  0  0  0  0  0  0  0  0
   39.8830   32.0150   42.4000 C   0  0  0  0  0  0  0  0  0  0  0  0
   36.5660   32.9040   44.1410 H   0  0  0  0  0  0  0  0  0  0  0  0
   36.8270   33.2020   41.6790 H   0  0  0  0  0  0  0  0  0  0  0  0
   40.8160   31.7670   41.9020 H   0  0  0  0  0  0  0  0  0  0  0  0
   37.0360   29.8090   51.6050 C   0  0  0  0  0  0  0  0  0  0  0  0
   37.7220   30.4400   50.5460 C   0  0  0  0  0  0  0  0  0  0  0  0
   37.0370   30.5690   49.3400 C   0  0  0  0  0  0  0  0  0  0  0  0
   35.7760   30.0970   49.2350 N   0  0  0  0  0  0  0  0  0  0  0  0
   35.1590   29.5000   50.2730 C   0  0  0  0  0  0  0  0  0  0  0  0
   35.7870   29.3600   51.4430 N   0  0  0  0  0  0  0  0  0  0  0  0
   37.5600   29.7020   52.5520 H   0  0  0  0  0  0  0  0  0  0  0  0
   38.7340   30.8170   50.6380 H   0  0  0  0  0  0  0  0  0  0  0  0
   33.7610   29.0160   50.0370 C   0  0  0  0  0  0  0  0  0  0  0  0
   33.6160   28.2830   48.8200 N   0  0  0  0  0  0  0  0  0  0  0  0
   34.2940   27.5020   48.7380 H   0  0  0  0  0  0  0  0  0  0  0  0
   33.6630   29.1410   47.6320 C   0  0  0  0  0  0  0  0  0  0  0  0
   34.5770   29.7290   47.5630 H   0  0  0  0  0  0  0  0  0  0  0  0
   32.2910   27.6860   48.8060 C   0  0  0  0  0  0  0  0  0  0  0  0
   32.2980   26.6710   49.2630 H   0  0  0  0  0  0  0  0  0  0  0  0
  1 21  1  0  0  0  0
  2  1  2  0  0  0  0
  2  6  1  0  0  0  0
  3  2  1  0  0  0  0
  4  5  1  0  0  0  0
  4  3  2  0  0  0  0
  5  1  1  0  0  0  0
  7  3  1  0  0  0  0
  9 10  1  0  0  0  0
  9  8  1  0  0  0  0
 10  4  1  0  0  0  0
 11 16  1  0  0  0  0
 11 10  2  0  0  0  0
 12 11  1  0  0  0  0
 13 12  2  0  0  0  0
 13 15  1  0  0  0  0
 14 13  1  0  0  0  0
 15  9  2  0  0  0  0
 17 12  1  0  0  0  0
 18 15  1  0  0  0  0
 19 25  1  0  0  0  0
 20 26  1  0  0  0  0
 20 19  2  0  0  0  0
 21 20  1  0  0  0  0
 22 21  2  0  0  0  0
 22 23  1  0  0  0  0
 23 24  2  0  0  0  0
 24 19  1  0  0  0  0
 27 23  1  0  0  0  0
 28 27  1  0  0  0  0
 29 28  1  0  0  0  0
 30 28  1  0  0  0  0
 31 30  1  0  0  0  0
 32 28  1  0  0  0  0
 32 33  1  0  0  0  0
M  END
>  <minimizedAffinity>
-5.78908873

>  <minimizedRMSD>
0.612152934

$$$$
