
 OpenBabel03272508053D

 33 35  0  0  0  0  0  0  0  0999 V2000
   38.9180   30.9060   45.7920 C   0  0  0  0  0  0  0  0  0  0  0  0
   40.1050   31.5420   46.0510 C   0  0  0  0  0  0  0  0  0  0  0  0
   40.9310   31.4740   44.9450 C   0  0  0  0  0  0  0  0  0  0  0  0
   40.1890   30.7800   44.0330 N   0  0  0  0  0  0  0  0  0  0  0  0
   39.0170   30.4460   44.5190 N   0  0  0  0  0  0  0  0  0  0  0  0
   40.3820   32.0380   46.9890 H   0  0  0  0  0  0  0  0  0  0  0  0
   41.9280   31.8540   44.7730 H   0  0  0  0  0  0  0  0  0  0  0  0
   37.7730   30.7450   46.6830 C   0  0  0  0  0  0  0  0  0  0  0  0
   37.9880   30.9620   48.0700 C   0  0  0  0  0  0  0  0  0  0  0  0
   36.9000   30.8110   48.9260 C   0  0  0  0  0  0  0  0  0  0  0  0
   35.6970   30.4630   48.3800 N   0  0  0  0  0  0  0  0  0  0  0  0
   35.5230   30.2640   47.0550 C   0  0  0  0  0  0  0  0  0  0  0  0
   36.5680   30.4070   46.2180 N   0  0  0  0  0  0  0  0  0  0  0  0
   38.9810   31.2380   48.4380 H   0  0  0  0  0  0  0  0  0  0  0  0
   34.5740   29.9930   46.6440 H   0  0  0  0  0  0  0  0  0  0  0  0
   37.1040   31.0330   50.3880 C   0  0  0  0  0  0  0  0  0  0  0  0
   36.5800   32.2760   50.6440 F   0  0  0  0  0  0  0  0  0  0  0  0
   36.4190   30.1070   51.1590 F   0  0  0  0  0  0  0  0  0  0  0  0
   38.4480   31.0320   50.7290 F   0  0  0  0  0  0  0  0  0  0  0  0
   40.5620   30.4100   42.6720 C   0  0  0  0  0  0  0  0  0  0  0  0
   40.1770   31.1920   41.5750 C   0  0  0  0  0  0  0  0  0  0  0  0
   40.5450   30.8340   40.3220 C   0  0  0  0  0  0  0  0  0  0  0  0
   41.3220   29.6570   40.1490 C   0  0  0  0  0  0  0  0  0  0  0  0
   41.5120   29.0640   41.9050 S   0  0  0  0  0  0  0  0  0  0  0  0
   39.5800   32.1030   41.6560 H   0  0  0  0  0  0  0  0  0  0  0  0
   40.3660   31.2770   39.3610 H   0  0  0  0  0  0  0  0  0  0  0  0
   41.9370   28.8930   39.0580 C   0  0  0  0  0  2  0  0  0  0  0  0
   42.5110   29.7040   38.0250 N   0  0  0  0  0  4  0  0  0  0  0  0
   41.8130   30.4150   37.7370 H   0  0  0  0  0  0  0  0  0  0  0  0
   43.7270   30.3060   38.5370 C   0  0  0  0  0  2  0  0  0  0  0  0
   43.8340   31.3300   38.1540 H   0  0  0  0  0  0  0  0  0  0  0  0
   42.8300   28.8990   36.8580 C   0  0  0  0  0  2  0  0  0  0  0  0
   42.8290   29.5520   35.9800 H   0  0  0  0  0  0  0  0  0  0  0  0
  1  2  1  0  0  0  0
  1  8  1  0  0  0  0
  2  6  1  0  0  0  0
  3  2  2  0  0  0  0
  4  5  1  0  0  0  0
  4  3  1  0  0  0  0
  5  1  2  0  0  0  0
  7  3  1  0  0  0  0
  8  9  1  0  0  0  0
  9 14  1  0  0  0  0
  9 10  2  0  0  0  0
 10 16  1  0  0  0  0
 11 10  1  0  0  0  0
 12 11  2  0  0  0  0
 13  8  2  0  0  0  0
 13 12  1  0  0  0  0
 15 12  1  0  0  0  0
 16 17  1  0  0  0  0
 16 19  1  0  0  0  0
 16 18  1  0  0  0  0
 20  4  1  0  0  0  0
 21 25  1  0  0  0  0
 21 20  2  0  0  0  0
 22 21  1  0  0  0  0
 23 22  2  0  0  0  0
 23 24  1  0  0  0  0
 24 20  1  0  0  0  0
 26 22  1  0  0  0  0
 27 23  1  0  0  0  0
 28 30  1  0  0  0  0
 28 27  1  0  0  0  0
 29 28  1  0  0  0  0
 31 30  1  0  0  0  0
 32 28  1  0  0  0  0
 33 32  1  0  0  0  0
M  END
>  <minimizedAffinity>
-5.88622475

>  <minimizedRMSD>
0.842275083

$$$$
