
 OpenBabel03272502083D

 37 39  0  0  0  0  0  0  0  0999 V2000
   35.3940   28.2610   34.5430 F   0  0  0  0  0  0  0  0  0  0  0  0
   35.7530   29.0820   33.5050 C   0  0  0  0  0  0  0  0  0  0  0  0
   36.4000   28.6000   32.3840 C   0  0  0  0  0  0  0  0  0  0  0  0
   36.7150   29.4800   31.3720 C   0  0  0  0  0  0  0  0  0  0  0  0
   36.3870   30.8350   31.4790 C   0  0  0  0  0  0  0  0  0  0  0  0
   35.7410   31.2520   32.6260 C   0  0  0  0  0  0  0  0  0  0  0  0
   35.4150   30.4270   33.6380 C   0  0  0  0  0  0  0  0  0  0  0  0
   37.2220   29.0760   30.5070 H   0  0  0  0  0  0  0  0  0  0  0  0
   36.6590   31.4620   30.6610 H   0  0  0  0  0  0  0  0  0  0  0  0
   35.5320   32.3110   32.6120 H   0  0  0  0  0  0  0  0  0  0  0  0
   32.3430   29.8850   33.9140 Br  0  0  0  0  0  0  0  0  0  0  0  0
   33.4340   30.7900   35.1880 C   0  0  0  0  0  0  0  0  0  0  0  0
   34.7480   30.9270   34.8260 C   0  0  0  0  0  0  0  0  0  0  0  0
   35.6030   31.6170   35.7020 C   0  0  0  0  0  0  0  0  0  0  0  0
   35.1370   32.1280   36.8690 C   0  0  0  0  0  0  0  0  0  0  0  0
   33.7940   31.9550   37.1790 C   0  0  0  0  0  0  0  0  0  0  0  0
   32.9200   31.2750   36.3310 C   0  0  0  0  0  0  0  0  0  0  0  0
   36.6490   31.7710   35.4980 H   0  0  0  0  0  0  0  0  0  0  0  0
   35.7770   32.6630   37.5580 H   0  0  0  0  0  0  0  0  0  0  0  0
   33.3890   32.3490   38.1030 H   0  0  0  0  0  0  0  0  0  0  0  0
   31.5970   31.0620   36.5670 O   0  0  0  0  0  0  0  0  0  0  0  0
   31.1950   30.1550   36.7970 H   0  0  0  0  0  0  0  0  0  0  0  0
   35.9410   26.3850   31.5610 C   0  0  0  0  0  0  0  0  0  0  0  0
   36.6780   27.1910   32.4000 C   0  0  0  0  0  0  0  0  0  0  0  0
   37.6410   26.5790   33.1980 C   0  0  0  0  0  0  0  0  0  0  0  0
   37.8140   25.2470   33.1210 N   0  0  0  0  0  0  0  0  0  0  0  0
   37.0920   24.4810   32.3040 C   0  0  0  0  0  0  0  0  0  0  0  0
   36.1600   25.0550   31.5280 N   0  0  0  0  0  0  0  0  0  0  0  0
   35.1500   26.7360   30.8790 H   0  0  0  0  0  0  0  0  0  0  0  0
   38.1860   27.2530   33.8320 H   0  0  0  0  0  0  0  0  0  0  0  0
   37.3590   23.0350   32.2950 C   0  0  0  0  0  2  0  0  0  0  0  0
   36.2330   22.1840   32.4050 N   0  0  0  0  0  4  0  0  0  0  0  0
   35.4090   22.7940   32.6160 H   0  0  0  0  0  0  0  0  0  0  0  0
   35.9250   21.5110   31.1560 C   0  0  0  0  0  2  0  0  0  0  0  0
   36.6850   20.7460   30.8990 H   0  0  0  0  0  0  0  0  0  0  0  0
   36.2840   21.1750   33.4170 C   0  0  0  0  0  2  0  0  0  0  0  0
   36.7580   20.2190   33.1050 H   0  0  0  0  0  0  0  0  0  0  0  0
  2  7  1  0  0  0  0
  2  1  1  0  0  0  0
  3 24  1  0  0  0  0
  3  2  2  0  0  0  0
  4  5  2  0  0  0  0
  4  3  1  0  0  0  0
  5  6  1  0  0  0  0
  6  7  2  0  0  0  0
  7 13  1  0  0  0  0
  8  4  1  0  0  0  0
  9  5  1  0  0  0  0
 10  6  1  0  0  0  0
 11 12  1  0  0  0  0
 12 17  1  0  0  0  0
 13 12  2  0  0  0  0
 13 14  1  0  0  0  0
 14 15  2  0  0  0  0
 15 16  1  0  0  0  0
 15 19  1  0  0  0  0
 16 20  1  0  0  0  0
 17 21  1  0  0  0  0
 17 16  2  0  0  0  0
 18 14  1  0  0  0  0
 21 22  1  0  0  0  0
 23 24  1  0  0  0  0
 24 25  2  0  0  0  0
 25 30  1  0  0  0  0
 26 25  1  0  0  0  0
 27 26  2  0  0  0  0
 28 23  2  0  0  0  0
 28 27  1  0  0  0  0
 29 23  1  0  0  0  0
 31 27  1  0  0  0  0
 31 32  1  0  0  0  0
 32 33  1  0  0  0  0
 32 36  1  0  0  0  0
 34 32  1  0  0  0  0
 35 34  1  0  0  0  0
 37 36  1  0  0  0  0
M  END
>  <minimizedAffinity>
-5.85375929

$$$$

 OpenBabel03272502083D

 37 39  0  0  0  0  0  0  0  0999 V2000
   35.9350   28.3390   34.9280 F   0  0  0  0  0  0  0  0  0  0  0  0
   35.8850   28.9850   33.7180 C   0  0  0  0  0  0  0  0  0  0  0  0
   36.4470   28.4420   32.5790 C   0  0  0  0  0  0  0  0  0  0  0  0
   36.3440   29.1380   31.3950 C   0  0  0  0  0  0  0  0  0  0  0  0
   35.6840   30.3700   31.3480 C   0  0  0  0  0  0  0  0  0  0  0  0
   35.1450   30.8560   32.5230 C   0  0  0  0  0  0  0  0  0  0  0  0
   35.2230   30.2100   33.7000 C   0  0  0  0  0  0  0  0  0  0  0  0
   36.7920   28.6910   30.5190 H   0  0  0  0  0  0  0  0  0  0  0  0
   35.6390   30.8560   30.4000 H   0  0  0  0  0  0  0  0  0  0  0  0
   34.6570   31.8090   32.3820 H   0  0  0  0  0  0  0  0  0  0  0  0
   32.2960   29.3810   34.4430 Br  0  0  0  0  0  0  0  0  0  0  0  0
   33.4140   30.5470   35.4530 C   0  0  0  0  0  0  0  0  0  0  0  0
   34.6480   30.7780   34.9060 C   0  0  0  0  0  0  0  0  0  0  0  0
   35.5120   31.6580   35.5790 C   0  0  0  0  0  0  0  0  0  0  0  0
   35.1320   32.2560   36.7350 C   0  0  0  0  0  0  0  0  0  0  0  0
   33.8670   31.9810   37.2400 C   0  0  0  0  0  0  0  0  0  0  0  0
   32.9860   31.1120   36.5950 C   0  0  0  0  0  0  0  0  0  0  0  0
   36.4990   31.8970   35.2210 H   0  0  0  0  0  0  0  0  0  0  0  0
   35.7800   32.9380   37.2710 H   0  0  0  0  0  0  0  0  0  0  0  0
   33.5320   32.4400   38.1620 H   0  0  0  0  0  0  0  0  0  0  0  0
   31.7370   30.7900   37.0280 O   0  0  0  0  0  0  0  0  0  0  0  0
   31.4790   29.8800   37.4070 H   0  0  0  0  0  0  0  0  0  0  0  0
   36.4480   26.0520   32.2920 C   0  0  0  0  0  0  0  0  0  0  0  0
   37.0940   27.1740   32.7640 C   0  0  0  0  0  0  0  0  0  0  0  0
   38.3300   26.9920   33.3810 C   0  0  0  0  0  0  0  0  0  0  0  0
   38.8380   25.7520   33.4910 N   0  0  0  0  0  0  0  0  0  0  0  0
   38.2000   24.6770   33.0290 C   0  0  0  0  0  0  0  0  0  0  0  0
   37.0090   24.8340   32.4320 N   0  0  0  0  0  0  0  0  0  0  0  0
   35.4690   26.0510   31.7860 H   0  0  0  0  0  0  0  0  0  0  0  0
   38.7890   27.8990   33.7300 H   0  0  0  0  0  0  0  0  0  0  0  0
   38.8410   23.3650   33.2000 C   0  0  0  0  0  2  0  0  0  0  0  0
   39.1990   23.0030   34.5200 N   0  0  0  0  0  4  0  0  0  0  0  0
   39.3180   23.8930   35.0590 H   0  0  0  0  0  0  0  0  0  0  0  0
   38.1480   22.2630   35.1950 C   0  0  0  0  0  2  0  0  0  0  0  0
   38.0210   21.2450   34.7740 H   0  0  0  0  0  0  0  0  0  0  0  0
   40.4030   22.2480   34.6780 C   0  0  0  0  0  2  0  0  0  0  0  0
   40.2810   21.1450   34.5940 H   0  0  0  0  0  0  0  0  0  0  0  0
  2  1  1  0  0  0  0
  3 24  1  0  0  0  0
  3  2  2  0  0  0  0
  4  3  1  0  0  0  0
  5  4  2  0  0  0  0
  5  6  1  0  0  0  0
  6  7  2  0  0  0  0
  7  2  1  0  0  0  0
  7 13  1  0  0  0  0
  8  4  1  0  0  0  0
  9  5  1  0  0  0  0
 10  6  1  0  0  0  0
 11 12  1  0  0  0  0
 12 17  1  0  0  0  0
 13 12  2  0  0  0  0
 13 14  1  0  0  0  0
 14 15  2  0  0  0  0
 15 16  1  0  0  0  0
 15 19  1  0  0  0  0
 16 20  1  0  0  0  0
 17 21  1  0  0  0  0
 17 16  2  0  0  0  0
 18 14  1  0  0  0  0
 21 22  1  0  0  0  0
 23 28  2  0  0  0  0
 23 24  1  0  0  0  0
 24 25  2  0  0  0  0
 25 26  1  0  0  0  0
 25 30  1  0  0  0  0
 27 31  1  0  0  0  0
 27 26  2  0  0  0  0
 28 27  1  0  0  0  0
 29 23  1  0  0  0  0
 31 32  1  0  0  0  0
 32 36  1  0  0  0  0
 32 33  1  0  0  0  0
 32 34  1  0  0  0  0
 35 34  1  0  0  0  0
 37 36  1  0  0  0  0
M  END
>  <minimizedAffinity>
-5.72772169

$$$$

 OpenBabel03272502083D

 37 39  0  0  0  0  0  0  0  0999 V2000
   35.8080   28.1140   34.9670 F   0  0  0  0  0  0  0  0  0  0  0  0
   35.8120   28.8300   33.7970 C   0  0  0  0  0  0  0  0  0  0  0  0
   36.5420   28.4240   32.6960 C   0  0  0  0  0  0  0  0  0  0  0  0
   36.4850   29.1830   31.5480 C   0  0  0  0  0  0  0  0  0  0  0  0
   35.7050   30.3420   31.4990 C   0  0  0  0  0  0  0  0  0  0  0  0
   35.0000   30.6910   32.6340 C   0  0  0  0  0  0  0  0  0  0  0  0
   35.0270   29.9800   33.7750 C   0  0  0  0  0  0  0  0  0  0  0  0
   37.0660   28.8430   30.7030 H   0  0  0  0  0  0  0  0  0  0  0  0
   35.7040   30.8830   30.5800 H   0  0  0  0  0  0  0  0  0  0  0  0
   34.4300   31.5980   32.4940 H   0  0  0  0  0  0  0  0  0  0  0  0
   36.2870   32.2040   35.5840 Br  0  0  0  0  0  0  0  0  0  0  0  0
   34.5950   31.3730   35.8560 C   0  0  0  0  0  0  0  0  0  0  0  0
   34.2750   30.4060   34.9410 C   0  0  0  0  0  0  0  0  0  0  0  0
   33.0560   29.7250   35.1010 C   0  0  0  0  0  0  0  0  0  0  0  0
   32.2250   30.0220   36.1310 C   0  0  0  0  0  0  0  0  0  0  0  0
   32.6060   31.0140   37.0270 C   0  0  0  0  0  0  0  0  0  0  0  0
   33.8090   31.7080   36.8940 C   0  0  0  0  0  0  0  0  0  0  0  0
   32.7250   28.9510   34.4300 H   0  0  0  0  0  0  0  0  0  0  0  0
   31.2820   29.5110   36.2750 H   0  0  0  0  0  0  0  0  0  0  0  0
   31.9660   31.2770   37.8600 H   0  0  0  0  0  0  0  0  0  0  0  0
   34.2480   32.6910   37.7250 O   0  0  0  0  0  0  0  0  0  0  0  0
   34.2950   33.6770   37.4710 H   0  0  0  0  0  0  0  0  0  0  0  0
   36.7120   26.0310   32.5030 C   0  0  0  0  0  0  0  0  0  0  0  0
   37.3000   27.2180   32.8790 C   0  0  0  0  0  0  0  0  0  0  0  0
   38.5880   27.1590   33.4060 C   0  0  0  0  0  0  0  0  0  0  0  0
   39.2000   25.9670   33.5240 N   0  0  0  0  0  0  0  0  0  0  0  0
   38.6170   24.8270   33.1550 C   0  0  0  0  0  0  0  0  0  0  0  0
   37.3760   24.8660   32.6460 N   0  0  0  0  0  0  0  0  0  0  0  0
   35.7020   25.9320   32.0740 H   0  0  0  0  0  0  0  0  0  0  0  0
   38.9980   28.1130   33.6830 H   0  0  0  0  0  0  0  0  0  0  0  0
   39.3720   23.5770   33.3260 C   0  0  0  0  0  2  0  0  0  0  0  0
   39.4630   23.0690   34.6430 N   0  0  0  0  0  4  0  0  0  0  0  0
   39.4240   23.8900   35.2910 H   0  0  0  0  0  0  0  0  0  0  0  0
   38.3300   22.2300   34.9920 C   0  0  0  0  0  2  0  0  0  0  0  0
   38.3430   21.2660   34.4440 H   0  0  0  0  0  0  0  0  0  0  0  0
   40.6420   22.3280   34.9690 C   0  0  0  0  0  2  0  0  0  0  0  0
   40.5930   21.2410   34.7390 H   0  0  0  0  0  0  0  0  0  0  0  0
  2  1  1  0  0  0  0
  3 24  1  0  0  0  0
  3  2  2  0  0  0  0
  4  3  1  0  0  0  0
  5  4  2  0  0  0  0
  5  6  1  0  0  0  0
  6  7  2  0  0  0  0
  7  2  1  0  0  0  0
  7 13  1  0  0  0  0
  8  4  1  0  0  0  0
  9  5  1  0  0  0  0
 10  6  1  0  0  0  0
 11 12  1  0  0  0  0
 12 17  1  0  0  0  0
 13 14  1  0  0  0  0
 13 12  2  0  0  0  0
 14 15  2  0  0  0  0
 15 19  1  0  0  0  0
 15 16  1  0  0  0  0
 16 20  1  0  0  0  0
 17 16  2  0  0  0  0
 17 21  1  0  0  0  0
 18 14  1  0  0  0  0
 22 21  1  0  0  0  0
 23 28  2  0  0  0  0
 23 24  1  0  0  0  0
 24 25  2  0  0  0  0
 25 26  1  0  0  0  0
 25 30  1  0  0  0  0
 27 31  1  0  0  0  0
 27 26  2  0  0  0  0
 28 27  1  0  0  0  0
 29 23  1  0  0  0  0
 31 32  1  0  0  0  0
 32 36  1  0  0  0  0
 32 34  1  0  0  0  0
 32 33  1  0  0  0  0
 35 34  1  0  0  0  0
 37 36  1  0  0  0  0
M  END
>  <minimizedAffinity>
-5.71686792

$$$$

 OpenBabel03272502083D

 37 39  0  0  0  0  0  0  0  0999 V2000
   35.5990   28.3780   34.5790 F   0  0  0  0  0  0  0  0  0  0  0  0
   35.4480   29.1730   33.4710 C   0  0  0  0  0  0  0  0  0  0  0  0
   35.9930   28.8310   32.2480 C   0  0  0  0  0  0  0  0  0  0  0  0
   35.7870   29.6690   31.1750 C   0  0  0  0  0  0  0  0  0  0  0  0
   35.0420   30.8430   31.3200 C   0  0  0  0  0  0  0  0  0  0  0  0
   34.5260   31.1260   32.5700 C   0  0  0  0  0  0  0  0  0  0  0  0
   34.7030   30.3370   33.6440 C   0  0  0  0  0  0  0  0  0  0  0  0
   36.2250   29.3770   30.2300 H   0  0  0  0  0  0  0  0  0  0  0  0
   34.9200   31.4470   30.4500 H   0  0  0  0  0  0  0  0  0  0  0  0
   33.9680   32.0510   32.5770 H   0  0  0  0  0  0  0  0  0  0  0  0
   36.3490   32.3040   35.4410 Br  0  0  0  0  0  0  0  0  0  0  0  0
   34.6540   31.5520   35.8760 C   0  0  0  0  0  0  0  0  0  0  0  0
   34.1460   30.6950   34.9360 C   0  0  0  0  0  0  0  0  0  0  0  0
   32.9140   30.0740   35.2080 C   0  0  0  0  0  0  0  0  0  0  0  0
   32.2530   30.3210   36.3650 C   0  0  0  0  0  0  0  0  0  0  0  0
   32.8200   31.2010   37.2790 C   0  0  0  0  0  0  0  0  0  0  0  0
   34.0410   31.8330   37.0380 C   0  0  0  0  0  0  0  0  0  0  0  0
   32.4430   29.3880   34.5260 H   0  0  0  0  0  0  0  0  0  0  0  0
   31.3040   29.8550   36.5960 H   0  0  0  0  0  0  0  0  0  0  0  0
   32.3180   31.4220   38.2130 H   0  0  0  0  0  0  0  0  0  0  0  0
   34.6560   32.7070   37.8800 O   0  0  0  0  0  0  0  0  0  0  0  0
   34.7380   33.7080   37.7070 H   0  0  0  0  0  0  0  0  0  0  0  0
   36.0730   26.4610   31.8320 C   0  0  0  0  0  0  0  0  0  0  0  0
   36.7340   27.6010   32.2350 C   0  0  0  0  0  0  0  0  0  0  0  0
   38.0740   27.4740   32.5950 C   0  0  0  0  0  0  0  0  0  0  0  0
   38.6630   26.2660   32.5360 N   0  0  0  0  0  0  0  0  0  0  0  0
   38.0090   25.1740   32.1440 C   0  0  0  0  0  0  0  0  0  0  0  0
   36.7180   25.2780   31.7940 N   0  0  0  0  0  0  0  0  0  0  0  0
   35.0170   26.4180   31.5220 H   0  0  0  0  0  0  0  0  0  0  0  0
   38.5400   28.3930   32.9000 H   0  0  0  0  0  0  0  0  0  0  0  0
   38.7440   23.9000   32.1150 C   0  0  0  0  0  2  0  0  0  0  0  0
   37.9640   22.7210   32.0800 N   0  0  0  0  0  4  0  0  0  0  0  0
   36.9940   23.0040   31.8070 H   0  0  0  0  0  0  0  0  0  0  0  0
   38.4120   21.7910   31.0570 C   0  0  0  0  0  2  0  0  0  0  0  0
   39.3900   21.3350   31.3120 H   0  0  0  0  0  0  0  0  0  0  0  0
   37.8620   21.9780   33.2970 C   0  0  0  0  0  2  0  0  0  0  0  0
   38.6700   21.2310   33.4620 H   0  0  0  0  0  0  0  0  0  0  0  0
  2  7  1  0  0  0  0
  2  1  1  0  0  0  0
  3  2  2  0  0  0  0
  4  5  2  0  0  0  0
  4  3  1  0  0  0  0
  5  6  1  0  0  0  0
  6 10  1  0  0  0  0
  6  7  2  0  0  0  0
  7 13  1  0  0  0  0
  8  4  1  0  0  0  0
  9  5  1  0  0  0  0
 11 12  1  0  0  0  0
 12 17  1  0  0  0  0
 13 14  1  0  0  0  0
 13 12  2  0  0  0  0
 14 15  2  0  0  0  0
 15 19  1  0  0  0  0
 15 16  1  0  0  0  0
 16 20  1  0  0  0  0
 17 16  2  0  0  0  0
 17 21  1  0  0  0  0
 18 14  1  0  0  0  0
 22 21  1  0  0  0  0
 23 24  1  0  0  0  0
 24  3  1  0  0  0  0
 24 25  2  0  0  0  0
 25 30  1  0  0  0  0
 26 25  1  0  0  0  0
 27 26  2  0  0  0  0
 28 23  2  0  0  0  0
 28 27  1  0  0  0  0
 29 23  1  0  0  0  0
 31 27  1  0  0  0  0
 32 31  1  0  0  0  0
 32 36  1  0  0  0  0
 33 32  1  0  0  0  0
 34 35  1  0  0  0  0
 34 32  1  0  0  0  0
 36 37  1  0  0  0  0
M  END
>  <minimizedAffinity>
-5.54886341

$$$$

 OpenBabel03272502083D

 37 39  0  0  0  0  0  0  0  0999 V2000
   35.4040   28.2710   33.9810 F   0  0  0  0  0  0  0  0  0  0  0  0
   35.8340   29.0040   32.9040 C   0  0  0  0  0  0  0  0  0  0  0  0
   35.7750   30.3840   32.8900 C   0  0  0  0  0  0  0  0  0  0  0  0
   36.2400   31.0550   31.7810 C   0  0  0  0  0  0  0  0  0  0  0  0
   36.7610   30.3530   30.6910 C   0  0  0  0  0  0  0  0  0  0  0  0
   36.7910   28.9750   30.7680 C   0  0  0  0  0  0  0  0  0  0  0  0
   36.3480   28.2790   31.8300 C   0  0  0  0  0  0  0  0  0  0  0  0
   36.1810   32.1340   31.7970 H   0  0  0  0  0  0  0  0  0  0  0  0
   37.1040   30.9330   29.8640 H   0  0  0  0  0  0  0  0  0  0  0  0
   37.2110   28.5280   29.8790 H   0  0  0  0  0  0  0  0  0  0  0  0
   38.6900   26.9190   33.4010 Br  0  0  0  0  0  0  0  0  0  0  0  0
   37.2880   26.0110   32.4850 C   0  0  0  0  0  0  0  0  0  0  0  0
   36.3930   26.8290   31.8480 C   0  0  0  0  0  0  0  0  0  0  0  0
   35.3520   26.2250   31.1210 C   0  0  0  0  0  0  0  0  0  0  0  0
   35.2410   24.8750   31.0580 C   0  0  0  0  0  0  0  0  0  0  0  0
   36.1800   24.1000   31.7260 C   0  0  0  0  0  0  0  0  0  0  0  0
   37.2250   24.6690   32.4560 C   0  0  0  0  0  0  0  0  0  0  0  0
   34.6050   26.7910   30.5910 H   0  0  0  0  0  0  0  0  0  0  0  0
   34.4480   24.3890   30.5040 H   0  0  0  0  0  0  0  0  0  0  0  0
   36.1200   23.0190   31.6970 H   0  0  0  0  0  0  0  0  0  0  0  0
   38.1780   23.9780   33.1380 O   0  0  0  0  0  0  0  0  0  0  0  0
   38.2340   23.9310   34.1550 H   0  0  0  0  0  0  0  0  0  0  0  0
   33.9150   31.4230   34.0110 C   0  0  0  0  0  0  0  0  0  0  0  0
   35.2180   30.9810   34.0720 C   0  0  0  0  0  0  0  0  0  0  0  0
   35.8960   31.1430   35.2780 C   0  0  0  0  0  0  0  0  0  0  0  0
   35.2650   31.7130   36.3200 N   0  0  0  0  0  0  0  0  0  0  0  0
   34.0040   32.1360   36.2440 C   0  0  0  0  0  0  0  0  0  0  0  0
   33.3360   31.9880   35.0890 N   0  0  0  0  0  0  0  0  0  0  0  0
   33.2650   31.3580   33.1230 H   0  0  0  0  0  0  0  0  0  0  0  0
   36.9080   30.7810   35.2700 H   0  0  0  0  0  0  0  0  0  0  0  0
   33.4050   32.7470   37.4400 C   0  0  0  0  0  2  0  0  0  0  0  0
   33.2800   34.1560   37.4340 N   0  0  0  0  0  4  0  0  0  0  0  0
   33.7230   34.4990   36.5500 H   0  0  0  0  0  0  0  0  0  0  0  0
   31.8950   34.5890   37.3830 C   0  0  0  0  0  2  0  0  0  0  0  0
   31.3600   34.3800   38.3310 H   0  0  0  0  0  0  0  0  0  0  0  0
   33.8940   34.8630   38.5160 C   0  0  0  0  0  2  0  0  0  0  0  0
   33.2570   34.9830   39.4200 H   0  0  0  0  0  0  0  0  0  0  0  0
  2  1  1  0  0  0  0
  3  2  1  0  0  0  0
  3 24  1  0  0  0  0
  4  8  1  0  0  0  0
  4  3  2  0  0  0  0
  5  6  2  0  0  0  0
  5  4  1  0  0  0  0
  6  7  1  0  0  0  0
  7 13  1  0  0  0  0
  7  2  2  0  0  0  0
  9  5  1  0  0  0  0
 10  6  1  0  0  0  0
 12 11  1  0  0  0  0
 13 12  2  0  0  0  0
 14 13  1  0  0  0  0
 15 14  2  0  0  0  0
 15 16  1  0  0  0  0
 16 17  2  0  0  0  0
 17 12  1  0  0  0  0
 17 21  1  0  0  0  0
 18 14  1  0  0  0  0
 19 15  1  0  0  0  0
 20 16  1  0  0  0  0
 21 22  1  0  0  0  0
 23 24  2  0  0  0  0
 23 28  1  0  0  0  0
 24 25  1  0  0  0  0
 25 26  2  0  0  0  0
 27 26  1  0  0  0  0
 27 31  1  0  0  0  0
 28 27  2  0  0  0  0
 29 23  1  0  0  0  0
 30 25  1  0  0  0  0
 32 31  1  0  0  0  0
 32 36  1  0  0  0  0
 33 32  1  0  0  0  0
 34 32  1  0  0  0  0
 34 35  1  0  0  0  0
 36 37  1  0  0  0  0
M  END
>  <minimizedAffinity>
-5.53576612

$$$$

 OpenBabel03272502083D

 37 39  0  0  0  0  0  0  0  0999 V2000
   36.2410   27.4330   34.8470 F   0  0  0  0  0  0  0  0  0  0  0  0
   36.4960   27.9700   33.6100 C   0  0  0  0  0  0  0  0  0  0  0  0
   36.0410   29.2240   33.2510 C   0  0  0  0  0  0  0  0  0  0  0  0
   36.3510   29.7050   31.9980 C   0  0  0  0  0  0  0  0  0  0  0  0
   37.1090   28.9390   31.1080 C   0  0  0  0  0  0  0  0  0  0  0  0
   37.5320   27.6940   31.5290 C   0  0  0  0  0  0  0  0  0  0  0  0
   37.2530   27.1850   32.7430 C   0  0  0  0  0  0  0  0  0  0  0  0
   35.9820   30.6890   31.7430 H   0  0  0  0  0  0  0  0  0  0  0  0
   37.3130   29.3710   30.1550 H   0  0  0  0  0  0  0  0  0  0  0  0
   38.1100   27.1850   30.7720 H   0  0  0  0  0  0  0  0  0  0  0  0
   39.6560   27.0070   34.7420 Br  0  0  0  0  0  0  0  0  0  0  0  0
   38.7140   25.5280   33.9980 C   0  0  0  0  0  0  0  0  0  0  0  0
   37.7150   25.8630   33.1240 C   0  0  0  0  0  0  0  0  0  0  0  0
   37.0010   24.8200   32.5090 C   0  0  0  0  0  0  0  0  0  0  0  0
   37.2960   23.5240   32.7770 C   0  0  0  0  0  0  0  0  0  0  0  0
   38.3210   23.2490   33.6740 C   0  0  0  0  0  0  0  0  0  0  0  0
   39.0470   24.2610   34.3010 C   0  0  0  0  0  0  0  0  0  0  0  0
   36.2010   24.9920   31.8100 H   0  0  0  0  0  0  0  0  0  0  0  0
   36.7610   22.7050   32.3160 H   0  0  0  0  0  0  0  0  0  0  0  0
   38.5820   22.2250   33.9120 H   0  0  0  0  0  0  0  0  0  0  0  0
   40.0590   24.0720   35.1900 O   0  0  0  0  0  0  0  0  0  0  0  0
   39.9890   24.2680   36.1880 H   0  0  0  0  0  0  0  0  0  0  0  0
   35.9490   30.7480   35.1110 C   0  0  0  0  0  0  0  0  0  0  0  0
   35.2750   29.9040   34.2560 C   0  0  0  0  0  0  0  0  0  0  0  0
   33.8990   29.7780   34.4310 C   0  0  0  0  0  0  0  0  0  0  0  0
   33.2890   30.4730   35.4080 N   0  0  0  0  0  0  0  0  0  0  0  0
   33.9560   31.2860   36.2260 C   0  0  0  0  0  0  0  0  0  0  0  0
   35.2830   31.4190   36.0720 N   0  0  0  0  0  0  0  0  0  0  0  0
   37.0340   30.9410   35.0860 H   0  0  0  0  0  0  0  0  0  0  0  0
   33.4240   29.1080   33.7380 H   0  0  0  0  0  0  0  0  0  0  0  0
   33.1970   32.0010   37.2620 C   0  0  0  0  0  2  0  0  0  0  0  0
   33.0160   33.3910   37.0690 N   0  0  0  0  0  4  0  0  0  0  0  0
   33.3760   33.6150   36.1120 H   0  0  0  0  0  0  0  0  0  0  0  0
   31.6150   33.7720   37.0700 C   0  0  0  0  0  2  0  0  0  0  0  0
   31.1630   33.6860   38.0790 H   0  0  0  0  0  0  0  0  0  0  0  0
   33.6820   34.2620   37.9860 C   0  0  0  0  0  2  0  0  0  0  0  0
   33.1120   34.4930   38.9130 H   0  0  0  0  0  0  0  0  0  0  0  0
  2  1  1  0  0  0  0
  3  2  1  0  0  0  0
  3 24  1  0  0  0  0
  4  3  2  0  0  0  0
  5  6  2  0  0  0  0
  5  4  1  0  0  0  0
  6  7  1  0  0  0  0
  7 13  1  0  0  0  0
  7  2  2  0  0  0  0
  8  4  1  0  0  0  0
  9  5  1  0  0  0  0
 10  6  1  0  0  0  0
 12 17  1  0  0  0  0
 12 11  1  0  0  0  0
 13 12  2  0  0  0  0
 14 15  2  0  0  0  0
 14 13  1  0  0  0  0
 15 16  1  0  0  0  0
 16 20  1  0  0  0  0
 16 17  2  0  0  0  0
 17 21  1  0  0  0  0
 18 14  1  0  0  0  0
 19 15  1  0  0  0  0
 21 22  1  0  0  0  0
 23 28  1  0  0  0  0
 24 25  1  0  0  0  0
 24 23  2  0  0  0  0
 25 26  2  0  0  0  0
 26 27  1  0  0  0  0
 27 31  1  0  0  0  0
 28 27  2  0  0  0  0
 29 23  1  0  0  0  0
 30 25  1  0  0  0  0
 32 34  1  0  0  0  0
 32 31  1  0  0  0  0
 32 36  1  0  0  0  0
 33 32  1  0  0  0  0
 34 35  1  0  0  0  0
 36 37  1  0  0  0  0
M  END
>  <minimizedAffinity>
-5.45994377

$$$$

 OpenBabel03272502083D

 37 39  0  0  0  0  0  0  0  0999 V2000
   36.0480   27.8010   34.4640 F   0  0  0  0  0  0  0  0  0  0  0  0
   36.2730   28.4110   33.2560 C   0  0  0  0  0  0  0  0  0  0  0  0
   35.9070   29.7220   33.0220 C   0  0  0  0  0  0  0  0  0  0  0  0
   36.1800   30.2750   31.7900 C   0  0  0  0  0  0  0  0  0  0  0  0
   36.8130   29.5230   30.7970 C   0  0  0  0  0  0  0  0  0  0  0  0
   37.1510   28.2180   31.0950 C   0  0  0  0  0  0  0  0  0  0  0  0
   36.9040   27.6390   32.2830 C   0  0  0  0  0  0  0  0  0  0  0  0
   35.8820   31.3030   31.6340 H   0  0  0  0  0  0  0  0  0  0  0  0
   36.9950   30.0110   29.8660 H   0  0  0  0  0  0  0  0  0  0  0  0
   37.6350   27.7250   30.2650 H   0  0  0  0  0  0  0  0  0  0  0  0
   35.0800   25.4050   31.0620 Br  0  0  0  0  0  0  0  0  0  0  0  0
   36.6600   25.1170   32.0860 C   0  0  0  0  0  0  0  0  0  0  0  0
   37.2720   26.2570   32.5340 C   0  0  0  0  0  0  0  0  0  0  0  0
   38.4240   26.1180   33.3260 C   0  0  0  0  0  0  0  0  0  0  0  0
   38.9120   24.8910   33.6340 C   0  0  0  0  0  0  0  0  0  0  0  0
   38.2460   23.7710   33.1490 C   0  0  0  0  0  0  0  0  0  0  0  0
   37.1010   23.8770   32.3590 C   0  0  0  0  0  0  0  0  0  0  0  0
   38.9680   26.9590   33.7210 H   0  0  0  0  0  0  0  0  0  0  0  0
   39.7970   24.7590   34.2430 H   0  0  0  0  0  0  0  0  0  0  0  0
   38.6090   22.7760   33.3740 H   0  0  0  0  0  0  0  0  0  0  0  0
   36.3980   22.8310   31.8450 O   0  0  0  0  0  0  0  0  0  0  0  0
   36.3810   22.5830   30.8570 H   0  0  0  0  0  0  0  0  0  0  0  0
   33.8890   30.4170   34.1340 C   0  0  0  0  0  0  0  0  0  0  0  0
   35.2660   30.3810   34.1250 C   0  0  0  0  0  0  0  0  0  0  0  0
   35.9320   30.9850   35.1890 C   0  0  0  0  0  0  0  0  0  0  0  0
   35.2190   31.5680   36.1690 N   0  0  0  0  0  0  0  0  0  0  0  0
   33.8870   31.5940   36.1640 C   0  0  0  0  0  0  0  0  0  0  0  0
   33.2290   31.0170   35.1460 N   0  0  0  0  0  0  0  0  0  0  0  0
   33.2390   29.9810   33.3580 H   0  0  0  0  0  0  0  0  0  0  0  0
   37.0030   30.9290   35.1310 H   0  0  0  0  0  0  0  0  0  0  0  0
   33.2020   32.2570   37.2830 C   0  0  0  0  0  2  0  0  0  0  0  0
   33.0680   33.6630   37.1970 N   0  0  0  0  0  4  0  0  0  0  0  0
   33.4290   33.9480   36.2570 H   0  0  0  0  0  0  0  0  0  0  0  0
   31.6810   34.0910   37.2410 C   0  0  0  0  0  2  0  0  0  0  0  0
   31.2330   33.9430   38.2440 H   0  0  0  0  0  0  0  0  0  0  0  0
   33.7700   34.4390   38.1730 C   0  0  0  0  0  2  0  0  0  0  0  0
   33.2150   34.6170   39.1200 H   0  0  0  0  0  0  0  0  0  0  0  0
  2  1  1  0  0  0  0
  3  2  1  0  0  0  0
  3 24  1  0  0  0  0
  4  3  2  0  0  0  0
  5  6  2  0  0  0  0
  5  4  1  0  0  0  0
  6  7  1  0  0  0  0
  7 13  1  0  0  0  0
  7  2  2  0  0  0  0
  8  4  1  0  0  0  0
  9  5  1  0  0  0  0
 10  6  1  0  0  0  0
 11 12  1  0  0  0  0
 12 17  2  0  0  0  0
 12 13  1  0  0  0  0
 13 14  2  0  0  0  0
 14 15  1  0  0  0  0
 14 18  1  0  0  0  0
 15 19  1  0  0  0  0
 16 20  1  0  0  0  0
 16 15  2  0  0  0  0
 17 16  1  0  0  0  0
 21 17  1  0  0  0  0
 22 21  1  0  0  0  0
 23 28  1  0  0  0  0
 24 23  2  0  0  0  0
 24 25  1  0  0  0  0
 25 26  2  0  0  0  0
 27 26  1  0  0  0  0
 27 31  1  0  0  0  0
 28 27  2  0  0  0  0
 29 23  1  0  0  0  0
 30 25  1  0  0  0  0
 32 34  1  0  0  0  0
 32 31  1  0  0  0  0
 32 36  1  0  0  0  0
 33 32  1  0  0  0  0
 34 35  1  0  0  0  0
 36 37  1  0  0  0  0
M  END
>  <minimizedAffinity>
-5.4434309

$$$$

 OpenBabel03272502083D

 37 39  0  0  0  0  0  0  0  0999 V2000
   36.4240   23.5820   32.1010 F   0  0  0  0  0  0  0  0  0  0  0  0
   37.5490   23.3380   32.8480 C   0  0  0  0  0  0  0  0  0  0  0  0
   38.1650   24.3310   33.5840 C   0  0  0  0  0  0  0  0  0  0  0  0
   39.2810   24.0100   34.3240 C   0  0  0  0  0  0  0  0  0  0  0  0
   39.7800   22.7040   34.3300 C   0  0  0  0  0  0  0  0  0  0  0  0
   39.1170   21.7590   33.5720 C   0  0  0  0  0  0  0  0  0  0  0  0
   38.0250   22.0290   32.8350 C   0  0  0  0  0  0  0  0  0  0  0  0
   39.7440   24.8060   34.8900 H   0  0  0  0  0  0  0  0  0  0  0  0
   40.6460   22.5220   34.9240 H   0  0  0  0  0  0  0  0  0  0  0  0
   39.5780   20.7850   33.6450 H   0  0  0  0  0  0  0  0  0  0  0  0
   35.5880   20.5380   34.1170 Br  0  0  0  0  0  0  0  0  0  0  0  0
   36.2860   20.2340   32.3710 C   0  0  0  0  0  0  0  0  0  0  0  0
   37.3780   20.9950   32.0480 C   0  0  0  0  0  0  0  0  0  0  0  0
   37.9680   20.7970   30.7880 C   0  0  0  0  0  0  0  0  0  0  0  0
   37.4680   19.8810   29.9220 C   0  0  0  0  0  0  0  0  0  0  0  0
   36.3580   19.1400   30.3090 C   0  0  0  0  0  0  0  0  0  0  0  0
   35.7490   19.3130   31.5520 C   0  0  0  0  0  0  0  0  0  0  0  0
   38.8280   21.3510   30.4510 H   0  0  0  0  0  0  0  0  0  0  0  0
   37.9060   19.7110   28.9480 H   0  0  0  0  0  0  0  0  0  0  0  0
   35.9320   18.4010   29.6420 H   0  0  0  0  0  0  0  0  0  0  0  0
   34.6610   18.6310   32.0000 O   0  0  0  0  0  0  0  0  0  0  0  0
   33.7340   19.0400   32.1120 H   0  0  0  0  0  0  0  0  0  0  0  0
   37.2540   26.2770   34.6680 C   0  0  0  0  0  0  0  0  0  0  0  0
   37.5530   25.6270   33.4910 C   0  0  0  0  0  0  0  0  0  0  0  0
   37.2420   26.2780   32.2990 C   0  0  0  0  0  0  0  0  0  0  0  0
   36.6730   27.4960   32.3410 N   0  0  0  0  0  0  0  0  0  0  0  0
   36.3900   28.1120   33.4880 C   0  0  0  0  0  0  0  0  0  0  0  0
   36.6830   27.4990   34.6450 N   0  0  0  0  0  0  0  0  0  0  0  0
   37.4450   25.8800   35.6770 H   0  0  0  0  0  0  0  0  0  0  0  0
   37.4960   25.7260   31.4130 H   0  0  0  0  0  0  0  0  0  0  0  0
   35.7670   29.4420   33.4240 C   0  0  0  0  0  2  0  0  0  0  0  0
   34.4850   29.5120   32.8300 N   0  0  0  0  0  4  0  0  0  0  0  0
   34.3350   28.6100   32.3200 H   0  0  0  0  0  0  0  0  0  0  0  0
   33.4220   29.5970   33.8160 C   0  0  0  0  0  2  0  0  0  0  0  0
   33.4160   30.5770   34.3360 H   0  0  0  0  0  0  0  0  0  0  0  0
   34.2640   30.5690   31.8920 C   0  0  0  0  0  2  0  0  0  0  0  0
   33.9190   31.5280   32.3380 H   0  0  0  0  0  0  0  0  0  0  0  0
  1  2  1  0  0  0  0
  2  3  1  0  0  0  0
  3  4  2  0  0  0  0
  4  5  1  0  0  0  0
  4  8  1  0  0  0  0
  5  9  1  0  0  0  0
  6 10  1  0  0  0  0
  6  5  2  0  0  0  0
  7  2  2  0  0  0  0
  7  6  1  0  0  0  0
 12 11  1  0  0  0  0
 13 12  1  0  0  0  0
 13  7  1  0  0  0  0
 14 13  2  0  0  0  0
 15 16  2  0  0  0  0
 15 14  1  0  0  0  0
 16 17  1  0  0  0  0
 17 21  1  0  0  0  0
 17 12  2  0  0  0  0
 18 14  1  0  0  0  0
 19 15  1  0  0  0  0
 20 16  1  0  0  0  0
 21 22  1  0  0  0  0
 23 29  1  0  0  0  0
 24  3  1  0  0  0  0
 24 23  2  0  0  0  0
 25 26  2  0  0  0  0
 25 24  1  0  0  0  0
 26 27  1  0  0  0  0
 27 28  2  0  0  0  0
 28 23  1  0  0  0  0
 30 25  1  0  0  0  0
 31 27  1  0  0  0  0
 32 31  1  0  0  0  0
 32 34  1  0  0  0  0
 33 32  1  0  0  0  0
 34 35  1  0  0  0  0
 36 37  1  0  0  0  0
 36 32  1  0  0  0  0
M  END
>  <minimizedAffinity>
-5.32947969

$$$$

 OpenBabel03272502083D

 37 39  0  0  0  0  0  0  0  0999 V2000
   38.3030   25.2320   34.1050 F   0  0  0  0  0  0  0  0  0  0  0  0
   37.7910   24.0890   33.5450 C   0  0  0  0  0  0  0  0  0  0  0  0
   37.2320   24.0840   32.2820 C   0  0  0  0  0  0  0  0  0  0  0  0
   36.7520   22.8960   31.7760 C   0  0  0  0  0  0  0  0  0  0  0  0
   36.8290   21.7200   32.5270 C   0  0  0  0  0  0  0  0  0  0  0  0
   37.3990   21.7940   33.7820 C   0  0  0  0  0  0  0  0  0  0  0  0
   37.8790   22.9320   34.3150 C   0  0  0  0  0  0  0  0  0  0  0  0
   36.3190   22.9210   30.7860 H   0  0  0  0  0  0  0  0  0  0  0  0
   36.4400   20.8350   32.0760 H   0  0  0  0  0  0  0  0  0  0  0  0
   37.4120   20.8350   34.2790 H   0  0  0  0  0  0  0  0  0  0  0  0
   40.8920   22.1270   34.6050 Br  0  0  0  0  0  0  0  0  0  0  0  0
   39.7440   22.6750   36.0230 C   0  0  0  0  0  0  0  0  0  0  0  0
   38.4560   22.9500   35.6470 C   0  0  0  0  0  0  0  0  0  0  0  0
   37.5440   23.3260   36.6480 C   0  0  0  0  0  0  0  0  0  0  0  0
   37.9330   23.4120   37.9450 C   0  0  0  0  0  0  0  0  0  0  0  0
   39.2540   23.1210   38.2620 C   0  0  0  0  0  0  0  0  0  0  0  0
   40.1830   22.7450   37.2910 C   0  0  0  0  0  0  0  0  0  0  0  0
   36.5140   23.5590   36.4430 H   0  0  0  0  0  0  0  0  0  0  0  0
   37.2480   23.6990   38.7320 H   0  0  0  0  0  0  0  0  0  0  0  0
   39.5980   23.1810   39.2870 H   0  0  0  0  0  0  0  0  0  0  0  0
   41.4900   22.4490   37.5230 O   0  0  0  0  0  0  0  0  0  0  0  0
   42.2700   23.0420   37.2430 H   0  0  0  0  0  0  0  0  0  0  0  0
   36.0380   26.0730   31.6400 C   0  0  0  0  0  0  0  0  0  0  0  0
   37.2140   25.3580   31.6180 C   0  0  0  0  0  0  0  0  0  0  0  0
   38.3000   25.9260   30.9570 C   0  0  0  0  0  0  0  0  0  0  0  0
   38.1630   27.1310   30.3760 N   0  0  0  0  0  0  0  0  0  0  0  0
   37.0180   27.8110   30.4060 C   0  0  0  0  0  0  0  0  0  0  0  0
   35.9610   27.2770   31.0380 N   0  0  0  0  0  0  0  0  0  0  0  0
   35.1050   25.7430   32.1250 H   0  0  0  0  0  0  0  0  0  0  0  0
   39.1920   25.3260   30.9710 H   0  0  0  0  0  0  0  0  0  0  0  0
   36.9710   29.1200   29.7390 C   0  0  0  0  0  2  0  0  0  0  0  0
   36.8910   30.2550   30.5800 N   0  0  0  0  0  4  0  0  0  0  0  0
   37.4180   30.0250   31.4550 H   0  0  0  0  0  0  0  0  0  0  0  0
   37.5520   31.4160   30.0070 C   0  0  0  0  0  2  0  0  0  0  0  0
   36.9990   31.8180   29.1340 H   0  0  0  0  0  0  0  0  0  0  0  0
   35.5820   30.6770   30.9720 C   0  0  0  0  0  2  0  0  0  0  0  0
   35.0830   31.3790   30.2680 H   0  0  0  0  0  0  0  0  0  0  0  0
  2  1  1  0  0  0  0
  2  7  1  0  0  0  0
  3  2  2  0  0  0  0
  4  3  1  0  0  0  0
  4  5  2  0  0  0  0
  5  6  1  0  0  0  0
  6 10  1  0  0  0  0
  6  7  2  0  0  0  0
  7 13  1  0  0  0  0
  8  4  1  0  0  0  0
  9  5  1  0  0  0  0
 11 12  1  0  0  0  0
 12 17  1  0  0  0  0
 13 12  2  0  0  0  0
 13 14  1  0  0  0  0
 14 15  2  0  0  0  0
 15 16  1  0  0  0  0
 15 19  1  0  0  0  0
 16 20  1  0  0  0  0
 17 21  1  0  0  0  0
 17 16  2  0  0  0  0
 18 14  1  0  0  0  0
 22 21  1  0  0  0  0
 23 29  1  0  0  0  0
 24 23  1  0  0  0  0
 24  3  1  0  0  0  0
 25 30  1  0  0  0  0
 25 24  2  0  0  0  0
 26 27  2  0  0  0  0
 26 25  1  0  0  0  0
 27 28  1  0  0  0  0
 28 23  2  0  0  0  0
 31 27  1  0  0  0  0
 31 32  1  0  0  0  0
 32 36  1  0  0  0  0
 32 33  1  0  0  0  0
 34 32  1  0  0  0  0
 35 34  1  0  0  0  0
 37 36  1  0  0  0  0
M  END
>  <minimizedAffinity>
-5.27606344

$$$$
