
 OpenBabel03272502183D

 31 32  0  0  1  0  0  0  0  0999 V2000
   36.1720   29.4330   49.3420 S   0  0  0  0  0  0  0  0  0  0  0  0
   33.5900   28.6990   49.0330 N   0  0  0  0  0  0  0  0  0  0  0  0
   34.4380   29.8740   48.9400 C   0  0  2  0  0  0  0  0  0  0  0  0
   34.3750   30.3870   47.5170 C   0  0  0  0  0  0  0  0  0  0  0  0
   33.2480   29.8730   46.8370 O   0  0  0  0  0  0  0  0  0  0  0  0
   33.5370   28.5110   46.6660 C   0  0  0  0  0  0  0  0  0  0  0  0
   33.9170   27.8180   47.9430 C   0  0  2  0  0  0  0  0  0  0  0  0
   32.6190   29.0520   48.8720 H   0  0  0  0  0  0  0  0  0  0  0  0
   34.1290   30.6830   49.6280 H   0  0  0  0  0  0  0  0  0  0  0  0
   35.2630   29.9870   46.9750 H   0  0  0  0  0  0  0  0  0  0  0  0
   34.4130   31.4920   47.4570 H   0  0  0  0  0  0  0  0  0  0  0  0
   34.4110   28.3880   45.9680 H   0  0  0  0  0  0  0  0  0  0  0  0
   32.6850   28.0160   46.1670 H   0  0  0  0  0  0  0  0  0  0  0  0
   35.0000   27.5510   47.9980 H   0  0  0  0  0  0  0  0  0  0  0  0
   33.1530   26.6370   48.1170 O   0  0  0  0  0  0  0  0  0  0  0  0
   32.6620   26.4080   47.2980 H   0  0  0  0  0  0  0  0  0  0  0  0
   37.2810   30.7070   48.8150 C   0  0  0  0  0  0  0  0  0  0  0  0
   37.2430   31.8320   49.6640 C   0  0  0  0  0  0  0  0  0  0  0  0
   38.0680   32.9200   49.3660 C   0  0  0  0  0  0  0  0  0  0  0  0
   38.8750   32.8330   48.2600 N   0  0  0  0  0  0  0  0  0  0  0  0
   38.8780   31.7340   47.4780 C   0  0  0  0  0  0  0  0  0  0  0  0
   38.0980   30.6910   47.7450 N   0  0  0  0  0  0  0  0  0  0  0  0
   36.6330   31.9520   50.5370 H   0  0  0  0  0  0  0  0  0  0  0  0
   38.0760   33.8030   49.9840 H   0  0  0  0  0  0  0  0  0  0  0  0
   39.7390   31.6090   46.2730 C   0  0  0  0  0  2  0  0  0  0  0  0
   38.9080   31.3520   45.1010 N   0  0  0  0  0  4  0  0  0  0  0  0
   38.0830   30.8190   45.4450 H   0  0  0  0  0  0  0  0  0  0  0  0
   38.5100   32.6550   44.5810 C   0  0  0  0  0  2  0  0  0  0  0  0
   38.2770   32.5970   43.4980 H   0  0  0  0  0  0  0  0  0  0  0  0
   39.6300   30.5820   44.1130 C   0  0  0  0  0  2  0  0  0  0  0  0
   39.3660   29.5200   44.1840 H   0  0  0  0  0  0  0  0  0  0  0  0
  3  2  1  0  0  0  0
  3  1  1  0  0  0  0
  3  9  1  1  0  0  0
  4  3  1  0  0  0  0
  5  4  1  0  0  0  0
  6  5  1  0  0  0  0
  6  7  1  0  0  0  0
  7 14  1  1  0  0  0
  7 15  1  0  0  0  0
  7  2  1  0  0  0  0
  8  2  1  0  0  0  0
 10  4  1  0  0  0  0
 11  4  1  0  0  0  0
 12  6  1  0  0  0  0
 13  6  1  0  0  0  0
 16 15  1  0  0  0  0
 17  1  1  0  0  0  0
 17 18  1  0  0  0  0
 18 23  1  0  0  0  0
 19 18  2  0  0  0  0
 19 24  1  0  0  0  0
 20 19  1  0  0  0  0
 21 22  1  0  0  0  0
 21 20  2  0  0  0  0
 22 17  2  0  0  0  0
 25 21  1  0  0  0  0
 26 27  1  0  0  0  0
 26 25  1  0  0  0  0
 28 26  1  0  0  0  0
 29 28  1  0  0  0  0
 30 31  1  0  0  0  0
 30 26  1  0  0  0  0
M  END
>  <minimizedAffinity>
-4.80452538

>  <minimizedRMSD>
0.169527054

$$$$
