
 OpenBabel03272502183D

 31 32  0  0  1  0  0  0  0  0999 V2000
   36.2330   29.2520   49.4740 S   0  0  0  0  0  0  0  0  0  0  0  0
   33.7560   28.2650   49.0430 N   0  0  0  0  0  0  0  0  0  0  0  0
   34.4560   29.5340   49.1200 C   0  0  2  0  0  0  0  0  0  0  0  0
   34.3220   30.2250   47.7800 C   0  0  0  0  0  0  0  0  0  0  0  0
   33.2590   29.6780   47.0260 O   0  0  0  0  0  0  0  0  0  0  0  0
   33.7080   28.3970   46.6730 C   0  0  0  0  0  0  0  0  0  0  0  0
   34.1780   27.5860   47.8460 C   0  0  2  0  0  0  0  0  0  0  0  0
   32.7480   28.5180   48.9230 H   0  0  0  0  0  0  0  0  0  0  0  0
   34.0570   30.1980   49.9100 H   0  0  0  0  0  0  0  0  0  0  0  0
   35.2470   30.0120   47.1970 H   0  0  0  0  0  0  0  0  0  0  0  0
   34.2270   31.3250   47.8730 H   0  0  0  0  0  0  0  0  0  0  0  0
   34.5850   28.4760   45.9720 H   0  0  0  0  0  0  0  0  0  0  0  0
   32.9180   27.8770   46.1020 H   0  0  0  0  0  0  0  0  0  0  0  0
   35.2840   27.4460   47.8740 H   0  0  0  0  0  0  0  0  0  0  0  0
   33.5610   26.3100   47.8500 O   0  0  0  0  0  0  0  0  0  0  0  0
   33.0950   26.1380   47.0030 H   0  0  0  0  0  0  0  0  0  0  0  0
   37.2030   30.6400   48.9600 C   0  0  0  0  0  0  0  0  0  0  0  0
   37.1160   31.7160   49.8690 C   0  0  0  0  0  0  0  0  0  0  0  0
   37.8310   32.8840   49.5880 C   0  0  0  0  0  0  0  0  0  0  0  0
   38.5820   32.9200   48.4400 N   0  0  0  0  0  0  0  0  0  0  0  0
   38.6340   31.8640   47.6020 C   0  0  0  0  0  0  0  0  0  0  0  0
   37.9600   30.7460   47.8520 N   0  0  0  0  0  0  0  0  0  0  0  0
   36.5460   31.7400   50.7760 H   0  0  0  0  0  0  0  0  0  0  0  0
   37.7980   33.7330   50.2510 H   0  0  0  0  0  0  0  0  0  0  0  0
   39.4380   31.8710   46.3520 C   0  0  0  0  0  0  0  0  0  0  0  0
   38.9410   32.9100   45.4550 N   0  0  0  0  0  0  0  0  0  0  0  0
   38.5610   33.6600   46.0680 H   0  0  0  0  0  0  0  0  0  0  0  0
   40.0900   33.3870   44.6960 C   0  0  0  0  0  0  0  0  0  0  0  0
   39.7730   33.8210   43.7250 H   0  0  0  0  0  0  0  0  0  0  0  0
   37.9050   32.3930   44.5880 C   0  0  0  0  0  0  0  0  0  0  0  0
   36.9130   32.6510   44.9800 H   0  0  0  0  0  0  0  0  0  0  0  0
  2  3  1  0  0  0  0
  3  1  1  0  0  0  0
  3  9  1  1  0  0  0
  4 11  1  0  0  0  0
  4  3  1  0  0  0  0
  5  4  1  0  0  0  0
  6  5  1  0  0  0  0
  6  7  1  0  0  0  0
  7 15  1  0  0  0  0
  7 14  1  6  0  0  0
  7  2  1  0  0  0  0
  8  2  1  0  0  0  0
 10  4  1  0  0  0  0
 12  6  1  0  0  0  0
 13  6  1  0  0  0  0
 16 15  1  0  0  0  0
 17  1  1  0  0  0  0
 17 18  1  0  0  0  0
 18 23  1  0  0  0  0
 19 18  2  0  0  0  0
 19 24  1  0  0  0  0
 20 19  1  0  0  0  0
 21 22  1  0  0  0  0
 21 20  2  0  0  0  0
 22 17  2  0  0  0  0
 25 21  1  0  0  0  0
 26 27  1  0  0  0  0
 26 25  1  0  0  0  0
 28 26  1  0  0  0  0
 29 28  1  0  0  0  0
 30 31  1  0  0  0  0
 30 26  1  0  0  0  0
M  END
>  <minimizedAffinity>
-5.17517519

>  <minimizedRMSD>
1.01850295

$$$$
