
 OpenBabel03272506253D

 30 31  0  0  0  0  0  0  0  0999 V2000
   38.3950   30.6540   45.5560 C   0  0  0  0  0  0  0  0  0  0  0  0
   38.8090   29.6500   44.7040 C   0  0  0  0  0  0  0  0  0  0  0  0
   39.8420   29.7310   43.7970 C   0  0  0  0  0  0  0  0  0  0  0  0
   40.5430   30.9420   43.7240 C   0  0  0  0  0  0  0  0  0  0  0  0
   40.1540   31.9650   44.5630 C   0  0  0  0  0  0  0  0  0  0  0  0
   39.1140   31.8400   45.4560 C   0  0  0  0  0  0  0  0  0  0  0  0
   38.2980   28.6750   44.7130 H   0  0  0  0  0  0  0  0  0  0  0  0
   40.1170   28.9110   43.1590 H   0  0  0  0  0  0  0  0  0  0  0  0
   41.3670   31.0850   43.0370 H   0  0  0  0  0  0  0  0  0  0  0  0
   40.6940   32.9040   44.5110 H   0  0  0  0  0  0  0  0  0  0  0  0
   37.6190   30.1850   47.8070 C   0  0  0  0  0  0  0  0  0  0  0  0
   37.2970   30.3800   46.4320 C   0  0  0  0  0  0  0  0  0  0  0  0
   35.9680   30.2880   46.0660 C   0  0  0  0  0  0  0  0  0  0  0  0
   35.0360   30.0210   47.0170 N   0  0  0  0  0  0  0  0  0  0  0  0
   35.3690   29.8390   48.3280 C   0  0  0  0  0  0  0  0  0  0  0  0
   36.6720   29.9240   48.7140 N   0  0  0  0  0  0  0  0  0  0  0  0
   38.6600   30.2520   48.1260 H   0  0  0  0  0  0  0  0  0  0  0  0
   34.6260   29.6280   49.0730 H   0  0  0  0  0  0  0  0  0  0  0  0
   35.4930   30.4700   44.6660 C   0  0  0  0  0  0  0  0  0  0  0  0
   34.0910   30.6280   44.6700 F   0  0  0  0  0  0  0  0  0  0  0  0
   36.0420   31.4870   43.9630 F   0  0  0  0  0  0  0  0  0  0  0  0
   35.6820   29.2820   43.9510 F   0  0  0  0  0  0  0  0  0  0  0  0
   38.5950   33.1540   46.5510 S   0  0  0  0  0  0  0  0  0  0  0  0
   39.8180   33.4480   47.8530 C   0  0  0  0  0  2  0  0  0  0  0  0
   39.2410   33.2570   49.1720 N   0  0  0  0  0  4  0  0  0  0  0  0
   39.4710   32.3200   49.5390 H   0  0  0  0  0  0  0  0  0  0  0  0
   37.8000   33.3940   49.0810 C   0  0  0  0  0  2  0  0  0  0  0  0
   37.4410   34.2690   49.6750 H   0  0  0  0  0  0  0  0  0  0  0  0
   39.7560   34.2280   50.1240 C   0  0  0  0  0  2  0  0  0  0  0  0
   39.6640   35.2640   49.7710 H   0  0  0  0  0  0  0  0  0  0  0  0
  1 12  1  0  0  0  0
  2  7  1  0  0  0  0
  2  1  2  0  0  0  0
  3  2  1  0  0  0  0
  4  3  2  0  0  0  0
  4  5  1  0  0  0  0
  5  6  2  0  0  0  0
  6  1  1  0  0  0  0
  6 23  1  0  0  0  0
  8  3  1  0  0  0  0
  9  4  1  0  0  0  0
 10  5  1  0  0  0  0
 11 17  1  0  0  0  0
 11 16  1  0  0  0  0
 12 11  2  0  0  0  0
 13 12  1  0  0  0  0
 13 14  2  0  0  0  0
 14 15  1  0  0  0  0
 15 16  2  0  0  0  0
 15 18  1  0  0  0  0
 19 20  1  0  0  0  0
 19 13  1  0  0  0  0
 21 19  1  0  0  0  0
 22 19  1  0  0  0  0
 23 24  1  0  0  0  0
 24 25  1  0  0  0  0
 25 26  1  0  0  0  0
 25 29  1  0  0  0  0
 27 25  1  0  0  0  0
 27 28  1  0  0  0  0
 30 29  1  0  0  0  0
M  END
>  <minimizedAffinity>
-2.52898955

>  <minimizedRMSD>
2.65707207

$$$$
