
     RDKit          3D

 43 44  0  0  0  0  0  0  0  0999 V2000
   35.5167   29.8332   50.5139 C   0  0  0  0  0  0  0  0  0  0  0  0
   37.2634   30.1212   50.7421 S   0  0  0  0  0  0  0  0  0  0  0  0
   37.9099   30.9679   49.3221 C   0  0  0  0  0  0  0  0  0  0  0  0
   38.3397   32.2595   49.5699 C   0  0  0  0  0  0  0  0  0  0  0  0
   38.8684   32.9967   48.4820 C   0  0  0  0  0  0  0  0  0  0  0  0
   38.9221   32.3925   47.2607 N   0  0  0  0  0  0  0  0  0  0  0  0
   38.4834   31.1289   47.0976 C   0  0  0  0  0  0  0  0  0  0  0  0
   37.9879   30.4257   48.0969 N   0  0  0  0  0  0  0  0  0  0  0  0
   35.1235   28.3988   49.4991 S   0  0  0  0  0  0  0  0  0  0  0  0
   32.9542   27.3454   48.1541 C   0  0  1  0  0  0  0  0  0  0  0  0
   33.5857   28.6574   48.5925 C   0  0  2  0  0  0  0  0  0  0  0  0
   33.8050   29.4869   47.3793 C   0  0  0  0  0  0  0  0  0  0  0  0
   33.3965   28.8860   46.2081 O   0  0  0  0  0  0  0  0  0  0  0  0
   32.0401   28.5519   46.2417 C   0  0  0  0  0  0  0  0  0  0  0  0
   31.6820   27.7065   47.4371 C   0  0  2  0  0  0  0  0  0  0  0  0
   33.7660   26.6915   47.2368 O   0  0  0  0  0  0  0  0  0  0  0  0
   30.9375   28.4790   48.3480 O   0  0  0  0  0  0  0  0  0  0  0  0
   34.9955   29.7163   51.4853 H   0  0  0  0  0  0  0  0  0  0  0  0
   35.0291   30.7249   50.0253 H   0  0  0  0  0  0  0  0  0  0  0  0
   38.3166   32.7809   50.5228 H   0  0  0  0  0  0  0  0  0  0  0  0
   39.2144   34.0018   48.6243 H   0  0  0  0  0  0  0  0  0  0  0  0
   38.5502   30.6960   46.0995 H   0  0  0  0  0  0  0  0  0  0  0  0
   32.8089   26.7610   49.0743 H   0  0  0  0  0  0  0  0  0  0  0  0
   32.8264   29.1754   49.2305 H   0  0  0  0  0  0  0  0  0  0  0  0
   34.8800   29.7652   47.2419 H   0  0  0  0  0  0  0  0  0  0  0  0
   33.2602   30.4747   47.4331 H   0  0  0  0  0  0  0  0  0  0  0  0
   31.8633   27.9831   45.3050 H   0  0  0  0  0  0  0  0  0  0  0  0
   31.3900   29.4558   46.1448 H   0  0  0  0  0  0  0  0  0  0  0  0
   31.0832   26.8584   47.0966 H   0  0  0  0  0  0  0  0  0  0  0  0
   34.6109   26.4654   47.7158 H   0  0  0  0  0  0  0  0  0  0  0  0
   29.6766   27.9585   48.5550 C   0  0  0  0  0  0  0  0  0  0  0  0
   28.6037   28.6513   47.9257 N   0  0  0  0  0  4  0  0  0  0  0  0
   28.0181   27.9333   46.8005 C   0  0  0  0  0  0  0  0  0  0  0  0
   28.7804   27.4099   46.2175 H   0  0  0  0  0  0  0  0  0  0  0  0
   27.5485   28.8013   48.9306 C   0  0  0  0  0  0  0  0  0  0  0  0
   26.5925   28.3146   48.6022 H   0  0  0  0  0  0  0  0  0  0  0  0
   29.7014   26.9305   48.1166 H   0  0  0  0  0  0  0  0  0  0  0  0
   29.5162   27.7872   49.6581 H   0  0  0  0  0  0  0  0  0  0  0  0
   28.8157   29.5978   47.5727 H   0  0  0  0  0  0  0  0  0  0  0  0
   27.2358   27.2297   47.1297 H   0  0  0  0  0  0  0  0  0  0  0  0
   27.5319   28.6563   46.0947 H   0  0  0  0  0  0  0  0  0  0  0  0
   27.8537   28.4220   49.9272 H   0  0  0  0  0  0  0  0  0  0  0  0
   27.2858   29.8727   49.0907 H   0  0  0  0  0  0  0  0  0  0  0  0
  1  2  1  0
  3  4  2  0
  3  2  1  0
  5  4  1  0
  6  5  2  0
  7  6  1  0
  7  8  2  0
  8  3  1  0
  9  1  1  0
 10 16  1  0
 10 11  1  0
 11  9  1  0
 12 11  1  0
 13 14  1  0
 13 12  1  0
 14 15  1  0
 15 10  1  0
 15 17  1  0
  1 18  1  0
  1 19  1  0
  4 20  1  0
  5 21  1  0
  7 22  1  0
 10 23  1  1
 11 24  1  1
 12 25  1  0
 12 26  1  0
 14 27  1  0
 14 28  1  0
 15 29  1  6
 16 30  1  0
 31 32  1  0
 32 33  1  0
 33 34  1  0
 32 35  1  0
 35 36  1  0
 31 37  1  0
 31 38  1  0
 32 39  1  0
 33 40  1  0
 33 41  1  0
 35 42  1  0
 35 43  1  0
 17 31  1  0
M  ISO  8  18   8  19   8  20  14  21  14  22  14  23  13  24  13  25  13
M  CHG  1  32   1
M  ISO  7  26  13  27  13  28  13  29  13  30   3  34   8  36   8
M  END
>  <DihAtoms>  (1) 
14,16,30,31

>  <DihDeg>  (1) 
60.00027252250452

$$$$
