
 OpenBabel03272506253D

 30 31  0  0  0  0  0  0  0  0999 V2000
   37.5810   30.3210   47.2500 C   0  0  0  0  0  0  0  0  0  0  0  0
   37.6210   29.7420   45.9970 C   0  0  0  0  0  0  0  0  0  0  0  0
   38.5330   30.0190   45.0040 C   0  0  0  0  0  0  0  0  0  0  0  0
   39.5170   30.9770   45.2810 C   0  0  0  0  0  0  0  0  0  0  0  0
   39.5060   31.5740   46.5230 C   0  0  0  0  0  0  0  0  0  0  0  0
   38.5720   31.2670   47.4880 C   0  0  0  0  0  0  0  0  0  0  0  0
   36.8740   28.9820   45.7190 H   0  0  0  0  0  0  0  0  0  0  0  0
   38.5110   29.5320   44.0460 H   0  0  0  0  0  0  0  0  0  0  0  0
   40.2700   31.2500   44.5530 H   0  0  0  0  0  0  0  0  0  0  0  0
   40.2650   32.3160   46.7430 H   0  0  0  0  0  0  0  0  0  0  0  0
   36.9690   29.5540   49.4690 C   0  0  0  0  0  0  0  0  0  0  0  0
   36.5520   29.9020   48.1510 C   0  0  0  0  0  0  0  0  0  0  0  0
   35.2050   29.8050   47.8590 C   0  0  0  0  0  0  0  0  0  0  0  0
   34.3460   29.3890   48.8250 N   0  0  0  0  0  0  0  0  0  0  0  0
   34.7700   29.0630   50.0800 C   0  0  0  0  0  0  0  0  0  0  0  0
   36.0920   29.1500   50.3930 N   0  0  0  0  0  0  0  0  0  0  0  0
   38.0270   29.6220   49.7290 H   0  0  0  0  0  0  0  0  0  0  0  0
   34.0840   28.7350   50.8390 H   0  0  0  0  0  0  0  0  0  0  0  0
   34.6340   30.1360   46.5240 C   0  0  0  0  0  0  0  0  0  0  0  0
   33.3240   30.6330   46.6910 F   0  0  0  0  0  0  0  0  0  0  0  0
   35.3330   31.0070   45.7610 F   0  0  0  0  0  0  0  0  0  0  0  0
   34.4400   28.9580   45.7930 F   0  0  0  0  0  0  0  0  0  0  0  0
   38.5420   32.0290   49.1040 S   0  0  0  0  0  0  0  0  0  0  0  0
   38.0730   33.7750   49.0000 C   0  0  0  0  0  2  0  0  0  0  0  0
   39.2220   34.6430   49.1930 N   0  0  0  0  0  4  0  0  0  0  0  0
   38.9210   35.6230   49.3160 H   0  0  0  0  0  0  0  0  0  0  0  0
   40.0830   34.5510   48.0290 C   0  0  0  0  0  2  0  0  0  0  0  0
   41.0770   34.1220   48.2980 H   0  0  0  0  0  0  0  0  0  0  0  0
   39.9770   34.2730   50.3780 C   0  0  0  0  0  2  0  0  0  0  0  0
   40.2460   33.2080   50.3990 H   0  0  0  0  0  0  0  0  0  0  0  0
  1  6  1  0  0  0  0
  1 12  1  0  0  0  0
  2  1  2  0  0  0  0
  3  4  2  0  0  0  0
  3  2  1  0  0  0  0
  4  5  1  0  0  0  0
  5 10  1  0  0  0  0
  5  6  2  0  0  0  0
  6 23  1  0  0  0  0
  7  2  1  0  0  0  0
  8  3  1  0  0  0  0
  9  4  1  0  0  0  0
 11 17  1  0  0  0  0
 11 16  1  0  0  0  0
 12 11  2  0  0  0  0
 13 12  1  0  0  0  0
 13 14  2  0  0  0  0
 14 15  1  0  0  0  0
 15 16  2  0  0  0  0
 15 18  1  0  0  0  0
 19 20  1  0  0  0  0
 19 13  1  0  0  0  0
 21 19  1  0  0  0  0
 22 19  1  0  0  0  0
 24 23  1  0  0  0  0
 24 25  1  0  0  0  0
 25 26  1  0  0  0  0
 25 29  1  0  0  0  0
 27 28  1  0  0  0  0
 27 25  1  0  0  0  0
 29 30  1  0  0  0  0
M  END
>  <minimizedAffinity>
-3.29986787

>  <minimizedRMSD>
1.40009165

$$$$
