
 OpenBabel03262521543D

 37 38  0  0  1  0  0  0  0  0999 V2000
   32.6640   27.0860   48.1660 C   0  0  1  0  0  0  0  0  0  0  0  0
   33.3120   28.4410   48.4040 C   0  0  2  0  0  0  0  0  0  0  0  0
   33.6030   29.0470   47.0770 C   0  0  0  0  0  0  0  0  0  0  0  0
   33.2280   28.2620   46.0080 O   0  0  0  0  0  0  0  0  0  0  0  0
   31.8620   27.9650   46.0370 C   0  0  0  0  0  0  0  0  0  0  0  0
   31.4330   27.3430   47.3410 C   0  0  2  0  0  0  0  0  0  0  0  0
   32.4660   26.6710   49.1640 H   0  0  0  0  0  0  0  0  0  0  0  0
   32.5410   29.0750   48.9080 H   0  0  0  0  0  0  0  0  0  0  0  0
   34.6900   29.2760   46.9440 H   0  0  0  0  0  0  0  0  0  0  0  0
   33.0830   30.0400   46.9380 H   0  0  0  0  0  0  0  0  0  0  0  0
   31.7090   27.2480   45.2040 H   0  0  0  0  0  0  0  0  0  0  0  0
   31.2410   28.8520   45.7590 H   0  0  0  0  0  0  0  0  0  0  0  0
   30.8260   26.4620   47.1240 H   0  0  0  0  0  0  0  0  0  0  0  0
   33.4950   26.2700   47.4110 O   0  0  0  0  0  0  0  0  0  0  0  0
   34.3130   26.1120   47.9590 H   0  0  0  0  0  0  0  0  0  0  0  0
   34.8030   28.3120   49.4090 S   0  0  0  0  0  0  0  0  0  0  0  0
   35.2230   29.9030   50.1400 C   0  0  0  0  0  0  0  0  0  0  0  0
   34.5850   30.0440   51.0350 H   0  0  0  0  0  0  0  0  0  0  0  0
   34.8870   30.6970   49.4120 H   0  0  0  0  0  0  0  0  0  0  0  0
   36.9520   30.1040   50.5320 S   0  0  0  0  0  0  0  0  0  0  0  0
   37.7630   30.9490   49.1980 C   0  0  0  0  0  0  0  0  0  0  0  0
   38.2050   32.2230   49.5090 C   0  0  0  0  0  0  0  0  0  0  0  0
   38.8620   32.9580   48.4920 C   0  0  0  0  0  0  0  0  0  0  0  0
   39.0200   32.3680   47.2720 N   0  0  0  0  0  0  0  0  0  0  0  0
   38.5610   31.1220   47.0450 C   0  0  0  0  0  0  0  0  0  0  0  0
   37.9470   30.4220   47.9780 N   0  0  0  0  0  0  0  0  0  0  0  0
   38.1030   32.7320   50.4640 H   0  0  0  0  0  0  0  0  0  0  0  0
   39.2220   33.9490   48.6840 H   0  0  0  0  0  0  0  0  0  0  0  0
   38.7150   30.7010   46.0510 H   0  0  0  0  0  0  0  0  0  0  0  0
   30.6730   28.2750   48.0730 O   0  0  0  0  0  0  0  0  0  0  0  0
   29.3280   27.9690   48.0570 C   0  0  0  0  0  2  0  0  0  0  0  0
   28.9090   26.9450   48.9540 N   0  0  0  0  0  4  0  0  0  0  0  0
   29.3250   26.0120   48.8080 H   0  0  0  0  0  0  0  0  0  0  0  0
   29.1390   27.2620   50.3590 C   0  0  0  0  0  2  0  0  0  0  0  0
   30.0820   27.7970   50.5000 H   0  0  0  0  0  0  0  0  0  0  0  0
   27.4630   26.7950   48.7840 C   0  0  0  0  0  2  0  0  0  0  0  0
   26.9110   26.9860   49.7420 H   0  0  0  0  0  0  0  0  0  0  0  0
  1  2  1  0  0  0  0
  1  7  1  1  0  0  0
  2  8  1  1  0  0  0
  2 16  1  0  0  0  0
  3  2  1  0  0  0  0
  4  5  1  0  0  0  0
  4  3  1  0  0  0  0
  5  6  1  0  0  0  0
  6 13  1  6  0  0  0
  6 30  1  0  0  0  0
  6  1  1  0  0  0  0
  9  3  1  0  0  0  0
 10  3  1  0  0  0  0
 11  5  1  0  0  0  0
 12  5  1  0  0  0  0
 14 15  1  0  0  0  0
 14  1  1  0  0  0  0
 16 17  1  0  0  0  0
 17 20  1  0  0  0  0
 17 18  1  0  0  0  0
 19 17  1  0  0  0  0
 21 22  1  0  0  0  0
 21 20  1  0  0  0  0
 22 27  1  0  0  0  0
 23 28  1  0  0  0  0
 23 22  2  0  0  0  0
 24 23  1  0  0  0  0
 25 24  2  0  0  0  0
 25 26  1  0  0  0  0
 26 21  2  0  0  0  0
 29 25  1  0  0  0  0
 31 30  1  0  0  0  0
 31 32  1  0  0  0  0
 32 34  1  0  0  0  0
 33 32  1  0  0  0  0
 34 35  1  0  0  0  0
 36 32  1  0  0  0  0
 36 37  1  0  0  0  0
M  END
>  <minimizedAffinity>
-4.44266272

>  <minimizedRMSD>
0.564516187

$$$$
