
 OpenBabel03262522143D

 43 45  0  0  1  0  0  0  0  0999 V2000
   39.5800   32.9610   43.8010 C   0  0  0  0  0  0  0  0  0  0  0  0
   38.5170   32.8290   44.0500 H   0  0  0  0  0  0  0  0  0  0  0  0
   39.7520   33.8680   43.2100 H   0  0  0  0  0  0  0  0  0  0  0  0
   38.8360   29.8320   42.2960 C   0  0  1  0  0  0  0  0  0  0  0  0
   38.8510   31.3360   42.0630 C   0  0  0  0  0  0  0  0  0  0  0  0
   39.9870   31.7630   42.9590 C   0  0  2  0  0  0  0  0  0  0  0  0
   40.3690   30.6910   43.7170 O   0  0  0  0  0  0  0  0  0  0  0  0
   39.3230   29.7750   43.7360 C   0  0  0  0  0  0  0  0  0  0  0  0
   39.5580   29.3280   41.6370 H   0  0  0  0  0  0  0  0  0  0  0  0
   39.1420   31.4810   41.0220 H   0  0  0  0  0  0  0  0  0  0  0  0
   37.9070   31.7980   42.3540 H   0  0  0  0  0  0  0  0  0  0  0  0
   40.8670   32.0890   42.3650 H   0  0  0  0  0  0  0  0  0  0  0  0
   38.5090   30.0730   44.3990 H   0  0  0  0  0  0  0  0  0  0  0  0
   39.7130   28.7560   43.9660 H   0  0  0  0  0  0  0  0  0  0  0  0
   37.5660   29.3120   42.1660 O   0  0  0  0  0  0  0  0  0  0  0  0
   36.8900   29.0670   43.3270 C   0  0  0  0  0  2  0  0  0  0  0  0
   35.5030   29.4910   43.0780 N   0  0  0  0  0  4  0  0  0  0  0  0
   35.3340   29.2120   42.0680 H   0  0  0  0  0  0  0  0  0  0  0  0
   35.3250   30.9030   43.2260 C   0  0  0  0  0  2  0  0  0  0  0  0
   36.2710   31.4140   42.9640 H   0  0  0  0  0  0  0  0  0  0  0  0
   34.5690   28.7080   43.8700 C   0  0  0  0  0  2  0  0  0  0  0  0
   33.7160   28.3470   43.2290 H   0  0  0  0  0  0  0  0  0  0  0  0
   40.6800   32.9890   45.2400 S   0  0  0  0  0  0  0  0  0  0  0  0
   37.7840   31.7610   47.6610 C   0  0  0  0  0  0  0  0  0  0  0  0
   37.9360   32.5500   48.8120 C   0  0  0  0  0  0  0  0  0  0  0  0
   38.9370   33.4950   48.8940 C   0  0  0  0  0  0  0  0  0  0  0  0
   39.7600   33.6100   47.7930 C   0  0  0  0  0  0  0  0  0  0  0  0
   39.5880   32.8330   46.6940 C   0  0  0  0  0  0  0  0  0  0  0  0
   38.6120   31.9050   46.6010 N   0  0  0  0  0  0  0  0  0  0  0  0
   37.2610   32.4140   49.6410 H   0  0  0  0  0  0  0  0  0  0  0  0
   39.0630   34.1130   49.7830 H   0  0  0  0  0  0  0  0  0  0  0  0
   40.5530   34.3470   47.8360 H   0  0  0  0  0  0  0  0  0  0  0  0
   36.7100   30.7940   47.6560 C   0  0  0  0  0  0  0  0  0  0  0  0
   36.2240   30.3920   46.5950 O   0  0  0  0  0  0  0  0  0  0  0  0
   37.0240   29.6280   49.8070 C   0  0  0  0  0  0  0  0  0  0  0  0
   36.1400   30.2390   48.8900 C   0  0  0  0  0  0  0  0  0  0  0  0
   34.7830   30.2870   49.1980 C   0  0  0  0  0  0  0  0  0  0  0  0
   34.3460   29.7440   50.3720 N   0  0  0  0  0  0  0  0  0  0  0  0
   35.2220   29.1620   51.2340 C   0  0  0  0  0  0  0  0  0  0  0  0
   36.5360   29.1060   50.9540 N   0  0  0  0  0  0  0  0  0  0  0  0
   38.0960   29.5530   49.6370 H   0  0  0  0  0  0  0  0  0  0  0  0
   34.1710   30.7600   48.4660 H   0  0  0  0  0  0  0  0  0  0  0  0
   34.7040   28.7890   52.1040 H   0  0  0  0  0  0  0  0  0  0  0  0
  1  2  1  0  0  0  0
  1 23  1  0  0  0  0
  3  1  1  0  0  0  0
  4  9  1  6  0  0  0
  4  8  1  0  0  0  0
  5  4  1  0  0  0  0
  5 11  1  0  0  0  0
  5  6  1  0  0  0  0
  6 12  1  6  0  0  0
  6  7  1  0  0  0  0
  6  1  1  0  0  0  0
  7  8  1  0  0  0  0
  8 14  1  0  0  0  0
  8 13  1  0  0  0  0
 10  5  1  0  0  0  0
 15  4  1  0  0  0  0
 15 16  1  0  0  0  0
 17 19  1  0  0  0  0
 17 16  1  0  0  0  0
 17 21  1  0  0  0  0
 18 17  1  0  0  0  0
 20 19  1  0  0  0  0
 22 21  1  0  0  0  0
 23 28  1  0  0  0  0
 24 25  1  0  0  0  0
 25 26  2  0  0  0  0
 25 30  1  0  0  0  0
 26 31  1  0  0  0  0
 27 32  1  0  0  0  0
 27 26  1  0  0  0  0
 28 27  2  0  0  0  0
 29 28  1  0  0  0  0
 29 24  2  0  0  0  0
 33 24  1  0  0  0  0
 33 36  1  0  0  0  0
 34 33  2  0  0  0  0
 35 40  1  0  0  0  0
 36 37  1  0  0  0  0
 36 35  2  0  0  0  0
 37 38  2  0  0  0  0
 38 39  1  0  0  0  0
 39 43  1  0  0  0  0
 40 39  2  0  0  0  0
 41 35  1  0  0  0  0
 42 37  1  0  0  0  0
M  END
>  <minimizedAffinity>
-4.95107603

>  <minimizedRMSD>
1.64016175

$$$$
