
 OpenBabel03262522143D

 43 45  0  0  1  0  0  0  0  0999 V2000
   39.5830   32.9530   43.7960 C   0  0  0  0  0  0  0  0  0  0  0  0
   38.5170   32.8430   44.0450 H   0  0  0  0  0  0  0  0  0  0  0  0
   39.7740   33.8480   43.1940 H   0  0  0  0  0  0  0  0  0  0  0  0
   38.7830   29.8200   42.3280 C   0  0  1  0  0  0  0  0  0  0  0  0
   38.8310   31.3200   42.0750 C   0  0  0  0  0  0  0  0  0  0  0  0
   39.9700   31.7350   42.9720 C   0  0  2  0  0  0  0  0  0  0  0  0
   40.3260   30.6660   43.7460 O   0  0  0  0  0  0  0  0  0  0  0  0
   39.2610   29.7720   43.7710 C   0  0  0  0  0  0  0  0  0  0  0  0
   39.4980   29.2930   41.6790 H   0  0  0  0  0  0  0  0  0  0  0  0
   39.1290   31.4460   41.0350 H   0  0  0  0  0  0  0  0  0  0  0  0
   37.8940   31.8050   42.3550 H   0  0  0  0  0  0  0  0  0  0  0  0
   40.8600   32.0350   42.3800 H   0  0  0  0  0  0  0  0  0  0  0  0
   38.4500   30.0950   44.4260 H   0  0  0  0  0  0  0  0  0  0  0  0
   39.6290   28.7470   44.0160 H   0  0  0  0  0  0  0  0  0  0  0  0
   37.5030   29.3250   42.1980 O   0  0  0  0  0  0  0  0  0  0  0  0
   37.3840   27.9660   42.1260 C   0  0  0  0  0  2  0  0  0  0  0  0
   36.3300   27.6090   43.0890 N   0  0  0  0  0  4  0  0  0  0  0  0
   36.8620   27.4470   43.9930 H   0  0  0  0  0  0  0  0  0  0  0  0
   35.6280   26.4190   42.7200 C   0  0  0  0  0  2  0  0  0  0  0  0
   36.3140   25.7570   42.1550 H   0  0  0  0  0  0  0  0  0  0  0  0
   35.4510   28.7400   43.3410 C   0  0  0  0  0  2  0  0  0  0  0  0
   35.2880   28.8720   44.4480 H   0  0  0  0  0  0  0  0  0  0  0  0
   40.6810   32.9800   45.2380 S   0  0  0  0  0  0  0  0  0  0  0  0
   37.7770   31.7560   47.6520 C   0  0  0  0  0  0  0  0  0  0  0  0
   37.9290   32.5420   48.8040 C   0  0  0  0  0  0  0  0  0  0  0  0
   38.9330   33.4850   48.8890 C   0  0  0  0  0  0  0  0  0  0  0  0
   39.7570   33.6000   47.7900 C   0  0  0  0  0  0  0  0  0  0  0  0
   39.5860   32.8250   46.6900 C   0  0  0  0  0  0  0  0  0  0  0  0
   38.6080   31.8990   46.5940 N   0  0  0  0  0  0  0  0  0  0  0  0
   37.2530   32.4080   49.6320 H   0  0  0  0  0  0  0  0  0  0  0  0
   39.0580   34.1010   49.7800 H   0  0  0  0  0  0  0  0  0  0  0  0
   40.5520   34.3340   47.8360 H   0  0  0  0  0  0  0  0  0  0  0  0
   36.7010   30.7910   47.6430 C   0  0  0  0  0  0  0  0  0  0  0  0
   36.2150   30.3930   46.5810 O   0  0  0  0  0  0  0  0  0  0  0  0
   37.0110   29.6260   49.7960 C   0  0  0  0  0  0  0  0  0  0  0  0
   36.1290   30.2350   48.8760 C   0  0  0  0  0  0  0  0  0  0  0  0
   34.7710   30.2790   49.1790 C   0  0  0  0  0  0  0  0  0  0  0  0
   34.3300   29.7350   50.3520 N   0  0  0  0  0  0  0  0  0  0  0  0
   35.2050   29.1560   51.2170 C   0  0  0  0  0  0  0  0  0  0  0  0
   36.5200   29.1040   50.9410 N   0  0  0  0  0  0  0  0  0  0  0  0
   38.0840   29.5540   49.6300 H   0  0  0  0  0  0  0  0  0  0  0  0
   34.1590   30.7510   48.4450 H   0  0  0  0  0  0  0  0  0  0  0  0
   34.6850   28.7810   52.0850 H   0  0  0  0  0  0  0  0  0  0  0  0
  1  2  1  0  0  0  0
  1 23  1  0  0  0  0
  3  1  1  0  0  0  0
  4  9  1  6  0  0  0
  4  8  1  0  0  0  0
  5  4  1  0  0  0  0
  5 11  1  0  0  0  0
  5  6  1  0  0  0  0
  6 12  1  6  0  0  0
  6  7  1  0  0  0  0
  6  1  1  0  0  0  0
  7  8  1  0  0  0  0
  8 14  1  0  0  0  0
  8 13  1  0  0  0  0
 10  5  1  0  0  0  0
 15  4  1  0  0  0  0
 16 15  1  0  0  0  0
 16 17  1  0  0  0  0
 17 21  1  0  0  0  0
 17 18  1  0  0  0  0
 19 17  1  0  0  0  0
 20 19  1  0  0  0  0
 21 22  1  0  0  0  0
 23 28  1  0  0  0  0
 24 25  1  0  0  0  0
 25 26  2  0  0  0  0
 25 30  1  0  0  0  0
 26 31  1  0  0  0  0
 27 32  1  0  0  0  0
 27 26  1  0  0  0  0
 28 27  2  0  0  0  0
 29 28  1  0  0  0  0
 29 24  2  0  0  0  0
 33 24  1  0  0  0  0
 33 36  1  0  0  0  0
 34 33  2  0  0  0  0
 35 40  1  0  0  0  0
 36 37  1  0  0  0  0
 36 35  2  0  0  0  0
 37 38  2  0  0  0  0
 38 39  1  0  0  0  0
 39 43  1  0  0  0  0
 40 39  2  0  0  0  0
 41 35  1  0  0  0  0
 42 37  1  0  0  0  0
M  END
>  <minimizedAffinity>
-4.88943005

>  <minimizedRMSD>
0.52925235

$$$$
