
 OpenBabel03262522143D

 43 45  0  0  1  0  0  0  0  0999 V2000
   39.5750   32.9070   43.8000 C   0  0  0  0  0  0  0  0  0  0  0  0
   38.5140   32.7620   44.0500 H   0  0  0  0  0  0  0  0  0  0  0  0
   39.7310   33.7950   43.1760 H   0  0  0  0  0  0  0  0  0  0  0  0
   38.8660   29.7620   42.3100 C   0  0  1  0  0  0  0  0  0  0  0  0
   38.9210   31.2610   42.0510 C   0  0  0  0  0  0  0  0  0  0  0  0
   40.0100   31.6870   43.0040 C   0  0  2  0  0  0  0  0  0  0  0  0
   40.3280   30.6240   43.8030 O   0  0  0  0  0  0  0  0  0  0  0  0
   39.2680   29.7240   43.7770 C   0  0  0  0  0  0  0  0  0  0  0  0
   39.6170   29.2350   41.7040 H   0  0  0  0  0  0  0  0  0  0  0  0
   39.2740   31.3820   41.0270 H   0  0  0  0  0  0  0  0  0  0  0  0
   37.9690   31.7440   42.2780 H   0  0  0  0  0  0  0  0  0  0  0  0
   40.9280   31.9870   42.4580 H   0  0  0  0  0  0  0  0  0  0  0  0
   38.4210   30.0480   44.3860 H   0  0  0  0  0  0  0  0  0  0  0  0
   39.6270   28.7040   44.0480 H   0  0  0  0  0  0  0  0  0  0  0  0
   37.5970   29.2610   42.1160 O   0  0  0  0  0  0  0  0  0  0  0  0
   37.4700   28.2880   41.1650 C   0  0  0  0  0  2  0  0  0  0  0  0
   37.8090   27.0260   41.8410 N   0  0  0  0  0  4  0  0  0  0  0  0
   38.6340   27.2850   42.4550 H   0  0  0  0  0  0  0  0  0  0  0  0
   38.1900   25.9960   40.9250 C   0  0  0  0  0  2  0  0  0  0  0  0
   38.6580   26.4610   40.0360 H   0  0  0  0  0  0  0  0  0  0  0  0
   36.7470   26.6220   42.7510 C   0  0  0  0  0  2  0  0  0  0  0  0
   37.1780   26.3290   43.7500 H   0  0  0  0  0  0  0  0  0  0  0  0
   40.6680   33.0110   45.2400 S   0  0  0  0  0  0  0  0  0  0  0  0
   37.7780   31.7620   47.6570 C   0  0  0  0  0  0  0  0  0  0  0  0
   37.9310   32.5430   48.8130 C   0  0  0  0  0  0  0  0  0  0  0  0
   38.9310   33.4890   48.9000 C   0  0  0  0  0  0  0  0  0  0  0  0
   39.7510   33.6130   47.7990 C   0  0  0  0  0  0  0  0  0  0  0  0
   39.5790   32.8440   46.6950 C   0  0  0  0  0  0  0  0  0  0  0  0
   38.6050   31.9140   46.5970 N   0  0  0  0  0  0  0  0  0  0  0  0
   37.2580   32.4010   49.6420 H   0  0  0  0  0  0  0  0  0  0  0  0
   39.0570   34.1000   49.7940 H   0  0  0  0  0  0  0  0  0  0  0  0
   40.5440   34.3500   47.8460 H   0  0  0  0  0  0  0  0  0  0  0  0
   36.7060   30.7930   47.6470 C   0  0  0  0  0  0  0  0  0  0  0  0
   36.2240   30.3920   46.5840 O   0  0  0  0  0  0  0  0  0  0  0  0
   37.0140   29.6270   49.8000 C   0  0  0  0  0  0  0  0  0  0  0  0
   36.1320   30.2360   48.8790 C   0  0  0  0  0  0  0  0  0  0  0  0
   34.7740   30.2790   49.1810 C   0  0  0  0  0  0  0  0  0  0  0  0
   34.3330   29.7340   50.3530 N   0  0  0  0  0  0  0  0  0  0  0  0
   35.2070   29.1550   51.2180 C   0  0  0  0  0  0  0  0  0  0  0  0
   36.5220   29.1040   50.9440 N   0  0  0  0  0  0  0  0  0  0  0  0
   38.0870   29.5560   49.6340 H   0  0  0  0  0  0  0  0  0  0  0  0
   34.1630   30.7510   48.4460 H   0  0  0  0  0  0  0  0  0  0  0  0
   34.6870   28.7790   52.0860 H   0  0  0  0  0  0  0  0  0  0  0  0
  1  2  1  0  0  0  0
  1 23  1  0  0  0  0
  3  1  1  0  0  0  0
  4  9  1  6  0  0  0
  4  8  1  0  0  0  0
  5 11  1  0  0  0  0
  5  4  1  0  0  0  0
  5  6  1  0  0  0  0
  6 12  1  6  0  0  0
  6  1  1  0  0  0  0
  6  7  1  0  0  0  0
  8  7  1  0  0  0  0
  8 14  1  0  0  0  0
  8 13  1  0  0  0  0
 10  5  1  0  0  0  0
 15  4  1  0  0  0  0
 16 17  1  0  0  0  0
 16 15  1  0  0  0  0
 17 18  1  0  0  0  0
 17 21  1  0  0  0  0
 19 17  1  0  0  0  0
 20 19  1  0  0  0  0
 21 22  1  0  0  0  0
 23 28  1  0  0  0  0
 24 25  1  0  0  0  0
 25 26  2  0  0  0  0
 25 30  1  0  0  0  0
 26 31  1  0  0  0  0
 27 32  1  0  0  0  0
 27 26  1  0  0  0  0
 28 27  2  0  0  0  0
 29 28  1  0  0  0  0
 29 24  2  0  0  0  0
 33 24  1  0  0  0  0
 33 36  1  0  0  0  0
 34 33  2  0  0  0  0
 35 40  1  0  0  0  0
 36 37  1  0  0  0  0
 36 35  2  0  0  0  0
 37 38  2  0  0  0  0
 38 39  1  0  0  0  0
 39 43  1  0  0  0  0
 40 39  2  0  0  0  0
 41 35  1  0  0  0  0
 42 37  1  0  0  0  0
M  END
>  <minimizedAffinity>
-4.86504173

>  <minimizedRMSD>
0.206743702

$$$$
