
 OpenBabel03262521223D

 31 31  0  0  0  0  0  0  0  0999 V2000
   38.0760   26.9500   35.7060 C   0  0  0  0  0  0  0  0  0  0  0  0
   39.1940   26.9820   35.7120 H   0  0  0  0  0  0  0  0  0  0  0  0
   37.7940   27.5680   36.6080 H   0  0  0  0  0  0  0  0  0  0  0  0
   37.4380   27.2790   34.5730 C   0  0  0  0  0  0  0  0  0  0  0  0
   36.5140   26.6330   34.4280 H   0  0  0  0  0  0  0  0  0  0  0  0
   36.9850   28.2930   34.4510 H   0  0  0  0  0  0  0  0  0  0  0  0
   38.2470   27.0610   33.3140 C   0  0  0  0  0  0  0  0  0  0  0  0
   38.9490   27.9040   33.1450 H   0  0  0  0  0  0  0  0  0  0  0  0
   38.9010   26.1800   33.4870 H   0  0  0  0  0  0  0  0  0  0  0  0
   37.2690   26.8150   31.8670 S   0  0  0  0  0  0  0  0  0  0  0  0
   37.4980   25.2320   31.0670 C   0  0  0  0  0  2  0  0  0  0  0  0
   36.2580   24.6500   30.6610 N   0  0  0  0  0  4  0  0  0  0  0  0
   36.2620   24.5580   29.6030 H   0  0  0  0  0  0  0  0  0  0  0  0
   35.1900   25.6050   30.9650 C   0  0  0  0  0  2  0  0  0  0  0  0
   35.6260   26.6200   31.0440 H   0  0  0  0  0  0  0  0  0  0  0  0
   35.9430   23.3800   31.2310 C   0  0  0  0  0  2  0  0  0  0  0  0
   36.7380   22.9010   31.8120 H   0  0  0  0  0  0  0  0  0  0  0  0
   37.5490   25.6960   35.9150 O   0  0  0  0  0  0  0  0  0  0  0  0
   38.3690   24.7330   36.4250 C   0  0  0  0  0  0  0  0  0  0  0  0
   37.9990   24.3400   37.7030 C   0  0  0  0  0  0  0  0  0  0  0  0
   38.7480   23.3490   38.3700 C   0  0  0  0  0  0  0  0  0  0  0  0
   39.8280   22.8320   37.6740 N   0  0  0  0  0  0  0  0  0  0  0  0
   40.1610   23.2420   36.4200 C   0  0  0  0  0  0  0  0  0  0  0  0
   39.4340   24.1820   35.8130 N   0  0  0  0  0  0  0  0  0  0  0  0
   41.9100   21.6100   36.5750 C   0  0  0  0  0  0  0  0  0  0  0  0
   41.5390   21.2100   37.7210 O   0  0  0  0  0  0  0  0  0  0  0  0
   41.2880   22.6350   35.8180 N   0  0  0  0  0  0  0  0  0  0  0  0
   37.1770   24.7090   38.2800 H   0  0  0  0  0  0  0  0  0  0  0  0
   38.5030   23.0170   39.3490 H   0  0  0  0  0  0  0  0  0  0  0  0
   42.7790   21.0620   36.2350 H   0  0  0  0  0  0  0  0  0  0  0  0
   41.6560   22.9060   34.8770 H   0  0  0  0  0  0  0  0  0  0  0  0
  1  2  1  0  0  0  0
  1 18  1  0  0  0  0
  1  3  1  0  0  0  0
  4  1  1  0  0  0  0
  5  4  1  0  0  0  0
  6  4  1  0  0  0  0
  7  9  1  0  0  0  0
  7  4  1  0  0  0  0
  8  7  1  0  0  0  0
 10  7  1  0  0  0  0
 11 10  1  0  0  0  0
 12 14  1  0  0  0  0
 12 11  1  0  0  0  0
 12 16  1  0  0  0  0
 13 12  1  0  0  0  0
 14 15  1  0  0  0  0
 16 17  1  0  0  0  0
 18 19  1  0  0  0  0
 19 20  1  0  0  0  0
 20 28  1  0  0  0  0
 20 21  2  0  0  0  0
 21 29  1  0  0  0  0
 22 21  1  0  0  0  0
 23 22  2  0  0  0  0
 24 23  1  0  0  0  0
 24 19  2  0  0  0  0
 25 26  2  0  0  0  0
 27 23  1  0  0  0  0
 27 25  1  0  0  0  0
 30 25  1  0  0  0  0
 31 27  1  0  0  0  0
M  END
>  <minimizedAffinity>
-4.23505163

$$$$

 OpenBabel03262521223D

 31 31  0  0  0  0  0  0  0  0999 V2000
   36.9910   26.7270   34.5260 C   0  0  0  0  0  0  0  0  0  0  0  0
   36.5180   25.8520   35.0390 H   0  0  0  0  0  0  0  0  0  0  0  0
   36.1380   27.4600   34.4270 H   0  0  0  0  0  0  0  0  0  0  0  0
   38.1170   27.2350   35.0470 C   0  0  0  0  0  0  0  0  0  0  0  0
   38.7770   27.6740   34.2320 H   0  0  0  0  0  0  0  0  0  0  0  0
   38.0760   28.1030   35.7490 H   0  0  0  0  0  0  0  0  0  0  0  0
   39.0000   26.2200   35.7360 C   0  0  0  0  0  0  0  0  0  0  0  0
   39.7640   25.8210   35.0370 H   0  0  0  0  0  0  0  0  0  0  0  0
   39.5820   26.7580   36.5140 H   0  0  0  0  0  0  0  0  0  0  0  0
   38.1150   24.8770   36.4620 S   0  0  0  0  0  0  0  0  0  0  0  0
   38.8200   23.2620   36.1540 C   0  0  0  0  0  2  0  0  0  0  0  0
   39.1640   22.5860   37.3640 N   0  0  0  0  0  4  0  0  0  0  0  0
   38.6040   21.6850   37.4160 H   0  0  0  0  0  0  0  0  0  0  0  0
   38.6960   23.4010   38.4870 C   0  0  0  0  0  2  0  0  0  0  0  0
   37.8920   24.0760   38.1310 H   0  0  0  0  0  0  0  0  0  0  0  0
   40.5470   22.2770   37.5400 C   0  0  0  0  0  2  0  0  0  0  0  0
   41.1950   22.4540   36.6750 H   0  0  0  0  0  0  0  0  0  0  0  0
   37.4240   26.4600   33.2470 O   0  0  0  0  0  0  0  0  0  0  0  0
   36.9900   25.3150   32.6480 C   0  0  0  0  0  0  0  0  0  0  0  0
   35.9530   25.5410   31.7540 C   0  0  0  0  0  0  0  0  0  0  0  0
   35.3920   24.4560   31.0510 C   0  0  0  0  0  0  0  0  0  0  0  0
   35.9380   23.2110   31.3180 N   0  0  0  0  0  0  0  0  0  0  0  0
   36.9560   23.0280   32.2020 C   0  0  0  0  0  0  0  0  0  0  0  0
   37.4670   24.0740   32.8540 N   0  0  0  0  0  0  0  0  0  0  0  0
   36.8130   20.7200   31.5690 C   0  0  0  0  0  0  0  0  0  0  0  0
   35.9030   20.9330   30.7100 O   0  0  0  0  0  0  0  0  0  0  0  0
   37.4240   21.7050   32.3860 N   0  0  0  0  0  0  0  0  0  0  0  0
   35.4990   26.4800   31.5150 H   0  0  0  0  0  0  0  0  0  0  0  0
   34.5980   24.5800   30.3570 H   0  0  0  0  0  0  0  0  0  0  0  0
   37.0750   19.6710   31.6050 H   0  0  0  0  0  0  0  0  0  0  0  0
   38.1700   21.4470   33.0720 H   0  0  0  0  0  0  0  0  0  0  0  0
  1  2  1  0  0  0  0
  1  4  1  0  0  0  0
  3  1  1  0  0  0  0
  4  7  1  0  0  0  0
  4  6  1  0  0  0  0
  5  4  1  0  0  0  0
  7 10  1  0  0  0  0
  7  9  1  0  0  0  0
  8  7  1  0  0  0  0
 11 10  1  0  0  0  0
 11 12  1  0  0  0  0
 12 13  1  0  0  0  0
 12 16  1  0  0  0  0
 12 14  1  0  0  0  0
 15 14  1  0  0  0  0
 17 16  1  0  0  0  0
 18  1  1  0  0  0  0
 19 24  1  0  0  0  0
 19 18  1  0  0  0  0
 20 19  2  0  0  0  0
 21 22  2  0  0  0  0
 21 20  1  0  0  0  0
 22 23  1  0  0  0  0
 23 27  1  0  0  0  0
 23 24  2  0  0  0  0
 25 30  1  0  0  0  0
 25 27  1  0  0  0  0
 26 25  2  0  0  0  0
 27 31  1  0  0  0  0
 28 20  1  0  0  0  0
 29 21  1  0  0  0  0
M  END
>  <minimizedAffinity>
-4.08450556

$$$$

 OpenBabel03262521223D

 31 31  0  0  0  0  0  0  0  0999 V2000
   37.9880   27.4520   35.6210 C   0  0  0  0  0  0  0  0  0  0  0  0
   37.6700   28.1880   36.4010 H   0  0  0  0  0  0  0  0  0  0  0  0
   38.7420   28.0300   35.0110 H   0  0  0  0  0  0  0  0  0  0  0  0
   38.3940   26.2380   36.0220 C   0  0  0  0  0  0  0  0  0  0  0  0
   38.8150   26.2820   37.0770 H   0  0  0  0  0  0  0  0  0  0  0  0
   37.6600   25.4060   36.1410 H   0  0  0  0  0  0  0  0  0  0  0  0
   39.5160   25.6510   35.1950 C   0  0  0  0  0  0  0  0  0  0  0  0
   39.4400   25.9780   34.1370 H   0  0  0  0  0  0  0  0  0  0  0  0
   40.4660   26.0940   35.5610 H   0  0  0  0  0  0  0  0  0  0  0  0
   39.6050   23.8900   35.2570 S   0  0  0  0  0  0  0  0  0  0  0  0
   38.3940   23.1160   36.3220 C   0  0  0  0  0  2  0  0  0  0  0  0
   38.9760   22.6270   37.5310 N   0  0  0  0  0  4  0  0  0  0  0  0
   38.5490   21.6790   37.7490 H   0  0  0  0  0  0  0  0  0  0  0  0
   38.5520   23.5050   38.6240 C   0  0  0  0  0  2  0  0  0  0  0  0
   37.6290   24.0370   38.3210 H   0  0  0  0  0  0  0  0  0  0  0  0
   40.3980   22.5030   37.5400 C   0  0  0  0  0  2  0  0  0  0  0  0
   40.9010   22.6540   36.5790 H   0  0  0  0  0  0  0  0  0  0  0  0
   36.9840   27.0880   34.7520 O   0  0  0  0  0  0  0  0  0  0  0  0
   36.8910   27.7530   33.5660 C   0  0  0  0  0  0  0  0  0  0  0  0
   36.0310   28.8400   33.6300 C   0  0  0  0  0  0  0  0  0  0  0  0
   35.8250   29.6330   32.4840 C   0  0  0  0  0  0  0  0  0  0  0  0
   36.5210   29.2520   31.3480 N   0  0  0  0  0  0  0  0  0  0  0  0
   37.3570   28.1800   31.3220 C   0  0  0  0  0  0  0  0  0  0  0  0
   37.5320   27.4450   32.4230 N   0  0  0  0  0  0  0  0  0  0  0  0
   37.7600   28.8100   29.0440 C   0  0  0  0  0  0  0  0  0  0  0  0
   37.0160   29.8360   29.1180 O   0  0  0  0  0  0  0  0  0  0  0  0
   38.0080   27.8940   30.0990 N   0  0  0  0  0  0  0  0  0  0  0  0
   35.4730   29.1730   34.4810 H   0  0  0  0  0  0  0  0  0  0  0  0
   35.1760   30.4750   32.4850 H   0  0  0  0  0  0  0  0  0  0  0  0
   38.1920   28.7140   28.0580 H   0  0  0  0  0  0  0  0  0  0  0  0
   38.6360   27.0700   29.9570 H   0  0  0  0  0  0  0  0  0  0  0  0
  1  4  1  0  0  0  0
  1  2  1  0  0  0  0
  3  1  1  0  0  0  0
  4  6  1  0  0  0  0
  4  5  1  0  0  0  0
  7 10  1  0  0  0  0
  7  9  1  0  0  0  0
  7  4  1  0  0  0  0
  8  7  1  0  0  0  0
 10 11  1  0  0  0  0
 11 12  1  0  0  0  0
 12 16  1  0  0  0  0
 12 13  1  0  0  0  0
 12 14  1  0  0  0  0
 15 14  1  0  0  0  0
 17 16  1  0  0  0  0
 18  1  1  0  0  0  0
 19 20  1  0  0  0  0
 19 18  1  0  0  0  0
 20 28  1  0  0  0  0
 21 29  1  0  0  0  0
 21 20  2  0  0  0  0
 22 21  1  0  0  0  0
 23 22  2  0  0  0  0
 23 24  1  0  0  0  0
 24 19  2  0  0  0  0
 25 26  2  0  0  0  0
 25 27  1  0  0  0  0
 27 23  1  0  0  0  0
 30 25  1  0  0  0  0
 31 27  1  0  0  0  0
M  END
>  <minimizedAffinity>
-4.07415962

$$$$

 OpenBabel03262521223D

 31 31  0  0  0  0  0  0  0  0999 V2000
   36.9240   25.8950   32.0290 C   0  0  0  0  0  0  0  0  0  0  0  0
   37.1350   26.7150   31.2980 H   0  0  0  0  0  0  0  0  0  0  0  0
   36.3350   26.4160   32.8390 H   0  0  0  0  0  0  0  0  0  0  0  0
   36.3740   24.7620   31.5700 C   0  0  0  0  0  0  0  0  0  0  0  0
   36.0340   24.1010   32.4300 H   0  0  0  0  0  0  0  0  0  0  0  0
   35.4350   24.7910   30.9670 H   0  0  0  0  0  0  0  0  0  0  0  0
   37.3180   23.8870   30.7760 C   0  0  0  0  0  0  0  0  0  0  0  0
   37.1660   24.0300   29.6850 H   0  0  0  0  0  0  0  0  0  0  0  0
   38.3490   24.2500   30.9680 H   0  0  0  0  0  0  0  0  0  0  0  0
   37.1970   22.1700   31.1620 S   0  0  0  0  0  0  0  0  0  0  0  0
   35.5380   21.5050   31.1120 C   0  0  0  0  0  2  0  0  0  0  0  0
   35.1870   20.8430   32.3280 N   0  0  0  0  0  4  0  0  0  0  0  0
   34.2880   21.2730   32.6970 H   0  0  0  0  0  0  0  0  0  0  0  0
   36.2100   21.1600   33.3270 C   0  0  0  0  0  2  0  0  0  0  0  0
   36.7290   22.0920   33.0270 H   0  0  0  0  0  0  0  0  0  0  0  0
   35.0180   19.4280   32.2470 C   0  0  0  0  0  2  0  0  0  0  0  0
   35.0300   18.9970   31.2410 H   0  0  0  0  0  0  0  0  0  0  0  0
   38.0480   25.3810   32.6350 O   0  0  0  0  0  0  0  0  0  0  0  0
   38.0890   25.3630   33.9980 C   0  0  0  0  0  0  0  0  0  0  0  0
   38.2340   26.6300   34.5440 C   0  0  0  0  0  0  0  0  0  0  0  0
   38.2930   26.7820   35.9440 C   0  0  0  0  0  0  0  0  0  0  0  0
   38.1990   25.6160   36.6860 N   0  0  0  0  0  0  0  0  0  0  0  0
   38.0570   24.3890   36.1160 C   0  0  0  0  0  0  0  0  0  0  0  0
   38.0050   24.2750   34.7870 N   0  0  0  0  0  0  0  0  0  0  0  0
   37.9830   23.5770   38.3700 C   0  0  0  0  0  0  0  0  0  0  0  0
   38.0590   24.7410   38.8720 O   0  0  0  0  0  0  0  0  0  0  0  0
   37.9740   23.2750   36.9840 N   0  0  0  0  0  0  0  0  0  0  0  0
   38.3100   27.5570   34.0150 H   0  0  0  0  0  0  0  0  0  0  0  0
   38.4030   27.7310   36.4070 H   0  0  0  0  0  0  0  0  0  0  0  0
   37.9240   22.8250   39.1440 H   0  0  0  0  0  0  0  0  0  0  0  0
   37.9080   22.2860   36.6510 H   0  0  0  0  0  0  0  0  0  0  0  0
  1 18  1  0  0  0  0
  1  3  1  0  0  0  0
  2  1  1  0  0  0  0
  4  1  1  0  0  0  0
  4  5  1  0  0  0  0
  6  4  1  0  0  0  0
  7  9  1  0  0  0  0
  7 10  1  0  0  0  0
  7  4  1  0  0  0  0
  8  7  1  0  0  0  0
 11 10  1  0  0  0  0
 11 12  1  0  0  0  0
 12 13  1  0  0  0  0
 12 14  1  0  0  0  0
 15 14  1  0  0  0  0
 16 12  1  0  0  0  0
 17 16  1  0  0  0  0
 18 19  1  0  0  0  0
 19 20  2  0  0  0  0
 19 24  1  0  0  0  0
 20 21  1  0  0  0  0
 21 29  1  0  0  0  0
 21 22  2  0  0  0  0
 23 22  1  0  0  0  0
 23 27  1  0  0  0  0
 24 23  2  0  0  0  0
 25 26  2  0  0  0  0
 25 30  1  0  0  0  0
 27 25  1  0  0  0  0
 28 20  1  0  0  0  0
 31 27  1  0  0  0  0
M  END
>  <minimizedAffinity>
-3.98191285

$$$$

 OpenBabel03262521223D

 31 31  0  0  0  0  0  0  0  0999 V2000
   37.8300   26.0520   34.4800 C   0  0  0  0  0  0  0  0  0  0  0  0
   37.7380   25.2670   33.6890 H   0  0  0  0  0  0  0  0  0  0  0  0
   38.9330   26.2920   34.4810 H   0  0  0  0  0  0  0  0  0  0  0  0
   37.0200   27.1190   34.4120 C   0  0  0  0  0  0  0  0  0  0  0  0
   35.9420   26.8200   34.6180 H   0  0  0  0  0  0  0  0  0  0  0  0
   37.1280   27.9600   35.1380 H   0  0  0  0  0  0  0  0  0  0  0  0
   36.9720   27.7810   33.0540 C   0  0  0  0  0  0  0  0  0  0  0  0
   37.9360   28.2810   32.8240 H   0  0  0  0  0  0  0  0  0  0  0  0
   36.8820   26.9770   32.2940 H   0  0  0  0  0  0  0  0  0  0  0  0
   35.6540   28.9400   32.8680 S   0  0  0  0  0  0  0  0  0  0  0  0
   34.9370   29.5110   34.4040 C   0  0  0  0  0  2  0  0  0  0  0  0
   33.5090   29.5040   34.3660 N   0  0  0  0  0  4  0  0  0  0  0  0
   33.1640   28.6430   34.8840 H   0  0  0  0  0  0  0  0  0  0  0  0
   33.0950   29.3130   32.9740 C   0  0  0  0  0  2  0  0  0  0  0  0
   33.9270   28.8460   32.4120 H   0  0  0  0  0  0  0  0  0  0  0  0
   32.8600   30.6550   34.9060 C   0  0  0  0  0  2  0  0  0  0  0  0
   33.5030   31.3710   35.4280 H   0  0  0  0  0  0  0  0  0  0  0  0
   37.5280   25.6090   35.7480 O   0  0  0  0  0  0  0  0  0  0  0  0
   38.3450   24.6750   36.3120 C   0  0  0  0  0  0  0  0  0  0  0  0
   37.9670   24.3480   37.6070 C   0  0  0  0  0  0  0  0  0  0  0  0
   38.7110   23.3940   38.3290 C   0  0  0  0  0  0  0  0  0  0  0  0
   39.7960   22.8420   37.6680 N   0  0  0  0  0  0  0  0  0  0  0  0
   40.1370   23.1880   36.3970 C   0  0  0  0  0  0  0  0  0  0  0  0
   39.4140   24.0940   35.7370 N   0  0  0  0  0  0  0  0  0  0  0  0
   41.8870   21.5680   36.6470 C   0  0  0  0  0  0  0  0  0  0  0  0
   41.5080   21.2270   37.8100 O   0  0  0  0  0  0  0  0  0  0  0  0
   41.2690   22.5520   35.8340 N   0  0  0  0  0  0  0  0  0  0  0  0
   37.1400   24.7450   38.1580 H   0  0  0  0  0  0  0  0  0  0  0  0
   38.4600   23.1120   39.3220 H   0  0  0  0  0  0  0  0  0  0  0  0
   42.7580   21.0050   36.3420 H   0  0  0  0  0  0  0  0  0  0  0  0
   41.6440   22.7750   34.8830 H   0  0  0  0  0  0  0  0  0  0  0  0
  1  3  1  0  0  0  0
  1 18  1  0  0  0  0
  2  1  1  0  0  0  0
  4  1  1  0  0  0  0
  4  5  1  0  0  0  0
  4  6  1  0  0  0  0
  7  4  1  0  0  0  0
  8  7  1  0  0  0  0
  9  7  1  0  0  0  0
 10  7  1  0  0  0  0
 10 11  1  0  0  0  0
 12 11  1  0  0  0  0
 12 13  1  0  0  0  0
 12 16  1  0  0  0  0
 14 12  1  0  0  0  0
 15 14  1  0  0  0  0
 16 17  1  0  0  0  0
 18 19  1  0  0  0  0
 19 20  1  0  0  0  0
 20 28  1  0  0  0  0
 20 21  2  0  0  0  0
 21 29  1  0  0  0  0
 22 21  1  0  0  0  0
 23 22  2  0  0  0  0
 24 19  2  0  0  0  0
 24 23  1  0  0  0  0
 25 26  2  0  0  0  0
 27 23  1  0  0  0  0
 27 25  1  0  0  0  0
 30 25  1  0  0  0  0
 31 27  1  0  0  0  0
M  END
>  <minimizedAffinity>
-3.90419912

$$$$

 OpenBabel03262521223D

 31 31  0  0  0  0  0  0  0  0999 V2000
   37.5950   27.4410   34.9400 C   0  0  0  0  0  0  0  0  0  0  0  0
   38.4260   27.5210   34.1960 H   0  0  0  0  0  0  0  0  0  0  0  0
   38.0010   27.9860   35.8420 H   0  0  0  0  0  0  0  0  0  0  0  0
   36.3640   27.8150   34.5600 C   0  0  0  0  0  0  0  0  0  0  0  0
   35.7270   26.9090   34.3070 H   0  0  0  0  0  0  0  0  0  0  0  0
   35.6830   28.3350   35.2760 H   0  0  0  0  0  0  0  0  0  0  0  0
   36.3280   28.6600   33.3070 C   0  0  0  0  0  0  0  0  0  0  0  0
   35.4380   29.3240   33.3030 H   0  0  0  0  0  0  0  0  0  0  0  0
   37.1960   29.3510   33.3450 H   0  0  0  0  0  0  0  0  0  0  0  0
   36.3630   27.7240   31.8110 S   0  0  0  0  0  0  0  0  0  0  0  0
   36.5310   28.6990   30.3210 C   0  0  0  0  0  2  0  0  0  0  0  0
   37.3990   28.0820   29.3700 N   0  0  0  0  0  4  0  0  0  0  0  0
   36.8550   27.3230   28.8630 H   0  0  0  0  0  0  0  0  0  0  0  0
   38.4520   27.3810   30.1070 C   0  0  0  0  0  2  0  0  0  0  0  0
   38.0970   27.1790   31.1370 H   0  0  0  0  0  0  0  0  0  0  0  0
   37.9880   28.9490   28.4010 C   0  0  0  0  0  2  0  0  0  0  0  0
   37.6130   29.9780   28.3830 H   0  0  0  0  0  0  0  0  0  0  0  0
   37.3310   26.1540   35.3510 O   0  0  0  0  0  0  0  0  0  0  0  0
   38.3880   25.3150   35.5480 C   0  0  0  0  0  0  0  0  0  0  0  0
   39.4690   25.6180   34.7330 C   0  0  0  0  0  0  0  0  0  0  0  0
   40.6430   24.8430   34.8170 C   0  0  0  0  0  0  0  0  0  0  0  0
   40.6220   23.8060   35.7360 N   0  0  0  0  0  0  0  0  0  0  0  0
   39.5430   23.5390   36.5200 C   0  0  0  0  0  0  0  0  0  0  0  0
   38.4450   24.2900   36.4190 N   0  0  0  0  0  0  0  0  0  0  0  0
   40.9060   21.7970   37.4450 C   0  0  0  0  0  0  0  0  0  0  0  0
   41.9150   22.1090   36.7390 O   0  0  0  0  0  0  0  0  0  0  0  0
   39.6480   22.4510   37.4190 N   0  0  0  0  0  0  0  0  0  0  0  0
   39.5330   26.4050   34.0100 H   0  0  0  0  0  0  0  0  0  0  0  0
   41.4950   25.0370   34.2130 H   0  0  0  0  0  0  0  0  0  0  0  0
   41.1260   20.9530   38.0840 H   0  0  0  0  0  0  0  0  0  0  0  0
   38.8650   22.1330   38.0350 H   0  0  0  0  0  0  0  0  0  0  0  0
  1 18  1  0  0  0  0
  1  3  1  0  0  0  0
  2  1  1  0  0  0  0
  4  1  1  0  0  0  0
  4  6  1  0  0  0  0
  5  4  1  0  0  0  0
  7  9  1  0  0  0  0
  7  4  1  0  0  0  0
  8  7  1  0  0  0  0
 10  7  1  0  0  0  0
 11 10  1  0  0  0  0
 12 14  1  0  0  0  0
 12 11  1  0  0  0  0
 13 12  1  0  0  0  0
 14 15  1  0  0  0  0
 16 12  1  0  0  0  0
 17 16  1  0  0  0  0
 18 19  1  0  0  0  0
 19 24  1  0  0  0  0
 20 21  1  0  0  0  0
 20 19  2  0  0  0  0
 21 22  2  0  0  0  0
 22 23  1  0  0  0  0
 23 27  1  0  0  0  0
 24 23  2  0  0  0  0
 25 30  1  0  0  0  0
 26 25  2  0  0  0  0
 27 25  1  0  0  0  0
 27 31  1  0  0  0  0
 28 20  1  0  0  0  0
 29 21  1  0  0  0  0
M  END
>  <minimizedAffinity>
-3.85464668

$$$$

 OpenBabel03262521223D

 31 31  0  0  0  0  0  0  0  0999 V2000
   38.2410   27.4420   35.3680 C   0  0  0  0  0  0  0  0  0  0  0  0
   38.3330   28.3610   36.0000 H   0  0  0  0  0  0  0  0  0  0  0  0
   38.8670   27.6880   34.4610 H   0  0  0  0  0  0  0  0  0  0  0  0
   38.5040   26.2550   35.9330 C   0  0  0  0  0  0  0  0  0  0  0  0
   38.8870   26.3890   36.9950 H   0  0  0  0  0  0  0  0  0  0  0  0
   37.6830   25.5200   36.1150 H   0  0  0  0  0  0  0  0  0  0  0  0
   39.5890   25.4610   35.2410 C   0  0  0  0  0  0  0  0  0  0  0  0
   39.7960   25.8710   34.2310 H   0  0  0  0  0  0  0  0  0  0  0  0
   40.5300   25.6190   35.8090 H   0  0  0  0  0  0  0  0  0  0  0  0
   39.2430   23.7360   35.1110 S   0  0  0  0  0  0  0  0  0  0  0  0
   38.1230   23.1010   36.3530 C   0  0  0  0  0  2  0  0  0  0  0  0
   38.8140   22.6500   37.5190 N   0  0  0  0  0  4  0  0  0  0  0  0
   38.3960   21.7190   37.8170 H   0  0  0  0  0  0  0  0  0  0  0  0
   38.5130   23.5780   38.6110 C   0  0  0  0  0  2  0  0  0  0  0  0
   37.5720   24.1150   38.3780 H   0  0  0  0  0  0  0  0  0  0  0  0
   40.2270   22.4990   37.3940 C   0  0  0  0  0  2  0  0  0  0  0  0
   40.6360   22.6020   36.3830 H   0  0  0  0  0  0  0  0  0  0  0  0
   36.9660   27.2050   34.9060 O   0  0  0  0  0  0  0  0  0  0  0  0
   36.4460   28.0670   33.9870 C   0  0  0  0  0  0  0  0  0  0  0  0
   36.9810   27.8820   32.7200 C   0  0  0  0  0  0  0  0  0  0  0  0
   36.5460   28.6960   31.6550 C   0  0  0  0  0  0  0  0  0  0  0  0
   35.5880   29.6460   31.9690 N   0  0  0  0  0  0  0  0  0  0  0  0
   35.0850   29.7980   33.2240 C   0  0  0  0  0  0  0  0  0  0  0  0
   35.5160   29.0130   34.2130 N   0  0  0  0  0  0  0  0  0  0  0  0
   33.7190   31.5090   32.2460 C   0  0  0  0  0  0  0  0  0  0  0  0
   34.1670   31.3030   31.0760 O   0  0  0  0  0  0  0  0  0  0  0  0
   34.1110   30.8070   33.4140 N   0  0  0  0  0  0  0  0  0  0  0  0
   37.7200   27.1650   32.4290 H   0  0  0  0  0  0  0  0  0  0  0  0
   36.9270   28.5910   30.6690 H   0  0  0  0  0  0  0  0  0  0  0  0
   32.9850   32.3020   32.2460 H   0  0  0  0  0  0  0  0  0  0  0  0
   33.6920   31.0370   34.3450 H   0  0  0  0  0  0  0  0  0  0  0  0
  1  4  1  0  0  0  0
  1  2  1  0  0  0  0
  3  1  1  0  0  0  0
  4  6  1  0  0  0  0
  4  5  1  0  0  0  0
  7  9  1  0  0  0  0
  7  4  1  0  0  0  0
  8  7  1  0  0  0  0
 10  7  1  0  0  0  0
 10 11  1  0  0  0  0
 11 12  1  0  0  0  0
 12 13  1  0  0  0  0
 12 14  1  0  0  0  0
 15 14  1  0  0  0  0
 16 12  1  0  0  0  0
 17 16  1  0  0  0  0
 18  1  1  0  0  0  0
 19 24  1  0  0  0  0
 19 18  1  0  0  0  0
 20 19  2  0  0  0  0
 21 22  2  0  0  0  0
 21 20  1  0  0  0  0
 22 23  1  0  0  0  0
 23 27  1  0  0  0  0
 23 24  2  0  0  0  0
 25 30  1  0  0  0  0
 25 27  1  0  0  0  0
 26 25  2  0  0  0  0
 27 31  1  0  0  0  0
 28 20  1  0  0  0  0
 29 21  1  0  0  0  0
M  END
>  <minimizedAffinity>
-3.85228825

$$$$

 OpenBabel03262521223D

 31 31  0  0  0  0  0  0  0  0999 V2000
   38.2100   26.4240   33.5610 C   0  0  0  0  0  0  0  0  0  0  0  0
   37.4060   26.4080   34.3390 H   0  0  0  0  0  0  0  0  0  0  0  0
   39.0370   27.0110   34.0550 H   0  0  0  0  0  0  0  0  0  0  0  0
   38.5900   25.2570   33.0180 C   0  0  0  0  0  0  0  0  0  0  0  0
   38.2490   25.1870   31.9360 H   0  0  0  0  0  0  0  0  0  0  0  0
   39.6730   25.0150   32.8960 H   0  0  0  0  0  0  0  0  0  0  0  0
   37.9910   24.0360   33.6790 C   0  0  0  0  0  0  0  0  0  0  0  0
   36.8850   24.0340   33.5780 H   0  0  0  0  0  0  0  0  0  0  0  0
   38.3290   23.1480   33.1060 H   0  0  0  0  0  0  0  0  0  0  0  0
   38.4220   23.8600   35.3810 S   0  0  0  0  0  0  0  0  0  0  0  0
   39.0220   22.2380   35.8370 C   0  0  0  0  0  2  0  0  0  0  0  0
   39.3950   22.1700   37.2140 N   0  0  0  0  0  4  0  0  0  0  0  0
   38.9420   21.3100   37.6430 H   0  0  0  0  0  0  0  0  0  0  0  0
   38.7920   23.3130   37.9030 C   0  0  0  0  0  2  0  0  0  0  0  0
   37.9300   23.6760   37.3100 H   0  0  0  0  0  0  0  0  0  0  0  0
   40.7960   22.1330   37.4850 C   0  0  0  0  0  2  0  0  0  0  0  0
   41.4530   22.0140   36.6160 H   0  0  0  0  0  0  0  0  0  0  0  0
   37.8720   27.1140   32.4190 O   0  0  0  0  0  0  0  0  0  0  0  0
   36.9220   28.0870   32.5160 C   0  0  0  0  0  0  0  0  0  0  0  0
   36.3990   28.1970   33.7960 C   0  0  0  0  0  0  0  0  0  0  0  0
   35.4060   29.1600   34.0620 C   0  0  0  0  0  0  0  0  0  0  0  0
   35.0180   29.9460   32.9890 N   0  0  0  0  0  0  0  0  0  0  0  0
   35.5550   29.8110   31.7460 C   0  0  0  0  0  0  0  0  0  0  0  0
   36.4940   28.8890   31.5230 N   0  0  0  0  0  0  0  0  0  0  0  0
   34.1190   31.6370   31.1530 C   0  0  0  0  0  0  0  0  0  0  0  0
   33.6800   31.7750   32.3370 O   0  0  0  0  0  0  0  0  0  0  0  0
   35.0720   30.6740   30.7340 N   0  0  0  0  0  0  0  0  0  0  0  0
   36.6640   27.6150   34.6550 H   0  0  0  0  0  0  0  0  0  0  0  0
   34.9760   29.2810   35.0260 H   0  0  0  0  0  0  0  0  0  0  0  0
   33.6690   32.3590   30.4860 H   0  0  0  0  0  0  0  0  0  0  0  0
   35.3840   30.6260   29.7370 H   0  0  0  0  0  0  0  0  0  0  0  0
  1  3  1  0  0  0  0
  1  2  1  0  0  0  0
  4  1  1  0  0  0  0
  4  7  1  0  0  0  0
  5  4  1  0  0  0  0
  6  4  1  0  0  0  0
  7 10  1  0  0  0  0
  8  7  1  0  0  0  0
  9  7  1  0  0  0  0
 10 11  1  0  0  0  0
 11 12  1  0  0  0  0
 12 16  1  0  0  0  0
 12 13  1  0  0  0  0
 12 14  1  0  0  0  0
 15 14  1  0  0  0  0
 17 16  1  0  0  0  0
 18 19  1  0  0  0  0
 18  1  1  0  0  0  0
 19 20  1  0  0  0  0
 20 21  2  0  0  0  0
 20 28  1  0  0  0  0
 21 29  1  0  0  0  0
 22 21  1  0  0  0  0
 23 22  2  0  0  0  0
 24 23  1  0  0  0  0
 24 19  2  0  0  0  0
 25 26  2  0  0  0  0
 27 25  1  0  0  0  0
 27 23  1  0  0  0  0
 30 25  1  0  0  0  0
 31 27  1  0  0  0  0
M  END
>  <minimizedAffinity>
-3.71607852

$$$$

 OpenBabel03262521223D

 31 31  0  0  0  0  0  0  0  0999 V2000
   36.7380   22.2180   31.5460 C   0  0  0  0  0  0  0  0  0  0  0  0
   36.9480   21.5760   30.6540 H   0  0  0  0  0  0  0  0  0  0  0  0
   37.6310   22.9060   31.5860 H   0  0  0  0  0  0  0  0  0  0  0  0
   35.5470   22.8300   31.6220 C   0  0  0  0  0  0  0  0  0  0  0  0
   34.8090   22.3680   30.8910 H   0  0  0  0  0  0  0  0  0  0  0  0
   34.9450   22.7840   32.5600 H   0  0  0  0  0  0  0  0  0  0  0  0
   35.5740   24.2950   31.2490 C   0  0  0  0  0  0  0  0  0  0  0  0
   35.4160   24.4290   30.1580 H   0  0  0  0  0  0  0  0  0  0  0  0
   34.6920   24.7760   31.7230 H   0  0  0  0  0  0  0  0  0  0  0  0
   37.0520   25.1300   31.7310 S   0  0  0  0  0  0  0  0  0  0  0  0
   36.7920   26.6600   32.6200 C   0  0  0  0  0  2  0  0  0  0  0  0
   37.7430   26.8390   33.6710 N   0  0  0  0  0  4  0  0  0  0  0  0
   38.5300   27.4550   33.3090 H   0  0  0  0  0  0  0  0  0  0  0  0
   38.3610   25.5410   33.9480 C   0  0  0  0  0  2  0  0  0  0  0  0
   38.2400   24.8880   33.0610 H   0  0  0  0  0  0  0  0  0  0  0  0
   37.2420   27.4010   34.8830 C   0  0  0  0  0  2  0  0  0  0  0  0
   36.2130   27.7750   34.8530 H   0  0  0  0  0  0  0  0  0  0  0  0
   36.7240   21.5310   32.7390 O   0  0  0  0  0  0  0  0  0  0  0  0
   37.7340   21.7640   33.6250 C   0  0  0  0  0  0  0  0  0  0  0  0
   38.9870   21.7070   33.0320 C   0  0  0  0  0  0  0  0  0  0  0  0
   40.1380   21.9270   33.8140 C   0  0  0  0  0  0  0  0  0  0  0  0
   39.9190   22.1900   35.1570 N   0  0  0  0  0  0  0  0  0  0  0  0
   38.6740   22.2390   35.7040 C   0  0  0  0  0  0  0  0  0  0  0  0
   37.6020   22.0260   34.9380 N   0  0  0  0  0  0  0  0  0  0  0  0
   39.8170   22.7800   37.7410 C   0  0  0  0  0  0  0  0  0  0  0  0
   40.9590   22.7830   37.1880 O   0  0  0  0  0  0  0  0  0  0  0  0
   38.5850   22.5170   37.0890 N   0  0  0  0  0  0  0  0  0  0  0  0
   39.2070   21.5080   32.0030 H   0  0  0  0  0  0  0  0  0  0  0  0
   41.1170   21.8930   33.4050 H   0  0  0  0  0  0  0  0  0  0  0  0
   39.8950   23.0070   38.7950 H   0  0  0  0  0  0  0  0  0  0  0  0
   37.6830   22.5340   37.6170 H   0  0  0  0  0  0  0  0  0  0  0  0
  1  3  1  0  0  0  0
  1  4  1  0  0  0  0
  1 18  1  0  0  0  0
  2  1  1  0  0  0  0
  4  6  1  0  0  0  0
  5  4  1  0  0  0  0
  7  4  1  0  0  0  0
  7  9  1  0  0  0  0
  7 10  1  0  0  0  0
  8  7  1  0  0  0  0
 10 11  1  0  0  0  0
 11 12  1  0  0  0  0
 12 14  1  0  0  0  0
 12 16  1  0  0  0  0
 13 12  1  0  0  0  0
 15 14  1  0  0  0  0
 17 16  1  0  0  0  0
 18 19  1  0  0  0  0
 19 24  1  0  0  0  0
 20 19  2  0  0  0  0
 20 21  1  0  0  0  0
 21 22  2  0  0  0  0
 22 23  1  0  0  0  0
 23 27  1  0  0  0  0
 24 23  2  0  0  0  0
 25 30  1  0  0  0  0
 26 25  2  0  0  0  0
 27 31  1  0  0  0  0
 27 25  1  0  0  0  0
 28 20  1  0  0  0  0
 29 21  1  0  0  0  0
M  END
>  <minimizedAffinity>
-3.71559262

$$$$
