
 OpenBabel03262522173D

 43 45  0  0  1  0  0  0  0  0999 V2000
   39.5610   26.6160   32.8520 C   0  0  0  0  0  0  0  0  0  0  0  0
   39.5140   25.5270   33.0010 H   0  0  0  0  0  0  0  0  0  0  0  0
   40.5780   26.9540   32.6240 H   0  0  0  0  0  0  0  0  0  0  0  0
   38.3010   26.3650   36.1630 C   0  0  1  0  0  0  0  0  0  0  0  0
   39.5760   26.4210   35.3330 C   0  0  0  0  0  0  0  0  0  0  0  0
   39.1290   27.2580   34.1610 C   0  0  2  0  0  0  0  0  0  0  0  0
   37.7750   27.4310   34.2410 O   0  0  0  0  0  0  0  0  0  0  0  0
   37.2550   26.4350   35.0610 C   0  0  0  0  0  0  0  0  0  0  0  0
   38.2190   27.2490   36.8120 H   0  0  0  0  0  0  0  0  0  0  0  0
   40.2990   26.9860   35.9220 H   0  0  0  0  0  0  0  0  0  0  0  0
   39.8990   25.4260   35.0240 H   0  0  0  0  0  0  0  0  0  0  0  0
   39.6010   28.2630   34.1800 H   0  0  0  0  0  0  0  0  0  0  0  0
   37.1950   25.4640   34.5640 H   0  0  0  0  0  0  0  0  0  0  0  0
   36.2770   26.7620   35.4840 H   0  0  0  0  0  0  0  0  0  0  0  0
   38.2120   25.1880   36.8760 O   0  0  0  0  0  0  0  0  0  0  0  0
   38.6520   24.0610   36.2410 C   0  0  0  0  0  2  0  0  0  0  0  0
   38.7340   23.0260   37.2830 N   0  0  0  0  0  4  0  0  0  0  0  0
   38.2980   22.1750   36.8260 H   0  0  0  0  0  0  0  0  0  0  0  0
   38.0040   23.3720   38.4630 C   0  0  0  0  0  2  0  0  0  0  0  0
   37.1460   24.0110   38.1780 H   0  0  0  0  0  0  0  0  0  0  0  0
   40.1190   22.6670   37.5510 C   0  0  0  0  0  2  0  0  0  0  0  0
   40.2370   21.5470   37.5710 H   0  0  0  0  0  0  0  0  0  0  0  0
   38.4420   27.2360   31.5690 S   0  0  0  0  0  0  0  0  0  0  0  0
   36.8370   23.6420   31.0620 C   0  0  0  0  0  0  0  0  0  0  0  0
   35.4650   23.8930   30.9040 C   0  0  0  0  0  0  0  0  0  0  0  0
   34.9730   25.1810   30.9470 C   0  0  0  0  0  0  0  0  0  0  0  0
   35.9000   26.1820   31.1500 C   0  0  0  0  0  0  0  0  0  0  0  0
   37.2200   25.9080   31.3000 C   0  0  0  0  0  0  0  0  0  0  0  0
   37.7140   24.6520   31.2600 N   0  0  0  0  0  0  0  0  0  0  0  0
   34.7890   23.0690   30.7470 H   0  0  0  0  0  0  0  0  0  0  0  0
   33.9100   25.3870   30.8250 H   0  0  0  0  0  0  0  0  0  0  0  0
   35.5350   27.2010   31.1880 H   0  0  0  0  0  0  0  0  0  0  0  0
   37.2700   22.2640   31.0040 C   0  0  0  0  0  0  0  0  0  0  0  0
   38.2610   21.9390   30.3450 O   0  0  0  0  0  0  0  0  0  0  0  0
   36.1530   20.0640   30.9610 C   0  0  0  0  0  0  0  0  0  0  0  0
   36.5720   21.1850   31.7130 C   0  0  0  0  0  0  0  0  0  0  0  0
   36.3060   21.2110   33.0800 C   0  0  0  0  0  0  0  0  0  0  0  0
   35.6500   20.1600   33.6530 N   0  0  0  0  0  0  0  0  0  0  0  0
   35.2600   19.0960   32.9010 C   0  0  0  0  0  0  0  0  0  0  0  0
   35.5070   19.0520   31.5810 N   0  0  0  0  0  0  0  0  0  0  0  0
   36.3240   19.9720   29.8910 H   0  0  0  0  0  0  0  0  0  0  0  0
   36.6470   22.0830   33.5890 H   0  0  0  0  0  0  0  0  0  0  0  0
   34.7580   18.3630   33.5160 H   0  0  0  0  0  0  0  0  0  0  0  0
  1  2  1  0  0  0  0
  1  6  1  0  0  0  0
  3  1  1  0  0  0  0
  4  9  1  1  0  0  0
  4 15  1  0  0  0  0
  5 10  1  0  0  0  0
  5  4  1  0  0  0  0
  6 12  1  1  0  0  0
  6  7  1  0  0  0  0
  6  5  1  0  0  0  0
  7  8  1  0  0  0  0
  8 14  1  0  0  0  0
  8  4  1  0  0  0  0
 11  5  1  0  0  0  0
 13  8  1  0  0  0  0
 16 15  1  0  0  0  0
 16 17  1  0  0  0  0
 17 21  1  0  0  0  0
 17 19  1  0  0  0  0
 18 17  1  0  0  0  0
 20 19  1  0  0  0  0
 21 22  1  0  0  0  0
 23  1  1  0  0  0  0
 24 29  1  0  0  0  0
 25 26  1  0  0  0  0
 25 24  2  0  0  0  0
 26 27  2  0  0  0  0
 27 32  1  0  0  0  0
 27 28  1  0  0  0  0
 28 23  1  0  0  0  0
 29 28  2  0  0  0  0
 30 25  1  0  0  0  0
 31 26  1  0  0  0  0
 33 24  1  0  0  0  0
 33 36  1  0  0  0  0
 34 33  2  0  0  0  0
 35 40  2  0  0  0  0
 35 36  1  0  0  0  0
 36 37  2  0  0  0  0
 37 42  1  0  0  0  0
 37 38  1  0  0  0  0
 39 43  1  0  0  0  0
 39 38  2  0  0  0  0
 40 39  1  0  0  0  0
 41 35  1  0  0  0  0
M  END
>  <minimizedAffinity>
-5.36123037

$$$$

 OpenBabel03262522173D

 43 45  0  0  1  0  0  0  0  0999 V2000
   36.9530   25.6640   32.6840 C   0  0  0  0  0  0  0  0  0  0  0  0
   35.9780   25.8680   33.1510 H   0  0  0  0  0  0  0  0  0  0  0  0
   37.1330   24.5900   32.5650 H   0  0  0  0  0  0  0  0  0  0  0  0
   39.2520   25.2610   35.3600 C   0  0  1  0  0  0  0  0  0  0  0  0
   39.1050   25.2060   33.8470 C   0  0  0  0  0  0  0  0  0  0  0  0
   38.0150   26.2230   33.6170 C   0  0  2  0  0  0  0  0  0  0  0  0
   37.5060   26.5960   34.8310 O   0  0  0  0  0  0  0  0  0  0  0  0
   37.8260   25.6120   35.7590 C   0  0  0  0  0  0  0  0  0  0  0  0
   39.9320   26.0730   35.6570 H   0  0  0  0  0  0  0  0  0  0  0  0
   40.0410   25.5850   33.4350 H   0  0  0  0  0  0  0  0  0  0  0  0
   38.8130   24.2120   33.5060 H   0  0  0  0  0  0  0  0  0  0  0  0
   38.4110   27.1340   33.1220 H   0  0  0  0  0  0  0  0  0  0  0  0
   37.2010   24.7200   35.6660 H   0  0  0  0  0  0  0  0  0  0  0  0
   37.8130   26.0400   36.7890 H   0  0  0  0  0  0  0  0  0  0  0  0
   39.6410   24.0440   35.8760 O   0  0  0  0  0  0  0  0  0  0  0  0
   38.6390   23.1970   36.2540 C   0  0  0  0  0  2  0  0  0  0  0  0
   39.0590   22.6370   37.5480 N   0  0  0  0  0  4  0  0  0  0  0  0
   38.5960   21.6840   37.5710 H   0  0  0  0  0  0  0  0  0  0  0  0
   38.6120   23.4210   38.6580 C   0  0  0  0  0  2  0  0  0  0  0  0
   37.6600   23.9170   38.3860 H   0  0  0  0  0  0  0  0  0  0  0  0
   40.4920   22.3850   37.5650 C   0  0  0  0  0  2  0  0  0  0  0  0
   40.7040   21.3560   37.9700 H   0  0  0  0  0  0  0  0  0  0  0  0
   37.1880   26.4720   31.0790 S   0  0  0  0  0  0  0  0  0  0  0  0
   34.9000   29.4410   32.3850 C   0  0  0  0  0  0  0  0  0  0  0  0
   35.1900   30.5080   31.5210 C   0  0  0  0  0  0  0  0  0  0  0  0
   36.1030   30.3610   30.4980 C   0  0  0  0  0  0  0  0  0  0  0  0
   36.6980   29.1230   30.3840 C   0  0  0  0  0  0  0  0  0  0  0  0
   36.3980   28.1100   31.2340 C   0  0  0  0  0  0  0  0  0  0  0  0
   35.5050   28.2400   32.2390 N   0  0  0  0  0  0  0  0  0  0  0  0
   34.6920   31.4530   31.6600 H   0  0  0  0  0  0  0  0  0  0  0  0
   36.3350   31.1850   29.8220 H   0  0  0  0  0  0  0  0  0  0  0  0
   37.4190   28.9860   29.5870 H   0  0  0  0  0  0  0  0  0  0  0  0
   33.9300   29.6770   33.4300 C   0  0  0  0  0  0  0  0  0  0  0  0
   32.7930   29.2030   33.3600 O   0  0  0  0  0  0  0  0  0  0  0  0
   35.5910   30.6780   34.9570 C   0  0  0  0  0  0  0  0  0  0  0  0
   34.2330   30.4810   34.6210 C   0  0  0  0  0  0  0  0  0  0  0  0
   33.2540   31.0570   35.4270 C   0  0  0  0  0  0  0  0  0  0  0  0
   33.6320   31.7900   36.5160 N   0  0  0  0  0  0  0  0  0  0  0  0
   34.9480   31.9600   36.8120 C   0  0  0  0  0  0  0  0  0  0  0  0
   35.9070   31.4120   36.0460 N   0  0  0  0  0  0  0  0  0  0  0  0
   36.4110   30.2610   34.3760 H   0  0  0  0  0  0  0  0  0  0  0  0
   32.2510   30.8710   35.1210 H   0  0  0  0  0  0  0  0  0  0  0  0
   35.0600   32.5630   37.7000 H   0  0  0  0  0  0  0  0  0  0  0  0
  1  2  1  0  0  0  0
  1  6  1  0  0  0  0
  3  1  1  0  0  0  0
  4  9  1  1  0  0  0
  4  8  1  0  0  0  0
  4 15  1  0  0  0  0
  5  4  1  0  0  0  0
  6 12  1  6  0  0  0
  6  5  1  0  0  0  0
  6  7  1  0  0  0  0
  7  8  1  0  0  0  0
  8 14  1  0  0  0  0
 10  5  1  0  0  0  0
 11  5  1  0  0  0  0
 13  8  1  0  0  0  0
 15 16  1  0  0  0  0
 16 17  1  0  0  0  0
 17 21  1  0  0  0  0
 17 18  1  0  0  0  0
 17 19  1  0  0  0  0
 20 19  1  0  0  0  0
 21 22  1  0  0  0  0
 23 28  1  0  0  0  0
 23  1  1  0  0  0  0
 24 33  1  0  0  0  0
 25 30  1  0  0  0  0
 25 24  2  0  0  0  0
 26 25  1  0  0  0  0
 27 26  2  0  0  0  0
 27 28  1  0  0  0  0
 28 29  2  0  0  0  0
 29 24  1  0  0  0  0
 31 26  1  0  0  0  0
 32 27  1  0  0  0  0
 33 36  1  0  0  0  0
 34 33  2  0  0  0  0
 35 40  1  0  0  0  0
 36 35  2  0  0  0  0
 36 37  1  0  0  0  0
 37 38  2  0  0  0  0
 38 39  1  0  0  0  0
 39 43  1  0  0  0  0
 40 39  2  0  0  0  0
 41 35  1  0  0  0  0
 42 37  1  0  0  0  0
M  END
>  <minimizedAffinity>
-5.26845169

$$$$

 OpenBabel03262522173D

 43 45  0  0  1  0  0  0  0  0999 V2000
   36.3030   27.8980   33.0400 C   0  0  0  0  0  0  0  0  0  0  0  0
   35.8310   27.4880   33.9450 H   0  0  0  0  0  0  0  0  0  0  0  0
   37.3840   28.0290   33.1660 H   0  0  0  0  0  0  0  0  0  0  0  0
   34.3500   30.6520   34.1400 C   0  0  1  0  0  0  0  0  0  0  0  0
   35.7690   30.1090   34.0500 C   0  0  0  0  0  0  0  0  0  0  0  0
   35.6840   29.2660   32.8020 C   0  0  2  0  0  0  0  0  0  0  0  0
   34.3750   29.1920   32.4150 O   0  0  0  0  0  0  0  0  0  0  0  0
   33.5780   29.5020   33.5120 C   0  0  0  0  0  0  0  0  0  0  0  0
   34.2400   31.5570   33.5240 H   0  0  0  0  0  0  0  0  0  0  0  0
   36.4140   30.9670   33.8590 H   0  0  0  0  0  0  0  0  0  0  0  0
   36.0290   29.5140   34.9270 H   0  0  0  0  0  0  0  0  0  0  0  0
   36.2580   29.7220   31.9680 H   0  0  0  0  0  0  0  0  0  0  0  0
   33.5090   28.6840   34.2320 H   0  0  0  0  0  0  0  0  0  0  0  0
   32.5780   29.8580   33.1680 H   0  0  0  0  0  0  0  0  0  0  0  0
   33.9730   30.8670   35.4480 O   0  0  0  0  0  0  0  0  0  0  0  0
   34.7730   31.6940   36.1820 C   0  0  0  0  0  2  0  0  0  0  0  0
   34.0060   32.0170   37.3950 N   0  0  0  0  0  4  0  0  0  0  0  0
   34.6200   31.6600   38.1820 H   0  0  0  0  0  0  0  0  0  0  0  0
   32.7360   31.3610   37.4330 C   0  0  0  0  0  2  0  0  0  0  0  0
   32.8120   30.4000   36.8880 H   0  0  0  0  0  0  0  0  0  0  0  0
   33.9130   33.4560   37.5840 C   0  0  0  0  0  2  0  0  0  0  0  0
   34.1600   33.7290   38.6490 H   0  0  0  0  0  0  0  0  0  0  0  0
   36.0080   26.9210   31.5430 S   0  0  0  0  0  0  0  0  0  0  0  0
   37.8670   23.8030   33.1500 C   0  0  0  0  0  0  0  0  0  0  0  0
   37.1540   22.6910   32.6750 C   0  0  0  0  0  0  0  0  0  0  0  0
   36.0680   22.8520   31.8390 C   0  0  0  0  0  0  0  0  0  0  0  0
   35.7390   24.1500   31.5090 C   0  0  0  0  0  0  0  0  0  0  0  0
   36.4480   25.2050   31.9830 C   0  0  0  0  0  0  0  0  0  0  0  0
   37.5120   25.0610   32.8020 N   0  0  0  0  0  0  0  0  0  0  0  0
   37.4590   21.7010   32.9680 H   0  0  0  0  0  0  0  0  0  0  0  0
   35.5090   21.9950   31.4650 H   0  0  0  0  0  0  0  0  0  0  0  0
   34.8900   24.2990   30.8530 H   0  0  0  0  0  0  0  0  0  0  0  0
   38.9910   23.5480   34.0210 C   0  0  0  0  0  0  0  0  0  0  0  0
   40.1150   23.3320   33.5590 O   0  0  0  0  0  0  0  0  0  0  0  0
   39.8030   22.7610   36.2150 C   0  0  0  0  0  0  0  0  0  0  0  0
   38.8700   23.5300   35.4840 C   0  0  0  0  0  0  0  0  0  0  0  0
   37.8890   24.2310   36.1810 C   0  0  0  0  0  0  0  0  0  0  0  0
   37.8550   24.1550   37.5440 N   0  0  0  0  0  0  0  0  0  0  0  0
   38.7670   23.4050   38.2180 C   0  0  0  0  0  0  0  0  0  0  0  0
   39.7220   22.7220   37.5620 N   0  0  0  0  0  0  0  0  0  0  0  0
   40.5970   22.1880   35.7410 H   0  0  0  0  0  0  0  0  0  0  0  0
   37.2160   24.7910   35.5730 H   0  0  0  0  0  0  0  0  0  0  0  0
   38.5900   23.4600   39.2810 H   0  0  0  0  0  0  0  0  0  0  0  0
  1  3  1  0  0  0  0
  1  2  1  0  0  0  0
  4  9  1  6  0  0  0
  4 15  1  0  0  0  0
  5  4  1  0  0  0  0
  5 11  1  0  0  0  0
  6 12  1  6  0  0  0
  6  1  1  0  0  0  0
  6  5  1  0  0  0  0
  7  6  1  0  0  0  0
  7  8  1  0  0  0  0
  8  4  1  0  0  0  0
  8 13  1  0  0  0  0
 10  5  1  0  0  0  0
 14  8  1  0  0  0  0
 15 16  1  0  0  0  0
 16 17  1  0  0  0  0
 17 19  1  0  0  0  0
 17 21  1  0  0  0  0
 17 18  1  0  0  0  0
 20 19  1  0  0  0  0
 21 22  1  0  0  0  0
 23 28  1  0  0  0  0
 23  1  1  0  0  0  0
 24 33  1  0  0  0  0
 25 30  1  0  0  0  0
 25 24  2  0  0  0  0
 26 25  1  0  0  0  0
 27 26  2  0  0  0  0
 27 28  1  0  0  0  0
 28 29  2  0  0  0  0
 29 24  1  0  0  0  0
 31 26  1  0  0  0  0
 32 27  1  0  0  0  0
 33 36  1  0  0  0  0
 34 33  2  0  0  0  0
 35 40  1  0  0  0  0
 36 37  1  0  0  0  0
 36 35  2  0  0  0  0
 37 38  2  0  0  0  0
 38 39  1  0  0  0  0
 39 43  1  0  0  0  0
 40 39  2  0  0  0  0
 41 35  1  0  0  0  0
 42 37  1  0  0  0  0
M  END
>  <minimizedAffinity>
-5.22547054

$$$$

 OpenBabel03262522173D

 43 45  0  0  1  0  0  0  0  0999 V2000
   38.3550   25.7470   31.0720 C   0  0  0  0  0  0  0  0  0  0  0  0
   38.5580   26.4300   30.2340 H   0  0  0  0  0  0  0  0  0  0  0  0
   39.2290   25.6260   31.7220 H   0  0  0  0  0  0  0  0  0  0  0  0
   36.9930   22.4790   31.3430 C   0  0  1  0  0  0  0  0  0  0  0  0
   36.6760   23.9140   30.9490 C   0  0  0  0  0  0  0  0  0  0  0  0
   38.0230   24.3930   30.4660 C   0  0  2  0  0  0  0  0  0  0  0  0
   38.9560   23.4390   30.7660 O   0  0  0  0  0  0  0  0  0  0  0  0
   38.4440   22.6290   31.7730 C   0  0  0  0  0  0  0  0  0  0  0  0
   36.9290   21.8120   30.4710 H   0  0  0  0  0  0  0  0  0  0  0  0
   35.9930   23.8550   30.1010 H   0  0  0  0  0  0  0  0  0  0  0  0
   36.3180   24.4960   31.7990 H   0  0  0  0  0  0  0  0  0  0  0  0
   38.0280   24.5390   29.3660 H   0  0  0  0  0  0  0  0  0  0  0  0
   38.4770   23.1020   32.7570 H   0  0  0  0  0  0  0  0  0  0  0  0
   38.9510   21.6350   31.7580 H   0  0  0  0  0  0  0  0  0  0  0  0
   36.1940   22.0520   32.3820 O   0  0  0  0  0  0  0  0  0  0  0  0
   35.1620   21.2220   32.0500 C   0  0  0  0  0  2  0  0  0  0  0  0
   35.1120   20.2060   33.1130 N   0  0  0  0  0  4  0  0  0  0  0  0
   34.0750   20.0290   33.2430 H   0  0  0  0  0  0  0  0  0  0  0  0
   35.6840   20.6640   34.3400 C   0  0  0  0  0  2  0  0  0  0  0  0
   35.5450   21.7600   34.4140 H   0  0  0  0  0  0  0  0  0  0  0  0
   35.6750   18.9450   32.6540 C   0  0  0  0  0  2  0  0  0  0  0  0
   34.9940   18.0900   32.9230 H   0  0  0  0  0  0  0  0  0  0  0  0
   36.9370   26.2280   32.0920 S   0  0  0  0  0  0  0  0  0  0  0  0
   38.0680   24.8800   35.6500 C   0  0  0  0  0  0  0  0  0  0  0  0
   38.4130   26.0370   36.3660 C   0  0  0  0  0  0  0  0  0  0  0  0
   38.3120   27.2840   35.7850 C   0  0  0  0  0  0  0  0  0  0  0  0
   37.8600   27.3160   34.4830 C   0  0  0  0  0  0  0  0  0  0  0  0
   37.5350   26.1800   33.8160 C   0  0  0  0  0  0  0  0  0  0  0  0
   37.6280   24.9540   34.3730 N   0  0  0  0  0  0  0  0  0  0  0  0
   38.7590   25.9490   37.3820 H   0  0  0  0  0  0  0  0  0  0  0  0
   38.5770   28.1880   36.3330 H   0  0  0  0  0  0  0  0  0  0  0  0
   37.7740   28.2850   34.0070 H   0  0  0  0  0  0  0  0  0  0  0  0
   38.2020   23.6130   36.3320 C   0  0  0  0  0  0  0  0  0  0  0  0
   37.2360   23.0910   36.8950 O   0  0  0  0  0  0  0  0  0  0  0  0
   40.0820   22.5100   35.1760 C   0  0  0  0  0  0  0  0  0  0  0  0
   39.4720   22.8800   36.3960 C   0  0  0  0  0  0  0  0  0  0  0  0
   40.1010   22.5360   37.5900 C   0  0  0  0  0  0  0  0  0  0  0  0
   41.2830   21.8530   37.5500 N   0  0  0  0  0  0  0  0  0  0  0  0
   41.8440   21.5110   36.3590 C   0  0  0  0  0  0  0  0  0  0  0  0
   41.2520   21.8340   35.1960 N   0  0  0  0  0  0  0  0  0  0  0  0
   39.6520   22.7430   34.2040 H   0  0  0  0  0  0  0  0  0  0  0  0
   39.5900   22.8440   38.4730 H   0  0  0  0  0  0  0  0  0  0  0  0
   42.7690   20.9790   36.5170 H   0  0  0  0  0  0  0  0  0  0  0  0
  1  3  1  0  0  0  0
  1 23  1  0  0  0  0
  2  1  1  0  0  0  0
  4  9  1  6  0  0  0
  4  8  1  0  0  0  0
  4 15  1  0  0  0  0
  5  4  1  0  0  0  0
  5 11  1  0  0  0  0
  6 12  1  6  0  0  0
  6  7  1  0  0  0  0
  6  5  1  0  0  0  0
  6  1  1  0  0  0  0
  7  8  1  0  0  0  0
  8 13  1  0  0  0  0
 10  5  1  0  0  0  0
 14  8  1  0  0  0  0
 16 15  1  0  0  0  0
 16 17  1  0  0  0  0
 17 18  1  0  0  0  0
 17 19  1  0  0  0  0
 19 20  1  0  0  0  0
 21 22  1  0  0  0  0
 21 17  1  0  0  0  0
 23 28  1  0  0  0  0
 24 33  1  0  0  0  0
 24 25  1  0  0  0  0
 25 30  1  0  0  0  0
 26 31  1  0  0  0  0
 26 25  2  0  0  0  0
 27 26  1  0  0  0  0
 28 29  1  0  0  0  0
 28 27  2  0  0  0  0
 29 24  2  0  0  0  0
 32 27  1  0  0  0  0
 33 36  1  0  0  0  0
 33 34  2  0  0  0  0
 35 40  2  0  0  0  0
 35 36  1  0  0  0  0
 36 37  2  0  0  0  0
 37 42  1  0  0  0  0
 38 37  1  0  0  0  0
 39 43  1  0  0  0  0
 39 38  2  0  0  0  0
 40 39  1  0  0  0  0
 41 35  1  0  0  0  0
M  END
>  <minimizedAffinity>
-5.12137938

$$$$

 OpenBabel03262522173D

 43 45  0  0  1  0  0  0  0  0999 V2000
   36.9390   27.3940   34.3160 C   0  0  0  0  0  0  0  0  0  0  0  0
   35.9930   26.8970   34.5730 H   0  0  0  0  0  0  0  0  0  0  0  0
   36.8160   28.4770   34.2050 H   0  0  0  0  0  0  0  0  0  0  0  0
   36.9790   27.4900   30.7670 C   0  0  1  0  0  0  0  0  0  0  0  0
   37.7190   27.9420   32.0170 C   0  0  0  0  0  0  0  0  0  0  0  0
   37.3850   26.8270   32.9780 C   0  0  2  0  0  0  0  0  0  0  0  0
   36.4380   26.0270   32.4020 O   0  0  0  0  0  0  0  0  0  0  0  0
   35.8080   26.7510   31.3960 C   0  0  0  0  0  0  0  0  0  0  0  0
   37.5930   26.7890   30.1820 H   0  0  0  0  0  0  0  0  0  0  0  0
   38.7810   27.9000   31.7760 H   0  0  0  0  0  0  0  0  0  0  0  0
   37.3580   28.9080   32.3720 H   0  0  0  0  0  0  0  0  0  0  0  0
   38.2750   26.2000   33.1910 H   0  0  0  0  0  0  0  0  0  0  0  0
   35.0920   27.4800   31.7810 H   0  0  0  0  0  0  0  0  0  0  0  0
   35.3530   26.0550   30.6530 H   0  0  0  0  0  0  0  0  0  0  0  0
   36.5580   28.5640   30.0120 O   0  0  0  0  0  0  0  0  0  0  0  0
   36.0940   29.6460   30.7030 C   0  0  0  0  0  2  0  0  0  0  0  0
   36.3540   30.8100   29.8420 N   0  0  0  0  0  4  0  0  0  0  0  0
   35.4230   30.9810   29.3640 H   0  0  0  0  0  0  0  0  0  0  0  0
   37.3640   30.5550   28.8630 C   0  0  0  0  0  2  0  0  0  0  0  0
   37.3440   29.4800   28.5990 H   0  0  0  0  0  0  0  0  0  0  0  0
   36.6160   31.9980   30.6390 C   0  0  0  0  0  2  0  0  0  0  0  0
   36.0150   32.8700   30.2540 H   0  0  0  0  0  0  0  0  0  0  0  0
   38.2820   27.0810   35.4910 S   0  0  0  0  0  0  0  0  0  0  0  0
   38.2250   23.1310   35.1080 C   0  0  0  0  0  0  0  0  0  0  0  0
   38.0340   22.6580   36.4160 C   0  0  0  0  0  0  0  0  0  0  0  0
   37.9150   23.5350   37.4740 C   0  0  0  0  0  0  0  0  0  0  0  0
   37.9940   24.8770   37.1670 C   0  0  0  0  0  0  0  0  0  0  0  0
   38.1790   25.3040   35.8930 C   0  0  0  0  0  0  0  0  0  0  0  0
   38.2960   24.4560   34.8480 N   0  0  0  0  0  0  0  0  0  0  0  0
   37.9800   21.5970   36.5940 H   0  0  0  0  0  0  0  0  0  0  0  0
   37.7670   23.1770   38.4930 H   0  0  0  0  0  0  0  0  0  0  0  0
   37.9030   25.5830   37.9840 H   0  0  0  0  0  0  0  0  0  0  0  0
   38.3390   22.1460   34.0560 C   0  0  0  0  0  0  0  0  0  0  0  0
   39.4110   21.5760   33.8360 O   0  0  0  0  0  0  0  0  0  0  0  0
   36.2290   20.9070   33.7430 C   0  0  0  0  0  0  0  0  0  0  0  0
   37.2080   21.7690   33.2000 C   0  0  0  0  0  0  0  0  0  0  0  0
   37.0530   22.2180   31.8910 C   0  0  0  0  0  0  0  0  0  0  0  0
   35.9650   21.8140   31.1710 N   0  0  0  0  0  0  0  0  0  0  0  0
   35.0410   20.9820   31.7220 C   0  0  0  0  0  0  0  0  0  0  0  0
   35.1730   20.5390   32.9840 N   0  0  0  0  0  0  0  0  0  0  0  0
   36.2800   20.5150   34.7570 H   0  0  0  0  0  0  0  0  0  0  0  0
   37.8240   22.8650   31.5420 H   0  0  0  0  0  0  0  0  0  0  0  0
   34.2550   20.7690   31.0130 H   0  0  0  0  0  0  0  0  0  0  0  0
  1  2  1  0  0  0  0
  1 23  1  0  0  0  0
  3  1  1  0  0  0  0
  4  9  1  6  0  0  0
  4  8  1  0  0  0  0
  4  5  1  0  0  0  0
  5 11  1  0  0  0  0
  5  6  1  0  0  0  0
  6 12  1  1  0  0  0
  6  1  1  0  0  0  0
  7  6  1  0  0  0  0
  8 13  1  0  0  0  0
  8  7  1  0  0  0  0
 10  5  1  0  0  0  0
 14  8  1  0  0  0  0
 15 16  1  0  0  0  0
 15  4  1  0  0  0  0
 17 21  1  0  0  0  0
 17 16  1  0  0  0  0
 18 17  1  0  0  0  0
 19 17  1  0  0  0  0
 20 19  1  0  0  0  0
 22 21  1  0  0  0  0
 23 28  1  0  0  0  0
 24 25  1  0  0  0  0
 25 30  1  0  0  0  0
 25 26  2  0  0  0  0
 26 31  1  0  0  0  0
 27 26  1  0  0  0  0
 27 32  1  0  0  0  0
 28 27  2  0  0  0  0
 29 24  2  0  0  0  0
 29 28  1  0  0  0  0
 33 24  1  0  0  0  0
 34 33  2  0  0  0  0
 35 41  1  0  0  0  0
 36 35  1  0  0  0  0
 36 33  1  0  0  0  0
 37 36  2  0  0  0  0
 38 39  2  0  0  0  0
 38 37  1  0  0  0  0
 39 40  1  0  0  0  0
 40 35  2  0  0  0  0
 42 37  1  0  0  0  0
 43 39  1  0  0  0  0
M  END
>  <minimizedAffinity>
-5.05448914

$$$$

 OpenBabel03262522173D

 43 45  0  0  1  0  0  0  0  0999 V2000
   37.7070   28.0010   31.5130 C   0  0  0  0  0  0  0  0  0  0  0  0
   38.0040   28.6400   32.3570 H   0  0  0  0  0  0  0  0  0  0  0  0
   38.3960   28.0940   30.6660 H   0  0  0  0  0  0  0  0  0  0  0  0
   34.9290   30.1920   31.8190 C   0  0  1  0  0  0  0  0  0  0  0  0
   36.2570   29.9830   31.1060 C   0  0  0  0  0  0  0  0  0  0  0  0
   36.3350   28.4770   31.0620 C   0  0  2  0  0  0  0  0  0  0  0  0
   35.3230   27.9670   31.8260 O   0  0  0  0  0  0  0  0  0  0  0  0
   34.8980   28.9570   32.7050 C   0  0  0  0  0  0  0  0  0  0  0  0
   34.0940   30.1600   31.1040 H   0  0  0  0  0  0  0  0  0  0  0  0
   36.1240   30.3650   30.0940 H   0  0  0  0  0  0  0  0  0  0  0  0
   37.0870   30.4180   31.6650 H   0  0  0  0  0  0  0  0  0  0  0  0
   36.2030   28.0980   30.0270 H   0  0  0  0  0  0  0  0  0  0  0  0
   35.5820   29.1020   33.5440 H   0  0  0  0  0  0  0  0  0  0  0  0
   33.8530   28.7500   33.0350 H   0  0  0  0  0  0  0  0  0  0  0  0
   34.9310   31.3530   32.5620 O   0  0  0  0  0  0  0  0  0  0  0  0
   34.7030   31.2150   33.9010 C   0  0  0  0  0  2  0  0  0  0  0  0
   35.8650   31.8250   34.5670 N   0  0  0  0  0  4  0  0  0  0  0  0
   36.6940   31.3570   34.1000 H   0  0  0  0  0  0  0  0  0  0  0  0
   35.8910   31.5690   35.9730 C   0  0  0  0  0  2  0  0  0  0  0  0
   35.4040   30.5930   36.1690 H   0  0  0  0  0  0  0  0  0  0  0  0
   35.9690   33.2390   34.2400 C   0  0  0  0  0  2  0  0  0  0  0  0
   37.0250   33.4970   33.9460 H   0  0  0  0  0  0  0  0  0  0  0  0
   37.5400   26.2470   31.9350 S   0  0  0  0  0  0  0  0  0  0  0  0
   38.1970   24.7800   35.5640 C   0  0  0  0  0  0  0  0  0  0  0  0
   38.3290   25.9150   36.3790 C   0  0  0  0  0  0  0  0  0  0  0  0
   38.2230   27.1830   35.8470 C   0  0  0  0  0  0  0  0  0  0  0  0
   37.9820   27.2580   34.4910 C   0  0  0  0  0  0  0  0  0  0  0  0
   37.8590   26.1430   33.7290 C   0  0  0  0  0  0  0  0  0  0  0  0
   37.9600   24.8960   34.2370 N   0  0  0  0  0  0  0  0  0  0  0  0
   38.5160   25.7930   37.4330 H   0  0  0  0  0  0  0  0  0  0  0  0
   38.3240   28.0710   36.4720 H   0  0  0  0  0  0  0  0  0  0  0  0
   37.8950   28.2450   34.0530 H   0  0  0  0  0  0  0  0  0  0  0  0
   38.3220   23.4880   36.2000 C   0  0  0  0  0  0  0  0  0  0  0  0
   37.3460   22.9400   36.7190 O   0  0  0  0  0  0  0  0  0  0  0  0
   40.1120   22.4490   37.5440 C   0  0  0  0  0  0  0  0  0  0  0  0
   39.5950   22.7590   36.2660 C   0  0  0  0  0  0  0  0  0  0  0  0
   40.3090   22.3600   35.1400 C   0  0  0  0  0  0  0  0  0  0  0  0
   41.4850   21.6850   35.3000 N   0  0  0  0  0  0  0  0  0  0  0  0
   41.9570   21.4020   36.5440 C   0  0  0  0  0  0  0  0  0  0  0  0
   41.2810   21.7800   37.6430 N   0  0  0  0  0  0  0  0  0  0  0  0
   39.6110   22.7270   38.4690 H   0  0  0  0  0  0  0  0  0  0  0  0
   39.8660   22.6230   34.2070 H   0  0  0  0  0  0  0  0  0  0  0  0
   42.8920   20.8680   36.4800 H   0  0  0  0  0  0  0  0  0  0  0  0
  1 23  1  0  0  0  0
  1  2  1  0  0  0  0
  3  1  1  0  0  0  0
  4  9  1  6  0  0  0
  4 15  1  0  0  0  0
  4  8  1  0  0  0  0
  5 11  1  0  0  0  0
  5  4  1  0  0  0  0
  6 12  1  6  0  0  0
  6  5  1  0  0  0  0
  6  1  1  0  0  0  0
  6  7  1  0  0  0  0
  7  8  1  0  0  0  0
  8 14  1  0  0  0  0
  8 13  1  0  0  0  0
 10  5  1  0  0  0  0
 15 16  1  0  0  0  0
 16 17  1  0  0  0  0
 17 19  1  0  0  0  0
 18 17  1  0  0  0  0
 19 20  1  0  0  0  0
 21 17  1  0  0  0  0
 22 21  1  0  0  0  0
 23 28  1  0  0  0  0
 24 33  1  0  0  0  0
 24 25  1  0  0  0  0
 25 30  1  0  0  0  0
 26 25  2  0  0  0  0
 26 31  1  0  0  0  0
 27 26  1  0  0  0  0
 28 29  1  0  0  0  0
 28 27  2  0  0  0  0
 29 24  2  0  0  0  0
 32 27  1  0  0  0  0
 33 36  1  0  0  0  0
 33 34  2  0  0  0  0
 35 40  1  0  0  0  0
 35 41  1  0  0  0  0
 36 35  2  0  0  0  0
 37 38  2  0  0  0  0
 37 36  1  0  0  0  0
 38 39  1  0  0  0  0
 39 40  2  0  0  0  0
 42 37  1  0  0  0  0
 43 39  1  0  0  0  0
M  END
>  <minimizedAffinity>
-4.9892478

$$$$

 OpenBabel03262522173D

 43 45  0  0  1  0  0  0  0  0999 V2000
   36.5100   23.9780   31.9390 C   0  0  0  0  0  0  0  0  0  0  0  0
   36.0090   24.1080   32.9100 H   0  0  0  0  0  0  0  0  0  0  0  0
   35.8550   23.5000   31.2020 H   0  0  0  0  0  0  0  0  0  0  0  0
   38.6740   22.2120   34.1310 C   0  0  1  0  0  0  0  0  0  0  0  0
   37.4100   22.0940   33.2920 C   0  0  0  0  0  0  0  0  0  0  0  0
   37.7030   23.0660   32.1770 C   0  0  2  0  0  0  0  0  0  0  0  0
   38.8400   23.7570   32.4910 O   0  0  0  0  0  0  0  0  0  0  0  0
   39.0440   23.6630   33.8630 C   0  0  0  0  0  0  0  0  0  0  0  0
   39.4620   21.5480   33.7450 H   0  0  0  0  0  0  0  0  0  0  0  0
   37.4030   21.0800   32.8910 H   0  0  0  0  0  0  0  0  0  0  0  0
   36.5230   22.3780   33.8600 H   0  0  0  0  0  0  0  0  0  0  0  0
   37.8810   22.5370   31.2180 H   0  0  0  0  0  0  0  0  0  0  0  0
   38.3800   24.3120   34.4370 H   0  0  0  0  0  0  0  0  0  0  0  0
   40.1210   23.8320   34.1010 H   0  0  0  0  0  0  0  0  0  0  0  0
   38.4180   21.9890   35.4670 O   0  0  0  0  0  0  0  0  0  0  0  0
   38.4670   23.0830   36.2830 C   0  0  0  0  0  2  0  0  0  0  0  0
   39.0250   22.6040   37.5570 N   0  0  0  0  0  4  0  0  0  0  0  0
   38.5980   21.6400   37.6720 H   0  0  0  0  0  0  0  0  0  0  0  0
   38.6600   23.4320   38.6640 C   0  0  0  0  0  2  0  0  0  0  0  0
   37.6710   23.8870   38.4610 H   0  0  0  0  0  0  0  0  0  0  0  0
   40.4610   22.3930   37.4490 C   0  0  0  0  0  2  0  0  0  0  0  0
   40.7440   21.3930   37.8830 H   0  0  0  0  0  0  0  0  0  0  0  0
   37.1570   25.5140   31.2290 S   0  0  0  0  0  0  0  0  0  0  0  0
   35.4140   28.7490   32.7310 C   0  0  0  0  0  0  0  0  0  0  0  0
   35.8920   28.8200   34.0480 C   0  0  0  0  0  0  0  0  0  0  0  0
   36.7720   27.8760   34.5340 C   0  0  0  0  0  0  0  0  0  0  0  0
   37.1430   26.8790   33.6560 C   0  0  0  0  0  0  0  0  0  0  0  0
   36.6640   26.8360   32.3870 C   0  0  0  0  0  0  0  0  0  0  0  0
   35.8020   27.7540   31.9000 N   0  0  0  0  0  0  0  0  0  0  0  0
   35.5670   29.6240   34.6880 H   0  0  0  0  0  0  0  0  0  0  0  0
   37.1490   27.9230   35.5550 H   0  0  0  0  0  0  0  0  0  0  0  0
   37.8330   26.1260   34.0170 H   0  0  0  0  0  0  0  0  0  0  0  0
   34.4950   29.7780   32.3010 C   0  0  0  0  0  0  0  0  0  0  0  0
   34.7480   30.4840   31.3210 O   0  0  0  0  0  0  0  0  0  0  0  0
   32.2500   29.0210   32.9900 C   0  0  0  0  0  0  0  0  0  0  0  0
   33.2260   30.0430   32.9900 C   0  0  0  0  0  0  0  0  0  0  0  0
   32.9410   31.2400   33.6390 C   0  0  0  0  0  0  0  0  0  0  0  0
   31.7310   31.3950   34.2540 N   0  0  0  0  0  0  0  0  0  0  0  0
   30.8130   30.3930   34.2360 C   0  0  0  0  0  0  0  0  0  0  0  0
   31.0700   29.2290   33.6140 N   0  0  0  0  0  0  0  0  0  0  0  0
   32.4000   28.0590   32.5040 H   0  0  0  0  0  0  0  0  0  0  0  0
   33.7170   31.9700   33.6030 H   0  0  0  0  0  0  0  0  0  0  0  0
   29.9210   30.6880   34.7680 H   0  0  0  0  0  0  0  0  0  0  0  0
  1  6  1  0  0  0  0
  1  2  1  0  0  0  0
  3  1  1  0  0  0  0
  4  9  1  6  0  0  0
  4 15  1  0  0  0  0
  5 11  1  0  0  0  0
  5  4  1  0  0  0  0
  6 12  1  6  0  0  0
  6  7  1  0  0  0  0
  6  5  1  0  0  0  0
  7  8  1  0  0  0  0
  8 14  1  0  0  0  0
  8  4  1  0  0  0  0
  8 13  1  0  0  0  0
 10  5  1  0  0  0  0
 15 16  1  0  0  0  0
 16 17  1  0  0  0  0
 17 18  1  0  0  0  0
 17 19  1  0  0  0  0
 20 19  1  0  0  0  0
 21 17  1  0  0  0  0
 21 22  1  0  0  0  0
 23  1  1  0  0  0  0
 23 28  1  0  0  0  0
 24 25  1  0  0  0  0
 25 26  2  0  0  0  0
 25 30  1  0  0  0  0
 26 31  1  0  0  0  0
 27 32  1  0  0  0  0
 27 26  1  0  0  0  0
 28 27  2  0  0  0  0
 29 28  1  0  0  0  0
 29 24  2  0  0  0  0
 33 24  1  0  0  0  0
 33 36  1  0  0  0  0
 34 33  2  0  0  0  0
 35 36  2  0  0  0  0
 35 40  1  0  0  0  0
 36 37  1  0  0  0  0
 37 38  2  0  0  0  0
 39 38  1  0  0  0  0
 39 43  1  0  0  0  0
 40 39  2  0  0  0  0
 41 35  1  0  0  0  0
 42 37  1  0  0  0  0
M  END
>  <minimizedAffinity>
-4.95941734

$$$$

 OpenBabel03262522173D

 43 45  0  0  1  0  0  0  0  0999 V2000
   35.6130   29.0080   33.4660 C   0  0  0  0  0  0  0  0  0  0  0  0
   35.1670   28.2240   34.0940 H   0  0  0  0  0  0  0  0  0  0  0  0
   36.5590   29.3760   33.8800 H   0  0  0  0  0  0  0  0  0  0  0  0
   32.4440   30.4000   34.2590 C   0  0  1  0  0  0  0  0  0  0  0  0
   33.8780   30.2530   34.7440 C   0  0  0  0  0  0  0  0  0  0  0  0
   34.6260   30.1640   33.4370 C   0  0  2  0  0  0  0  0  0  0  0  0
   33.7160   30.0550   32.4230 O   0  0  0  0  0  0  0  0  0  0  0  0
   32.5140   29.6100   32.9610 C   0  0  0  0  0  0  0  0  0  0  0  0
   32.2110   31.4530   34.0430 H   0  0  0  0  0  0  0  0  0  0  0  0
   34.1320   31.1910   35.2390 H   0  0  0  0  0  0  0  0  0  0  0  0
   34.0080   29.3550   35.3500 H   0  0  0  0  0  0  0  0  0  0  0  0
   35.2290   31.0780   33.2550 H   0  0  0  0  0  0  0  0  0  0  0  0
   32.5220   28.5430   33.1930 H   0  0  0  0  0  0  0  0  0  0  0  0
   31.6680   29.8970   32.2930 H   0  0  0  0  0  0  0  0  0  0  0  0
   31.5490   29.8430   35.1470 O   0  0  0  0  0  0  0  0  0  0  0  0
   31.9910   28.7630   35.8560 C   0  0  0  0  0  2  0  0  0  0  0  0
   30.8020   27.9310   36.0960 N   0  0  0  0  0  4  0  0  0  0  0  0
   30.0400   28.6370   36.3060 H   0  0  0  0  0  0  0  0  0  0  0  0
   30.9650   27.0460   37.2070 C   0  0  0  0  0  2  0  0  0  0  0  0
   31.6510   27.5130   37.9400 H   0  0  0  0  0  0  0  0  0  0  0  0
   30.3890   27.2510   34.8770 C   0  0  0  0  0  2  0  0  0  0  0  0
   29.2790   27.3630   34.7230 H   0  0  0  0  0  0  0  0  0  0  0  0
   35.8880   28.5120   31.7450 S   0  0  0  0  0  0  0  0  0  0  0  0
   37.3170   24.9200   32.6480 C   0  0  0  0  0  0  0  0  0  0  0  0
   36.5250   24.0340   31.9020 C   0  0  0  0  0  0  0  0  0  0  0  0
   35.5150   24.5030   31.0870 C   0  0  0  0  0  0  0  0  0  0  0  0
   35.3420   25.8700   31.0570 C   0  0  0  0  0  0  0  0  0  0  0  0
   36.1230   26.7020   31.7890 C   0  0  0  0  0  0  0  0  0  0  0  0
   37.1150   26.2560   32.5900 N   0  0  0  0  0  0  0  0  0  0  0  0
   36.7090   22.9740   31.9670 H   0  0  0  0  0  0  0  0  0  0  0  0
   34.8950   23.8220   30.5040 H   0  0  0  0  0  0  0  0  0  0  0  0
   34.5540   26.2600   30.4230 H   0  0  0  0  0  0  0  0  0  0  0  0
   38.3540   24.3470   33.4760 C   0  0  0  0  0  0  0  0  0  0  0  0
   39.4380   24.0100   32.9920 O   0  0  0  0  0  0  0  0  0  0  0  0
   38.0110   22.8100   35.3750 C   0  0  0  0  0  0  0  0  0  0  0  0
   38.1860   24.1360   34.9200 C   0  0  0  0  0  0  0  0  0  0  0  0
   38.1940   25.1690   35.8530 C   0  0  0  0  0  0  0  0  0  0  0  0
   38.0310   24.8740   37.1760 N   0  0  0  0  0  0  0  0  0  0  0  0
   37.8630   23.5880   37.5830 C   0  0  0  0  0  0  0  0  0  0  0  0
   37.8540   22.5770   36.6970 N   0  0  0  0  0  0  0  0  0  0  0  0
   37.9940   21.9510   34.7080 H   0  0  0  0  0  0  0  0  0  0  0  0
   38.3300   26.1440   35.4450 H   0  0  0  0  0  0  0  0  0  0  0  0
   37.7500   23.5420   38.6550 H   0  0  0  0  0  0  0  0  0  0  0  0
  1  3  1  0  0  0  0
  1  2  1  0  0  0  0
  4  9  1  6  0  0  0
  4  5  1  0  0  0  0
  4 15  1  0  0  0  0
  5 10  1  0  0  0  0
  5 11  1  0  0  0  0
  6 12  1  6  0  0  0
  6  1  1  0  0  0  0
  6  5  1  0  0  0  0
  7  8  1  0  0  0  0
  7  6  1  0  0  0  0
  8 13  1  0  0  0  0
  8  4  1  0  0  0  0
 14  8  1  0  0  0  0
 15 16  1  0  0  0  0
 16 17  1  0  0  0  0
 17 18  1  0  0  0  0
 17 19  1  0  0  0  0
 19 20  1  0  0  0  0
 21 17  1  0  0  0  0
 22 21  1  0  0  0  0
 23 28  1  0  0  0  0
 23  1  1  0  0  0  0
 24 33  1  0  0  0  0
 25 30  1  0  0  0  0
 25 24  2  0  0  0  0
 26 25  1  0  0  0  0
 27 26  2  0  0  0  0
 27 28  1  0  0  0  0
 28 29  2  0  0  0  0
 29 24  1  0  0  0  0
 31 26  1  0  0  0  0
 32 27  1  0  0  0  0
 33 36  1  0  0  0  0
 34 33  2  0  0  0  0
 35 40  1  0  0  0  0
 36 35  2  0  0  0  0
 36 37  1  0  0  0  0
 37 38  2  0  0  0  0
 38 39  1  0  0  0  0
 39 43  1  0  0  0  0
 40 39  2  0  0  0  0
 41 35  1  0  0  0  0
 42 37  1  0  0  0  0
M  END
>  <minimizedAffinity>
-4.92800617

$$$$

 OpenBabel03262522173D

 43 45  0  0  1  0  0  0  0  0999 V2000
   39.4690   27.0080   32.9830 C   0  0  0  0  0  0  0  0  0  0  0  0
   40.3480   27.6200   32.7340 H   0  0  0  0  0  0  0  0  0  0  0  0
   38.5600   27.3800   32.4970 H   0  0  0  0  0  0  0  0  0  0  0  0
   38.2580   25.6860   36.0490 C   0  0  1  0  0  0  0  0  0  0  0  0
   39.4730   25.7590   35.1360 C   0  0  0  0  0  0  0  0  0  0  0  0
   39.2760   27.1070   34.4880 C   0  0  2  0  0  0  0  0  0  0  0  0
   38.0390   27.5770   34.8310 O   0  0  0  0  0  0  0  0  0  0  0  0
   37.2600   26.5000   35.2390 C   0  0  0  0  0  0  0  0  0  0  0  0
   38.4590   26.1870   37.0070 H   0  0  0  0  0  0  0  0  0  0  0  0
   40.3450   25.8000   35.7900 H   0  0  0  0  0  0  0  0  0  0  0  0
   39.4760   24.9510   34.4030 H   0  0  0  0  0  0  0  0  0  0  0  0
   40.0290   27.8400   34.8470 H   0  0  0  0  0  0  0  0  0  0  0  0
   36.9010   25.8950   34.4040 H   0  0  0  0  0  0  0  0  0  0  0  0
   36.4340   26.8550   35.8980 H   0  0  0  0  0  0  0  0  0  0  0  0
   37.8330   24.3860   36.2230 O   0  0  0  0  0  0  0  0  0  0  0  0
   38.4140   23.6910   37.2450 C   0  0  0  0  0  2  0  0  0  0  0  0
   38.6640   22.3410   36.7150 N   0  0  0  0  0  4  0  0  0  0  0  0
   38.3510   21.7020   37.5010 H   0  0  0  0  0  0  0  0  0  0  0  0
   40.0450   22.1130   36.4230 C   0  0  0  0  0  2  0  0  0  0  0  0
   40.6630   22.7190   37.1140 H   0  0  0  0  0  0  0  0  0  0  0  0
   37.7860   22.0520   35.5920 C   0  0  0  0  0  2  0  0  0  0  0  0
   37.3160   21.0350   35.7130 H   0  0  0  0  0  0  0  0  0  0  0  0
   39.6570   25.2490   32.5940 S   0  0  0  0  0  0  0  0  0  0  0  0
   36.5060   22.9250   31.9350 C   0  0  0  0  0  0  0  0  0  0  0  0
   35.5670   23.7770   31.3340 C   0  0  0  0  0  0  0  0  0  0  0  0
   35.8610   25.1050   31.1040 C   0  0  0  0  0  0  0  0  0  0  0  0
   37.1130   25.5290   31.4960 C   0  0  0  0  0  0  0  0  0  0  0  0
   38.0010   24.6820   32.0760 C   0  0  0  0  0  0  0  0  0  0  0  0
   37.7250   23.3810   32.3060 N   0  0  0  0  0  0  0  0  0  0  0  0
   34.6040   23.3870   31.0480 H   0  0  0  0  0  0  0  0  0  0  0  0
   35.1380   25.7740   30.6370 H   0  0  0  0  0  0  0  0  0  0  0  0
   37.3650   26.5690   31.3250 H   0  0  0  0  0  0  0  0  0  0  0  0
   36.1190   21.5480   32.1400 C   0  0  0  0  0  0  0  0  0  0  0  0
   35.1690   21.2590   32.8730 O   0  0  0  0  0  0  0  0  0  0  0  0
   36.2660   19.8980   30.3120 C   0  0  0  0  0  0  0  0  0  0  0  0
   36.8180   20.4270   31.5000 C   0  0  0  0  0  0  0  0  0  0  0  0
   37.9890   19.8660   32.0020 C   0  0  0  0  0  0  0  0  0  0  0  0
   38.5700   18.8250   31.3360 N   0  0  0  0  0  0  0  0  0  0  0  0
   38.0130   18.3380   30.1950 C   0  0  0  0  0  0  0  0  0  0  0  0
   36.8830   18.8660   29.6950 N   0  0  0  0  0  0  0  0  0  0  0  0
   35.3550   20.2830   29.8590 H   0  0  0  0  0  0  0  0  0  0  0  0
   38.3540   20.3100   32.9000 H   0  0  0  0  0  0  0  0  0  0  0  0
   38.6020   17.5200   29.8070 H   0  0  0  0  0  0  0  0  0  0  0  0
  1  6  1  0  0  0  0
  2  1  1  0  0  0  0
  3  1  1  0  0  0  0
  4 15  1  0  0  0  0
  4  9  1  1  0  0  0
  5 10  1  0  0  0  0
  5  4  1  0  0  0  0
  6  7  1  0  0  0  0
  6 12  1  1  0  0  0
  6  5  1  0  0  0  0
  7  8  1  0  0  0  0
  8 14  1  0  0  0  0
  8  4  1  0  0  0  0
 11  5  1  0  0  0  0
 13  8  1  0  0  0  0
 15 16  1  0  0  0  0
 17 16  1  0  0  0  0
 17 18  1  0  0  0  0
 19 17  1  0  0  0  0
 19 20  1  0  0  0  0
 21 22  1  0  0  0  0
 21 17  1  0  0  0  0
 23  1  1  0  0  0  0
 24 33  1  0  0  0  0
 24 29  1  0  0  0  0
 25 24  2  0  0  0  0
 26 25  1  0  0  0  0
 26 27  2  0  0  0  0
 27 28  1  0  0  0  0
 28 29  2  0  0  0  0
 28 23  1  0  0  0  0
 30 25  1  0  0  0  0
 31 26  1  0  0  0  0
 32 27  1  0  0  0  0
 33 34  2  0  0  0  0
 35 36  1  0  0  0  0
 36 37  2  0  0  0  0
 36 33  1  0  0  0  0
 37 42  1  0  0  0  0
 38 37  1  0  0  0  0
 39 38  2  0  0  0  0
 40 39  1  0  0  0  0
 40 35  2  0  0  0  0
 41 35  1  0  0  0  0
 43 39  1  0  0  0  0
M  END
>  <minimizedAffinity>
-4.85687351

$$$$
