REMARK  Name = 
REMARK  10 active torsions:
REMARK  status: ('A' for Active; 'I' for Inactive)
REMARK    1  A    between atoms: C_1  and  C_7
REMARK    2  A    between atoms: C_5  and  S_15
REMARK    3  A    between atoms: C_7  and  C_10
REMARK    4  A    between atoms: S_15  and  C_16
REMARK    5  A    between atoms: C_16  and  C_19
REMARK    6  A    between atoms: C_17  and  O_22
REMARK    7  A    between atoms: O_22  and  C_37
REMARK    8  A    between atoms: C_37  and  N_38
REMARK    9  A    between atoms: N_38  and  C_39
REMARK   10  A    between atoms: N_38  and  C_41
REMARK                            x       y       z     vdW  Elec       q    Type
REMARK                         _______ _______ _______ _____ _____    ______ ____
ROOT
ATOM      1  C   UNL     1      39.565  32.934  43.792  0.00  0.00    +0.000 C 
ATOM      2  H   UNL     1      38.500  32.823  44.044  0.00  0.00    +0.000 HD
ATOM      3  H   UNL     1      39.751  33.827  43.185  0.00  0.00    +0.000 HD
ENDROOT
BRANCH   1   6
ATOM      4  C   UNL     1      38.769  29.793  42.339  0.00  0.00    +0.000 C 
ATOM      5  C   UNL     1      38.812  31.292  42.080  0.00  0.00    +0.000 C 
ATOM      6  C   UNL     1      39.953  31.714  42.972  0.00  0.00    +0.000 C 
ATOM      7  O   UNL     1      40.313  30.649  43.750  0.00  0.00    +0.000 OA
ATOM      8  C   UNL     1      39.251  29.752  43.781  0.00  0.00    +0.000 C 
ATOM      9  H   UNL     1      39.484  29.265  41.691  0.00  0.00    +0.000 HD
ATOM     10  H   UNL     1      39.108  31.414  41.038  0.00  0.00    +0.000 HD
ATOM     11  H   UNL     1      37.875  31.776  42.360  0.00  0.00    +0.000 HD
ATOM     12  H   UNL     1      40.840  32.014  42.376  0.00  0.00    +0.000 HD
ATOM     13  H   UNL     1      38.440  30.076  44.437  0.00  0.00    +0.000 HD
ATOM     14  H   UNL     1      39.622  28.730  44.030  0.00  0.00    +0.000 HD
BRANCH   4  15
ATOM     15  O   UNL     1      37.490  29.294  42.214  0.00  0.00    +0.000 OA
BRANCH  15  16
ATOM     16  C   UNL     1      37.326  28.262  41.335  0.00  0.00    +0.000 C 
BRANCH  16  17
ATOM     17  N   UNL     1      36.211  27.462  41.865  0.00  0.00    +0.000 N 
ATOM     18  H   UNL     1      36.496  27.269  42.869  0.00  0.00    +0.000 HD
BRANCH  17  19
ATOM     19  C   UNL     1      36.037  26.227  41.165  0.00  0.00    +0.000 C 
ATOM     20  H   UNL     1      37.020  25.890  40.782  0.00  0.00    +0.000 HD
ENDBRANCH  17  19
BRANCH  17  21
ATOM     21  C   UNL     1      34.993  28.255  41.943  0.00  0.00    +0.000 C 
ATOM     22  H   UNL     1      34.500  28.120  42.946  0.00  0.00    +0.000 HD
ENDBRANCH  17  21
ENDBRANCH  16  17
ENDBRANCH  15  16
ENDBRANCH   4  15
ENDBRANCH   1   6
BRANCH   1  23
ATOM     23  S   UNL     1      40.666  32.971  45.230  0.00  0.00    +0.000 S 
BRANCH  23  28
ATOM     24  C   UNL     1      37.772  31.750  47.657  0.00  0.00    +0.000 A 
ATOM     25  C   UNL     1      37.926  32.541  48.806  0.00  0.00    +0.000 A 
ATOM     26  C   UNL     1      38.928  33.486  48.885  0.00  0.00    +0.000 A 
ATOM     27  C   UNL     1      39.749  33.598  47.783  0.00  0.00    +0.000 A 
ATOM     28  C   UNL     1      39.576  32.819  46.686  0.00  0.00    +0.000 A 
ATOM     29  N   UNL     1      38.599  31.891  46.596  0.00  0.00    +0.000 NA
ATOM     30  H   UNL     1      37.252  32.408  49.636  0.00  0.00    +0.000 HD
ATOM     31  H   UNL     1      39.055  34.105  49.773  0.00  0.00    +0.000 HD
ATOM     32  H   UNL     1      40.543  34.334  47.824  0.00  0.00    +0.000 HD
BRANCH  24  33
ATOM     33  C   UNL     1      36.697  30.784  47.655  0.00  0.00    +0.000 C 
ATOM     34  O   UNL     1      36.209  30.381  46.596  0.00  0.00    +0.000 OA
BRANCH  33  36
ATOM     35  C   UNL     1      37.016  29.634  49.815  0.00  0.00    +0.000 A 
ATOM     36  C   UNL     1      36.129  30.231  48.891  0.00  0.00    +0.000 A 
ATOM     37  C   UNL     1      34.771  30.268  49.195  0.00  0.00    +0.000 A 
ATOM     38  N   UNL     1      34.335  29.728  50.371  0.00  0.00    +0.000 NA
ATOM     39  C   UNL     1      35.214  29.160  51.239  0.00  0.00    +0.000 A 
ATOM     40  N   UNL     1      36.529  29.115  50.963  0.00  0.00    +0.000 NA
ATOM     41  H   UNL     1      38.089  29.568  49.648  0.00  0.00    +0.000 HD
ATOM     42  H   UNL     1      34.156  30.731  48.458  0.00  0.00    +0.000 HD
ATOM     43  H   UNL     1      34.697  28.787  52.110  0.00  0.00    +0.000 HD
ENDBRANCH  33  36
ENDBRANCH  24  33
ENDBRANCH  23  28
ENDBRANCH   1  23
TORSDOF 10
