REMARK  Name = 
REMARK  8 active torsions:
REMARK  status: ('A' for Active; 'I' for Inactive)
REMARK    1  A    between atoms: C_1  and  C_4
REMARK    2  A    between atoms: C_2  and  C_11
REMARK    3  A    between atoms: C_10  and  O_15
REMARK    4  A    between atoms: C_14  and  O_16
REMARK    5  A    between atoms: O_16  and  C_30
REMARK    6  A    between atoms: C_30  and  N_31
REMARK    7  A    between atoms: N_31  and  C_32
REMARK    8  A    between atoms: N_31  and  C_34
REMARK                            x       y       z     vdW  Elec       q    Type
REMARK                         _______ _______ _______ _____ _____    ______ ____
ROOT
ATOM      1  C   UNL     1      33.975  29.051  47.374  0.00  0.00    +0.000 C 
ATOM      2  C   UNL     1      34.749  28.271  48.411  0.00  0.00    +0.000 C 
ATOM      3  O   UNL     1      33.875  28.057  49.430  0.00  0.00    +0.000 OA
ATOM      4  C   UNL     1      32.576  28.150  49.002  0.00  0.00    +0.000 C 
ATOM      5  C   UNL     1      32.606  28.400  47.494  0.00  0.00    +0.000 C 
ATOM      6  H   UNL     1      33.814  30.110  47.689  0.00  0.00    +0.000 HD
ATOM      7  H   UNL     1      35.043  27.314  47.961  0.00  0.00    +0.000 HD
ATOM      8  H   UNL     1      31.955  27.294  49.273  0.00  0.00    +0.000 HD
ATOM      9  H   UNL     1      32.123  29.064  49.453  0.00  0.00    +0.000 HD
ATOM     10  H   UNL     1      32.640  27.371  47.056  0.00  0.00    +0.000 HD
ENDROOT
BRANCH   2  12
ATOM     11  C   UNL     1      35.813  30.547  49.073  0.00  0.00    +0.000 C 
ATOM     12  C   UNL     1      35.903  29.123  48.844  0.00  0.00    +0.000 C 
ATOM     13  C   UNL     1      36.061  29.592  50.252  0.00  0.00    +0.000 C 
ATOM     14  H   UNL     1      34.900  31.151  49.257  0.00  0.00    +0.000 HD
ATOM     15  H   UNL     1      36.864  28.780  48.358  0.00  0.00    +0.000 HD
ATOM     16  H   UNL     1      35.239  29.418  50.975  0.00  0.00    +0.000 HD
ATOM     17  H   UNL     1      37.065  29.563  50.709  0.00  0.00    +0.000 HD
BRANCH  11  18
ATOM     18  C   UNL     1      37.002  31.454  48.826  0.00  0.00    +0.000 A 
ATOM     19  C   UNL     1      37.188  32.528  49.700  0.00  0.00    +0.000 A 
ATOM     20  C   UNL     1      38.274  33.342  49.415  0.00  0.00    +0.000 A 
ATOM     21  N   UNL     1      39.091  33.086  48.343  0.00  0.00    +0.000 NA
ATOM     22  C   UNL     1      38.870  32.028  47.520  0.00  0.00    +0.000 A 
ATOM     23  N   UNL     1      37.818  31.209  47.767  0.00  0.00    +0.000 NA
ATOM     24  H   UNL     1      36.546  32.717  50.530  0.00  0.00    +0.000 HD
ATOM     25  H   UNL     1      38.516  34.202  50.021  0.00  0.00    +0.000 HD
ATOM     26  H   UNL     1      39.495  31.805  46.674  0.00  0.00    +0.000 HD
ENDBRANCH  11  18
ENDBRANCH   2  12
BRANCH   1  27
ATOM     27  O   UNL     1      34.472  28.957  46.102  0.00  0.00    +0.000 OA
ATOM     28  H   UNL     1      34.344  29.834  45.656  0.00  0.00    +0.000 HD
ENDBRANCH   1  27
BRANCH   5  29
ATOM     29  O   UNL     1      31.574  29.178  47.070  0.00  0.00    +0.000 OA
BRANCH  29  30
ATOM     30  C   UNL     1      30.717  28.554  46.197  0.00  0.00    +0.000 C 
BRANCH  30  31
ATOM     31  N   UNL     1      31.187  27.353  45.579  0.00  0.00    +0.000 N 
ATOM     32  H   UNL     1      32.241  27.364  45.596  0.00  0.00    +0.000 HD
BRANCH  31  33
ATOM     33  C   UNL     1      30.774  27.297  44.160  0.00  0.00    +0.000 C 
ATOM     34  H   UNL     1      29.682  27.375  44.116  0.00  0.00    +0.000 HD
ENDBRANCH  31  33
BRANCH  31  35
ATOM     35  C   UNL     1      30.680  26.139  46.169  0.00  0.00    +0.000 C 
ATOM     36  H   UNL     1      30.276  25.418  45.398  0.00  0.00    +0.000 HD
ENDBRANCH  31  35
ENDBRANCH  30  31
ENDBRANCH  29  30
ENDBRANCH   5  29
TORSDOF 8
