
 OpenBabel03272508263D

 36 38  0  0  1  0  0  0  0  0999 V2000
   33.9120   28.9240   47.3020 C   0  0  2  0  0  0  0  0  0  0  0  0
   34.6780   28.1640   48.3600 C   0  0  2  0  0  0  0  0  0  0  0  0
   33.7880   27.9410   49.3620 O   0  0  0  0  0  0  0  0  0  0  0  0
   32.4960   28.0080   48.9070 C   0  0  0  0  0  0  0  0  0  0  0  0
   32.5530   28.2490   47.3990 C   0  0  1  0  0  0  0  0  0  0  0  0
   33.7260   29.9820   47.6070 H   0  0  0  0  0  0  0  0  0  0  0  0
   34.9980   27.2090   47.9220 H   0  0  0  0  0  0  0  0  0  0  0  0
   31.8850   27.1430   49.1710 H   0  0  0  0  0  0  0  0  0  0  0  0
   32.0180   28.9170   49.3430 H   0  0  0  0  0  0  0  0  0  0  0  0
   32.6140   27.2180   46.9680 H   0  0  0  0  0  0  0  0  0  0  0  0
   35.7000   30.4690   48.9850 C   0  0  1  0  0  0  0  0  0  0  0  0
   35.8080   29.0390   48.8110 C   0  0  1  0  0  0  0  0  0  0  0  0
   35.9040   29.5580   50.2070 C   0  0  0  0  0  0  0  0  0  0  0  0
   34.7770   31.0730   49.1100 H   0  0  0  0  0  0  0  0  0  0  0  0
   36.7910   28.6860   48.3780 H   0  0  0  0  0  0  0  0  0  0  0  0
   35.0530   29.4030   50.9000 H   0  0  0  0  0  0  0  0  0  0  0  0
   36.8880   29.5520   50.7060 H   0  0  0  0  0  0  0  0  0  0  0  0
   36.8940   31.3760   48.7570 C   0  0  0  0  0  0  0  0  0  0  0  0
   37.1220   32.3910   49.6890 C   0  0  0  0  0  0  0  0  0  0  0  0
   38.2100   33.2080   49.4200 C   0  0  0  0  0  0  0  0  0  0  0  0
   38.9890   33.0100   48.3080 N   0  0  0  0  0  0  0  0  0  0  0  0
   38.7270   32.0080   47.4290 C   0  0  0  0  0  0  0  0  0  0  0  0
   37.6720   31.1880   47.6590 N   0  0  0  0  0  0  0  0  0  0  0  0
   36.5090   32.5350   50.5490 H   0  0  0  0  0  0  0  0  0  0  0  0
   38.4830   34.0260   50.0700 H   0  0  0  0  0  0  0  0  0  0  0  0
   39.3220   31.8310   46.5510 H   0  0  0  0  0  0  0  0  0  0  0  0
   34.4370   28.8300   46.0410 O   0  0  0  0  0  0  0  0  0  0  0  0
   34.3030   29.7020   45.5870 H   0  0  0  0  0  0  0  0  0  0  0  0
   31.5160   29.0060   46.9490 O   0  0  0  0  0  0  0  0  0  0  0  0
   30.2820   28.4260   47.1060 C   0  0  0  0  0  0  0  0  0  0  0  0
   29.2980   29.1840   47.8160 N   0  0  0  0  0  0  0  0  0  0  0  0
   29.7600   30.0560   48.1880 H   0  0  0  0  0  0  0  0  0  0  0  0
   28.7910   28.4260   48.9800 C   0  0  0  0  0  0  0  0  0  0  0  0
   28.3870   27.4730   48.6210 H   0  0  0  0  0  0  0  0  0  0  0  0
   28.1270   29.5170   47.0430 C   0  0  0  0  0  0  0  0  0  0  0  0
   27.1660   29.2810   47.5880 H   0  0  0  0  0  0  0  0  0  0  0  0
  1  5  1  0  0  0  0
  1  6  1  1  0  0  0
  1  2  1  0  0  0  0
  2  7  1  6  0  0  0
  2 12  1  0  0  0  0
  2  3  1  0  0  0  0
  4  8  1  0  0  0  0
  4  9  1  0  0  0  0
  4  3  1  0  0  0  0
  5 10  1  6  0  0  0
  5  4  1  0  0  0  0
 11 14  1  6  0  0  0
 11 13  1  0  0  0  0
 12 15  1  6  0  0  0
 12 11  1  0  0  0  0
 12 13  1  0  0  0  0
 13 17  1  0  0  0  0
 13 16  1  0  0  0  0
 18 11  1  0  0  0  0
 18 19  1  0  0  0  0
 19 24  1  0  0  0  0
 20 19  2  0  0  0  0
 20 25  1  0  0  0  0
 21 20  1  0  0  0  0
 22 23  1  0  0  0  0
 22 21  2  0  0  0  0
 23 18  2  0  0  0  0
 26 22  1  0  0  0  0
 27  1  1  0  0  0  0
 28 27  1  0  0  0  0
 29 30  1  0  0  0  0
 29  5  1  0  0  0  0
 30 31  1  0  0  0  0
 31 32  1  0  0  0  0
 31 33  1  0  0  0  0
 34 33  1  0  0  0  0
 35 36  1  0  0  0  0
 35 31  1  0  0  0  0
M  END
>  <minimizedAffinity>
-5.10515642

>  <minimizedRMSD>
0.949035287

$$$$
