
 OpenBabel03262521463D

 28 28  0  0  0  0  0  0  0  0999 V2000
   36.9390   29.1980   50.6830 C   0  0  0  0  0  0  0  0  0  0  0  0
   37.4970   28.3560   51.1300 H   0  0  0  0  0  0  0  0  0  0  0  0
   36.8160   28.9700   49.6050 H   0  0  0  0  0  0  0  0  0  0  0  0
   37.7140   30.4560   50.8850 C   0  0  0  0  0  0  0  0  0  0  0  0
   37.1690   31.2000   51.5180 H   0  0  0  0  0  0  0  0  0  0  0  0
   38.6650   30.2690   51.4350 H   0  0  0  0  0  0  0  0  0  0  0  0
   38.0840   31.1450   49.6490 C   0  0  0  0  0  0  0  0  0  0  0  0
   38.5400   32.4470   49.6250 C   0  0  0  0  0  0  0  0  0  0  0  0
   38.8710   33.0230   48.3890 C   0  0  0  0  0  0  0  0  0  0  0  0
   38.7210   32.2560   47.2600 N   0  0  0  0  0  0  0  0  0  0  0  0
   38.2640   30.9680   47.3360 C   0  0  0  0  0  0  0  0  0  0  0  0
   37.9480   30.4220   48.5280 N   0  0  0  0  0  0  0  0  0  0  0  0
   38.6380   33.0050   50.5490 H   0  0  0  0  0  0  0  0  0  0  0  0
   39.2310   34.0400   48.3290 H   0  0  0  0  0  0  0  0  0  0  0  0
   38.1580   30.3870   46.4130 H   0  0  0  0  0  0  0  0  0  0  0  0
   35.6840   29.3580   51.2640 O   0  0  0  0  0  0  0  0  0  0  0  0
   34.6470   30.9640   49.4870 O   0  0  0  0  0  0  0  0  0  0  0  0
   34.4790   29.5710   50.0850 P   0  0  2  0  0  0  0  0  0  0  0  0
   32.9450   29.5210   50.7490 O   0  0  0  0  0  0  0  0  0  0  0  0
   33.0380   29.6010   51.7480 H   0  0  0  0  0  0  0  0  0  0  0  0
   34.6100   28.3910   48.8900 O   0  0  0  0  0  0  0  0  0  0  0  0
   33.4310   27.7080   48.6710 C   0  0  0  0  0  0  0  0  0  0  0  0
   32.4430   28.5240   47.9830 N   0  0  0  0  0  0  0  0  0  0  0  0
   32.3510   29.4360   48.4850 H   0  0  0  0  0  0  0  0  0  0  0  0
   31.1540   27.8710   47.9640 C   0  0  0  0  0  0  0  0  0  0  0  0
   30.8440   27.7860   46.8950 H   0  0  0  0  0  0  0  0  0  0  0  0
   32.9360   28.7810   46.6480 C   0  0  0  0  0  0  0  0  0  0  0  0
   33.3020   27.8320   46.1870 H   0  0  0  0  0  0  0  0  0  0  0  0
  1  4  1  0  0  0  0
  1  2  1  0  0  0  0
  1 16  1  0  0  0  0
  3  1  1  0  0  0  0
  4  6  1  0  0  0  0
  4  5  1  0  0  0  0
  7  4  1  0  0  0  0
  8  7  1  0  0  0  0
  8 13  1  0  0  0  0
  9  8  2  0  0  0  0
 10 11  2  0  0  0  0
 10  9  1  0  0  0  0
 11 12  1  0  0  0  0
 12  7  2  0  0  0  0
 14  9  1  0  0  0  0
 15 11  1  0  0  0  0
 18 17  2  6  0  0  0
 18 19  1  0  0  0  0
 18 16  1  0  0  0  0
 19 20  1  0  0  0  0
 21 18  1  0  0  0  0
 22 21  1  0  0  0  0
 23 24  1  0  0  0  0
 23 22  1  0  0  0  0
 25 23  1  0  0  0  0
 26 25  1  0  0  0  0
 27 23  1  0  0  0  0
 28 27  1  0  0  0  0
M  END
>  <minimizedAffinity>
-4.6829443

>  <minimizedRMSD>
0.940710127

$$$$
