
 OpenBabel03272508263D

 36 38  0  0  1  0  0  0  0  0999 V2000
   34.0160   28.9410   47.3550 C   0  0  2  0  0  0  0  0  0  0  0  0
   34.7570   28.2220   48.4580 C   0  0  2  0  0  0  0  0  0  0  0  0
   33.8490   28.0600   49.4570 O   0  0  0  0  0  0  0  0  0  0  0  0
   32.5650   28.1240   48.9810 C   0  0  0  0  0  0  0  0  0  0  0  0
   32.6460   28.2920   47.4630 C   0  0  1  0  0  0  0  0  0  0  0  0
   33.8420   30.0150   47.6060 H   0  0  0  0  0  0  0  0  0  0  0  0
   35.0680   27.2440   48.0710 H   0  0  0  0  0  0  0  0  0  0  0  0
   31.9380   27.2810   49.2770 H   0  0  0  0  0  0  0  0  0  0  0  0
   32.0950   29.0590   49.3660 H   0  0  0  0  0  0  0  0  0  0  0  0
   32.6980   27.2410   47.0830 H   0  0  0  0  0  0  0  0  0  0  0  0
   35.7880   30.5340   49.0440 C   0  0  1  0  0  0  0  0  0  0  0  0
   35.8930   29.1020   48.8830 C   0  0  1  0  0  0  0  0  0  0  0  0
   36.0090   29.6360   50.2720 C   0  0  0  0  0  0  0  0  0  0  0  0
   34.8660   31.1390   49.1740 H   0  0  0  0  0  0  0  0  0  0  0  0
   36.8690   28.7440   48.4400 H   0  0  0  0  0  0  0  0  0  0  0  0
   35.1680   29.4890   50.9790 H   0  0  0  0  0  0  0  0  0  0  0  0
   37.0000   29.6360   50.7570 H   0  0  0  0  0  0  0  0  0  0  0  0
   36.9780   31.4380   48.7880 C   0  0  0  0  0  0  0  0  0  0  0  0
   37.1920   32.4920   49.6790 C   0  0  0  0  0  0  0  0  0  0  0  0
   38.2770   33.3040   49.3860 C   0  0  0  0  0  0  0  0  0  0  0  0
   39.0680   33.0640   48.2910 N   0  0  0  0  0  0  0  0  0  0  0  0
   38.8200   32.0250   47.4510 C   0  0  0  0  0  0  0  0  0  0  0  0
   37.7680   31.2090   47.7060 N   0  0  0  0  0  0  0  0  0  0  0  0
   36.5700   32.6680   50.5280 H   0  0  0  0  0  0  0  0  0  0  0  0
   38.5400   34.1490   50.0040 H   0  0  0  0  0  0  0  0  0  0  0  0
   39.4240   31.8150   46.5870 H   0  0  0  0  0  0  0  0  0  0  0  0
   34.5570   28.7810   46.1070 O   0  0  0  0  0  0  0  0  0  0  0  0
   34.4420   29.6320   45.6100 H   0  0  0  0  0  0  0  0  0  0  0  0
   31.6270   29.0410   46.9630 O   0  0  0  0  0  0  0  0  0  0  0  0
   30.7550   28.3460   46.1610 C   0  0  0  0  0  2  0  0  0  0  0  0
   29.9410   27.3570   46.7980 N   0  0  0  0  0  4  0  0  0  0  0  0
   30.4310   27.0450   47.6790 H   0  0  0  0  0  0  0  0  0  0  0  0
   29.7910   26.1660   45.9350 C   0  0  0  0  0  2  0  0  0  0  0  0
   29.3660   26.4850   44.9780 H   0  0  0  0  0  0  0  0  0  0  0  0
   28.5950   27.7860   47.0880 C   0  0  0  0  0  2  0  0  0  0  0  0
   27.8190   27.0390   46.7460 H   0  0  0  0  0  0  0  0  0  0  0  0
  1  5  1  0  0  0  0
  1  6  1  1  0  0  0
  1  2  1  0  0  0  0
  2  7  1  6  0  0  0
  2 12  1  0  0  0  0
  2  3  1  0  0  0  0
  4  8  1  0  0  0  0
  4  9  1  0  0  0  0
  4  3  1  0  0  0  0
  5 10  1  6  0  0  0
  5  4  1  0  0  0  0
 11 14  1  6  0  0  0
 11 13  1  0  0  0  0
 12 15  1  6  0  0  0
 12 11  1  0  0  0  0
 12 13  1  0  0  0  0
 13 17  1  0  0  0  0
 13 16  1  0  0  0  0
 18 11  1  0  0  0  0
 18 19  1  0  0  0  0
 19 24  1  0  0  0  0
 20 19  2  0  0  0  0
 20 25  1  0  0  0  0
 21 20  1  0  0  0  0
 22 23  1  0  0  0  0
 22 21  2  0  0  0  0
 23 18  2  0  0  0  0
 26 22  1  0  0  0  0
 27  1  1  0  0  0  0
 28 27  1  0  0  0  0
 29  5  1  0  0  0  0
 30 31  1  0  0  0  0
 30 29  1  0  0  0  0
 31 35  1  0  0  0  0
 31 32  1  0  0  0  0
 33 31  1  0  0  0  0
 34 33  1  0  0  0  0
 36 35  1  0  0  0  0
M  END
>  <minimizedAffinity>
-4.56769228

>  <minimizedRMSD>
0.156190813

$$$$
