
 OpenBabel03262521343D

 35 37  0  0  1  0  0  0  0  0999 V2000
   38.2280   31.6600   45.4210 C   0  0  1  0  0  0  0  0  0  0  0  0
   38.8890   32.4400   46.4710 C   0  0  2  0  0  0  0  0  0  0  0  0
   40.3670   32.3980   46.0360 C   0  0  0  0  0  0  0  0  0  0  0  0
   40.4870   31.1090   45.6010 O   0  0  0  0  0  0  0  0  0  0  0  0
   39.3340   30.6960   44.9730 C   0  0  0  0  0  0  0  0  0  0  0  0
   37.9330   32.3130   44.5630 H   0  0  0  0  0  0  0  0  0  0  0  0
   38.6160   33.5090   46.3960 H   0  0  0  0  0  0  0  0  0  0  0  0
   40.9470   32.4990   46.9800 H   0  0  0  0  0  0  0  0  0  0  0  0
   40.5840   33.1720   45.2950 H   0  0  0  0  0  0  0  0  0  0  0  0
   39.0420   29.6550   45.1940 H   0  0  0  0  0  0  0  0  0  0  0  0
   39.4760   30.8060   43.8840 H   0  0  0  0  0  0  0  0  0  0  0  0
   37.5800   32.3710   48.7260 C   0  0  1  0  0  0  0  0  0  0  0  0
   38.8450   33.0290   48.9300 C   0  0  0  0  0  0  0  0  0  0  0  0
   38.7630   31.9040   47.8810 C   0  0  2  0  0  0  0  0  0  0  0  0
   36.7770   32.9220   48.1620 H   0  0  0  0  0  0  0  0  0  0  0  0
   39.0470   34.0510   48.6100 H   0  0  0  0  0  0  0  0  0  0  0  0
   39.3820   32.7740   49.8890 H   0  0  0  0  0  0  0  0  0  0  0  0
   39.2280   30.9430   48.0730 H   0  0  0  0  0  0  0  0  0  0  0  0
   35.3960   29.7380   50.2430 C   0  0  0  0  0  0  0  0  0  0  0  0
   35.8510   30.7130   49.3700 C   0  0  0  0  0  0  0  0  0  0  0  0
   37.0690   31.3170   49.6210 C   0  0  0  0  0  0  0  0  0  0  0  0
   37.7690   30.9130   50.7370 N   0  0  0  0  0  0  0  0  0  0  0  0
   37.3120   29.9580   51.5830 C   0  0  0  0  0  0  0  0  0  0  0  0
   36.1050   29.3580   51.3340 N   0  0  0  0  0  0  0  0  0  0  0  0
   34.4390   29.2740   50.0280 H   0  0  0  0  0  0  0  0  0  0  0  0
   35.3310   31.0580   48.4950 H   0  0  0  0  0  0  0  0  0  0  0  0
   37.9550   29.7300   52.4230 H   0  0  0  0  0  0  0  0  0  0  0  0
   37.1180   30.9200   45.8470 O   0  0  0  0  0  0  0  0  0  0  0  0
   36.3030   30.5940   44.7650 C   0  0  0  0  0  0  0  0  0  0  0  0
   35.4470   29.4990   45.1400 N   0  0  0  0  0  0  0  0  0  0  0  0
   36.0130   28.7700   45.6190 H   0  0  0  0  0  0  0  0  0  0  0  0
   34.3710   29.9500   46.0090 C   0  0  0  0  0  0  0  0  0  0  0  0
   33.7070   30.5660   45.3450 H   0  0  0  0  0  0  0  0  0  0  0  0
   34.8850   28.9190   43.9230 C   0  0  0  0  0  0  0  0  0  0  0  0
   35.3230   27.9140   43.7300 H   0  0  0  0  0  0  0  0  0  0  0  0
  1  6  1  6  0  0  0
  1 28  1  0  0  0  0
  1  2  1  0  0  0  0
  2  7  1  6  0  0  0
  2 14  1  0  0  0  0
  3  2  1  0  0  0  0
  3  8  1  0  0  0  0
  4  3  1  0  0  0  0
  5 10  1  0  0  0  0
  5  1  1  0  0  0  0
  5  4  1  0  0  0  0
  9  3  1  0  0  0  0
 11  5  1  0  0  0  0
 12 15  1  6  0  0  0
 12 13  1  0  0  0  0
 12 21  1  0  0  0  0
 13 17  1  0  0  0  0
 14 18  1  1  0  0  0
 14 12  1  0  0  0  0
 14 13  1  0  0  0  0
 16 13  1  0  0  0  0
 19 24  1  0  0  0  0
 20 21  1  0  0  0  0
 20 19  2  0  0  0  0
 21 22  2  0  0  0  0
 22 23  1  0  0  0  0
 23 27  1  0  0  0  0
 24 23  2  0  0  0  0
 25 19  1  0  0  0  0
 26 20  1  0  0  0  0
 29 30  1  0  0  0  0
 29 28  1  0  0  0  0
 30 31  1  0  0  0  0
 30 32  1  0  0  0  0
 33 32  1  0  0  0  0
 34 30  1  0  0  0  0
 35 34  1  0  0  0  0
M  END
>  <minimizedAffinity>
-4.97846794

>  <minimizedRMSD>
0.875626802

$$$$
