
 OpenBabel03272508083D

 22 22  0  0  0  0  0  0  0  0999 V2000
   39.0450   32.8960   48.1650 O   0  0  0  0  0  0  0  0  0  0  0  0
   38.6940   31.8580   47.1580 P   0  0  2  0  0  0  0  0  0  0  0  0
   37.5840   32.4690   46.0280 O   0  0  0  0  0  0  0  0  0  0  0  0
   37.2660   33.3730   46.2950 H   0  0  0  0  0  0  0  0  0  0  0  0
   38.1410   30.3970   47.8100 O   0  0  0  0  0  0  0  0  0  0  0  0
   37.3110   30.2310   51.4080 C   0  0  0  0  0  0  0  0  0  0  0  0
   38.0530   30.5850   50.2810 C   0  0  0  0  0  0  0  0  0  0  0  0
   37.6030   30.1810   49.0320 C   0  0  0  0  0  0  0  0  0  0  0  0
   36.4460   29.4510   48.9930 N   0  0  0  0  0  0  0  0  0  0  0  0
   35.7570   29.1280   50.0970 C   0  0  0  0  0  0  0  0  0  0  0  0
   36.1890   29.5180   51.3070 N   0  0  0  0  0  0  0  0  0  0  0  0
   37.7220   30.5810   52.3600 H   0  0  0  0  0  0  0  0  0  0  0  0
   38.9700   31.1570   50.2480 H   0  0  0  0  0  0  0  0  0  0  0  0
   34.8400   28.5480   50.0460 H   0  0  0  0  0  0  0  0  0  0  0  0
   40.1240   31.5070   46.2740 O   0  0  0  0  0  0  0  0  0  0  0  0
   39.8710   30.8210   45.1140 C   0  0  0  0  0  2  0  0  0  0  0  0
   40.5190   31.3970   43.9410 N   0  0  0  0  0  4  0  0  0  0  0  0
   41.4910   31.7380   44.2000 H   0  0  0  0  0  0  0  0  0  0  0  0
   40.6170   30.3300   42.9610 C   0  0  0  0  0  2  0  0  0  0  0  0
   41.5490   30.4100   42.3650 H   0  0  0  0  0  0  0  0  0  0  0  0
   39.7790   32.4770   43.3590 C   0  0  0  0  0  2  0  0  0  0  0  0
   39.2660   33.1350   44.0890 H   0  0  0  0  0  0  0  0  0  0  0  0
  2  5  1  0  0  0  0
  2  1  2  1  0  0  0
  3  4  1  0  0  0  0
  3  2  1  0  0  0  0
  5  8  1  0  0  0  0
  6 12  1  0  0  0  0
  7  6  2  0  0  0  0
  8  7  1  0  0  0  0
  9  8  2  0  0  0  0
  9 10  1  0  0  0  0
 10 11  2  0  0  0  0
 11  6  1  0  0  0  0
 13  7  1  0  0  0  0
 14 10  1  0  0  0  0
 15  2  1  0  0  0  0
 16 15  1  0  0  0  0
 17 18  1  0  0  0  0
 17 16  1  0  0  0  0
 19 17  1  0  0  0  0
 20 19  1  0  0  0  0
 21 17  1  0  0  0  0
 21 22  1  0  0  0  0
M  END
>  <minimizedAffinity>
-4.70568466

>  <minimizedRMSD>
1.10210323

$$$$
