
 OpenBabel03272504583D

 31 32  0  0  1  0  0  0  0  0999 V2000
   38.6810   23.3610   36.3490 C   0  0  1  0  0  0  0  0  0  0  0  0
   37.9310   23.6020   37.5580 C   0  0  0  0  0  0  0  0  0  0  0  0
   38.3990   24.7490   36.7170 C   0  0  2  0  0  0  0  0  0  0  0  0
   38.1850   23.0320   35.3720 H   0  0  0  0  0  0  0  0  0  0  0  0
   38.4690   23.4510   38.5180 H   0  0  0  0  0  0  0  0  0  0  0  0
   37.0330   23.0140   37.5080 H   0  0  0  0  0  0  0  0  0  0  0  0
   38.9320   25.4570   37.3330 H   0  0  0  0  0  0  0  0  0  0  0  0
   40.1150   22.9270   36.4110 C   0  0  0  0  0  0  0  0  0  0  0  0
   41.0160   23.6830   35.6190 C   0  0  0  0  0  0  0  0  0  0  0  0
   42.3280   23.2730   35.6810 C   0  0  0  0  0  0  0  0  0  0  0  0
   42.6740   22.2030   36.4710 N   0  0  0  0  0  0  0  0  0  0  0  0
   41.7720   21.5160   37.2090 C   0  0  0  0  0  0  0  0  0  0  0  0
   40.4610   21.8950   37.1710 N   0  0  0  0  0  0  0  0  0  0  0  0
   42.1270   20.4250   38.0190 N   0  0  0  0  0  0  0  0  0  0  0  0
   40.7570   24.5110   35.0060 H   0  0  0  0  0  0  0  0  0  0  0  0
   43.1100   23.7700   35.1210 H   0  0  0  0  0  0  0  0  0  0  0  0
   41.5030   20.0650   38.7470 H   0  0  0  0  0  0  0  0  0  0  0  0
   43.0660   19.9810   37.8530 H   0  0  0  0  0  0  0  0  0  0  0  0
   37.3930   25.3650   35.9520 O   0  0  0  0  0  0  0  0  0  0  0  0
   36.8260   27.5090   34.6450 O   0  0  0  0  0  0  0  0  0  0  0  0
   37.9750   26.7300   35.1960 P   0  0  1  0  0  0  0  0  0  0  0  0
   38.7120   27.7660   36.3670 O   0  0  0  0  0  0  0  0  0  0  0  0
   39.1310   28.5330   35.8770 H   0  0  0  0  0  0  0  0  0  0  0  0
   39.1150   26.2690   34.0390 O   0  0  0  0  0  0  0  0  0  0  0  0
   38.4760   26.0150   32.8520 C   0  0  0  0  0  2  0  0  0  0  0  0
   37.4740   24.9810   32.9400 N   0  0  0  0  0  4  0  0  0  0  0  0
   37.0180   25.0050   33.8800 H   0  0  0  0  0  0  0  0  0  0  0  0
   36.4110   25.1590   31.9740 C   0  0  0  0  0  2  0  0  0  0  0  0
   36.7360   24.7970   30.9900 H   0  0  0  0  0  0  0  0  0  0  0  0
   38.0030   23.6410   32.7680 C   0  0  0  0  0  2  0  0  0  0  0  0
   37.1110   22.9850   32.5680 H   0  0  0  0  0  0  0  0  0  0  0  0
  1  4  1  6  0  0  0
  1  8  1  0  0  0  0
  1  3  1  0  0  0  0
  1  2  1  0  0  0  0
  2  5  1  0  0  0  0
  3  7  1  1  0  0  0
  3  2  1  0  0  0  0
  6  2  1  0  0  0  0
  8 13  1  0  0  0  0
  9 10  1  0  0  0  0
  9  8  2  0  0  0  0
 10 11  2  0  0  0  0
 11 12  1  0  0  0  0
 12 14  1  0  0  0  0
 13 12  2  0  0  0  0
 14 17  1  0  0  0  0
 15  9  1  0  0  0  0
 16 10  1  0  0  0  0
 18 14  1  0  0  0  0
 19  3  1  0  0  0  0
 21 20  2  6  0  0  0
 21 19  1  0  0  0  0
 21 22  1  0  0  0  0
 23 22  1  0  0  0  0
 24 21  1  0  0  0  0
 25 26  1  0  0  0  0
 25 24  1  0  0  0  0
 26 27  1  0  0  0  0
 28 26  1  0  0  0  0
 29 28  1  0  0  0  0
 30 26  1  0  0  0  0
 31 30  1  0  0  0  0
M  END
>  <minimizedAffinity>
-4.69057178

$$$$

 OpenBabel03272504583D

 31 32  0  0  1  0  0  0  0  0999 V2000
   38.5310   26.7020   34.6700 C   0  0  1  0  0  0  0  0  0  0  0  0
   38.5130   27.0420   36.0730 C   0  0  0  0  0  0  0  0  0  0  0  0
   38.1940   25.6480   35.6270 C   0  0  2  0  0  0  0  0  0  0  0  0
   39.5020   26.5120   34.0950 H   0  0  0  0  0  0  0  0  0  0  0  0
   37.6530   27.6480   36.4280 H   0  0  0  0  0  0  0  0  0  0  0  0
   39.4520   27.5070   36.3080 H   0  0  0  0  0  0  0  0  0  0  0  0
   37.2560   25.3350   36.0590 H   0  0  0  0  0  0  0  0  0  0  0  0
   37.4310   27.1580   33.7570 C   0  0  0  0  0  0  0  0  0  0  0  0
   36.6580   28.2490   34.2300 C   0  0  0  0  0  0  0  0  0  0  0  0
   35.6510   28.6550   33.3860 C   0  0  0  0  0  0  0  0  0  0  0  0
   35.4610   28.0120   32.1870 N   0  0  0  0  0  0  0  0  0  0  0  0
   36.2300   26.9740   31.7830 C   0  0  0  0  0  0  0  0  0  0  0  0
   37.2380   26.5430   32.5970 N   0  0  0  0  0  0  0  0  0  0  0  0
   36.0370   26.3180   30.5570 N   0  0  0  0  0  0  0  0  0  0  0  0
   36.8000   28.7520   35.1550 H   0  0  0  0  0  0  0  0  0  0  0  0
   34.9930   29.4780   33.6360 H   0  0  0  0  0  0  0  0  0  0  0  0
   36.7530   25.7070   30.1510 H   0  0  0  0  0  0  0  0  0  0  0  0
   35.1240   26.4750   30.0600 H   0  0  0  0  0  0  0  0  0  0  0  0
   39.2180   24.7110   35.8520 O   0  0  0  0  0  0  0  0  0  0  0  0
   37.3250   23.7570   37.3140 O   0  0  0  0  0  0  0  0  0  0  0  0
   38.6480   23.4050   36.7140 P   0  0  1  0  0  0  0  0  0  0  0  0
   38.3250   22.0980   35.6310 O   0  0  0  0  0  0  0  0  0  0  0  0
   38.0710   21.3000   36.1800 H   0  0  0  0  0  0  0  0  0  0  0  0
   39.8170   22.9430   37.8410 O   0  0  0  0  0  0  0  0  0  0  0  0
   40.6880   22.0620   37.2530 C   0  0  0  0  0  2  0  0  0  0  0  0
   41.4020   22.6140   36.1270 N   0  0  0  0  0  4  0  0  0  0  0  0
   40.8070   23.3210   35.6390 H   0  0  0  0  0  0  0  0  0  0  0  0
   42.6070   23.3100   36.5250 C   0  0  0  0  0  2  0  0  0  0  0  0
   43.4110   22.5870   36.7140 H   0  0  0  0  0  0  0  0  0  0  0  0
   41.7750   21.6270   35.1320 C   0  0  0  0  0  2  0  0  0  0  0  0
   42.5520   22.1220   34.4880 H   0  0  0  0  0  0  0  0  0  0  0  0
  1  4  1  6  0  0  0
  1  3  1  0  0  0  0
  1  2  1  0  0  0  0
  2  6  1  0  0  0  0
  2  5  1  0  0  0  0
  3 19  1  0  0  0  0
  3  7  1  1  0  0  0
  3  2  1  0  0  0  0
  8  9  1  0  0  0  0
  8  1  1  0  0  0  0
  9 15  1  0  0  0  0
 10 16  1  0  0  0  0
 10  9  2  0  0  0  0
 11 10  1  0  0  0  0
 12 11  2  0  0  0  0
 12 13  1  0  0  0  0
 13  8  2  0  0  0  0
 14 12  1  0  0  0  0
 17 14  1  0  0  0  0
 18 14  1  0  0  0  0
 19 21  1  0  0  0  0
 21 20  2  1  0  0  0
 21 24  1  0  0  0  0
 22 23  1  0  0  0  0
 22 21  1  0  0  0  0
 25 24  1  0  0  0  0
 26 28  1  0  0  0  0
 26 25  1  0  0  0  0
 27 26  1  0  0  0  0
 28 29  1  0  0  0  0
 30 26  1  0  0  0  0
 31 30  1  0  0  0  0
M  END
>  <minimizedAffinity>
-4.54877043

$$$$

 OpenBabel03272504583D

 31 32  0  0  1  0  0  0  0  0999 V2000
   37.4780   25.9750   35.1200 C   0  0  1  0  0  0  0  0  0  0  0  0
   37.9270   27.3420   35.2320 C   0  0  0  0  0  0  0  0  0  0  0  0
   37.9680   26.6370   33.9110 C   0  0  2  0  0  0  0  0  0  0  0  0
   36.3700   25.6930   35.0770 H   0  0  0  0  0  0  0  0  0  0  0  0
   38.9080   27.5060   35.7260 H   0  0  0  0  0  0  0  0  0  0  0  0
   37.1440   27.9050   35.7030 H   0  0  0  0  0  0  0  0  0  0  0  0
   38.9540   26.7250   33.4830 H   0  0  0  0  0  0  0  0  0  0  0  0
   38.3120   24.8490   35.6550 C   0  0  0  0  0  0  0  0  0  0  0  0
   39.2770   24.3250   34.7580 C   0  0  0  0  0  0  0  0  0  0  0  0
   40.0330   23.2900   35.2590 C   0  0  0  0  0  0  0  0  0  0  0  0
   39.8190   22.8440   36.5400 N   0  0  0  0  0  0  0  0  0  0  0  0
   38.8820   23.3810   37.3560 C   0  0  0  0  0  0  0  0  0  0  0  0
   38.1130   24.4090   36.8920 N   0  0  0  0  0  0  0  0  0  0  0  0
   38.6660   22.9260   38.6670 N   0  0  0  0  0  0  0  0  0  0  0  0
   39.4490   24.6650   33.7670 H   0  0  0  0  0  0  0  0  0  0  0  0
   40.8030   22.8070   34.6700 H   0  0  0  0  0  0  0  0  0  0  0  0
   38.1380   23.4770   39.3510 H   0  0  0  0  0  0  0  0  0  0  0  0
   39.0670   21.9910   38.9290 H   0  0  0  0  0  0  0  0  0  0  0  0
   36.9630   27.0250   33.0070 O   0  0  0  0  0  0  0  0  0  0  0  0
   36.7770   24.7440   31.8300 O   0  0  0  0  0  0  0  0  0  0  0  0
   37.0930   26.1820   31.5780 P   0  0  1  0  0  0  0  0  0  0  0  0
   35.8820   26.7300   30.4730 O   0  0  0  0  0  0  0  0  0  0  0  0
   36.0380   26.2740   29.5960 H   0  0  0  0  0  0  0  0  0  0  0  0
   38.6280   26.4470   30.9260 O   0  0  0  0  0  0  0  0  0  0  0  0
   38.6720   27.7010   30.3700 C   0  0  0  0  0  2  0  0  0  0  0  0
   38.3570   27.7240   28.9620 N   0  0  0  0  0  4  0  0  0  0  0  0
   37.6520   26.9840   28.7420 H   0  0  0  0  0  0  0  0  0  0  0  0
   37.7640   28.9780   28.5500 C   0  0  0  0  0  2  0  0  0  0  0  0
   38.5470   29.7350   28.4140 H   0  0  0  0  0  0  0  0  0  0  0  0
   39.5010   27.4780   28.1050 C   0  0  0  0  0  2  0  0  0  0  0  0
   39.1880   27.8080   27.0770 H   0  0  0  0  0  0  0  0  0  0  0  0
  1  4  1  1  0  0  0
  1  2  1  0  0  0  0
  1  8  1  0  0  0  0
  2  6  1  0  0  0  0
  2  5  1  0  0  0  0
  3  7  1  6  0  0  0
  3  1  1  0  0  0  0
  3  2  1  0  0  0  0
  8 13  1  0  0  0  0
  9 10  1  0  0  0  0
  9  8  2  0  0  0  0
 10 11  2  0  0  0  0
 11 12  1  0  0  0  0
 12 14  1  0  0  0  0
 13 12  2  0  0  0  0
 14 18  1  0  0  0  0
 14 17  1  0  0  0  0
 15  9  1  0  0  0  0
 16 10  1  0  0  0  0
 19  3  1  0  0  0  0
 21 20  2  1  0  0  0
 21 19  1  0  0  0  0
 22 21  1  0  0  0  0
 23 22  1  0  0  0  0
 24 21  1  0  0  0  0
 25 24  1  0  0  0  0
 26 25  1  0  0  0  0
 27 26  1  0  0  0  0
 28 26  1  0  0  0  0
 29 28  1  0  0  0  0
 30 26  1  0  0  0  0
 31 30  1  0  0  0  0
M  END
>  <minimizedAffinity>
-4.52507019

$$$$

 OpenBabel03272504583D

 31 32  0  0  1  0  0  0  0  0999 V2000
   37.6720   25.8230   35.3260 C   0  0  1  0  0  0  0  0  0  0  0  0
   38.1920   27.1410   35.0540 C   0  0  0  0  0  0  0  0  0  0  0  0
   37.9750   26.1680   33.9370 C   0  0  2  0  0  0  0  0  0  0  0  0
   36.5620   25.6270   35.5230 H   0  0  0  0  0  0  0  0  0  0  0  0
   39.2490   27.3290   35.3380 H   0  0  0  0  0  0  0  0  0  0  0  0
   37.5260   27.8530   35.5050 H   0  0  0  0  0  0  0  0  0  0  0  0
   38.8760   26.0830   33.3490 H   0  0  0  0  0  0  0  0  0  0  0  0
   38.5360   24.7740   35.9620 C   0  0  0  0  0  0  0  0  0  0  0  0
   39.7340   24.4670   35.2670 C   0  0  0  0  0  0  0  0  0  0  0  0
   40.5160   23.5020   35.8590 C   0  0  0  0  0  0  0  0  0  0  0  0
   40.1110   22.9180   37.0340 N   0  0  0  0  0  0  0  0  0  0  0  0
   38.9560   23.2500   37.6570 C   0  0  0  0  0  0  0  0  0  0  0  0
   38.1540   24.2040   37.0980 N   0  0  0  0  0  0  0  0  0  0  0  0
   38.5440   22.6550   38.8610 N   0  0  0  0  0  0  0  0  0  0  0  0
   40.0540   24.9140   34.3590 H   0  0  0  0  0  0  0  0  0  0  0  0
   41.4540   23.1800   35.4230 H   0  0  0  0  0  0  0  0  0  0  0  0
   37.8100   23.0670   39.4450 H   0  0  0  0  0  0  0  0  0  0  0  0
   39.0180   21.7620   39.1490 H   0  0  0  0  0  0  0  0  0  0  0  0
   36.8470   26.4320   33.1390 O   0  0  0  0  0  0  0  0  0  0  0  0
   35.4590   24.9310   31.5760 O   0  0  0  0  0  0  0  0  0  0  0  0
   36.8390   25.4630   31.7850 P   0  0  1  0  0  0  0  0  0  0  0  0
   37.1760   26.4240   30.3890 O   0  0  0  0  0  0  0  0  0  0  0  0
   37.2540   25.8070   29.6030 H   0  0  0  0  0  0  0  0  0  0  0  0
   38.0200   24.2700   31.9610 O   0  0  0  0  0  0  0  0  0  0  0  0
   37.4750   23.0470   31.6600 C   0  0  0  0  0  2  0  0  0  0  0  0
   36.7050   22.4730   32.7370 N   0  0  0  0  0  4  0  0  0  0  0  0
   36.1110   23.2080   33.1810 H   0  0  0  0  0  0  0  0  0  0  0  0
   35.7960   21.4440   32.2780 C   0  0  0  0  0  2  0  0  0  0  0  0
   36.3410   20.5030   32.1300 H   0  0  0  0  0  0  0  0  0  0  0  0
   37.5180   21.9000   33.7930 C   0  0  0  0  0  2  0  0  0  0  0  0
   36.8240   21.2500   34.3930 H   0  0  0  0  0  0  0  0  0  0  0  0
  1  4  1  1  0  0  0
  1  8  1  0  0  0  0
  2  1  1  0  0  0  0
  2  5  1  0  0  0  0
  2  6  1  0  0  0  0
  3  7  1  6  0  0  0
  3  2  1  0  0  0  0
  3  1  1  0  0  0  0
  8 13  1  0  0  0  0
  9 10  1  0  0  0  0
  9  8  2  0  0  0  0
 10 11  2  0  0  0  0
 11 12  1  0  0  0  0
 12 14  1  0  0  0  0
 13 12  2  0  0  0  0
 14 18  1  0  0  0  0
 14 17  1  0  0  0  0
 15  9  1  0  0  0  0
 16 10  1  0  0  0  0
 19  3  1  0  0  0  0
 21 20  2  6  0  0  0
 21 24  1  0  0  0  0
 21 19  1  0  0  0  0
 22 21  1  0  0  0  0
 23 22  1  0  0  0  0
 25 24  1  0  0  0  0
 25 26  1  0  0  0  0
 26 27  1  0  0  0  0
 26 30  1  0  0  0  0
 28 26  1  0  0  0  0
 29 28  1  0  0  0  0
 30 31  1  0  0  0  0
M  END
>  <minimizedAffinity>
-4.52090693

$$$$

 OpenBabel03272504583D

 31 32  0  0  1  0  0  0  0  0999 V2000
   37.6200   26.1040   35.6130 C   0  0  1  0  0  0  0  0  0  0  0  0
   38.1030   27.4640   35.5890 C   0  0  0  0  0  0  0  0  0  0  0  0
   37.9500   26.6920   34.3140 C   0  0  2  0  0  0  0  0  0  0  0  0
   36.5120   25.8470   35.7360 H   0  0  0  0  0  0  0  0  0  0  0  0
   39.1450   27.6290   35.9350 H   0  0  0  0  0  0  0  0  0  0  0  0
   37.4020   28.0690   36.1320 H   0  0  0  0  0  0  0  0  0  0  0  0
   38.8690   26.7350   33.7510 H   0  0  0  0  0  0  0  0  0  0  0  0
   38.5000   24.9870   36.0880 C   0  0  0  0  0  0  0  0  0  0  0  0
   39.6130   24.6930   35.2600 C   0  0  0  0  0  0  0  0  0  0  0  0
   40.4110   23.6630   35.7050 C   0  0  0  0  0  0  0  0  0  0  0  0
   40.0980   23.0100   36.8710 N   0  0  0  0  0  0  0  0  0  0  0  0
   39.0220   23.3320   37.6250 C   0  0  0  0  0  0  0  0  0  0  0  0
   38.2070   24.3480   37.2140 N   0  0  0  0  0  0  0  0  0  0  0  0
   38.7040   22.6660   38.8200 N   0  0  0  0  0  0  0  0  0  0  0  0
   39.8620   25.1940   34.3570 H   0  0  0  0  0  0  0  0  0  0  0  0
   41.2910   23.3450   35.1590 H   0  0  0  0  0  0  0  0  0  0  0  0
   38.0460   23.0570   39.5000 H   0  0  0  0  0  0  0  0  0  0  0  0
   39.1690   21.7400   38.9980 H   0  0  0  0  0  0  0  0  0  0  0  0
   36.8370   27.0580   33.5370 O   0  0  0  0  0  0  0  0  0  0  0  0
   37.2190   28.8490   31.7280 O   0  0  0  0  0  0  0  0  0  0  0  0
   37.2890   27.3760   31.9670 P   0  0  1  0  0  0  0  0  0  0  0  0
   38.9510   26.9550   31.7500 O   0  0  0  0  0  0  0  0  0  0  0  0
   39.1730   27.0710   30.7800 H   0  0  0  0  0  0  0  0  0  0  0  0
   36.3250   26.4610   30.9260 O   0  0  0  0  0  0  0  0  0  0  0  0
   36.1470   25.2090   31.4570 C   0  0  0  0  0  2  0  0  0  0  0  0
   37.3750   24.4670   31.6200 N   0  0  0  0  0  4  0  0  0  0  0  0
   38.1390   25.1080   31.9340 H   0  0  0  0  0  0  0  0  0  0  0  0
   37.2680   23.4420   32.6360 C   0  0  0  0  0  2  0  0  0  0  0  0
   36.7600   22.5600   32.2250 H   0  0  0  0  0  0  0  0  0  0  0  0
   37.8370   23.8320   30.4010 C   0  0  0  0  0  2  0  0  0  0  0  0
   38.6030   23.0750   30.7250 H   0  0  0  0  0  0  0  0  0  0  0  0
  1  4  1  1  0  0  0
  1  8  1  0  0  0  0
  2  1  1  0  0  0  0
  2  5  1  0  0  0  0
  2  6  1  0  0  0  0
  3  7  1  6  0  0  0
  3  2  1  0  0  0  0
  3  1  1  0  0  0  0
  8 13  1  0  0  0  0
  9 10  1  0  0  0  0
  9  8  2  0  0  0  0
 10 11  2  0  0  0  0
 11 12  1  0  0  0  0
 12 14  1  0  0  0  0
 13 12  2  0  0  0  0
 14 18  1  0  0  0  0
 14 17  1  0  0  0  0
 15  9  1  0  0  0  0
 16 10  1  0  0  0  0
 19  3  1  0  0  0  0
 21 20  2  6  0  0  0
 21 19  1  0  0  0  0
 22 21  1  0  0  0  0
 23 22  1  0  0  0  0
 24 25  1  0  0  0  0
 24 21  1  0  0  0  0
 25 26  1  0  0  0  0
 26 27  1  0  0  0  0
 26 28  1  0  0  0  0
 29 28  1  0  0  0  0
 30 31  1  0  0  0  0
 30 26  1  0  0  0  0
M  END
>  <minimizedAffinity>
-4.4636054

$$$$

 OpenBabel03272504583D

 31 32  0  0  1  0  0  0  0  0999 V2000
   37.7510   26.2900   35.6920 C   0  0  1  0  0  0  0  0  0  0  0  0
   38.6710   27.4020   35.7190 C   0  0  0  0  0  0  0  0  0  0  0  0
   38.1550   26.8780   34.4140 C   0  0  2  0  0  0  0  0  0  0  0  0
   36.6370   26.4070   35.9230 H   0  0  0  0  0  0  0  0  0  0  0  0
   39.7310   27.1670   35.9530 H   0  0  0  0  0  0  0  0  0  0  0  0
   38.2690   28.1400   36.3880 H   0  0  0  0  0  0  0  0  0  0  0  0
   38.9830   26.6740   33.7530 H   0  0  0  0  0  0  0  0  0  0  0  0
   38.2270   24.8950   35.9710 C   0  0  0  0  0  0  0  0  0  0  0  0
   38.5790   24.1310   34.8290 C   0  0  0  0  0  0  0  0  0  0  0  0
   39.0100   22.8520   35.0970 C   0  0  0  0  0  0  0  0  0  0  0  0
   39.0730   22.4090   36.3960 N   0  0  0  0  0  0  0  0  0  0  0  0
   38.7250   23.1820   37.4510 C   0  0  0  0  0  0  0  0  0  0  0  0
   38.2910   24.4560   37.2220 N   0  0  0  0  0  0  0  0  0  0  0  0
   38.7930   22.7300   38.7780 N   0  0  0  0  0  0  0  0  0  0  0  0
   38.5340   24.4660   33.8220 H   0  0  0  0  0  0  0  0  0  0  0  0
   39.3070   22.1720   34.3080 H   0  0  0  0  0  0  0  0  0  0  0  0
   38.7630   23.3760   39.5730 H   0  0  0  0  0  0  0  0  0  0  0  0
   38.8760   21.6940   38.9360 H   0  0  0  0  0  0  0  0  0  0  0  0
   37.1770   27.6830   33.8040 O   0  0  0  0  0  0  0  0  0  0  0  0
   38.1060   28.0940   31.4390 O   0  0  0  0  0  0  0  0  0  0  0  0
   37.0530   27.3360   32.1800 P   0  0  1  0  0  0  0  0  0  0  0  0
   37.4190   25.6680   31.9180 O   0  0  0  0  0  0  0  0  0  0  0  0
   37.2510   25.4650   30.9520 H   0  0  0  0  0  0  0  0  0  0  0  0
   35.4780   27.6660   31.6710 O   0  0  0  0  0  0  0  0  0  0  0  0
   34.9790   28.7180   32.3970 C   0  0  0  0  0  2  0  0  0  0  0  0
   35.7440   29.9340   32.2590 N   0  0  0  0  0  4  0  0  0  0  0  0
   36.7640   29.7100   32.2190 H   0  0  0  0  0  0  0  0  0  0  0  0
   35.4400   30.6420   31.0340 C   0  0  0  0  0  2  0  0  0  0  0  0
   34.5090   31.2100   31.1530 H   0  0  0  0  0  0  0  0  0  0  0  0
   35.5640   30.8630   33.3590 C   0  0  0  0  0  2  0  0  0  0  0  0
   35.9640   31.8480   32.9930 H   0  0  0  0  0  0  0  0  0  0  0  0
  1  2  1  0  0  0  0
  1  4  1  1  0  0  0
  1  8  1  0  0  0  0
  2  5  1  0  0  0  0
  2  6  1  0  0  0  0
  3  7  1  6  0  0  0
  3  1  1  0  0  0  0
  3  2  1  0  0  0  0
  8 13  1  0  0  0  0
  9 10  1  0  0  0  0
  9  8  2  0  0  0  0
 10 11  2  0  0  0  0
 11 12  1  0  0  0  0
 12 14  1  0  0  0  0
 13 12  2  0  0  0  0
 14 18  1  0  0  0  0
 14 17  1  0  0  0  0
 15  9  1  0  0  0  0
 16 10  1  0  0  0  0
 19  3  1  0  0  0  0
 21 20  2  6  0  0  0
 21 19  1  0  0  0  0
 22 21  1  0  0  0  0
 23 22  1  0  0  0  0
 24 21  1  0  0  0  0
 24 25  1  0  0  0  0
 26 25  1  0  0  0  0
 26 30  1  0  0  0  0
 27 26  1  0  0  0  0
 28 29  1  0  0  0  0
 28 26  1  0  0  0  0
 31 30  1  0  0  0  0
M  END
>  <minimizedAffinity>
-4.45804739

$$$$

 OpenBabel03272504583D

 31 32  0  0  1  0  0  0  0  0999 V2000
   38.6150   23.2880   36.1590 C   0  0  1  0  0  0  0  0  0  0  0  0
   39.9930   22.9460   35.8990 C   0  0  0  0  0  0  0  0  0  0  0  0
   39.2960   23.9740   35.0610 C   0  0  2  0  0  0  0  0  0  0  0  0
   38.3040   23.9810   37.0150 H   0  0  0  0  0  0  0  0  0  0  0  0
   40.1800   21.9660   35.4110 H   0  0  0  0  0  0  0  0  0  0  0  0
   40.5330   23.0410   36.8220 H   0  0  0  0  0  0  0  0  0  0  0  0
   39.4130   23.7300   34.0160 H   0  0  0  0  0  0  0  0  0  0  0  0
   37.5080   22.3490   35.7820 C   0  0  0  0  0  0  0  0  0  0  0  0
   37.4770   21.9580   34.4200 C   0  0  0  0  0  0  0  0  0  0  0  0
   36.4550   21.0990   34.0860 C   0  0  0  0  0  0  0  0  0  0  0  0
   35.5640   20.6890   35.0470 N   0  0  0  0  0  0  0  0  0  0  0  0
   35.6400   21.0940   36.3360 C   0  0  0  0  0  0  0  0  0  0  0  0
   36.6410   21.9470   36.7030 N   0  0  0  0  0  0  0  0  0  0  0  0
   34.7310   20.6710   37.3200 N   0  0  0  0  0  0  0  0  0  0  0  0
   38.1620   22.2700   33.6710 H   0  0  0  0  0  0  0  0  0  0  0  0
   36.3260   20.7300   33.0760 H   0  0  0  0  0  0  0  0  0  0  0  0
   34.9250   20.7800   38.3200 H   0  0  0  0  0  0  0  0  0  0  0  0
   33.8320   20.2330   36.9950 H   0  0  0  0  0  0  0  0  0  0  0  0
   39.6630   25.3030   35.3370 O   0  0  0  0  0  0  0  0  0  0  0  0
   38.2030   27.4200   35.4430 O   0  0  0  0  0  0  0  0  0  0  0  0
   38.6960   26.3700   34.5020 P   0  0  1  0  0  0  0  0  0  0  0  0
   39.6480   27.2150   33.3320 O   0  0  0  0  0  0  0  0  0  0  0  0
   39.0290   27.7830   32.7850 H   0  0  0  0  0  0  0  0  0  0  0  0
   37.4700   25.5050   33.7280 O   0  0  0  0  0  0  0  0  0  0  0  0
   36.9240   26.2820   32.7380 C   0  0  0  0  0  2  0  0  0  0  0  0
   36.7570   25.5900   31.4820 N   0  0  0  0  0  4  0  0  0  0  0  0
   37.1890   26.1450   30.7090 H   0  0  0  0  0  0  0  0  0  0  0  0
   37.4180   24.3020   31.4690 C   0  0  0  0  0  2  0  0  0  0  0  0
   36.8000   23.5610   31.9910 H   0  0  0  0  0  0  0  0  0  0  0  0
   35.3700   25.3750   31.1160 C   0  0  0  0  0  2  0  0  0  0  0  0
   35.3870   24.5970   30.3050 H   0  0  0  0  0  0  0  0  0  0  0  0
  1  4  1  1  0  0  0
  2  1  1  0  0  0  0
  2  6  1  0  0  0  0
  3  7  1  6  0  0  0
  3 19  1  0  0  0  0
  3  2  1  0  0  0  0
  3  1  1  0  0  0  0
  5  2  1  0  0  0  0
  8  1  1  0  0  0  0
  8 13  1  0  0  0  0
  9  8  2  0  0  0  0
 10  9  1  0  0  0  0
 10 11  2  0  0  0  0
 11 12  1  0  0  0  0
 12 13  2  0  0  0  0
 12 14  1  0  0  0  0
 14 17  1  0  0  0  0
 15  9  1  0  0  0  0
 16 10  1  0  0  0  0
 18 14  1  0  0  0  0
 21 19  1  0  0  0  0
 21 20  2  1  0  0  0
 22 21  1  0  0  0  0
 23 22  1  0  0  0  0
 24 21  1  0  0  0  0
 25 24  1  0  0  0  0
 26 25  1  0  0  0  0
 27 26  1  0  0  0  0
 28 26  1  0  0  0  0
 28 29  1  0  0  0  0
 30 26  1  0  0  0  0
 31 30  1  0  0  0  0
M  END
>  <minimizedAffinity>
-4.42932701

$$$$

 OpenBabel03272504583D

 31 32  0  0  1  0  0  0  0  0999 V2000
   37.6460   25.8820   35.8270 C   0  0  1  0  0  0  0  0  0  0  0  0
   38.2610   27.1760   35.6500 C   0  0  0  0  0  0  0  0  0  0  0  0
   38.0500   26.2700   34.4760 C   0  0  2  0  0  0  0  0  0  0  0  0
   36.5170   25.7500   35.9520 H   0  0  0  0  0  0  0  0  0  0  0  0
   39.3100   27.2820   36.0010 H   0  0  0  0  0  0  0  0  0  0  0  0
   37.6160   27.9080   36.0970 H   0  0  0  0  0  0  0  0  0  0  0  0
   38.9780   26.1540   33.9360 H   0  0  0  0  0  0  0  0  0  0  0  0
   38.4060   24.7530   36.4580 C   0  0  0  0  0  0  0  0  0  0  0  0
   37.9870   24.3910   37.7640 C   0  0  0  0  0  0  0  0  0  0  0  0
   38.6930   23.3570   38.3330 C   0  0  0  0  0  0  0  0  0  0  0  0
   39.7160   22.7600   37.6360 N   0  0  0  0  0  0  0  0  0  0  0  0
   40.0740   23.1450   36.3900 C   0  0  0  0  0  0  0  0  0  0  0  0
   39.3960   24.1700   35.7940 N   0  0  0  0  0  0  0  0  0  0  0  0
   41.1170   22.5330   35.6760 N   0  0  0  0  0  0  0  0  0  0  0  0
   37.1980   24.8470   38.3090 H   0  0  0  0  0  0  0  0  0  0  0  0
   38.4680   22.9900   39.3270 H   0  0  0  0  0  0  0  0  0  0  0  0
   41.2280   22.6570   34.6650 H   0  0  0  0  0  0  0  0  0  0  0  0
   41.7910   21.9350   36.2170 H   0  0  0  0  0  0  0  0  0  0  0  0
   36.9900   26.6420   33.6310 O   0  0  0  0  0  0  0  0  0  0  0  0
   37.2500   24.3640   32.4620 O   0  0  0  0  0  0  0  0  0  0  0  0
   37.0680   25.8210   32.1850 P   0  0  1  0  0  0  0  0  0  0  0  0
   35.5490   25.9450   31.3700 O   0  0  0  0  0  0  0  0  0  0  0  0
   35.6500   25.5210   30.4670 H   0  0  0  0  0  0  0  0  0  0  0  0
   38.2870   26.5010   31.2360 O   0  0  0  0  0  0  0  0  0  0  0  0
   37.8020   27.6240   30.6140 C   0  0  0  0  0  2  0  0  0  0  0  0
   38.0760   27.6680   29.1970 N   0  0  0  0  0  4  0  0  0  0  0  0
   37.4910   26.9600   28.6990 H   0  0  0  0  0  0  0  0  0  0  0  0
   37.7440   28.9480   28.6100 C   0  0  0  0  0  2  0  0  0  0  0  0
   38.5440   29.6710   28.8150 H   0  0  0  0  0  0  0  0  0  0  0  0
   39.4570   27.3770   28.8620 C   0  0  0  0  0  2  0  0  0  0  0  0
   39.5930   27.7250   27.8020 H   0  0  0  0  0  0  0  0  0  0  0  0
  1  4  1  1  0  0  0
  1  8  1  0  0  0  0
  2  1  1  0  0  0  0
  2  5  1  0  0  0  0
  2  6  1  0  0  0  0
  3  7  1  6  0  0  0
  3  2  1  0  0  0  0
  3  1  1  0  0  0  0
  8  9  1  0  0  0  0
  9 15  1  0  0  0  0
  9 10  2  0  0  0  0
 10 16  1  0  0  0  0
 11 10  1  0  0  0  0
 12 11  2  0  0  0  0
 13 12  1  0  0  0  0
 13  8  2  0  0  0  0
 14 18  1  0  0  0  0
 14 12  1  0  0  0  0
 17 14  1  0  0  0  0
 19  3  1  0  0  0  0
 21 20  2  1  0  0  0
 21 19  1  0  0  0  0
 22 21  1  0  0  0  0
 23 22  1  0  0  0  0
 24 21  1  0  0  0  0
 25 24  1  0  0  0  0
 26 25  1  0  0  0  0
 27 26  1  0  0  0  0
 28 29  1  0  0  0  0
 28 26  1  0  0  0  0
 30 26  1  0  0  0  0
 31 30  1  0  0  0  0
M  END
>  <minimizedAffinity>
-4.37169456

$$$$

 OpenBabel03272504583D

 31 32  0  0  1  0  0  0  0  0999 V2000
   38.8930   26.7760   35.5270 C   0  0  1  0  0  0  0  0  0  0  0  0
   37.4670   26.7620   35.3020 C   0  0  0  0  0  0  0  0  0  0  0  0
   38.1780   25.5150   35.7290 C   0  0  2  0  0  0  0  0  0  0  0  0
   39.3620   27.2000   36.4810 H   0  0  0  0  0  0  0  0  0  0  0  0
   37.1290   26.7920   34.2450 H   0  0  0  0  0  0  0  0  0  0  0  0
   37.0380   27.5590   35.8800 H   0  0  0  0  0  0  0  0  0  0  0  0
   37.9300   24.7080   35.0570 H   0  0  0  0  0  0  0  0  0  0  0  0
   39.8500   26.8290   34.3730 C   0  0  0  0  0  0  0  0  0  0  0  0
   41.2010   26.5330   34.6880 C   0  0  0  0  0  0  0  0  0  0  0  0
   42.0700   26.5880   33.6220 C   0  0  0  0  0  0  0  0  0  0  0  0
   41.6010   26.9120   32.3730 N   0  0  0  0  0  0  0  0  0  0  0  0
   40.2990   27.1850   32.1270 C   0  0  0  0  0  0  0  0  0  0  0  0
   39.4080   27.1410   33.1610 N   0  0  0  0  0  0  0  0  0  0  0  0
   39.8190   27.5130   30.8490 N   0  0  0  0  0  0  0  0  0  0  0  0
   41.5710   26.2810   35.6510 H   0  0  0  0  0  0  0  0  0  0  0  0
   43.1270   26.3830   33.7360 H   0  0  0  0  0  0  0  0  0  0  0  0
   38.8210   27.4830   30.6200 H   0  0  0  0  0  0  0  0  0  0  0  0
   40.5250   27.7940   30.1220 H   0  0  0  0  0  0  0  0  0  0  0  0
   37.9840   25.1610   37.0750 O   0  0  0  0  0  0  0  0  0  0  0  0
   38.8630   23.4640   38.8010 O   0  0  0  0  0  0  0  0  0  0  0  0
   38.4990   23.6030   37.3580 P   0  0  1  0  0  0  0  0  0  0  0  0
   37.1840   22.5090   37.1120 O   0  0  0  0  0  0  0  0  0  0  0  0
   37.5390   21.5760   37.2000 H   0  0  0  0  0  0  0  0  0  0  0  0
   39.7550   23.2410   36.2910 O   0  0  0  0  0  0  0  0  0  0  0  0
   40.3040   22.0300   36.6330 C   0  0  0  0  0  2  0  0  0  0  0  0
   41.6430   22.1280   37.1620 N   0  0  0  0  0  4  0  0  0  0  0  0
   41.6100   22.4220   38.1640 H   0  0  0  0  0  0  0  0  0  0  0  0
   42.3390   20.8590   37.1390 C   0  0  0  0  0  2  0  0  0  0  0  0
   42.7240   20.6620   36.1300 H   0  0  0  0  0  0  0  0  0  0  0  0
   42.4730   23.0960   36.4710 C   0  0  0  0  0  2  0  0  0  0  0  0
   43.5300   22.8630   36.7760 H   0  0  0  0  0  0  0  0  0  0  0  0
  1  3  1  0  0  0  0
  1  4  1  1  0  0  0
  2  1  1  0  0  0  0
  2  3  1  0  0  0  0
  2  6  1  0  0  0  0
  3  7  1  6  0  0  0
  3 19  1  0  0  0  0
  5  2  1  0  0  0  0
  8  9  1  0  0  0  0
  8  1  1  0  0  0  0
  9 15  1  0  0  0  0
 10 16  1  0  0  0  0
 10  9  2  0  0  0  0
 11 10  1  0  0  0  0
 12 11  2  0  0  0  0
 12 13  1  0  0  0  0
 13  8  2  0  0  0  0
 14 12  1  0  0  0  0
 17 14  1  0  0  0  0
 18 14  1  0  0  0  0
 19 21  1  0  0  0  0
 21 20  2  1  0  0  0
 22 23  1  0  0  0  0
 22 21  1  0  0  0  0
 24 25  1  0  0  0  0
 24 21  1  0  0  0  0
 25 26  1  0  0  0  0
 26 27  1  0  0  0  0
 28 26  1  0  0  0  0
 29 28  1  0  0  0  0
 30 31  1  0  0  0  0
 30 26  1  0  0  0  0
M  END
>  <minimizedAffinity>
-4.33252478

$$$$
