
 OpenBabel03272506363D

 21 21  0  0  0  0  0  0  0  0999 V2000
   38.4670   25.2100   35.1860 C   0  0  0  0  0  0  0  0  0  0  0  0
   38.4530   26.3920   35.9440 C   0  0  0  0  0  0  0  0  0  0  0  0
   37.7750   27.4780   35.4400 C   0  0  0  0  0  0  0  0  0  0  0  0
   37.1540   27.3520   34.2310 N   0  0  0  0  0  0  0  0  0  0  0  0
   37.1850   26.2070   33.5250 C   0  0  0  0  0  0  0  0  0  0  0  0
   37.8390   25.1320   33.9960 N   0  0  0  0  0  0  0  0  0  0  0  0
   37.4290   25.7940   31.1910 C   0  0  0  0  0  0  0  0  0  0  0  0
   38.6740   25.5960   31.2440 O   0  0  0  0  0  0  0  0  0  0  0  0
   36.5210   26.1150   32.2630 N   0  0  0  0  0  0  0  0  0  0  0  0
   38.9130   26.5540   36.8870 H   0  0  0  0  0  0  0  0  0  0  0  0
   37.7150   28.4260   35.9620 H   0  0  0  0  0  0  0  0  0  0  0  0
   36.9820   25.7070   30.1860 H   0  0  0  0  0  0  0  0  0  0  0  0
   35.5110   26.2710   32.1840 H   0  0  0  0  0  0  0  0  0  0  0  0
   39.1820   24.1800   35.7960 O   0  0  0  0  0  0  0  0  0  0  0  0
   38.4960   23.0550   36.3080 C   0  0  0  0  0  2  0  0  0  0  0  0
   38.9560   22.6620   37.6020 N   0  0  0  0  0  4  0  0  0  0  0  0
   38.5480   21.7130   37.7890 H   0  0  0  0  0  0  0  0  0  0  0  0
   38.4990   23.5610   38.6280 C   0  0  0  0  0  2  0  0  0  0  0  0
   38.5230   24.6220   38.2630 H   0  0  0  0  0  0  0  0  0  0  0  0
   40.3900   22.5340   37.5860 C   0  0  0  0  0  2  0  0  0  0  0  0
   40.8480   23.2970   38.2290 H   0  0  0  0  0  0  0  0  0  0  0  0
  1 14  1  0  0  0  0
  1  2  1  0  0  0  0
  2 10  1  0  0  0  0
  3  2  2  0  0  0  0
  3 11  1  0  0  0  0
  4  3  1  0  0  0  0
  5  6  1  0  0  0  0
  5  4  2  0  0  0  0
  6  1  2  0  0  0  0
  7  8  2  0  0  0  0
  7  9  1  0  0  0  0
  9  5  1  0  0  0  0
 12  7  1  0  0  0  0
 13  9  1  0  0  0  0
 14 15  1  0  0  0  0
 15 16  1  0  0  0  0
 16 17  1  0  0  0  0
 16 18  1  0  0  0  0
 19 18  1  0  0  0  0
 20 16  1  0  0  0  0
 20 21  1  0  0  0  0
M  END
>  <minimizedAffinity>
-3.91884589

$$$$

 OpenBabel03272506363D

 21 21  0  0  0  0  0  0  0  0999 V2000
   38.1680   22.2960   34.6770 C   0  0  0  0  0  0  0  0  0  0  0  0
   39.1770   22.7940   33.8360 C   0  0  0  0  0  0  0  0  0  0  0  0
   40.3460   23.2300   34.4140 C   0  0  0  0  0  0  0  0  0  0  0  0
   40.4670   23.1590   35.7710 N   0  0  0  0  0  0  0  0  0  0  0  0
   39.4830   22.6780   36.5540 C   0  0  0  0  0  0  0  0  0  0  0  0
   38.3320   22.2450   36.0140 N   0  0  0  0  0  0  0  0  0  0  0  0
   38.6530   23.3940   38.6700 C   0  0  0  0  0  0  0  0  0  0  0  0
   37.7060   24.0770   38.1910 O   0  0  0  0  0  0  0  0  0  0  0  0
   39.6490   22.6200   37.9720 N   0  0  0  0  0  0  0  0  0  0  0  0
   39.1460   22.8750   32.7780 H   0  0  0  0  0  0  0  0  0  0  0  0
   41.1740   23.6270   33.8370 H   0  0  0  0  0  0  0  0  0  0  0  0
   38.7210   23.3930   39.7710 H   0  0  0  0  0  0  0  0  0  0  0  0
   40.4070   22.0740   38.3940 H   0  0  0  0  0  0  0  0  0  0  0  0
   37.0320   21.8840   33.9810 O   0  0  0  0  0  0  0  0  0  0  0  0
   37.1710   21.1590   32.7750 C   0  0  0  0  0  2  0  0  0  0  0  0
   36.1140   21.4120   31.8480 N   0  0  0  0  0  4  0  0  0  0  0  0
   36.4020   20.9720   30.9390 H   0  0  0  0  0  0  0  0  0  0  0  0
   35.9200   22.8210   31.6280 C   0  0  0  0  0  2  0  0  0  0  0  0
   36.0470   23.3910   32.5870 H   0  0  0  0  0  0  0  0  0  0  0  0
   34.9120   20.7580   32.2950 C   0  0  0  0  0  2  0  0  0  0  0  0
   34.1510   21.5020   32.5640 H   0  0  0  0  0  0  0  0  0  0  0  0
  1  6  1  0  0  0  0
  2  3  1  0  0  0  0
  2  1  2  0  0  0  0
  3  4  2  0  0  0  0
  4  5  1  0  0  0  0
  5  9  1  0  0  0  0
  6  5  2  0  0  0  0
  7 12  1  0  0  0  0
  8  7  2  0  0  0  0
  9 13  1  0  0  0  0
  9  7  1  0  0  0  0
 10  2  1  0  0  0  0
 11  3  1  0  0  0  0
 14  1  1  0  0  0  0
 15 14  1  0  0  0  0
 16 20  1  0  0  0  0
 16 15  1  0  0  0  0
 17 16  1  0  0  0  0
 18 16  1  0  0  0  0
 18 19  1  0  0  0  0
 20 21  1  0  0  0  0
M  END
>  <minimizedAffinity>
-3.81593943

$$$$

 OpenBabel03272506363D

 21 21  0  0  0  0  0  0  0  0999 V2000
   38.6140   26.3080   35.4810 C   0  0  0  0  0  0  0  0  0  0  0  0
   39.8800   26.2130   34.8800 C   0  0  0  0  0  0  0  0  0  0  0  0
   40.5740   25.0330   35.0100 C   0  0  0  0  0  0  0  0  0  0  0  0
   40.0000   24.0160   35.7170 N   0  0  0  0  0  0  0  0  0  0  0  0
   38.7850   24.1340   36.2840 C   0  0  0  0  0  0  0  0  0  0  0  0
   38.0870   25.2760   36.1700 N   0  0  0  0  0  0  0  0  0  0  0  0
   37.9420   23.3940   38.3870 C   0  0  0  0  0  0  0  0  0  0  0  0
   38.1360   24.4930   38.9760 O   0  0  0  0  0  0  0  0  0  0  0  0
   38.2180   23.0450   37.0160 N   0  0  0  0  0  0  0  0  0  0  0  0
   40.3800   26.9630   34.3190 H   0  0  0  0  0  0  0  0  0  0  0  0
   41.5550   24.8770   34.5770 H   0  0  0  0  0  0  0  0  0  0  0  0
   37.5020   22.5990   39.0110 H   0  0  0  0  0  0  0  0  0  0  0  0
   38.0470   22.1390   36.5680 H   0  0  0  0  0  0  0  0  0  0  0  0
   38.0070   27.5470   35.2820 O   0  0  0  0  0  0  0  0  0  0  0  0
   36.7860   27.6260   34.5730 C   0  0  0  0  0  2  0  0  0  0  0  0
   36.9670   27.8410   33.1720 N   0  0  0  0  0  4  0  0  0  0  0  0
   37.9810   28.0740   33.0350 H   0  0  0  0  0  0  0  0  0  0  0  0
   36.1790   28.9460   32.6950 C   0  0  0  0  0  2  0  0  0  0  0  0
   35.1740   28.9590   33.1940 H   0  0  0  0  0  0  0  0  0  0  0  0
   36.6910   26.6230   32.4570 C   0  0  0  0  0  2  0  0  0  0  0  0
   35.7980   26.7430   31.8290 H   0  0  0  0  0  0  0  0  0  0  0  0
  1  6  1  0  0  0  0
  2  3  1  0  0  0  0
  2  1  2  0  0  0  0
  3  4  2  0  0  0  0
  4  5  1  0  0  0  0
  5  9  1  0  0  0  0
  6  5  2  0  0  0  0
  7  8  2  0  0  0  0
  7 12  1  0  0  0  0
  9  7  1  0  0  0  0
 10  2  1  0  0  0  0
 11  3  1  0  0  0  0
 13  9  1  0  0  0  0
 14  1  1  0  0  0  0
 15 14  1  0  0  0  0
 16 15  1  0  0  0  0
 17 16  1  0  0  0  0
 18 16  1  0  0  0  0
 18 19  1  0  0  0  0
 20 16  1  0  0  0  0
 21 20  1  0  0  0  0
M  END
>  <minimizedAffinity>
-3.78724837

$$$$

 OpenBabel03272506363D

 21 21  0  0  0  0  0  0  0  0999 V2000
   40.7390   24.2180   35.4450 C   0  0  0  0  0  0  0  0  0  0  0  0
   41.9260   23.5510   35.7880 C   0  0  0  0  0  0  0  0  0  0  0  0
   41.8560   22.5370   36.7150 C   0  0  0  0  0  0  0  0  0  0  0  0
   40.6410   22.2310   37.2540 N   0  0  0  0  0  0  0  0  0  0  0  0
   39.5180   22.8880   36.9070 C   0  0  0  0  0  0  0  0  0  0  0  0
   39.5590   23.8810   36.0050 N   0  0  0  0  0  0  0  0  0  0  0  0
   37.6640   23.6410   38.2020 C   0  0  0  0  0  0  0  0  0  0  0  0
   38.1020   24.8160   38.3480 O   0  0  0  0  0  0  0  0  0  0  0  0
   38.2630   22.5370   37.4950 N   0  0  0  0  0  0  0  0  0  0  0  0
   42.8990   23.7390   35.4070 H   0  0  0  0  0  0  0  0  0  0  0  0
   42.7250   21.9720   37.0340 H   0  0  0  0  0  0  0  0  0  0  0  0
   36.6910   23.4410   38.6800 H   0  0  0  0  0  0  0  0  0  0  0  0
   37.8780   21.5930   37.3960 H   0  0  0  0  0  0  0  0  0  0  0  0
   40.9320   25.2230   34.4990 O   0  0  0  0  0  0  0  0  0  0  0  0
   40.4260   26.5220   34.7410 C   0  0  0  0  0  2  0  0  0  0  0  0
   38.9980   26.5750   34.7340 N   0  0  0  0  0  4  0  0  0  0  0  0
   38.6620   25.5950   34.9060 H   0  0  0  0  0  0  0  0  0  0  0  0
   38.4850   27.0140   33.4640 C   0  0  0  0  0  2  0  0  0  0  0  0
   39.1320   27.8240   33.0350 H   0  0  0  0  0  0  0  0  0  0  0  0
   38.5410   27.3970   35.8230 C   0  0  0  0  0  2  0  0  0  0  0  0
   38.0550   28.3040   35.4380 H   0  0  0  0  0  0  0  0  0  0  0  0
  1  2  2  0  0  0  0
  1  6  1  0  0  0  0
  2  3  1  0  0  0  0
  3 11  1  0  0  0  0
  3  4  2  0  0  0  0
  5  4  1  0  0  0  0
  5  9  1  0  0  0  0
  6  5  2  0  0  0  0
  7  8  2  0  0  0  0
  7 12  1  0  0  0  0
  9  7  1  0  0  0  0
 10  2  1  0  0  0  0
 13  9  1  0  0  0  0
 14 15  1  0  0  0  0
 14  1  1  0  0  0  0
 16 15  1  0  0  0  0
 16 17  1  0  0  0  0
 16 20  1  0  0  0  0
 18 16  1  0  0  0  0
 19 18  1  0  0  0  0
 21 20  1  0  0  0  0
M  END
>  <minimizedAffinity>
-3.77976155

$$$$

 OpenBabel03272506363D

 21 21  0  0  0  0  0  0  0  0999 V2000
   38.4000   24.7960   34.6250 C   0  0  0  0  0  0  0  0  0  0  0  0
   39.6950   24.9910   34.1170 C   0  0  0  0  0  0  0  0  0  0  0  0
   40.7450   24.3860   34.7680 C   0  0  0  0  0  0  0  0  0  0  0  0
   40.4770   23.6310   35.8730 N   0  0  0  0  0  0  0  0  0  0  0  0
   39.2260   23.4620   36.3390 C   0  0  0  0  0  0  0  0  0  0  0  0
   38.1830   24.0410   35.7220 N   0  0  0  0  0  0  0  0  0  0  0  0
   38.3580   23.4130   38.5590 C   0  0  0  0  0  0  0  0  0  0  0  0
   38.0170   24.6280   38.5700 O   0  0  0  0  0  0  0  0  0  0  0  0
   38.9870   22.6630   37.5000 N   0  0  0  0  0  0  0  0  0  0  0  0
   39.9700   25.5630   33.2660 H   0  0  0  0  0  0  0  0  0  0  0  0
   41.7740   24.4850   34.4410 H   0  0  0  0  0  0  0  0  0  0  0  0
   38.1440   22.8560   39.4860 H   0  0  0  0  0  0  0  0  0  0  0  0
   39.2520   21.6740   37.5240 H   0  0  0  0  0  0  0  0  0  0  0  0
   37.4200   25.4550   33.8860 O   0  0  0  0  0  0  0  0  0  0  0  0
   37.4190   25.3570   32.4750 C   0  0  0  0  0  2  0  0  0  0  0  0
   36.1090   25.1960   31.9270 N   0  0  0  0  0  4  0  0  0  0  0  0
   35.4470   25.1600   32.7420 H   0  0  0  0  0  0  0  0  0  0  0  0
   35.9850   23.9680   31.1880 C   0  0  0  0  0  2  0  0  0  0  0  0
   36.9240   23.7600   30.6090 H   0  0  0  0  0  0  0  0  0  0  0  0
   35.7730   26.3490   31.1330 C   0  0  0  0  0  2  0  0  0  0  0  0
   35.6820   26.0700   30.0750 H   0  0  0  0  0  0  0  0  0  0  0  0
  1  6  1  0  0  0  0
  2  1  2  0  0  0  0
  2  3  1  0  0  0  0
  3  4  2  0  0  0  0
  4  5  1  0  0  0  0
  5  9  1  0  0  0  0
  6  5  2  0  0  0  0
  7  8  2  0  0  0  0
  7 12  1  0  0  0  0
  9 13  1  0  0  0  0
  9  7  1  0  0  0  0
 10  2  1  0  0  0  0
 11  3  1  0  0  0  0
 14  1  1  0  0  0  0
 15 14  1  0  0  0  0
 16 15  1  0  0  0  0
 16 17  1  0  0  0  0
 18 16  1  0  0  0  0
 19 18  1  0  0  0  0
 20 16  1  0  0  0  0
 21 20  1  0  0  0  0
M  END
>  <minimizedAffinity>
-3.77789617

$$$$

 OpenBabel03272506363D

 21 21  0  0  0  0  0  0  0  0999 V2000
   38.2460   25.2800   35.3160 C   0  0  0  0  0  0  0  0  0  0  0  0
   39.6380   25.4580   35.2640 C   0  0  0  0  0  0  0  0  0  0  0  0
   40.1410   26.3920   34.3890 C   0  0  0  0  0  0  0  0  0  0  0  0
   39.2650   27.0960   33.6160 N   0  0  0  0  0  0  0  0  0  0  0  0
   37.9340   26.9060   33.6860 C   0  0  0  0  0  0  0  0  0  0  0  0
   37.4180   26.0000   34.5320 N   0  0  0  0  0  0  0  0  0  0  0  0
   36.2580   26.8270   31.9930 C   0  0  0  0  0  0  0  0  0  0  0  0
   36.2620   25.5690   31.8930 O   0  0  0  0  0  0  0  0  0  0  0  0
   37.0490   27.6650   32.8590 N   0  0  0  0  0  0  0  0  0  0  0  0
   40.3710   24.9440   35.8360 H   0  0  0  0  0  0  0  0  0  0  0  0
   41.2020   26.5900   34.2880 H   0  0  0  0  0  0  0  0  0  0  0  0
   35.5510   27.3480   31.3270 H   0  0  0  0  0  0  0  0  0  0  0  0
   37.0210   28.6880   32.9140 H   0  0  0  0  0  0  0  0  0  0  0  0
   37.8540   24.3100   36.2370 O   0  0  0  0  0  0  0  0  0  0  0  0
   38.4660   23.0350   36.2190 C   0  0  0  0  0  2  0  0  0  0  0  0
   38.9150   22.6140   37.5080 N   0  0  0  0  0  4  0  0  0  0  0  0
   38.5240   21.6520   37.6610 H   0  0  0  0  0  0  0  0  0  0  0  0
   38.4270   23.4740   38.5520 C   0  0  0  0  0  2  0  0  0  0  0  0
   38.4350   24.5450   38.2180 H   0  0  0  0  0  0  0  0  0  0  0  0
   40.3510   22.5140   37.5090 C   0  0  0  0  0  2  0  0  0  0  0  0
   40.7860   23.2660   38.1810 H   0  0  0  0  0  0  0  0  0  0  0  0
  1 14  1  0  0  0  0
  2  1  1  0  0  0  0
  2 10  1  0  0  0  0
  3  2  2  0  0  0  0
  4  5  2  0  0  0  0
  4  3  1  0  0  0  0
  5  6  1  0  0  0  0
  6  1  2  0  0  0  0
  7  9  1  0  0  0  0
  8  7  2  0  0  0  0
  9 13  1  0  0  0  0
  9  5  1  0  0  0  0
 11  3  1  0  0  0  0
 12  7  1  0  0  0  0
 15 14  1  0  0  0  0
 15 16  1  0  0  0  0
 16 20  1  0  0  0  0
 16 17  1  0  0  0  0
 16 18  1  0  0  0  0
 19 18  1  0  0  0  0
 20 21  1  0  0  0  0
M  END
>  <minimizedAffinity>
-3.73644018

$$$$

 OpenBabel03272506363D

 21 21  0  0  0  0  0  0  0  0999 V2000
   38.1300   27.0600   33.1600 C   0  0  0  0  0  0  0  0  0  0  0  0
   37.2720   27.3870   34.2220 C   0  0  0  0  0  0  0  0  0  0  0  0
   37.8070   27.4730   35.4870 C   0  0  0  0  0  0  0  0  0  0  0  0
   39.1410   27.2350   35.6450 N   0  0  0  0  0  0  0  0  0  0  0  0
   39.9410   26.9220   34.6100 C   0  0  0  0  0  0  0  0  0  0  0  0
   39.4440   26.8320   33.3650 N   0  0  0  0  0  0  0  0  0  0  0  0
   41.7250   25.3540   34.4070 C   0  0  0  0  0  0  0  0  0  0  0  0
   41.0110   24.4380   33.9130 O   0  0  0  0  0  0  0  0  0  0  0  0
   41.3340   26.6790   34.8180 N   0  0  0  0  0  0  0  0  0  0  0  0
   36.2300   27.5840   34.1660 H   0  0  0  0  0  0  0  0  0  0  0  0
   37.2130   27.7210   36.3600 H   0  0  0  0  0  0  0  0  0  0  0  0
   42.7900   25.0990   34.5390 H   0  0  0  0  0  0  0  0  0  0  0  0
   41.9420   27.4010   35.2170 H   0  0  0  0  0  0  0  0  0  0  0  0
   37.4780   27.0020   31.9300 O   0  0  0  0  0  0  0  0  0  0  0  0
   37.7940   25.9710   31.0140 C   0  0  0  0  0  2  0  0  0  0  0  0
   36.6450   25.2500   30.5680 N   0  0  0  0  0  4  0  0  0  0  0  0
   36.6490   25.3000   29.5200 H   0  0  0  0  0  0  0  0  0  0  0  0
   35.4230   25.8410   31.0450 C   0  0  0  0  0  2  0  0  0  0  0  0
   35.5480   26.2100   32.0980 H   0  0  0  0  0  0  0  0  0  0  0  0
   36.7670   23.8660   30.9470 C   0  0  0  0  0  2  0  0  0  0  0  0
   35.9980   23.6040   31.6860 H   0  0  0  0  0  0  0  0  0  0  0  0
  1  6  2  0  0  0  0
  1  2  1  0  0  0  0
  2  3  2  0  0  0  0
  3  4  1  0  0  0  0
  3 11  1  0  0  0  0
  5  9  1  0  0  0  0
  5  4  2  0  0  0  0
  6  5  1  0  0  0  0
  7 12  1  0  0  0  0
  7  9  1  0  0  0  0
  8  7  2  0  0  0  0
  9 13  1  0  0  0  0
 10  2  1  0  0  0  0
 14  1  1  0  0  0  0
 15 14  1  0  0  0  0
 16 20  1  0  0  0  0
 16 15  1  0  0  0  0
 16 18  1  0  0  0  0
 17 16  1  0  0  0  0
 18 19  1  0  0  0  0
 20 21  1  0  0  0  0
M  END
>  <minimizedAffinity>
-3.70757508

$$$$

 OpenBabel03272506363D

 21 21  0  0  0  0  0  0  0  0999 V2000
   37.2890   26.1820   33.7200 C   0  0  0  0  0  0  0  0  0  0  0  0
   37.2060   27.4000   34.4150 C   0  0  0  0  0  0  0  0  0  0  0  0
   37.9690   27.5540   35.5490 C   0  0  0  0  0  0  0  0  0  0  0  0
   38.7660   26.5190   35.9420 N   0  0  0  0  0  0  0  0  0  0  0  0
   38.8270   25.3620   35.2570 C   0  0  0  0  0  0  0  0  0  0  0  0
   38.0920   25.1860   34.1470 N   0  0  0  0  0  0  0  0  0  0  0  0
   38.9380   23.0960   35.9880 C   0  0  0  0  0  0  0  0  0  0  0  0
   37.6970   22.8890   35.8950 O   0  0  0  0  0  0  0  0  0  0  0  0
   39.6750   24.3010   35.7010 N   0  0  0  0  0  0  0  0  0  0  0  0
   36.6080   28.2410   34.1630 H   0  0  0  0  0  0  0  0  0  0  0  0
   37.9630   28.4620   36.1420 H   0  0  0  0  0  0  0  0  0  0  0  0
   39.5320   22.2340   36.3360 H   0  0  0  0  0  0  0  0  0  0  0  0
   40.6880   24.4340   35.7890 H   0  0  0  0  0  0  0  0  0  0  0  0
   36.4740   26.1410   32.5910 O   0  0  0  0  0  0  0  0  0  0  0  0
   37.0570   26.0600   31.3050 C   0  0  0  0  0  2  0  0  0  0  0  0
   36.6520   24.8970   30.5810 N   0  0  0  0  0  4  0  0  0  0  0  0
   36.4930   25.2030   29.5890 H   0  0  0  0  0  0  0  0  0  0  0  0
   35.4220   24.3510   31.0900 C   0  0  0  0  0  2  0  0  0  0  0  0
   35.3930   24.4200   32.2100 H   0  0  0  0  0  0  0  0  0  0  0  0
   37.7200   23.9320   30.5810 C   0  0  0  0  0  2  0  0  0  0  0  0
   37.4280   23.0390   31.1510 H   0  0  0  0  0  0  0  0  0  0  0  0
  1  6  2  0  0  0  0
  1  2  1  0  0  0  0
  2  3  2  0  0  0  0
  3  4  1  0  0  0  0
  3 11  1  0  0  0  0
  5  9  1  0  0  0  0
  5  4  2  0  0  0  0
  6  5  1  0  0  0  0
  7 12  1  0  0  0  0
  8  7  2  0  0  0  0
  9 13  1  0  0  0  0
  9  7  1  0  0  0  0
 10  2  1  0  0  0  0
 14  1  1  0  0  0  0
 15 14  1  0  0  0  0
 16 18  1  0  0  0  0
 16 15  1  0  0  0  0
 17 16  1  0  0  0  0
 18 19  1  0  0  0  0
 20 16  1  0  0  0  0
 20 21  1  0  0  0  0
M  END
>  <minimizedAffinity>
-3.68694091

$$$$

 OpenBabel03272506363D

 21 21  0  0  0  0  0  0  0  0999 V2000
   36.5590   23.9440   32.1140 C   0  0  0  0  0  0  0  0  0  0  0  0
   35.4590   24.0410   31.2470 C   0  0  0  0  0  0  0  0  0  0  0  0
   35.0220   25.2960   30.8910 C   0  0  0  0  0  0  0  0  0  0  0  0
   35.6760   26.3800   31.3980 N   0  0  0  0  0  0  0  0  0  0  0  0
   36.7280   26.2580   32.2290 C   0  0  0  0  0  0  0  0  0  0  0  0
   37.1750   25.0440   32.5910 N   0  0  0  0  0  0  0  0  0  0  0  0
   37.3530   27.4780   34.1790 C   0  0  0  0  0  0  0  0  0  0  0  0
   36.8350   26.6620   34.9900 O   0  0  0  0  0  0  0  0  0  0  0  0
   37.3870   27.4190   32.7390 N   0  0  0  0  0  0  0  0  0  0  0  0
   34.9080   23.2400   30.8180 H   0  0  0  0  0  0  0  0  0  0  0  0
   34.1810   25.4580   30.2260 H   0  0  0  0  0  0  0  0  0  0  0  0
   37.8460   28.3500   34.6400 H   0  0  0  0  0  0  0  0  0  0  0  0
   37.8190   28.1020   32.1080 H   0  0  0  0  0  0  0  0  0  0  0  0
   36.9110   22.6260   32.4030 O   0  0  0  0  0  0  0  0  0  0  0  0
   36.3910   21.5710   31.6170 C   0  0  0  0  0  2  0  0  0  0  0  0
   35.9050   20.4800   32.4000 N   0  0  0  0  0  4  0  0  0  0  0  0
   36.5740   19.6850   32.2530 H   0  0  0  0  0  0  0  0  0  0  0  0
   34.5980   20.0570   31.9750 C   0  0  0  0  0  2  0  0  0  0  0  0
   33.9670   20.9430   31.6960 H   0  0  0  0  0  0  0  0  0  0  0  0
   35.9380   20.8340   33.7950 C   0  0  0  0  0  2  0  0  0  0  0  0
   34.9180   20.8960   34.1980 H   0  0  0  0  0  0  0  0  0  0  0  0
  1 14  1  0  0  0  0
  1  6  1  0  0  0  0
  2  1  2  0  0  0  0
  3  2  1  0  0  0  0
  3  4  2  0  0  0  0
  4  5  1  0  0  0  0
  5  6  2  0  0  0  0
  5  9  1  0  0  0  0
  7 12  1  0  0  0  0
  7  8  2  0  0  0  0
  9  7  1  0  0  0  0
 10  2  1  0  0  0  0
 11  3  1  0  0  0  0
 13  9  1  0  0  0  0
 15 16  1  0  0  0  0
 15 14  1  0  0  0  0
 16 20  1  0  0  0  0
 17 16  1  0  0  0  0
 18 16  1  0  0  0  0
 19 18  1  0  0  0  0
 20 21  1  0  0  0  0
M  END
>  <minimizedAffinity>
-3.61279535

$$$$
