
 OpenBabel03272508083D

 22 22  0  0  0  0  0  0  0  0999 V2000
   39.1320   32.7450   48.0470 O   0  0  0  0  0  0  0  0  0  0  0  0
   38.7100   31.7490   47.0250 P   0  0  2  0  0  0  0  0  0  0  0  0
   37.7120   32.4730   45.8580 O   0  0  0  0  0  0  0  0  0  0  0  0
   37.4820   33.4060   46.1160 H   0  0  0  0  0  0  0  0  0  0  0  0
   37.9820   30.3550   47.6530 O   0  0  0  0  0  0  0  0  0  0  0  0
   37.3490   30.2160   51.2910 C   0  0  0  0  0  0  0  0  0  0  0  0
   38.0360   30.5500   50.1240 C   0  0  0  0  0  0  0  0  0  0  0  0
   37.5080   30.1550   48.9030 C   0  0  0  0  0  0  0  0  0  0  0  0
   36.3320   29.4530   48.9310 N   0  0  0  0  0  0  0  0  0  0  0  0
   35.6990   29.1500   50.0730 C   0  0  0  0  0  0  0  0  0  0  0  0
   36.2060   29.5310   51.2550 N   0  0  0  0  0  0  0  0  0  0  0  0
   37.8210   30.5580   52.2180 H   0  0  0  0  0  0  0  0  0  0  0  0
   38.9640   31.0980   50.0390 H   0  0  0  0  0  0  0  0  0  0  0  0
   34.7650   28.5920   50.0740 H   0  0  0  0  0  0  0  0  0  0  0  0
   40.1250   31.2480   46.1920 O   0  0  0  0  0  0  0  0  0  0  0  0
   40.2710   31.8710   44.9780 C   0  0  0  0  0  2  0  0  0  0  0  0
   39.4180   31.3170   43.9310 N   0  0  0  0  0  4  0  0  0  0  0  0
   38.4000   31.4950   44.1690 H   0  0  0  0  0  0  0  0  0  0  0  0
   39.7670   32.0150   42.7070 C   0  0  0  0  0  2  0  0  0  0  0  0
   38.8800   32.1680   42.0590 H   0  0  0  0  0  0  0  0  0  0  0  0
   39.6180   29.9130   43.7240 C   0  0  0  0  0  2  0  0  0  0  0  0
   39.8140   29.3300   44.6460 H   0  0  0  0  0  0  0  0  0  0  0  0
  2  5  1  0  0  0  0
  2  1  2  1  0  0  0
  3  4  1  0  0  0  0
  3  2  1  0  0  0  0
  5  8  1  0  0  0  0
  6 12  1  0  0  0  0
  7  6  2  0  0  0  0
  8  9  2  0  0  0  0
  8  7  1  0  0  0  0
  9 10  1  0  0  0  0
 10 14  1  0  0  0  0
 10 11  2  0  0  0  0
 11  6  1  0  0  0  0
 13  7  1  0  0  0  0
 15  2  1  0  0  0  0
 16 15  1  0  0  0  0
 17 18  1  0  0  0  0
 17 16  1  0  0  0  0
 19 17  1  0  0  0  0
 20 19  1  0  0  0  0
 21 17  1  0  0  0  0
 21 22  1  0  0  0  0
M  END
>  <minimizedAffinity>
-4.59890652

>  <minimizedRMSD>
0.693605959

$$$$
