
 OpenBabel03272504563D

 31 32  0  0  1  0  0  0  0  0999 V2000
   37.0290   31.5520   48.6390 C   0  0  1  0  0  0  0  0  0  0  0  0
   36.2950   30.8710   47.6000 C   0  0  0  0  0  0  0  0  0  0  0  0
   37.2490   30.1150   48.4730 C   0  0  2  0  0  0  0  0  0  0  0  0
   36.5570   31.8350   49.6420 H   0  0  0  0  0  0  0  0  0  0  0  0
   36.6280   31.0490   46.5560 H   0  0  0  0  0  0  0  0  0  0  0  0
   35.2550   31.1010   47.7310 H   0  0  0  0  0  0  0  0  0  0  0  0
   37.9360   29.5540   47.8590 H   0  0  0  0  0  0  0  0  0  0  0  0
   38.1800   32.4520   48.3000 C   0  0  0  0  0  0  0  0  0  0  0  0
   38.5310   33.3960   49.2990 C   0  0  0  0  0  0  0  0  0  0  0  0
   39.5860   34.2180   48.9750 C   0  0  0  0  0  0  0  0  0  0  0  0
   40.2100   34.0830   47.7590 N   0  0  0  0  0  0  0  0  0  0  0  0
   39.8350   33.1630   46.8410 C   0  0  0  0  0  0  0  0  0  0  0  0
   38.7910   32.3310   47.1280 N   0  0  0  0  0  0  0  0  0  0  0  0
   40.4760   33.0240   45.5990 N   0  0  0  0  0  0  0  0  0  0  0  0
   38.0540   33.5050   50.2410 H   0  0  0  0  0  0  0  0  0  0  0  0
   39.9470   34.9790   49.6560 H   0  0  0  0  0  0  0  0  0  0  0  0
   40.3540   32.1900   45.0170 H   0  0  0  0  0  0  0  0  0  0  0  0
   41.0930   33.8130   45.2800 H   0  0  0  0  0  0  0  0  0  0  0  0
   36.6380   29.3120   49.4520 O   0  0  0  0  0  0  0  0  0  0  0  0
   34.6070   27.7630   49.7740 O   0  0  0  0  0  0  0  0  0  0  0  0
   35.0540   28.9920   49.0510 P   0  0  1  0  0  0  0  0  0  0  0  0
   34.0430   30.2630   49.6430 O   0  0  0  0  0  0  0  0  0  0  0  0
   33.1120   30.0930   49.3130 H   0  0  0  0  0  0  0  0  0  0  0  0
   34.9260   28.8900   47.3710 O   0  0  0  0  0  0  0  0  0  0  0  0
   33.6290   28.5920   47.0340 C   0  0  0  0  0  0  0  0  0  0  0  0
   33.1740   29.2550   45.8350 N   0  0  0  0  0  0  0  0  0  0  0  0
   32.3710   28.7300   45.4220 H   0  0  0  0  0  0  0  0  0  0  0  0
   32.6870   30.5930   46.0950 C   0  0  0  0  0  0  0  0  0  0  0  0
   33.5330   31.2860   46.1890 H   0  0  0  0  0  0  0  0  0  0  0  0
   34.1870   29.3500   44.8020 C   0  0  0  0  0  0  0  0  0  0  0  0
   33.8080   30.1180   44.0740 H   0  0  0  0  0  0  0  0  0  0  0  0
  1  4  1  1  0  0  0
  2  6  1  0  0  0  0
  2  3  1  0  0  0  0
  2  1  1  0  0  0  0
  3  7  1  6  0  0  0
  3  1  1  0  0  0  0
  3 19  1  0  0  0  0
  5  2  1  0  0  0  0
  8  1  1  0  0  0  0
  8  9  1  0  0  0  0
  9 15  1  0  0  0  0
 10  9  2  0  0  0  0
 10 16  1  0  0  0  0
 11 10  1  0  0  0  0
 12 13  1  0  0  0  0
 12 11  2  0  0  0  0
 13  8  2  0  0  0  0
 14 12  1  0  0  0  0
 17 14  1  0  0  0  0
 18 14  1  0  0  0  0
 21 19  1  0  0  0  0
 21 22  1  0  0  0  0
 21 20  2  1  0  0  0
 23 22  1  0  0  0  0
 24 21  1  0  0  0  0
 25 24  1  0  0  0  0
 26 28  1  0  0  0  0
 26 25  1  0  0  0  0
 27 26  1  0  0  0  0
 28 29  1  0  0  0  0
 30 26  1  0  0  0  0
 31 30  1  0  0  0  0
M  END
>  <minimizedAffinity>
-4.32046127

>  <minimizedRMSD>
0.274830401

$$$$
