
 OpenBabel03262521323D

 41 43  0  0  1  0  0  0  0  0999 V2000
   38.0480   27.1400   35.0720 C   0  0  1  0  0  0  0  0  0  0  0  0
   38.4920   25.7840   34.5560 C   0  0  2  0  0  0  0  0  0  0  0  0
   37.4280   25.3230   33.7600 O   0  0  0  0  0  0  0  0  0  0  0  0
   37.0330   26.4870   33.1450 C   0  0  0  0  0  0  0  0  0  0  0  0
   36.7360   27.3300   34.5120 C   0  0  2  0  0  0  0  0  0  0  0  0
   38.7400   27.8970   34.5200 H   0  0  0  0  0  0  0  0  0  0  0  0
   39.3730   25.8840   33.9070 H   0  0  0  0  0  0  0  0  0  0  0  0
   36.0880   26.4100   32.6730 H   0  0  0  0  0  0  0  0  0  0  0  0
   37.8170   26.8600   32.5820 H   0  0  0  0  0  0  0  0  0  0  0  0
   35.8410   26.7810   34.6220 H   0  0  0  0  0  0  0  0  0  0  0  0
   40.1820   23.1810   36.6680 C   0  0  0  0  0  0  0  0  0  0  0  0
   40.0020   24.0960   35.5850 C   0  0  0  0  0  0  0  0  0  0  0  0
   38.7870   24.8130   35.6160 C   0  0  0  0  0  0  0  0  0  0  0  0
   37.8610   24.6140   36.6410 N   0  0  0  0  0  0  0  0  0  0  0  0
   38.1160   23.7290   37.6230 C   0  0  0  0  0  0  0  0  0  0  0  0
   39.2590   23.0220   37.6400 N   0  0  0  0  0  0  0  0  0  0  0  0
   41.0850   22.5890   36.7290 H   0  0  0  0  0  0  0  0  0  0  0  0
   40.7490   24.1760   34.8440 H   0  0  0  0  0  0  0  0  0  0  0  0
   37.3010   23.6980   38.3310 H   0  0  0  0  0  0  0  0  0  0  0  0
   38.2660   27.3700   36.3650 O   0  0  0  0  0  0  0  0  0  0  0  0
   37.5080   27.6710   36.9060 H   0  0  0  0  0  0  0  0  0  0  0  0
   36.5470   28.6430   34.1880 O   0  0  0  0  0  0  0  0  0  0  0  0
   35.7520   30.8170   34.8090 C   0  0  1  0  0  0  0  0  0  0  0  0
   35.5470   29.3500   34.5860 C   0  0  1  0  0  0  0  0  0  0  0  0
   34.5910   29.3580   33.3640 C   0  0  0  0  0  0  0  0  0  0  0  0
   35.1450   30.3850   32.5840 O   0  0  0  0  0  0  0  0  0  0  0  0
   35.5600   31.3910   33.4410 C   0  0  0  0  0  0  0  0  0  0  0  0
   36.7400   30.9980   35.2400 H   0  0  0  0  0  0  0  0  0  0  0  0
   34.8770   28.9630   35.3930 H   0  0  0  0  0  0  0  0  0  0  0  0
   34.6360   28.4060   32.8310 H   0  0  0  0  0  0  0  0  0  0  0  0
   33.5830   29.6630   33.6810 H   0  0  0  0  0  0  0  0  0  0  0  0
   34.7210   32.1490   33.4410 H   0  0  0  0  0  0  0  0  0  0  0  0
   36.4290   31.9480   33.0800 H   0  0  0  0  0  0  0  0  0  0  0  0
   34.6950   31.2080   35.6720 O   0  0  0  0  0  0  0  0  0  0  0  0
   35.1060   32.0230   36.6940 C   0  0  0  0  0  2  0  0  0  0  0  0
   33.9870   32.2250   37.5940 N   0  0  0  0  0  4  0  0  0  0  0  0
   34.2970   32.0100   38.5720 H   0  0  0  0  0  0  0  0  0  0  0  0
   32.8800   31.3530   37.2880 C   0  0  0  0  0  2  0  0  0  0  0  0
   32.1640   31.7820   36.5600 H   0  0  0  0  0  0  0  0  0  0  0  0
   33.6230   33.6150   37.5840 C   0  0  0  0  0  2  0  0  0  0  0  0
   32.7500   33.7670   36.9210 H   0  0  0  0  0  0  0  0  0  0  0  0
  1  6  1  6  0  0  0
  1 20  1  0  0  0  0
  2  7  1  6  0  0  0
  2  1  1  0  0  0  0
  2 13  1  0  0  0  0
  3  2  1  0  0  0  0
  4  3  1  0  0  0  0
  4  5  1  0  0  0  0
  5 10  1  1  0  0  0
  5  1  1  0  0  0  0
  8  4  1  0  0  0  0
  9  4  1  0  0  0  0
 11 17  1  0  0  0  0
 11 16  1  0  0  0  0
 12 13  1  0  0  0  0
 12 11  2  0  0  0  0
 13 14  2  0  0  0  0
 14 15  1  0  0  0  0
 15 16  2  0  0  0  0
 15 19  1  0  0  0  0
 18 12  1  0  0  0  0
 20 21  1  0  0  0  0
 22  5  1  0  0  0  0
 22 24  1  0  0  0  0
 23 28  1  1  0  0  0
 23 34  1  0  0  0  0
 24 23  1  0  0  0  0
 24 29  1  1  0  0  0
 25 31  1  0  0  0  0
 25 24  1  0  0  0  0
 26 25  1  0  0  0  0
 26 27  1  0  0  0  0
 27 23  1  0  0  0  0
 30 25  1  0  0  0  0
 32 27  1  0  0  0  0
 33 27  1  0  0  0  0
 34 35  1  0  0  0  0
 35 36  1  0  0  0  0
 36 37  1  0  0  0  0
 38 36  1  0  0  0  0
 39 38  1  0  0  0  0
 40 36  1  0  0  0  0
 41 40  1  0  0  0  0
M  END
>  <minimizedAffinity>
-5.21332216

$$$$

 OpenBabel03262521323D

 41 43  0  0  1  0  0  0  0  0999 V2000
   37.6840   25.7190   34.3620 C   0  0  1  0  0  0  0  0  0  0  0  0
   37.7890   25.8440   35.8710 C   0  0  2  0  0  0  0  0  0  0  0  0
   38.4900   27.0420   36.0970 O   0  0  0  0  0  0  0  0  0  0  0  0
   37.9660   27.8460   35.1140 C   0  0  0  0  0  0  0  0  0  0  0  0
   38.3580   26.8850   33.8540 C   0  0  2  0  0  0  0  0  0  0  0  0
   36.5540   25.8850   34.1390 H   0  0  0  0  0  0  0  0  0  0  0  0
   36.7920   25.9530   36.3220 H   0  0  0  0  0  0  0  0  0  0  0  0
   38.5270   28.7310   34.9550 H   0  0  0  0  0  0  0  0  0  0  0  0
   36.9470   27.9500   35.2630 H   0  0  0  0  0  0  0  0  0  0  0  0
   39.3560   27.2140   33.9500 H   0  0  0  0  0  0  0  0  0  0  0  0
   38.7510   23.1170   38.2640 C   0  0  0  0  0  0  0  0  0  0  0  0
   37.9970   24.2080   37.7340 C   0  0  0  0  0  0  0  0  0  0  0  0
   38.4840   24.7230   36.5130 C   0  0  0  0  0  0  0  0  0  0  0  0
   39.6170   24.1800   35.9060 N   0  0  0  0  0  0  0  0  0  0  0  0
   40.2650   23.1490   36.4800 C   0  0  0  0  0  0  0  0  0  0  0  0
   39.8410   22.6230   37.6420 N   0  0  0  0  0  0  0  0  0  0  0  0
   38.4510   22.6570   39.1960 H   0  0  0  0  0  0  0  0  0  0  0  0
   37.1570   24.5650   38.2650 H   0  0  0  0  0  0  0  0  0  0  0  0
   41.1160   22.8530   35.8840 H   0  0  0  0  0  0  0  0  0  0  0  0
   37.9520   24.5150   33.8590 O   0  0  0  0  0  0  0  0  0  0  0  0
   38.6130   24.4620   33.1400 H   0  0  0  0  0  0  0  0  0  0  0  0
   37.7260   27.3440   32.7340 O   0  0  0  0  0  0  0  0  0  0  0  0
   36.2280   29.1660   32.3120 C   0  0  1  0  0  0  0  0  0  0  0  0
   36.5040   27.7480   32.7080 C   0  0  1  0  0  0  0  0  0  0  0  0
   35.8830   26.9720   31.5160 C   0  0  0  0  0  0  0  0  0  0  0  0
   36.2840   27.7660   30.4300 O   0  0  0  0  0  0  0  0  0  0  0  0
   36.1920   29.0920   30.8180 C   0  0  0  0  0  0  0  0  0  0  0  0
   37.0010   29.8270   32.7130 H   0  0  0  0  0  0  0  0  0  0  0  0
   35.8080   27.4750   33.5400 H   0  0  0  0  0  0  0  0  0  0  0  0
   36.3160   25.9720   31.4390 H   0  0  0  0  0  0  0  0  0  0  0  0
   34.7860   26.9970   31.5850 H   0  0  0  0  0  0  0  0  0  0  0  0
   35.1950   29.4520   30.4250 H   0  0  0  0  0  0  0  0  0  0  0  0
   36.9250   29.7450   30.3360 H   0  0  0  0  0  0  0  0  0  0  0  0
   34.9380   29.4480   32.8330 O   0  0  0  0  0  0  0  0  0  0  0  0
   34.9400   29.6820   34.1830 C   0  0  0  0  0  2  0  0  0  0  0  0
   35.4030   31.0380   34.4100 N   0  0  0  0  0  4  0  0  0  0  0  0
   36.1620   31.2550   33.7210 H   0  0  0  0  0  0  0  0  0  0  0  0
   35.9540   31.2100   35.7310 C   0  0  0  0  0  2  0  0  0  0  0  0
   35.2050   31.5100   36.4900 H   0  0  0  0  0  0  0  0  0  0  0  0
   34.3310   31.9520   34.1280 C   0  0  0  0  0  2  0  0  0  0  0  0
   33.8470   32.2620   35.0740 H   0  0  0  0  0  0  0  0  0  0  0  0
  1  6  1  6  0  0  0
  1  2  1  0  0  0  0
  2  3  1  0  0  0  0
  2  7  1  1  0  0  0
  2 13  1  0  0  0  0
  4  9  1  0  0  0  0
  4  3  1  0  0  0  0
  5 10  1  6  0  0  0
  5  1  1  0  0  0  0
  5  4  1  0  0  0  0
  8  4  1  0  0  0  0
 11 17  1  0  0  0  0
 12 11  1  0  0  0  0
 12 18  1  0  0  0  0
 13 12  2  0  0  0  0
 14 15  2  0  0  0  0
 14 13  1  0  0  0  0
 15 16  1  0  0  0  0
 16 11  2  0  0  0  0
 19 15  1  0  0  0  0
 20  1  1  0  0  0  0
 21 20  1  0  0  0  0
 22  5  1  0  0  0  0
 23 24  1  0  0  0  0
 23 28  1  1  0  0  0
 23 34  1  0  0  0  0
 24 22  1  0  0  0  0
 24 29  1  1  0  0  0
 25 31  1  0  0  0  0
 25 24  1  0  0  0  0
 26 27  1  0  0  0  0
 26 25  1  0  0  0  0
 27 23  1  0  0  0  0
 30 25  1  0  0  0  0
 32 27  1  0  0  0  0
 33 27  1  0  0  0  0
 34 35  1  0  0  0  0
 35 36  1  0  0  0  0
 36 38  1  0  0  0  0
 37 36  1  0  0  0  0
 38 39  1  0  0  0  0
 40 36  1  0  0  0  0
 40 41  1  0  0  0  0
M  END
>  <minimizedAffinity>
-4.84481049

$$$$

 OpenBabel03262521323D

 41 43  0  0  1  0  0  0  0  0999 V2000
   36.9490   27.1980   33.0020 C   0  0  1  0  0  0  0  0  0  0  0  0
   37.0670   26.3630   31.7400 C   0  0  2  0  0  0  0  0  0  0  0  0
   36.0930   26.8760   30.8640 O   0  0  0  0  0  0  0  0  0  0  0  0
   36.1870   28.2220   31.1220 C   0  0  0  0  0  0  0  0  0  0  0  0
   35.8880   28.1300   32.7240 C   0  0  2  0  0  0  0  0  0  0  0  0
   37.9280   27.8290   33.0200 H   0  0  0  0  0  0  0  0  0  0  0  0
   38.0480   26.5100   31.2670 H   0  0  0  0  0  0  0  0  0  0  0  0
   35.3730   28.7790   30.7330 H   0  0  0  0  0  0  0  0  0  0  0  0
   37.1400   28.5500   30.8890 H   0  0  0  0  0  0  0  0  0  0  0  0
   34.8680   27.9820   32.4960 H   0  0  0  0  0  0  0  0  0  0  0  0
   35.6490   22.8910   31.6010 C   0  0  0  0  0  0  0  0  0  0  0  0
   35.7620   24.2870   31.3210 C   0  0  0  0  0  0  0  0  0  0  0  0
   36.8480   24.9280   31.9540 C   0  0  0  0  0  0  0  0  0  0  0  0
   37.7190   24.2180   32.7810 N   0  0  0  0  0  0  0  0  0  0  0  0
   37.5350   22.9010   32.9870 C   0  0  0  0  0  0  0  0  0  0  0  0
   36.5160   22.2430   32.4070 N   0  0  0  0  0  0  0  0  0  0  0  0
   34.8470   22.3150   31.1580 H   0  0  0  0  0  0  0  0  0  0  0  0
   35.0510   24.7490   30.6930 H   0  0  0  0  0  0  0  0  0  0  0  0
   38.2930   22.5070   33.6480 H   0  0  0  0  0  0  0  0  0  0  0  0
   36.9670   26.5210   34.1490 O   0  0  0  0  0  0  0  0  0  0  0  0
   36.2390   26.6870   34.7830 H   0  0  0  0  0  0  0  0  0  0  0  0
   36.1620   29.3390   33.2950 O   0  0  0  0  0  0  0  0  0  0  0  0
   35.7280   31.2400   34.6890 C   0  0  1  0  0  0  0  0  0  0  0  0
   35.5810   29.7880   34.3530 C   0  0  1  0  0  0  0  0  0  0  0  0
   34.0700   29.7060   34.0090 C   0  0  0  0  0  0  0  0  0  0  0  0
   33.8880   30.8880   33.2760 O   0  0  0  0  0  0  0  0  0  0  0  0
   34.6470   31.8790   33.8750 C   0  0  0  0  0  0  0  0  0  0  0  0
   36.7380   31.5830   34.4460 H   0  0  0  0  0  0  0  0  0  0  0  0
   35.6270   29.2020   35.3050 H   0  0  0  0  0  0  0  0  0  0  0  0
   33.8630   28.8330   33.3860 H   0  0  0  0  0  0  0  0  0  0  0  0
   33.4740   29.7670   34.9310 H   0  0  0  0  0  0  0  0  0  0  0  0
   33.9300   32.4460   34.5400 H   0  0  0  0  0  0  0  0  0  0  0  0
   35.0210   32.6330   33.1760 H   0  0  0  0  0  0  0  0  0  0  0  0
   35.4350   31.3290   36.0740 O   0  0  0  0  0  0  0  0  0  0  0  0
   35.2260   32.6140   36.5010 C   0  0  0  0  0  2  0  0  0  0  0  0
   34.2610   32.5840   37.5830 N   0  0  0  0  0  4  0  0  0  0  0  0
   34.7510   32.2900   38.4620 H   0  0  0  0  0  0  0  0  0  0  0  0
   33.2010   31.6390   37.3390 C   0  0  0  0  0  2  0  0  0  0  0  0
   32.3370   32.0690   36.7960 H   0  0  0  0  0  0  0  0  0  0  0  0
   33.7790   33.9170   37.8190 C   0  0  0  0  0  2  0  0  0  0  0  0
   32.7970   34.0500   37.3270 H   0  0  0  0  0  0  0  0  0  0  0  0
  1  6  1  1  0  0  0
  1 20  1  0  0  0  0
  2  7  1  6  0  0  0
  2 13  1  0  0  0  0
  2  1  1  0  0  0  0
  3  4  1  0  0  0  0
  3  2  1  0  0  0  0
  4  5  1  0  0  0  0
  5 10  1  1  0  0  0
  5  1  1  0  0  0  0
  5 22  1  0  0  0  0
  8  4  1  0  0  0  0
  9  4  1  0  0  0  0
 11 16  1  0  0  0  0
 12 11  2  0  0  0  0
 12 13  1  0  0  0  0
 13 14  2  0  0  0  0
 14 15  1  0  0  0  0
 15 19  1  0  0  0  0
 16 15  2  0  0  0  0
 17 11  1  0  0  0  0
 18 12  1  0  0  0  0
 20 21  1  0  0  0  0
 22 24  1  0  0  0  0
 23 28  1  6  0  0  0
 23 34  1  0  0  0  0
 24 23  1  0  0  0  0
 24 29  1  1  0  0  0
 25 24  1  0  0  0  0
 25 31  1  0  0  0  0
 26 27  1  0  0  0  0
 26 25  1  0  0  0  0
 27 32  1  0  0  0  0
 27 23  1  0  0  0  0
 30 25  1  0  0  0  0
 33 27  1  0  0  0  0
 34 35  1  0  0  0  0
 35 36  1  0  0  0  0
 36 40  1  0  0  0  0
 36 37  1  0  0  0  0
 38 36  1  0  0  0  0
 39 38  1  0  0  0  0
 41 40  1  0  0  0  0
M  END
>  <minimizedAffinity>
-4.79615545

$$$$

 OpenBabel03262521323D

 41 43  0  0  1  0  0  0  0  0999 V2000
   38.0310   27.2080   35.0780 C   0  0  1  0  0  0  0  0  0  0  0  0
   38.4780   25.8710   34.5160 C   0  0  2  0  0  0  0  0  0  0  0  0
   37.3920   25.4060   33.7530 O   0  0  0  0  0  0  0  0  0  0  0  0
   36.9500   26.5740   33.1810 C   0  0  0  0  0  0  0  0  0  0  0  0
   36.6940   27.3830   34.5750 C   0  0  2  0  0  0  0  0  0  0  0  0
   38.6850   27.9890   34.5150 H   0  0  0  0  0  0  0  0  0  0  0  0
   39.3300   26.0020   33.8340 H   0  0  0  0  0  0  0  0  0  0  0  0
   35.9880   26.4880   32.7450 H   0  0  0  0  0  0  0  0  0  0  0  0
   37.7030   26.9740   32.5940 H   0  0  0  0  0  0  0  0  0  0  0  0
   35.8150   26.8140   34.7100 H   0  0  0  0  0  0  0  0  0  0  0  0
   40.3060   23.2660   36.5060 C   0  0  0  0  0  0  0  0  0  0  0  0
   40.0650   24.1990   35.4520 C   0  0  0  0  0  0  0  0  0  0  0  0
   38.8350   24.8840   35.5420 C   0  0  0  0  0  0  0  0  0  0  0  0
   37.9510   24.6400   36.5940 N   0  0  0  0  0  0  0  0  0  0  0  0
   38.2640   23.7400   37.5460 C   0  0  0  0  0  0  0  0  0  0  0  0
   39.4230   23.0620   37.5060 N   0  0  0  0  0  0  0  0  0  0  0  0
   41.2250   22.6940   36.5210 H   0  0  0  0  0  0  0  0  0  0  0  0
   40.7830   24.3140   34.6870 H   0  0  0  0  0  0  0  0  0  0  0  0
   37.4750   23.6720   38.2810 H   0  0  0  0  0  0  0  0  0  0  0  0
   38.2980   27.4150   36.3660 O   0  0  0  0  0  0  0  0  0  0  0  0
   37.5560   27.6900   36.9430 H   0  0  0  0  0  0  0  0  0  0  0  0
   36.4670   28.6980   34.2880 O   0  0  0  0  0  0  0  0  0  0  0  0
   34.8400   30.3880   34.7770 C   0  0  1  0  0  0  0  0  0  0  0  0
   35.3090   29.1890   34.0120 C   0  0  1  0  0  0  0  0  0  0  0  0
   35.4900   29.7870   32.5910 C   0  0  0  0  0  0  0  0  0  0  0  0
   36.0690   31.0310   32.8840 O   0  0  0  0  0  0  0  0  0  0  0  0
   35.4560   31.5250   34.0230 C   0  0  0  0  0  0  0  0  0  0  0  0
   35.1560   30.3160   35.8220 H   0  0  0  0  0  0  0  0  0  0  0  0
   34.4360   28.5080   33.8590 H   0  0  0  0  0  0  0  0  0  0  0  0
   36.1750   29.1760   32.0000 H   0  0  0  0  0  0  0  0  0  0  0  0
   34.5060   29.9560   32.1290 H   0  0  0  0  0  0  0  0  0  0  0  0
   34.6590   32.2350   33.6520 H   0  0  0  0  0  0  0  0  0  0  0  0
   36.1090   32.1490   34.6400 H   0  0  0  0  0  0  0  0  0  0  0  0
   33.4290   30.3910   34.6270 O   0  0  0  0  0  0  0  0  0  0  0  0
   32.8180   29.3340   35.2500 C   0  0  0  0  0  2  0  0  0  0  0  0
   31.5070   29.1510   34.6560 N   0  0  0  0  0  4  0  0  0  0  0  0
   30.9190   29.9910   34.8720 H   0  0  0  0  0  0  0  0  0  0  0  0
   30.8280   27.9960   35.1880 C   0  0  0  0  0  2  0  0  0  0  0  0
   31.0340   27.0620   34.6300 H   0  0  0  0  0  0  0  0  0  0  0  0
   31.6420   29.1120   33.2270 C   0  0  0  0  0  2  0  0  0  0  0  0
   31.6330   28.0600   32.8800 H   0  0  0  0  0  0  0  0  0  0  0  0
  1  6  1  6  0  0  0
  1 20  1  0  0  0  0
  2  7  1  6  0  0  0
  2  1  1  0  0  0  0
  2 13  1  0  0  0  0
  3  2  1  0  0  0  0
  4  3  1  0  0  0  0
  4  5  1  0  0  0  0
  5 10  1  1  0  0  0
  5  1  1  0  0  0  0
  8  4  1  0  0  0  0
  9  4  1  0  0  0  0
 11 17  1  0  0  0  0
 11 16  1  0  0  0  0
 12 13  1  0  0  0  0
 12 11  2  0  0  0  0
 13 14  2  0  0  0  0
 14 15  1  0  0  0  0
 15 19  1  0  0  0  0
 16 15  2  0  0  0  0
 18 12  1  0  0  0  0
 20 21  1  0  0  0  0
 22  5  1  0  0  0  0
 23 28  1  1  0  0  0
 24 29  1  6  0  0  0
 24 22  1  0  0  0  0
 24 23  1  0  0  0  0
 25 26  1  0  0  0  0
 25 24  1  0  0  0  0
 26 27  1  0  0  0  0
 27 33  1  0  0  0  0
 27 23  1  0  0  0  0
 30 25  1  0  0  0  0
 31 25  1  0  0  0  0
 32 27  1  0  0  0  0
 34 23  1  0  0  0  0
 34 35  1  0  0  0  0
 36 37  1  0  0  0  0
 36 38  1  0  0  0  0
 36 35  1  0  0  0  0
 39 38  1  0  0  0  0
 40 36  1  0  0  0  0
 41 40  1  0  0  0  0
M  END
>  <minimizedAffinity>
-4.74007702

$$$$

 OpenBabel03262521323D

 41 43  0  0  1  0  0  0  0  0999 V2000
   37.9680   27.4300   35.1290 C   0  0  1  0  0  0  0  0  0  0  0  0
   38.3750   26.1300   34.4600 C   0  0  2  0  0  0  0  0  0  0  0  0
   37.2730   25.7580   33.6710 O   0  0  0  0  0  0  0  0  0  0  0  0
   36.8610   26.9790   33.1960 C   0  0  0  0  0  0  0  0  0  0  0  0
   36.6350   27.6820   34.6520 C   0  0  2  0  0  0  0  0  0  0  0  0
   38.6420   28.2350   34.6250 H   0  0  0  0  0  0  0  0  0  0  0  0
   39.2270   26.2910   33.7850 H   0  0  0  0  0  0  0  0  0  0  0  0
   35.8950   26.9550   32.7620 H   0  0  0  0  0  0  0  0  0  0  0  0
   37.6220   27.4030   32.6380 H   0  0  0  0  0  0  0  0  0  0  0  0
   35.7400   27.1290   34.7470 H   0  0  0  0  0  0  0  0  0  0  0  0
   40.1570   23.3530   36.2500 C   0  0  0  0  0  0  0  0  0  0  0  0
   39.9390   24.3760   35.2780 C   0  0  0  0  0  0  0  0  0  0  0  0
   38.7080   25.0560   35.4030 C   0  0  0  0  0  0  0  0  0  0  0  0
   37.8030   24.7220   36.4100 N   0  0  0  0  0  0  0  0  0  0  0  0
   38.0930   23.7410   37.2850 C   0  0  0  0  0  0  0  0  0  0  0  0
   39.2520   23.0650   37.2100 N   0  0  0  0  0  0  0  0  0  0  0  0
   41.0740   22.7790   36.2340 H   0  0  0  0  0  0  0  0  0  0  0  0
   40.6730   24.5560   34.5410 H   0  0  0  0  0  0  0  0  0  0  0  0
   37.2900   23.6120   37.9960 H   0  0  0  0  0  0  0  0  0  0  0  0
   38.2470   27.5270   36.4280 O   0  0  0  0  0  0  0  0  0  0  0  0
   37.5170   27.7750   37.0300 H   0  0  0  0  0  0  0  0  0  0  0  0
   36.4440   29.0220   34.4710 O   0  0  0  0  0  0  0  0  0  0  0  0
   34.1000   29.2870   34.0470 C   0  0  1  0  0  0  0  0  0  0  0  0
   35.5390   29.5270   33.7070 C   0  0  1  0  0  0  0  0  0  0  0  0
   35.6600   31.0550   33.9500 C   0  0  0  0  0  0  0  0  0  0  0  0
   34.9080   31.2090   35.1250 O   0  0  0  0  0  0  0  0  0  0  0  0
   33.8090   30.3700   35.0370 C   0  0  0  0  0  0  0  0  0  0  0  0
   33.9680   28.2740   34.4350 H   0  0  0  0  0  0  0  0  0  0  0  0
   35.6510   29.4670   32.5950 H   0  0  0  0  0  0  0  0  0  0  0  0
   36.7010   31.3370   34.1220 H   0  0  0  0  0  0  0  0  0  0  0  0
   35.1610   31.6030   33.1380 H   0  0  0  0  0  0  0  0  0  0  0  0
   32.9610   31.0240   34.6760 H   0  0  0  0  0  0  0  0  0  0  0  0
   33.4650   29.9900   36.0040 H   0  0  0  0  0  0  0  0  0  0  0  0
   33.3940   29.5100   32.8360 O   0  0  0  0  0  0  0  0  0  0  0  0
   32.0360   29.3960   32.9740 C   0  0  0  0  0  2  0  0  0  0  0  0
   31.4080   30.4350   32.1800 N   0  0  0  0  0  4  0  0  0  0  0  0
   30.7930   29.9840   31.4610 H   0  0  0  0  0  0  0  0  0  0  0  0
   32.3760   31.2420   31.4800 C   0  0  0  0  0  2  0  0  0  0  0  0
   32.7260   32.1190   32.0570 H   0  0  0  0  0  0  0  0  0  0  0  0
   30.5400   31.2100   33.0240 C   0  0  0  0  0  2  0  0  0  0  0  0
   31.0510   32.1440   33.3260 H   0  0  0  0  0  0  0  0  0  0  0  0
  1  6  1  6  0  0  0
  1 20  1  0  0  0  0
  2  7  1  6  0  0  0
  2  1  1  0  0  0  0
  2 13  1  0  0  0  0
  3  2  1  0  0  0  0
  4  3  1  0  0  0  0
  4  5  1  0  0  0  0
  5 10  1  1  0  0  0
  5  1  1  0  0  0  0
  8  4  1  0  0  0  0
  9  4  1  0  0  0  0
 11 16  1  0  0  0  0
 12 13  1  0  0  0  0
 12 11  2  0  0  0  0
 13 14  2  0  0  0  0
 14 15  1  0  0  0  0
 15 19  1  0  0  0  0
 16 15  2  0  0  0  0
 17 11  1  0  0  0  0
 18 12  1  0  0  0  0
 20 21  1  0  0  0  0
 22  5  1  0  0  0  0
 23 28  1  1  0  0  0
 23 27  1  0  0  0  0
 24 29  1  6  0  0  0
 24 25  1  0  0  0  0
 24 23  1  0  0  0  0
 24 22  1  0  0  0  0
 25 30  1  0  0  0  0
 25 26  1  0  0  0  0
 27 26  1  0  0  0  0
 27 33  1  0  0  0  0
 31 25  1  0  0  0  0
 32 27  1  0  0  0  0
 34 35  1  0  0  0  0
 34 23  1  0  0  0  0
 36 35  1  0  0  0  0
 36 40  1  0  0  0  0
 37 36  1  0  0  0  0
 38 39  1  0  0  0  0
 38 36  1  0  0  0  0
 40 41  1  0  0  0  0
M  END
>  <minimizedAffinity>
-4.69596577

$$$$

 OpenBabel03262521323D

 41 43  0  0  1  0  0  0  0  0999 V2000
   36.6540   28.7630   32.5920 C   0  0  1  0  0  0  0  0  0  0  0  0
   37.0330   28.1520   31.2560 C   0  0  2  0  0  0  0  0  0  0  0  0
   36.3210   28.8900   30.2940 O   0  0  0  0  0  0  0  0  0  0  0  0
   36.4090   30.1590   30.8150 C   0  0  0  0  0  0  0  0  0  0  0  0
   35.7320   29.8170   32.2610 C   0  0  2  0  0  0  0  0  0  0  0  0
   37.6260   29.2940   32.9500 H   0  0  0  0  0  0  0  0  0  0  0  0
   38.1040   28.2920   31.0540 H   0  0  0  0  0  0  0  0  0  0  0  0
   35.7360   30.8430   30.3640 H   0  0  0  0  0  0  0  0  0  0  0  0
   37.4040   30.4380   30.8700 H   0  0  0  0  0  0  0  0  0  0  0  0
   34.7910   29.8000   31.7840 H   0  0  0  0  0  0  0  0  0  0  0  0
   37.3140   24.4250   30.9070 C   0  0  0  0  0  0  0  0  0  0  0  0
   37.7480   25.7820   31.0070 C   0  0  0  0  0  0  0  0  0  0  0  0
   36.7070   26.7250   31.1420 C   0  0  0  0  0  0  0  0  0  0  0  0
   35.3720   26.3230   31.1690 N   0  0  0  0  0  0  0  0  0  0  0  0
   35.0550   25.0180   31.0680 C   0  0  0  0  0  0  0  0  0  0  0  0
   36.0090   24.0810   30.9390 N   0  0  0  0  0  0  0  0  0  0  0  0
   38.0410   23.6320   30.8020 H   0  0  0  0  0  0  0  0  0  0  0  0
   38.7800   26.0010   30.9660 H   0  0  0  0  0  0  0  0  0  0  0  0
   33.9840   24.8810   31.1060 H   0  0  0  0  0  0  0  0  0  0  0  0
   36.3670   27.9000   33.5650 O   0  0  0  0  0  0  0  0  0  0  0  0
   35.5170   28.0170   34.0370 H   0  0  0  0  0  0  0  0  0  0  0  0
   35.9140   30.8820   33.0950 O   0  0  0  0  0  0  0  0  0  0  0  0
   34.7910   30.8510   35.2130 C   0  0  1  0  0  0  0  0  0  0  0  0
   34.9870   31.3920   33.8300 C   0  0  1  0  0  0  0  0  0  0  0  0
   35.5010   32.8240   34.1330 C   0  0  0  0  0  0  0  0  0  0  0  0
   36.3720   32.5860   35.2070 O   0  0  0  0  0  0  0  0  0  0  0  0
   35.7930   31.6210   36.0150 C   0  0  0  0  0  0  0  0  0  0  0  0
   34.9440   29.7690   35.2190 H   0  0  0  0  0  0  0  0  0  0  0  0
   33.9800   31.6040   33.3910 H   0  0  0  0  0  0  0  0  0  0  0  0
   36.0500   33.2270   33.2780 H   0  0  0  0  0  0  0  0  0  0  0  0
   34.6710   33.4530   34.4860 H   0  0  0  0  0  0  0  0  0  0  0  0
   35.2830   32.1920   36.8460 H   0  0  0  0  0  0  0  0  0  0  0  0
   36.5170   30.9820   36.5290 H   0  0  0  0  0  0  0  0  0  0  0  0
   33.4690   31.2230   35.5690 O   0  0  0  0  0  0  0  0  0  0  0  0
   33.2900   31.3530   36.9210 C   0  0  0  0  0  2  0  0  0  0  0  0
   31.9440   30.9220   37.2470 N   0  0  0  0  0  4  0  0  0  0  0  0
   31.7600   31.1290   38.2590 H   0  0  0  0  0  0  0  0  0  0  0  0
   31.7670   29.5050   37.0540 C   0  0  0  0  0  2  0  0  0  0  0  0
   31.4340   29.2320   36.0340 H   0  0  0  0  0  0  0  0  0  0  0  0
   31.0060   31.7110   36.4980 C   0  0  0  0  0  2  0  0  0  0  0  0
   30.6670   31.1430   35.6100 H   0  0  0  0  0  0  0  0  0  0  0  0
  1  6  1  1  0  0  0
  1 20  1  0  0  0  0
  2  7  1  6  0  0  0
  2  1  1  0  0  0  0
  3  4  1  0  0  0  0
  3  2  1  0  0  0  0
  4  9  1  0  0  0  0
  4  5  1  0  0  0  0
  5 10  1  6  0  0  0
  5  1  1  0  0  0  0
  5 22  1  0  0  0  0
  8  4  1  0  0  0  0
 11 16  2  0  0  0  0
 11 12  1  0  0  0  0
 12 13  2  0  0  0  0
 13 14  1  0  0  0  0
 13  2  1  0  0  0  0
 15 19  1  0  0  0  0
 15 14  2  0  0  0  0
 16 15  1  0  0  0  0
 17 11  1  0  0  0  0
 18 12  1  0  0  0  0
 20 21  1  0  0  0  0
 22 24  1  0  0  0  0
 23 28  1  1  0  0  0
 23 34  1  0  0  0  0
 23 27  1  0  0  0  0
 24 29  1  6  0  0  0
 24 25  1  0  0  0  0
 24 23  1  0  0  0  0
 25 31  1  0  0  0  0
 25 26  1  0  0  0  0
 26 27  1  0  0  0  0
 27 33  1  0  0  0  0
 27 32  1  0  0  0  0
 30 25  1  0  0  0  0
 34 35  1  0  0  0  0
 35 36  1  0  0  0  0
 36 37  1  0  0  0  0
 38 36  1  0  0  0  0
 39 38  1  0  0  0  0
 40 36  1  0  0  0  0
 41 40  1  0  0  0  0
M  END
>  <minimizedAffinity>
-4.53476524

$$$$

 OpenBabel03262521323D

 41 43  0  0  1  0  0  0  0  0999 V2000
   37.4820   26.2360   31.7300 C   0  0  1  0  0  0  0  0  0  0  0  0
   37.5910   27.5310   32.5140 C   0  0  2  0  0  0  0  0  0  0  0  0
   37.2710   27.1900   33.8400 O   0  0  0  0  0  0  0  0  0  0  0  0
   37.8760   25.9610   33.9510 C   0  0  0  0  0  0  0  0  0  0  0  0
   37.0950   25.2520   32.7050 C   0  0  2  0  0  0  0  0  0  0  0  0
   38.5810   25.9820   31.4430 H   0  0  0  0  0  0  0  0  0  0  0  0
   38.6250   27.9030   32.5070 H   0  0  0  0  0  0  0  0  0  0  0  0
   37.5620   25.4160   34.8040 H   0  0  0  0  0  0  0  0  0  0  0  0
   38.8950   26.0660   33.8040 H   0  0  0  0  0  0  0  0  0  0  0  0
   36.2420   25.1750   33.3220 H   0  0  0  0  0  0  0  0  0  0  0  0
   34.6800   29.8710   32.1390 C   0  0  0  0  0  0  0  0  0  0  0  0
   35.4650   28.8120   32.6890 C   0  0  0  0  0  0  0  0  0  0  0  0
   36.6970   28.5920   32.0350 C   0  0  0  0  0  0  0  0  0  0  0  0
   37.0790   29.3680   30.9410 N   0  0  0  0  0  0  0  0  0  0  0  0
   36.2720   30.3470   30.4900 C   0  0  0  0  0  0  0  0  0  0  0  0
   35.0900   30.5980   31.0780 N   0  0  0  0  0  0  0  0  0  0  0  0
   33.7210   30.1140   32.5750 H   0  0  0  0  0  0  0  0  0  0  0  0
   35.0960   28.2660   33.5130 H   0  0  0  0  0  0  0  0  0  0  0  0
   36.7150   30.8480   29.6420 H   0  0  0  0  0  0  0  0  0  0  0  0
   36.8420   26.3150   30.5640 O   0  0  0  0  0  0  0  0  0  0  0  0
   36.1130   25.6820   30.4050 H   0  0  0  0  0  0  0  0  0  0  0  0
   37.6940   24.0560   32.4320 O   0  0  0  0  0  0  0  0  0  0  0  0
   37.6230   22.1560   33.8920 C   0  0  1  0  0  0  0  0  0  0  0  0
   38.3200   23.3450   33.3040 C   0  0  1  0  0  0  0  0  0  0  0  0
   39.4470   22.6620   32.4840 C   0  0  0  0  0  0  0  0  0  0  0  0
   38.7620   21.5720   31.9250 O   0  0  0  0  0  0  0  0  0  0  0  0
   37.8910   21.0830   32.8840 C   0  0  0  0  0  0  0  0  0  0  0  0
   36.5630   22.3780   34.0440 H   0  0  0  0  0  0  0  0  0  0  0  0
   38.9050   23.8440   34.1160 H   0  0  0  0  0  0  0  0  0  0  0  0
   39.8100   23.3280   31.6980 H   0  0  0  0  0  0  0  0  0  0  0  0
   40.2230   22.2800   33.1620 H   0  0  0  0  0  0  0  0  0  0  0  0
   38.4290   20.2120   33.3630 H   0  0  0  0  0  0  0  0  0  0  0  0
   36.9790   20.6430   32.4690 H   0  0  0  0  0  0  0  0  0  0  0  0
   38.3090   21.8900   35.1050 O   0  0  0  0  0  0  0  0  0  0  0  0
   38.1510   22.8770   36.0430 C   0  0  0  0  0  2  0  0  0  0  0  0
   38.8530   22.4780   37.2470 N   0  0  0  0  0  4  0  0  0  0  0  0
   38.4870   21.5450   37.5570 H   0  0  0  0  0  0  0  0  0  0  0  0
   38.6440   23.4070   38.3300 C   0  0  0  0  0  2  0  0  0  0  0  0
   39.3880   24.2270   38.3620 H   0  0  0  0  0  0  0  0  0  0  0  0
   40.2420   22.2820   36.9380 C   0  0  0  0  0  2  0  0  0  0  0  0
   40.8200   23.1770   37.2390 H   0  0  0  0  0  0  0  0  0  0  0  0
  1  6  1  6  0  0  0
  1  2  1  0  0  0  0
  1  5  1  0  0  0  0
  2  7  1  6  0  0  0
  2  3  1  0  0  0  0
  3  4  1  0  0  0  0
  4  8  1  0  0  0  0
  5 10  1  1  0  0  0
  5  4  1  0  0  0  0
  9  4  1  0  0  0  0
 11 17  1  0  0  0  0
 11 12  1  0  0  0  0
 12 18  1  0  0  0  0
 13  2  1  0  0  0  0
 13 12  2  0  0  0  0
 14 13  1  0  0  0  0
 15 14  2  0  0  0  0
 15 16  1  0  0  0  0
 16 11  2  0  0  0  0
 19 15  1  0  0  0  0
 20  1  1  0  0  0  0
 21 20  1  0  0  0  0
 22  5  1  0  0  0  0
 22 24  1  0  0  0  0
 23 28  1  1  0  0  0
 23 34  1  0  0  0  0
 24 23  1  0  0  0  0
 24 29  1  1  0  0  0
 25 31  1  0  0  0  0
 25 24  1  0  0  0  0
 26 25  1  0  0  0  0
 26 27  1  0  0  0  0
 27 32  1  0  0  0  0
 27 23  1  0  0  0  0
 30 25  1  0  0  0  0
 33 27  1  0  0  0  0
 34 35  1  0  0  0  0
 35 36  1  0  0  0  0
 36 37  1  0  0  0  0
 36 38  1  0  0  0  0
 38 39  1  0  0  0  0
 40 41  1  0  0  0  0
 40 36  1  0  0  0  0
M  END
>  <minimizedAffinity>
-4.52618885

$$$$

 OpenBabel03262521323D

 41 43  0  0  1  0  0  0  0  0999 V2000
   38.0580   23.5120   32.3210 C   0  0  1  0  0  0  0  0  0  0  0  0
   36.8780   23.3010   31.3890 C   0  0  2  0  0  0  0  0  0  0  0  0
   35.9080   24.2310   31.8020 O   0  0  0  0  0  0  0  0  0  0  0  0
   36.6930   25.3170   32.1060 C   0  0  0  0  0  0  0  0  0  0  0  0
   37.6370   24.5650   33.2060 C   0  0  2  0  0  0  0  0  0  0  0  0
   38.8800   23.9780   31.6410 H   0  0  0  0  0  0  0  0  0  0  0  0
   37.1530   23.5460   30.3530 H   0  0  0  0  0  0  0  0  0  0  0  0
   36.1810   26.0600   32.6620 H   0  0  0  0  0  0  0  0  0  0  0  0
   37.1980   25.6230   31.2560 H   0  0  0  0  0  0  0  0  0  0  0  0
   36.8370   24.6270   33.8920 H   0  0  0  0  0  0  0  0  0  0  0  0
   34.7200   20.3270   32.1560 C   0  0  0  0  0  0  0  0  0  0  0  0
   35.1680   21.6830   32.1930 C   0  0  0  0  0  0  0  0  0  0  0  0
   36.3260   21.9420   31.4290 C   0  0  0  0  0  0  0  0  0  0  0  0
   36.9530   20.9250   30.7080 N   0  0  0  0  0  0  0  0  0  0  0  0
   36.4580   19.6740   30.7310 C   0  0  0  0  0  0  0  0  0  0  0  0
   35.3580   19.3750   31.4430 N   0  0  0  0  0  0  0  0  0  0  0  0
   33.8380   20.0340   32.7100 H   0  0  0  0  0  0  0  0  0  0  0  0
   34.6400   22.3880   32.7750 H   0  0  0  0  0  0  0  0  0  0  0  0
   37.0600   19.0130   30.1240 H   0  0  0  0  0  0  0  0  0  0  0  0
   38.6160   22.4060   32.8100 O   0  0  0  0  0  0  0  0  0  0  0  0
   38.7280   22.3460   33.7810 H   0  0  0  0  0  0  0  0  0  0  0  0
   38.6930   25.3760   33.5080 O   0  0  0  0  0  0  0  0  0  0  0  0
   40.9180   24.8920   34.2550 C   0  0  1  0  0  0  0  0  0  0  0  0
   39.4760   25.2000   34.5150 C   0  0  1  0  0  0  0  0  0  0  0  0
   39.5760   26.6090   35.1570 C   0  0  0  0  0  0  0  0  0  0  0  0
   40.5610   27.2090   34.3580 O   0  0  0  0  0  0  0  0  0  0  0  0
   41.5200   26.2500   34.0780 C   0  0  0  0  0  0  0  0  0  0  0  0
   41.0130   24.2390   33.3830 H   0  0  0  0  0  0  0  0  0  0  0  0
   39.1370   24.5810   35.3830 H   0  0  0  0  0  0  0  0  0  0  0  0
   38.6290   27.1440   35.0630 H   0  0  0  0  0  0  0  0  0  0  0  0
   39.9590   26.5250   36.1840 H   0  0  0  0  0  0  0  0  0  0  0  0
   42.3460   26.4220   34.8310 H   0  0  0  0  0  0  0  0  0  0  0  0
   42.0080   26.3830   33.1070 H   0  0  0  0  0  0  0  0  0  0  0  0
   41.3860   24.2860   35.4500 O   0  0  0  0  0  0  0  0  0  0  0  0
   40.7830   23.0860   35.7190 C   0  0  0  0  0  2  0  0  0  0  0  0
   41.0130   22.7620   37.1140 N   0  0  0  0  0  4  0  0  0  0  0  0
   41.6540   23.4820   37.5250 H   0  0  0  0  0  0  0  0  0  0  0  0
   41.6450   21.4760   37.2750 C   0  0  0  0  0  2  0  0  0  0  0  0
   40.9290   20.6360   37.3660 H   0  0  0  0  0  0  0  0  0  0  0  0
   39.7740   22.8700   37.8310 C   0  0  0  0  0  2  0  0  0  0  0  0
   39.3320   21.8640   37.9660 H   0  0  0  0  0  0  0  0  0  0  0  0
  1  6  1  6  0  0  0
  1 20  1  0  0  0  0
  1  5  1  0  0  0  0
  2  7  1  6  0  0  0
  2 13  1  0  0  0  0
  2  3  1  0  0  0  0
  2  1  1  0  0  0  0
  3  4  1  0  0  0  0
  4  8  1  0  0  0  0
  4  5  1  0  0  0  0
  5 22  1  0  0  0  0
  5 10  1  1  0  0  0
  9  4  1  0  0  0  0
 11 12  1  0  0  0  0
 11 17  1  0  0  0  0
 12 18  1  0  0  0  0
 13 12  2  0  0  0  0
 14 15  2  0  0  0  0
 14 13  1  0  0  0  0
 15 16  1  0  0  0  0
 16 11  2  0  0  0  0
 19 15  1  0  0  0  0
 20 21  1  0  0  0  0
 22 24  1  0  0  0  0
 23 28  1  6  0  0  0
 23 24  1  0  0  0  0
 23 34  1  0  0  0  0
 24 25  1  0  0  0  0
 24 29  1  1  0  0  0
 25 31  1  0  0  0  0
 26 25  1  0  0  0  0
 27 23  1  0  0  0  0
 27 26  1  0  0  0  0
 27 32  1  0  0  0  0
 30 25  1  0  0  0  0
 33 27  1  0  0  0  0
 34 35  1  0  0  0  0
 35 36  1  0  0  0  0
 36 38  1  0  0  0  0
 36 37  1  0  0  0  0
 36 40  1  0  0  0  0
 38 39  1  0  0  0  0
 40 41  1  0  0  0  0
M  END
>  <minimizedAffinity>
-4.44634962

$$$$

 OpenBabel03262521323D

 41 43  0  0  1  0  0  0  0  0999 V2000
   37.1770   26.5200   33.7560 C   0  0  1  0  0  0  0  0  0  0  0  0
   36.6580   26.6070   32.3330 C   0  0  2  0  0  0  0  0  0  0  0  0
   37.7110   26.1450   31.5250 O   0  0  0  0  0  0  0  0  0  0  0  0
   38.2040   25.1180   32.2920 C   0  0  0  0  0  0  0  0  0  0  0  0
   38.5160   26.0090   33.6240 C   0  0  2  0  0  0  0  0  0  0  0  0
   36.5560   25.6600   34.2360 H   0  0  0  0  0  0  0  0  0  0  0  0
   35.8060   25.9270   32.1880 H   0  0  0  0  0  0  0  0  0  0  0  0
   39.1570   24.7780   31.9730 H   0  0  0  0  0  0  0  0  0  0  0  0
   37.4660   24.4050   32.4260 H   0  0  0  0  0  0  0  0  0  0  0  0
   39.3670   26.3940   33.1320 H   0  0  0  0  0  0  0  0  0  0  0  0
   36.5550   29.9580   30.6450 C   0  0  0  0  0  0  0  0  0  0  0  0
   37.0340   28.6510   30.9650 C   0  0  0  0  0  0  0  0  0  0  0  0
   36.2630   27.9600   31.9260 C   0  0  0  0  0  0  0  0  0  0  0  0
   35.1320   28.5450   32.4940 N   0  0  0  0  0  0  0  0  0  0  0  0
   34.7540   29.7850   32.1300 C   0  0  0  0  0  0  0  0  0  0  0  0
   35.4530   30.4840   31.2190 N   0  0  0  0  0  0  0  0  0  0  0  0
   37.0800   30.5610   29.9170 H   0  0  0  0  0  0  0  0  0  0  0  0
   37.9070   28.2880   30.4960 H   0  0  0  0  0  0  0  0  0  0  0  0
   33.8640   30.0860   32.6630 H   0  0  0  0  0  0  0  0  0  0  0  0
   36.9340   27.5780   34.5280 O   0  0  0  0  0  0  0  0  0  0  0  0
   37.6950   27.9820   34.9950 H   0  0  0  0  0  0  0  0  0  0  0  0
   38.8040   25.1690   34.6600 O   0  0  0  0  0  0  0  0  0  0  0  0
   38.7840   22.7820   34.8690 C   0  0  1  0  0  0  0  0  0  0  0  0
   38.1170   24.1210   34.9540 C   0  0  1  0  0  0  0  0  0  0  0  0
   37.8840   24.2480   36.4830 C   0  0  0  0  0  0  0  0  0  0  0  0
   39.0870   23.7360   36.9920 O   0  0  0  0  0  0  0  0  0  0  0  0
   39.4580   22.6620   36.1990 C   0  0  0  0  0  0  0  0  0  0  0  0
   39.4640   22.7530   34.0140 H   0  0  0  0  0  0  0  0  0  0  0  0
   37.0700   24.0150   34.5750 H   0  0  0  0  0  0  0  0  0  0  0  0
   37.7630   25.2950   36.7690 H   0  0  0  0  0  0  0  0  0  0  0  0
   37.0610   23.5870   36.7920 H   0  0  0  0  0  0  0  0  0  0  0  0
   39.0950   21.7430   36.7490 H   0  0  0  0  0  0  0  0  0  0  0  0
   40.5410   22.5220   36.1240 H   0  0  0  0  0  0  0  0  0  0  0  0
   37.7200   21.8480   34.7580 O   0  0  0  0  0  0  0  0  0  0  0  0
   37.3170   21.6400   33.4650 C   0  0  0  0  0  2  0  0  0  0  0  0
   36.1580   20.7680   33.4840 N   0  0  0  0  0  4  0  0  0  0  0  0
   36.4630   19.7980   33.2290 H   0  0  0  0  0  0  0  0  0  0  0  0
   35.1580   21.1750   32.5290 C   0  0  0  0  0  2  0  0  0  0  0  0
   34.4210   21.8950   32.9350 H   0  0  0  0  0  0  0  0  0  0  0  0
   35.6510   20.6910   34.8260 C   0  0  0  0  0  2  0  0  0  0  0  0
   34.7860   21.3720   34.9380 H   0  0  0  0  0  0  0  0  0  0  0  0
  1  6  1  1  0  0  0
  1 20  1  0  0  0  0
  2  7  1  6  0  0  0
  2  1  1  0  0  0  0
  3  4  1  0  0  0  0
  3  2  1  0  0  0  0
  4  9  1  0  0  0  0
  4  5  1  0  0  0  0
  5 10  1  6  0  0  0
  5  1  1  0  0  0  0
  5 22  1  0  0  0  0
  8  4  1  0  0  0  0
 11 12  2  0  0  0  0
 11 16  1  0  0  0  0
 12 13  1  0  0  0  0
 13  2  1  0  0  0  0
 13 14  2  0  0  0  0
 15 14  1  0  0  0  0
 15 19  1  0  0  0  0
 16 15  2  0  0  0  0
 17 11  1  0  0  0  0
 18 12  1  0  0  0  0
 20 21  1  0  0  0  0
 22 24  1  0  0  0  0
 23 28  1  6  0  0  0
 23 24  1  0  0  0  0
 23 27  1  0  0  0  0
 24 29  1  6  0  0  0
 24 25  1  0  0  0  0
 25 30  1  0  0  0  0
 25 31  1  0  0  0  0
 25 26  1  0  0  0  0
 27 32  1  0  0  0  0
 27 26  1  0  0  0  0
 33 27  1  0  0  0  0
 34 23  1  0  0  0  0
 35 36  1  0  0  0  0
 35 34  1  0  0  0  0
 36 40  1  0  0  0  0
 37 36  1  0  0  0  0
 38 39  1  0  0  0  0
 38 36  1  0  0  0  0
 40 41  1  0  0  0  0
M  END
>  <minimizedAffinity>
-4.43058872

$$$$
