REMARK  Name = 
REMARK  8 active torsions:
REMARK  status: ('A' for Active; 'I' for Inactive)
REMARK    1  A    between atoms: C_3  and  O_7
REMARK    2  A    between atoms: O_7  and  P_9
REMARK    3  A    between atoms: P_9  and  O_10
REMARK    4  A    between atoms: P_9  and  O_11
REMARK    5  A    between atoms: O_11  and  C_16
REMARK    6  A    between atoms: C_16  and  N_17
REMARK    7  A    between atoms: N_17  and  C_18
REMARK    8  A    between atoms: N_17  and  C_20
REMARK                            x       y       z     vdW  Elec       q    Type
REMARK                         _______ _______ _______ _____ _____    ______ ____
ROOT
ATOM      1  O   UNL     1      39.063  32.733  48.144  0.00  0.00    +0.000 OA
ATOM      2  P   UNL     1      38.693  31.731  47.108  0.00  0.00    +0.000 P 
ENDROOT
BRANCH   2   3
ATOM      3  O   UNL     1      37.827  32.465  45.845  0.00  0.00    +0.000 OA
ATOM      4  H   UNL     1      37.611  33.411  46.065  0.00  0.00    +0.000 HD
ENDBRANCH   2   3
BRANCH   2   5
ATOM      5  O   UNL     1      37.861  30.378  47.695  0.00  0.00    +0.000 OA
BRANCH   5   8
ATOM      6  C   UNL     1      37.337  30.158  51.347  0.00  0.00    +0.000 A 
ATOM      7  C   UNL     1      37.992  30.513  50.168  0.00  0.00    +0.000 A 
ATOM      8  C   UNL     1      37.423  30.152  48.954  0.00  0.00    +0.000 A 
ATOM      9  N   UNL     1      36.242  29.461  49.001  0.00  0.00    +0.000 NA
ATOM     10  C   UNL     1      35.640  29.136  50.154  0.00  0.00    +0.000 A 
ATOM     11  N   UNL     1      36.187  29.484  51.329  0.00  0.00    +0.000 NA
ATOM     12  H   UNL     1      37.840  30.473  52.267  0.00  0.00    +0.000 HD
ATOM     13  H   UNL     1      38.922  31.055  50.067  0.00  0.00    +0.000 HD
ATOM     14  H   UNL     1      34.702  28.587  50.171  0.00  0.00    +0.000 HD
ENDBRANCH   5   8
ENDBRANCH   2   5
BRANCH   2  15
ATOM     15  O   UNL     1      40.155  31.161  46.410  0.00  0.00    +0.000 OA
BRANCH  15  16
ATOM     16  C   UNL     1      40.239  31.433  45.068  0.00  0.00    +0.000 C 
BRANCH  16  17
ATOM     17  N   UNL     1      40.862  32.718  44.770  0.00  0.00    +0.000 N 
ATOM     18  H   UNL     1      41.914  32.640  44.882  0.00  0.00    +0.000 HD
BRANCH  17  19
ATOM     19  C   UNL     1      40.535  33.021  43.388  0.00  0.00    +0.000 C 
ATOM     20  H   UNL     1      41.366  33.550  42.880  0.00  0.00    +0.000 HD
ENDBRANCH  17  19
BRANCH  17  21
ATOM     21  C   UNL     1      40.375  33.785  45.593  0.00  0.00    +0.000 C 
ATOM     22  H   UNL     1      40.163  33.503  46.644  0.00  0.00    +0.000 HD
ENDBRANCH  17  21
ENDBRANCH  16  17
ENDBRANCH  15  16
ENDBRANCH   2  15
TORSDOF 8
