
 OpenBabel03272506423D

 30 31  0  0  1  0  0  0  0  0999 V2000
   32.2300   28.1570   47.5730 C   0  0  2  0  0  0  0  0  0  0  0  0
   33.5050   28.1400   48.3840 C   0  0  1  0  0  0  0  0  0  0  0  0
   34.0950   26.9120   48.2120 O   0  0  0  0  0  0  0  0  0  0  0  0
   33.4450   26.2280   47.2000 C   0  0  0  0  0  0  0  0  0  0  0  0
   32.6560   27.2670   46.4130 C   0  0  1  0  0  0  0  0  0  0  0  0
   31.4240   27.6950   48.1440 H   0  0  0  0  0  0  0  0  0  0  0  0
   33.3610   28.3520   49.4550 H   0  0  0  0  0  0  0  0  0  0  0  0
   34.2340   25.7510   46.5960 H   0  0  0  0  0  0  0  0  0  0  0  0
   32.7600   25.5100   47.7110 H   0  0  0  0  0  0  0  0  0  0  0  0
   33.3470   27.8100   45.7700 H   0  0  0  0  0  0  0  0  0  0  0  0
   31.9390   29.4490   47.1230 O   0  0  0  0  0  0  0  0  0  0  0  0
   32.4740   29.5680   46.2930 H   0  0  0  0  0  0  0  0  0  0  0  0
   34.6270   29.3850   47.6290 S   0  0  0  0  0  0  0  0  0  0  0  0
   37.2210   29.2800   50.6310 C   0  0  0  0  0  0  0  0  0  0  0  0
   37.6550   30.5960   50.7910 C   0  0  0  0  0  0  0  0  0  0  0  0
   37.1170   31.5680   49.9240 C   0  0  0  0  0  0  0  0  0  0  0  0
   36.2150   31.1700   48.9930 N   0  0  0  0  0  0  0  0  0  0  0  0
   35.8210   29.8850   48.8700 C   0  0  0  0  0  0  0  0  0  0  0  0
   36.3160   28.9220   49.6870 N   0  0  0  0  0  0  0  0  0  0  0  0
   37.5920   28.4790   51.2630 H   0  0  0  0  0  0  0  0  0  0  0  0
   38.3710   30.8550   51.5470 H   0  0  0  0  0  0  0  0  0  0  0  0
   37.4240   32.6030   50.0100 H   0  0  0  0  0  0  0  0  0  0  0  0
   31.6060   26.7080   45.7500 O   0  0  0  0  0  0  0  0  0  0  0  0
   31.2660   27.2020   44.5270 C   0  0  0  0  0  2  0  0  0  0  0  0
   29.7990   27.1580   44.4710 N   0  0  0  0  0  4  0  0  0  0  0  0
   29.4660   26.9610   43.5200 H   0  0  0  0  0  0  0  0  0  0  0  0
   29.3170   26.0510   45.3130 C   0  0  0  0  0  2  0  0  0  0  0  0
   29.6630   25.0710   44.9720 H   0  0  0  0  0  0  0  0  0  0  0  0
   29.2590   28.3710   45.0580 C   0  0  0  0  0  2  0  0  0  0  0  0
   28.1850   28.2290   45.2750 H   0  0  0  0  0  0  0  0  0  0  0  0
  1  6  1  1  0  0  0
  1  2  1  0  0  0  0
  2  7  1  1  0  0  0
  3  2  1  0  0  0  0
  4  9  1  0  0  0  0
  4  3  1  0  0  0  0
  5 10  1  6  0  0  0
  5  4  1  0  0  0  0
  5  1  1  0  0  0  0
  8  4  1  0  0  0  0
 11  1  1  0  0  0  0
 12 11  1  0  0  0  0
 13  2  1  0  0  0  0
 13 18  1  0  0  0  0
 14 15  1  0  0  0  0
 14 20  1  0  0  0  0
 15 21  1  0  0  0  0
 16 22  1  0  0  0  0
 16 15  2  0  0  0  0
 17 16  1  0  0  0  0
 18 17  2  0  0  0  0
 18 19  1  0  0  0  0
 19 14  2  0  0  0  0
 23  5  1  0  0  0  0
 24 23  1  0  0  0  0
 25 24  1  0  0  0  0
 25 29  1  0  0  0  0
 25 27  1  0  0  0  0
 26 25  1  0  0  0  0
 28 27  1  0  0  0  0
 29 30  1  0  0  0  0
M  END
>  <minimizedAffinity>
-3.59736729

>  <minimizedRMSD>
1.50267482

$$$$
