REMARK  Name = 
REMARK  9 active torsions:
REMARK  status: ('A' for Active; 'I' for Inactive)
REMARK    1  A    between atoms: C_1  and  C_2
REMARK    2  A    between atoms: C_1  and  O_8
REMARK    3  A    between atoms: O_8  and  P_10
REMARK    4  A    between atoms: P_10  and  O_11
REMARK    5  A    between atoms: P_10  and  O_12
REMARK    6  A    between atoms: O_12  and  C_19
REMARK    7  A    between atoms: C_19  and  N_20
REMARK    8  A    between atoms: N_20  and  C_21
REMARK    9  A    between atoms: N_20  and  C_23
REMARK                            x       y       z     vdW  Elec       q    Type
REMARK                         _______ _______ _______ _____ _____    ______ ____
ROOT
ATOM      1  O   UNL     1      36.333  31.590  49.615  0.00  0.00    +0.000 OA
ENDROOT
BRANCH   1   2
ATOM      2  C   UNL     1      36.075  30.290  50.023  0.00  0.00    +0.000 C 
ATOM      3  H   UNL     1      35.611  30.321  51.026  0.00  0.00    +0.000 HD
ATOM      4  H   UNL     1      36.988  29.665  50.095  0.00  0.00    +0.000 HD
BRANCH   2   5
ATOM      5  C   UNL     1      35.125  29.593  49.112  0.00  0.00    +0.000 A 
ATOM      6  C   UNL     1      34.678  30.291  47.987  0.00  0.00    +0.000 A 
ATOM      7  C   UNL     1      33.785  29.645  47.123  0.00  0.00    +0.000 A 
ATOM      8  N   UNL     1      33.405  28.372  47.435  0.00  0.00    +0.000 NA
ATOM      9  C   UNL     1      33.859  27.736  48.530  0.00  0.00    +0.000 A 
ATOM     10  N   UNL     1      34.715  28.336  49.370  0.00  0.00    +0.000 NA
ATOM     11  H   UNL     1      34.994  31.309  47.755  0.00  0.00    +0.000 HD
ATOM     12  H   UNL     1      33.443  30.183  46.260  0.00  0.00    +0.000 HD
ATOM     13  H   UNL     1      33.508  26.724  48.707  0.00  0.00    +0.000 HD
ENDBRANCH   2   5
ENDBRANCH   1   2
BRANCH   1  15
ATOM     14  O   UNL     1      38.395  31.171  48.050  0.00  0.00    +0.000 OA
ATOM     15  P   UNL     1      38.011  31.718  49.416  0.00  0.00    +0.000 P 
BRANCH  15  16
ATOM     16  O   UNL     1      38.809  30.749  50.558  0.00  0.00    +0.000 OA
ATOM     17  H   UNL     1      39.729  30.567  50.225  0.00  0.00    +0.000 HD
ENDBRANCH  15  16
BRANCH  15  18
ATOM     18  O   UNL     1      38.514  33.317  49.491  0.00  0.00    +0.000 OA
BRANCH  18  19
ATOM     19  C   UNL     1      39.398  33.590  50.502  0.00  0.00    +0.000 C 
BRANCH  19  20
ATOM     20  N   UNL     1      40.679  34.093  50.087  0.00  0.00    +0.000 N 
ATOM     21  H   UNL     1      40.655  35.144  50.213  0.00  0.00    +0.000 HD
BRANCH  20  22
ATOM     22  C   UNL     1      41.753  33.615  50.958  0.00  0.00    +0.000 C 
ATOM     23  H   UNL     1      41.886  32.532  50.871  0.00  0.00    +0.000 HD
ENDBRANCH  20  22
BRANCH  20  24
ATOM     24  C   UNL     1      41.041  33.798  48.736  0.00  0.00    +0.000 C 
ATOM     25  H   UNL     1      40.462  32.965  48.300  0.00  0.00    +0.000 HD
ENDBRANCH  20  24
ENDBRANCH  19  20
ENDBRANCH  18  19
ENDBRANCH  15  18
ENDBRANCH   1  15
TORSDOF 9
