
 OpenBabel03272506423D

 30 31  0  0  1  0  0  0  0  0999 V2000
   32.2000   28.1660   47.6100 C   0  0  2  0  0  0  0  0  0  0  0  0
   33.4860   28.1340   48.4040 C   0  0  1  0  0  0  0  0  0  0  0  0
   34.0410   26.8870   48.2520 O   0  0  0  0  0  0  0  0  0  0  0  0
   33.3580   26.1970   47.2650 C   0  0  0  0  0  0  0  0  0  0  0  0
   32.5860   27.2380   46.4660 C   0  0  1  0  0  0  0  0  0  0  0  0
   31.3910   27.7390   48.2040 H   0  0  0  0  0  0  0  0  0  0  0  0
   33.3640   28.3740   49.4710 H   0  0  0  0  0  0  0  0  0  0  0  0
   34.1260   25.6860   46.6620 H   0  0  0  0  0  0  0  0  0  0  0  0
   32.6620   25.5100   47.8030 H   0  0  0  0  0  0  0  0  0  0  0  0
   33.2810   27.7480   45.8000 H   0  0  0  0  0  0  0  0  0  0  0  0
   31.9370   29.4540   47.1340 O   0  0  0  0  0  0  0  0  0  0  0  0
   32.4620   29.5400   46.2940 H   0  0  0  0  0  0  0  0  0  0  0  0
   34.6290   29.3300   47.6030 S   0  0  0  0  0  0  0  0  0  0  0  0
   37.2100   29.3050   50.6190 C   0  0  0  0  0  0  0  0  0  0  0  0
   37.6680   30.6170   50.7240 C   0  0  0  0  0  0  0  0  0  0  0  0
   37.1510   31.5620   49.8150 C   0  0  0  0  0  0  0  0  0  0  0  0
   36.2450   31.1420   48.8970 N   0  0  0  0  0  0  0  0  0  0  0  0
   35.8280   29.8610   48.8280 C   0  0  0  0  0  0  0  0  0  0  0  0
   36.3020   28.9240   49.6860 N   0  0  0  0  0  0  0  0  0  0  0  0
   37.5640   28.5240   51.2850 H   0  0  0  0  0  0  0  0  0  0  0  0
   38.3870   30.8960   51.4710 H   0  0  0  0  0  0  0  0  0  0  0  0
   37.4770   32.5940   49.8580 H   0  0  0  0  0  0  0  0  0  0  0  0
   31.5110   26.6920   45.8310 O   0  0  0  0  0  0  0  0  0  0  0  0
   30.9160   25.5950   46.3780 C   0  0  0  0  0  2  0  0  0  0  0  0
   29.4770   25.8910   46.3990 N   0  0  0  0  0  4  0  0  0  0  0  0
   29.1610   26.1490   47.3410 H   0  0  0  0  0  0  0  0  0  0  0  0
   29.2110   27.0580   45.5420 C   0  0  0  0  0  2  0  0  0  0  0  0
   29.7110   27.9660   45.8870 H   0  0  0  0  0  0  0  0  0  0  0  0
   28.7500   24.7840   45.8030 C   0  0  0  0  0  2  0  0  0  0  0  0
   27.7220   25.1060   45.5590 H   0  0  0  0  0  0  0  0  0  0  0  0
  1  6  1  1  0  0  0
  1  2  1  0  0  0  0
  2  7  1  1  0  0  0
  3  2  1  0  0  0  0
  4  9  1  0  0  0  0
  4  3  1  0  0  0  0
  5 10  1  6  0  0  0
  5  4  1  0  0  0  0
  5  1  1  0  0  0  0
  8  4  1  0  0  0  0
 11  1  1  0  0  0  0
 12 11  1  0  0  0  0
 13  2  1  0  0  0  0
 13 18  1  0  0  0  0
 14 15  1  0  0  0  0
 14 20  1  0  0  0  0
 15 21  1  0  0  0  0
 16 22  1  0  0  0  0
 16 15  2  0  0  0  0
 17 16  1  0  0  0  0
 18 17  2  0  0  0  0
 18 19  1  0  0  0  0
 19 14  2  0  0  0  0
 23 24  1  0  0  0  0
 23  5  1  0  0  0  0
 24 25  1  0  0  0  0
 25 26  1  0  0  0  0
 27 28  1  0  0  0  0
 27 25  1  0  0  0  0
 29 25  1  0  0  0  0
 30 29  1  0  0  0  0
M  END
>  <minimizedAffinity>
-3.80788183

>  <minimizedRMSD>
1.42942405

$$$$
