
     RDKit          3D

 31 31  0  0  0  0  0  0  0  0999 V2000
   36.0745   30.2898   50.0230 C   0  0  0  0  0  0  0  0  0  0  0  0
   35.1250   29.5934   49.1121 C   0  0  0  0  0  0  0  0  0  0  0  0
   34.6783   30.2906   47.9867 C   0  0  0  0  0  0  0  0  0  0  0  0
   33.7846   29.6452   47.1228 C   0  0  0  0  0  0  0  0  0  0  0  0
   33.4047   28.3723   47.4348 N   0  0  0  0  0  0  0  0  0  0  0  0
   33.8589   27.7356   48.5302 C   0  0  0  0  0  0  0  0  0  0  0  0
   34.7149   28.3358   49.3697 N   0  0  0  0  0  0  0  0  0  0  0  0
   36.3329   31.5896   49.6151 O   0  0  0  0  0  0  0  0  0  0  0  0
   38.3945   31.1710   48.0505 O   0  0  0  0  0  0  0  0  0  0  0  0
   38.0113   31.7179   49.4165 P   0  0  2  0  0  0  0  0  0  0  0  0
   38.8091   30.7489   50.5582 O   0  0  0  0  0  0  0  0  0  0  0  0
   38.5143   33.3168   49.4914 O   0  0  0  0  0  0  0  0  0  0  0  0
   35.6113   30.3210   51.0260 H   0  0  0  0  0  0  0  0  0  0  0  0
   36.9881   29.6648   50.0953 H   0  0  0  0  0  0  0  0  0  0  0  0
   34.9944   31.3089   47.7548 H   0  0  0  0  0  0  0  0  0  0  0  0
   33.4433   30.1829   46.2595 H   0  0  0  0  0  0  0  0  0  0  0  0
   33.5084   26.7238   48.7073 H   0  0  0  0  0  0  0  0  0  0  0  0
   39.7286   30.5667   50.2254 H   0  0  0  0  0  0  0  0  0  0  0  0
   39.3981   33.5901   50.5025 C   0  0  0  0  0  0  0  0  0  0  0  0
   40.6787   34.0935   50.0875 N   0  0  0  0  0  4  0  0  0  0  0  0
   41.7531   33.6151   50.9581 C   0  0  0  0  0  0  0  0  0  0  0  0
   41.8862   32.5319   50.8711 H   0  0  0  0  0  0  0  0  0  0  0  0
   41.0407   33.7976   48.7361 C   0  0  0  0  0  0  0  0  0  0  0  0
   40.4619   32.9650   48.3001 H   0  0  0  0  0  0  0  0  0  0  0  0
   39.5877   32.6623   51.0859 H   0  0  0  0  0  0  0  0  0  0  0  0
   38.9115   34.3101   51.1926 H   0  0  0  0  0  0  0  0  0  0  0  0
   40.6549   35.1442   50.2128 H   0  0  0  0  0  0  0  0  0  0  0  0
   41.4651   33.9514   51.9737 H   0  0  0  0  0  0  0  0  0  0  0  0
   42.6720   34.1182   50.6042 H   0  0  0  0  0  0  0  0  0  0  0  0
   41.0053   34.7355   48.1108 H   0  0  0  0  0  0  0  0  0  0  0  0
   42.1098   33.4798   48.6658 H   0  0  0  0  0  0  0  0  0  0  0  0
  2  7  2  0
  2  1  1  0
  3  2  1  0
  4  5  1  0
  4  3  2  0
  5  6  2  0
  6  7  1  0
  8  1  1  0
  9 10  2  0
 10 12  1  6
 10  8  1  0
 10 11  1  0
  1 13  1  0
  1 14  1  0
  3 15  1  0
  4 16  1  0
  6 17  1  0
 11 18  1  0
 19 20  1  0
 20 21  1  0
 21 22  1  0
 20 23  1  0
 23 24  1  0
 19 25  1  0
 19 26  1  0
 20 27  1  0
 21 28  1  0
 21 29  1  0
 23 30  1  0
 23 31  1  0
 12 19  1  0
M  ISO  8  13   8  14   8  15  14  16  14  17  14  18   3  22   8  24   8
M  CHG  1  20   1
M  END
>  <DihAtoms>  (1) 
9,11,18,19

>  <DihDeg>  (1) 
-60.13880702583125

$$$$
