
 OpenBabel03272504193D

 25 25  0  0  0  0  0  0  0  0999 V2000
   35.7000   30.6500   50.1450 O   0  0  0  0  0  0  0  0  0  0  0  0
   35.0270   29.4420   50.2550 C   0  0  0  0  0  0  0  0  0  0  0  0
   34.3450   29.4970   51.1240 H   0  0  0  0  0  0  0  0  0  0  0  0
   35.7030   28.5780   50.4140 H   0  0  0  0  0  0  0  0  0  0  0  0
   34.1980   29.1480   49.0530 C   0  0  0  0  0  0  0  0  0  0  0  0
   34.4240   29.9180   47.9090 C   0  0  0  0  0  0  0  0  0  0  0  0
   33.6510   29.6490   46.7720 C   0  0  0  0  0  0  0  0  0  0  0  0
   32.7230   28.6520   46.8540 N   0  0  0  0  0  0  0  0  0  0  0  0
   32.5370   27.9350   47.9770 C   0  0  0  0  0  0  0  0  0  0  0  0
   33.2670   28.1760   49.0760 N   0  0  0  0  0  0  0  0  0  0  0  0
   35.1710   30.7110   47.8640 H   0  0  0  0  0  0  0  0  0  0  0  0
   33.8250   30.2410   45.8950 H   0  0  0  0  0  0  0  0  0  0  0  0
   31.7780   27.1590   47.9600 H   0  0  0  0  0  0  0  0  0  0  0  0
   37.7910   29.0880   49.8940 O   0  0  0  0  0  0  0  0  0  0  0  0
   37.3100   30.3560   50.5820 P   0  0  2  0  0  0  0  0  0  0  0  0
   37.4170   30.0620   52.2500 O   0  0  0  0  0  0  0  0  0  0  0  0
   38.2650   29.5720   52.4280 H   0  0  0  0  0  0  0  0  0  0  0  0
   38.3120   31.6140   50.1030 O   0  0  0  0  0  0  0  0  0  0  0  0
   37.6640   32.6610   49.5010 C   0  0  0  0  0  0  0  0  0  0  0  0
   38.4100   33.3490   48.4830 N   0  0  0  0  0  0  0  0  0  0  0  0
   37.7470   34.0310   48.0190 H   0  0  0  0  0  0  0  0  0  0  0  0
   39.4790   34.1670   49.0590 C   0  0  0  0  0  0  0  0  0  0  0  0
   40.2450   33.5450   49.5340 H   0  0  0  0  0  0  0  0  0  0  0  0
   38.9870   32.5100   47.4790 C   0  0  0  0  0  0  0  0  0  0  0  0
   39.0660   31.4530   47.7850 H   0  0  0  0  0  0  0  0  0  0  0  0
  1  2  1  0  0  0  0
  1 15  1  0  0  0  0
  2  4  1  0  0  0  0
  2  3  1  0  0  0  0
  5 10  1  0  0  0  0
  5  2  1  0  0  0  0
  6  5  2  0  0  0  0
  7  8  2  0  0  0  0
  7  6  1  0  0  0  0
  8  9  1  0  0  0  0
  9 10  2  0  0  0  0
 11  6  1  0  0  0  0
 12  7  1  0  0  0  0
 13  9  1  0  0  0  0
 15 14  2  6  0  0  0
 15 16  1  0  0  0  0
 16 17  1  0  0  0  0
 18 15  1  0  0  0  0
 19 18  1  0  0  0  0
 20 22  1  0  0  0  0
 20 19  1  0  0  0  0
 21 20  1  0  0  0  0
 22 23  1  0  0  0  0
 24 25  1  0  0  0  0
 24 20  1  0  0  0  0
M  END
>  <minimizedAffinity>
-4.26406813

>  <minimizedRMSD>
2.08155775

$$$$
