
 OpenBabel03272506433D

 30 31  0  0  1  0  0  0  0  0999 V2000
   32.2170   28.1600   47.6260 C   0  0  2  0  0  0  0  0  0  0  0  0
   33.5110   28.1380   48.4050 C   0  0  1  0  0  0  0  0  0  0  0  0
   34.0750   26.8960   48.2470 O   0  0  0  0  0  0  0  0  0  0  0  0
   33.3870   26.2010   47.2670 C   0  0  0  0  0  0  0  0  0  0  0  0
   32.5970   27.2360   46.4770 C   0  0  1  0  0  0  0  0  0  0  0  0
   31.4170   27.7270   48.2280 H   0  0  0  0  0  0  0  0  0  0  0  0
   33.3990   28.3770   49.4740 H   0  0  0  0  0  0  0  0  0  0  0  0
   34.1520   25.6970   46.6560 H   0  0  0  0  0  0  0  0  0  0  0  0
   32.7030   25.5080   47.8120 H   0  0  0  0  0  0  0  0  0  0  0  0
   33.2810   27.7520   45.8040 H   0  0  0  0  0  0  0  0  0  0  0  0
   31.9370   29.4460   47.1530 O   0  0  0  0  0  0  0  0  0  0  0  0
   32.4530   29.5370   46.3080 H   0  0  0  0  0  0  0  0  0  0  0  0
   34.6350   29.3450   47.5930 S   0  0  0  0  0  0  0  0  0  0  0  0
   37.2520   29.3100   50.5770 C   0  0  0  0  0  0  0  0  0  0  0  0
   37.7270   30.6180   50.6680 C   0  0  0  0  0  0  0  0  0  0  0  0
   37.2110   31.5620   49.7580 C   0  0  0  0  0  0  0  0  0  0  0  0
   36.2890   31.1460   48.8540 N   0  0  0  0  0  0  0  0  0  0  0  0
   35.8560   29.8700   48.7990 C   0  0  0  0  0  0  0  0  0  0  0  0
   36.3290   28.9330   49.6590 N   0  0  0  0  0  0  0  0  0  0  0  0
   37.6050   28.5300   51.2460 H   0  0  0  0  0  0  0  0  0  0  0  0
   38.4580   30.8930   51.4040 H   0  0  0  0  0  0  0  0  0  0  0  0
   37.5490   32.5900   49.7900 H   0  0  0  0  0  0  0  0  0  0  0  0
   31.5200   26.6820   45.8540 O   0  0  0  0  0  0  0  0  0  0  0  0
   31.0900   27.2270   44.6830 C   0  0  0  0  0  2  0  0  0  0  0  0
   29.6270   27.0810   44.6890 N   0  0  0  0  0  4  0  0  0  0  0  0
   29.3410   26.1880   45.1030 H   0  0  0  0  0  0  0  0  0  0  0  0
   29.0410   28.1340   45.5340 C   0  0  0  0  0  2  0  0  0  0  0  0
   29.3550   28.0690   46.5790 H   0  0  0  0  0  0  0  0  0  0  0  0
   29.1170   27.3160   43.3490 C   0  0  0  0  0  2  0  0  0  0  0  0
   28.0250   27.4860   43.3950 H   0  0  0  0  0  0  0  0  0  0  0  0
  1  6  1  1  0  0  0
  1  2  1  0  0  0  0
  2  7  1  1  0  0  0
  3  2  1  0  0  0  0
  4  9  1  0  0  0  0
  4  3  1  0  0  0  0
  5 10  1  6  0  0  0
  5  4  1  0  0  0  0
  5  1  1  0  0  0  0
  8  4  1  0  0  0  0
 11  1  1  0  0  0  0
 12 11  1  0  0  0  0
 13  2  1  0  0  0  0
 13 18  1  0  0  0  0
 14 15  1  0  0  0  0
 14 20  1  0  0  0  0
 15 21  1  0  0  0  0
 16 22  1  0  0  0  0
 16 15  2  0  0  0  0
 17 16  1  0  0  0  0
 18 17  2  0  0  0  0
 18 19  1  0  0  0  0
 19 14  2  0  0  0  0
 23  5  1  0  0  0  0
 24 25  1  0  0  0  0
 24 23  1  0  0  0  0
 25 26  1  0  0  0  0
 25 27  1  0  0  0  0
 27 28  1  0  0  0  0
 29 30  1  0  0  0  0
 29 25  1  0  0  0  0
M  END
>  <minimizedAffinity>
-3.59291697

>  <minimizedRMSD>
0.751545846

$$$$
