
 OpenBabel03272506433D

 30 31  0  0  1  0  0  0  0  0999 V2000
   32.3780   28.3630   47.5260 C   0  0  2  0  0  0  0  0  0  0  0  0
   33.6220   28.4260   48.3820 C   0  0  1  0  0  0  0  0  0  0  0  0
   34.1860   27.1750   48.3950 O   0  0  0  0  0  0  0  0  0  0  0  0
   33.5550   26.3770   47.4550 C   0  0  0  0  0  0  0  0  0  0  0  0
   32.8220   27.3190   46.5100 C   0  0  1  0  0  0  0  0  0  0  0  0
   31.5400   27.9970   48.1210 H   0  0  0  0  0  0  0  0  0  0  0  0
   33.4450   28.7800   49.4090 H   0  0  0  0  0  0  0  0  0  0  0  0
   34.3530   25.8090   46.9510 H   0  0  0  0  0  0  0  0  0  0  0  0
   32.8340   25.7470   48.0290 H   0  0  0  0  0  0  0  0  0  0  0  0
   33.5500   27.7590   45.8280 H   0  0  0  0  0  0  0  0  0  0  0  0
   32.1360   29.5900   46.9000 O   0  0  0  0  0  0  0  0  0  0  0  0
   32.7030   29.5890   46.0830 H   0  0  0  0  0  0  0  0  0  0  0  0
   34.8010   29.5380   47.5150 S   0  0  0  0  0  0  0  0  0  0  0  0
   37.3910   29.4840   50.5230 C   0  0  0  0  0  0  0  0  0  0  0  0
   37.9970   30.7400   50.5110 C   0  0  0  0  0  0  0  0  0  0  0  0
   37.5840   31.6530   49.5200 C   0  0  0  0  0  0  0  0  0  0  0  0
   36.6270   31.2590   48.6420 N   0  0  0  0  0  0  0  0  0  0  0  0
   36.0650   30.0340   48.6880 C   0  0  0  0  0  0  0  0  0  0  0  0
   36.4370   29.1280   49.6270 N   0  0  0  0  0  0  0  0  0  0  0  0
   37.6590   28.7310   51.2570 H   0  0  0  0  0  0  0  0  0  0  0  0
   38.7510   30.9990   51.2300 H   0  0  0  0  0  0  0  0  0  0  0  0
   38.0270   32.6390   49.4700 H   0  0  0  0  0  0  0  0  0  0  0  0
   31.7820   26.7000   45.8850 O   0  0  0  0  0  0  0  0  0  0  0  0
   31.8210   26.5630   44.5310 C   0  0  0  0  0  2  0  0  0  0  0  0
   32.1550   25.1540   44.2800 N   0  0  0  0  0  4  0  0  0  0  0  0
   33.0790   24.9160   44.6570 H   0  0  0  0  0  0  0  0  0  0  0  0
   31.1890   24.2970   44.9870 C   0  0  0  0  0  2  0  0  0  0  0  0
   31.2150   24.4260   46.0730 H   0  0  0  0  0  0  0  0  0  0  0  0
   31.9860   24.8650   42.8680 C   0  0  0  0  0  2  0  0  0  0  0  0
   31.9580   23.7700   42.7160 H   0  0  0  0  0  0  0  0  0  0  0  0
  1  6  1  1  0  0  0
  1  2  1  0  0  0  0
  2  3  1  0  0  0  0
  2  7  1  1  0  0  0
  4  9  1  0  0  0  0
  4  3  1  0  0  0  0
  5 10  1  6  0  0  0
  5  4  1  0  0  0  0
  5  1  1  0  0  0  0
  8  4  1  0  0  0  0
 11  1  1  0  0  0  0
 12 11  1  0  0  0  0
 13  2  1  0  0  0  0
 13 18  1  0  0  0  0
 14 20  1  0  0  0  0
 15 14  1  0  0  0  0
 15 21  1  0  0  0  0
 16 15  2  0  0  0  0
 17 18  2  0  0  0  0
 17 16  1  0  0  0  0
 18 19  1  0  0  0  0
 19 14  2  0  0  0  0
 22 16  1  0  0  0  0
 23  5  1  0  0  0  0
 24 23  1  0  0  0  0
 25 24  1  0  0  0  0
 25 26  1  0  0  0  0
 25 27  1  0  0  0  0
 27 28  1  0  0  0  0
 29 25  1  0  0  0  0
 30 29  1  0  0  0  0
M  END
>  <minimizedAffinity>
-3.53410697

>  <minimizedRMSD>
0.278722346

$$$$
