REMARK  Name = 
REMARK  8 active torsions:
REMARK  status: ('A' for Active; 'I' for Inactive)
REMARK    1  A    between atoms: C_2  and  O_7
REMARK    2  A    between atoms: O_7  and  P_9
REMARK    3  A    between atoms: P_9  and  O_10
REMARK    4  A    between atoms: P_9  and  O_11
REMARK    5  A    between atoms: O_11  and  C_16
REMARK    6  A    between atoms: C_16  and  N_17
REMARK    7  A    between atoms: N_17  and  C_18
REMARK    8  A    between atoms: N_17  and  C_20
REMARK                            x       y       z     vdW  Elec       q    Type
REMARK                         _______ _______ _______ _____ _____    ______ ____
ROOT
ATOM      1  O   UNL     1      37.302  33.702  49.515  0.00  0.00    +0.000 OA
ATOM      2  P   UNL     1      38.699  33.133  49.227  0.00  0.00    +0.000 P 
ENDROOT
BRANCH   2   3
ATOM      3  O   UNL     1      39.805  34.063  50.122  0.00  0.00    +0.000 OA
ATOM      4  H   UNL     1      39.399  34.901  50.461  0.00  0.00    +0.000 HD
ENDBRANCH   2   3
BRANCH   2   5
ATOM      5  O   UNL     1      38.727  31.573  49.872  0.00  0.00    +0.000 OA
BRANCH   5   7
ATOM      6  C   UNL     1      37.200  30.300  51.206  0.00  0.00    +0.000 A 
ATOM      7  C   UNL     1      37.709  30.670  49.943  0.00  0.00    +0.000 A 
ATOM      8  C   UNL     1      37.120  30.071  48.831  0.00  0.00    +0.000 A 
ATOM      9  N   UNL     1      36.103  29.176  48.998  0.00  0.00    +0.000 NA
ATOM     10  C   UNL     1      35.655  28.858  50.231  0.00  0.00    +0.000 A 
ATOM     11  N   UNL     1      36.207  29.424  51.340  0.00  0.00    +0.000 NA
ATOM     12  H   UNL     1      37.587  30.706  52.132  0.00  0.00    +0.000 HD
ATOM     13  H   UNL     1      37.485  30.330  47.845  0.00  0.00    +0.000 HD
ATOM     14  H   UNL     1      34.850  28.150  50.378  0.00  0.00    +0.000 HD
ENDBRANCH   5   7
ENDBRANCH   2   5
BRANCH   2  15
ATOM     15  O   UNL     1      38.937  33.222  47.592  0.00  0.00    +0.000 OA
BRANCH  15  16
ATOM     16  C   UNL     1      40.092  33.937  47.279  0.00  0.00    +0.000 C 
BRANCH  16  17
ATOM     17  N   UNL     1      40.037  34.626  46.025  0.00  0.00    +0.000 N 
ATOM     18  H   UNL     1      39.355  34.191  45.390  0.00  0.00    +0.000 HD
BRANCH  17  19
ATOM     19  C   UNL     1      39.669  36.020  46.242  0.00  0.00    +0.000 C 
ATOM     20  H   UNL     1      39.615  36.511  45.243  0.00  0.00    +0.000 HD
ENDBRANCH  17  19
BRANCH  17  21
ATOM     21  C   UNL     1      41.395  34.679  45.459  0.00  0.00    +0.000 C 
ATOM     22  H   UNL     1      41.890  33.699  45.582  0.00  0.00    +0.000 HD
ENDBRANCH  17  21
ENDBRANCH  16  17
ENDBRANCH  15  16
ENDBRANCH   2  15
TORSDOF 8
