REMARK  Name = 
REMARK  8 active torsions:
REMARK  status: ('A' for Active; 'I' for Inactive)
REMARK    1  A    between atoms: S_1  and  C_6
REMARK    2  A    between atoms: S_1  and  C_9
REMARK    3  A    between atoms: C_8  and  O_13
REMARK    4  A    between atoms: C_12  and  O_14
REMARK    5  A    between atoms: O_14  and  C_24
REMARK    6  A    between atoms: C_24  and  N_25
REMARK    7  A    between atoms: N_25  and  C_26
REMARK    8  A    between atoms: N_25  and  C_28
REMARK                            x       y       z     vdW  Elec       q    Type
REMARK                         _______ _______ _______ _____ _____    ______ ____
ROOT
ATOM      1  C   UNL     1      32.384  28.357  47.491  0.00  0.00    +0.000 C 
ATOM      2  C   UNL     1      33.625  28.412  48.352  0.00  0.00    +0.000 C 
ATOM      3  O   UNL     1      34.189  27.160  48.355  0.00  0.00    +0.000 OA
ATOM      4  C   UNL     1      33.561  26.371  47.406  0.00  0.00    +0.000 C 
ATOM      5  C   UNL     1      32.832  27.323  46.467  0.00  0.00    +0.000 C 
ATOM      6  H   UNL     1      31.544  27.986  48.080  0.00  0.00    +0.000 HD
ATOM      7  H   UNL     1      33.445  28.756  49.382  0.00  0.00    +0.000 HD
ATOM      8  H   UNL     1      34.361  25.808  46.899  0.00  0.00    +0.000 HD
ATOM      9  H   UNL     1      32.838  25.736  47.971  0.00  0.00    +0.000 HD
ATOM     10  H   UNL     1      33.562  27.769  45.792  0.00  0.00    +0.000 HD
ENDROOT
BRANCH   1  11
ATOM     11  O   UNL     1      32.145  29.590  46.876  0.00  0.00    +0.000 OA
ATOM     12  H   UNL     1      32.715  29.596  46.061  0.00  0.00    +0.000 HD
ENDBRANCH   1  11
BRANCH   2  13
ATOM     13  S   UNL     1      34.808  29.531  47.499  0.00  0.00    +0.000 S 
BRANCH  13  18
ATOM     14  C   UNL     1      37.373  29.475  50.528  0.00  0.00    +0.000 A 
ATOM     15  C   UNL     1      37.974  30.733  50.527  0.00  0.00    +0.000 A 
ATOM     16  C   UNL     1      37.565  31.649  49.537  0.00  0.00    +0.000 A 
ATOM     17  N   UNL     1      36.617  31.255  48.650  0.00  0.00    +0.000 NA
ATOM     18  C   UNL     1      36.060  30.027  48.685  0.00  0.00    +0.000 A 
ATOM     19  N   UNL     1      36.428  29.119  49.623  0.00  0.00    +0.000 NA
ATOM     20  H   UNL     1      37.639  28.719  51.261  0.00  0.00    +0.000 HD
ATOM     21  H   UNL     1      38.720  30.992  51.254  0.00  0.00    +0.000 HD
ATOM     22  H   UNL     1      38.003  32.638  49.496  0.00  0.00    +0.000 HD
ENDBRANCH  13  18
ENDBRANCH   2  13
BRANCH   5  23
ATOM     23  O   UNL     1      31.794  26.710  45.833  0.00  0.00    +0.000 OA
BRANCH  23  24
ATOM     24  C   UNL     1      31.766  26.712  44.471  0.00  0.00    +0.000 C 
BRANCH  24  25
ATOM     25  N   UNL     1      31.031  27.925  44.087  0.00  0.00    +0.000 N 
ATOM     26  H   UNL     1      30.016  27.784  44.151  0.00  0.00    +0.000 HD
BRANCH  25  27
ATOM     27  C   UNL     1      31.357  29.005  45.032  0.00  0.00    +0.000 C 
ATOM     28  H   UNL     1      31.056  28.781  46.060  0.00  0.00    +0.000 HD
ENDBRANCH  25  27
BRANCH  25  29
ATOM     29  C   UNL     1      31.497  28.377  42.788  0.00  0.00    +0.000 C 
ATOM     30  H   UNL     1      31.166  29.418  42.620  0.00  0.00    +0.000 HD
ENDBRANCH  25  29
ENDBRANCH  24  25
ENDBRANCH  23  24
ENDBRANCH   5  23
TORSDOF 8
