
 OpenBabel03272506423D

 30 31  0  0  1  0  0  0  0  0999 V2000
   32.1980   28.1650   47.5880 C   0  0  2  0  0  0  0  0  0  0  0  0
   33.4780   28.1320   48.3920 C   0  0  1  0  0  0  0  0  0  0  0  0
   34.0400   26.8900   48.2340 O   0  0  0  0  0  0  0  0  0  0  0  0
   33.3690   26.2050   47.2350 C   0  0  0  0  0  0  0  0  0  0  0  0
   32.5980   27.2500   46.4390 C   0  0  1  0  0  0  0  0  0  0  0  0
   31.3860   27.7290   48.1720 H   0  0  0  0  0  0  0  0  0  0  0  0
   33.3450   28.3620   49.4610 H   0  0  0  0  0  0  0  0  0  0  0  0
   34.1440   25.7040   46.6340 H   0  0  0  0  0  0  0  0  0  0  0  0
   32.6720   25.5100   47.7610 H   0  0  0  0  0  0  0  0  0  0  0  0
   33.2960   27.7690   45.7840 H   0  0  0  0  0  0  0  0  0  0  0  0
   31.9320   29.4560   47.1220 O   0  0  0  0  0  0  0  0  0  0  0  0
   32.4640   29.5530   46.2870 H   0  0  0  0  0  0  0  0  0  0  0  0
   34.6210   29.3420   47.6120 S   0  0  0  0  0  0  0  0  0  0  0  0
   37.1990   29.2890   50.6300 C   0  0  0  0  0  0  0  0  0  0  0  0
   37.6360   30.6060   50.7670 C   0  0  0  0  0  0  0  0  0  0  0  0
   37.1050   31.5630   49.8790 C   0  0  0  0  0  0  0  0  0  0  0  0
   36.2060   31.1490   48.9500 N   0  0  0  0  0  0  0  0  0  0  0  0
   35.8100   29.8630   48.8500 C   0  0  0  0  0  0  0  0  0  0  0  0
   36.2990   28.9140   49.6870 N   0  0  0  0  0  0  0  0  0  0  0  0
   37.5660   28.4990   51.2780 H   0  0  0  0  0  0  0  0  0  0  0  0
   38.3490   30.8780   51.5210 H   0  0  0  0  0  0  0  0  0  0  0  0
   37.4130   32.5980   49.9460 H   0  0  0  0  0  0  0  0  0  0  0  0
   31.5320   26.7040   45.7910 O   0  0  0  0  0  0  0  0  0  0  0  0
   30.8870   25.6500   46.3630 C   0  0  0  0  0  2  0  0  0  0  0  0
   29.4560   25.9800   46.3130 N   0  0  0  0  0  4  0  0  0  0  0  0
   29.1260   26.3550   47.2090 H   0  0  0  0  0  0  0  0  0  0  0  0
   29.2410   27.0430   45.3190 C   0  0  0  0  0  2  0  0  0  0  0  0
   29.7590   27.9750   45.5680 H   0  0  0  0  0  0  0  0  0  0  0  0
   28.7150   24.8280   45.8320 C   0  0  0  0  0  2  0  0  0  0  0  0
   27.7010   25.1430   45.5260 H   0  0  0  0  0  0  0  0  0  0  0  0
  1  6  1  1  0  0  0
  1  2  1  0  0  0  0
  2  7  1  1  0  0  0
  3  2  1  0  0  0  0
  4  9  1  0  0  0  0
  4  3  1  0  0  0  0
  5 10  1  6  0  0  0
  5  4  1  0  0  0  0
  5  1  1  0  0  0  0
  8  4  1  0  0  0  0
 11  1  1  0  0  0  0
 12 11  1  0  0  0  0
 13  2  1  0  0  0  0
 13 18  1  0  0  0  0
 14 15  1  0  0  0  0
 14 20  1  0  0  0  0
 15 21  1  0  0  0  0
 16 22  1  0  0  0  0
 16 15  2  0  0  0  0
 17 16  1  0  0  0  0
 18 17  2  0  0  0  0
 18 19  1  0  0  0  0
 19 14  2  0  0  0  0
 23 24  1  0  0  0  0
 23  5  1  0  0  0  0
 25 24  1  0  0  0  0
 25 26  1  0  0  0  0
 27 28  1  0  0  0  0
 27 25  1  0  0  0  0
 29 25  1  0  0  0  0
 30 29  1  0  0  0  0
M  END
>  <minimizedAffinity>
-3.8043654

>  <minimizedRMSD>
1.64868355

$$$$
