
 OpenBabel03272507323D

 34 36  0  0  1  0  0  0  0  0999 V2000
   35.8160   29.1400   49.8040 C   0  0  0  0  0  0  0  0  0  0  0  0
   34.8080   29.6560   50.5880 C   0  0  0  0  0  0  0  0  0  0  0  0
   33.5980   29.1290   50.1130 C   0  0  0  0  0  0  0  0  0  0  0  0
   33.9510   28.3170   49.0600 C   0  0  0  0  0  0  0  0  0  0  0  0
   35.2580   28.3560   48.9160 O   0  0  0  0  0  0  0  0  0  0  0  0
   34.8400   30.3350   51.4210 H   0  0  0  0  0  0  0  0  0  0  0  0
   32.6040   29.3090   50.4780 H   0  0  0  0  0  0  0  0  0  0  0  0
   37.2120   29.4770   50.0190 C   0  0  0  0  0  0  0  0  0  0  0  0
   37.8610   28.8610   50.8770 O   0  0  0  0  0  0  0  0  0  0  0  0
   37.7640   30.5240   49.2040 C   0  0  0  0  0  0  0  0  0  0  0  0
   38.1100   31.7040   49.8440 C   0  0  0  0  0  0  0  0  0  0  0  0
   38.6470   32.7440   49.0780 C   0  0  0  0  0  0  0  0  0  0  0  0
   38.8030   32.5400   47.7270 N   0  0  0  0  0  0  0  0  0  0  0  0
   38.4570   31.3870   47.1450 C   0  0  0  0  0  0  0  0  0  0  0  0
   37.9420   30.3850   47.8710 N   0  0  0  0  0  0  0  0  0  0  0  0
   38.0020   31.8970   50.9000 H   0  0  0  0  0  0  0  0  0  0  0  0
   38.9330   33.6720   49.5100 H   0  0  0  0  0  0  0  0  0  0  0  0
   38.5820   31.2320   46.0780 H   0  0  0  0  0  0  0  0  0  0  0  0
   33.0320   27.5330   48.2330 C   0  0  0  0  0  0  0  0  0  0  0  0
   31.8090   27.4680   48.5900 O   0  0  0  0  0  0  0  0  0  0  0  0
   33.5280   26.8230   47.0070 C   0  0  1  0  0  0  0  0  0  0  0  0
   33.7840   25.3030   47.3350 C   0  0  0  0  0  0  0  0  0  0  0  0
   32.7350   25.7590   46.3890 C   0  0  2  0  0  0  0  0  0  0  0  0
   34.4910   27.2380   46.6370 H   0  0  0  0  0  0  0  0  0  0  0  0
   34.7190   24.8610   46.9920 H   0  0  0  0  0  0  0  0  0  0  0  0
   33.4410   24.9340   48.3010 H   0  0  0  0  0  0  0  0  0  0  0  0
   31.6770   25.7000   46.7030 H   0  0  0  0  0  0  0  0  0  0  0  0
   32.9570   25.4000   44.9420 C   0  0  0  0  0  2  0  0  0  0  0  0
   33.4620   24.0670   44.7410 N   0  0  0  0  0  4  0  0  0  0  0  0
   34.1170   23.7600   45.4950 H   0  0  0  0  0  0  0  0  0  0  0  0
   34.1980   24.0730   43.4790 C   0  0  0  0  0  2  0  0  0  0  0  0
   33.8100   23.3400   42.7460 H   0  0  0  0  0  0  0  0  0  0  0  0
   32.3540   23.1180   44.5500 C   0  0  0  0  0  2  0  0  0  0  0  0
   31.4420   23.6980   44.2850 H   0  0  0  0  0  0  0  0  0  0  0  0
  1  8  1  0  0  0  0
  1  2  2  0  0  0  0
  2  6  1  0  0  0  0
  3  7  1  0  0  0  0
  3  2  1  0  0  0  0
  4  3  2  0  0  0  0
  5  4  1  0  0  0  0
  5  1  1  0  0  0  0
  8  9  2  0  0  0  0
 10 11  1  0  0  0  0
 10  8  1  0  0  0  0
 11 16  1  0  0  0  0
 12 17  1  0  0  0  0
 12 11  2  0  0  0  0
 13 12  1  0  0  0  0
 14 13  2  0  0  0  0
 14 15  1  0  0  0  0
 15 10  2  0  0  0  0
 18 14  1  0  0  0  0
 19 20  2  0  0  0  0
 19  4  1  0  0  0  0
 21 24  1  6  0  0  0
 21 22  1  0  0  0  0
 21 19  1  0  0  0  0
 22 26  1  0  0  0  0
 23 27  1  1  0  0  0
 23 21  1  0  0  0  0
 23 22  1  0  0  0  0
 25 22  1  0  0  0  0
 28 23  1  0  0  0  0
 29 28  1  0  0  0  0
 29 30  1  0  0  0  0
 31 29  1  0  0  0  0
 32 31  1  0  0  0  0
 33 29  1  0  0  0  0
 34 33  1  0  0  0  0
M  END
>  <minimizedAffinity>
-4.60017681

>  <minimizedRMSD>
0.0720014423

$$$$
