
 OpenBabel03272507323D

 34 36  0  0  1  0  0  0  0  0999 V2000
   35.8600   29.1500   49.8120 C   0  0  0  0  0  0  0  0  0  0  0  0
   34.8160   29.6410   50.5650 C   0  0  0  0  0  0  0  0  0  0  0  0
   33.6360   29.0730   50.0650 C   0  0  0  0  0  0  0  0  0  0  0  0
   34.0410   28.2640   49.0290 C   0  0  0  0  0  0  0  0  0  0  0  0
   35.3490   28.3420   48.9170 O   0  0  0  0  0  0  0  0  0  0  0  0
   34.8070   30.3260   51.3940 H   0  0  0  0  0  0  0  0  0  0  0  0
   32.6280   29.2240   50.4040 H   0  0  0  0  0  0  0  0  0  0  0  0
   37.2390   29.5320   50.0580 C   0  0  0  0  0  0  0  0  0  0  0  0
   37.8760   28.9600   50.9550 O   0  0  0  0  0  0  0  0  0  0  0  0
   37.7880   30.5690   49.2290 C   0  0  0  0  0  0  0  0  0  0  0  0
   38.1240   31.7610   49.8500 C   0  0  0  0  0  0  0  0  0  0  0  0
   38.6570   32.7910   49.0690 C   0  0  0  0  0  0  0  0  0  0  0  0
   38.8210   32.5650   47.7230 N   0  0  0  0  0  0  0  0  0  0  0  0
   38.4860   31.4010   47.1590 C   0  0  0  0  0  0  0  0  0  0  0  0
   37.9730   30.4080   47.8990 N   0  0  0  0  0  0  0  0  0  0  0  0
   38.0090   31.9720   50.9030 H   0  0  0  0  0  0  0  0  0  0  0  0
   38.9350   33.7290   49.4870 H   0  0  0  0  0  0  0  0  0  0  0  0
   38.6170   31.2280   46.0950 H   0  0  0  0  0  0  0  0  0  0  0  0
   33.1670   27.4450   48.1860 C   0  0  0  0  0  0  0  0  0  0  0  0
   31.9300   27.3760   48.4910 O   0  0  0  0  0  0  0  0  0  0  0  0
   33.7240   26.7070   47.0030 C   0  0  1  0  0  0  0  0  0  0  0  0
   33.7960   25.1650   47.3200 C   0  0  0  0  0  0  0  0  0  0  0  0
   32.9050   25.7340   46.2780 C   0  0  2  0  0  0  0  0  0  0  0  0
   34.7570   27.0310   46.7490 H   0  0  0  0  0  0  0  0  0  0  0  0
   34.7160   24.6380   47.0690 H   0  0  0  0  0  0  0  0  0  0  0  0
   33.3160   24.8170   48.2340 H   0  0  0  0  0  0  0  0  0  0  0  0
   31.8180   25.7750   46.4750 H   0  0  0  0  0  0  0  0  0  0  0  0
   33.2490   25.3740   44.8550 C   0  0  0  0  0  2  0  0  0  0  0  0
   34.4490   26.0050   44.3670 N   0  0  0  0  0  4  0  0  0  0  0  0
   34.8940   26.6370   45.0690 H   0  0  0  0  0  0  0  0  0  0  0  0
   34.0690   26.8110   43.2100 C   0  0  0  0  0  2  0  0  0  0  0  0
   34.6140   26.5320   42.2880 H   0  0  0  0  0  0  0  0  0  0  0  0
   35.3890   24.9950   43.8570 C   0  0  0  0  0  2  0  0  0  0  0  0
   34.8250   24.0540   43.6740 H   0  0  0  0  0  0  0  0  0  0  0  0
  1  8  1  0  0  0  0
  1  2  2  0  0  0  0
  2  6  1  0  0  0  0
  3  7  1  0  0  0  0
  3  2  1  0  0  0  0
  4  3  2  0  0  0  0
  5  4  1  0  0  0  0
  5  1  1  0  0  0  0
  8  9  2  0  0  0  0
 10 11  1  0  0  0  0
 10  8  1  0  0  0  0
 11 16  1  0  0  0  0
 12 17  1  0  0  0  0
 12 11  2  0  0  0  0
 13 12  1  0  0  0  0
 14 13  2  0  0  0  0
 14 15  1  0  0  0  0
 15 10  2  0  0  0  0
 18 14  1  0  0  0  0
 19 20  2  0  0  0  0
 19  4  1  0  0  0  0
 21 24  1  6  0  0  0
 21 22  1  0  0  0  0
 21 19  1  0  0  0  0
 22 26  1  0  0  0  0
 23 27  1  1  0  0  0
 23 21  1  0  0  0  0
 23 22  1  0  0  0  0
 25 22  1  0  0  0  0
 28 23  1  0  0  0  0
 29 28  1  0  0  0  0
 29 30  1  0  0  0  0
 31 29  1  0  0  0  0
 32 31  1  0  0  0  0
 33 29  1  0  0  0  0
 34 33  1  0  0  0  0
M  END
>  <minimizedAffinity>
-4.68535328

>  <minimizedRMSD>
0.520695686

$$$$
