
 OpenBabel03272507333D

 34 36  0  0  1  0  0  0  0  0999 V2000
   35.8970   29.1900   49.8260 C   0  0  0  0  0  0  0  0  0  0  0  0
   34.9260   29.6670   50.6780 C   0  0  0  0  0  0  0  0  0  0  0  0
   33.6950   29.1650   50.2320 C   0  0  0  0  0  0  0  0  0  0  0  0
   33.9990   28.4050   49.1260 C   0  0  0  0  0  0  0  0  0  0  0  0
   35.2980   28.4500   48.9260 O   0  0  0  0  0  0  0  0  0  0  0  0
   34.9970   30.3030   51.5420 H   0  0  0  0  0  0  0  0  0  0  0  0
   32.7190   29.3260   50.6490 H   0  0  0  0  0  0  0  0  0  0  0  0
   37.3020   29.5150   49.9940 C   0  0  0  0  0  0  0  0  0  0  0  0
   37.9770   28.8840   50.8220 O   0  0  0  0  0  0  0  0  0  0  0  0
   37.8320   30.5690   49.1740 C   0  0  0  0  0  0  0  0  0  0  0  0
   38.1710   31.7520   49.8100 C   0  0  0  0  0  0  0  0  0  0  0  0
   38.6860   32.7990   49.0370 C   0  0  0  0  0  0  0  0  0  0  0  0
   38.8290   32.5970   47.6850 N   0  0  0  0  0  0  0  0  0  0  0  0
   38.4910   31.4400   47.1070 C   0  0  0  0  0  0  0  0  0  0  0  0
   37.9960   30.4320   47.8380 N   0  0  0  0  0  0  0  0  0  0  0  0
   38.0720   31.9450   50.8670 H   0  0  0  0  0  0  0  0  0  0  0  0
   38.9660   33.7310   49.4670 H   0  0  0  0  0  0  0  0  0  0  0  0
   38.6050   31.2860   46.0380 H   0  0  0  0  0  0  0  0  0  0  0  0
   33.0420   27.6630   48.3030 C   0  0  0  0  0  0  0  0  0  0  0  0
   31.8270   27.6140   48.6910 O   0  0  0  0  0  0  0  0  0  0  0  0
   33.4900   26.9780   47.0450 C   0  0  1  0  0  0  0  0  0  0  0  0
   33.7780   25.4560   47.3380 C   0  0  0  0  0  0  0  0  0  0  0  0
   32.6820   25.9140   46.4470 C   0  0  2  0  0  0  0  0  0  0  0  0
   34.4310   27.4100   46.6390 H   0  0  0  0  0  0  0  0  0  0  0  0
   34.7010   25.0310   46.9470 H   0  0  0  0  0  0  0  0  0  0  0  0
   33.4830   25.0680   48.3130 H   0  0  0  0  0  0  0  0  0  0  0  0
   31.6400   25.8370   46.8070 H   0  0  0  0  0  0  0  0  0  0  0  0
   32.8430   25.5780   44.9860 C   0  0  0  0  0  2  0  0  0  0  0  0
   31.5980   25.5000   44.2650 N   0  0  0  0  0  4  0  0  0  0  0  0
   30.9910   24.7090   44.5810 H   0  0  0  0  0  0  0  0  0  0  0  0
   31.9300   25.2810   42.8600 C   0  0  0  0  0  2  0  0  0  0  0  0
   31.5220   26.0620   42.1890 H   0  0  0  0  0  0  0  0  0  0  0  0
   30.8930   26.7890   44.3110 C   0  0  0  0  0  2  0  0  0  0  0  0
   31.6240   27.5770   44.5990 H   0  0  0  0  0  0  0  0  0  0  0  0
  1  8  1  0  0  0  0
  1  2  2  0  0  0  0
  2  6  1  0  0  0  0
  3  7  1  0  0  0  0
  3  2  1  0  0  0  0
  4  3  2  0  0  0  0
  5  4  1  0  0  0  0
  5  1  1  0  0  0  0
  8  9  2  0  0  0  0
 10 11  1  0  0  0  0
 10  8  1  0  0  0  0
 11 16  1  0  0  0  0
 12 17  1  0  0  0  0
 12 11  2  0  0  0  0
 13 12  1  0  0  0  0
 14 13  2  0  0  0  0
 14 15  1  0  0  0  0
 15 10  2  0  0  0  0
 18 14  1  0  0  0  0
 19 20  2  0  0  0  0
 19  4  1  0  0  0  0
 21 24  1  6  0  0  0
 21 22  1  0  0  0  0
 21 19  1  0  0  0  0
 22 26  1  0  0  0  0
 23 27  1  1  0  0  0
 23 21  1  0  0  0  0
 23 22  1  0  0  0  0
 25 22  1  0  0  0  0
 28 23  1  0  0  0  0
 29 33  1  0  0  0  0
 29 30  1  0  0  0  0
 29 28  1  0  0  0  0
 31 29  1  0  0  0  0
 32 31  1  0  0  0  0
 33 34  1  0  0  0  0
M  END
>  <minimizedAffinity>
-4.60999203

>  <minimizedRMSD>
0.361060143

$$$$
