
 OpenBabel03272507333D

 34 36  0  0  1  0  0  0  0  0999 V2000
   35.8560   29.1460   49.8020 C   0  0  0  0  0  0  0  0  0  0  0  0
   34.8100   29.6210   50.5610 C   0  0  0  0  0  0  0  0  0  0  0  0
   33.6320   29.0560   50.0510 C   0  0  0  0  0  0  0  0  0  0  0  0
   34.0410   28.2640   49.0030 C   0  0  0  0  0  0  0  0  0  0  0  0
   35.3490   28.3490   48.8940 O   0  0  0  0  0  0  0  0  0  0  0  0
   34.7960   30.2950   51.3990 H   0  0  0  0  0  0  0  0  0  0  0  0
   32.6230   29.1990   50.3900 H   0  0  0  0  0  0  0  0  0  0  0  0
   37.2330   29.5290   50.0560 C   0  0  0  0  0  0  0  0  0  0  0  0
   37.8670   28.9570   50.9550 O   0  0  0  0  0  0  0  0  0  0  0  0
   37.7850   30.5670   49.2300 C   0  0  0  0  0  0  0  0  0  0  0  0
   38.1170   31.7590   49.8550 C   0  0  0  0  0  0  0  0  0  0  0  0
   38.6530   32.7910   49.0770 C   0  0  0  0  0  0  0  0  0  0  0  0
   38.8240   32.5670   47.7320 N   0  0  0  0  0  0  0  0  0  0  0  0
   38.4920   31.4030   47.1650 C   0  0  0  0  0  0  0  0  0  0  0  0
   37.9770   30.4090   47.9010 N   0  0  0  0  0  0  0  0  0  0  0  0
   37.9960   31.9690   50.9070 H   0  0  0  0  0  0  0  0  0  0  0  0
   38.9280   33.7290   49.4980 H   0  0  0  0  0  0  0  0  0  0  0  0
   38.6280   31.2320   46.1010 H   0  0  0  0  0  0  0  0  0  0  0  0
   33.1720   27.4550   48.1470 C   0  0  0  0  0  0  0  0  0  0  0  0
   31.9250   27.4230   48.4150 O   0  0  0  0  0  0  0  0  0  0  0  0
   33.7440   26.6820   46.9940 C   0  0  1  0  0  0  0  0  0  0  0  0
   33.7940   25.1480   47.3500 C   0  0  0  0  0  0  0  0  0  0  0  0
   32.9300   25.7000   46.2760 C   0  0  2  0  0  0  0  0  0  0  0  0
   34.7860   26.9890   46.7530 H   0  0  0  0  0  0  0  0  0  0  0  0
   34.7130   24.6060   47.1300 H   0  0  0  0  0  0  0  0  0  0  0  0
   33.2920   24.8280   48.2620 H   0  0  0  0  0  0  0  0  0  0  0  0
   31.8400   25.7570   46.4500 H   0  0  0  0  0  0  0  0  0  0  0  0
   33.2980   25.3020   44.8700 C   0  0  0  0  0  2  0  0  0  0  0  0
   34.7030   25.0520   44.6800 N   0  0  0  0  0  4  0  0  0  0  0  0
   35.2710   25.2450   45.5370 H   0  0  0  0  0  0  0  0  0  0  0  0
   35.1600   25.9520   43.6240 C   0  0  0  0  0  2  0  0  0  0  0  0
   35.6100   25.4180   42.7640 H   0  0  0  0  0  0  0  0  0  0  0  0
   34.9200   23.6910   44.1670 C   0  0  0  0  0  2  0  0  0  0  0  0
   33.9590   23.3190   43.7500 H   0  0  0  0  0  0  0  0  0  0  0  0
  1  8  1  0  0  0  0
  1  2  2  0  0  0  0
  2  6  1  0  0  0  0
  3  7  1  0  0  0  0
  3  2  1  0  0  0  0
  4  3  2  0  0  0  0
  5  4  1  0  0  0  0
  5  1  1  0  0  0  0
  8  9  2  0  0  0  0
 10 11  1  0  0  0  0
 10  8  1  0  0  0  0
 11 16  1  0  0  0  0
 12 17  1  0  0  0  0
 12 11  2  0  0  0  0
 13 12  1  0  0  0  0
 14 13  2  0  0  0  0
 14 15  1  0  0  0  0
 15 10  2  0  0  0  0
 18 14  1  0  0  0  0
 19 20  2  0  0  0  0
 19  4  1  0  0  0  0
 21 24  1  6  0  0  0
 21 22  1  0  0  0  0
 21 19  1  0  0  0  0
 22 26  1  0  0  0  0
 23 27  1  1  0  0  0
 23 21  1  0  0  0  0
 23 22  1  0  0  0  0
 25 22  1  0  0  0  0
 28 23  1  0  0  0  0
 29 28  1  0  0  0  0
 29 30  1  0  0  0  0
 31 29  1  0  0  0  0
 32 31  1  0  0  0  0
 33 29  1  0  0  0  0
 34 33  1  0  0  0  0
M  END
>  <minimizedAffinity>
-4.6991787

>  <minimizedRMSD>
0.564371347

$$$$
