
 OpenBabel03272507333D

 34 36  0  0  1  0  0  0  0  0999 V2000
   35.8600   29.1500   49.8120 C   0  0  0  0  0  0  0  0  0  0  0  0
   34.8170   29.6410   50.5660 C   0  0  0  0  0  0  0  0  0  0  0  0
   33.6360   29.0730   50.0660 C   0  0  0  0  0  0  0  0  0  0  0  0
   34.0410   28.2640   49.0290 C   0  0  0  0  0  0  0  0  0  0  0  0
   35.3490   28.3420   48.9170 O   0  0  0  0  0  0  0  0  0  0  0  0
   34.8070   30.3260   51.3950 H   0  0  0  0  0  0  0  0  0  0  0  0
   32.6280   29.2240   50.4040 H   0  0  0  0  0  0  0  0  0  0  0  0
   37.2390   29.5320   50.0590 C   0  0  0  0  0  0  0  0  0  0  0  0
   37.8760   28.9600   50.9560 O   0  0  0  0  0  0  0  0  0  0  0  0
   37.7880   30.5680   49.2290 C   0  0  0  0  0  0  0  0  0  0  0  0
   38.1260   31.7600   49.8500 C   0  0  0  0  0  0  0  0  0  0  0  0
   38.6600   32.7900   49.0680 C   0  0  0  0  0  0  0  0  0  0  0  0
   38.8220   32.5640   47.7220 N   0  0  0  0  0  0  0  0  0  0  0  0
   38.4850   31.4000   47.1580 C   0  0  0  0  0  0  0  0  0  0  0  0
   37.9720   30.4080   47.8980 N   0  0  0  0  0  0  0  0  0  0  0  0
   38.0130   31.9700   50.9030 H   0  0  0  0  0  0  0  0  0  0  0  0
   38.9400   33.7270   49.4860 H   0  0  0  0  0  0  0  0  0  0  0  0
   38.6140   31.2270   46.0940 H   0  0  0  0  0  0  0  0  0  0  0  0
   33.1670   27.4460   48.1860 C   0  0  0  0  0  0  0  0  0  0  0  0
   31.9300   27.3760   48.4910 O   0  0  0  0  0  0  0  0  0  0  0  0
   33.7240   26.7080   47.0020 C   0  0  1  0  0  0  0  0  0  0  0  0
   33.7980   25.1660   47.3190 C   0  0  0  0  0  0  0  0  0  0  0  0
   32.9060   25.7340   46.2780 C   0  0  2  0  0  0  0  0  0  0  0  0
   34.7560   27.0330   46.7480 H   0  0  0  0  0  0  0  0  0  0  0  0
   34.7180   24.6410   47.0670 H   0  0  0  0  0  0  0  0  0  0  0  0
   33.3190   24.8180   48.2340 H   0  0  0  0  0  0  0  0  0  0  0  0
   31.8190   25.7740   46.4760 H   0  0  0  0  0  0  0  0  0  0  0  0
   33.2480   25.3760   44.8550 C   0  0  0  0  0  2  0  0  0  0  0  0
   34.4490   26.0030   44.3660 N   0  0  0  0  0  4  0  0  0  0  0  0
   34.8960   26.6350   45.0690 H   0  0  0  0  0  0  0  0  0  0  0  0
   34.0710   26.8100   43.2090 C   0  0  0  0  0  2  0  0  0  0  0  0
   34.6150   26.5290   42.2870 H   0  0  0  0  0  0  0  0  0  0  0  0
   35.3870   24.9920   43.8560 C   0  0  0  0  0  2  0  0  0  0  0  0
   34.8220   24.0520   43.6740 H   0  0  0  0  0  0  0  0  0  0  0  0
  1  8  1  0  0  0  0
  1  2  2  0  0  0  0
  2  6  1  0  0  0  0
  3  7  1  0  0  0  0
  3  2  1  0  0  0  0
  4  3  2  0  0  0  0
  5  4  1  0  0  0  0
  5  1  1  0  0  0  0
  8  9  2  0  0  0  0
 10 11  1  0  0  0  0
 10  8  1  0  0  0  0
 11 16  1  0  0  0  0
 12 17  1  0  0  0  0
 12 11  2  0  0  0  0
 13 12  1  0  0  0  0
 14 13  2  0  0  0  0
 14 15  1  0  0  0  0
 15 10  2  0  0  0  0
 18 14  1  0  0  0  0
 19 20  2  0  0  0  0
 19  4  1  0  0  0  0
 21 24  1  6  0  0  0
 21 22  1  0  0  0  0
 21 19  1  0  0  0  0
 22 26  1  0  0  0  0
 23 27  1  1  0  0  0
 23 21  1  0  0  0  0
 23 22  1  0  0  0  0
 25 22  1  0  0  0  0
 28 23  1  0  0  0  0
 29 28  1  0  0  0  0
 29 30  1  0  0  0  0
 31 29  1  0  0  0  0
 32 31  1  0  0  0  0
 33 29  1  0  0  0  0
 34 33  1  0  0  0  0
M  END
>  <minimizedAffinity>
-4.68521595

>  <minimizedRMSD>
0.288398594

$$$$
