
 OpenBabel03272507323D

 34 36  0  0  1  0  0  0  0  0999 V2000
   35.8280   29.1430   49.8100 C   0  0  0  0  0  0  0  0  0  0  0  0
   34.8140   29.6610   50.5860 C   0  0  0  0  0  0  0  0  0  0  0  0
   33.6080   29.1260   50.1110 C   0  0  0  0  0  0  0  0  0  0  0  0
   33.9680   28.3080   49.0650 C   0  0  0  0  0  0  0  0  0  0  0  0
   35.2750   28.3510   48.9250 O   0  0  0  0  0  0  0  0  0  0  0  0
   34.8410   30.3450   51.4150 H   0  0  0  0  0  0  0  0  0  0  0  0
   32.6120   29.3040   50.4710 H   0  0  0  0  0  0  0  0  0  0  0  0
   37.2220   29.4870   50.0270 C   0  0  0  0  0  0  0  0  0  0  0  0
   37.8690   28.8790   50.8920 O   0  0  0  0  0  0  0  0  0  0  0  0
   37.7720   30.5310   49.2070 C   0  0  0  0  0  0  0  0  0  0  0  0
   38.1230   31.7120   49.8430 C   0  0  0  0  0  0  0  0  0  0  0  0
   38.6580   32.7490   49.0710 C   0  0  0  0  0  0  0  0  0  0  0  0
   38.8090   32.5410   47.7210 N   0  0  0  0  0  0  0  0  0  0  0  0
   38.4580   31.3880   47.1430 C   0  0  0  0  0  0  0  0  0  0  0  0
   37.9440   30.3880   47.8730 N   0  0  0  0  0  0  0  0  0  0  0  0
   38.0190   31.9080   50.8990 H   0  0  0  0  0  0  0  0  0  0  0  0
   38.9480   33.6780   49.5000 H   0  0  0  0  0  0  0  0  0  0  0  0
   38.5780   31.2290   46.0760 H   0  0  0  0  0  0  0  0  0  0  0  0
   33.0550   27.5140   48.2400 C   0  0  0  0  0  0  0  0  0  0  0  0
   31.8350   27.4320   48.6040 O   0  0  0  0  0  0  0  0  0  0  0  0
   33.5530   26.8170   47.0080 C   0  0  1  0  0  0  0  0  0  0  0  0
   33.7980   25.2910   47.3190 C   0  0  0  0  0  0  0  0  0  0  0  0
   32.7570   25.7660   46.3730 C   0  0  2  0  0  0  0  0  0  0  0  0
   34.5210   27.2290   46.6490 H   0  0  0  0  0  0  0  0  0  0  0  0
   34.7310   24.8470   46.9760 H   0  0  0  0  0  0  0  0  0  0  0  0
   33.4470   24.9120   48.2790 H   0  0  0  0  0  0  0  0  0  0  0  0
   31.6970   25.7100   46.6800 H   0  0  0  0  0  0  0  0  0  0  0  0
   32.9850   25.4230   44.9230 C   0  0  0  0  0  2  0  0  0  0  0  0
   31.9200   25.8450   44.0490 N   0  0  0  0  0  4  0  0  0  0  0  0
   30.9730   25.7490   44.4810 H   0  0  0  0  0  0  0  0  0  0  0  0
   31.9670   24.9850   42.8700 C   0  0  0  0  0  2  0  0  0  0  0  0
   32.0930   25.5490   41.9260 H   0  0  0  0  0  0  0  0  0  0  0  0
   32.1670   27.2090   43.5570 C   0  0  0  0  0  2  0  0  0  0  0  0
   33.2430   27.4450   43.7110 H   0  0  0  0  0  0  0  0  0  0  0  0
  1  8  1  0  0  0  0
  1  2  2  0  0  0  0
  2  6  1  0  0  0  0
  3  7  1  0  0  0  0
  3  2  1  0  0  0  0
  4  3  2  0  0  0  0
  5  4  1  0  0  0  0
  5  1  1  0  0  0  0
  8  9  2  0  0  0  0
 10 11  1  0  0  0  0
 10  8  1  0  0  0  0
 11 16  1  0  0  0  0
 12 17  1  0  0  0  0
 12 11  2  0  0  0  0
 13 12  1  0  0  0  0
 14 13  2  0  0  0  0
 14 15  1  0  0  0  0
 15 10  2  0  0  0  0
 18 14  1  0  0  0  0
 19 20  2  0  0  0  0
 19  4  1  0  0  0  0
 21 24  1  6  0  0  0
 21 22  1  0  0  0  0
 21 19  1  0  0  0  0
 22 26  1  0  0  0  0
 23 27  1  1  0  0  0
 23 21  1  0  0  0  0
 23 22  1  0  0  0  0
 25 22  1  0  0  0  0
 28 23  1  0  0  0  0
 29 30  1  0  0  0  0
 29 28  1  0  0  0  0
 31 29  1  0  0  0  0
 32 31  1  0  0  0  0
 33 34  1  0  0  0  0
 33 29  1  0  0  0  0
M  END
>  <minimizedAffinity>
-4.60412788

>  <minimizedRMSD>
0.0732770264

$$$$
