
 OpenBabel03272507323D

 34 36  0  0  1  0  0  0  0  0999 V2000
   35.8960   29.1880   49.8230 C   0  0  0  0  0  0  0  0  0  0  0  0
   34.9240   29.6630   50.6750 C   0  0  0  0  0  0  0  0  0  0  0  0
   33.6940   29.1610   50.2270 C   0  0  0  0  0  0  0  0  0  0  0  0
   33.9990   28.4040   49.1200 C   0  0  0  0  0  0  0  0  0  0  0  0
   35.2980   28.4500   48.9210 O   0  0  0  0  0  0  0  0  0  0  0  0
   34.9940   30.2980   51.5400 H   0  0  0  0  0  0  0  0  0  0  0  0
   32.7170   29.3210   50.6440 H   0  0  0  0  0  0  0  0  0  0  0  0
   37.3010   29.5140   49.9920 C   0  0  0  0  0  0  0  0  0  0  0  0
   37.9750   28.8820   50.8200 O   0  0  0  0  0  0  0  0  0  0  0  0
   37.8300   30.5680   49.1730 C   0  0  0  0  0  0  0  0  0  0  0  0
   38.1680   31.7520   49.8100 C   0  0  0  0  0  0  0  0  0  0  0  0
   38.6830   32.7990   49.0390 C   0  0  0  0  0  0  0  0  0  0  0  0
   38.8280   32.5980   47.6860 N   0  0  0  0  0  0  0  0  0  0  0  0
   38.4920   31.4410   47.1070 C   0  0  0  0  0  0  0  0  0  0  0  0
   37.9970   30.4320   47.8380 N   0  0  0  0  0  0  0  0  0  0  0  0
   38.0670   31.9440   50.8670 H   0  0  0  0  0  0  0  0  0  0  0  0
   38.9610   33.7320   49.4690 H   0  0  0  0  0  0  0  0  0  0  0  0
   38.6080   31.2870   46.0390 H   0  0  0  0  0  0  0  0  0  0  0  0
   33.0430   27.6630   48.2950 C   0  0  0  0  0  0  0  0  0  0  0  0
   31.8250   27.6260   48.6740 O   0  0  0  0  0  0  0  0  0  0  0  0
   33.4960   26.9640   47.0460 C   0  0  1  0  0  0  0  0  0  0  0  0
   33.7630   25.4420   47.3510 C   0  0  0  0  0  0  0  0  0  0  0  0
   32.6820   25.9050   46.4460 C   0  0  2  0  0  0  0  0  0  0  0  0
   34.4450   27.3830   46.6470 H   0  0  0  0  0  0  0  0  0  0  0  0
   34.6850   25.0030   46.9720 H   0  0  0  0  0  0  0  0  0  0  0  0
   33.4540   25.0630   48.3250 H   0  0  0  0  0  0  0  0  0  0  0  0
   31.6350   25.8440   46.7970 H   0  0  0  0  0  0  0  0  0  0  0  0
   32.8530   25.5590   44.9890 C   0  0  0  0  0  2  0  0  0  0  0  0
   33.0240   24.1500   44.7390 N   0  0  0  0  0  4  0  0  0  0  0  0
   33.7040   23.6990   45.3920 H   0  0  0  0  0  0  0  0  0  0  0  0
   33.5450   24.0170   43.3820 C   0  0  0  0  0  2  0  0  0  0  0  0
   32.9030   23.3950   42.7290 H   0  0  0  0  0  0  0  0  0  0  0  0
   31.7220   23.4670   44.7360 C   0  0  0  0  0  2  0  0  0  0  0  0
   30.9260   24.2310   44.6010 H   0  0  0  0  0  0  0  0  0  0  0  0
  1  8  1  0  0  0  0
  1  2  2  0  0  0  0
  2  6  1  0  0  0  0
  3  7  1  0  0  0  0
  3  2  1  0  0  0  0
  4  3  2  0  0  0  0
  5  4  1  0  0  0  0
  5  1  1  0  0  0  0
  8  9  2  0  0  0  0
 10 11  1  0  0  0  0
 10  8  1  0  0  0  0
 11 16  1  0  0  0  0
 12 17  1  0  0  0  0
 12 11  2  0  0  0  0
 13 12  1  0  0  0  0
 14 13  2  0  0  0  0
 14 15  1  0  0  0  0
 15 10  2  0  0  0  0
 18 14  1  0  0  0  0
 19 20  2  0  0  0  0
 19  4  1  0  0  0  0
 21 24  1  6  0  0  0
 21 22  1  0  0  0  0
 21 19  1  0  0  0  0
 22 26  1  0  0  0  0
 23 27  1  1  0  0  0
 23 21  1  0  0  0  0
 23 22  1  0  0  0  0
 25 22  1  0  0  0  0
 28 23  1  0  0  0  0
 29 28  1  0  0  0  0
 29 30  1  0  0  0  0
 31 29  1  0  0  0  0
 32 31  1  0  0  0  0
 33 29  1  0  0  0  0
 34 33  1  0  0  0  0
M  END
>  <minimizedAffinity>
-4.5985055

>  <minimizedRMSD>
0.507086873

$$$$
