REMARK  Name = 
REMARK  3 active torsions:
REMARK  status: ('A' for Active; 'I' for Inactive)
REMARK    1  A    between atoms: C_1  and  C_6
REMARK    2  A    between atoms: C_1  and  C_8
REMARK    3  A    between atoms: C_8  and  C_9
REMARK                            x       y       z     vdW  Elec       q    Type
REMARK                         _______ _______ _______ _____ _____    ______ ____
ROOT
ATOM      1  C   UNL     1      32.957  28.269  47.888  0.00  0.00    +0.000 A 
ATOM      2  C   UNL     1      32.022  27.582  48.638  0.00  0.00    +0.000 A 
ATOM      3  C   UNL     1      30.748  27.831  48.151  0.00  0.00    +0.000 A 
ATOM      4  N   UNL     1      30.950  28.679  47.099  0.00  0.00    +0.000 N 
ATOM      5  N   UNL     1      32.253  28.938  46.943  0.00  0.00    +0.000 NA
ATOM      6  H   UNL     1      32.226  26.936  49.486  0.00  0.00    +0.000 HD
ATOM      7  H   UNL     1      29.782  27.475  48.477  0.00  0.00    +0.000 HD
ATOM      8  C   UNL     1      29.957  29.250  46.241  0.00  0.00    +0.000 A 
ATOM      9  N   UNL     1      29.055  28.339  45.775  0.00  0.00    +0.000 NA
ATOM     10  C   UNL     1      28.059  28.767  44.946  0.00  0.00    +0.000 A 
ATOM     11  N   UNL     1      27.926  30.066  44.563  0.00  0.00    +0.000 NA
ATOM     12  C   UNL     1      28.839  30.944  45.044  0.00  0.00    +0.000 A 
ATOM     13  C   UNL     1      28.732  32.275  44.674  0.00  0.00    +0.000 A 
ATOM     14  C   UNL     1      29.678  33.159  45.179  0.00  0.00    +0.000 A 
ATOM     15  H   UNL     1      29.555  34.194  44.862  0.00  0.00    +0.000 HD
ATOM     16  C   UNL     1      30.686  32.758  46.011  0.00  0.00    +0.000 A 
ATOM     17  H   UNL     1      31.416  33.462  46.396  0.00  0.00    +0.000 HD
ATOM     18  C   UNL     1      30.811  31.422  46.395  0.00  0.00    +0.000 A 
ATOM     19  C   UNL     1      29.870  30.578  45.886  0.00  0.00    +0.000 A 
ENDROOT
BRANCH   1  20
ATOM     20  C   UNL     1      34.436  28.257  48.098  0.00  0.00    +0.000 C 
ATOM     21  H   UNL     1      34.813  27.302  47.643  0.00  0.00    +0.000 HD
ATOM     22  H   UNL     1      34.849  29.162  47.620  0.00  0.00    +0.000 HD
BRANCH  20  23
ATOM     23  C   UNL     1      34.657  28.308  49.583  0.00  0.00    +0.000 C 
ATOM     24  H   UNL     1      33.783  28.563  50.184  0.00  0.00    +0.000 HD
ATOM     25  H   UNL     1      34.940  27.265  49.906  0.00  0.00    +0.000 HD
BRANCH  23  30
ATOM     26  C   UNL     1      37.292  30.184  51.386  0.00  0.00    +0.000 A 
ATOM     27  C   UNL     1      38.074  30.681  50.338  0.00  0.00    +0.000 A 
ATOM     28  C   UNL     1      37.693  30.370  49.031  0.00  0.00    +0.000 A 
ATOM     29  N   UNL     1      36.594  29.608  48.822  0.00  0.00    +0.000 NA
ATOM     30  C   UNL     1      35.861  29.145  49.871  0.00  0.00    +0.000 A 
ATOM     31  N   UNL     1      36.212  29.434  51.122  0.00  0.00    +0.000 NA
ATOM     32  H   UNL     1      37.580  30.421  52.415  0.00  0.00    +0.000 HD
ATOM     33  H   UNL     1      38.932  31.279  50.584  0.00  0.00    +0.000 HD
ATOM     34  H   UNL     1      38.276  30.739  48.215  0.00  0.00    +0.000 HD
ENDBRANCH  23  30
ENDBRANCH  20  23
ENDBRANCH   1  20
TORSDOF 3
