
     RDKit          3D

 46 51  0  0  0  0  0  0  0  0999 V2000
   37.1471   30.7152   44.9108 C   0  0  0  0  0  0  0  0  0  0  0  0
   36.8362   29.7521   43.8416 C   0  0  0  0  0  0  0  0  0  0  0  0
   36.2544   31.1411   43.7826 C   0  0  0  0  0  0  0  0  0  0  0  0
   39.7514   33.3454   44.9633 C   0  0  0  0  0  0  0  0  0  0  0  0
   40.9187   32.6176   45.2185 C   0  0  0  0  0  0  0  0  0  0  0  0
   40.8041   31.2232   45.3714 C   0  0  0  0  0  0  0  0  0  0  0  0
   39.5796   30.6503   45.2661 N   0  0  0  0  0  0  0  0  0  0  0  0
   38.4685   31.3911   45.0174 C   0  0  0  0  0  0  0  0  0  0  0  0
   38.5544   32.7173   44.8686 N   0  0  0  0  0  0  0  0  0  0  0  0
   36.5125   30.5186   46.2702 C   0  0  0  0  0  0  0  0  0  0  0  0
   37.1479   30.9236   47.3949 C   0  0  0  0  0  0  0  0  0  0  0  0
   36.5469   30.7338   48.6395 C   0  0  0  0  0  0  0  0  0  0  0  0
   35.2939   30.1245   48.6833 C   0  0  0  0  0  0  0  0  0  0  0  0
   34.6503   29.7109   47.5036 C   0  0  0  0  0  0  0  0  0  0  0  0
   35.3045   29.9340   46.3454 N   0  0  0  0  0  0  0  0  0  0  0  0
   33.3440   29.0726   47.5103 C   0  0  0  0  0  0  0  0  0  0  0  0
   32.3596   29.0632   46.5522 N   0  0  0  0  0  0  0  0  0  0  0  0
   31.3229   28.3279   47.0243 C   0  0  0  0  0  0  0  0  0  0  0  0
   31.6548   27.8776   48.2734 N   0  0  0  0  0  0  0  0  0  0  0  0
   32.8813   28.3341   48.5587 N   0  0  0  0  0  0  0  0  0  0  0  0
   37.6297   29.5556   43.0668 H   0  0  0  0  0  0  0  0  0  0  0  0
   36.1630   28.9060   44.0261 H   0  0  0  0  0  0  0  0  0  0  0  0
   36.6853   31.8581   43.0528 H   0  0  0  0  0  0  0  0  0  0  0  0
   35.1736   31.2147   43.9716 H   0  0  0  0  0  0  0  0  0  0  0  0
   39.8088   34.4192   44.8410 H   0  0  0  0  0  0  0  0  0  0  0  0
   41.8706   33.1152   45.2940 H   0  0  0  0  0  0  0  0  0  0  0  0
   41.6916   30.6239   45.5710 H   0  0  0  0  0  0  0  0  0  0  0  0
   38.1155   31.3957   47.3806 H   0  0  0  0  0  0  0  0  0  0  0  0
   37.0479   31.0540   49.5374 H   0  0  0  0  0  0  0  0  0  0  0  0
   34.7842   29.9536   49.6204 H   0  0  0  0  0  0  0  0  0  0  0  0
   30.3890   28.1456   46.4695 H   0  0  0  0  0  0  0  0  0  0  0  0
   30.8432   27.0739   49.1086 C   0  0  0  0  0  0  0  0  0  0  0  0
   31.5304   26.4719   50.1003 N   0  0  0  0  0  0  0  0  0  0  0  0
   30.8889   25.6622   50.9917 C   0  0  0  0  0  0  0  0  0  0  0  0
   29.5488   25.4548   50.8877 N   0  0  0  0  0  0  0  0  0  0  0  0
   28.8366   26.0459   49.9034 C   0  0  0  0  0  0  0  0  0  0  0  0
   27.4671   25.8645   49.7568 C   0  0  0  0  0  0  0  0  0  0  0  0
   26.7940   26.4912   48.7364 C   0  0  0  0  0  0  0  0  0  0  0  0
   25.7185   26.3241   48.6539 H   0  0  0  0  0  0  0  0  0  0  0  0
   27.4861   27.3016   47.8585 C   0  0  0  0  0  0  0  0  0  0  0  0
   26.9140   27.7815   47.0613 H   0  0  0  0  0  0  0  0  0  0  0  0
   28.8588   27.5144   47.9644 C   0  0  0  0  0  0  0  0  0  0  0  0
   29.4741   26.8661   48.9971 C   0  0  0  0  0  0  0  0  0  0  0  0
   31.3435   25.1344   51.8192 H   0  0  0  0  0  0  0  0  0  0  0  0
   26.9501   25.2115   50.4757 H   0  0  0  0  0  0  0  0  0  0  0  0
   29.3893   28.1505   47.2719 H   0  0  0  0  0  0  0  0  0  0  0  0
  1  8  1  0
  1 10  1  0
  2  1  1  0
  3  2  1  0
  3  1  1  0
  4  5  2  0
  5  6  1  0
  7  6  2  0
  8  7  1  0
  9  4  1  0
  9  8  2  0
 10 15  1  0
 10 11  2  0
 11 12  1  0
 12 13  2  0
 14 13  1  0
 15 14  2  0
 16 14  1  0
 16 20  2  0
 17 18  2  0
 17 16  1  0
 18 19  1  0
 19 20  1  0
  2 21  1  0
  2 22  1  0
  3 23  1  0
  3 24  1  0
  4 25  1  0
  5 26  1  0
  6 27  1  0
 11 28  1  0
 12 29  1  0
 13 30  1  0
 18 31  1  0
 32 33  2  0
 33 34  1  0
 34 35  2  0
 35 36  1  0
 36 37  2  0
 37 38  1  0
 38 39  1  0
 38 40  2  0
 40 41  1  0
 40 42  1  0
 42 43  2  0
 43 32  1  0
 43 36  1  0
 34 44  1  0
 37 45  1  0
 42 46  1  0
 19 32  1  0
M  ISO  8  21  13  22  13  23  13  24  13  25  14  26  14  27  14  28  14
M  ISO  5  29  14  30  14  31  14  39  16  41  16
M  END
>  <DihAtoms>  (1) 
17,18,31,32

>  <DihDeg>  (1) 
-122.42166228149763

$$$$
