
 OpenBabel03272509593D

 49 53  0  0  0  0  0  0  0  0999 V2000
   36.9680   25.3800   31.0960 C   0  0  0  0  0  0  0  0  0  0  0  0
   38.0230   25.0000   31.1350 H   0  0  0  0  0  0  0  0  0  0  0  0
   36.8600   25.9140   30.1500 H   0  0  0  0  0  0  0  0  0  0  0  0
   36.8290   26.3480   32.2210 C   0  0  0  0  0  0  0  0  0  0  0  0
   37.2450   25.9410   33.4730 C   0  0  0  0  0  0  0  0  0  0  0  0
   37.1460   26.7760   34.5540 C   0  0  0  0  0  0  0  0  0  0  0  0
   36.6420   28.0010   34.4030 N   0  0  0  0  0  0  0  0  0  0  0  0
   36.2310   28.3970   33.1600 C   0  0  0  0  0  0  0  0  0  0  0  0
   36.3300   27.5810   32.1130 N   0  0  0  0  0  0  0  0  0  0  0  0
   37.6590   24.9700   33.6620 H   0  0  0  0  0  0  0  0  0  0  0  0
   37.4570   26.5110   35.5650 H   0  0  0  0  0  0  0  0  0  0  0  0
   35.6920   29.7770   33.0640 C   0  0  0  0  0  0  0  0  0  0  0  0
   35.5770   30.1090   32.0110 H   0  0  0  0  0  0  0  0  0  0  0  0
   36.4250   30.4760   33.5060 H   0  0  0  0  0  0  0  0  0  0  0  0
   34.4300   29.8940   33.8320 C   0  0  0  0  0  0  0  0  0  0  0  0
   33.3340   29.2540   33.3240 N   0  0  0  0  0  0  0  0  0  0  0  0
   32.1190   29.3060   33.8820 C   0  0  0  0  0  3  0  0  0  0  0  0
   31.8810   30.0040   35.0040 N   0  0  0  0  0  0  0  0  0  0  0  0
   32.9450   30.6590   35.5510 C   0  0  0  0  0  0  0  0  0  0  0  0
   32.7880   31.3900   36.7130 C   0  0  0  0  0  3  0  0  0  0  0  0
   33.8540   32.0460   37.2830 C   0  0  0  0  0  0  0  0  0  0  0  0
   33.6230   32.5880   38.1920 H   0  0  0  0  0  0  0  0  0  0  0  0
   35.1110   31.9710   36.6780 C   0  0  0  0  0  0  0  0  0  0  0  0
   35.9120   32.5040   37.1730 H   0  0  0  0  0  0  0  0  0  0  0  0
   35.2780   31.2500   35.5240 C   0  0  0  0  0  3  0  0  0  0  0  0
   34.1920   30.6110   34.9850 C   0  0  0  0  0  0  0  0  0  0  0  0
   36.0730   24.1880   31.2380 C   0  0  0  0  0  0  0  0  0  0  0  0
   35.3690   24.2530   32.0930 H   0  0  0  0  0  0  0  0  0  0  0  0
   35.4820   24.0970   30.3180 H   0  0  0  0  0  0  0  0  0  0  0  0
   36.8460   23.0010   31.4300 O   0  0  0  0  0  0  0  0  0  0  0  0
   35.4890   20.5160   33.6870 C   0  0  0  0  0  0  0  0  0  0  0  0
   36.2270   20.8160   34.8610 C   0  0  0  0  0  0  0  0  0  0  0  0
   37.1400   21.8540   34.7940 C   0  0  0  0  0  0  0  0  0  0  0  0
   37.2520   22.5020   33.5930 N   0  0  0  0  0  0  0  0  0  0  0  0
   36.5510   22.2090   32.4950 C   0  0  0  0  0  0  0  0  0  0  0  0
   35.6510   21.1910   32.5550 N   0  0  0  0  0  0  0  0  0  0  0  0
   34.7810   19.6980   33.7730 H   0  0  0  0  0  0  0  0  0  0  0  0
   36.1300   20.3050   35.7860 H   0  0  0  0  0  0  0  0  0  0  0  0
   40.0250   21.7290   35.0200 F   0  0  0  0  0  0  0  0  0  0  0  0
   39.3130   22.2520   36.0090 C   0  0  0  0  0  0  0  0  0  0  0  0
   37.9720   22.3000   35.8800 C   0  0  0  0  0  0  0  0  0  0  0  0
   37.3260   22.8740   36.9880 C   0  0  0  0  0  0  0  0  0  0  0  0
   38.0000   23.3340   38.0850 C   0  0  0  0  0  0  0  0  0  0  0  0
   39.3720   23.2560   38.1580 C   0  0  0  0  0  0  0  0  0  0  0  0
   40.0250   22.7040   37.0960 C   0  0  0  0  0  0  0  0  0  0  0  0
   36.2400   22.9650   36.9930 H   0  0  0  0  0  0  0  0  0  0  0  0
   37.4390   23.7710   38.9180 H   0  0  0  0  0  0  0  0  0  0  0  0
   39.8770   23.6320   39.0450 H   0  0  0  0  0  0  0  0  0  0  0  0
   41.1050   22.6380   37.1450 H   0  0  0  0  0  0  0  0  0  0  0  0
  1  2  1  0  0  0  0
  1 27  1  0  0  0  0
  1  4  1  0  0  0  0
  3  1  1  0  0  0  0
  4  5  1  0  0  0  0
  5 10  1  0  0  0  0
  5  6  2  0  0  0  0
  6 11  1  0  0  0  0
  7  6  1  0  0  0  0
  8  7  2  0  0  0  0
  9  4  2  0  0  0  0
  9  8  1  0  0  0  0
 12  8  1  0  0  0  0
 12 14  1  0  0  0  0
 12 15  1  0  0  0  0
 13 12  1  0  0  0  0
 15 26  1  0  0  0  0
 16 15  2  0  0  0  0
 16 17  1  0  0  0  0
 17 18  2  0  0  0  0
 18 19  1  0  0  0  0
 19 20  1  0  0  0  0
 20 21  2  0  0  0  0
 21 22  1  0  0  0  0
 23 24  1  0  0  0  0
 23 21  1  0  0  0  0
 25 23  2  0  0  0  0
 26 25  1  0  0  0  0
 26 19  2  0  0  0  0
 27 30  1  0  0  0  0
 27 28  1  0  0  0  0
 29 27  1  0  0  0  0
 30 35  1  0  0  0  0
 31 37  1  0  0  0  0
 31 32  1  0  0  0  0
 32 38  1  0  0  0  0
 33 32  2  0  0  0  0
 33 41  1  0  0  0  0
 34 33  1  0  0  0  0
 35 36  1  0  0  0  0
 35 34  2  0  0  0  0
 36 31  2  0  0  0  0
 39 40  1  0  0  0  0
 40 45  1  0  0  0  0
 41 40  2  0  0  0  0
 41 42  1  0  0  0  0
 42 46  1  0  0  0  0
 42 43  2  0  0  0  0
 43 44  1  0  0  0  0
 43 47  1  0  0  0  0
 44 48  1  0  0  0  0
 45 49  1  0  0  0  0
 45 44  2  0  0  0  0
M  END
>  <minimizedAffinity>
-7.10145712

$$$$

 OpenBabel03272509593D

 49 53  0  0  0  0  0  0  0  0999 V2000
   38.7880   26.7800   33.9430 C   0  0  0  0  0  0  0  0  0  0  0  0
   39.4780   27.6610   33.8830 H   0  0  0  0  0  0  0  0  0  0  0  0
   39.3180   25.9320   33.5060 H   0  0  0  0  0  0  0  0  0  0  0  0
   37.6100   27.1100   33.0900 C   0  0  0  0  0  0  0  0  0  0  0  0
   37.1230   26.1230   32.2580 C   0  0  0  0  0  0  0  0  0  0  0  0
   36.0450   26.3540   31.4440 C   0  0  0  0  0  0  0  0  0  0  0  0
   35.4530   27.5490   31.4520 N   0  0  0  0  0  0  0  0  0  0  0  0
   35.9410   28.5230   32.2780 C   0  0  0  0  0  0  0  0  0  0  0  0
   36.9890   28.2920   33.0670 N   0  0  0  0  0  0  0  0  0  0  0  0
   37.5530   25.1420   32.2050 H   0  0  0  0  0  0  0  0  0  0  0  0
   35.6170   25.6150   30.7680 H   0  0  0  0  0  0  0  0  0  0  0  0
   35.2260   29.8230   32.2430 C   0  0  0  0  0  0  0  0  0  0  0  0
   34.7350   30.0050   31.2650 H   0  0  0  0  0  0  0  0  0  0  0  0
   35.9650   30.6380   32.3480 H   0  0  0  0  0  0  0  0  0  0  0  0
   34.2760   29.9220   33.3770 C   0  0  0  0  0  0  0  0  0  0  0  0
   33.0750   29.2850   33.2350 N   0  0  0  0  0  0  0  0  0  0  0  0
   32.1020   29.3210   34.1540 C   0  0  0  0  0  3  0  0  0  0  0  0
   32.2360   29.9990   35.3050 N   0  0  0  0  0  0  0  0  0  0  0  0
   33.4200   30.6510   35.4940 C   0  0  0  0  0  0  0  0  0  0  0  0
   33.6440   31.3610   36.6580 C   0  0  0  0  0  3  0  0  0  0  0  0
   34.8370   32.0130   36.8670 C   0  0  0  0  0  0  0  0  0  0  0  0
   34.9080   32.5390   37.8110 H   0  0  0  0  0  0  0  0  0  0  0  0
   35.8330   31.9540   35.8900 C   0  0  0  0  0  0  0  0  0  0  0  0
   36.7520   32.4830   36.1120 H   0  0  0  0  0  0  0  0  0  0  0  0
   35.6220   31.2530   34.7320 C   0  0  0  0  0  3  0  0  0  0  0  0
   34.4200   30.6180   34.5580 C   0  0  0  0  0  0  0  0  0  0  0  0
   38.4310   26.6060   35.3870 C   0  0  0  0  0  0  0  0  0  0  0  0
   39.3020   26.6260   36.0710 H   0  0  0  0  0  0  0  0  0  0  0  0
   37.7580   27.4240   35.6700 H   0  0  0  0  0  0  0  0  0  0  0  0
   37.7730   25.3540   35.5930 O   0  0  0  0  0  0  0  0  0  0  0  0
   38.2130   23.4240   38.6250 C   0  0  0  0  0  0  0  0  0  0  0  0
   39.4850   22.8490   38.3720 C   0  0  0  0  0  0  0  0  0  0  0  0
   40.1040   23.1660   37.1750 C   0  0  0  0  0  0  0  0  0  0  0  0
   39.4280   24.0110   36.3350 N   0  0  0  0  0  0  0  0  0  0  0  0
   38.2300   24.5450   36.5860 C   0  0  0  0  0  0  0  0  0  0  0  0
   37.6180   24.2370   37.7610 N   0  0  0  0  0  0  0  0  0  0  0  0
   37.7550   23.1560   39.5720 H   0  0  0  0  0  0  0  0  0  0  0  0
   39.9970   22.1940   39.0330 H   0  0  0  0  0  0  0  0  0  0  0  0
   42.1830   24.5900   35.7480 F   0  0  0  0  0  0  0  0  0  0  0  0
   42.3720   23.3230   36.0860 C   0  0  0  0  0  0  0  0  0  0  0  0
   41.3900   22.6810   36.7510 C   0  0  0  0  0  0  0  0  0  0  0  0
   41.7040   21.3460   37.0550 C   0  0  0  0  0  0  0  0  0  0  0  0
   42.8900   20.7630   36.7060 C   0  0  0  0  0  0  0  0  0  0  0  0
   43.8550   21.4710   36.0260 C   0  0  0  0  0  0  0  0  0  0  0  0
   43.5770   22.7700   35.7190 C   0  0  0  0  0  0  0  0  0  0  0  0
   40.9820   20.7300   37.5930 H   0  0  0  0  0  0  0  0  0  0  0  0
   43.0750   19.7170   36.9720 H   0  0  0  0  0  0  0  0  0  0  0  0
   44.7880   20.9770   35.7640 H   0  0  0  0  0  0  0  0  0  0  0  0
   44.3300   23.3350   35.1830 H   0  0  0  0  0  0  0  0  0  0  0  0
  1 27  1  0  0  0  0
  2  1  1  0  0  0  0
  3  1  1  0  0  0  0
  4  1  1  0  0  0  0
  5  4  2  0  0  0  0
  6  7  2  0  0  0  0
  6  5  1  0  0  0  0
  7  8  1  0  0  0  0
  8  9  2  0  0  0  0
  9  4  1  0  0  0  0
 10  5  1  0  0  0  0
 11  6  1  0  0  0  0
 12  8  1  0  0  0  0
 12 14  1  0  0  0  0
 12 15  1  0  0  0  0
 13 12  1  0  0  0  0
 15 26  1  0  0  0  0
 16 15  2  0  0  0  0
 16 17  1  0  0  0  0
 17 18  2  0  0  0  0
 18 19  1  0  0  0  0
 19 20  1  0  0  0  0
 20 21  2  0  0  0  0
 21 22  1  0  0  0  0
 23 24  1  0  0  0  0
 23 21  1  0  0  0  0
 25 23  2  0  0  0  0
 26 25  1  0  0  0  0
 26 19  2  0  0  0  0
 27 30  1  0  0  0  0
 27 29  1  0  0  0  0
 27 28  1  0  0  0  0
 30 35  1  0  0  0  0
 31 37  1  0  0  0  0
 32 31  1  0  0  0  0
 32 38  1  0  0  0  0
 33 32  2  0  0  0  0
 34 35  2  0  0  0  0
 34 33  1  0  0  0  0
 35 36  1  0  0  0  0
 36 31  2  0  0  0  0
 39 40  1  0  0  0  0
 40 41  1  0  0  0  0
 41 42  2  0  0  0  0
 41 33  1  0  0  0  0
 42 46  1  0  0  0  0
 43 47  1  0  0  0  0
 43 42  1  0  0  0  0
 44 43  2  0  0  0  0
 45 44  1  0  0  0  0
 45 40  2  0  0  0  0
 48 44  1  0  0  0  0
 49 45  1  0  0  0  0
M  END
>  <minimizedAffinity>
-6.86632061

$$$$

 OpenBabel03272509593D

 49 53  0  0  0  0  0  0  0  0999 V2000
   38.4020   26.4340   34.5970 C   0  0  0  0  0  0  0  0  0  0  0  0
   38.9260   27.3730   34.9160 H   0  0  0  0  0  0  0  0  0  0  0  0
   39.1530   25.7950   34.1310 H   0  0  0  0  0  0  0  0  0  0  0  0
   37.4030   26.8410   33.5680 C   0  0  0  0  0  0  0  0  0  0  0  0
   37.0330   25.9020   32.6250 C   0  0  0  0  0  0  0  0  0  0  0  0
   36.1220   26.2040   31.6480 C   0  0  0  0  0  0  0  0  0  0  0  0
   35.5800   27.4210   31.6000 N   0  0  0  0  0  0  0  0  0  0  0  0
   35.9510   28.3470   32.5350 C   0  0  0  0  0  0  0  0  0  0  0  0
   36.8370   28.0470   33.4830 N   0  0  0  0  0  0  0  0  0  0  0  0
   37.4310   24.9060   32.6090 H   0  0  0  0  0  0  0  0  0  0  0  0
   35.7920   25.5050   30.8800 H   0  0  0  0  0  0  0  0  0  0  0  0
   35.3000   29.6760   32.4280 C   0  0  0  0  0  0  0  0  0  0  0  0
   34.8620   29.8490   31.4230 H   0  0  0  0  0  0  0  0  0  0  0  0
   36.0700   30.4600   32.5430 H   0  0  0  0  0  0  0  0  0  0  0  0
   34.3040   29.8530   33.5130 C   0  0  0  0  0  0  0  0  0  0  0  0
   33.0900   29.2460   33.3440 N   0  0  0  0  0  0  0  0  0  0  0  0
   32.0800   29.3520   34.2150 C   0  0  0  0  0  3  0  0  0  0  0  0
   32.1850   30.0760   35.3410 N   0  0  0  0  0  0  0  0  0  0  0  0
   33.3790   30.7000   35.5550 C   0  0  0  0  0  0  0  0  0  0  0  0
   33.5740   31.4550   36.6960 C   0  0  0  0  0  3  0  0  0  0  0  0
   34.7760   32.0800   36.9310 C   0  0  0  0  0  0  0  0  0  0  0  0
   34.8230   32.6450   37.8540 H   0  0  0  0  0  0  0  0  0  0  0  0
   35.8130   31.9490   36.0040 C   0  0  0  0  0  0  0  0  0  0  0  0
   36.7360   32.4600   36.2440 H   0  0  0  0  0  0  0  0  0  0  0  0
   35.6310   31.2030   34.8680 C   0  0  0  0  0  3  0  0  0  0  0  0
   34.4180   30.5960   34.6680 C   0  0  0  0  0  0  0  0  0  0  0  0
   37.7700   25.8520   35.8240 C   0  0  0  0  0  0  0  0  0  0  0  0
   37.6240   26.5830   36.6440 H   0  0  0  0  0  0  0  0  0  0  0  0
   36.7870   25.4560   35.5420 H   0  0  0  0  0  0  0  0  0  0  0  0
   38.5780   24.7970   36.3500 O   0  0  0  0  0  0  0  0  0  0  0  0
   40.6020   22.5080   34.4070 C   0  0  0  0  0  0  0  0  0  0  0  0
   39.5960   21.8890   33.6230 C   0  0  0  0  0  0  0  0  0  0  0  0
   38.2880   22.3030   33.8170 C   0  0  0  0  0  0  0  0  0  0  0  0
   38.0830   23.2780   34.7550 N   0  0  0  0  0  0  0  0  0  0  0  0
   39.0410   23.8530   35.4870 C   0  0  0  0  0  0  0  0  0  0  0  0
   40.3270   23.4510   35.3000 N   0  0  0  0  0  0  0  0  0  0  0  0
   41.6160   22.1620   34.2300 H   0  0  0  0  0  0  0  0  0  0  0  0
   39.7700   21.1320   32.8980 H   0  0  0  0  0  0  0  0  0  0  0  0
   37.3760   22.9570   31.1480 F   0  0  0  0  0  0  0  0  0  0  0  0
   36.6970   22.0810   31.8750 C   0  0  0  0  0  0  0  0  0  0  0  0
   37.1420   21.7920   33.1140 C   0  0  0  0  0  0  0  0  0  0  0  0
   36.3440   20.8520   33.7870 C   0  0  0  0  0  0  0  0  0  0  0  0
   35.2270   20.2920   33.2320 C   0  0  0  0  0  0  0  0  0  0  0  0
   34.8230   20.6290   31.9610 C   0  0  0  0  0  0  0  0  0  0  0  0
   35.5790   21.5390   31.2840 C   0  0  0  0  0  0  0  0  0  0  0  0
   36.6100   20.5420   34.7980 H   0  0  0  0  0  0  0  0  0  0  0  0
   34.6450   19.5650   33.8090 H   0  0  0  0  0  0  0  0  0  0  0  0
   33.9290   20.1650   31.5500 H   0  0  0  0  0  0  0  0  0  0  0  0
   35.2680   21.8100   30.2830 H   0  0  0  0  0  0  0  0  0  0  0  0
  1  2  1  0  0  0  0
  1 27  1  0  0  0  0
  3  1  1  0  0  0  0
  4  1  1  0  0  0  0
  5  4  2  0  0  0  0
  6  5  1  0  0  0  0
  7  6  2  0  0  0  0
  7  8  1  0  0  0  0
  8  9  2  0  0  0  0
  9  4  1  0  0  0  0
 10  5  1  0  0  0  0
 11  6  1  0  0  0  0
 12  8  1  0  0  0  0
 12 14  1  0  0  0  0
 12 15  1  0  0  0  0
 13 12  1  0  0  0  0
 15 26  1  0  0  0  0
 16 15  2  0  0  0  0
 16 17  1  0  0  0  0
 17 18  2  0  0  0  0
 18 19  1  0  0  0  0
 19 20  1  0  0  0  0
 20 21  2  0  0  0  0
 21 22  1  0  0  0  0
 23 24  1  0  0  0  0
 23 21  1  0  0  0  0
 25 23  2  0  0  0  0
 26 25  1  0  0  0  0
 26 19  2  0  0  0  0
 27 30  1  0  0  0  0
 27 28  1  0  0  0  0
 29 27  1  0  0  0  0
 31 36  1  0  0  0  0
 32 33  1  0  0  0  0
 32 31  2  0  0  0  0
 33 34  2  0  0  0  0
 34 35  1  0  0  0  0
 35 30  1  0  0  0  0
 36 35  2  0  0  0  0
 37 31  1  0  0  0  0
 38 32  1  0  0  0  0
 39 40  1  0  0  0  0
 40 41  1  0  0  0  0
 41 42  2  0  0  0  0
 41 33  1  0  0  0  0
 42 46  1  0  0  0  0
 43 42  1  0  0  0  0
 43 47  1  0  0  0  0
 44 43  2  0  0  0  0
 45 40  2  0  0  0  0
 45 44  1  0  0  0  0
 48 44  1  0  0  0  0
 49 45  1  0  0  0  0
M  END
>  <minimizedAffinity>
-6.79333544

$$$$

 OpenBabel03272509593D

 49 53  0  0  0  0  0  0  0  0999 V2000
   38.3020   26.6310   36.0680 C   0  0  0  0  0  0  0  0  0  0  0  0
   37.9830   27.3310   36.8840 H   0  0  0  0  0  0  0  0  0  0  0  0
   39.3930   26.6300   36.0600 H   0  0  0  0  0  0  0  0  0  0  0  0
   37.8060   27.2220   34.7920 C   0  0  0  0  0  0  0  0  0  0  0  0
   38.5390   26.9840   33.6460 C   0  0  0  0  0  0  0  0  0  0  0  0
   38.1460   27.4960   32.4390 C   0  0  0  0  0  0  0  0  0  0  0  0
   37.0400   28.2360   32.3600 N   0  0  0  0  0  0  0  0  0  0  0  0
   36.3190   28.4700   33.4990 C   0  0  0  0  0  0  0  0  0  0  0  0
   36.7060   27.9690   34.6700 N   0  0  0  0  0  0  0  0  0  0  0  0
   39.4360   26.3960   33.6410 H   0  0  0  0  0  0  0  0  0  0  0  0
   38.6820   27.3410   31.5020 H   0  0  0  0  0  0  0  0  0  0  0  0
   35.0940   29.2910   33.3350 C   0  0  0  0  0  0  0  0  0  0  0  0
   34.1840   28.6670   33.2170 H   0  0  0  0  0  0  0  0  0  0  0  0
   35.1730   29.8630   32.3930 H   0  0  0  0  0  0  0  0  0  0  0  0
   34.9700   30.2630   34.4480 C   0  0  0  0  0  0  0  0  0  0  0  0
   36.0280   31.1030   34.6570 N   0  0  0  0  0  0  0  0  0  0  0  0
   36.0780   32.0010   35.6480 C   0  0  0  0  0  3  0  0  0  0  0  0
   35.0740   32.1460   36.5280 N   0  0  0  0  0  0  0  0  0  0  0  0
   33.9940   31.3300   36.3600 C   0  0  0  0  0  0  0  0  0  0  0  0
   32.9120   31.4230   37.2150 C   0  0  0  0  0  3  0  0  0  0  0  0
   31.8110   30.6160   37.0500 C   0  0  0  0  0  0  0  0  0  0  0  0
   31.0200   30.7710   37.7740 H   0  0  0  0  0  0  0  0  0  0  0  0
   31.7880   29.6900   36.0040 C   0  0  0  0  0  0  0  0  0  0  0  0
   30.8940   29.0850   35.9220 H   0  0  0  0  0  0  0  0  0  0  0  0
   32.8550   29.5870   35.1510 C   0  0  0  0  0  3  0  0  0  0  0  0
   33.9350   30.4080   35.3480 C   0  0  0  0  0  0  0  0  0  0  0  0
   37.6850   25.3000   36.3720 C   0  0  0  0  0  0  0  0  0  0  0  0
   36.9670   25.3200   37.2160 H   0  0  0  0  0  0  0  0  0  0  0  0
   37.1490   24.9640   35.4760 H   0  0  0  0  0  0  0  0  0  0  0  0
   38.6950   24.3470   36.7110 O   0  0  0  0  0  0  0  0  0  0  0  0
   40.7110   22.3650   34.4500 C   0  0  0  0  0  0  0  0  0  0  0  0
   39.6940   21.7950   33.6430 C   0  0  0  0  0  0  0  0  0  0  0  0
   38.3820   22.1330   33.9330 C   0  0  0  0  0  0  0  0  0  0  0  0
   38.1840   22.9920   34.9810 N   0  0  0  0  0  0  0  0  0  0  0  0
   39.1530   23.5220   35.7330 C   0  0  0  0  0  0  0  0  0  0  0  0
   40.4420   23.1940   35.4520 N   0  0  0  0  0  0  0  0  0  0  0  0
   41.7280   22.0810   34.1960 H   0  0  0  0  0  0  0  0  0  0  0  0
   39.8620   21.1290   32.8340 H   0  0  0  0  0  0  0  0  0  0  0  0
   36.1340   20.6290   34.9670 F   0  0  0  0  0  0  0  0  0  0  0  0
   36.1690   20.9540   33.6820 C   0  0  0  0  0  0  0  0  0  0  0  0
   37.2250   21.6550   33.2250 C   0  0  0  0  0  0  0  0  0  0  0  0
   37.1520   21.9420   31.8510 C   0  0  0  0  0  0  0  0  0  0  0  0
   36.1080   21.5420   31.0640 C   0  0  0  0  0  0  0  0  0  0  0  0
   35.0560   20.8270   31.5900 C   0  0  0  0  0  0  0  0  0  0  0  0
   35.1020   20.5360   32.9210 C   0  0  0  0  0  0  0  0  0  0  0  0
   37.9530   22.5050   31.3730 H   0  0  0  0  0  0  0  0  0  0  0  0
   36.1090   21.7960   29.9980 H   0  0  0  0  0  0  0  0  0  0  0  0
   34.2420   20.5250   30.9350 H   0  0  0  0  0  0  0  0  0  0  0  0
   34.2790   19.9730   33.3430 H   0  0  0  0  0  0  0  0  0  0  0  0
  1 27  1  0  0  0  0
  1  2  1  0  0  0  0
  3  1  1  0  0  0  0
  4  1  1  0  0  0  0
  5  4  2  0  0  0  0
  6  5  1  0  0  0  0
  7  6  2  0  0  0  0
  7  8  1  0  0  0  0
  8  9  2  0  0  0  0
  9  4  1  0  0  0  0
 10  5  1  0  0  0  0
 11  6  1  0  0  0  0
 12  8  1  0  0  0  0
 12 15  1  0  0  0  0
 13 12  1  0  0  0  0
 14 12  1  0  0  0  0
 15 16  2  0  0  0  0
 15 26  1  0  0  0  0
 16 17  1  0  0  0  0
 17 18  2  0  0  0  0
 19 18  1  0  0  0  0
 19 20  1  0  0  0  0
 21 20  2  0  0  0  0
 21 22  1  0  0  0  0
 23 21  1  0  0  0  0
 24 23  1  0  0  0  0
 25 26  1  0  0  0  0
 25 23  2  0  0  0  0
 26 19  2  0  0  0  0
 27 30  1  0  0  0  0
 27 28  1  0  0  0  0
 29 27  1  0  0  0  0
 31 36  1  0  0  0  0
 32 33  1  0  0  0  0
 32 31  2  0  0  0  0
 33 34  2  0  0  0  0
 34 35  1  0  0  0  0
 35 30  1  0  0  0  0
 36 35  2  0  0  0  0
 37 31  1  0  0  0  0
 38 32  1  0  0  0  0
 40 39  1  0  0  0  0
 41 40  1  0  0  0  0
 41 33  1  0  0  0  0
 42 41  2  0  0  0  0
 43 44  2  0  0  0  0
 43 42  1  0  0  0  0
 44 45  1  0  0  0  0
 45 49  1  0  0  0  0
 45 40  2  0  0  0  0
 46 42  1  0  0  0  0
 47 43  1  0  0  0  0
 48 44  1  0  0  0  0
M  END
>  <minimizedAffinity>
-6.75190067

$$$$

 OpenBabel03272509593D

 49 53  0  0  0  0  0  0  0  0999 V2000
   38.5220   27.1820   34.2260 C   0  0  0  0  0  0  0  0  0  0  0  0
   39.1230   28.0690   34.5560 H   0  0  0  0  0  0  0  0  0  0  0  0
   39.2160   26.4920   33.7430 H   0  0  0  0  0  0  0  0  0  0  0  0
   37.5530   27.6870   33.2130 C   0  0  0  0  0  0  0  0  0  0  0  0
   37.8250   27.4370   31.8820 C   0  0  0  0  0  0  0  0  0  0  0  0
   36.9810   27.8720   30.8960 C   0  0  0  0  0  0  0  0  0  0  0  0
   35.8770   28.5470   31.2170 N   0  0  0  0  0  0  0  0  0  0  0  0
   35.6130   28.7930   32.5360 C   0  0  0  0  0  0  0  0  0  0  0  0
   36.4380   28.3670   33.4910 N   0  0  0  0  0  0  0  0  0  0  0  0
   38.6940   26.8990   31.5580 H   0  0  0  0  0  0  0  0  0  0  0  0
   37.1430   27.7040   29.8310 H   0  0  0  0  0  0  0  0  0  0  0  0
   34.3620   29.5390   32.8210 C   0  0  0  0  0  0  0  0  0  0  0  0
   33.5230   28.8640   33.0880 H   0  0  0  0  0  0  0  0  0  0  0  0
   34.0360   30.0500   31.8970 H   0  0  0  0  0  0  0  0  0  0  0  0
   34.6010   30.5750   33.8540 C   0  0  0  0  0  0  0  0  0  0  0  0
   35.6220   31.4560   33.6240 N   0  0  0  0  0  0  0  0  0  0  0  0
   35.9820   32.4150   34.4840 C   0  0  0  0  0  3  0  0  0  0  0  0
   35.3580   32.5880   35.6600 N   0  0  0  0  0  0  0  0  0  0  0  0
   34.3310   31.7330   35.9350 C   0  0  0  0  0  0  0  0  0  0  0  0
   33.6270   31.8510   37.1190 C   0  0  0  0  0  3  0  0  0  0  0  0
   32.5810   31.0040   37.4040 C   0  0  0  0  0  0  0  0  0  0  0  0
   32.0980   31.1830   38.3570 H   0  0  0  0  0  0  0  0  0  0  0  0
   32.2270   30.0140   36.4850 C   0  0  0  0  0  0  0  0  0  0  0  0
   31.3940   29.3810   36.7620 H   0  0  0  0  0  0  0  0  0  0  0  0
   32.9180   29.8870   35.3080 C   0  0  0  0  0  3  0  0  0  0  0  0
   33.9550   30.7490   35.0590 C   0  0  0  0  0  0  0  0  0  0  0  0
   37.8540   26.6310   35.4480 C   0  0  0  0  0  0  0  0  0  0  0  0
   38.3900   26.8540   36.3920 H   0  0  0  0  0  0  0  0  0  0  0  0
   36.8530   27.0720   35.5130 H   0  0  0  0  0  0  0  0  0  0  0  0
   37.7460   25.2090   35.3600 O   0  0  0  0  0  0  0  0  0  0  0  0
   38.1790   23.4550   38.4990 C   0  0  0  0  0  0  0  0  0  0  0  0
   39.4660   22.8960   38.2960 C   0  0  0  0  0  0  0  0  0  0  0  0
   40.0970   23.1620   37.0920 C   0  0  0  0  0  0  0  0  0  0  0  0
   39.4170   23.9450   36.1990 N   0  0  0  0  0  0  0  0  0  0  0  0
   38.2040   24.4650   36.4020 C   0  0  0  0  0  0  0  0  0  0  0  0
   37.5800   24.2080   37.5830 N   0  0  0  0  0  0  0  0  0  0  0  0
   37.7120   23.2290   39.4520 H   0  0  0  0  0  0  0  0  0  0  0  0
   39.9820   22.2890   38.9980 H   0  0  0  0  0  0  0  0  0  0  0  0
   42.2340   24.6090   35.7790 F   0  0  0  0  0  0  0  0  0  0  0  0
   42.4090   23.3360   36.1030 C   0  0  0  0  0  0  0  0  0  0  0  0
   41.4000   22.6830   36.7140 C   0  0  0  0  0  0  0  0  0  0  0  0
   41.7000   21.3420   37.0080 C   0  0  0  0  0  0  0  0  0  0  0  0
   42.9000   20.7650   36.6980 C   0  0  0  0  0  0  0  0  0  0  0  0
   43.8930   21.4850   36.0720 C   0  0  0  0  0  0  0  0  0  0  0  0
   43.6280   22.7890   35.7760 C   0  0  0  0  0  0  0  0  0  0  0  0
   40.9570   20.7180   37.5030 H   0  0  0  0  0  0  0  0  0  0  0  0
   43.0740   19.7140   36.9530 H   0  0  0  0  0  0  0  0  0  0  0  0
   44.8360   20.9940   35.8400 H   0  0  0  0  0  0  0  0  0  0  0  0
   44.4030   23.3620   35.2830 H   0  0  0  0  0  0  0  0  0  0  0  0
  1  2  1  0  0  0  0
  1 27  1  0  0  0  0
  3  1  1  0  0  0  0
  4  9  1  0  0  0  0
  4  1  1  0  0  0  0
  5  4  2  0  0  0  0
  6  7  2  0  0  0  0
  6  5  1  0  0  0  0
  7  8  1  0  0  0  0
  8 12  1  0  0  0  0
  8  9  2  0  0  0  0
 10  5  1  0  0  0  0
 11  6  1  0  0  0  0
 12 13  1  0  0  0  0
 12 15  1  0  0  0  0
 14 12  1  0  0  0  0
 15 26  1  0  0  0  0
 16 15  2  0  0  0  0
 16 17  1  0  0  0  0
 17 18  2  0  0  0  0
 18 19  1  0  0  0  0
 19 20  1  0  0  0  0
 20 21  2  0  0  0  0
 21 22  1  0  0  0  0
 23 24  1  0  0  0  0
 23 21  1  0  0  0  0
 25 23  2  0  0  0  0
 26 25  1  0  0  0  0
 26 19  2  0  0  0  0
 27 29  1  0  0  0  0
 27 28  1  0  0  0  0
 30 27  1  0  0  0  0
 30 35  1  0  0  0  0
 31 37  1  0  0  0  0
 32 31  1  0  0  0  0
 32 38  1  0  0  0  0
 33 32  2  0  0  0  0
 34 35  2  0  0  0  0
 34 33  1  0  0  0  0
 35 36  1  0  0  0  0
 36 31  2  0  0  0  0
 39 40  1  0  0  0  0
 40 41  1  0  0  0  0
 41 42  2  0  0  0  0
 41 33  1  0  0  0  0
 42 46  1  0  0  0  0
 43 47  1  0  0  0  0
 43 42  1  0  0  0  0
 44 43  2  0  0  0  0
 45 44  1  0  0  0  0
 45 40  2  0  0  0  0
 48 44  1  0  0  0  0
 49 45  1  0  0  0  0
M  END
>  <minimizedAffinity>
-6.75041246

$$$$

 OpenBabel03272509593D

 49 53  0  0  0  0  0  0  0  0999 V2000
   38.5540   26.3060   35.5870 C   0  0  0  0  0  0  0  0  0  0  0  0
   39.5990   26.4790   35.9560 H   0  0  0  0  0  0  0  0  0  0  0  0
   37.8830   26.7760   36.3080 H   0  0  0  0  0  0  0  0  0  0  0  0
   38.3400   24.8310   35.6110 C   0  0  0  0  0  0  0  0  0  0  0  0
   37.6910   24.2940   36.7050 C   0  0  0  0  0  0  0  0  0  0  0  0
   37.4600   22.9470   36.7980 C   0  0  0  0  0  0  0  0  0  0  0  0
   37.8650   22.1360   35.8200 N   0  0  0  0  0  0  0  0  0  0  0  0
   38.5080   22.6740   34.7390 C   0  0  0  0  0  0  0  0  0  0  0  0
   38.7290   23.9850   34.6550 N   0  0  0  0  0  0  0  0  0  0  0  0
   37.3400   24.8910   37.5240 H   0  0  0  0  0  0  0  0  0  0  0  0
   36.9540   22.4670   37.6350 H   0  0  0  0  0  0  0  0  0  0  0  0
   38.9200   21.7150   33.6840 C   0  0  0  0  0  0  0  0  0  0  0  0
   39.3300   20.7750   34.1090 H   0  0  0  0  0  0  0  0  0  0  0  0
   39.7530   22.1560   33.1090 H   0  0  0  0  0  0  0  0  0  0  0  0
   37.8000   21.4660   32.7460 C   0  0  0  0  0  0  0  0  0  0  0  0
   36.6290   22.1300   32.9890 N   0  0  0  0  0  0  0  0  0  0  0  0
   35.5210   21.9740   32.2550 C   0  0  0  0  0  3  0  0  0  0  0  0
   35.4750   21.1370   31.2050 N   0  0  0  0  0  0  0  0  0  0  0  0
   36.6200   20.4520   30.9220 C   0  0  0  0  0  0  0  0  0  0  0  0
   36.6610   19.5810   29.8500 C   0  0  0  0  0  3  0  0  0  0  0  0
   37.8130   18.8930   29.5440 C   0  0  0  0  0  0  0  0  0  0  0  0
   37.7370   18.2370   28.6850 H   0  0  0  0  0  0  0  0  0  0  0  0
   38.9540   19.0790   30.3280 C   0  0  0  0  0  0  0  0  0  0  0  0
   39.8300   18.5140   30.0370 H   0  0  0  0  0  0  0  0  0  0  0  0
   38.9250   19.9400   31.3940 C   0  0  0  0  0  3  0  0  0  0  0  0
   37.7590   20.6070   31.6680 C   0  0  0  0  0  0  0  0  0  0  0  0
   38.4800   26.8830   34.2070 C   0  0  0  0  0  0  0  0  0  0  0  0
   38.8550   27.9240   34.1340 H   0  0  0  0  0  0  0  0  0  0  0  0
   39.0890   26.2560   33.5460 H   0  0  0  0  0  0  0  0  0  0  0  0
   37.1290   26.8980   33.7430 O   0  0  0  0  0  0  0  0  0  0  0  0
   36.1210   29.7080   31.6940 C   0  0  0  0  0  0  0  0  0  0  0  0
   35.4910   30.5180   32.6740 C   0  0  0  0  0  0  0  0  0  0  0  0
   35.4570   30.0400   33.9730 C   0  0  0  0  0  0  0  0  0  0  0  0
   36.0370   28.8210   34.1980 N   0  0  0  0  0  0  0  0  0  0  0  0
   36.6280   28.0680   33.2650 C   0  0  0  0  0  0  0  0  0  0  0  0
   36.6640   28.5330   31.9870 N   0  0  0  0  0  0  0  0  0  0  0  0
   36.1320   30.1110   30.6860 H   0  0  0  0  0  0  0  0  0  0  0  0
   35.0450   31.4620   32.4850 H   0  0  0  0  0  0  0  0  0  0  0  0
   36.7260   31.8260   35.8670 F   0  0  0  0  0  0  0  0  0  0  0  0
   35.4340   31.5550   35.9880 C   0  0  0  0  0  0  0  0  0  0  0  0
   34.8660   30.7220   35.0940 C   0  0  0  0  0  0  0  0  0  0  0  0
   33.4950   30.5100   35.3210 C   0  0  0  0  0  0  0  0  0  0  0  0
   32.8150   31.0960   36.3520 C   0  0  0  0  0  0  0  0  0  0  0  0
   33.4520   31.9380   37.2350 C   0  0  0  0  0  0  0  0  0  0  0  0
   34.7820   32.1620   37.0360 C   0  0  0  0  0  0  0  0  0  0  0  0
   32.9330   29.8540   34.6580 H   0  0  0  0  0  0  0  0  0  0  0  0
   31.7460   30.8910   36.4780 H   0  0  0  0  0  0  0  0  0  0  0  0
   32.8810   32.3870   38.0440 H   0  0  0  0  0  0  0  0  0  0  0  0
   35.2920   32.8230   37.7260 H   0  0  0  0  0  0  0  0  0  0  0  0
  1  4  1  0  0  0  0
  1  2  1  0  0  0  0
  1  3  1  0  0  0  0
  4  5  1  0  0  0  0
  5  6  2  0  0  0  0
  5 10  1  0  0  0  0
  6 11  1  0  0  0  0
  7  6  1  0  0  0  0
  8  7  2  0  0  0  0
  9  8  1  0  0  0  0
  9  4  2  0  0  0  0
 12 13  1  0  0  0  0
 12  8  1  0  0  0  0
 14 12  1  0  0  0  0
 15 16  1  0  0  0  0
 15 12  1  0  0  0  0
 17 16  2  0  0  0  0
 18 17  1  0  0  0  0
 19 18  2  0  0  0  0
 19 26  1  0  0  0  0
 20 19  1  0  0  0  0
 21 20  2  0  0  0  0
 21 23  1  0  0  0  0
 22 21  1  0  0  0  0
 23 25  2  0  0  0  0
 24 23  1  0  0  0  0
 25 26  1  0  0  0  0
 26 15  2  0  0  0  0
 27  1  1  0  0  0  0
 28 27  1  0  0  0  0
 29 27  1  0  0  0  0
 30 27  1  0  0  0  0
 31 36  2  0  0  0  0
 31 32  1  0  0  0  0
 32 33  2  0  0  0  0
 33 34  1  0  0  0  0
 33 41  1  0  0  0  0
 35 30  1  0  0  0  0
 35 34  2  0  0  0  0
 36 35  1  0  0  0  0
 37 31  1  0  0  0  0
 38 32  1  0  0  0  0
 39 40  1  0  0  0  0
 40 45  1  0  0  0  0
 41 42  1  0  0  0  0
 41 40  2  0  0  0  0
 42 43  2  0  0  0  0
 43 47  1  0  0  0  0
 43 44  1  0  0  0  0
 44 48  1  0  0  0  0
 45 44  2  0  0  0  0
 45 49  1  0  0  0  0
 46 42  1  0  0  0  0
M  END
>  <minimizedAffinity>
-6.65910435

$$$$

 OpenBabel03272509593D

 49 53  0  0  0  0  0  0  0  0999 V2000
   37.2210   22.3880   31.9920 C   0  0  0  0  0  0  0  0  0  0  0  0
   37.8260   22.0050   31.1280 H   0  0  0  0  0  0  0  0  0  0  0  0
   36.3800   21.7040   32.1160 H   0  0  0  0  0  0  0  0  0  0  0  0
   36.7070   23.7250   31.5830 C   0  0  0  0  0  0  0  0  0  0  0  0
   35.3660   23.8290   31.2680 C   0  0  0  0  0  0  0  0  0  0  0  0
   34.8230   25.0260   30.8830 C   0  0  0  0  0  0  0  0  0  0  0  0
   35.5940   26.1120   30.8090 N   0  0  0  0  0  0  0  0  0  0  0  0
   36.9210   26.0020   31.1210 C   0  0  0  0  0  0  0  0  0  0  0  0
   37.4430   24.8360   31.4950 N   0  0  0  0  0  0  0  0  0  0  0  0
   34.6930   22.9960   31.3080 H   0  0  0  0  0  0  0  0  0  0  0  0
   33.7740   25.1690   30.6230 H   0  0  0  0  0  0  0  0  0  0  0  0
   37.7150   27.2520   31.0280 C   0  0  0  0  0  0  0  0  0  0  0  0
   37.0840   28.1590   31.1340 H   0  0  0  0  0  0  0  0  0  0  0  0
   38.1490   27.3220   30.0140 H   0  0  0  0  0  0  0  0  0  0  0  0
   38.8340   27.2280   32.0010 C   0  0  0  0  0  0  0  0  0  0  0  0
   40.1000   27.2950   31.4900 N   0  0  0  0  0  0  0  0  0  0  0  0
   41.2070   27.2410   32.2400 C   0  0  0  0  0  3  0  0  0  0  0  0
   41.1550   27.1130   33.5760 N   0  0  0  0  0  0  0  0  0  0  0  0
   39.9120   27.0430   34.1330 C   0  0  0  0  0  0  0  0  0  0  0  0
   39.7710   26.9230   35.5030 C   0  0  0  0  0  3  0  0  0  0  0  0
   38.5240   26.8640   36.0800 C   0  0  0  0  0  0  0  0  0  0  0  0
   38.5250   26.7710   37.1590 H   0  0  0  0  0  0  0  0  0  0  0  0
   37.3870   26.9260   35.2700 C   0  0  0  0  0  0  0  0  0  0  0  0
   36.4340   26.8780   35.7810 H   0  0  0  0  0  0  0  0  0  0  0  0
   37.5150   27.0440   33.9110 C   0  0  0  0  0  3  0  0  0  0  0  0
   38.7750   27.0980   33.3720 C   0  0  0  0  0  0  0  0  0  0  0  0
   38.1430   22.4530   33.1710 C   0  0  0  0  0  0  0  0  0  0  0  0
   38.3750   21.4640   33.6150 H   0  0  0  0  0  0  0  0  0  0  0  0
   39.0850   22.9060   32.8390 H   0  0  0  0  0  0  0  0  0  0  0  0
   37.5690   23.2480   34.2100 O   0  0  0  0  0  0  0  0  0  0  0  0
   38.2680   23.2980   37.7620 C   0  0  0  0  0  0  0  0  0  0  0  0
   39.6660   23.0600   37.7450 C   0  0  0  0  0  0  0  0  0  0  0  0
   40.2720   22.9000   36.5100 C   0  0  0  0  0  0  0  0  0  0  0  0
   39.4630   22.9840   35.4100 N   0  0  0  0  0  0  0  0  0  0  0  0
   38.1460   23.2080   35.4410 C   0  0  0  0  0  0  0  0  0  0  0  0
   37.5460   23.3670   36.6500 N   0  0  0  0  0  0  0  0  0  0  0  0
   37.8230   23.4200   38.7450 H   0  0  0  0  0  0  0  0  0  0  0  0
   40.2820   22.9970   38.6080 H   0  0  0  0  0  0  0  0  0  0  0  0
   42.3220   24.7740   35.6920 F   0  0  0  0  0  0  0  0  0  0  0  0
   42.6450   23.5080   35.9180 C   0  0  0  0  0  0  0  0  0  0  0  0
   41.6740   22.6550   36.2990 C   0  0  0  0  0  0  0  0  0  0  0  0
   42.1340   21.3440   36.5100 C   0  0  0  0  0  0  0  0  0  0  0  0
   43.4410   20.9800   36.3400 C   0  0  0  0  0  0  0  0  0  0  0  0
   44.3880   21.8980   35.9490 C   0  0  0  0  0  0  0  0  0  0  0  0
   43.9690   23.1780   35.7380 C   0  0  0  0  0  0  0  0  0  0  0  0
   41.4340   20.5690   36.8210 H   0  0  0  0  0  0  0  0  0  0  0  0
   43.7380   19.9410   36.5200 H   0  0  0  0  0  0  0  0  0  0  0  0
   45.4190   21.5740   35.8230 H   0  0  0  0  0  0  0  0  0  0  0  0
   44.7070   23.9070   35.4280 H   0  0  0  0  0  0  0  0  0  0  0  0
  1  3  1  0  0  0  0
  1 27  1  0  0  0  0
  2  1  1  0  0  0  0
  4  1  1  0  0  0  0
  5 10  1  0  0  0  0
  5  4  2  0  0  0  0
  6  5  1  0  0  0  0
  7  6  2  0  0  0  0
  7  8  1  0  0  0  0
  8  9  2  0  0  0  0
  9  4  1  0  0  0  0
 11  6  1  0  0  0  0
 12  8  1  0  0  0  0
 12 13  1  0  0  0  0
 12 15  1  0  0  0  0
 14 12  1  0  0  0  0
 15 26  1  0  0  0  0
 16 15  2  0  0  0  0
 16 17  1  0  0  0  0
 17 18  2  0  0  0  0
 18 19  1  0  0  0  0
 19 20  1  0  0  0  0
 20 21  2  0  0  0  0
 21 22  1  0  0  0  0
 23 24  1  0  0  0  0
 23 21  1  0  0  0  0
 25 23  2  0  0  0  0
 26 25  1  0  0  0  0
 26 19  2  0  0  0  0
 27 28  1  0  0  0  0
 27 30  1  0  0  0  0
 29 27  1  0  0  0  0
 30 35  1  0  0  0  0
 31 37  1  0  0  0  0
 32 31  1  0  0  0  0
 32 38  1  0  0  0  0
 33 32  2  0  0  0  0
 34 35  2  0  0  0  0
 34 33  1  0  0  0  0
 35 36  1  0  0  0  0
 36 31  2  0  0  0  0
 39 40  1  0  0  0  0
 40 41  1  0  0  0  0
 41 33  1  0  0  0  0
 41 42  2  0  0  0  0
 42 46  1  0  0  0  0
 43 42  1  0  0  0  0
 43 47  1  0  0  0  0
 44 43  2  0  0  0  0
 45 40  2  0  0  0  0
 45 44  1  0  0  0  0
 48 44  1  0  0  0  0
 49 45  1  0  0  0  0
M  END
>  <minimizedAffinity>
-6.58832979

$$$$

 OpenBabel03272509593D

 49 53  0  0  0  0  0  0  0  0999 V2000
   35.9630   20.4630   32.6070 C   0  0  0  0  0  0  0  0  0  0  0  0
   35.7090   20.0960   33.6360 H   0  0  0  0  0  0  0  0  0  0  0  0
   35.6290   19.6960   31.9060 H   0  0  0  0  0  0  0  0  0  0  0  0
   37.4500   20.5570   32.5520 C   0  0  0  0  0  0  0  0  0  0  0  0
   38.1340   19.5530   31.8960 C   0  0  0  0  0  0  0  0  0  0  0  0
   39.5000   19.5720   31.8060 C   0  0  0  0  0  0  0  0  0  0  0  0
   40.1880   20.5720   32.3590 N   0  0  0  0  0  0  0  0  0  0  0  0
   39.5050   21.5630   33.0090 C   0  0  0  0  0  0  0  0  0  0  0  0
   38.1760   21.5390   33.0920 N   0  0  0  0  0  0  0  0  0  0  0  0
   37.6410   18.7220   31.4300 H   0  0  0  0  0  0  0  0  0  0  0  0
   40.0930   18.8100   31.3020 H   0  0  0  0  0  0  0  0  0  0  0  0
   40.3320   22.6500   33.5890 C   0  0  0  0  0  0  0  0  0  0  0  0
   39.9070   23.6550   33.3860 H   0  0  0  0  0  0  0  0  0  0  0  0
   41.3180   22.6500   33.0900 H   0  0  0  0  0  0  0  0  0  0  0  0
   40.5540   22.4150   35.0360 C   0  0  0  0  0  0  0  0  0  0  0  0
   41.6180   21.6270   35.3790 N   0  0  0  0  0  0  0  0  0  0  0  0
   41.9170   21.2920   36.6390 C   0  0  0  0  0  3  0  0  0  0  0  0
   41.1820   21.7130   37.6810 N   0  0  0  0  0  0  0  0  0  0  0  0
   40.1100   22.5040   37.3900 C   0  0  0  0  0  0  0  0  0  0  0  0
   39.3080   22.9900   38.4050 C   0  0  0  0  0  3  0  0  0  0  0  0
   38.2310   23.7990   38.1270 C   0  0  0  0  0  0  0  0  0  0  0  0
   37.6700   24.1250   38.9950 H   0  0  0  0  0  0  0  0  0  0  0  0
   37.9460   24.1330   36.8010 C   0  0  0  0  0  0  0  0  0  0  0  0
   37.0880   24.7750   36.6440 H   0  0  0  0  0  0  0  0  0  0  0  0
   38.7330   23.6560   35.7860 C   0  0  0  0  0  3  0  0  0  0  0  0
   39.7970   22.8510   36.1010 C   0  0  0  0  0  0  0  0  0  0  0  0
   35.2880   21.7890   32.4400 C   0  0  0  0  0  0  0  0  0  0  0  0
   34.2040   21.7180   32.2200 H   0  0  0  0  0  0  0  0  0  0  0  0
   35.4100   22.3500   33.3740 H   0  0  0  0  0  0  0  0  0  0  0  0
   35.8810   22.5200   31.3630 O   0  0  0  0  0  0  0  0  0  0  0  0
   34.9980   25.9930   30.8450 C   0  0  0  0  0  0  0  0  0  0  0  0
   35.9420   26.6200   31.6990 C   0  0  0  0  0  0  0  0  0  0  0  0
   36.8170   25.8030   32.3940 C   0  0  0  0  0  0  0  0  0  0  0  0
   36.6930   24.4540   32.1950 N   0  0  0  0  0  0  0  0  0  0  0  0
   35.7990   23.8760   31.3870 C   0  0  0  0  0  0  0  0  0  0  0  0
   34.9370   24.6740   30.7020 N   0  0  0  0  0  0  0  0  0  0  0  0
   34.3270   26.6610   30.3140 H   0  0  0  0  0  0  0  0  0  0  0  0
   36.0260   27.6680   31.8440 H   0  0  0  0  0  0  0  0  0  0  0  0
   36.4950   27.1710   34.9260 F   0  0  0  0  0  0  0  0  0  0  0  0
   37.7140   26.8980   34.4800 C   0  0  0  0  0  0  0  0  0  0  0  0
   37.8380   26.2590   33.3000 C   0  0  0  0  0  0  0  0  0  0  0  0
   39.1730   26.0230   32.9310 C   0  0  0  0  0  0  0  0  0  0  0  0
   40.2350   26.4090   33.7010 C   0  0  0  0  0  0  0  0  0  0  0  0
   40.0430   27.0600   34.8990 C   0  0  0  0  0  0  0  0  0  0  0  0
   38.7570   27.3010   35.2810 C   0  0  0  0  0  0  0  0  0  0  0  0
   39.3930   25.5120   31.9940 H   0  0  0  0  0  0  0  0  0  0  0  0
   41.2540   26.1970   33.3590 H   0  0  0  0  0  0  0  0  0  0  0  0
   40.9110   27.3530   35.4860 H   0  0  0  0  0  0  0  0  0  0  0  0
   38.5970   27.8130   36.2210 H   0  0  0  0  0  0  0  0  0  0  0  0
  1  2  1  0  0  0  0
  3  1  1  0  0  0  0
  4  1  1  0  0  0  0
  4  9  1  0  0  0  0
  5  4  2  0  0  0  0
  6  5  1  0  0  0  0
  6  7  2  0  0  0  0
  7  8  1  0  0  0  0
  8  9  2  0  0  0  0
  8 12  1  0  0  0  0
 10  5  1  0  0  0  0
 11  6  1  0  0  0  0
 12 15  1  0  0  0  0
 13 12  1  0  0  0  0
 14 12  1  0  0  0  0
 15 16  2  0  0  0  0
 15 26  1  0  0  0  0
 16 17  1  0  0  0  0
 17 18  2  0  0  0  0
 19 18  1  0  0  0  0
 19 20  1  0  0  0  0
 21 20  2  0  0  0  0
 21 22  1  0  0  0  0
 23 21  1  0  0  0  0
 24 23  1  0  0  0  0
 25 26  1  0  0  0  0
 25 23  2  0  0  0  0
 26 19  2  0  0  0  0
 27  1  1  0  0  0  0
 27 29  1  0  0  0  0
 28 27  1  0  0  0  0
 30 35  1  0  0  0  0
 30 27  1  0  0  0  0
 31 32  1  0  0  0  0
 32 38  1  0  0  0  0
 32 33  2  0  0  0  0
 33 41  1  0  0  0  0
 34 33  1  0  0  0  0
 35 34  2  0  0  0  0
 36 31  2  0  0  0  0
 36 35  1  0  0  0  0
 37 31  1  0  0  0  0
 40 39  1  0  0  0  0
 40 45  1  0  0  0  0
 41 40  2  0  0  0  0
 42 41  1  0  0  0  0
 42 43  2  0  0  0  0
 43 44  1  0  0  0  0
 44 45  2  0  0  0  0
 44 48  1  0  0  0  0
 45 49  1  0  0  0  0
 46 42  1  0  0  0  0
 47 43  1  0  0  0  0
M  END
>  <minimizedAffinity>
-6.58408689

$$$$

 OpenBabel03272509593D

 49 53  0  0  0  0  0  0  0  0999 V2000
   36.1160   25.6750   31.1080 C   0  0  0  0  0  0  0  0  0  0  0  0
   37.1160   25.6780   30.6000 H   0  0  0  0  0  0  0  0  0  0  0  0
   35.3690   25.8710   30.3360 H   0  0  0  0  0  0  0  0  0  0  0  0
   36.1310   26.8120   32.0710 C   0  0  0  0  0  0  0  0  0  0  0  0
   37.0640   26.7800   33.0880 C   0  0  0  0  0  0  0  0  0  0  0  0
   37.1360   27.7890   34.0110 C   0  0  0  0  0  0  0  0  0  0  0  0
   36.2960   28.8220   33.9330 N   0  0  0  0  0  0  0  0  0  0  0  0
   35.3730   28.8470   32.9240 C   0  0  0  0  0  0  0  0  0  0  0  0
   35.3080   27.8630   32.0290 N   0  0  0  0  0  0  0  0  0  0  0  0
   37.7680   25.9800   33.2060 H   0  0  0  0  0  0  0  0  0  0  0  0
   37.8500   27.8190   34.8340 H   0  0  0  0  0  0  0  0  0  0  0  0
   34.4790   30.0310   32.8910 C   0  0  0  0  0  0  0  0  0  0  0  0
   33.8380   30.0470   31.9850 H   0  0  0  0  0  0  0  0  0  0  0  0
   35.1000   30.9430   32.8190 H   0  0  0  0  0  0  0  0  0  0  0  0
   33.6880   30.1170   34.1420 C   0  0  0  0  0  0  0  0  0  0  0  0
   32.6250   29.2650   34.2620 N   0  0  0  0  0  0  0  0  0  0  0  0
   31.7960   29.2560   35.3130 C   0  0  0  0  0  3  0  0  0  0  0  0
   31.9480   30.1010   36.3460 N   0  0  0  0  0  0  0  0  0  0  0  0
   32.9960   30.9700   36.2730 C   0  0  0  0  0  0  0  0  0  0  0  0
   33.2300   31.8640   37.3000 C   0  0  0  0  0  3  0  0  0  0  0  0
   34.2910   32.7380   37.2460 C   0  0  0  0  0  0  0  0  0  0  0  0
   34.3840   33.3940   38.1030 H   0  0  0  0  0  0  0  0  0  0  0  0
   35.1410   32.7210   36.1380 C   0  0  0  0  0  0  0  0  0  0  0  0
   35.9590   33.4290   36.1520 H   0  0  0  0  0  0  0  0  0  0  0  0
   34.9170   31.8400   35.1120 C   0  0  0  0  0  3  0  0  0  0  0  0
   33.8490   30.9850   35.2010 C   0  0  0  0  0  0  0  0  0  0  0  0
   35.9740   24.3440   31.7800 C   0  0  0  0  0  0  0  0  0  0  0  0
   35.8720   24.4050   32.8820 H   0  0  0  0  0  0  0  0  0  0  0  0
   35.0760   23.8580   31.3810 H   0  0  0  0  0  0  0  0  0  0  0  0
   37.1170   23.5270   31.5170 O   0  0  0  0  0  0  0  0  0  0  0  0
   40.5110   24.5050   32.3150 C   0  0  0  0  0  0  0  0  0  0  0  0
   40.4720   24.4070   33.7300 C   0  0  0  0  0  0  0  0  0  0  0  0
   39.2800   24.0090   34.3110 C   0  0  0  0  0  0  0  0  0  0  0  0
   38.2370   23.7470   33.4640 N   0  0  0  0  0  0  0  0  0  0  0  0
   38.2870   23.8440   32.1320 C   0  0  0  0  0  0  0  0  0  0  0  0
   39.4560   24.2330   31.5560 N   0  0  0  0  0  0  0  0  0  0  0  0
   41.4600   24.8180   31.8910 H   0  0  0  0  0  0  0  0  0  0  0  0
   41.2890   24.6140   34.3760 H   0  0  0  0  0  0  0  0  0  0  0  0
   37.2600   25.2650   35.9630 F   0  0  0  0  0  0  0  0  0  0  0  0
   38.1260   24.4250   36.5130 C   0  0  0  0  0  0  0  0  0  0  0  0
   39.0560   23.8520   35.7240 C   0  0  0  0  0  0  0  0  0  0  0  0
   39.9160   22.9830   36.4160 C   0  0  0  0  0  0  0  0  0  0  0  0
   39.8120   22.7490   37.7590 C   0  0  0  0  0  0  0  0  0  0  0  0
   38.8390   23.3650   38.5130 C   0  0  0  0  0  0  0  0  0  0  0  0
   37.9910   24.2140   37.8660 C   0  0  0  0  0  0  0  0  0  0  0  0
   40.7070   22.4630   35.8760 H   0  0  0  0  0  0  0  0  0  0  0  0
   40.5130   22.0600   38.2410 H   0  0  0  0  0  0  0  0  0  0  0  0
   38.7850   23.1560   39.5790 H   0  0  0  0  0  0  0  0  0  0  0  0
   37.2230   24.7040   38.4520 H   0  0  0  0  0  0  0  0  0  0  0  0
  1 27  1  0  0  0  0
  1  4  1  0  0  0  0
  2  1  1  0  0  0  0
  3  1  1  0  0  0  0
  4  5  1  0  0  0  0
  5 10  1  0  0  0  0
  5  6  2  0  0  0  0
  6 11  1  0  0  0  0
  7  6  1  0  0  0  0
  8  7  2  0  0  0  0
  9  4  2  0  0  0  0
  9  8  1  0  0  0  0
 12  8  1  0  0  0  0
 12 15  1  0  0  0  0
 13 12  1  0  0  0  0
 14 12  1  0  0  0  0
 15 16  2  0  0  0  0
 15 26  1  0  0  0  0
 16 17  1  0  0  0  0
 17 18  2  0  0  0  0
 19 18  1  0  0  0  0
 19 20  1  0  0  0  0
 21 20  2  0  0  0  0
 21 22  1  0  0  0  0
 23 24  1  0  0  0  0
 23 21  1  0  0  0  0
 25 26  1  0  0  0  0
 25 23  2  0  0  0  0
 26 19  2  0  0  0  0
 27 28  1  0  0  0  0
 29 27  1  0  0  0  0
 30 27  1  0  0  0  0
 30 35  1  0  0  0  0
 31 32  1  0  0  0  0
 32 33  2  0  0  0  0
 32 38  1  0  0  0  0
 33 41  1  0  0  0  0
 34 33  1  0  0  0  0
 35 34  2  0  0  0  0
 36 35  1  0  0  0  0
 36 31  2  0  0  0  0
 37 31  1  0  0  0  0
 39 40  1  0  0  0  0
 40 45  1  0  0  0  0
 41 42  1  0  0  0  0
 41 40  2  0  0  0  0
 42 43  2  0  0  0  0
 43 47  1  0  0  0  0
 43 44  1  0  0  0  0
 44 48  1  0  0  0  0
 45 49  1  0  0  0  0
 45 44  2  0  0  0  0
 46 42  1  0  0  0  0
M  END
>  <minimizedAffinity>
-6.5502286

$$$$
