
     RDKit          3D

 39 42  0  0  0  0  0  0  0  0999 V2000
   36.9819   31.5722   48.6687 C   0  0  1  0  0  0  0  0  0  0  0  0
   36.2127   30.9202   47.6349 C   0  0  0  0  0  0  0  0  0  0  0  0
   37.1758   30.1344   48.4676 C   0  0  2  0  0  0  0  0  0  0  0  0
   38.1455   32.4616   48.3262 C   0  0  0  0  0  0  0  0  0  0  0  0
   38.5358   33.3736   49.3210 C   0  0  0  0  0  0  0  0  0  0  0  0
   39.6039   34.1747   48.9850 C   0  0  0  0  0  0  0  0  0  0  0  0
   40.1989   34.0542   47.7769 N   0  0  0  0  0  0  0  0  0  0  0  0
   39.7926   33.1603   46.8437 C   0  0  0  0  0  0  0  0  0  0  0  0
   38.7288   32.3361   47.1278 N   0  0  0  0  0  0  0  0  0  0  0  0
   40.4053   32.9956   45.5966 N   0  0  0  0  0  0  0  0  0  0  0  0
   36.5961   29.3088   49.4346 O   0  0  0  0  0  0  0  0  0  0  0  0
   34.6273   27.6678   49.6965 O   0  0  0  0  0  0  0  0  0  0  0  0
   35.0187   28.9507   49.0366 P   0  0  1  0  0  0  0  0  0  0  0  0
   33.9731   30.1477   49.7304 O   0  0  0  0  0  0  0  0  0  0  0  0
   34.8567   28.9490   47.3675 O   0  0  0  0  0  0  0  0  0  0  0  0
   36.5407   31.8405   49.6901 H   0  0  0  0  0  0  0  0  0  0  0  0
   35.1792   31.1666   47.7996 H   0  0  0  0  0  0  0  0  0  0  0  0
   36.5161   31.1065   46.5848 H   0  0  0  0  0  0  0  0  0  0  0  0
   37.8771   29.6212   47.8316 H   0  0  0  0  0  0  0  0  0  0  0  0
   38.0795   33.4788   50.2720 H   0  0  0  0  0  0  0  0  0  0  0  0
   39.9616   34.9028   49.7006 H   0  0  0  0  0  0  0  0  0  0  0  0
   41.3221   32.4707   45.4788 H   0  0  0  0  0  0  0  0  0  0  0  0
   39.9428   33.4032   44.7598 H   0  0  0  0  0  0  0  0  0  0  0  0
   33.0697   29.7831   49.5613 H   0  0  0  0  0  0  0  0  0  0  0  0
   35.0790   27.9327   46.4876 C   0  0  0  0  0  0  0  0  0  0  0  0
   34.6656   26.6759   46.6503 N   0  0  0  0  0  0  0  0  0  0  0  0
   34.9653   25.7856   45.6891 C   0  0  0  0  0  0  0  0  0  0  0  0
   35.6629   26.1178   44.5770 N   0  0  0  0  0  0  0  0  0  0  0  0
   36.1022   27.3721   44.3664 C   0  0  0  0  0  0  0  0  0  0  0  0
   36.8177   27.7457   43.2411 C   0  0  0  0  0  0  0  0  0  0  0  0
   37.2463   29.0310   43.0644 C   0  0  0  0  0  0  0  0  0  0  0  0
   37.8051   29.3524   42.1996 H   0  0  0  0  0  0  0  0  0  0  0  0
   36.9609   29.9643   44.0200 C   0  0  0  0  0  0  0  0  0  0  0  0
   37.2903   30.9898   43.9017 H   0  0  0  0  0  0  0  0  0  0  0  0
   36.2473   29.5818   45.1373 C   0  0  0  0  0  0  0  0  0  0  0  0
   35.8016   28.3046   45.3489 C   0  0  0  0  0  0  0  0  0  0  0  0
   34.7082   24.7376   45.6654 H   0  0  0  0  0  0  0  0  0  0  0  0
   37.0452   27.0229   42.4896 H   0  0  0  0  0  0  0  0  0  0  0  0
   36.0320   30.3192   45.8738 H   0  0  0  0  0  0  0  0  0  0  0  0
  2  3  1  0
  2  1  1  0
  3  1  1  0
  3 11  1  0
  4  1  1  0
  4  5  2  0
  6  5  1  0
  7  6  2  0
  8  9  2  0
  8  7  1  0
  9  4  1  0
 10  8  1  0
 13 11  1  6
 13 12  2  0
 13 14  1  0
 15 13  1  0
  1 16  1  1
  2 17  1  0
  2 18  1  0
  3 19  1  6
  5 20  1  0
  6 21  1  0
 10 22  1  0
 10 23  1  0
 14 24  1  0
 25 26  2  0
 26 27  1  0
 27 28  2  0
 28 29  1  0
 29 30  2  0
 30 31  1  0
 31 32  1  0
 31 33  2  0
 33 34  1  0
 33 35  1  0
 35 36  2  0
 36 25  1  0
 36 29  1  0
 27 37  1  0
 30 38  1  0
 35 39  1  0
 15 25  1  0
M  ISO  8  16  13  17  13  18  13  19  13  20  14  21  14  24   3  32  16
M  ISO  1  34  16
M  END
>  <DihAtoms>  (1) 
12,14,24,25

>  <DihDeg>  (1) 
0.0005983336159526629

$$$$
