
 OpenBabel03272509583D

 49 53  0  0  0  0  0  0  0  0999 V2000
   33.4140   28.1780   47.0630 C   0  0  0  0  0  0  0  0  0  0  0  0
   33.3850   28.5060   45.9910 H   0  0  0  0  0  0  0  0  0  0  0  0
   33.7970   27.1560   47.0720 H   0  0  0  0  0  0  0  0  0  0  0  0
   32.0010   28.1720   47.5380 C   0  0  0  0  0  0  0  0  0  0  0  0
   31.7440   27.6370   48.7850 C   0  0  0  0  0  0  0  0  0  0  0  0
   30.4710   27.5960   49.2860 C   0  0  0  0  0  0  0  0  0  0  0  0
   29.4580   28.0780   48.5650 N   0  0  0  0  0  0  0  0  0  0  0  0
   29.7180   28.6050   47.3300 C   0  0  0  0  0  0  0  0  0  0  0  0
   30.9590   28.6420   46.8490 N   0  0  0  0  0  0  0  0  0  0  0  0
   32.5140   27.2350   49.4150 H   0  0  0  0  0  0  0  0  0  0  0  0
   30.2080   27.1880   50.2620 H   0  0  0  0  0  0  0  0  0  0  0  0
   28.5460   29.1330   46.5890 C   0  0  0  0  0  0  0  0  0  0  0  0
   28.4010   30.2210   46.7550 H   0  0  0  0  0  0  0  0  0  0  0  0
   27.6310   28.6580   46.9880 H   0  0  0  0  0  0  0  0  0  0  0  0
   28.6470   28.7920   45.1500 C   0  0  0  0  0  0  0  0  0  0  0  0
   28.8960   29.8220   44.2850 N   0  0  0  0  0  0  0  0  0  0  0  0
   28.9680   29.6760   42.9580 C   0  0  0  0  0  3  0  0  0  0  0  0
   28.7990   28.4830   42.3640 N   0  0  0  0  0  0  0  0  0  0  0  0
   28.5490   27.4230   43.1850 C   0  0  0  0  0  0  0  0  0  0  0  0
   28.3750   26.1590   42.6540 C   0  0  0  0  0  3  0  0  0  0  0  0
   28.1350   25.0780   43.4710 C   0  0  0  0  0  0  0  0  0  0  0  0
   28.0140   24.1350   42.9540 H   0  0  0  0  0  0  0  0  0  0  0  0
   28.0660   25.2640   44.8540 C   0  0  0  0  0  0  0  0  0  0  0  0
   27.8770   24.3770   45.4450 H   0  0  0  0  0  0  0  0  0  0  0  0
   28.2360   26.5130   45.3920 C   0  0  0  0  0  3  0  0  0  0  0  0
   28.4720   27.5650   44.5450 C   0  0  0  0  0  0  0  0  0  0  0  0
   34.2700   29.1650   47.7950 C   0  0  0  0  0  0  0  0  0  0  0  0
   34.9360   29.7580   47.1370 H   0  0  0  0  0  0  0  0  0  0  0  0
   33.6080   29.8600   48.3250 H   0  0  0  0  0  0  0  0  0  0  0  0
   35.1120   28.4950   48.7370 O   0  0  0  0  0  0  0  0  0  0  0  0
   37.2140   30.0640   51.2330 C   0  0  0  0  0  0  0  0  0  0  0  0
   38.0360   30.8640   50.3990 C   0  0  0  0  0  0  0  0  0  0  0  0
   37.8100   30.8090   49.0340 C   0  0  0  0  0  0  0  0  0  0  0  0
   36.8060   29.9800   48.6080 N   0  0  0  0  0  0  0  0  0  0  0  0
   36.0390   29.2310   49.4050 C   0  0  0  0  0  0  0  0  0  0  0  0
   36.2570   29.2820   50.7460 N   0  0  0  0  0  0  0  0  0  0  0  0
   37.4170   30.1310   52.2970 H   0  0  0  0  0  0  0  0  0  0  0  0
   38.8120   31.5020   50.7430 H   0  0  0  0  0  0  0  0  0  0  0  0
   38.8260   33.5150   49.1920 F   0  0  0  0  0  0  0  0  0  0  0  0
   39.0220   32.8070   48.0890 C   0  0  0  0  0  0  0  0  0  0  0  0
   38.5400   31.5490   48.0390 C   0  0  0  0  0  0  0  0  0  0  0  0
   38.8070   30.8970   46.8240 C   0  0  0  0  0  0  0  0  0  0  0  0
   39.4890   31.4900   45.7980 C   0  0  0  0  0  0  0  0  0  0  0  0
   39.9560   32.7800   45.9090 C   0  0  0  0  0  0  0  0  0  0  0  0
   39.7110   33.4360   47.0780 C   0  0  0  0  0  0  0  0  0  0  0  0
   38.4650   29.8740   46.6720 H   0  0  0  0  0  0  0  0  0  0  0  0
   39.6660   30.9290   44.8730 H   0  0  0  0  0  0  0  0  0  0  0  0
   40.4950   33.2210   45.0730 H   0  0  0  0  0  0  0  0  0  0  0  0
   40.0750   34.4510   47.1740 H   0  0  0  0  0  0  0  0  0  0  0  0
  1  3  1  0  0  0  0
  1  4  1  0  0  0  0
  1 27  1  0  0  0  0
  2  1  1  0  0  0  0
  4  5  1  0  0  0  0
  5  6  2  0  0  0  0
  5 10  1  0  0  0  0
  6 11  1  0  0  0  0
  7  6  1  0  0  0  0
  8  7  2  0  0  0  0
  9  8  1  0  0  0  0
  9  4  2  0  0  0  0
 12 13  1  0  0  0  0
 12 14  1  0  0  0  0
 12  8  1  0  0  0  0
 15 12  1  0  0  0  0
 16 15  2  0  0  0  0
 17 16  1  0  0  0  0
 18 17  2  0  0  0  0
 18 19  1  0  0  0  0
 19 26  1  0  0  0  0
 20 19  2  0  0  0  0
 20 21  1  0  0  0  0
 21 23  2  0  0  0  0
 22 21  1  0  0  0  0
 23 25  1  0  0  0  0
 23 24  1  0  0  0  0
 26 15  1  0  0  0  0
 26 25  2  0  0  0  0
 27 29  1  0  0  0  0
 27 30  1  0  0  0  0
 28 27  1  0  0  0  0
 30 35  1  0  0  0  0
 31 37  1  0  0  0  0
 32 38  1  0  0  0  0
 32 31  2  0  0  0  0
 33 32  1  0  0  0  0
 34 33  2  0  0  0  0
 34 35  1  0  0  0  0
 35 36  2  0  0  0  0
 36 31  1  0  0  0  0
 40 39  1  0  0  0  0
 41 40  1  0  0  0  0
 41 33  1  0  0  0  0
 42 41  2  0  0  0  0
 43 44  2  0  0  0  0
 43 42  1  0  0  0  0
 44 45  1  0  0  0  0
 45 49  1  0  0  0  0
 45 40  2  0  0  0  0
 46 42  1  0  0  0  0
 47 43  1  0  0  0  0
 48 44  1  0  0  0  0
M  END
>  <minimizedAffinity>
-6.61479139

>  <minimizedRMSD>
0.965334415

$$$$
