
 OpenBabel03272510123D

 38 42  0  0  0  0  0  0  0  0999 V2000
   36.6470   29.1570   49.5410 O   0  0  0  0  0  0  0  0  0  0  0  0
   37.2140   30.2250   48.8500 C   0  0  0  0  0  0  0  0  0  0  0  0
   37.1820   31.4240   49.5410 C   0  0  0  0  0  0  0  0  0  0  0  0
   37.7870   32.3710   48.7060 C   0  0  0  0  0  0  0  0  0  0  0  0
   38.1530   31.7260   47.5680 N   0  0  0  0  0  0  0  0  0  0  0  0
   37.8110   30.4670   47.6680 N   0  0  0  0  0  0  0  0  0  0  0  0
   36.8270   31.7840   50.5010 H   0  0  0  0  0  0  0  0  0  0  0  0
   37.9870   33.4210   48.8080 H   0  0  0  0  0  0  0  0  0  0  0  0
   38.8030   32.2540   46.4170 C   0  0  0  0  0  0  0  0  0  0  0  0
   39.9670   32.9320   46.4380 N   0  0  0  0  0  0  0  0  0  0  0  0
   40.5170   33.4020   45.2820 C   0  0  0  0  0  3  0  0  0  0  0  0
   39.8780   33.1800   44.0960 N   0  0  0  0  0  0  0  0  0  0  0  0
   38.7150   32.5080   44.0400 C   0  0  0  0  0  0  0  0  0  0  0  0
   38.1080   32.3080   42.8330 C   0  0  0  0  0  3  0  0  0  0  0  0
   36.9110   31.6160   42.7620 C   0  0  0  0  0  0  0  0  0  0  0  0
   36.3350   31.3940   41.8730 H   0  0  0  0  0  0  0  0  0  0  0  0
   36.3240   31.1230   43.9320 C   0  0  0  0  0  0  0  0  0  0  0  0
   35.3800   30.5680   43.9500 H   0  0  0  0  0  0  0  0  0  0  0  0
   36.9490   31.3330   45.1410 C   0  0  0  0  0  3  0  0  0  0  0  0
   38.1410   32.0230   45.2070 C   0  0  0  0  0  0  0  0  0  0  0  0
   32.5910   28.1110   49.0610 C   0  0  0  0  0  0  0  0  0  0  0  0
   32.9810   28.9640   50.0330 C   0  0  0  0  0  0  0  0  0  0  0  0
   34.2890   29.3540   50.2510 C   0  0  0  0  0  0  0  0  0  0  0  0
   35.2870   28.8690   49.4570 C   0  0  0  0  0  0  0  0  0  0  0  0
   34.8880   27.9850   48.4500 C   0  0  0  0  0  0  0  0  0  0  0  0
   33.5980   27.6320   48.2710 N   0  0  0  0  0  0  0  0  0  0  0  0
   32.2540   29.3930   50.7040 H   0  0  0  0  0  0  0  0  0  0  0  0
   34.5950   30.0360   51.0300 H   0  0  0  0  0  0  0  0  0  0  0  0
   35.6290   27.5650   47.7860 H   0  0  0  0  0  0  0  0  0  0  0  0
   30.1940   27.9060   49.7420 C   0  0  0  0  0  0  0  0  0  0  0  0
   31.2360   27.6980   48.8240 C   0  0  0  0  0  0  0  0  0  0  0  0
   30.8970   27.0620   47.6510 C   0  0  0  0  0  0  0  0  0  0  0  0
   29.6120   26.6740   47.4290 N   0  0  0  0  0  0  0  0  0  0  0  0
   28.6420   26.9050   48.3620 C   0  0  0  0  0  0  0  0  0  0  0  0
   28.9330   27.5250   49.5280 N   0  0  0  0  0  0  0  0  0  0  0  0
   30.4100   28.3990   50.6750 H   0  0  0  0  0  0  0  0  0  0  0  0
   31.6900   26.8950   46.9310 H   0  0  0  0  0  0  0  0  0  0  0  0
   27.7020   26.5150   47.9800 H   0  0  0  0  0  0  0  0  0  0  0  0
  2  1  1  0  0  0  0
  2  3  1  0  0  0  0
  3  7  1  0  0  0  0
  4  8  1  0  0  0  0
  4  3  2  0  0  0  0
  5  6  1  0  0  0  0
  5  4  1  0  0  0  0
  6  2  2  0  0  0  0
  9 10  1  0  0  0  0
  9  5  1  0  0  0  0
 11 10  2  0  0  0  0
 12 11  1  0  0  0  0
 13 12  2  0  0  0  0
 13 20  1  0  0  0  0
 14 13  1  0  0  0  0
 15 14  2  0  0  0  0
 15 17  1  0  0  0  0
 16 15  1  0  0  0  0
 17 18  1  0  0  0  0
 17 19  2  0  0  0  0
 19 20  1  0  0  0  0
 20  9  2  0  0  0  0
 21 22  1  0  0  0  0
 22 23  2  0  0  0  0
 22 27  1  0  0  0  0
 23 28  1  0  0  0  0
 24  1  1  0  0  0  0
 24 23  1  0  0  0  0
 25 24  2  0  0  0  0
 26 25  1  0  0  0  0
 26 21  2  0  0  0  0
 29 25  1  0  0  0  0
 30 36  1  0  0  0  0
 31 21  1  0  0  0  0
 31 30  2  0  0  0  0
 32 31  1  0  0  0  0
 33 32  2  0  0  0  0
 33 34  1  0  0  0  0
 34 35  2  0  0  0  0
 35 30  1  0  0  0  0
 37 32  1  0  0  0  0
 38 34  1  0  0  0  0
M  END
>  <minimizedAffinity>
-6.33138275

>  <minimizedRMSD>
2.00726867

$$$$
