
 OpenBabel03272504433D

 48 51  0  0  0  0  0  0  0  0999 V2000
   38.9520   25.7160   31.5080 C   0  0  0  0  0  0  0  0  0  0  0  0
   39.6580   25.0750   30.9340 H   0  0  0  0  0  0  0  0  0  0  0  0
   38.9200   26.6640   30.8930 H   0  0  0  0  0  0  0  0  0  0  0  0
   38.8200   22.7950   32.0720 Cl  0  0  0  0  0  0  0  0  0  0  0  0
   37.4150   23.7910   31.6840 C   0  0  0  0  0  0  0  0  0  0  0  0
   36.1950   23.2140   31.6330 C   0  0  0  0  0  0  0  0  0  0  0  0
   35.0880   23.9790   31.3290 C   0  0  0  0  0  0  0  0  0  0  0  0
   35.2570   25.3380   31.0810 C   0  0  0  0  0  0  0  0  0  0  0  0
   36.5620   25.8640   31.1540 C   0  0  0  0  0  0  0  0  0  0  0  0
   37.6470   25.1270   31.4490 C   0  0  0  0  0  0  0  0  0  0  0  0
   34.1070   23.4910   31.2930 H   0  0  0  0  0  0  0  0  0  0  0  0
   34.3390   25.8380   30.8560 H   0  0  0  0  0  0  0  0  0  0  0  0
   36.4740   26.8690   30.9380 H   0  0  0  0  0  0  0  0  0  0  0  0
   35.5470   19.9970   33.3130 C   0  0  0  0  0  0  0  0  0  0  0  0
   35.7280   19.0840   32.2160 C   0  0  0  0  0  0  0  0  0  0  0  0
   36.0620   19.6170   30.9640 C   0  0  0  0  0  0  0  0  0  0  0  0
   36.1980   20.9620   30.8370 N   0  0  0  0  0  0  0  0  0  0  0  0
   36.0220   21.7940   31.8890 C   0  0  0  0  0  0  0  0  0  0  0  0
   35.7020   21.3110   33.1020 N   0  0  0  0  0  0  0  0  0  0  0  0
   35.2940   19.6180   34.2760 H   0  0  0  0  0  0  0  0  0  0  0  0
   35.5890   18.0610   32.4670 H   0  0  0  0  0  0  0  0  0  0  0  0
   36.2270   18.6950   29.9240 N   0  0  0  0  0  0  0  0  0  0  0  0
   35.5530   18.5320   29.1310 H   0  0  0  0  0  0  0  0  0  0  0  0
   37.1170   18.1630   30.0110 H   0  0  0  0  0  0  0  0  0  0  0  0
   39.5680   26.0080   32.8060 C   0  0  0  0  0  0  0  0  0  0  0  0
   40.6840   26.1790   32.7470 H   0  0  0  0  0  0  0  0  0  0  0  0
   39.4710   25.1060   33.4530 H   0  0  0  0  0  0  0  0  0  0  0  0
   38.9750   27.0860   33.4090 O   0  0  0  0  0  0  0  0  0  0  0  0
   38.8860   27.2040   36.0260 O   0  0  0  0  0  0  0  0  0  0  0  0
   38.2060   26.6280   34.8090 P   0  0  2  0  0  0  0  0  0  0  0  0
   38.2870   24.8980   34.8790 O   0  0  0  0  0  0  0  0  0  0  0  0
   38.4370   24.3290   36.1370 C   0  0  0  0  0  0  0  0  0  0  0  0
   37.6240   24.4940   37.1960 N   0  0  0  0  0  0  0  0  0  0  0  0
   37.9100   23.8750   38.3380 C   0  0  0  0  0  3  0  0  0  0  0  0
   38.9900   23.0820   38.4830 N   0  0  0  0  0  0  0  0  0  0  0  0
   39.8430   22.8780   37.4560 C   0  0  0  0  0  0  0  0  0  0  0  0
   40.9400   22.0600   37.6330 C   0  0  0  0  0  3  0  0  0  0  0  0
   41.7870   21.8770   36.5650 C   0  0  0  0  0  0  0  0  0  0  0  0
   42.6870   21.2590   36.5680 H   0  0  0  0  0  0  0  0  0  0  0  0
   41.5550   22.4860   35.3490 C   0  0  0  0  0  0  0  0  0  0  0  0
   42.1880   22.3700   34.4900 H   0  0  0  0  0  0  0  0  0  0  0  0
   40.4460   23.2970   35.2080 C   0  0  0  0  0  3  0  0  0  0  0  0
   39.5650   23.5170   36.2430 C   0  0  0  0  0  0  0  0  0  0  0  0
   36.5950   27.0010   34.8380 O   0  0  0  0  0  0  0  0  0  0  0  0
   36.3830   28.3080   34.4700 C   0  0  0  0  0  0  0  0  0  0  0  0
   37.0620   29.2100   35.2900 F   0  0  0  0  0  0  0  0  0  0  0  0
   36.8380   28.5580   33.1860 F   0  0  0  0  0  0  0  0  0  0  0  0
   35.0290   28.5960   34.5380 F   0  0  0  0  0  0  0  0  0  0  0  0
  1 25  1  0  0  0  0
  2  1  1  0  0  0  0
  3  1  1  0  0  0  0
  5  4  1  0  0  0  0
  6  5  1  0  0  0  0
  6 18  1  0  0  0  0
  7  6  2  0  0  0  0
  8  9  2  0  0  0  0
  8  7  1  0  0  0  0
  9 10  1  0  0  0  0
 10  1  1  0  0  0  0
 10  5  2  0  0  0  0
 11  7  1  0  0  0  0
 12  8  1  0  0  0  0
 13  9  1  0  0  0  0
 14 20  1  0  0  0  0
 15 21  1  0  0  0  0
 15 14  2  0  0  0  0
 16 15  1  0  0  0  0
 17 16  2  0  0  0  0
 17 18  1  0  0  0  0
 18 19  2  0  0  0  0
 19 14  1  0  0  0  0
 22 24  1  0  0  0  0
 22 16  1  0  0  0  0
 23 22  1  0  0  0  0
 25 28  1  0  0  0  0
 25 27  1  0  0  0  0
 26 25  1  0  0  0  0
 28 30  1  0  0  0  0
 30 44  1  0  0  0  0
 30 31  1  0  0  0  0
 30 29  2  1  0  0  0
 31 32  1  0  0  0  0
 32 43  2  0  0  0  0
 32 33  1  0  0  0  0
 33 34  2  0  0  0  0
 34 35  1  0  0  0  0
 36 37  1  0  0  0  0
 36 35  2  0  0  0  0
 38 39  1  0  0  0  0
 38 37  2  0  0  0  0
 40 38  1  0  0  0  0
 41 40  1  0  0  0  0
 42 40  2  0  0  0  0
 42 43  1  0  0  0  0
 43 36  1  0  0  0  0
 45 48  1  0  0  0  0
 45 44  1  0  0  0  0
 45 46  1  0  0  0  0
 47 45  1  0  0  0  0
M  END
>  <minimizedAffinity>
-6.89800835

$$$$

 OpenBabel03272504433D

 48 51  0  0  0  0  0  0  0  0999 V2000
   39.7390   26.9510   31.8410 C   0  0  0  0  0  0  0  0  0  0  0  0
   40.3650   27.4420   32.6190 H   0  0  0  0  0  0  0  0  0  0  0  0
   40.4770   26.7760   31.0020 H   0  0  0  0  0  0  0  0  0  0  0  0
   39.7230   26.6250   34.8010 Cl  0  0  0  0  0  0  0  0  0  0  0  0
   39.2730   25.3510   33.6630 C   0  0  0  0  0  0  0  0  0  0  0  0
   38.8950   24.1460   34.1430 C   0  0  0  0  0  0  0  0  0  0  0  0
   38.5430   23.1410   33.2660 C   0  0  0  0  0  0  0  0  0  0  0  0
   38.5840   23.3950   31.8990 C   0  0  0  0  0  0  0  0  0  0  0  0
   38.9880   24.6780   31.4790 C   0  0  0  0  0  0  0  0  0  0  0  0
   39.3350   25.6650   32.3250 C   0  0  0  0  0  0  0  0  0  0  0  0
   38.2390   22.1710   33.6760 H   0  0  0  0  0  0  0  0  0  0  0  0
   38.2920   22.5530   31.3090 H   0  0  0  0  0  0  0  0  0  0  0  0
   38.9560   24.6620   30.4490 H   0  0  0  0  0  0  0  0  0  0  0  0
   37.9670   24.2280   37.7100 C   0  0  0  0  0  0  0  0  0  0  0  0
   38.9030   23.2780   38.2490 C   0  0  0  0  0  0  0  0  0  0  0  0
   39.7990   22.6620   37.3650 C   0  0  0  0  0  0  0  0  0  0  0  0
   39.7480   22.9830   36.0470 N   0  0  0  0  0  0  0  0  0  0  0  0
   38.8560   23.8830   35.5710 C   0  0  0  0  0  0  0  0  0  0  0  0
   37.9840   24.4880   36.3960 N   0  0  0  0  0  0  0  0  0  0  0  0
   37.2760   24.7120   38.3600 H   0  0  0  0  0  0  0  0  0  0  0  0
   38.8250   23.1290   39.2980 H   0  0  0  0  0  0  0  0  0  0  0  0
   40.6920   21.7440   37.9300 N   0  0  0  0  0  0  0  0  0  0  0  0
   40.6400   20.6960   37.8360 H   0  0  0  0  0  0  0  0  0  0  0  0
   41.4430   22.2130   38.4750 H   0  0  0  0  0  0  0  0  0  0  0  0
   38.7320   27.9200   31.3990 C   0  0  0  0  0  0  0  0  0  0  0  0
   38.2880   27.6800   30.3880 H   0  0  0  0  0  0  0  0  0  0  0  0
   39.2340   28.9030   31.2430 H   0  0  0  0  0  0  0  0  0  0  0  0
   37.7250   28.0470   32.3190 O   0  0  0  0  0  0  0  0  0  0  0  0
   36.5240   28.8090   30.1170 O   0  0  0  0  0  0  0  0  0  0  0  0
   36.3160   28.5390   31.5860 P   0  0  2  0  0  0  0  0  0  0  0  0
   35.8340   30.0070   32.3710 O   0  0  0  0  0  0  0  0  0  0  0  0
   34.6150   29.9900   33.0370 C   0  0  0  0  0  0  0  0  0  0  0  0
   33.4660   29.4500   32.5950 N   0  0  0  0  0  0  0  0  0  0  0  0
   32.3790   29.5190   33.3590 C   0  0  0  0  0  3  0  0  0  0  0  0
   32.3790   30.1110   34.5690 N   0  0  0  0  0  0  0  0  0  0  0  0
   33.5030   30.6710   35.0660 C   0  0  0  0  0  0  0  0  0  0  0  0
   33.4740   31.2710   36.3080 C   0  0  0  0  0  3  0  0  0  0  0  0
   34.6380   31.8310   36.7820 C   0  0  0  0  0  0  0  0  0  0  0  0
   34.7540   32.3340   37.7440 H   0  0  0  0  0  0  0  0  0  0  0  0
   35.8030   31.7990   36.0450 C   0  0  0  0  0  0  0  0  0  0  0  0
   36.7330   32.2220   36.3770 H   0  0  0  0  0  0  0  0  0  0  0  0
   35.7960   31.1890   34.8070 C   0  0  0  0  0  3  0  0  0  0  0  0
   34.6600   30.6130   34.2830 C   0  0  0  0  0  0  0  0  0  0  0  0
   35.0560   27.4890   31.7910 O   0  0  0  0  0  0  0  0  0  0  0  0
   35.4230   26.2050   31.4610 C   0  0  0  0  0  0  0  0  0  0  0  0
   36.3040   26.1630   30.3810 F   0  0  0  0  0  0  0  0  0  0  0  0
   36.0840   25.5780   32.5050 F   0  0  0  0  0  0  0  0  0  0  0  0
   34.2950   25.4710   31.1290 F   0  0  0  0  0  0  0  0  0  0  0  0
  1 10  1  0  0  0  0
  1  2  1  0  0  0  0
  3  1  1  0  0  0  0
  5  6  1  0  0  0  0
  5  4  1  0  0  0  0
  6 18  1  0  0  0  0
  7 11  1  0  0  0  0
  7  6  2  0  0  0  0
  8  7  1  0  0  0  0
  9  8  2  0  0  0  0
  9 10  1  0  0  0  0
 10  5  2  0  0  0  0
 12  8  1  0  0  0  0
 13  9  1  0  0  0  0
 14 15  1  0  0  0  0
 14 20  1  0  0  0  0
 15 21  1  0  0  0  0
 16 22  1  0  0  0  0
 16 15  2  0  0  0  0
 17 16  1  0  0  0  0
 18 17  2  0  0  0  0
 18 19  1  0  0  0  0
 19 14  2  0  0  0  0
 22 24  1  0  0  0  0
 23 22  1  0  0  0  0
 25  1  1  0  0  0  0
 25 28  1  0  0  0  0
 26 25  1  0  0  0  0
 27 25  1  0  0  0  0
 30 29  2  6  0  0  0
 30 44  1  0  0  0  0
 30 28  1  0  0  0  0
 30 31  1  0  0  0  0
 31 32  1  0  0  0  0
 32 43  1  0  0  0  0
 33 32  2  0  0  0  0
 33 34  1  0  0  0  0
 34 35  2  0  0  0  0
 35 36  1  0  0  0  0
 36 37  1  0  0  0  0
 37 38  2  0  0  0  0
 38 39  1  0  0  0  0
 40 41  1  0  0  0  0
 40 38  1  0  0  0  0
 42 40  2  0  0  0  0
 43 42  1  0  0  0  0
 43 36  2  0  0  0  0
 45 44  1  0  0  0  0
 45 47  1  0  0  0  0
 46 45  1  0  0  0  0
 48 45  1  0  0  0  0
M  END
>  <minimizedAffinity>
-6.66763783

$$$$

 OpenBabel03272504433D

 48 51  0  0  0  0  0  0  0  0999 V2000
   38.1880   27.0910   34.9280 C   0  0  0  0  0  0  0  0  0  0  0  0
   38.7630   28.0210   35.1340 H   0  0  0  0  0  0  0  0  0  0  0  0
   37.4110   27.0920   35.7490 H   0  0  0  0  0  0  0  0  0  0  0  0
   36.1400   29.2510   34.8520 Cl  0  0  0  0  0  0  0  0  0  0  0  0
   36.5180   28.1990   33.4850 C   0  0  0  0  0  0  0  0  0  0  0  0
   35.8490   28.3650   32.3240 C   0  0  0  0  0  0  0  0  0  0  0  0
   36.1320   27.5490   31.2490 C   0  0  0  0  0  0  0  0  0  0  0  0
   37.1080   26.5670   31.3870 C   0  0  0  0  0  0  0  0  0  0  0  0
   37.7610   26.4590   32.6310 C   0  0  0  0  0  0  0  0  0  0  0  0
   37.4920   27.2480   33.6860 C   0  0  0  0  0  0  0  0  0  0  0  0
   35.5780   27.7010   30.3150 H   0  0  0  0  0  0  0  0  0  0  0  0
   37.2510   25.9920   30.4970 H   0  0  0  0  0  0  0  0  0  0  0  0
   38.4340   25.6830   32.5300 H   0  0  0  0  0  0  0  0  0  0  0  0
   34.1280   31.5330   31.5520 C   0  0  0  0  0  0  0  0  0  0  0  0
   32.7910   31.2180   31.9790 C   0  0  0  0  0  0  0  0  0  0  0  0
   32.5500   29.9430   32.5070 C   0  0  0  0  0  0  0  0  0  0  0  0
   33.5800   29.0620   32.5930 N   0  0  0  0  0  0  0  0  0  0  0  0
   34.8280   29.3890   32.1830 C   0  0  0  0  0  0  0  0  0  0  0  0
   35.0870   30.6050   31.6720 N   0  0  0  0  0  0  0  0  0  0  0  0
   34.3380   32.4960   31.1480 H   0  0  0  0  0  0  0  0  0  0  0  0
   32.0900   32.0070   31.8510 H   0  0  0  0  0  0  0  0  0  0  0  0
   31.2360   29.6780   32.9090 N   0  0  0  0  0  0  0  0  0  0  0  0
   30.5480   29.0620   32.4010 H   0  0  0  0  0  0  0  0  0  0  0  0
   30.9920   30.1660   33.7940 H   0  0  0  0  0  0  0  0  0  0  0  0
   39.0920   25.9530   35.1260 C   0  0  0  0  0  0  0  0  0  0  0  0
   39.8890   26.1410   35.9050 H   0  0  0  0  0  0  0  0  0  0  0  0
   39.6700   25.7950   34.1860 H   0  0  0  0  0  0  0  0  0  0  0  0
   38.4000   24.8160   35.4490 O   0  0  0  0  0  0  0  0  0  0  0  0
   40.8780   23.9890   35.6600 O   0  0  0  0  0  0  0  0  0  0  0  0
   39.4400   23.6020   35.9020 P   0  0  2  0  0  0  0  0  0  0  0  0
   39.0510   22.2240   34.9260 O   0  0  0  0  0  0  0  0  0  0  0  0
   38.7420   22.4680   33.5940 C   0  0  0  0  0  0  0  0  0  0  0  0
   39.4960   23.1360   32.7030 N   0  0  0  0  0  0  0  0  0  0  0  0
   39.0530   23.2840   31.4580 C   0  0  0  0  0  3  0  0  0  0  0  0
   37.8700   22.7890   31.0450 N   0  0  0  0  0  0  0  0  0  0  0  0
   37.0680   22.1090   31.8930 C   0  0  0  0  0  0  0  0  0  0  0  0
   35.8630   21.6130   31.4420 C   0  0  0  0  0  3  0  0  0  0  0  0
   35.0730   20.9270   32.3360 C   0  0  0  0  0  0  0  0  0  0  0  0
   34.1010   20.4840   32.1120 H   0  0  0  0  0  0  0  0  0  0  0  0
   35.4670   20.7340   33.6440 C   0  0  0  0  0  0  0  0  0  0  0  0
   34.8830   20.2040   34.3720 H   0  0  0  0  0  0  0  0  0  0  0  0
   36.6800   21.2430   34.0590 C   0  0  0  0  0  3  0  0  0  0  0  0
   37.5100   21.9390   33.2090 C   0  0  0  0  0  0  0  0  0  0  0  0
   39.2480   23.1080   37.4680 O   0  0  0  0  0  0  0  0  0  0  0  0
   38.0050   23.4480   37.9450 C   0  0  0  0  0  0  0  0  0  0  0  0
   36.9870   23.1550   37.0380 F   0  0  0  0  0  0  0  0  0  0  0  0
   37.6890   22.7470   39.0980 F   0  0  0  0  0  0  0  0  0  0  0  0
   37.9670   24.8080   38.2140 F   0  0  0  0  0  0  0  0  0  0  0  0
  1 25  1  0  0  0  0
  1  2  1  0  0  0  0
  1  3  1  0  0  0  0
  5 10  1  0  0  0  0
  5  4  1  0  0  0  0
  6  5  2  0  0  0  0
  7  8  2  0  0  0  0
  7  6  1  0  0  0  0
  8  9  1  0  0  0  0
  9 10  2  0  0  0  0
 10  1  1  0  0  0  0
 11  7  1  0  0  0  0
 12  8  1  0  0  0  0
 13  9  1  0  0  0  0
 14 19  2  0  0  0  0
 14 15  1  0  0  0  0
 15 16  2  0  0  0  0
 16 17  1  0  0  0  0
 16 22  1  0  0  0  0
 18  6  1  0  0  0  0
 18 17  2  0  0  0  0
 19 18  1  0  0  0  0
 20 14  1  0  0  0  0
 21 15  1  0  0  0  0
 22 24  1  0  0  0  0
 23 22  1  0  0  0  0
 25 28  1  0  0  0  0
 25 26  1  0  0  0  0
 27 25  1  0  0  0  0
 28 30  1  0  0  0  0
 30 29  2  6  0  0  0
 30 44  1  0  0  0  0
 31 30  1  0  0  0  0
 32 31  1  0  0  0  0
 33 32  2  0  0  0  0
 34 33  1  0  0  0  0
 35 34  2  0  0  0  0
 35 36  1  0  0  0  0
 36 43  1  0  0  0  0
 37 36  2  0  0  0  0
 37 38  1  0  0  0  0
 38 40  2  0  0  0  0
 39 38  1  0  0  0  0
 40 42  1  0  0  0  0
 40 41  1  0  0  0  0
 43 32  1  0  0  0  0
 43 42  2  0  0  0  0
 44 45  1  0  0  0  0
 45 48  1  0  0  0  0
 45 47  1  0  0  0  0
 46 45  1  0  0  0  0
M  END
>  <minimizedAffinity>
-6.51430273

$$$$

 OpenBabel03272504433D

 48 51  0  0  0  0  0  0  0  0999 V2000
   39.0130   25.4970   31.0720 C   0  0  0  0  0  0  0  0  0  0  0  0
   39.9400   25.9280   31.5110 H   0  0  0  0  0  0  0  0  0  0  0  0
   39.3880   25.0250   30.1160 H   0  0  0  0  0  0  0  0  0  0  0  0
   40.7100   24.9100   33.4480 Cl  0  0  0  0  0  0  0  0  0  0  0  0
   39.2230   24.0410   33.0550 C   0  0  0  0  0  0  0  0  0  0  0  0
   38.8120   23.0440   33.8680 C   0  0  0  0  0  0  0  0  0  0  0  0
   37.6540   22.3560   33.5730 C   0  0  0  0  0  0  0  0  0  0  0  0
   36.9310   22.7080   32.4370 C   0  0  0  0  0  0  0  0  0  0  0  0
   37.4280   23.7590   31.6410 C   0  0  0  0  0  0  0  0  0  0  0  0
   38.5550   24.4360   31.9190 C   0  0  0  0  0  0  0  0  0  0  0  0
   37.3370   21.5500   34.2470 H   0  0  0  0  0  0  0  0  0  0  0  0
   36.0530   22.1140   32.3010 H   0  0  0  0  0  0  0  0  0  0  0  0
   36.7620   23.8610   30.8600 H   0  0  0  0  0  0  0  0  0  0  0  0
   41.4330   21.7130   36.0930 C   0  0  0  0  0  0  0  0  0  0  0  0
   40.8840   22.0480   37.3790 C   0  0  0  0  0  0  0  0  0  0  0  0
   39.6490   22.7100   37.4160 C   0  0  0  0  0  0  0  0  0  0  0  0
   39.0270   23.0060   36.2470 N   0  0  0  0  0  0  0  0  0  0  0  0
   39.5690   22.6760   35.0520 C   0  0  0  0  0  0  0  0  0  0  0  0
   40.7530   22.0420   34.9860 N   0  0  0  0  0  0  0  0  0  0  0  0
   42.3700   21.2090   36.0360 H   0  0  0  0  0  0  0  0  0  0  0  0
   41.4840   21.7520   38.2050 H   0  0  0  0  0  0  0  0  0  0  0  0
   39.1510   23.0180   38.6880 N   0  0  0  0  0  0  0  0  0  0  0  0
   39.1250   23.9760   39.1240 H   0  0  0  0  0  0  0  0  0  0  0  0
   38.7930   22.1750   39.1820 H   0  0  0  0  0  0  0  0  0  0  0  0
   38.1180   26.6100   30.7380 C   0  0  0  0  0  0  0  0  0  0  0  0
   37.0580   26.2850   30.5160 H   0  0  0  0  0  0  0  0  0  0  0  0
   38.4630   27.0640   29.7810 H   0  0  0  0  0  0  0  0  0  0  0  0
   38.1050   27.5540   31.7300 O   0  0  0  0  0  0  0  0  0  0  0  0
   35.5640   26.9110   31.7320 O   0  0  0  0  0  0  0  0  0  0  0  0
   36.6690   27.5140   32.5640 P   0  0  2  0  0  0  0  0  0  0  0  0
   36.2650   29.1560   32.9410 O   0  0  0  0  0  0  0  0  0  0  0  0
   34.9490   29.4090   33.3060 C   0  0  0  0  0  0  0  0  0  0  0  0
   33.8430   28.9390   32.7030 N   0  0  0  0  0  0  0  0  0  0  0  0
   32.6490   29.2780   33.1800 C   0  0  0  0  0  3  0  0  0  0  0  0
   32.4960   30.0810   34.2510 N   0  0  0  0  0  0  0  0  0  0  0  0
   33.5690   30.5850   34.8980 C   0  0  0  0  0  0  0  0  0  0  0  0
   33.3830   31.4040   35.9920 C   0  0  0  0  0  3  0  0  0  0  0  0
   34.5000   31.9000   36.6250 C   0  0  0  0  0  0  0  0  0  0  0  0
   34.4960   32.5550   37.4980 H   0  0  0  0  0  0  0  0  0  0  0  0
   35.7710   31.5910   36.1870 C   0  0  0  0  0  0  0  0  0  0  0  0
   36.6680   31.9540   36.6510 H   0  0  0  0  0  0  0  0  0  0  0  0
   35.9190   30.7670   35.0900 C   0  0  0  0  0  3  0  0  0  0  0  0
   34.8370   30.2440   34.4180 C   0  0  0  0  0  0  0  0  0  0  0  0
   36.7640   26.7320   34.0190 O   0  0  0  0  0  0  0  0  0  0  0  0
   37.8810   27.1240   34.7180 C   0  0  0  0  0  0  0  0  0  0  0  0
   38.4060   26.0980   35.5020 F   0  0  0  0  0  0  0  0  0  0  0  0
   38.9080   27.5070   33.8700 F   0  0  0  0  0  0  0  0  0  0  0  0
   37.5590   28.1840   35.5510 F   0  0  0  0  0  0  0  0  0  0  0  0
  1  2  1  0  0  0  0
  1 10  1  0  0  0  0
  3  1  1  0  0  0  0
  5  4  1  0  0  0  0
  5  6  1  0  0  0  0
  6 18  1  0  0  0  0
  7  6  2  0  0  0  0
  7 11  1  0  0  0  0
  8  7  1  0  0  0  0
  9 10  1  0  0  0  0
  9  8  2  0  0  0  0
 10  5  2  0  0  0  0
 12  8  1  0  0  0  0
 13  9  1  0  0  0  0
 14 15  1  0  0  0  0
 15 16  2  0  0  0  0
 15 21  1  0  0  0  0
 16 22  1  0  0  0  0
 17 16  1  0  0  0  0
 18 17  2  0  0  0  0
 19 18  1  0  0  0  0
 19 14  2  0  0  0  0
 20 14  1  0  0  0  0
 22 23  1  0  0  0  0
 22 24  1  0  0  0  0
 25  1  1  0  0  0  0
 25 28  1  0  0  0  0
 26 25  1  0  0  0  0
 27 25  1  0  0  0  0
 28 30  1  0  0  0  0
 30 29  2  6  0  0  0
 30 31  1  0  0  0  0
 30 44  1  0  0  0  0
 31 32  1  0  0  0  0
 32 43  1  0  0  0  0
 33 34  1  0  0  0  0
 33 32  2  0  0  0  0
 34 35  2  0  0  0  0
 35 36  1  0  0  0  0
 36 37  1  0  0  0  0
 37 38  2  0  0  0  0
 38 39  1  0  0  0  0
 40 38  1  0  0  0  0
 40 41  1  0  0  0  0
 42 40  2  0  0  0  0
 43 36  2  0  0  0  0
 43 42  1  0  0  0  0
 44 45  1  0  0  0  0
 45 46  1  0  0  0  0
 45 48  1  0  0  0  0
 47 45  1  0  0  0  0
M  END
>  <minimizedAffinity>
-6.51395035

$$$$

 OpenBabel03272504433D

 48 51  0  0  0  0  0  0  0  0999 V2000
   38.7110   27.0080   35.6160 C   0  0  0  0  0  0  0  0  0  0  0  0
   39.1950   27.4610   36.5110 H   0  0  0  0  0  0  0  0  0  0  0  0
   39.5200   27.0880   34.8300 H   0  0  0  0  0  0  0  0  0  0  0  0
   39.5260   25.1580   33.4300 Cl  0  0  0  0  0  0  0  0  0  0  0  0
   38.8200   24.6310   34.9600 C   0  0  0  0  0  0  0  0  0  0  0  0
   38.6280   23.3110   35.1740 C   0  0  0  0  0  0  0  0  0  0  0  0
   38.0750   22.8840   36.3630 C   0  0  0  0  0  0  0  0  0  0  0  0
   37.7280   23.8310   37.3220 C   0  0  0  0  0  0  0  0  0  0  0  0
   37.9610   25.1880   37.0230 C   0  0  0  0  0  0  0  0  0  0  0  0
   38.4980   25.6150   35.8670 C   0  0  0  0  0  0  0  0  0  0  0  0
   37.9280   21.8080   36.5170 H   0  0  0  0  0  0  0  0  0  0  0  0
   37.3100   23.3960   38.2050 H   0  0  0  0  0  0  0  0  0  0  0  0
   37.6380   25.7180   37.8460 H   0  0  0  0  0  0  0  0  0  0  0  0
   40.5620   21.0040   33.0450 C   0  0  0  0  0  0  0  0  0  0  0  0
   39.5120   20.4520   32.2320 C   0  0  0  0  0  0  0  0  0  0  0  0
   38.2020   20.8960   32.4550 C   0  0  0  0  0  0  0  0  0  0  0  0
   37.9780   21.8230   33.4210 N   0  0  0  0  0  0  0  0  0  0  0  0
   38.9880   22.3250   34.1690 C   0  0  0  0  0  0  0  0  0  0  0  0
   40.2540   21.9160   33.9770 N   0  0  0  0  0  0  0  0  0  0  0  0
   41.5670   20.6840   32.8950 H   0  0  0  0  0  0  0  0  0  0  0  0
   39.8390   19.7370   31.5160 H   0  0  0  0  0  0  0  0  0  0  0  0
   37.2110   20.3320   31.6430 N   0  0  0  0  0  0  0  0  0  0  0  0
   36.4990   19.6170   31.9460 H   0  0  0  0  0  0  0  0  0  0  0  0
   37.2450   20.7010   30.6710 H   0  0  0  0  0  0  0  0  0  0  0  0
   37.5860   27.8680   35.2340 C   0  0  0  0  0  0  0  0  0  0  0  0
   37.9030   28.8250   34.7240 H   0  0  0  0  0  0  0  0  0  0  0  0
   37.0790   28.2160   36.1630 H   0  0  0  0  0  0  0  0  0  0  0  0
   36.6970   27.2000   34.4350 O   0  0  0  0  0  0  0  0  0  0  0  0
   38.0520   27.8840   32.2970 O   0  0  0  0  0  0  0  0  0  0  0  0
   36.6720   27.8530   32.9070 P   0  0  2  0  0  0  0  0  0  0  0  0
   36.0860   29.4760   33.0690 O   0  0  0  0  0  0  0  0  0  0  0  0
   34.7770   29.6280   33.5090 C   0  0  0  0  0  0  0  0  0  0  0  0
   33.6760   29.0930   32.9540 N   0  0  0  0  0  0  0  0  0  0  0  0
   32.4880   29.3380   33.5010 C   0  0  0  0  0  3  0  0  0  0  0  0
   32.3380   30.1050   34.5980 N   0  0  0  0  0  0  0  0  0  0  0  0
   33.4080   30.6690   35.2000 C   0  0  0  0  0  0  0  0  0  0  0  0
   33.2240   31.4500   36.3230 C   0  0  0  0  0  3  0  0  0  0  0  0
   34.3360   32.0090   36.9080 C   0  0  0  0  0  0  0  0  0  0  0  0
   34.3340   32.6440   37.7960 H   0  0  0  0  0  0  0  0  0  0  0  0
   35.6010   31.8000   36.3970 C   0  0  0  0  0  0  0  0  0  0  0  0
   36.4940   32.2160   36.8230 H   0  0  0  0  0  0  0  0  0  0  0  0
   35.7460   31.0120   35.2730 C   0  0  0  0  0  3  0  0  0  0  0  0
   34.6690   30.4290   34.6460 C   0  0  0  0  0  0  0  0  0  0  0  0
   35.6210   27.1000   31.8760 O   0  0  0  0  0  0  0  0  0  0  0  0
   36.0680   25.8430   31.5450 C   0  0  0  0  0  0  0  0  0  0  0  0
   35.0910   25.0790   30.9080 F   0  0  0  0  0  0  0  0  0  0  0  0
   37.1340   25.8950   30.6610 F   0  0  0  0  0  0  0  0  0  0  0  0
   36.4610   25.1730   32.6940 F   0  0  0  0  0  0  0  0  0  0  0  0
  1 10  1  0  0  0  0
  1  2  1  0  0  0  0
  3  1  1  0  0  0  0
  4  5  1  0  0  0  0
  5  6  2  0  0  0  0
  5 10  1  0  0  0  0
  6  7  1  0  0  0  0
  7 11  1  0  0  0  0
  7  8  2  0  0  0  0
  8 12  1  0  0  0  0
  9  8  1  0  0  0  0
  9 13  1  0  0  0  0
 10  9  2  0  0  0  0
 14 19  1  0  0  0  0
 15 16  1  0  0  0  0
 15 14  2  0  0  0  0
 16 17  2  0  0  0  0
 17 18  1  0  0  0  0
 18  6  1  0  0  0  0
 19 18  2  0  0  0  0
 20 14  1  0  0  0  0
 21 15  1  0  0  0  0
 22 23  1  0  0  0  0
 22 16  1  0  0  0  0
 24 22  1  0  0  0  0
 25  1  1  0  0  0  0
 25 27  1  0  0  0  0
 26 25  1  0  0  0  0
 28 25  1  0  0  0  0
 30 29  2  6  0  0  0
 30 31  1  0  0  0  0
 30 28  1  0  0  0  0
 31 32  1  0  0  0  0
 32 43  1  0  0  0  0
 33 34  1  0  0  0  0
 33 32  2  0  0  0  0
 34 35  2  0  0  0  0
 35 36  1  0  0  0  0
 36 37  1  0  0  0  0
 37 38  2  0  0  0  0
 38 39  1  0  0  0  0
 40 41  1  0  0  0  0
 40 38  1  0  0  0  0
 42 40  2  0  0  0  0
 43 36  2  0  0  0  0
 43 42  1  0  0  0  0
 44 30  1  0  0  0  0
 45 44  1  0  0  0  0
 45 48  1  0  0  0  0
 46 45  1  0  0  0  0
 47 45  1  0  0  0  0
M  END
>  <minimizedAffinity>
-6.44540215

$$$$

 OpenBabel03272504433D

 48 51  0  0  0  0  0  0  0  0999 V2000
   38.5620   26.6200   33.0130 C   0  0  0  0  0  0  0  0  0  0  0  0
   39.4370   26.7090   32.3310 H   0  0  0  0  0  0  0  0  0  0  0  0
   38.9740   26.9980   33.9960 H   0  0  0  0  0  0  0  0  0  0  0  0
   37.1020   28.0340   35.1900 Cl  0  0  0  0  0  0  0  0  0  0  0  0
   36.7910   28.2790   33.4690 C   0  0  0  0  0  0  0  0  0  0  0  0
   35.8350   29.1560   33.0930 C   0  0  0  0  0  0  0  0  0  0  0  0
   35.5800   29.3560   31.7530 C   0  0  0  0  0  0  0  0  0  0  0  0
   36.3190   28.6450   30.8130 C   0  0  0  0  0  0  0  0  0  0  0  0
   37.2970   27.7490   31.2860 C   0  0  0  0  0  0  0  0  0  0  0  0
   37.5540   27.5450   32.5900 C   0  0  0  0  0  0  0  0  0  0  0  0
   34.8000   30.0740   31.4690 H   0  0  0  0  0  0  0  0  0  0  0  0
   36.0430   28.8740   29.8050 H   0  0  0  0  0  0  0  0  0  0  0  0
   37.7230   27.3260   30.4470 H   0  0  0  0  0  0  0  0  0  0  0  0
   34.7950   31.6710   35.5810 C   0  0  0  0  0  0  0  0  0  0  0  0
   33.4830   31.1850   35.9160 C   0  0  0  0  0  0  0  0  0  0  0  0
   33.0260   30.0260   35.2750 C   0  0  0  0  0  0  0  0  0  0  0  0
   33.8330   29.4140   34.3700 N   0  0  0  0  0  0  0  0  0  0  0  0
   35.0630   29.8960   34.0770 C   0  0  0  0  0  0  0  0  0  0  0  0
   35.5270   31.0060   34.6770 N   0  0  0  0  0  0  0  0  0  0  0  0
   35.1670   32.5500   36.0540 H   0  0  0  0  0  0  0  0  0  0  0  0
   32.9690   31.7680   36.6410 H   0  0  0  0  0  0  0  0  0  0  0  0
   31.7450   29.5880   35.6280 N   0  0  0  0  0  0  0  0  0  0  0  0
   30.8790   29.6700   35.0340 H   0  0  0  0  0  0  0  0  0  0  0  0
   31.7270   29.1550   36.5740 H   0  0  0  0  0  0  0  0  0  0  0  0
   38.2430   25.1950   33.1450 C   0  0  0  0  0  0  0  0  0  0  0  0
   39.0580   24.5120   32.7610 H   0  0  0  0  0  0  0  0  0  0  0  0
   37.3730   24.9670   32.4870 H   0  0  0  0  0  0  0  0  0  0  0  0
   37.9510   24.8670   34.4430 O   0  0  0  0  0  0  0  0  0  0  0  0
   40.5270   24.5120   34.7750 O   0  0  0  0  0  0  0  0  0  0  0  0
   39.1670   23.9490   35.1070 P   0  0  2  0  0  0  0  0  0  0  0  0
   39.0250   22.3640   34.4210 O   0  0  0  0  0  0  0  0  0  0  0  0
   37.7790   21.7550   34.5050 C   0  0  0  0  0  0  0  0  0  0  0  0
   37.0910   21.4840   35.6280 N   0  0  0  0  0  0  0  0  0  0  0  0
   35.9040   20.8930   35.5360 C   0  0  0  0  0  3  0  0  0  0  0  0
   35.3540   20.5480   34.3550 N   0  0  0  0  0  0  0  0  0  0  0  0
   35.9980   20.7930   33.1930 C   0  0  0  0  0  0  0  0  0  0  0  0
   35.4110   20.4290   31.9990 C   0  0  0  0  0  3  0  0  0  0  0  0
   36.0960   20.6940   30.8360 C   0  0  0  0  0  0  0  0  0  0  0  0
   35.7490   20.4610   29.8280 H   0  0  0  0  0  0  0  0  0  0  0  0
   37.3330   21.3060   30.8530 C   0  0  0  0  0  0  0  0  0  0  0  0
   37.9010   21.5320   29.9710 H   0  0  0  0  0  0  0  0  0  0  0  0
   37.8890   21.6570   32.0670 C   0  0  0  0  0  3  0  0  0  0  0  0
   37.2480   21.4150   33.2610 C   0  0  0  0  0  0  0  0  0  0  0  0
   39.0300   23.7420   36.7420 O   0  0  0  0  0  0  0  0  0  0  0  0
   38.1730   24.6690   37.2870 C   0  0  0  0  0  0  0  0  0  0  0  0
   36.8390   24.4090   36.9790 F   0  0  0  0  0  0  0  0  0  0  0  0
   38.2410   24.6770   38.6710 F   0  0  0  0  0  0  0  0  0  0  0  0
   38.4900   25.9320   36.8090 F   0  0  0  0  0  0  0  0  0  0  0  0
  1 25  1  0  0  0  0
  1  3  1  0  0  0  0
  2  1  1  0  0  0  0
  5  4  1  0  0  0  0
  6  5  1  0  0  0  0
  6 18  1  0  0  0  0
  7  6  2  0  0  0  0
  8  9  2  0  0  0  0
  8  7  1  0  0  0  0
  9 10  1  0  0  0  0
 10  1  1  0  0  0  0
 10  5  2  0  0  0  0
 11  7  1  0  0  0  0
 12  8  1  0  0  0  0
 13  9  1  0  0  0  0
 14 15  1  0  0  0  0
 14 20  1  0  0  0  0
 15 21  1  0  0  0  0
 16 22  1  0  0  0  0
 16 15  2  0  0  0  0
 17 16  1  0  0  0  0
 18 17  2  0  0  0  0
 18 19  1  0  0  0  0
 19 14  2  0  0  0  0
 22 24  1  0  0  0  0
 23 22  1  0  0  0  0
 25 28  1  0  0  0  0
 26 25  1  0  0  0  0
 27 25  1  0  0  0  0
 28 30  1  0  0  0  0
 30 29  2  6  0  0  0
 30 44  1  0  0  0  0
 31 32  1  0  0  0  0
 31 30  1  0  0  0  0
 32 33  1  0  0  0  0
 34 33  2  0  0  0  0
 35 34  1  0  0  0  0
 36 43  1  0  0  0  0
 36 35  2  0  0  0  0
 37 36  1  0  0  0  0
 38 40  1  0  0  0  0
 38 37  2  0  0  0  0
 39 38  1  0  0  0  0
 40 42  2  0  0  0  0
 41 40  1  0  0  0  0
 42 43  1  0  0  0  0
 43 32  2  0  0  0  0
 44 45  1  0  0  0  0
 45 47  1  0  0  0  0
 46 45  1  0  0  0  0
 48 45  1  0  0  0  0
M  END
>  <minimizedAffinity>
-6.43016911

$$$$

 OpenBabel03272504433D

 48 51  0  0  0  0  0  0  0  0999 V2000
   39.9110   25.9280   34.4570 C   0  0  0  0  0  0  0  0  0  0  0  0
   40.6050   26.7960   34.3920 H   0  0  0  0  0  0  0  0  0  0  0  0
   39.3400   26.1380   35.4090 H   0  0  0  0  0  0  0  0  0  0  0  0
   41.0460   26.7030   31.8150 Cl  0  0  0  0  0  0  0  0  0  0  0  0
   39.3380   26.3510   32.0920 C   0  0  0  0  0  0  0  0  0  0  0  0
   38.4740   26.4330   31.0570 C   0  0  0  0  0  0  0  0  0  0  0  0
   37.1370   26.1640   31.2590 C   0  0  0  0  0  0  0  0  0  0  0  0
   36.7060   25.8100   32.5340 C   0  0  0  0  0  0  0  0  0  0  0  0
   37.6700   25.7460   33.5600 C   0  0  0  0  0  0  0  0  0  0  0  0
   38.9760   26.0080   33.3750 C   0  0  0  0  0  0  0  0  0  0  0  0
   36.4530   26.2360   30.4050 H   0  0  0  0  0  0  0  0  0  0  0  0
   35.6550   25.6210   32.5830 H   0  0  0  0  0  0  0  0  0  0  0  0
   37.1570   25.4750   34.4130 H   0  0  0  0  0  0  0  0  0  0  0  0
   40.1060   26.3740   27.7520 C   0  0  0  0  0  0  0  0  0  0  0  0
   39.6960   27.6510   27.2310 C   0  0  0  0  0  0  0  0  0  0  0  0
   38.8860   28.4610   28.0370 C   0  0  0  0  0  0  0  0  0  0  0  0
   38.5230   28.0130   29.2660 N   0  0  0  0  0  0  0  0  0  0  0  0
   38.9260   26.8060   29.7270 C   0  0  0  0  0  0  0  0  0  0  0  0
   39.7030   26.0080   28.9760 N   0  0  0  0  0  0  0  0  0  0  0  0
   40.7230   25.7380   27.1600 H   0  0  0  0  0  0  0  0  0  0  0  0
   40.0590   27.8650   26.2550 H   0  0  0  0  0  0  0  0  0  0  0  0
   38.5090   29.6940   27.4920 N   0  0  0  0  0  0  0  0  0  0  0  0
   37.5520   29.9410   27.1280 H   0  0  0  0  0  0  0  0  0  0  0  0
   39.2970   30.3740   27.4800 H   0  0  0  0  0  0  0  0  0  0  0  0
   40.7220   24.7210   34.6400 C   0  0  0  0  0  0  0  0  0  0  0  0
   41.7850   24.8320   34.2710 H   0  0  0  0  0  0  0  0  0  0  0  0
   40.3010   23.9130   33.9980 H   0  0  0  0  0  0  0  0  0  0  0  0
   40.7350   24.3220   35.9500 O   0  0  0  0  0  0  0  0  0  0  0  0
   39.9330   22.0880   37.0620 O   0  0  0  0  0  0  0  0  0  0  0  0
   39.4760   23.2840   36.2630 P   0  0  2  0  0  0  0  0  0  0  0  0
   38.8810   22.7460   34.7270 O   0  0  0  0  0  0  0  0  0  0  0  0
   37.6970   22.0200   34.7330 C   0  0  0  0  0  0  0  0  0  0  0  0
   37.0640   21.5250   35.8110 N   0  0  0  0  0  0  0  0  0  0  0  0
   35.9320   20.8470   35.6460 C   0  0  0  0  0  3  0  0  0  0  0  0
   35.3850   20.6330   34.4330 N   0  0  0  0  0  0  0  0  0  0  0  0
   35.9740   21.1050   33.3140 C   0  0  0  0  0  0  0  0  0  0  0  0
   35.3910   20.8700   32.0860 C   0  0  0  0  0  3  0  0  0  0  0  0
   36.0210   21.3660   30.9670 C   0  0  0  0  0  0  0  0  0  0  0  0
   35.6700   21.2540   29.9400 H   0  0  0  0  0  0  0  0  0  0  0  0
   37.1980   22.0780   31.0610 C   0  0  0  0  0  0  0  0  0  0  0  0
   37.7220   22.4830   30.2160 H   0  0  0  0  0  0  0  0  0  0  0  0
   37.7520   22.2950   32.3070 C   0  0  0  0  0  3  0  0  0  0  0  0
   37.1660   21.8210   33.4590 C   0  0  0  0  0  0  0  0  0  0  0  0
   38.1900   24.0020   37.0140 O   0  0  0  0  0  0  0  0  0  0  0  0
   38.2580   23.8370   38.3770 C   0  0  0  0  0  0  0  0  0  0  0  0
   37.8130   24.9610   39.0730 F   0  0  0  0  0  0  0  0  0  0  0  0
   37.4570   22.7920   38.8080 F   0  0  0  0  0  0  0  0  0  0  0  0
   39.5710   23.5890   38.7490 F   0  0  0  0  0  0  0  0  0  0  0  0
  1 25  1  0  0  0  0
  1  3  1  0  0  0  0
  2  1  1  0  0  0  0
  4  5  1  0  0  0  0
  5 10  1  0  0  0  0
  6  7  1  0  0  0  0
  6  5  2  0  0  0  0
  7  8  2  0  0  0  0
  8 12  1  0  0  0  0
  8  9  1  0  0  0  0
  9 13  1  0  0  0  0
 10  9  2  0  0  0  0
 10  1  1  0  0  0  0
 11  7  1  0  0  0  0
 14 19  1  0  0  0  0
 15 14  2  0  0  0  0
 15 16  1  0  0  0  0
 16 17  2  0  0  0  0
 17 18  1  0  0  0  0
 18  6  1  0  0  0  0
 19 18  2  0  0  0  0
 20 14  1  0  0  0  0
 21 15  1  0  0  0  0
 22 16  1  0  0  0  0
 23 22  1  0  0  0  0
 24 22  1  0  0  0  0
 25 28  1  0  0  0  0
 26 25  1  0  0  0  0
 27 25  1  0  0  0  0
 28 30  1  0  0  0  0
 30 44  1  0  0  0  0
 30 29  2  1  0  0  0
 31 32  1  0  0  0  0
 31 30  1  0  0  0  0
 32 33  1  0  0  0  0
 34 33  2  0  0  0  0
 35 34  1  0  0  0  0
 36 43  1  0  0  0  0
 36 35  2  0  0  0  0
 37 36  1  0  0  0  0
 38 40  1  0  0  0  0
 38 37  2  0  0  0  0
 39 38  1  0  0  0  0
 40 42  2  0  0  0  0
 41 40  1  0  0  0  0
 42 43  1  0  0  0  0
 43 32  2  0  0  0  0
 44 45  1  0  0  0  0
 45 48  1  0  0  0  0
 45 47  1  0  0  0  0
 45 46  1  0  0  0  0
M  END
>  <minimizedAffinity>
-6.34930038

$$$$

 OpenBabel03272504433D

 48 51  0  0  0  0  0  0  0  0999 V2000
   37.9360   27.1940   32.0400 C   0  0  0  0  0  0  0  0  0  0  0  0
   38.9220   27.5000   31.6240 H   0  0  0  0  0  0  0  0  0  0  0  0
   38.1750   27.0040   33.1280 H   0  0  0  0  0  0  0  0  0  0  0  0
   36.4160   27.7600   34.5370 Cl  0  0  0  0  0  0  0  0  0  0  0  0
   36.2770   28.7130   33.0580 C   0  0  0  0  0  0  0  0  0  0  0  0
   35.4340   29.7680   33.0330 C   0  0  0  0  0  0  0  0  0  0  0  0
   35.3130   30.5210   31.8840 C   0  0  0  0  0  0  0  0  0  0  0  0
   36.0690   30.1730   30.7690 C   0  0  0  0  0  0  0  0  0  0  0  0
   36.9250   29.0590   30.8750 C   0  0  0  0  0  0  0  0  0  0  0  0
   37.0500   28.3180   31.9900 C   0  0  0  0  0  0  0  0  0  0  0  0
   34.6230   31.3730   31.8860 H   0  0  0  0  0  0  0  0  0  0  0  0
   35.9010   30.8190   29.9330 H   0  0  0  0  0  0  0  0  0  0  0  0
   37.3850   28.9670   29.9560 H   0  0  0  0  0  0  0  0  0  0  0  0
   32.6890   30.0050   35.4840 C   0  0  0  0  0  0  0  0  0  0  0  0
   33.2740   30.8970   36.4500 C   0  0  0  0  0  0  0  0  0  0  0  0
   34.5720   31.3680   36.2120 C   0  0  0  0  0  0  0  0  0  0  0  0
   35.2200   30.9670   35.0890 N   0  0  0  0  0  0  0  0  0  0  0  0
   34.6430   30.1280   34.1980 C   0  0  0  0  0  0  0  0  0  0  0  0
   33.3990   29.6600   34.4020 N   0  0  0  0  0  0  0  0  0  0  0  0
   31.7040   29.6330   35.6410 H   0  0  0  0  0  0  0  0  0  0  0  0
   32.6460   31.1210   37.2780 H   0  0  0  0  0  0  0  0  0  0  0  0
   35.1030   32.2310   37.1770 N   0  0  0  0  0  0  0  0  0  0  0  0
   35.8470   31.9860   37.8820 H   0  0  0  0  0  0  0  0  0  0  0  0
   34.6760   33.1790   37.1310 H   0  0  0  0  0  0  0  0  0  0  0  0
   37.5560   25.9290   31.4050 C   0  0  0  0  0  0  0  0  0  0  0  0
   38.4140   25.4120   30.8810 H   0  0  0  0  0  0  0  0  0  0  0  0
   36.8370   26.1500   30.5820 H   0  0  0  0  0  0  0  0  0  0  0  0
   36.9890   25.0680   32.3070 O   0  0  0  0  0  0  0  0  0  0  0  0
   37.3430   22.6950   33.3640 O   0  0  0  0  0  0  0  0  0  0  0  0
   38.0520   23.8580   32.7150 P   0  0  2  0  0  0  0  0  0  0  0  0
   39.1740   24.5420   33.8460 O   0  0  0  0  0  0  0  0  0  0  0  0
   39.7860   23.6620   34.7290 C   0  0  0  0  0  0  0  0  0  0  0  0
   40.7590   22.7800   34.4400 N   0  0  0  0  0  0  0  0  0  0  0  0
   41.2410   22.0040   35.4070 C   0  0  0  0  0  3  0  0  0  0  0  0
   40.7930   22.0630   36.6760 N   0  0  0  0  0  0  0  0  0  0  0  0
   39.8180   22.9290   37.0270 C   0  0  0  0  0  0  0  0  0  0  0  0
   39.3790   22.9670   38.3350 C   0  0  0  0  0  3  0  0  0  0  0  0
   38.3830   23.8610   38.6550 C   0  0  0  0  0  0  0  0  0  0  0  0
   37.9460   23.9950   39.6460 H   0  0  0  0  0  0  0  0  0  0  0  0
   37.8350   24.6980   37.7050 C   0  0  0  0  0  0  0  0  0  0  0  0
   37.0580   25.4090   37.9110 H   0  0  0  0  0  0  0  0  0  0  0  0
   38.2990   24.6320   36.4070 C   0  0  0  0  0  3  0  0  0  0  0  0
   39.2930   23.7560   36.0300 C   0  0  0  0  0  0  0  0  0  0  0  0
   38.9680   23.3190   31.4480 O   0  0  0  0  0  0  0  0  0  0  0  0
   38.2940   22.3650   30.7210 C   0  0  0  0  0  0  0  0  0  0  0  0
   38.3480   21.1050   31.3150 F   0  0  0  0  0  0  0  0  0  0  0  0
   36.9470   22.6660   30.6080 F   0  0  0  0  0  0  0  0  0  0  0  0
   38.8480   22.2710   29.4540 F   0  0  0  0  0  0  0  0  0  0  0  0
  1  3  1  0  0  0  0
  2  1  1  0  0  0  0
  5  4  1  0  0  0  0
  6  5  1  0  0  0  0
  6 18  1  0  0  0  0
  7 11  1  0  0  0  0
  7  6  2  0  0  0  0
  8  9  2  0  0  0  0
  8  7  1  0  0  0  0
  9 10  1  0  0  0  0
 10  1  1  0  0  0  0
 10  5  2  0  0  0  0
 12  8  1  0  0  0  0
 13  9  1  0  0  0  0
 14 20  1  0  0  0  0
 14 15  1  0  0  0  0
 15 21  1  0  0  0  0
 16 15  2  0  0  0  0
 16 22  1  0  0  0  0
 17 16  1  0  0  0  0
 18 19  1  0  0  0  0
 18 17  2  0  0  0  0
 19 14  2  0  0  0  0
 22 23  1  0  0  0  0
 24 22  1  0  0  0  0
 25  1  1  0  0  0  0
 25 28  1  0  0  0  0
 26 25  1  0  0  0  0
 27 25  1  0  0  0  0
 28 30  1  0  0  0  0
 30 29  2  1  0  0  0
 30 31  1  0  0  0  0
 31 32  1  0  0  0  0
 32 43  1  0  0  0  0
 33 32  2  0  0  0  0
 33 34  1  0  0  0  0
 34 35  2  0  0  0  0
 35 36  1  0  0  0  0
 36 37  1  0  0  0  0
 37 38  2  0  0  0  0
 38 39  1  0  0  0  0
 40 41  1  0  0  0  0
 40 38  1  0  0  0  0
 42 40  2  0  0  0  0
 43 42  1  0  0  0  0
 43 36  2  0  0  0  0
 44 30  1  0  0  0  0
 45 46  1  0  0  0  0
 45 44  1  0  0  0  0
 47 45  1  0  0  0  0
 48 45  1  0  0  0  0
M  END
>  <minimizedAffinity>
-6.33158875

$$$$

 OpenBabel03272504433D

 48 51  0  0  0  0  0  0  0  0999 V2000
   39.3710   24.7500   30.2870 C   0  0  0  0  0  0  0  0  0  0  0  0
   39.3090   24.0450   29.4280 H   0  0  0  0  0  0  0  0  0  0  0  0
   39.8660   25.6570   29.8280 H   0  0  0  0  0  0  0  0  0  0  0  0
   38.9890   27.6300   30.9420 Cl  0  0  0  0  0  0  0  0  0  0  0  0
   37.7000   26.4250   30.9930 C   0  0  0  0  0  0  0  0  0  0  0  0
   36.4550   26.8100   31.3490 C   0  0  0  0  0  0  0  0  0  0  0  0
   35.4380   25.8800   31.3950 C   0  0  0  0  0  0  0  0  0  0  0  0
   35.7200   24.5570   31.0700 C   0  0  0  0  0  0  0  0  0  0  0  0
   37.0440   24.2360   30.7080 C   0  0  0  0  0  0  0  0  0  0  0  0
   38.0430   25.1340   30.6610 C   0  0  0  0  0  0  0  0  0  0  0  0
   34.4350   26.2140   31.6860 H   0  0  0  0  0  0  0  0  0  0  0  0
   34.8650   23.9190   31.1360 H   0  0  0  0  0  0  0  0  0  0  0  0
   37.0450   23.2230   30.5110 H   0  0  0  0  0  0  0  0  0  0  0  0
   35.6750   29.8740   33.2460 C   0  0  0  0  0  0  0  0  0  0  0  0
   35.6250   30.8400   32.1800 C   0  0  0  0  0  0  0  0  0  0  0  0
   35.8600   30.3920   30.8740 C   0  0  0  0  0  0  0  0  0  0  0  0
   36.1240   29.0760   30.6670 N   0  0  0  0  0  0  0  0  0  0  0  0
   36.1630   28.1920   31.6910 C   0  0  0  0  0  0  0  0  0  0  0  0
   35.9420   28.5940   32.9550 N   0  0  0  0  0  0  0  0  0  0  0  0
   35.5000   30.1880   34.2480 H   0  0  0  0  0  0  0  0  0  0  0  0
   35.4080   31.8310   32.4950 H   0  0  0  0  0  0  0  0  0  0  0  0
   35.8030   31.3630   29.8680 N   0  0  0  0  0  0  0  0  0  0  0  0
   36.6290   31.7690   29.3550 H   0  0  0  0  0  0  0  0  0  0  0  0
   34.8270   31.6590   29.6650 H   0  0  0  0  0  0  0  0  0  0  0  0
   40.2740   24.1640   31.2810 C   0  0  0  0  0  0  0  0  0  0  0  0
   40.9620   23.3740   30.8560 H   0  0  0  0  0  0  0  0  0  0  0  0
   39.6620   23.6080   32.0290 H   0  0  0  0  0  0  0  0  0  0  0  0
   41.0210   25.1270   31.9070 O   0  0  0  0  0  0  0  0  0  0  0  0
   42.8880   23.9510   33.3220 O   0  0  0  0  0  0  0  0  0  0  0  0
   41.5300   24.6020   33.3990 P   0  0  2  0  0  0  0  0  0  0  0  0
   40.3690   23.4330   33.9380 O   0  0  0  0  0  0  0  0  0  0  0  0
   40.5760   22.8780   35.1940 C   0  0  0  0  0  0  0  0  0  0  0  0
   41.5420   22.0080   35.5390 N   0  0  0  0  0  0  0  0  0  0  0  0
   41.6030   21.5690   36.7920 C   0  0  0  0  0  3  0  0  0  0  0  0
   40.7310   21.9600   37.7420 N   0  0  0  0  0  0  0  0  0  0  0  0
   39.7390   22.8310   37.4560 C   0  0  0  0  0  0  0  0  0  0  0  0
   38.8600   23.2130   38.4480 C   0  0  0  0  0  3  0  0  0  0  0  0
   37.8620   24.1010   38.1190 C   0  0  0  0  0  0  0  0  0  0  0  0
   37.1040   24.4850   38.8040 H   0  0  0  0  0  0  0  0  0  0  0  0
   37.7360   24.6000   36.8390 C   0  0  0  0  0  0  0  0  0  0  0  0
   36.9740   25.2940   36.5400 H   0  0  0  0  0  0  0  0  0  0  0  0
   38.6350   24.1950   35.8720 C   0  0  0  0  0  3  0  0  0  0  0  0
   39.6520   23.3090   36.1450 C   0  0  0  0  0  0  0  0  0  0  0  0
   41.5400   25.7850   34.5550 O   0  0  0  0  0  0  0  0  0  0  0  0
   40.5500   26.7110   34.3240 C   0  0  0  0  0  0  0  0  0  0  0  0
   40.9880   27.7750   33.5360 F   0  0  0  0  0  0  0  0  0  0  0  0
   39.4810   26.1570   33.6390 F   0  0  0  0  0  0  0  0  0  0  0  0
   40.1020   27.2220   35.5320 F   0  0  0  0  0  0  0  0  0  0  0  0
  1 10  1  0  0  0  0
  1 25  1  0  0  0  0
  2  1  1  0  0  0  0
  3  1  1  0  0  0  0
  4  5  1  0  0  0  0
  5  6  1  0  0  0  0
  6  7  2  0  0  0  0
  6 18  1  0  0  0  0
  7 11  1  0  0  0  0
  8 12  1  0  0  0  0
  8  7  1  0  0  0  0
  9  8  2  0  0  0  0
 10  9  1  0  0  0  0
 10  5  2  0  0  0  0
 13  9  1  0  0  0  0
 14 20  1  0  0  0  0
 15 21  1  0  0  0  0
 15 14  2  0  0  0  0
 16 15  1  0  0  0  0
 17 16  2  0  0  0  0
 17 18  1  0  0  0  0
 18 19  2  0  0  0  0
 19 14  1  0  0  0  0
 22 16  1  0  0  0  0
 23 22  1  0  0  0  0
 24 22  1  0  0  0  0
 25 28  1  0  0  0  0
 25 27  1  0  0  0  0
 26 25  1  0  0  0  0
 28 30  1  0  0  0  0
 30 29  2  6  0  0  0
 30 31  1  0  0  0  0
 30 44  1  0  0  0  0
 31 32  1  0  0  0  0
 32 33  2  0  0  0  0
 32 43  1  0  0  0  0
 33 34  1  0  0  0  0
 34 35  2  0  0  0  0
 36 35  1  0  0  0  0
 36 37  1  0  0  0  0
 38 37  2  0  0  0  0
 38 39  1  0  0  0  0
 40 38  1  0  0  0  0
 41 40  1  0  0  0  0
 42 43  1  0  0  0  0
 42 40  2  0  0  0  0
 43 36  2  0  0  0  0
 45 44  1  0  0  0  0
 45 48  1  0  0  0  0
 46 45  1  0  0  0  0
 47 45  1  0  0  0  0
M  END
>  <minimizedAffinity>
-6.31660938

$$$$
