REMARK  Name = 
REMARK  4 active torsions:
REMARK  status: ('A' for Active; 'I' for Inactive)
REMARK    1  A    between atoms: C_1  and  C_3
REMARK    2  A    between atoms: C_1  and  C_9
REMARK    3  A    between atoms: C_12  and  C_14
REMARK    4  A    between atoms: C_14  and  C_21
REMARK                            x       y       z     vdW  Elec       q    Type
REMARK                         _______ _______ _______ _____ _____    ______ ____
ROOT
ATOM      1  C   UNL     1      35.924  29.580  49.918  0.00  0.00    +0.000 A 
ATOM      2  C   UNL     1      34.694  29.880  50.383  0.00  0.00    +0.000 A 
ATOM      3  C   UNL     1      33.762  29.034  49.783  0.00  0.00    +0.000 A 
ATOM      4  C   UNL     1      34.536  28.216  48.933  0.00  0.00    +0.000 A 
ATOM      5  O   UNL     1      35.741  28.617  49.094  0.00  0.00    +0.000 OA
ATOM      6  H   UNL     1      34.283  30.593  51.082  0.00  0.00    +0.000 HD
ATOM      7  H   UNL     1      32.687  28.951  49.883  0.00  0.00    +0.000 HD
ENDROOT
BRANCH   1   8
ATOM      8  C   UNL     1      37.122  30.267  50.331  0.00  0.00    +0.000 C 
ATOM      9  O   UNL     1      37.516  30.140  51.498  0.00  0.00    +0.000 OA
BRANCH   8  10
ATOM     10  C   UNL     1      37.797  31.079  49.323  0.00  0.00    +0.000 A 
ATOM     11  C   UNL     1      38.097  32.394  49.713  0.00  0.00    +0.000 A 
ATOM     12  C   UNL     1      38.746  33.193  48.767  0.00  0.00    +0.000 A 
ATOM     13  N   UNL     1      39.048  32.677  47.547  0.00  0.00    +0.000 NA
ATOM     14  C   UNL     1      38.732  31.398  47.226  0.00  0.00    +0.000 A 
ATOM     15  N   UNL     1      38.116  30.614  48.105  0.00  0.00    +0.000 NA
ATOM     16  H   UNL     1      37.858  32.807  50.681  0.00  0.00    +0.000 HD
ATOM     17  H   UNL     1      39.017  34.228  48.984  0.00  0.00    +0.000 HD
ATOM     18  H   UNL     1      38.958  30.962  46.270  0.00  0.00    +0.000 HD
ENDBRANCH   8  10
ENDBRANCH   1   8
BRANCH   4  19
ATOM     19  C   UNL     1      33.981  27.154  48.085  0.00  0.00    +0.000 C 
ATOM     20  O   UNL     1      32.743  26.949  48.091  0.00  0.00    +0.000 OA
BRANCH  19  21
ATOM     21  C   UNL     1      34.537  26.191  47.167  0.00  0.00    +0.000 A 
ATOM     22  N   UNL     1      34.800  24.968  47.686  0.00  0.00    +0.000 NA
ATOM     23  C   UNL     1      35.328  23.945  46.957  0.00  0.00    +0.000 A 
ATOM     24  N   UNL     1      35.608  24.131  45.663  0.00  0.00    +0.000 NA
ATOM     25  C   UNL     1      35.384  25.303  45.050  0.00  0.00    +0.000 A 
ATOM     26  C   UNL     1      35.638  25.502  43.711  0.00  0.00    +0.000 A 
ATOM     27  C   UNL     1      35.367  26.695  43.099  0.00  0.00    +0.000 A 
ATOM     28  H   UNL     1      35.567  26.850  42.049  0.00  0.00    +0.000 HD
ATOM     29  C   UNL     1      34.822  27.696  43.898  0.00  0.00    +0.000 A 
ATOM     30  H   UNL     1      34.615  28.633  43.391  0.00  0.00    +0.000 HD
ATOM     31  C   UNL     1      34.581  27.466  45.232  0.00  0.00    +0.000 A 
ATOM     32  C   UNL     1      34.851  26.279  45.854  0.00  0.00    +0.000 A 
ENDBRANCH  19  21
ENDBRANCH   4  19
TORSDOF 4
