
 OpenBabel03262521393D

 32 35  0  0  0  0  0  0  0  0999 V2000
   35.3020   29.3770   45.3500 F   0  0  0  0  0  0  0  0  0  0  0  0
   35.2510   30.4050   44.4450 C   0  0  0  0  0  0  0  0  0  0  0  0
   34.0460   30.8120   43.8980 C   0  0  0  0  0  0  0  0  0  0  0  0
   34.0460   31.8650   42.9790 C   0  0  0  0  0  0  0  0  0  0  0  0
   35.2320   32.4970   42.6180 C   0  0  0  0  0  0  0  0  0  0  0  0
   36.3950   32.0480   43.1950 C   0  0  0  0  0  0  0  0  0  0  0  0
   36.4350   31.0080   44.1080 C   0  0  0  0  0  0  0  0  0  0  0  0
   33.0820   32.1640   42.5640 H   0  0  0  0  0  0  0  0  0  0  0  0
   35.2070   33.3010   41.9130 H   0  0  0  0  0  0  0  0  0  0  0  0
   37.3280   32.5280   42.9260 H   0  0  0  0  0  0  0  0  0  0  0  0
   32.2030   30.7000   45.3840 C   0  0  0  0  0  0  0  0  0  0  0  0
   32.8730   30.1230   44.3090 C   0  0  0  0  0  0  0  0  0  0  0  0
   32.3300   28.9570   43.7660 C   0  0  0  0  0  0  0  0  0  0  0  0
   31.1820   28.4570   44.3190 N   0  0  0  0  0  0  0  0  0  0  0  0
   30.5780   29.0450   45.3470 C   0  0  0  0  0  0  0  0  0  0  0  0
   31.0670   30.1690   45.9000 N   0  0  0  0  0  0  0  0  0  0  0  0
   32.5420   31.6150   45.8840 H   0  0  0  0  0  0  0  0  0  0  0  0
   32.8840   28.5500   42.9380 H   0  0  0  0  0  0  0  0  0  0  0  0
   29.6740   28.6280   45.7620 H   0  0  0  0  0  0  0  0  0  0  0  0
   37.9730   30.4430   44.8440 S   0  0  0  0  0  0  0  0  0  0  0  0
   38.6720   31.6890   45.9000 C   0  0  0  0  0  0  0  0  0  0  0  0
   39.6360   32.5950   45.5700 N   0  0  0  0  0  0  0  0  0  0  0  0
   40.0580   33.4780   46.4920 C   0  0  0  0  0  3  0  0  0  0  0  0
   39.5890   33.5320   47.7420 N   0  0  0  0  0  0  0  0  0  0  0  0
   38.6350   32.6610   48.1260 C   0  0  0  0  0  0  0  0  0  0  0  0
   38.1530   32.7160   49.4080 C   0  0  0  0  0  3  0  0  0  0  0  0
   37.1700   31.8220   49.8140 C   0  0  0  0  0  0  0  0  0  0  0  0
   36.7340   31.7980   50.8110 H   0  0  0  0  0  0  0  0  0  0  0  0
   36.6800   30.8740   48.9110 C   0  0  0  0  0  0  0  0  0  0  0  0
   35.9060   30.1580   49.1990 H   0  0  0  0  0  0  0  0  0  0  0  0
   37.2100   30.8780   47.6410 C   0  0  0  0  0  3  0  0  0  0  0  0
   38.1790   31.7410   47.2020 C   0  0  0  0  0  0  0  0  0  0  0  0
  2  1  1  0  0  0  0
  3 12  1  0  0  0  0
  3  2  2  0  0  0  0
  4  3  1  0  0  0  0
  5  4  2  0  0  0  0
  5  6  1  0  0  0  0
  6  7  2  0  0  0  0
  7  2  1  0  0  0  0
  7 20  1  0  0  0  0
  8  4  1  0  0  0  0
  9  5  1  0  0  0  0
 10  6  1  0  0  0  0
 11 17  1  0  0  0  0
 11 16  1  0  0  0  0
 12 11  2  0  0  0  0
 13 12  1  0  0  0  0
 13 14  2  0  0  0  0
 14 15  1  0  0  0  0
 15 19  1  0  0  0  0
 15 16  2  0  0  0  0
 18 13  1  0  0  0  0
 20 21  1  0  0  0  0
 21 32  1  0  0  0  0
 22 21  2  0  0  0  0
 22 23  1  0  0  0  0
 23 24  2  0  0  0  0
 24 25  1  0  0  0  0
 25 26  1  0  0  0  0
 26 27  2  0  0  0  0
 27 28  1  0  0  0  0
 29 30  1  0  0  0  0
 29 27  1  0  0  0  0
 31 29  2  0  0  0  0
 32 31  1  0  0  0  0
 32 25  2  0  0  0  0
M  END
>  <minimizedAffinity>
-5.16444635

>  <minimizedRMSD>
5.54498339

$$$$
