
 OpenBabel03272502233D

 32 37  0  0  1  0  0  0  0  0999 V2000
   39.8920   33.4100   46.4830 C   0  0  0  0  0  0  0  0  0  0  0  0
   39.3850   32.8250   47.6350 C   0  0  0  0  0  0  0  0  0  0  0  0
   38.3250   31.9590   47.5430 C   0  0  0  0  0  0  0  0  0  0  0  0
   37.8140   31.7120   46.3010 N   0  0  0  0  0  0  0  0  0  0  0  0
   38.3530   32.3190   45.1830 C   0  0  0  0  0  0  0  0  0  0  0  0
   39.3620   33.1390   45.2980 N   0  0  0  0  0  0  0  0  0  0  0  0
   40.7200   34.0740   46.5710 H   0  0  0  0  0  0  0  0  0  0  0  0
   39.7190   32.9510   48.6340 H   0  0  0  0  0  0  0  0  0  0  0  0
   37.5800   31.7330   44.1840 C   0  0  2  0  0  0  0  0  0  0  0  0
   36.8330   31.1600   43.2110 N   0  0  2  0  0  0  0  0  0  0  0  0
   35.7330   31.0750   42.7960 C   0  0  0  0  0  0  0  0  0  0  0  0
   36.5930   30.3270   42.0370 N   0  0  0  0  0  0  0  0  0  0  0  0
   37.9220   30.2260   42.2670 C   0  0  0  0  0  0  0  0  0  0  0  0
   38.7990   29.4320   41.4140 C   0  0  0  0  0  0  0  0  0  0  0  0
   40.1630   29.3740   41.6630 C   0  0  0  0  0  0  0  0  0  0  0  0
   40.7060   28.7500   40.9790 H   0  0  0  0  0  0  0  0  0  0  0  0
   40.7550   30.0450   42.7010 C   0  0  0  0  0  0  0  0  0  0  0  0
   41.7940   30.0060   42.8830 H   0  0  0  0  0  0  0  0  0  0  0  0
   39.9140   30.7840   43.4990 C   0  0  0  0  0  0  0  0  0  0  0  0
   38.4960   30.9400   43.3750 C   0  0  2  0  0  0  0  0  0  0  0  0
   37.6920   31.2540   48.6790 C   0  0  0  0  0  0  0  0  0  0  0  0
   38.2780   31.2060   49.9040 C   0  0  0  0  0  0  0  0  0  0  0  0
   37.6990   30.5600   50.9920 C   0  0  0  0  0  0  0  0  0  0  0  0
   36.4940   29.9560   50.7990 N   0  0  0  0  0  0  0  0  0  0  0  0
   35.9450   30.0170   49.5980 C   0  0  0  0  0  0  0  0  0  0  0  0
   36.4910   30.6410   48.5230 N   0  0  0  0  0  0  0  0  0  0  0  0
   39.2380   31.6950   50.0030 H   0  0  0  0  0  0  0  0  0  0  0  0
   38.1330   30.5170   51.9660 H   0  0  0  0  0  0  0  0  0  0  0  0
   34.6200   29.3720   49.3640 C   0  0  0  0  0  0  0  0  0  0  0  0
   34.0700   29.9150   48.2050 F   0  0  0  0  0  0  0  0  0  0  0  0
   34.7430   27.9990   49.2710 F   0  0  0  0  0  0  0  0  0  0  0  0
   33.7460   29.6300   50.3790 F   0  0  0  0  0  0  0  0  0  0  0  0
  1  7  1  0  0  0  0
  1  2  1  0  0  0  0
  2  8  1  0  0  0  0
  3  2  2  0  0  0  0
  3 21  1  0  0  0  0
  4  3  1  0  0  0  0
  5  6  1  0  0  0  0
  5  4  2  0  0  0  0
  6  1  2  0  0  0  0
  9  5  1  1  0  0  0
 10 11  1  6  0  0  0
 10 20  1  0  0  0  0
 10  9  1  0  0  0  0
 12 13  1  0  0  0  0
 12 11  1  0  0  0  0
 12 10  1  0  0  0  0
 13 20  1  0  0  0  0
 14 15  1  0  0  0  0
 14 13  2  0  0  0  0
 15 17  2  0  0  0  0
 16 15  1  0  0  0  0
 17 18  1  0  0  0  0
 17 19  1  0  0  0  0
 20 19  1  6  0  0  0
 20  9  1  0  0  0  0
 21 22  1  0  0  0  0
 22 27  1  0  0  0  0
 22 23  2  0  0  0  0
 23 28  1  0  0  0  0
 24 23  1  0  0  0  0
 25 24  2  0  0  0  0
 26 21  2  0  0  0  0
 26 25  1  0  0  0  0
 29 25  1  0  0  0  0
 29 32  1  0  0  0  0
 30 29  1  0  0  0  0
 31 29  1  0  0  0  0
M  END
>  <minimizedAffinity>
-6.61326647

>  <minimizedRMSD>
7.82852077

$$$$
