REMARK  Name = 
REMARK  4 active torsions:
REMARK  status: ('A' for Active; 'I' for Inactive)
REMARK    1  A    between atoms: C_1  and  C_11
REMARK    2  A    between atoms: C_5  and  C_14
REMARK    3  A    between atoms: C_13  and  S_19
REMARK    4  A    between atoms: S_19  and  C_31
REMARK                            x       y       z     vdW  Elec       q    Type
REMARK                         _______ _______ _______ _____ _____    ______ ____
ROOT
ATOM      1  C   UNL     1      31.998  28.418  47.105  0.00  0.00    +0.000 A 
ATOM      2  C   UNL     1      33.014  29.352  46.894  0.00  0.00    +0.000 A 
ATOM      3  C   UNL     1      33.045  30.237  45.842  0.00  0.00    +0.000 A 
ATOM      4  C   UNL     1      32.027  30.250  44.900  0.00  0.00    +0.000 A 
ATOM      5  C   UNL     1      30.980  29.363  45.030  0.00  0.00    +0.000 A 
ATOM      6  C   UNL     1      31.035  28.526  46.100  0.00  0.00    +0.000 A 
ATOM      7  H   UNL     1      33.891  30.939  45.757  0.00  0.00    +0.000 HD
ATOM      8  H   UNL     1      32.118  30.969  44.102  0.00  0.00    +0.000 HD
ATOM      9  H   UNL     1      30.190  29.354  44.325  0.00  0.00    +0.000 HD
ATOM     10  H   UNL     1      30.182  27.829  46.177  0.00  0.00    +0.000 HD
ENDROOT
BRANCH   2  15
ATOM     11  C   UNL     1      36.082  30.269  48.695  0.00  0.00    +0.000 A 
ATOM     12  C   UNL     1      36.003  29.411  49.713  0.00  0.00    +0.000 A 
ATOM     13  C   UNL     1      34.990  28.558  49.848  0.00  0.00    +0.000 A 
ATOM     14  N   UNL     1      34.024  28.575  48.909  0.00  0.00    +0.000 NA
ATOM     15  C   UNL     1      34.080  29.416  47.874  0.00  0.00    +0.000 A 
ATOM     16  N   UNL     1      35.108  30.266  47.766  0.00  0.00    +0.000 NA
ATOM     17  H   UNL     1      36.816  29.453  50.418  0.00  0.00    +0.000 HD
ATOM     18  H   UNL     1      35.080  27.938  50.736  0.00  0.00    +0.000 HD
BRANCH  11  23
ATOM     19  C   UNL     1      38.133  33.236  49.428  0.00  0.00    +0.000 A 
ATOM     20  C   UNL     1      39.050  33.227  48.357  0.00  0.00    +0.000 A 
ATOM     21  C   UNL     1      38.943  32.187  47.404  0.00  0.00    +0.000 A 
ATOM     22  N   UNL     1      37.964  31.244  47.562  0.00  0.00    +0.000 NA
ATOM     23  C   UNL     1      37.120  31.287  48.585  0.00  0.00    +0.000 A 
ATOM     24  N   UNL     1      37.203  32.292  49.529  0.00  0.00    +0.000 NA
ATOM     25  H   UNL     1      38.209  34.028  50.160  0.00  0.00    +0.000 HD
ATOM     26  H   UNL     1      39.814  33.949  48.218  0.00  0.00    +0.000 HD
ATOM     27  H   UNL     1      39.593  32.091  46.552  0.00  0.00    +0.000 HD
ENDBRANCH  11  23
ENDBRANCH   2  15
BRANCH   1  28
ATOM     28  S   UNL     1      31.934  27.318  48.395  0.00  0.00    +0.000 S 
ATOM     29  O   UNL     1      31.370  26.150  47.688  0.00  0.00    +0.000 OA
ATOM     30  O   UNL     1      30.781  27.583  49.296  0.00  0.00    +0.000 OA
BRANCH  28  31
ATOM     31  C   UNL     1      33.094  26.150  48.849  0.00  0.00    +0.000 A 
ATOM     32  N   UNL     1      33.920  26.068  49.880  0.00  0.00    +0.000 NA
ATOM     33  C   UNL     1      34.879  25.190  50.157  0.00  0.00    +0.000 A 
ATOM     34  N   UNL     1      35.091  24.204  49.285  0.00  0.00    +0.000 NA
ATOM     35  C   UNL     1      34.318  24.176  48.194  0.00  0.00    +0.000 A 
ATOM     36  C   UNL     1      34.598  23.119  47.345  0.00  0.00    +0.000 A 
ATOM     37  C   UNL     1      33.883  22.947  46.182  0.00  0.00    +0.000 A 
ATOM     38  H   UNL     1      34.104  22.126  45.525  0.00  0.00    +0.000 HD
ATOM     39  C   UNL     1      32.887  23.850  45.888  0.00  0.00    +0.000 A 
ATOM     40  H   UNL     1      32.333  23.716  44.987  0.00  0.00    +0.000 HD
ATOM     41  C   UNL     1      32.666  24.874  46.778  0.00  0.00    +0.000 A 
ATOM     42  C   UNL     1      33.343  25.105  47.958  0.00  0.00    +0.000 A 
ENDBRANCH  28  31
ENDBRANCH   1  28
TORSDOF 4
