
 OpenBabel03272504173D

 29 31  0  0  0  0  0  0  0  0999 V2000
   35.7190   30.0370   46.1290 O   0  0  0  0  0  0  0  0  0  0  0  0
   34.5740   29.9060   47.1150 P   0  0  1  0  0  0  0  0  0  0  0  0
   34.4080   28.3180   47.6480 O   0  0  0  0  0  0  0  0  0  0  0  0
   33.6600   28.3050   48.2910 H   0  0  0  0  0  0  0  0  0  0  0  0
   34.8430   30.8820   48.5120 O   0  0  0  0  0  0  0  0  0  0  0  0
   35.9960   30.7870   49.2650 C   0  0  0  0  0  0  0  0  0  0  0  0
   36.2150   29.9650   50.3710 C   0  0  0  0  0  0  0  0  0  0  0  0
   37.4430   30.0150   50.9960 C   0  0  0  0  0  0  0  0  0  0  0  0
   38.4100   30.8600   50.5250 N   0  0  0  0  0  0  0  0  0  0  0  0
   38.1650   31.6450   49.4490 C   0  0  0  0  0  0  0  0  0  0  0  0
   36.9590   31.6060   48.8240 N   0  0  0  0  0  0  0  0  0  0  0  0
   37.5530   29.3560   51.8460 H   0  0  0  0  0  0  0  0  0  0  0  0
   38.9580   32.3130   49.0920 H   0  0  0  0  0  0  0  0  0  0  0  0
   35.1140   29.1560   50.7230 N   0  0  0  0  0  0  0  0  0  0  0  0
   34.3160   29.7310   51.1030 H   0  0  0  0  0  0  0  0  0  0  0  0
   35.4990   28.2180   50.4700 H   0  0  0  0  0  0  0  0  0  0  0  0
   33.2080   30.4600   46.2930 O   0  0  0  0  0  0  0  0  0  0  0  0
   32.1720   29.6170   45.9240 C   0  0  0  0  0  0  0  0  0  0  0  0
   31.2560   29.0460   46.7150 N   0  0  0  0  0  0  0  0  0  0  0  0
   30.2980   28.2430   46.2170 C   0  0  0  0  0  3  0  0  0  0  0  0
   30.2190   27.9730   44.8810 N   0  0  0  0  0  0  0  0  0  0  0  0
   31.1240   28.5270   44.0310 C   0  0  0  0  0  0  0  0  0  0  0  0
   31.0510   28.2600   42.6670 C   0  0  0  0  0  3  0  0  0  0  0  0
   31.9780   28.8270   41.8020 C   0  0  0  0  0  0  0  0  0  0  0  0
   31.8430   28.5630   40.7710 H   0  0  0  0  0  0  0  0  0  0  0  0
   32.9700   29.6570   42.3020 C   0  0  0  0  0  0  0  0  0  0  0  0
   33.6660   30.0770   41.6140 H   0  0  0  0  0  0  0  0  0  0  0  0
   32.9840   29.8790   43.6620 C   0  0  0  0  0  3  0  0  0  0  0  0
   32.0970   29.3500   44.5720 C   0  0  0  0  0  0  0  0  0  0  0  0
  2  1  2  6  0  0  0
  2  3  1  0  0  0  0
  2  5  1  0  0  0  0
  3  4  1  0  0  0  0
  5  6  1  0  0  0  0
  6  7  1  0  0  0  0
  7 14  1  0  0  0  0
  7  8  2  0  0  0  0
  8 12  1  0  0  0  0
  9  8  1  0  0  0  0
 10  9  2  0  0  0  0
 11  6  2  0  0  0  0
 11 10  1  0  0  0  0
 13 10  1  0  0  0  0
 14 15  1  0  0  0  0
 16 14  1  0  0  0  0
 17  2  1  0  0  0  0
 18 17  1  0  0  0  0
 18 19  1  0  0  0  0
 20 19  2  0  0  0  0
 21 20  1  0  0  0  0
 22 29  1  0  0  0  0
 22 21  2  0  0  0  0
 23 22  1  0  0  0  0
 24 26  1  0  0  0  0
 24 23  2  0  0  0  0
 25 24  1  0  0  0  0
 26 28  2  0  0  0  0
 27 26  1  0  0  0  0
 28 29  1  0  0  0  0
 29 18  2  0  0  0  0
M  END
>  <minimizedAffinity>
-3.89640307

>  <minimizedRMSD>
2.44644451

$$$$
