
 OpenBabel03272504573D

 36 39  0  0  1  0  0  0  0  0999 V2000
   36.9980   31.5410   48.7450 C   0  0  1  0  0  0  0  0  0  0  0  0
   36.1410   30.9740   47.7300 C   0  0  0  0  0  0  0  0  0  0  0  0
   37.1500   30.1180   48.4290 C   0  0  2  0  0  0  0  0  0  0  0  0
   36.6400   31.7400   49.8130 H   0  0  0  0  0  0  0  0  0  0  0  0
   35.1270   31.2210   47.9910 H   0  0  0  0  0  0  0  0  0  0  0  0
   36.3670   31.2320   46.6750 H   0  0  0  0  0  0  0  0  0  0  0  0
   37.7920   29.6440   47.7070 H   0  0  0  0  0  0  0  0  0  0  0  0
   38.1470   32.4380   48.3780 C   0  0  0  0  0  0  0  0  0  0  0  0
   38.5250   33.3820   49.3480 C   0  0  0  0  0  0  0  0  0  0  0  0
   39.5810   34.1900   48.9900 C   0  0  0  0  0  0  0  0  0  0  0  0
   40.1770   34.0460   47.7850 N   0  0  0  0  0  0  0  0  0  0  0  0
   39.7830   33.1220   46.8760 C   0  0  0  0  0  0  0  0  0  0  0  0
   38.7320   32.2900   47.1830 N   0  0  0  0  0  0  0  0  0  0  0  0
   40.3970   32.9340   45.6330 N   0  0  0  0  0  0  0  0  0  0  0  0
   38.0680   33.5050   50.2960 H   0  0  0  0  0  0  0  0  0  0  0  0
   39.9290   34.9410   49.6860 H   0  0  0  0  0  0  0  0  0  0  0  0
   41.3210   32.4200   45.5280 H   0  0  0  0  0  0  0  0  0  0  0  0
   39.9280   33.3120   44.7860 H   0  0  0  0  0  0  0  0  0  0  0  0
   36.6300   29.2330   49.3770 O   0  0  0  0  0  0  0  0  0  0  0  0
   34.6750   27.5900   49.7170 O   0  0  0  0  0  0  0  0  0  0  0  0
   35.0410   28.8710   49.0380 P   0  0  1  0  0  0  0  0  0  0  0  0
   34.0180   30.0690   49.7640 O   0  0  0  0  0  0  0  0  0  0  0  0
   33.1100   29.7020   49.6290 H   0  0  0  0  0  0  0  0  0  0  0  0
   34.8180   28.8630   47.3750 O   0  0  0  0  0  0  0  0  0  0  0  0
   33.6550   28.8890   46.6680 C   0  0  0  0  0  0  0  0  0  0  0  0
   32.4400   28.7110   47.1860 N   0  0  0  0  0  0  0  0  0  0  0  0
   31.3860   28.7660   46.3540 C   0  0  0  0  0  3  0  0  0  0  0  0
   31.5160   28.9940   45.0250 N   0  0  0  0  0  0  0  0  0  0  0  0
   32.7190   29.1810   44.4540 C   0  0  0  0  0  0  0  0  0  0  0  0
   32.8870   29.4170   43.1000 C   0  0  0  0  0  3  0  0  0  0  0  0
   34.1270   29.6010   42.5570 C   0  0  0  0  0  0  0  0  0  0  0  0
   34.2900   29.7870   41.5080 H   0  0  0  0  0  0  0  0  0  0  0  0
   35.2230   29.5510   43.3720 C   0  0  0  0  0  0  0  0  0  0  0  0
   36.2170   29.6950   42.9650 H   0  0  0  0  0  0  0  0  0  0  0  0
   35.0450   29.3160   44.7210 C   0  0  0  0  0  3  0  0  0  0  0  0
   33.8190   29.1270   45.2990 C   0  0  0  0  0  0  0  0  0  0  0  0
  1  4  1  1  0  0  0
  2  5  1  0  0  0  0
  2  3  1  0  0  0  0
  2  1  1  0  0  0  0
  3  7  1  6  0  0  0
  3  1  1  0  0  0  0
  3 19  1  0  0  0  0
  6  2  1  0  0  0  0
  8  1  1  0  0  0  0
  8  9  1  0  0  0  0
  9 15  1  0  0  0  0
 10  9  2  0  0  0  0
 10 16  1  0  0  0  0
 11 10  1  0  0  0  0
 12 13  1  0  0  0  0
 12 11  2  0  0  0  0
 13  8  2  0  0  0  0
 14 12  1  0  0  0  0
 17 14  1  0  0  0  0
 18 14  1  0  0  0  0
 21 19  1  0  0  0  0
 21 20  2  1  0  0  0
 21 22  1  0  0  0  0
 23 22  1  0  0  0  0
 24 21  1  0  0  0  0
 25 26  1  0  0  0  0
 25 24  1  0  0  0  0
 27 26  2  0  0  0  0
 28 27  1  0  0  0  0
 29 28  2  0  0  0  0
 29 36  1  0  0  0  0
 30 29  1  0  0  0  0
 31 30  2  0  0  0  0
 31 33  1  0  0  0  0
 32 31  1  0  0  0  0
 33 35  2  0  0  0  0
 34 33  1  0  0  0  0
 35 36  1  0  0  0  0
 36 25  2  0  0  0  0
M  END
>  <minimizedAffinity>
-4.75492811

>  <minimizedRMSD>
1.8930968

$$$$
