
 OpenBabel03272509473D

 28 30  0  0  0  0  0  0  0  0999 V2000
   34.2750   27.7330   48.6350 C   0  0  0  0  0  0  0  0  0  0  0  0
   34.1600   26.7650   49.1890 H   0  0  0  0  0  0  0  0  0  0  0  0
   35.0480   27.5110   47.8700 H   0  0  0  0  0  0  0  0  0  0  0  0
   32.9620   28.0510   48.0440 C   0  0  0  0  0  0  0  0  0  0  0  0
   31.8160   27.5820   48.5930 N   0  0  0  0  0  0  0  0  0  0  0  0
   30.6060   27.8520   48.1260 C   0  0  0  0  0  3  0  0  0  0  0  0
   30.4610   28.6330   47.0420 N   0  0  0  0  0  0  0  0  0  0  0  0
   31.5240   29.1480   46.4210 C   0  0  0  0  0  0  0  0  0  0  0  0
   31.3380   29.9400   45.3110 C   0  0  0  0  0  3  0  0  0  0  0  0
   32.4790   30.4330   44.7120 C   0  0  0  0  0  0  0  0  0  0  0  0
   32.3270   31.0550   43.8390 H   0  0  0  0  0  0  0  0  0  0  0  0
   33.7600   30.1680   45.1770 C   0  0  0  0  0  0  0  0  0  0  0  0
   34.5960   30.6080   44.6290 H   0  0  0  0  0  0  0  0  0  0  0  0
   33.8680   29.3660   46.2980 C   0  0  0  0  0  3  0  0  0  0  0  0
   32.7620   28.8450   46.9370 C   0  0  0  0  0  0  0  0  0  0  0  0
   34.7220   28.7370   49.6450 C   0  0  0  0  0  0  0  0  0  0  0  0
   34.1660   28.5660   50.5950 H   0  0  0  0  0  0  0  0  0  0  0  0
   34.4360   29.7470   49.3190 H   0  0  0  0  0  0  0  0  0  0  0  0
   36.1210   28.6290   49.8640 O   0  0  0  0  0  0  0  0  0  0  0  0
   38.3880   31.4360   50.0700 C   0  0  0  0  0  0  0  0  0  0  0  0
   38.3760   31.8610   48.7420 C   0  0  0  0  0  0  0  0  0  0  0  0
   37.5820   31.1550   47.8290 C   0  0  0  0  0  0  0  0  0  0  0  0
   36.8730   30.0930   48.3210 N   0  0  0  0  0  0  0  0  0  0  0  0
   36.9130   29.7190   49.6040 C   0  0  0  0  0  0  0  0  0  0  0  0
   37.6810   30.4050   50.4750 N   0  0  0  0  0  0  0  0  0  0  0  0
   38.9980   31.9680   50.8000 H   0  0  0  0  0  0  0  0  0  0  0  0
   38.9560   32.7060   48.4100 H   0  0  0  0  0  0  0  0  0  0  0  0
   37.5300   31.4340   46.7820 H   0  0  0  0  0  0  0  0  0  0  0  0
  1  2  1  0  0  0  0
  1 16  1  0  0  0  0
  3  1  1  0  0  0  0
  4  5  1  0  0  0  0
  4  1  1  0  0  0  0
  6  5  2  0  0  0  0
  7  6  1  0  0  0  0
  8 15  1  0  0  0  0
  8  7  2  0  0  0  0
  9  8  1  0  0  0  0
 10 12  1  0  0  0  0
 10  9  2  0  0  0  0
 11 10  1  0  0  0  0
 12 14  2  0  0  0  0
 13 12  1  0  0  0  0
 14 15  1  0  0  0  0
 15  4  2  0  0  0  0
 16 19  1  0  0  0  0
 16 17  1  0  0  0  0
 18 16  1  0  0  0  0
 20 25  1  0  0  0  0
 20 26  1  0  0  0  0
 21 20  2  0  0  0  0
 22 23  2  0  0  0  0
 22 21  1  0  0  0  0
 23 24  1  0  0  0  0
 24 19  1  0  0  0  0
 24 25  2  0  0  0  0
 27 21  1  0  0  0  0
 28 22  1  0  0  0  0
M  END
>  <minimizedAffinity>
-4.56364536

>  <minimizedRMSD>
2.09075403

$$$$
