
 OpenBabel03272503303D

 37 40  0  0  1  0  0  0  0  0999 V2000
   34.5030   29.2120   48.1120 C   0  0  0  0  0  0  0  0  0  0  0  0
   34.1860   30.0490   47.0270 C   0  0  0  0  0  0  0  0  0  0  0  0
   32.9590   29.8370   46.4050 C   0  0  0  0  0  0  0  0  0  0  0  0
   32.1540   28.8350   46.8940 N   0  0  0  0  0  0  0  0  0  0  0  0
   32.4940   28.0670   47.9240 C   0  0  0  0  0  0  0  0  0  0  0  0
   33.6730   28.2550   48.5370 N   0  0  0  0  0  0  0  0  0  0  0  0
   34.8600   30.8230   46.6840 H   0  0  0  0  0  0  0  0  0  0  0  0
   32.6470   30.4390   45.5670 H   0  0  0  0  0  0  0  0  0  0  0  0
   35.7690   29.4330   48.7490 N   0  0  0  0  0  0  0  0  0  0  0  0
   36.8830   30.1740   48.2350 C   0  0  0  0  0  0  0  0  0  0  0  0
   37.5690   30.6630   49.5020 C   0  0  2  0  0  0  0  0  0  0  0  0
   36.6910   30.2260   50.6500 C   0  0  0  0  0  0  0  0  0  0  0  0
   36.1540   28.9360   50.0530 C   0  0  0  0  0  0  0  0  0  0  0  0
   36.5790   31.0370   47.6170 H   0  0  0  0  0  0  0  0  0  0  0  0
   37.5360   29.5210   47.6300 H   0  0  0  0  0  0  0  0  0  0  0  0
   38.5370   30.1430   49.5820 H   0  0  0  0  0  0  0  0  0  0  0  0
   35.8890   30.9200   50.9040 H   0  0  0  0  0  0  0  0  0  0  0  0
   37.3470   29.9310   51.4920 H   0  0  0  0  0  0  0  0  0  0  0  0
   35.2640   28.6470   50.6530 H   0  0  0  0  0  0  0  0  0  0  0  0
   36.9420   28.1670   50.0270 H   0  0  0  0  0  0  0  0  0  0  0  0
   37.8070   32.1480   49.4910 C   0  0  0  0  0  0  0  0  0  0  0  0
   36.7060   32.7280   50.1100 F   0  0  0  0  0  0  0  0  0  0  0  0
   37.7670   32.5620   48.1760 F   0  0  0  0  0  0  0  0  0  0  0  0
   38.9860   32.5110   50.0740 F   0  0  0  0  0  0  0  0  0  0  0  0
   31.4020   26.7820   48.5060 S   0  0  0  0  0  0  0  0  0  0  0  0
   29.7810   27.0670   47.8140 C   0  0  0  0  0  0  0  0  0  0  0  0
   29.5730   26.4120   46.6440 N   0  0  0  0  0  0  0  0  0  0  0  0
   28.3960   26.5210   45.9880 C   0  0  0  0  0  3  0  0  0  0  0  0
   27.4160   27.2840   46.4940 N   0  0  0  0  0  0  0  0  0  0  0  0
   27.5860   27.9580   47.6670 C   0  0  0  0  0  0  0  0  0  0  0  0
   26.6110   28.7630   48.2420 C   0  0  0  0  0  3  0  0  0  0  0  0
   26.8870   29.4060   49.4420 C   0  0  0  0  0  0  0  0  0  0  0  0
   26.0540   30.0000   49.7850 H   0  0  0  0  0  0  0  0  0  0  0  0
   28.0980   29.2760   50.0870 C   0  0  0  0  0  0  0  0  0  0  0  0
   28.2480   29.7990   51.0100 H   0  0  0  0  0  0  0  0  0  0  0  0
   29.0950   28.4750   49.5330 C   0  0  0  0  0  3  0  0  0  0  0  0
   28.7840   27.8520   48.3430 C   0  0  0  0  0  0  0  0  0  0  0  0
  1  6  1  0  0  0  0
  1  9  1  0  0  0  0
  2  1  2  0  0  0  0
  3  4  2  0  0  0  0
  3  2  1  0  0  0  0
  4  5  1  0  0  0  0
  5 25  1  0  0  0  0
  5  6  2  0  0  0  0
  7  2  1  0  0  0  0
  8  3  1  0  0  0  0
  9 13  1  0  0  0  0
 10  9  1  0  0  0  0
 10 11  1  0  0  0  0
 11 16  1  1  0  0  0
 11 12  1  0  0  0  0
 12 17  1  0  0  0  0
 12 18  1  0  0  0  0
 13 12  1  0  0  0  0
 13 19  1  0  0  0  0
 14 10  1  0  0  0  0
 15 10  1  0  0  0  0
 20 13  1  0  0  0  0
 21 11  1  0  0  0  0
 21 24  1  0  0  0  0
 21 22  1  0  0  0  0
 23 21  1  0  0  0  0
 26 37  1  0  0  0  0
 26 25  1  0  0  0  0
 27 26  2  0  0  0  0
 28 29  2  0  0  0  0
 28 27  1  0  0  0  0
 29 30  1  0  0  0  0
 30 31  2  0  0  0  0
 30 37  1  0  0  0  0
 31 32  1  0  0  0  0
 32 33  1  0  0  0  0
 32 34  2  0  0  0  0
 34 35  1  0  0  0  0
 36 34  1  0  0  0  0
 37 36  2  0  0  0  0
M  END
>  <minimizedAffinity>
-6.92869329

>  <minimizedRMSD>
1.27894235

$$$$
