
 OpenBabel03272504413D

 48 51  0  0  0  0  0  0  0  0999 V2000
   34.7270   29.3610   48.6960 C   0  0  0  0  0  0  0  0  0  0  0  0
   35.6200   29.3840   49.3610 H   0  0  0  0  0  0  0  0  0  0  0  0
   34.0870   30.1950   49.1120 H   0  0  0  0  0  0  0  0  0  0  0  0
   37.4860   30.4540   48.4500 Cl  0  0  0  0  0  0  0  0  0  0  0  0
   36.3700   30.2730   47.0940 C   0  0  0  0  0  0  0  0  0  0  0  0
   36.7700   30.6470   45.8600 C   0  0  0  0  0  0  0  0  0  0  0  0
   35.9080   30.5140   44.7910 C   0  0  0  0  0  0  0  0  0  0  0  0
   34.6380   29.9910   45.0120 C   0  0  0  0  0  0  0  0  0  0  0  0
   34.2970   29.6240   46.3290 C   0  0  0  0  0  0  0  0  0  0  0  0
   35.1290   29.7510   47.3780 C   0  0  0  0  0  0  0  0  0  0  0  0
   36.2540   30.8230   43.7980 H   0  0  0  0  0  0  0  0  0  0  0  0
   34.0510   29.9290   44.1210 H   0  0  0  0  0  0  0  0  0  0  0  0
   33.3300   29.2690   46.2820 H   0  0  0  0  0  0  0  0  0  0  0  0
   39.7420   32.8270   45.9740 C   0  0  0  0  0  0  0  0  0  0  0  0
   40.6330   32.1050   45.1060 C   0  0  0  0  0  0  0  0  0  0  0  0
   40.1710   30.9140   44.5300 C   0  0  0  0  0  0  0  0  0  0  0  0
   38.9120   30.4930   44.8120 N   0  0  0  0  0  0  0  0  0  0  0  0
   38.0970   31.1960   45.6320 C   0  0  0  0  0  0  0  0  0  0  0  0
   38.5140   32.3410   46.1990 N   0  0  0  0  0  0  0  0  0  0  0  0
   40.0680   33.7350   46.4250 H   0  0  0  0  0  0  0  0  0  0  0  0
   41.5870   32.5560   44.9800 H   0  0  0  0  0  0  0  0  0  0  0  0
   41.0700   30.2420   43.6940 N   0  0  0  0  0  0  0  0  0  0  0  0
   41.5860   29.3550   43.9300 H   0  0  0  0  0  0  0  0  0  0  0  0
   41.1850   30.7220   42.7780 H   0  0  0  0  0  0  0  0  0  0  0  0
   34.0440   28.0820   48.9090 C   0  0  0  0  0  0  0  0  0  0  0  0
   34.5590   27.4160   49.6640 H   0  0  0  0  0  0  0  0  0  0  0  0
   34.0910   27.4960   47.9620 H   0  0  0  0  0  0  0  0  0  0  0  0
   32.7400   28.2680   49.2830 O   0  0  0  0  0  0  0  0  0  0  0  0
   32.4710   26.6600   47.2300 O   0  0  0  0  0  0  0  0  0  0  0  0
   31.7100   27.4770   48.2460 P   0  0  2  0  0  0  0  0  0  0  0  0
   30.7960   28.6980   47.4230 O   0  0  0  0  0  0  0  0  0  0  0  0
   30.2540   28.3510   46.1920 C   0  0  0  0  0  0  0  0  0  0  0  0
   29.6200   27.2050   45.8860 N   0  0  0  0  0  0  0  0  0  0  0  0
   29.1560   27.0280   44.6540 C   0  0  0  0  0  3  0  0  0  0  0  0
   29.2960   27.9550   43.6850 N   0  0  0  0  0  0  0  0  0  0  0  0
   29.9240   29.1250   43.9320 C   0  0  0  0  0  0  0  0  0  0  0  0
   30.0520   30.0560   42.9220 C   0  0  0  0  0  3  0  0  0  0  0  0
   30.6960   31.2370   43.2090 C   0  0  0  0  0  0  0  0  0  0  0  0
   30.8660   32.0550   42.5070 H   0  0  0  0  0  0  0  0  0  0  0  0
   31.2030   31.4910   44.4670 C   0  0  0  0  0  0  0  0  0  0  0  0
   31.7130   32.3970   44.7340 H   0  0  0  0  0  0  0  0  0  0  0  0
   31.0570   30.5370   45.4530 C   0  0  0  0  0  3  0  0  0  0  0  0
   30.4200   29.3380   45.2200 C   0  0  0  0  0  0  0  0  0  0  0  0
   30.5960   26.5230   49.0100 O   0  0  0  0  0  0  0  0  0  0  0  0
   29.7510   27.2780   49.7900 C   0  0  0  0  0  0  0  0  0  0  0  0
   29.3010   26.5850   50.9130 F   0  0  0  0  0  0  0  0  0  0  0  0
   30.3810   28.4100   50.2790 F   0  0  0  0  0  0  0  0  0  0  0  0
   28.6470   27.6580   49.0430 F   0  0  0  0  0  0  0  0  0  0  0  0
  1 25  1  0  0  0  0
  1  3  1  0  0  0  0
  1  2  1  0  0  0  0
  5 10  1  0  0  0  0
  5  4  1  0  0  0  0
  6  5  2  0  0  0  0
  7  8  2  0  0  0  0
  7  6  1  0  0  0  0
  8  9  1  0  0  0  0
  9 10  2  0  0  0  0
 10  1  1  0  0  0  0
 11  7  1  0  0  0  0
 12  8  1  0  0  0  0
 13  9  1  0  0  0  0
 14 19  1  0  0  0  0
 14 20  1  0  0  0  0
 15 14  2  0  0  0  0
 16 17  2  0  0  0  0
 16 15  1  0  0  0  0
 17 18  1  0  0  0  0
 18  6  1  0  0  0  0
 18 19  2  0  0  0  0
 21 15  1  0  0  0  0
 22 23  1  0  0  0  0
 22 16  1  0  0  0  0
 24 22  1  0  0  0  0
 25 28  1  0  0  0  0
 25 26  1  0  0  0  0
 27 25  1  0  0  0  0
 30 29  2  6  0  0  0
 30 44  1  0  0  0  0
 30 28  1  0  0  0  0
 31 30  1  0  0  0  0
 32 31  1  0  0  0  0
 33 32  1  0  0  0  0
 34 33  2  0  0  0  0
 35 36  2  0  0  0  0
 35 34  1  0  0  0  0
 36 43  1  0  0  0  0
 37 38  2  0  0  0  0
 37 36  1  0  0  0  0
 38 40  1  0  0  0  0
 39 38  1  0  0  0  0
 40 41  1  0  0  0  0
 40 42  2  0  0  0  0
 43 42  1  0  0  0  0
 43 32  2  0  0  0  0
 44 45  1  0  0  0  0
 45 47  1  0  0  0  0
 45 46  1  0  0  0  0
 48 45  1  0  0  0  0
M  END
>  <minimizedAffinity>
-5.93727732

>  <minimizedRMSD>
0.566432536

$$$$
