
     RDKit          3D

 29 31  0  0  0  0  0  0  0  0999 V2000
   37.7684   30.5283   49.3460 C   0  0  0  0  0  0  0  0  0  0  0  0
   38.2361   31.7308   49.8456 C   0  0  0  0  0  0  0  0  0  0  0  0
   38.6232   32.6953   48.9244 C   0  0  0  0  0  0  0  0  0  0  0  0
   38.5291   32.4249   47.5725 N   0  0  0  0  0  0  0  0  0  0  0  0
   38.0614   31.2242   47.1536 C   0  0  0  0  0  0  0  0  0  0  0  0
   37.6909   30.3007   48.0205 N   0  0  0  0  0  0  0  0  0  0  0  0
   37.2888   29.3353   50.5794 S   0  0  0  0  0  0  0  0  0  0  0  0
   35.5014   29.3417   50.7264 C   0  0  0  0  0  0  0  0  0  0  0  0
   34.6847   28.4028   49.4037 S   0  0  0  0  0  0  0  0  0  0  0  0
   38.3295   31.9926   50.8918 H   0  0  0  0  0  0  0  0  0  0  0  0
   39.0016   33.6654   49.2040 H   0  0  0  0  0  0  0  0  0  0  0  0
   38.0223   31.1002   46.0780 H   0  0  0  0  0  0  0  0  0  0  0  0
   35.1423   29.0375   51.7247 H   0  0  0  0  0  0  0  0  0  0  0  0
   35.1661   30.4115   50.5901 H   0  0  0  0  0  0  0  0  0  0  0  0
   32.9186   28.4407   49.5955 C   0  0  0  0  0  0  0  0  0  0  0  0
   32.4886   28.2298   50.8566 N   0  0  0  0  0  0  0  0  0  0  0  0
   31.1729   28.2337   51.1340 C   0  0  0  0  0  0  0  0  0  0  0  0
   30.2630   28.4465   50.1668 N   0  0  0  0  0  0  0  0  0  0  0  0
   30.6541   28.6597   48.9021 C   0  0  0  0  0  0  0  0  0  0  0  0
   29.7187   28.8818   47.8894 C   0  0  0  0  0  0  0  0  0  0  0  0
   30.2176   29.0933   46.6097 C   0  0  0  0  0  0  0  0  0  0  0  0
   29.4496   29.2597   45.8668 H   0  0  0  0  0  0  0  0  0  0  0  0
   31.5658   29.0877   46.3342 C   0  0  0  0  0  0  0  0  0  0  0  0
   31.8994   29.2593   45.3119 H   0  0  0  0  0  0  0  0  0  0  0  0
   32.4995   28.8670   47.3394 C   0  0  0  0  0  0  0  0  0  0  0  0
   31.9845   28.6588   48.6047 C   0  0  0  0  0  0  0  0  0  0  0  0
   30.7655   28.0681   52.1403 H   0  0  0  0  0  0  0  0  0  0  0  0
   28.6863   28.8715   48.1811 H   0  0  0  0  0  0  0  0  0  0  0  0
   33.5540   28.8594   47.1416 H   0  0  0  0  0  0  0  0  0  0  0  0
  1  2  2  0
  1  7  1  0
  3  2  1  0
  4  3  2  0
  5  4  1  0
  5  6  2  0
  6  1  1  0
  7  8  1  0
  9  8  1  0
  2 10  1  0
  3 11  1  0
  5 12  1  0
  8 13  1  0
  8 14  1  0
 15 16  2  0
 16 17  1  0
 17 18  2  0
 18 19  1  0
 19 20  2  0
 20 21  1  0
 21 22  1  0
 21 23  2  0
 23 24  1  0
 23 25  1  0
 25 26  2  0
 26 15  1  0
 26 19  1  0
 17 27  1  0
 20 28  1  0
 25 29  1  0
  9 15  1  0
M  ISO  7  10  14  11  14  12  14  13   8  14   8  22  16  24  16
M  END
>  <DihAtoms>  (1) 
7,8,14,15

>  <DihDeg>  (1) 
-89.64093797528307

$$$$
