
     RDKit          3D

 29 31  0  0  0  0  0  0  0  0999 V2000
   37.7684   30.5283   49.3460 C   0  0  0  0  0  0  0  0  0  0  0  0
   38.2361   31.7308   49.8456 C   0  0  0  0  0  0  0  0  0  0  0  0
   38.6232   32.6953   48.9244 C   0  0  0  0  0  0  0  0  0  0  0  0
   38.5291   32.4249   47.5725 N   0  0  0  0  0  0  0  0  0  0  0  0
   38.0614   31.2242   47.1536 C   0  0  0  0  0  0  0  0  0  0  0  0
   37.6909   30.3007   48.0205 N   0  0  0  0  0  0  0  0  0  0  0  0
   37.2888   29.3353   50.5794 S   0  0  0  0  0  0  0  0  0  0  0  0
   35.5014   29.3417   50.7264 C   0  0  0  0  0  0  0  0  0  0  0  0
   34.6847   28.4028   49.4037 S   0  0  0  0  0  0  0  0  0  0  0  0
   38.3295   31.9926   50.8918 H   0  0  0  0  0  0  0  0  0  0  0  0
   39.0016   33.6654   49.2040 H   0  0  0  0  0  0  0  0  0  0  0  0
   38.0223   31.1002   46.0780 H   0  0  0  0  0  0  0  0  0  0  0  0
   35.1423   29.0375   51.7247 H   0  0  0  0  0  0  0  0  0  0  0  0
   35.1661   30.4115   50.5901 H   0  0  0  0  0  0  0  0  0  0  0  0
   32.9186   28.4407   49.5955 C   0  0  0  0  0  0  0  0  0  0  0  0
   32.4972   28.5498   50.8723 N   0  0  0  0  0  0  0  0  0  0  0  0
   31.1824   28.5891   51.1514 C   0  0  0  0  0  0  0  0  0  0  0  0
   30.2650   28.5211   50.1704 N   0  0  0  0  0  0  0  0  0  0  0  0
   30.6474   28.4121   48.8899 C   0  0  0  0  0  0  0  0  0  0  0  0
   29.7042   28.3407   47.8628 C   0  0  0  0  0  0  0  0  0  0  0  0
   30.1945   28.2293   46.5672 C   0  0  0  0  0  0  0  0  0  0  0  0
   29.4206   28.1779   45.8136 H   0  0  0  0  0  0  0  0  0  0  0  0
   31.5417   28.1897   46.2901 C   0  0  0  0  0  0  0  0  0  0  0  0
   31.8684   28.1014   45.2550 H   0  0  0  0  0  0  0  0  0  0  0  0
   32.4833   28.2605   47.3096 C   0  0  0  0  0  0  0  0  0  0  0  0
   31.9768   28.3710   48.5906 C   0  0  0  0  0  0  0  0  0  0  0  0
   30.7818   28.6770   52.1701 H   0  0  0  0  0  0  0  0  0  0  0  0
   28.6731   28.3777   48.1568 H   0  0  0  0  0  0  0  0  0  0  0  0
   33.5371   28.2310   47.1107 H   0  0  0  0  0  0  0  0  0  0  0  0
  1  2  2  0
  1  7  1  0
  3  2  1  0
  4  3  2  0
  5  4  1  0
  5  6  2  0
  6  1  1  0
  7  8  1  0
  9  8  1  0
  2 10  1  0
  3 11  1  0
  5 12  1  0
  8 13  1  0
  8 14  1  0
 15 16  2  0
 16 17  1  0
 17 18  2  0
 18 19  1  0
 19 20  2  0
 20 21  1  0
 21 22  1  0
 21 23  2  0
 23 24  1  0
 23 25  1  0
 25 26  2  0
 26 15  1  0
 26 19  1  0
 17 27  1  0
 20 28  1  0
 25 29  1  0
  9 15  1  0
M  ISO  7  10  14  11  14  12  14  13   8  14   8  22  16  24  16
M  END
>  <DihAtoms>  (1) 
7,8,14,15

>  <DihDeg>  (1) 
-89.64093797528307

$$$$
