
 OpenBabel03272503133D

 49 54  0  0  0  0  0  0  0  0999 V2000
   39.0720   32.1260   42.5490 C   0  0  0  0  0  0  0  0  0  0  0  0
   39.6680   31.4710   43.6040 C   0  0  0  0  0  0  0  0  0  0  0  0
   40.6030   30.4990   43.4360 C   0  0  0  0  0  0  0  0  0  0  0  0
   40.9960   30.1260   42.1610 C   0  0  0  0  0  0  0  0  0  0  0  0
   41.8650   29.2310   41.6920 N   0  0  0  0  0  0  0  0  0  0  0  0
   41.8410   29.2960   40.3540 C   0  0  0  0  0  0  0  0  0  0  0  0
   40.9550   30.2340   39.9870 N   0  0  0  0  0  0  0  0  0  0  0  0
   40.4010   30.7790   41.0960 C   0  0  0  0  0  0  0  0  0  0  0  0
   39.4420   31.7780   41.2380 C   0  0  0  0  0  0  0  0  0  0  0  0
   38.3260   32.9010   42.6750 H   0  0  0  0  0  0  0  0  0  0  0  0
   41.0280   30.0280   44.3160 H   0  0  0  0  0  0  0  0  0  0  0  0
   42.4530   28.5980   42.3010 H   0  0  0  0  0  0  0  0  0  0  0  0
   42.4490   28.6800   39.7000 H   0  0  0  0  0  0  0  0  0  0  0  0
   39.2260   31.8940   44.9180 C   0  0  0  0  0  0  0  0  0  0  0  0
   38.1440   32.5490   45.0530 O   0  0  0  0  0  0  0  0  0  0  0  0
   39.9400   31.6230   46.1300 N   0  0  0  0  0  0  0  0  0  0  0  0
   40.8150   31.1000   46.0500 H   0  0  0  0  0  0  0  0  0  0  0  0
   38.1050   30.1460   47.4810 F   0  0  0  0  0  0  0  0  0  0  0  0
   38.3700   31.3830   47.9720 C   0  0  0  0  0  0  0  0  0  0  0  0
   37.7290   31.8300   49.0900 C   0  0  0  0  0  0  0  0  0  0  0  0
   38.0500   33.0910   49.5250 C   0  0  0  0  0  0  0  0  0  0  0  0
   38.9600   33.8860   48.8960 C   0  0  0  0  0  0  0  0  0  0  0  0
   39.6020   33.4120   47.7590 C   0  0  0  0  0  0  0  0  0  0  0  0
   39.2960   32.1400   47.2970 C   0  0  0  0  0  0  0  0  0  0  0  0
   37.5440   33.4590   50.4160 H   0  0  0  0  0  0  0  0  0  0  0  0
   39.2030   34.8810   49.2530 H   0  0  0  0  0  0  0  0  0  0  0  0
   40.3380   33.9750   47.1980 H   0  0  0  0  0  0  0  0  0  0  0  0
   36.0980   29.3710   51.4540 C   0  0  0  0  0  0  0  0  0  0  0  0
   37.0700   30.2200   50.8680 C   0  0  0  0  0  0  0  0  0  0  0  0
   36.7610   30.9420   49.7290 C   0  0  0  0  0  0  0  0  0  0  0  0
   35.5020   30.7930   49.2130 N   0  0  0  0  0  0  0  0  0  0  0  0
   34.5910   29.9870   49.7760 C   0  0  0  0  0  0  0  0  0  0  0  0
   34.8880   29.2910   50.8770 N   0  0  0  0  0  0  0  0  0  0  0  0
   36.4280   28.8450   52.3460 H   0  0  0  0  0  0  0  0  0  0  0  0
   38.0750   30.3670   51.2430 H   0  0  0  0  0  0  0  0  0  0  0  0
   33.5980   29.8380   49.4130 H   0  0  0  0  0  0  0  0  0  0  0  0
   38.8540   32.4250   40.1760 O   0  0  0  0  0  0  0  0  0  0  0  0
   37.5150   32.4880   39.8970 C   0  0  0  0  0  0  0  0  0  0  0  0
   36.5230   31.7150   40.3890 N   0  0  0  0  0  0  0  0  0  0  0  0
   35.2380   31.8840   40.0300 C   0  0  0  0  0  3  0  0  0  0  0  0
   34.9080   32.8590   39.1440 N   0  0  0  0  0  0  0  0  0  0  0  0
   35.8470   33.6590   38.6200 C   0  0  0  0  0  0  0  0  0  0  0  0
   35.4400   34.6310   37.7250 C   0  0  0  0  0  3  0  0  0  0  0  0
   36.4020   35.4430   37.1940 C   0  0  0  0  0  0  0  0  0  0  0  0
   36.1710   36.2260   36.4880 H   0  0  0  0  0  0  0  0  0  0  0  0
   37.7150   35.3140   37.5230 C   0  0  0  0  0  0  0  0  0  0  0  0
   38.5260   35.9340   37.1310 H   0  0  0  0  0  0  0  0  0  0  0  0
   38.0880   34.3360   38.4200 C   0  0  0  0  0  3  0  0  0  0  0  0
   37.1540   33.4790   38.9920 C   0  0  0  0  0  0  0  0  0  0  0  0
  1 10  1  0  0  0  0
  1  2  1  0  0  0  0
  2 14  1  0  0  0  0
  3  2  2  0  0  0  0
  3 11  1  0  0  0  0
  4  3  1  0  0  0  0
  5  4  1  0  0  0  0
  5 12  1  0  0  0  0
  6  5  1  0  0  0  0
  7  6  2  0  0  0  0
  7  8  1  0  0  0  0
  8  9  1  0  0  0  0
  8  4  2  0  0  0  0
  9  1  2  0  0  0  0
 13  6  1  0  0  0  0
 14 15  2  0  0  0  0
 14 16  1  0  0  0  0
 16 24  1  0  0  0  0
 17 16  1  0  0  0  0
 18 19  1  0  0  0  0
 19 20  1  0  0  0  0
 20 21  2  0  0  0  0
 20 30  1  0  0  0  0
 21 25  1  0  0  0  0
 22 26  1  0  0  0  0
 22 21  1  0  0  0  0
 23 22  2  0  0  0  0
 24 23  1  0  0  0  0
 24 19  2  0  0  0  0
 27 23  1  0  0  0  0
 28 34  1  0  0  0  0
 29 35  1  0  0  0  0
 29 28  2  0  0  0  0
 30 29  1  0  0  0  0
 31 30  2  0  0  0  0
 31 32  1  0  0  0  0
 32 33  2  0  0  0  0
 33 28  1  0  0  0  0
 36 32  1  0  0  0  0
 37  9  1  0  0  0  0
 38 37  1  0  0  0  0
 38 39  1  0  0  0  0
 40 39  2  0  0  0  0
 41 40  1  0  0  0  0
 42 49  1  0  0  0  0
 42 41  2  0  0  0  0
 43 42  1  0  0  0  0
 44 46  1  0  0  0  0
 44 43  2  0  0  0  0
 45 44  1  0  0  0  0
 46 48  2  0  0  0  0
 47 46  1  0  0  0  0
 48 49  1  0  0  0  0
 49 38  2  0  0  0  0
M  END
>  <minimizedAffinity>
-7.42761755

>  <minimizedRMSD>
2.40602016

$$$$
