
 OpenBabel03272507303D

 32 35  0  0  0  0  0  0  0  0999 V2000
   35.8690   29.2670   49.6910 C   0  0  0  0  0  0  0  0  0  0  0  0
   34.7970   29.4320   50.4920 C   0  0  0  0  0  0  0  0  0  0  0  0
   33.6700   28.9080   49.8590 C   0  0  0  0  0  0  0  0  0  0  0  0
   34.1610   28.4240   48.6280 C   0  0  0  0  0  0  0  0  0  0  0  0
   35.4140   28.6820   48.6460 O   0  0  0  0  0  0  0  0  0  0  0  0
   34.6180   29.8580   51.4690 H   0  0  0  0  0  0  0  0  0  0  0  0
   32.6320   28.8440   50.1610 H   0  0  0  0  0  0  0  0  0  0  0  0
   37.1990   29.6990   50.0390 C   0  0  0  0  0  0  0  0  0  0  0  0
   37.7510   29.2070   51.0320 O   0  0  0  0  0  0  0  0  0  0  0  0
   37.8110   30.7070   49.1780 C   0  0  0  0  0  0  0  0  0  0  0  0
   38.0790   31.9400   49.7930 C   0  0  0  0  0  0  0  0  0  0  0  0
   38.6670   32.9230   48.9910 C   0  0  0  0  0  0  0  0  0  0  0  0
   38.9460   32.6490   47.6900 N   0  0  0  0  0  0  0  0  0  0  0  0
   38.6640   31.4370   47.1500 C   0  0  0  0  0  0  0  0  0  0  0  0
   38.1050   30.4830   47.8880 N   0  0  0  0  0  0  0  0  0  0  0  0
   37.8580   32.1610   50.8260 H   0  0  0  0  0  0  0  0  0  0  0  0
   38.9100   33.9110   49.3860 H   0  0  0  0  0  0  0  0  0  0  0  0
   38.8730   31.1910   46.1250 H   0  0  0  0  0  0  0  0  0  0  0  0
   33.3270   27.7730   47.6100 C   0  0  0  0  0  0  0  0  0  0  0  0
   32.0780   27.8140   47.7230 O   0  0  0  0  0  0  0  0  0  0  0  0
   33.5910   27.0230   46.4070 C   0  0  0  0  0  0  0  0  0  0  0  0
   33.5290   27.7270   45.2510 N   0  0  0  0  0  0  0  0  0  0  0  0
   33.7500   27.1720   44.0260 C   0  0  0  0  0  3  0  0  0  0  0  0
   34.0450   25.8710   43.9330 N   0  0  0  0  0  0  0  0  0  0  0  0
   34.1350   25.0850   45.0170 C   0  0  0  0  0  0  0  0  0  0  0  0
   34.4690   23.7520   44.9420 C   0  0  0  0  0  3  0  0  0  0  0  0
   34.5900   22.9760   46.0630 C   0  0  0  0  0  0  0  0  0  0  0  0
   34.8520   21.9310   46.0030 H   0  0  0  0  0  0  0  0  0  0  0  0
   34.3590   23.6070   47.2830 C   0  0  0  0  0  0  0  0  0  0  0  0
   34.4610   22.9740   48.1590 H   0  0  0  0  0  0  0  0  0  0  0  0
   34.0260   24.9400   47.3250 C   0  0  0  0  0  3  0  0  0  0  0  0
   33.8990   25.7220   46.2100 C   0  0  0  0  0  0  0  0  0  0  0  0
  1  8  1  0  0  0  0
  1  2  2  0  0  0  0
  2  6  1  0  0  0  0
  3  7  1  0  0  0  0
  3  2  1  0  0  0  0
  4  5  1  0  0  0  0
  4  3  2  0  0  0  0
  5  1  1  0  0  0  0
  8  9  2  0  0  0  0
 10 11  1  0  0  0  0
 10  8  1  0  0  0  0
 11 16  1  0  0  0  0
 12 17  1  0  0  0  0
 12 11  2  0  0  0  0
 13 12  1  0  0  0  0
 14 13  2  0  0  0  0
 14 15  1  0  0  0  0
 15 10  2  0  0  0  0
 18 14  1  0  0  0  0
 19 20  2  0  0  0  0
 19  4  1  0  0  0  0
 21 19  1  0  0  0  0
 22 21  2  0  0  0  0
 23 22  1  0  0  0  0
 24 23  2  0  0  0  0
 24 25  1  0  0  0  0
 25 32  1  0  0  0  0
 26 25  2  0  0  0  0
 26 27  1  0  0  0  0
 27 29  2  0  0  0  0
 28 27  1  0  0  0  0
 29 31  1  0  0  0  0
 29 30  1  0  0  0  0
 32 21  1  0  0  0  0
 32 31  2  0  0  0  0
M  END
>  <minimizedAffinity>
-5.40007257

>  <minimizedRMSD>
1.37167573

$$$$
