
 OpenBabel03262521393D

 32 35  0  0  0  0  0  0  0  0999 V2000
   33.7610   29.2010   48.7040 F   0  0  0  0  0  0  0  0  0  0  0  0
   33.8680   29.2830   47.3400 C   0  0  0  0  0  0  0  0  0  0  0  0
   32.8380   28.8590   46.5190 C   0  0  0  0  0  0  0  0  0  0  0  0
   32.9940   28.9620   45.1340 C   0  0  0  0  0  0  0  0  0  0  0  0
   34.1630   29.4820   44.5860 C   0  0  0  0  0  0  0  0  0  0  0  0
   35.1490   29.8870   45.4520 C   0  0  0  0  0  0  0  0  0  0  0  0
   35.0310   29.7990   46.8290 C   0  0  0  0  0  0  0  0  0  0  0  0
   32.1660   28.6200   44.5130 H   0  0  0  0  0  0  0  0  0  0  0  0
   34.2600   29.5520   43.5230 H   0  0  0  0  0  0  0  0  0  0  0  0
   36.0660   30.2940   45.0430 H   0  0  0  0  0  0  0  0  0  0  0  0
   31.8800   27.1820   47.8940 C   0  0  0  0  0  0  0  0  0  0  0  0
   31.6730   28.3370   47.1450 C   0  0  0  0  0  0  0  0  0  0  0  0
   30.3730   28.8430   47.0930 C   0  0  0  0  0  0  0  0  0  0  0  0
   29.3900   28.1790   47.7740 N   0  0  0  0  0  0  0  0  0  0  0  0
   29.6360   27.0780   48.4770 C   0  0  0  0  0  0  0  0  0  0  0  0
   30.8730   26.5560   48.5540 N   0  0  0  0  0  0  0  0  0  0  0  0
   32.8590   26.7010   48.0010 H   0  0  0  0  0  0  0  0  0  0  0  0
   30.2650   29.7370   46.5020 H   0  0  0  0  0  0  0  0  0  0  0  0
   28.8420   26.5750   49.0040 H   0  0  0  0  0  0  0  0  0  0  0  0
   36.3400   30.3340   47.9360 S   0  0  0  0  0  0  0  0  0  0  0  0
   37.7130   31.0010   47.0260 C   0  0  0  0  0  0  0  0  0  0  0  0
   38.1940   30.5640   45.8280 N   0  0  0  0  0  0  0  0  0  0  0  0
   39.2470   31.1830   45.2690 C   0  0  0  0  0  0  0  0  0  0  0  0
   39.8750   32.2280   45.8200 N   0  0  0  0  0  0  0  0  0  0  0  0
   39.4450   32.7060   47.0030 C   0  0  0  0  0  0  0  0  0  0  0  0
   40.0880   33.7760   47.5670 C   0  0  0  0  0  0  0  0  0  0  0  0
   39.6520   34.2780   48.7880 C   0  0  0  0  0  0  0  0  0  0  0  0
   40.1060   35.1230   49.3030 H   0  0  0  0  0  0  0  0  0  0  0  0
   38.5620   33.6860   49.4310 C   0  0  0  0  0  0  0  0  0  0  0  0
   38.1940   34.0560   50.3920 H   0  0  0  0  0  0  0  0  0  0  0  0
   37.9650   32.6140   48.8060 C   0  0  0  0  0  0  0  0  0  0  0  0
   38.3620   32.0900   47.6040 C   0  0  0  0  0  0  0  0  0  0  0  0
  2  1  1  0  0  0  0
  3 12  1  0  0  0  0
  3  2  2  0  0  0  0
  4  3  1  0  0  0  0
  5  4  2  0  0  0  0
  5  6  1  0  0  0  0
  6  7  2  0  0  0  0
  7  2  1  0  0  0  0
  7 20  1  0  0  0  0
  8  4  1  0  0  0  0
  9  5  1  0  0  0  0
 10  6  1  0  0  0  0
 11 17  1  0  0  0  0
 11 16  1  0  0  0  0
 12 11  2  0  0  0  0
 13 12  1  0  0  0  0
 13 14  2  0  0  0  0
 14 15  1  0  0  0  0
 15 16  2  0  0  0  0
 15 19  1  0  0  0  0
 18 13  1  0  0  0  0
 21 32  1  0  0  0  0
 21 20  1  0  0  0  0
 22 21  2  0  0  0  0
 23 24  2  0  0  0  0
 23 22  1  0  0  0  0
 24 25  1  0  0  0  0
 25 26  2  0  0  0  0
 25 32  1  0  0  0  0
 26 27  1  0  0  0  0
 27 28  1  0  0  0  0
 27 29  2  0  0  0  0
 29 30  1  0  0  0  0
 31 29  1  0  0  0  0
 32 31  2  0  0  0  0
M  END
>  <minimizedAffinity>
-5.73783636

>  <minimizedRMSD>
5.08618212

$$$$
