
 OpenBabel03272504413D

 48 51  0  0  0  0  0  0  0  0999 V2000
   34.7070   29.3980   48.7450 C   0  0  0  0  0  0  0  0  0  0  0  0
   35.5960   29.4330   49.4140 H   0  0  0  0  0  0  0  0  0  0  0  0
   34.0620   30.2350   49.1460 H   0  0  0  0  0  0  0  0  0  0  0  0
   37.4650   30.4920   48.4950 Cl  0  0  0  0  0  0  0  0  0  0  0  0
   36.3540   30.2900   47.1370 C   0  0  0  0  0  0  0  0  0  0  0  0
   36.7590   30.6470   45.8990 C   0  0  0  0  0  0  0  0  0  0  0  0
   35.9020   30.4970   44.8290 C   0  0  0  0  0  0  0  0  0  0  0  0
   34.6320   29.9750   45.0520 C   0  0  0  0  0  0  0  0  0  0  0  0
   34.2860   29.6260   46.3730 C   0  0  0  0  0  0  0  0  0  0  0  0
   35.1130   29.7690   47.4230 C   0  0  0  0  0  0  0  0  0  0  0  0
   36.2510   30.7930   43.8320 H   0  0  0  0  0  0  0  0  0  0  0  0
   34.0490   29.9000   44.1590 H   0  0  0  0  0  0  0  0  0  0  0  0
   33.3190   29.2690   46.3270 H   0  0  0  0  0  0  0  0  0  0  0  0
   39.7350   32.8220   46.0130 C   0  0  0  0  0  0  0  0  0  0  0  0
   40.6220   32.1020   45.1380 C   0  0  0  0  0  0  0  0  0  0  0  0
   40.1550   30.9150   44.5580 C   0  0  0  0  0  0  0  0  0  0  0  0
   38.8970   30.4950   44.8420 N   0  0  0  0  0  0  0  0  0  0  0  0
   38.0860   31.1950   45.6690 C   0  0  0  0  0  0  0  0  0  0  0  0
   38.5070   32.3360   46.2410 N   0  0  0  0  0  0  0  0  0  0  0  0
   40.0640   33.7270   46.4680 H   0  0  0  0  0  0  0  0  0  0  0  0
   41.5760   32.5540   45.0110 H   0  0  0  0  0  0  0  0  0  0  0  0
   41.0500   30.2470   43.7150 N   0  0  0  0  0  0  0  0  0  0  0  0
   41.5660   29.3570   43.9440 H   0  0  0  0  0  0  0  0  0  0  0  0
   41.1630   30.7310   42.8010 H   0  0  0  0  0  0  0  0  0  0  0  0
   34.0270   28.1190   48.9730 C   0  0  0  0  0  0  0  0  0  0  0  0
   34.5260   27.4760   49.7580 H   0  0  0  0  0  0  0  0  0  0  0  0
   34.1020   27.5100   48.0430 H   0  0  0  0  0  0  0  0  0  0  0  0
   32.7120   28.3060   49.3090 O   0  0  0  0  0  0  0  0  0  0  0  0
   32.5090   26.6400   47.2950 O   0  0  0  0  0  0  0  0  0  0  0  0
   31.7160   27.4570   48.2850 P   0  0  2  0  0  0  0  0  0  0  0  0
   30.7710   28.6290   47.4260 O   0  0  0  0  0  0  0  0  0  0  0  0
   30.2930   28.2540   46.1770 C   0  0  0  0  0  0  0  0  0  0  0  0
   29.7220   27.0800   45.8540 N   0  0  0  0  0  0  0  0  0  0  0  0
   29.3150   26.8770   44.6050 C   0  0  0  0  0  3  0  0  0  0  0  0
   29.4500   27.8050   43.6370 N   0  0  0  0  0  0  0  0  0  0  0  0
   30.0160   29.0030   43.9010 C   0  0  0  0  0  0  0  0  0  0  0  0
   30.1410   29.9350   42.8900 C   0  0  0  0  0  3  0  0  0  0  0  0
   30.7220   31.1430   43.1960 C   0  0  0  0  0  0  0  0  0  0  0  0
   30.8820   31.9650   42.4960 H   0  0  0  0  0  0  0  0  0  0  0  0
   31.1680   31.4250   44.4710 C   0  0  0  0  0  0  0  0  0  0  0  0
   31.6270   32.3540   44.7520 H   0  0  0  0  0  0  0  0  0  0  0  0
   31.0260   30.4700   45.4560 C   0  0  0  0  0  3  0  0  0  0  0  0
   30.4530   29.2430   45.2060 C   0  0  0  0  0  0  0  0  0  0  0  0
   30.6250   26.4890   49.0640 O   0  0  0  0  0  0  0  0  0  0  0  0
   29.7340   27.2370   49.7960 C   0  0  0  0  0  0  0  0  0  0  0  0
   29.2880   26.5710   50.9360 F   0  0  0  0  0  0  0  0  0  0  0  0
   30.3060   28.4130   50.2520 F   0  0  0  0  0  0  0  0  0  0  0  0
   28.6310   27.5410   49.0130 F   0  0  0  0  0  0  0  0  0  0  0  0
  1 25  1  0  0  0  0
  1  3  1  0  0  0  0
  1  2  1  0  0  0  0
  5 10  1  0  0  0  0
  5  4  1  0  0  0  0
  6  5  2  0  0  0  0
  7  8  2  0  0  0  0
  7  6  1  0  0  0  0
  8  9  1  0  0  0  0
  9 10  2  0  0  0  0
 10  1  1  0  0  0  0
 11  7  1  0  0  0  0
 12  8  1  0  0  0  0
 13  9  1  0  0  0  0
 14 19  1  0  0  0  0
 14 20  1  0  0  0  0
 15 14  2  0  0  0  0
 16 17  2  0  0  0  0
 16 15  1  0  0  0  0
 17 18  1  0  0  0  0
 18  6  1  0  0  0  0
 18 19  2  0  0  0  0
 21 15  1  0  0  0  0
 22 23  1  0  0  0  0
 22 16  1  0  0  0  0
 24 22  1  0  0  0  0
 25 28  1  0  0  0  0
 25 26  1  0  0  0  0
 27 25  1  0  0  0  0
 30 29  2  6  0  0  0
 30 44  1  0  0  0  0
 30 28  1  0  0  0  0
 31 30  1  0  0  0  0
 32 31  1  0  0  0  0
 33 32  1  0  0  0  0
 34 33  2  0  0  0  0
 35 36  2  0  0  0  0
 35 34  1  0  0  0  0
 36 43  1  0  0  0  0
 37 38  2  0  0  0  0
 37 36  1  0  0  0  0
 38 40  1  0  0  0  0
 39 38  1  0  0  0  0
 40 41  1  0  0  0  0
 40 42  2  0  0  0  0
 43 42  1  0  0  0  0
 43 32  2  0  0  0  0
 44 45  1  0  0  0  0
 45 47  1  0  0  0  0
 45 46  1  0  0  0  0
 48 45  1  0  0  0  0
M  END
>  <minimizedAffinity>
-5.9513135

>  <minimizedRMSD>
0.400509894

$$$$
