REMARK  Name = 
REMARK  3 active torsions:
REMARK  status: ('A' for Active; 'I' for Inactive)
REMARK    1  A    between atoms: C_3  and  C_9
REMARK    2  A    between atoms: C_7  and  S_14
REMARK    3  A    between atoms: S_14  and  C_21
REMARK                            x       y       z     vdW  Elec       q    Type
REMARK                         _______ _______ _______ _____ _____    ______ ____
ROOT
ATOM      1  F   UNL     1      37.018  32.212  49.804  0.00  0.00    +0.000 F 
ATOM      2  C   UNL     1      37.668  31.935  48.629  0.00  0.00    +0.000 A 
ATOM      3  C   UNL     1      37.251  30.897  47.814  0.00  0.00    +0.000 A 
ATOM      4  C   UNL     1      37.946  30.653  46.626  0.00  0.00    +0.000 A 
ATOM      5  C   UNL     1      39.037  31.438  46.265  0.00  0.00    +0.000 A 
ATOM      6  C   UNL     1      39.402  32.453  47.115  0.00  0.00    +0.000 A 
ATOM      7  C   UNL     1      38.739  32.724  48.300  0.00  0.00    +0.000 A 
ATOM      8  H   UNL     1      37.595  29.829  46.004  0.00  0.00    +0.000 HD
ATOM      9  H   UNL     1      39.553  31.233  45.351  0.00  0.00    +0.000 HD
ATOM     10  H   UNL     1      40.250  33.074  46.850  0.00  0.00    +0.000 HD
ENDROOT
BRANCH   3  12
ATOM     11  C   UNL     1      36.383  29.274  49.308  0.00  0.00    +0.000 A 
ATOM     12  C   UNL     1      36.131  30.135  48.243  0.00  0.00    +0.000 A 
ATOM     13  C   UNL     1      34.834  30.153  47.727  0.00  0.00    +0.000 A 
ATOM     14  N   UNL     1      33.898  29.331  48.293  0.00  0.00    +0.000 NA
ATOM     15  C   UNL     1      34.187  28.525  49.310  0.00  0.00    +0.000 A 
ATOM     16  N   UNL     1      35.423  28.476  49.838  0.00  0.00    +0.000 NA
ATOM     17  H   UNL     1      37.364  29.181  49.788  0.00  0.00    +0.000 HD
ATOM     18  H   UNL     1      34.690  30.834  46.906  0.00  0.00    +0.000 HD
ATOM     19  H   UNL     1      33.429  27.888  49.737  0.00  0.00    +0.000 HD
ENDBRANCH   3  12
BRANCH   7  20
ATOM     20  S   UNL     1      39.243  34.058  49.392  0.00  0.00    +0.000 S 
BRANCH  20  21
ATOM     21  C   UNL     1      40.652  34.921  48.739  0.00  0.00    +0.000 A 
ATOM     22  N   UNL     1      41.642  34.403  47.958  0.00  0.00    +0.000 NA
ATOM     23  C   UNL     1      42.645  35.196  47.544  0.00  0.00    +0.000 A 
ATOM     24  N   UNL     1      42.743  36.494  47.852  0.00  0.00    +0.000 NA
ATOM     25  C   UNL     1      41.794  37.063  48.620  0.00  0.00    +0.000 A 
ATOM     26  C   UNL     1      41.895  38.392  48.935  0.00  0.00    +0.000 A 
ATOM     27  C   UNL     1      40.921  38.989  49.727  0.00  0.00    +0.000 A 
ATOM     28  H   UNL     1      40.926  40.037  50.023  0.00  0.00    +0.000 HD
ATOM     29  C   UNL     1      39.847  38.229  50.196  0.00  0.00    +0.000 A 
ATOM     30  H   UNL     1      39.065  38.668  50.821  0.00  0.00    +0.000 HD
ATOM     31  C   UNL     1      39.811  36.899  49.840  0.00  0.00    +0.000 A 
ATOM     32  C   UNL     1      40.749  36.273  49.062  0.00  0.00    +0.000 A 
ENDBRANCH  20  21
ENDBRANCH   7  20
TORSDOF 3
