
 OpenBabel03272510123D

 38 42  0  0  0  0  0  0  0  0999 V2000
   35.3490   29.0410   49.7200 O   0  0  0  0  0  0  0  0  0  0  0  0
   36.0930   29.6360   48.7050 C   0  0  0  0  0  0  0  0  0  0  0  0
   37.3980   29.9280   49.0590 C   0  0  0  0  0  0  0  0  0  0  0  0
   37.9860   30.5130   47.9310 C   0  0  0  0  0  0  0  0  0  0  0  0
   37.0380   30.5520   46.9590 N   0  0  0  0  0  0  0  0  0  0  0  0
   35.9320   30.0330   47.4290 N   0  0  0  0  0  0  0  0  0  0  0  0
   38.0310   29.8240   49.9340 H   0  0  0  0  0  0  0  0  0  0  0  0
   38.9680   30.8980   47.7300 H   0  0  0  0  0  0  0  0  0  0  0  0
   37.1460   31.0540   45.6320 C   0  0  0  0  0  0  0  0  0  0  0  0
   36.3260   30.7170   44.6170 N   0  0  0  0  0  0  0  0  0  0  0  0
   36.5060   31.2500   43.3730 C   0  0  0  0  0  3  0  0  0  0  0  0
   37.5280   32.1310   43.1620 N   0  0  0  0  0  0  0  0  0  0  0  0
   38.3630   32.4870   44.1550 C   0  0  0  0  0  0  0  0  0  0  0  0
   39.3730   33.3710   43.9010 C   0  0  0  0  0  3  0  0  0  0  0  0
   40.2400   33.7470   44.9130 C   0  0  0  0  0  0  0  0  0  0  0  0
   41.0740   34.4340   44.8400 H   0  0  0  0  0  0  0  0  0  0  0  0
   40.0790   33.2170   46.1970 C   0  0  0  0  0  0  0  0  0  0  0  0
   40.7270   33.4680   47.0430 H   0  0  0  0  0  0  0  0  0  0  0  0
   39.0570   32.3260   46.4360 C   0  0  0  0  0  3  0  0  0  0  0  0
   38.1950   31.9550   45.4240 C   0  0  0  0  0  0  0  0  0  0  0  0
   31.3940   27.7880   48.9700 C   0  0  0  0  0  0  0  0  0  0  0  0
   31.6650   28.7120   49.9170 C   0  0  0  0  0  0  0  0  0  0  0  0
   32.9330   29.1720   50.2190 C   0  0  0  0  0  0  0  0  0  0  0  0
   34.0140   28.6880   49.5420 C   0  0  0  0  0  0  0  0  0  0  0  0
   33.7380   27.7300   48.5600 C   0  0  0  0  0  0  0  0  0  0  0  0
   32.4840   27.3100   48.2970 N   0  0  0  0  0  0  0  0  0  0  0  0
   30.8670   29.1460   50.4980 H   0  0  0  0  0  0  0  0  0  0  0  0
   33.1440   29.9110   50.9780 H   0  0  0  0  0  0  0  0  0  0  0  0
   34.5500   27.3060   47.9870 H   0  0  0  0  0  0  0  0  0  0  0  0
   29.0240   27.2670   49.5690 C   0  0  0  0  0  0  0  0  0  0  0  0
   30.0820   27.3020   48.6470 C   0  0  0  0  0  0  0  0  0  0  0  0
   29.8030   26.8380   47.3810 C   0  0  0  0  0  0  0  0  0  0  0  0
   28.5590   26.3790   47.0780 N   0  0  0  0  0  0  0  0  0  0  0  0
   27.5700   26.3700   48.0190 C   0  0  0  0  0  0  0  0  0  0  0  0
   27.8020   26.8170   49.2750 N   0  0  0  0  0  0  0  0  0  0  0  0
   29.1930   27.6200   50.5730 H   0  0  0  0  0  0  0  0  0  0  0  0
   30.6110   26.8590   46.6570 H   0  0  0  0  0  0  0  0  0  0  0  0
   26.6690   25.9670   47.5650 H   0  0  0  0  0  0  0  0  0  0  0  0
  2  3  1  0  0  0  0
  2  1  1  0  0  0  0
  3  7  1  0  0  0  0
  4  3  2  0  0  0  0
  5  6  1  0  0  0  0
  5  4  1  0  0  0  0
  6  2  2  0  0  0  0
  8  4  1  0  0  0  0
  9  5  1  0  0  0  0
 10  9  2  0  0  0  0
 11 10  1  0  0  0  0
 12 11  2  0  0  0  0
 12 13  1  0  0  0  0
 13 20  1  0  0  0  0
 14 13  2  0  0  0  0
 14 15  1  0  0  0  0
 15 17  2  0  0  0  0
 16 15  1  0  0  0  0
 17 19  1  0  0  0  0
 17 18  1  0  0  0  0
 20  9  1  0  0  0  0
 20 19  2  0  0  0  0
 21 22  1  0  0  0  0
 22 23  2  0  0  0  0
 22 27  1  0  0  0  0
 23 28  1  0  0  0  0
 24  1  1  0  0  0  0
 24 23  1  0  0  0  0
 25 24  2  0  0  0  0
 26 25  1  0  0  0  0
 26 21  2  0  0  0  0
 29 25  1  0  0  0  0
 30 36  1  0  0  0  0
 31 21  1  0  0  0  0
 31 30  2  0  0  0  0
 32 31  1  0  0  0  0
 33 32  2  0  0  0  0
 33 34  1  0  0  0  0
 34 35  2  0  0  0  0
 35 30  1  0  0  0  0
 37 32  1  0  0  0  0
 38 34  1  0  0  0  0
M  END
>  <minimizedAffinity>
-5.7170229

>  <minimizedRMSD>
3.69622564

$$$$
