
 OpenBabel03272501573D

 34 37  0  0  0  0  0  0  0  0999 V2000
   33.0270   28.1870   47.8820 C   0  0  0  0  0  0  0  0  0  0  0  0
   32.0520   27.5760   48.6460 C   0  0  0  0  0  0  0  0  0  0  0  0
   30.8070   27.7650   48.0660 C   0  0  0  0  0  0  0  0  0  0  0  0
   31.0670   28.5000   46.9440 N   0  0  0  0  0  0  0  0  0  0  0  0
   32.3760   28.7500   46.8350 N   0  0  0  0  0  0  0  0  0  0  0  0
   32.2090   27.0230   49.5670 H   0  0  0  0  0  0  0  0  0  0  0  0
   29.8250   27.4390   48.3740 H   0  0  0  0  0  0  0  0  0  0  0  0
   30.1230   28.9720   45.9780 C   0  0  0  0  0  0  0  0  0  0  0  0
   30.2820   30.2910   45.6640 N   0  0  0  0  0  0  0  0  0  0  0  0
   29.4400   30.8550   44.7520 C   0  0  0  0  0  3  0  0  0  0  0  0
   28.4430   30.1580   44.1400 N   0  0  0  0  0  0  0  0  0  0  0  0
   28.3130   28.8520   44.4750 C   0  0  0  0  0  0  0  0  0  0  0  0
   27.3080   28.1130   43.8690 C   0  0  0  0  0  3  0  0  0  0  0  0
   27.1920   26.7760   44.2270 C   0  0  0  0  0  0  0  0  0  0  0  0
   26.3890   26.2350   43.7270 H   0  0  0  0  0  0  0  0  0  0  0  0
   28.0230   26.1850   45.1380 C   0  0  0  0  0  0  0  0  0  0  0  0
   27.9180   25.1380   45.4050 H   0  0  0  0  0  0  0  0  0  0  0  0
   29.0410   26.9110   45.7570 C   0  0  0  0  0  3  0  0  0  0  0  0
   29.1320   28.2200   45.3890 C   0  0  0  0  0  0  0  0  0  0  0  0
   34.4920   28.2070   48.1730 C   0  0  0  0  0  0  0  0  0  0  0  0
   34.8970   27.2180   47.8280 H   0  0  0  0  0  0  0  0  0  0  0  0
   34.9280   29.0680   47.6390 H   0  0  0  0  0  0  0  0  0  0  0  0
   34.6300   28.3930   49.6580 C   0  0  0  0  0  0  0  0  0  0  0  0
   33.7360   28.7450   50.1760 H   0  0  0  0  0  0  0  0  0  0  0  0
   34.8400   27.3760   50.0960 H   0  0  0  0  0  0  0  0  0  0  0  0
   37.3250   30.1960   51.4460 C   0  0  0  0  0  0  0  0  0  0  0  0
   38.1090   30.6800   50.3930 C   0  0  0  0  0  0  0  0  0  0  0  0
   37.7090   30.3850   49.0880 C   0  0  0  0  0  0  0  0  0  0  0  0
   36.5900   29.6510   48.8850 N   0  0  0  0  0  0  0  0  0  0  0  0
   35.8560   29.2000   49.9390 C   0  0  0  0  0  0  0  0  0  0  0  0
   36.2250   29.4740   51.1880 N   0  0  0  0  0  0  0  0  0  0  0  0
   37.6280   30.4210   52.4730 H   0  0  0  0  0  0  0  0  0  0  0  0
   38.9840   31.2560   50.6340 H   0  0  0  0  0  0  0  0  0  0  0  0
   38.2930   30.7440   48.2690 H   0  0  0  0  0  0  0  0  0  0  0  0
  1 20  1  0  0  0  0
  1  2  1  0  0  0  0
  2  6  1  0  0  0  0
  3  7  1  0  0  0  0
  3  2  2  0  0  0  0
  4  3  1  0  0  0  0
  5  4  1  0  0  0  0
  5  1  2  0  0  0  0
  8  4  1  0  0  0  0
  9  8  1  0  0  0  0
 10  9  2  0  0  0  0
 11 12  2  0  0  0  0
 11 10  1  0  0  0  0
 12 19  1  0  0  0  0
 13 14  2  0  0  0  0
 13 12  1  0  0  0  0
 14 16  1  0  0  0  0
 15 14  1  0  0  0  0
 16 17  1  0  0  0  0
 16 18  2  0  0  0  0
 19 18  1  0  0  0  0
 19  8  2  0  0  0  0
 20 23  1  0  0  0  0
 21 20  1  0  0  0  0
 22 20  1  0  0  0  0
 23 30  1  0  0  0  0
 23 25  1  0  0  0  0
 23 24  1  0  0  0  0
 26 32  1  0  0  0  0
 27 33  1  0  0  0  0
 27 26  2  0  0  0  0
 28 27  1  0  0  0  0
 29 28  2  0  0  0  0
 29 30  1  0  0  0  0
 30 31  2  0  0  0  0
 31 26  1  0  0  0  0
 34 28  1  0  0  0  0
M  END
>  <minimizedAffinity>
-5.45011759

>  <minimizedRMSD>
0.384876788

$$$$
