
 OpenBabel03272509483D

 28 30  0  0  0  0  0  0  0  0999 V2000
   38.6900   26.7860   34.0770 C   0  0  0  0  0  0  0  0  0  0  0  0
   39.1260   25.7660   33.9140 H   0  0  0  0  0  0  0  0  0  0  0  0
   39.5130   27.4750   33.7950 H   0  0  0  0  0  0  0  0  0  0  0  0
   37.5190   26.9020   33.1870 C   0  0  0  0  0  0  0  0  0  0  0  0
   36.9290   28.1000   32.9610 N   0  0  0  0  0  0  0  0  0  0  0  0
   35.8920   28.2750   32.1550 C   0  0  0  0  0  3  0  0  0  0  0  0
   35.3640   27.2260   31.5010 N   0  0  0  0  0  0  0  0  0  0  0  0
   35.8670   25.9980   31.6500 C   0  0  0  0  0  0  0  0  0  0  0  0
   35.2960   24.9480   30.9700 C   0  0  0  0  0  3  0  0  0  0  0  0
   35.8600   23.7050   31.1760 C   0  0  0  0  0  0  0  0  0  0  0  0
   35.4070   22.8830   30.6380 H   0  0  0  0  0  0  0  0  0  0  0  0
   36.9450   23.4900   32.0160 C   0  0  0  0  0  0  0  0  0  0  0  0
   37.3150   22.4680   32.1090 H   0  0  0  0  0  0  0  0  0  0  0  0
   37.4650   24.5940   32.6650 C   0  0  0  0  0  3  0  0  0  0  0  0
   36.9420   25.8590   32.4960 C   0  0  0  0  0  0  0  0  0  0  0  0
   38.3360   26.8570   35.5250 C   0  0  0  0  0  0  0  0  0  0  0  0
   37.7340   27.7780   35.7040 H   0  0  0  0  0  0  0  0  0  0  0  0
   39.2470   26.9840   36.1270 H   0  0  0  0  0  0  0  0  0  0  0  0
   37.6030   25.7040   35.9130 O   0  0  0  0  0  0  0  0  0  0  0  0
   38.6750   23.4790   38.5500 C   0  0  0  0  0  0  0  0  0  0  0  0
   39.6910   22.7860   37.8900 C   0  0  0  0  0  0  0  0  0  0  0  0
   39.9600   23.1190   36.5570 C   0  0  0  0  0  0  0  0  0  0  0  0
   39.1970   24.1110   36.0030 N   0  0  0  0  0  0  0  0  0  0  0  0
   38.2330   24.7500   36.6720 C   0  0  0  0  0  0  0  0  0  0  0  0
   37.9800   24.4220   37.9560 N   0  0  0  0  0  0  0  0  0  0  0  0
   38.4460   23.2380   39.5880 H   0  0  0  0  0  0  0  0  0  0  0  0
   40.2600   22.0120   38.3770 H   0  0  0  0  0  0  0  0  0  0  0  0
   40.7350   22.6170   35.9880 H   0  0  0  0  0  0  0  0  0  0  0  0
  1 16  1  0  0  0  0
  2  1  1  0  0  0  0
  3  1  1  0  0  0  0
  4  1  1  0  0  0  0
  5  4  1  0  0  0  0
  6  5  2  0  0  0  0
  7  8  2  0  0  0  0
  7  6  1  0  0  0  0
  8 15  1  0  0  0  0
  9 10  2  0  0  0  0
  9  8  1  0  0  0  0
 10 12  1  0  0  0  0
 11 10  1  0  0  0  0
 12 13  1  0  0  0  0
 12 14  2  0  0  0  0
 15 14  1  0  0  0  0
 15  4  2  0  0  0  0
 16 17  1  0  0  0  0
 16 19  1  0  0  0  0
 16 18  1  0  0  0  0
 19 24  1  0  0  0  0
 20 26  1  0  0  0  0
 21 27  1  0  0  0  0
 21 20  2  0  0  0  0
 22 21  1  0  0  0  0
 23 22  2  0  0  0  0
 23 24  1  0  0  0  0
 24 25  2  0  0  0  0
 25 20  1  0  0  0  0
 28 22  1  0  0  0  0
M  END
>  <minimizedAffinity>
-5.01077366

$$$$

 OpenBabel03272509483D

 28 30  0  0  0  0  0  0  0  0999 V2000
   38.3430   27.2530   35.2350 C   0  0  0  0  0  0  0  0  0  0  0  0
   38.1170   27.4930   36.3060 H   0  0  0  0  0  0  0  0  0  0  0  0
   38.9720   28.1040   34.8980 H   0  0  0  0  0  0  0  0  0  0  0  0
   39.0670   25.9680   35.2240 C   0  0  0  0  0  0  0  0  0  0  0  0
   39.9370   25.6650   34.2310 N   0  0  0  0  0  0  0  0  0  0  0  0
   40.6370   24.5410   34.1770 C   0  0  0  0  0  3  0  0  0  0  0  0
   40.5060   23.6190   35.1460 N   0  0  0  0  0  0  0  0  0  0  0  0
   39.6750   23.8150   36.1730 C   0  0  0  0  0  0  0  0  0  0  0  0
   39.5620   22.8460   37.1430 C   0  0  0  0  0  3  0  0  0  0  0  0
   38.6800   23.1090   38.1720 C   0  0  0  0  0  0  0  0  0  0  0  0
   38.5960   22.3440   38.9320 H   0  0  0  0  0  0  0  0  0  0  0  0
   37.9330   24.2760   38.2550 C   0  0  0  0  0  0  0  0  0  0  0  0
   37.2630   24.3850   39.1100 H   0  0  0  0  0  0  0  0  0  0  0  0
   38.1000   25.2030   37.2430 C   0  0  0  0  0  3  0  0  0  0  0  0
   38.9680   24.9930   36.1920 C   0  0  0  0  0  0  0  0  0  0  0  0
   37.0240   27.1890   34.5390 C   0  0  0  0  0  0  0  0  0  0  0  0
   36.4020   28.0540   34.8640 H   0  0  0  0  0  0  0  0  0  0  0  0
   36.4720   26.2960   34.8650 H   0  0  0  0  0  0  0  0  0  0  0  0
   37.2070   27.2120   33.1300 O   0  0  0  0  0  0  0  0  0  0  0  0
   35.0610   25.4500   30.8190 C   0  0  0  0  0  0  0  0  0  0  0  0
   35.5060   24.1420   31.0170 C   0  0  0  0  0  0  0  0  0  0  0  0
   36.5330   23.9270   31.9430 C   0  0  0  0  0  0  0  0  0  0  0  0
   37.0220   25.0300   32.5890 N   0  0  0  0  0  0  0  0  0  0  0  0
   36.5660   26.2670   32.3690 C   0  0  0  0  0  0  0  0  0  0  0  0
   35.5770   26.4650   31.4750 N   0  0  0  0  0  0  0  0  0  0  0  0
   34.2620   25.6440   30.1030 H   0  0  0  0  0  0  0  0  0  0  0  0
   35.0820   23.3100   30.4790 H   0  0  0  0  0  0  0  0  0  0  0  0
   36.9240   22.9350   32.1420 H   0  0  0  0  0  0  0  0  0  0  0  0
  1  2  1  0  0  0  0
  3  1  1  0  0  0  0
  4  1  1  0  0  0  0
  4 15  1  0  0  0  0
  5  4  2  0  0  0  0
  6  5  1  0  0  0  0
  6  7  2  0  0  0  0
  7  8  1  0  0  0  0
  8 15  2  0  0  0  0
  8  9  1  0  0  0  0
  9 10  2  0  0  0  0
 10 12  1  0  0  0  0
 10 11  1  0  0  0  0
 12 13  1  0  0  0  0
 14 12  2  0  0  0  0
 15 14  1  0  0  0  0
 16 17  1  0  0  0  0
 16 18  1  0  0  0  0
 16  1  1  0  0  0  0
 19 16  1  0  0  0  0
 20 21  2  0  0  0  0
 20 25  1  0  0  0  0
 21 22  1  0  0  0  0
 22 28  1  0  0  0  0
 22 23  2  0  0  0  0
 24 23  1  0  0  0  0
 24 19  1  0  0  0  0
 25 24  2  0  0  0  0
 26 20  1  0  0  0  0
 27 21  1  0  0  0  0
M  END
>  <minimizedAffinity>
-4.91425943

$$$$

 OpenBabel03272509483D

 28 30  0  0  0  0  0  0  0  0999 V2000
   38.5410   23.5070   33.1120 C   0  0  0  0  0  0  0  0  0  0  0  0
   38.9680   23.2210   32.1160 H   0  0  0  0  0  0  0  0  0  0  0  0
   39.4360   23.6620   33.7500 H   0  0  0  0  0  0  0  0  0  0  0  0
   37.7650   24.7450   32.9100 C   0  0  0  0  0  0  0  0  0  0  0  0
   36.9730   24.9030   31.8220 N   0  0  0  0  0  0  0  0  0  0  0  0
   36.2320   25.9790   31.5950 C   0  0  0  0  0  3  0  0  0  0  0  0
   36.2370   26.9970   32.4730 N   0  0  0  0  0  0  0  0  0  0  0  0
   36.9830   26.9470   33.5790 C   0  0  0  0  0  0  0  0  0  0  0  0
   36.9680   28.0110   34.4510 C   0  0  0  0  0  3  0  0  0  0  0  0
   37.7670   27.8970   35.5700 C   0  0  0  0  0  0  0  0  0  0  0  0
   37.7510   28.7370   36.2520 H   0  0  0  0  0  0  0  0  0  0  0  0
   38.5550   26.7850   35.8340 C   0  0  0  0  0  0  0  0  0  0  0  0
   39.1510   26.7950   36.7490 H   0  0  0  0  0  0  0  0  0  0  0  0
   38.5170   25.7550   34.9130 C   0  0  0  0  0  3  0  0  0  0  0  0
   37.7370   25.8150   33.7780 C   0  0  0  0  0  0  0  0  0  0  0  0
   37.7020   22.3540   33.5490 C   0  0  0  0  0  0  0  0  0  0  0  0
   37.5260   21.6830   32.6770 H   0  0  0  0  0  0  0  0  0  0  0  0
   36.7050   22.7090   33.8480 H   0  0  0  0  0  0  0  0  0  0  0  0
   38.3450   21.6430   34.5980 O   0  0  0  0  0  0  0  0  0  0  0  0
   37.6810   23.3220   37.7280 C   0  0  0  0  0  0  0  0  0  0  0  0
   38.9610   23.3250   38.2820 C   0  0  0  0  0  0  0  0  0  0  0  0
   40.0010   22.7430   37.5470 C   0  0  0  0  0  0  0  0  0  0  0  0
   39.6740   22.2140   36.3280 N   0  0  0  0  0  0  0  0  0  0  0  0
   38.4330   22.2320   35.8340 C   0  0  0  0  0  0  0  0  0  0  0  0
   37.4370   22.7940   36.5490 N   0  0  0  0  0  0  0  0  0  0  0  0
   36.8540   23.7680   38.2800 H   0  0  0  0  0  0  0  0  0  0  0  0
   39.1610   23.7580   39.2480 H   0  0  0  0  0  0  0  0  0  0  0  0
   41.0180   22.7130   37.9220 H   0  0  0  0  0  0  0  0  0  0  0  0
  1 16  1  0  0  0  0
  1  3  1  0  0  0  0
  2  1  1  0  0  0  0
  4  1  1  0  0  0  0
  4 15  1  0  0  0  0
  5  4  2  0  0  0  0
  6  5  1  0  0  0  0
  6  7  2  0  0  0  0
  7  8  1  0  0  0  0
  8 15  2  0  0  0  0
  8  9  1  0  0  0  0
  9 10  2  0  0  0  0
 10 12  1  0  0  0  0
 10 11  1  0  0  0  0
 12 13  1  0  0  0  0
 14 12  2  0  0  0  0
 15 14  1  0  0  0  0
 16 18  1  0  0  0  0
 16 19  1  0  0  0  0
 17 16  1  0  0  0  0
 19 24  1  0  0  0  0
 20 26  1  0  0  0  0
 20 21  1  0  0  0  0
 21 27  1  0  0  0  0
 22 28  1  0  0  0  0
 22 21  2  0  0  0  0
 23 22  1  0  0  0  0
 24 23  2  0  0  0  0
 24 25  1  0  0  0  0
 25 20  2  0  0  0  0
M  END
>  <minimizedAffinity>
-4.85146618

$$$$

 OpenBabel03272509483D

 28 30  0  0  0  0  0  0  0  0999 V2000
   36.0000   29.4500   32.5320 C   0  0  0  0  0  0  0  0  0  0  0  0
   36.0640   30.2240   31.7240 H   0  0  0  0  0  0  0  0  0  0  0  0
   36.8940   29.6470   33.1610 H   0  0  0  0  0  0  0  0  0  0  0  0
   34.7340   29.6840   33.2530 C   0  0  0  0  0  0  0  0  0  0  0  0
   33.5650   29.1760   32.7950 N   0  0  0  0  0  0  0  0  0  0  0  0
   32.4000   29.3290   33.4090 C   0  0  0  0  0  3  0  0  0  0  0  0
   32.3300   30.0210   34.5590 N   0  0  0  0  0  0  0  0  0  0  0  0
   33.4220   30.5660   35.1000 C   0  0  0  0  0  0  0  0  0  0  0  0
   33.3120   31.2740   36.2750 C   0  0  0  0  0  3  0  0  0  0  0  0
   34.4780   31.8160   36.7750 C   0  0  0  0  0  0  0  0  0  0  0  0
   34.3850   32.3720   37.6990 H   0  0  0  0  0  0  0  0  0  0  0  0
   35.7120   31.6760   36.1540 C   0  0  0  0  0  0  0  0  0  0  0  0
   36.5730   32.1450   36.6340 H   0  0  0  0  0  0  0  0  0  0  0  0
   35.7450   30.9500   34.9780 C   0  0  0  0  0  3  0  0  0  0  0  0
   34.6110   30.3850   34.4330 C   0  0  0  0  0  0  0  0  0  0  0  0
   36.0460   28.1280   31.8440 C   0  0  0  0  0  0  0  0  0  0  0  0
   36.8780   28.1360   31.1020 H   0  0  0  0  0  0  0  0  0  0  0  0
   35.1310   27.9820   31.2510 H   0  0  0  0  0  0  0  0  0  0  0  0
   36.2360   27.0840   32.7880 O   0  0  0  0  0  0  0  0  0  0  0  0
   39.6680   26.9740   33.9120 C   0  0  0  0  0  0  0  0  0  0  0  0
   39.4790   27.0650   35.2920 C   0  0  0  0  0  0  0  0  0  0  0  0
   38.1680   27.1630   35.7740 C   0  0  0  0  0  0  0  0  0  0  0  0
   37.1660   27.1590   34.8420 N   0  0  0  0  0  0  0  0  0  0  0  0
   37.3920   27.0690   33.5270 C   0  0  0  0  0  0  0  0  0  0  0  0
   38.6580   26.9760   33.0720 N   0  0  0  0  0  0  0  0  0  0  0  0
   40.6790   26.8970   33.5120 H   0  0  0  0  0  0  0  0  0  0  0  0
   40.3070   27.0640   35.9800 H   0  0  0  0  0  0  0  0  0  0  0  0
   37.9540   27.2380   36.8340 H   0  0  0  0  0  0  0  0  0  0  0  0
  1  3  1  0  0  0  0
  1  4  1  0  0  0  0
  2  1  1  0  0  0  0
  4 15  1  0  0  0  0
  5  4  2  0  0  0  0
  5  6  1  0  0  0  0
  6  7  2  0  0  0  0
  7  8  1  0  0  0  0
  8  9  1  0  0  0  0
  9 10  2  0  0  0  0
 10 11  1  0  0  0  0
 12 13  1  0  0  0  0
 12 10  1  0  0  0  0
 14 12  2  0  0  0  0
 15 14  1  0  0  0  0
 15  8  2  0  0  0  0
 16  1  1  0  0  0  0
 16 19  1  0  0  0  0
 17 16  1  0  0  0  0
 18 16  1  0  0  0  0
 19 24  1  0  0  0  0
 20 21  1  0  0  0  0
 21 22  2  0  0  0  0
 21 27  1  0  0  0  0
 22 28  1  0  0  0  0
 23 22  1  0  0  0  0
 24 23  2  0  0  0  0
 25 24  1  0  0  0  0
 25 20  2  0  0  0  0
 26 20  1  0  0  0  0
M  END
>  <minimizedAffinity>
-4.84805489

$$$$

 OpenBabel03272509483D

 28 30  0  0  0  0  0  0  0  0999 V2000
   37.9110   27.6340   35.4270 C   0  0  0  0  0  0  0  0  0  0  0  0
   37.4590   27.8810   36.4230 H   0  0  0  0  0  0  0  0  0  0  0  0
   38.6460   28.4500   35.2600 H   0  0  0  0  0  0  0  0  0  0  0  0
   38.5490   26.3110   35.5590 C   0  0  0  0  0  0  0  0  0  0  0  0
   37.8990   25.2770   36.1440 N   0  0  0  0  0  0  0  0  0  0  0  0
   38.4070   24.0590   36.2700 C   0  0  0  0  0  3  0  0  0  0  0  0
   39.6380   23.7910   35.8010 N   0  0  0  0  0  0  0  0  0  0  0  0
   40.3680   24.7370   35.2060 C   0  0  0  0  0  0  0  0  0  0  0  0
   41.6270   24.4280   34.7450 C   0  0  0  0  0  3  0  0  0  0  0  0
   42.3290   25.4540   34.1470 C   0  0  0  0  0  0  0  0  0  0  0  0
   43.3180   25.2050   33.7860 H   0  0  0  0  0  0  0  0  0  0  0  0
   41.8250   26.7400   34.0020 C   0  0  0  0  0  0  0  0  0  0  0  0
   42.4640   27.4790   33.5150 H   0  0  0  0  0  0  0  0  0  0  0  0
   40.5530   26.9750   34.4900 C   0  0  0  0  0  3  0  0  0  0  0  0
   39.8060   25.9870   35.0950 C   0  0  0  0  0  0  0  0  0  0  0  0
   36.7870   27.6480   34.4470 C   0  0  0  0  0  0  0  0  0  0  0  0
   36.2990   28.6500   34.4700 H   0  0  0  0  0  0  0  0  0  0  0  0
   36.0070   26.9390   34.7610 H   0  0  0  0  0  0  0  0  0  0  0  0
   37.2650   27.3620   33.1410 O   0  0  0  0  0  0  0  0  0  0  0  0
   35.1090   25.5340   30.8900 C   0  0  0  0  0  0  0  0  0  0  0  0
   35.5770   24.2370   31.0990 C   0  0  0  0  0  0  0  0  0  0  0  0
   36.6220   24.0500   32.0120 C   0  0  0  0  0  0  0  0  0  0  0  0
   37.1050   25.1700   32.6340 N   0  0  0  0  0  0  0  0  0  0  0  0
   36.6270   26.3970   32.4040 C   0  0  0  0  0  0  0  0  0  0  0  0
   35.6200   26.5660   31.5230 N   0  0  0  0  0  0  0  0  0  0  0  0
   34.2960   25.7060   30.1840 H   0  0  0  0  0  0  0  0  0  0  0  0
   35.1570   23.3910   30.5810 H   0  0  0  0  0  0  0  0  0  0  0  0
   37.0310   23.0670   32.2190 H   0  0  0  0  0  0  0  0  0  0  0  0
  1  4  1  0  0  0  0
  1  2  1  0  0  0  0
  3  1  1  0  0  0  0
  4  5  1  0  0  0  0
  5  6  2  0  0  0  0
  7  6  1  0  0  0  0
  8  7  2  0  0  0  0
  9  8  1  0  0  0  0
 10  9  2  0  0  0  0
 11 10  1  0  0  0  0
 12 10  1  0  0  0  0
 12 14  2  0  0  0  0
 13 12  1  0  0  0  0
 14 15  1  0  0  0  0
 15  8  1  0  0  0  0
 15  4  2  0  0  0  0
 16 17  1  0  0  0  0
 16 18  1  0  0  0  0
 16  1  1  0  0  0  0
 19 16  1  0  0  0  0
 20 21  2  0  0  0  0
 20 25  1  0  0  0  0
 21 22  1  0  0  0  0
 22 28  1  0  0  0  0
 22 23  2  0  0  0  0
 24 23  1  0  0  0  0
 24 19  1  0  0  0  0
 25 24  2  0  0  0  0
 26 20  1  0  0  0  0
 27 21  1  0  0  0  0
M  END
>  <minimizedAffinity>
-4.83971071

$$$$

 OpenBabel03272509483D

 28 30  0  0  0  0  0  0  0  0999 V2000
   37.4320   24.0550   32.0270 C   0  0  0  0  0  0  0  0  0  0  0  0
   38.4300   24.0950   31.5180 H   0  0  0  0  0  0  0  0  0  0  0  0
   37.5880   23.3420   32.8630 H   0  0  0  0  0  0  0  0  0  0  0  0
   37.1300   25.4210   32.4920 C   0  0  0  0  0  0  0  0  0  0  0  0
   36.3870   26.2680   31.7400 N   0  0  0  0  0  0  0  0  0  0  0  0
   36.0600   27.4970   32.1120 C   0  0  0  0  0  3  0  0  0  0  0  0
   36.4690   27.9720   33.3020 N   0  0  0  0  0  0  0  0  0  0  0  0
   37.2060   27.2220   34.1240 C   0  0  0  0  0  0  0  0  0  0  0  0
   37.6120   27.7430   35.3300 C   0  0  0  0  0  3  0  0  0  0  0  0
   38.3780   26.9180   36.1280 C   0  0  0  0  0  0  0  0  0  0  0  0
   38.6930   27.3330   37.0760 H   0  0  0  0  0  0  0  0  0  0  0  0
   38.7380   25.6270   35.7650 C   0  0  0  0  0  0  0  0  0  0  0  0
   39.3470   25.0570   36.4690 H   0  0  0  0  0  0  0  0  0  0  0  0
   38.2930   25.1720   34.5380 C   0  0  0  0  0  3  0  0  0  0  0  0
   37.5240   25.9530   33.7010 C   0  0  0  0  0  0  0  0  0  0  0  0
   36.4660   23.5570   31.0050 C   0  0  0  0  0  0  0  0  0  0  0  0
   36.9940   22.8550   30.3190 H   0  0  0  0  0  0  0  0  0  0  0  0
   36.1330   24.3890   30.3680 H   0  0  0  0  0  0  0  0  0  0  0  0
   35.3730   22.9030   31.6340 O   0  0  0  0  0  0  0  0  0  0  0  0
   35.4890   19.7180   33.3360 C   0  0  0  0  0  0  0  0  0  0  0  0
   35.8420   18.8840   32.2740 C   0  0  0  0  0  0  0  0  0  0  0  0
   36.0230   19.4620   31.0120 C   0  0  0  0  0  0  0  0  0  0  0  0
   35.8390   20.8150   30.9200 N   0  0  0  0  0  0  0  0  0  0  0  0
   35.5010   21.5780   31.9650 C   0  0  0  0  0  0  0  0  0  0  0  0
   35.3290   21.0120   33.1770 N   0  0  0  0  0  0  0  0  0  0  0  0
   35.3420   19.2930   34.3290 H   0  0  0  0  0  0  0  0  0  0  0  0
   35.9730   17.8230   32.4050 H   0  0  0  0  0  0  0  0  0  0  0  0
   36.2960   18.8680   30.1460 H   0  0  0  0  0  0  0  0  0  0  0  0
  1  4  1  0  0  0  0
  1  3  1  0  0  0  0
  2  1  1  0  0  0  0
  4 15  1  0  0  0  0
  5  6  1  0  0  0  0
  5  4  2  0  0  0  0
  6  7  2  0  0  0  0
  7  8  1  0  0  0  0
  8  9  1  0  0  0  0
  9 10  2  0  0  0  0
 10 11  1  0  0  0  0
 12 10  1  0  0  0  0
 12 13  1  0  0  0  0
 14 12  2  0  0  0  0
 15  8  2  0  0  0  0
 15 14  1  0  0  0  0
 16 19  1  0  0  0  0
 16  1  1  0  0  0  0
 17 16  1  0  0  0  0
 18 16  1  0  0  0  0
 19 24  1  0  0  0  0
 20 26  1  0  0  0  0
 21 27  1  0  0  0  0
 21 20  2  0  0  0  0
 22 21  1  0  0  0  0
 23 22  2  0  0  0  0
 23 24  1  0  0  0  0
 24 25  2  0  0  0  0
 25 20  1  0  0  0  0
 28 22  1  0  0  0  0
M  END
>  <minimizedAffinity>
-4.80573177

$$$$

 OpenBabel03272509483D

 28 30  0  0  0  0  0  0  0  0999 V2000
   35.6580   29.5380   32.4580 C   0  0  0  0  0  0  0  0  0  0  0  0
   35.2870   29.5310   31.4010 H   0  0  0  0  0  0  0  0  0  0  0  0
   36.3750   30.3860   32.4830 H   0  0  0  0  0  0  0  0  0  0  0  0
   34.4860   29.7580   33.3260 C   0  0  0  0  0  0  0  0  0  0  0  0
   33.2780   29.2300   33.0160 N   0  0  0  0  0  0  0  0  0  0  0  0
   32.1940   29.3700   33.7650 C   0  0  0  0  0  3  0  0  0  0  0  0
   32.2530   30.0700   34.9120 N   0  0  0  0  0  0  0  0  0  0  0  0
   33.3950   30.6330   35.3140 C   0  0  0  0  0  0  0  0  0  0  0  0
   33.4160   31.3470   36.4900 C   0  0  0  0  0  3  0  0  0  0  0  0
   34.6260   31.9100   36.8430 C   0  0  0  0  0  0  0  0  0  0  0  0
   34.6380   32.4700   37.7690 H   0  0  0  0  0  0  0  0  0  0  0  0
   35.7780   31.7830   36.0780 C   0  0  0  0  0  0  0  0  0  0  0  0
   36.6840   32.2670   36.4470 H   0  0  0  0  0  0  0  0  0  0  0  0
   35.6790   31.0500   34.9090 C   0  0  0  0  0  3  0  0  0  0  0  0
   34.4960   30.4650   34.5090 C   0  0  0  0  0  0  0  0  0  0  0  0
   36.3090   28.2130   32.6770 C   0  0  0  0  0  0  0  0  0  0  0  0
   36.0840   27.8660   33.7120 H   0  0  0  0  0  0  0  0  0  0  0  0
   37.4030   28.3240   32.6400 H   0  0  0  0  0  0  0  0  0  0  0  0
   35.8420   27.2690   31.7250 O   0  0  0  0  0  0  0  0  0  0  0  0
   37.4350   24.1610   32.6530 C   0  0  0  0  0  0  0  0  0  0  0  0
   36.6440   23.2570   31.9440 C   0  0  0  0  0  0  0  0  0  0  0  0
   35.5900   23.7640   31.1740 C   0  0  0  0  0  0  0  0  0  0  0  0
   35.4190   25.1220   31.1780 N   0  0  0  0  0  0  0  0  0  0  0  0
   36.2020   25.9530   31.8730 C   0  0  0  0  0  0  0  0  0  0  0  0
   37.2140   25.4560   32.6120 N   0  0  0  0  0  0  0  0  0  0  0  0
   38.2610   23.7920   33.2600 H   0  0  0  0  0  0  0  0  0  0  0  0
   36.8250   22.1960   31.9770 H   0  0  0  0  0  0  0  0  0  0  0  0
   34.9380   23.1140   30.6000 H   0  0  0  0  0  0  0  0  0  0  0  0
  1  3  1  0  0  0  0
  1 16  1  0  0  0  0
  1  4  1  0  0  0  0
  2  1  1  0  0  0  0
  4 15  1  0  0  0  0
  5  4  2  0  0  0  0
  5  6  1  0  0  0  0
  6  7  2  0  0  0  0
  7  8  1  0  0  0  0
  8  9  1  0  0  0  0
  9 10  2  0  0  0  0
 10 11  1  0  0  0  0
 12 13  1  0  0  0  0
 12 10  1  0  0  0  0
 14 12  2  0  0  0  0
 15 14  1  0  0  0  0
 15  8  2  0  0  0  0
 16 17  1  0  0  0  0
 18 16  1  0  0  0  0
 19 24  1  0  0  0  0
 19 16  1  0  0  0  0
 20 26  1  0  0  0  0
 21 27  1  0  0  0  0
 21 20  2  0  0  0  0
 22 23  2  0  0  0  0
 22 21  1  0  0  0  0
 23 24  1  0  0  0  0
 24 25  2  0  0  0  0
 25 20  1  0  0  0  0
 28 22  1  0  0  0  0
M  END
>  <minimizedAffinity>
-4.78421116

$$$$

 OpenBabel03272509483D

 28 30  0  0  0  0  0  0  0  0999 V2000
   40.1900   22.4970   34.4110 C   0  0  0  0  0  0  0  0  0  0  0  0
   40.7740   23.2800   33.8610 H   0  0  0  0  0  0  0  0  0  0  0  0
   40.9680   21.9140   34.9480 H   0  0  0  0  0  0  0  0  0  0  0  0
   39.2750   23.2040   35.3260 C   0  0  0  0  0  0  0  0  0  0  0  0
   38.4780   22.5210   36.1840 N   0  0  0  0  0  0  0  0  0  0  0  0
   37.6540   23.0970   37.0470 C   0  0  0  0  0  3  0  0  0  0  0  0
   37.5740   24.4380   37.1100 N   0  0  0  0  0  0  0  0  0  0  0  0
   38.3140   25.2080   36.3100 C   0  0  0  0  0  0  0  0  0  0  0  0
   38.2000   26.5770   36.3980 C   0  0  0  0  0  3  0  0  0  0  0  0
   38.9880   27.3130   35.5370 C   0  0  0  0  0  0  0  0  0  0  0  0
   38.8950   28.3890   35.6110 H   0  0  0  0  0  0  0  0  0  0  0  0
   39.8600   26.7390   34.6210 C   0  0  0  0  0  0  0  0  0  0  0  0
   40.4380   27.4130   33.9860 H   0  0  0  0  0  0  0  0  0  0  0  0
   39.9200   25.3580   34.5910 C   0  0  0  0  0  3  0  0  0  0  0  0
   39.1560   24.5730   35.4290 C   0  0  0  0  0  0  0  0  0  0  0  0
   39.4780   21.7020   33.3680 C   0  0  0  0  0  0  0  0  0  0  0  0
   39.0670   20.7780   33.8360 H   0  0  0  0  0  0  0  0  0  0  0  0
   40.1960   21.3500   32.6120 H   0  0  0  0  0  0  0  0  0  0  0  0
   38.4340   22.4700   32.7880 O   0  0  0  0  0  0  0  0  0  0  0  0
   35.5390   21.1250   31.0960 C   0  0  0  0  0  0  0  0  0  0  0  0
   34.8980   20.4980   32.1640 C   0  0  0  0  0  0  0  0  0  0  0  0
   35.4980   20.5680   33.4280 C   0  0  0  0  0  0  0  0  0  0  0  0
   36.6780   21.2550   33.5130 N   0  0  0  0  0  0  0  0  0  0  0  0
   37.2590   21.8420   32.4620 C   0  0  0  0  0  0  0  0  0  0  0  0
   36.6740   21.7690   31.2490 N   0  0  0  0  0  0  0  0  0  0  0  0
   35.0930   21.0850   30.1020 H   0  0  0  0  0  0  0  0  0  0  0  0
   33.9670   19.9700   32.0380 H   0  0  0  0  0  0  0  0  0  0  0  0
   35.0500   20.1010   34.2990 H   0  0  0  0  0  0  0  0  0  0  0  0
  1  3  1  0  0  0  0
  1  4  1  0  0  0  0
  2  1  1  0  0  0  0
  4 15  2  0  0  0  0
  4  5  1  0  0  0  0
  5  6  2  0  0  0  0
  6  7  1  0  0  0  0
  8  9  1  0  0  0  0
  8  7  2  0  0  0  0
 10 11  1  0  0  0  0
 10  9  2  0  0  0  0
 12 10  1  0  0  0  0
 13 12  1  0  0  0  0
 14 12  2  0  0  0  0
 14 15  1  0  0  0  0
 15  8  1  0  0  0  0
 16 17  1  0  0  0  0
 16  1  1  0  0  0  0
 18 16  1  0  0  0  0
 19 16  1  0  0  0  0
 20 25  2  0  0  0  0
 20 21  1  0  0  0  0
 21 22  2  0  0  0  0
 22 23  1  0  0  0  0
 22 28  1  0  0  0  0
 24 19  1  0  0  0  0
 24 23  2  0  0  0  0
 25 24  1  0  0  0  0
 26 20  1  0  0  0  0
 27 21  1  0  0  0  0
M  END
>  <minimizedAffinity>
-4.7822485

$$$$

 OpenBabel03272509483D

 28 30  0  0  0  0  0  0  0  0999 V2000
   35.8920   29.4360   32.9240 C   0  0  0  0  0  0  0  0  0  0  0  0
   36.4530   29.8400   33.8070 H   0  0  0  0  0  0  0  0  0  0  0  0
   36.2830   30.0260   32.0690 H   0  0  0  0  0  0  0  0  0  0  0  0
   36.2200   28.0010   32.8240 C   0  0  0  0  0  0  0  0  0  0  0  0
   35.8230   27.2660   31.7580 N   0  0  0  0  0  0  0  0  0  0  0  0
   36.1060   25.9820   31.5970 C   0  0  0  0  0  3  0  0  0  0  0  0
   36.8300   25.3300   32.5240 N   0  0  0  0  0  0  0  0  0  0  0  0
   37.2730   25.9580   33.6150 C   0  0  0  0  0  0  0  0  0  0  0  0
   38.0040   25.2570   34.5460 C   0  0  0  0  0  3  0  0  0  0  0  0
   38.4240   25.9650   35.6540 C   0  0  0  0  0  0  0  0  0  0  0  0
   39.0000   25.4080   36.3820 H   0  0  0  0  0  0  0  0  0  0  0  0
   38.1420   27.3100   35.8520 C   0  0  0  0  0  0  0  0  0  0  0  0
   38.5210   27.7750   36.7640 H   0  0  0  0  0  0  0  0  0  0  0  0
   37.4020   27.9470   34.8740 C   0  0  0  0  0  3  0  0  0  0  0  0
   36.9570   27.2900   33.7460 C   0  0  0  0  0  0  0  0  0  0  0  0
   34.4480   29.6900   33.2000 C   0  0  0  0  0  0  0  0  0  0  0  0
   33.8340   29.0710   32.5070 H   0  0  0  0  0  0  0  0  0  0  0  0
   34.1990   30.7330   32.9560 H   0  0  0  0  0  0  0  0  0  0  0  0
   34.1390   29.3750   34.5500 O   0  0  0  0  0  0  0  0  0  0  0  0
   34.8150   32.1850   36.7190 C   0  0  0  0  0  0  0  0  0  0  0  0
   33.5690   32.3320   37.3280 C   0  0  0  0  0  0  0  0  0  0  0  0
   32.5460   31.4500   36.9600 C   0  0  0  0  0  0  0  0  0  0  0  0
   32.8550   30.5030   36.0220 N   0  0  0  0  0  0  0  0  0  0  0  0
   34.0640   30.3970   35.4620 C   0  0  0  0  0  0  0  0  0  0  0  0
   35.0430   31.2510   35.8230 N   0  0  0  0  0  0  0  0  0  0  0  0
   35.6290   32.8590   36.9870 H   0  0  0  0  0  0  0  0  0  0  0  0
   33.3820   33.0970   38.0620 H   0  0  0  0  0  0  0  0  0  0  0  0
   31.5540   31.5120   37.3960 H   0  0  0  0  0  0  0  0  0  0  0  0
  1 16  1  0  0  0  0
  1  2  1  0  0  0  0
  3  1  1  0  0  0  0
  4  1  1  0  0  0  0
  4 15  1  0  0  0  0
  5  4  2  0  0  0  0
  6  5  1  0  0  0  0
  6  7  2  0  0  0  0
  7  8  1  0  0  0  0
  8 15  2  0  0  0  0
  8  9  1  0  0  0  0
  9 10  2  0  0  0  0
 10 12  1  0  0  0  0
 10 11  1  0  0  0  0
 12 13  1  0  0  0  0
 14 12  2  0  0  0  0
 15 14  1  0  0  0  0
 16 19  1  0  0  0  0
 17 16  1  0  0  0  0
 18 16  1  0  0  0  0
 19 24  1  0  0  0  0
 20 26  1  0  0  0  0
 20 21  1  0  0  0  0
 21 27  1  0  0  0  0
 22 21  2  0  0  0  0
 22 28  1  0  0  0  0
 23 22  1  0  0  0  0
 24 25  1  0  0  0  0
 24 23  2  0  0  0  0
 25 20  2  0  0  0  0
M  END
>  <minimizedAffinity>
-4.72626066

$$$$
