
 OpenBabel03272504573D

 36 39  0  0  1  0  0  0  0  0999 V2000
   36.1240   30.0910   49.7210 C   0  0  1  0  0  0  0  0  0  0  0  0
   34.7340   30.4610   49.8540 C   0  0  0  0  0  0  0  0  0  0  0  0
   35.1660   29.5320   48.7640 C   0  0  2  0  0  0  0  0  0  0  0  0
   36.6200   29.3070   50.3890 H   0  0  0  0  0  0  0  0  0  0  0  0
   34.4460   30.2650   50.8720 H   0  0  0  0  0  0  0  0  0  0  0  0
   34.4510   31.4860   49.5390 H   0  0  0  0  0  0  0  0  0  0  0  0
   34.8510   29.9160   47.8090 H   0  0  0  0  0  0  0  0  0  0  0  0
   37.1350   31.0600   49.1730 C   0  0  0  0  0  0  0  0  0  0  0  0
   37.1800   32.3200   49.7940 C   0  0  0  0  0  0  0  0  0  0  0  0
   38.1160   33.1870   49.2770 C   0  0  0  0  0  0  0  0  0  0  0  0
   38.9080   32.8090   48.2500 N   0  0  0  0  0  0  0  0  0  0  0  0
   38.8350   31.5830   47.6770 C   0  0  0  0  0  0  0  0  0  0  0  0
   37.9170   30.6780   48.1550 N   0  0  0  0  0  0  0  0  0  0  0  0
   39.6590   31.1570   46.6310 N   0  0  0  0  0  0  0  0  0  0  0  0
   36.5670   32.6290   50.6010 H   0  0  0  0  0  0  0  0  0  0  0  0
   38.2090   34.1770   49.7050 H   0  0  0  0  0  0  0  0  0  0  0  0
   40.6660   30.8540   46.7870 H   0  0  0  0  0  0  0  0  0  0  0  0
   39.2680   31.1360   45.6680 H   0  0  0  0  0  0  0  0  0  0  0  0
   34.8380   28.1880   48.9580 O   0  0  0  0  0  0  0  0  0  0  0  0
   33.5950   26.2320   47.8340 O   0  0  0  0  0  0  0  0  0  0  0  0
   33.6150   27.7240   47.9280 P   0  0  1  0  0  0  0  0  0  0  0  0
   32.0880   28.1480   48.6320 O   0  0  0  0  0  0  0  0  0  0  0  0
   31.4350   27.7190   48.0270 H   0  0  0  0  0  0  0  0  0  0  0  0
   33.8040   28.5080   46.4560 O   0  0  0  0  0  0  0  0  0  0  0  0
   32.9620   29.3840   45.8410 C   0  0  0  0  0  0  0  0  0  0  0  0
   31.6640   29.5160   46.1100 N   0  0  0  0  0  0  0  0  0  0  0  0
   30.9660   30.4290   45.4140 C   0  0  0  0  0  3  0  0  0  0  0  0
   31.5300   31.2090   44.4610 N   0  0  0  0  0  0  0  0  0  0  0  0
   32.8360   31.1150   44.1520 C   0  0  0  0  0  0  0  0  0  0  0  0
   33.4450   31.8960   43.1840 C   0  0  0  0  0  3  0  0  0  0  0  0
   34.7750   31.7690   42.9000 C   0  0  0  0  0  0  0  0  0  0  0  0
   35.2770   32.3620   42.1520 H   0  0  0  0  0  0  0  0  0  0  0  0
   35.5170   30.8510   43.5870 C   0  0  0  0  0  0  0  0  0  0  0  0
   36.5740   30.7330   43.3800 H   0  0  0  0  0  0  0  0  0  0  0  0
   34.9020   30.0780   44.5500 C   0  0  0  0  0  3  0  0  0  0  0  0
   33.5720   30.1760   44.8620 C   0  0  0  0  0  0  0  0  0  0  0  0
  1  2  1  0  0  0  0
  1  4  1  1  0  0  0
  2  5  1  0  0  0  0
  3  7  1  6  0  0  0
  3 19  1  0  0  0  0
  3  1  1  0  0  0  0
  3  2  1  0  0  0  0
  6  2  1  0  0  0  0
  8  1  1  0  0  0  0
  8  9  1  0  0  0  0
  9 15  1  0  0  0  0
 10 16  1  0  0  0  0
 10  9  2  0  0  0  0
 11 10  1  0  0  0  0
 12 13  1  0  0  0  0
 12 11  2  0  0  0  0
 13  8  2  0  0  0  0
 14 17  1  0  0  0  0
 14 12  1  0  0  0  0
 18 14  1  0  0  0  0
 21 20  2  6  0  0  0
 21 22  1  0  0  0  0
 21 19  1  0  0  0  0
 23 22  1  0  0  0  0
 24 21  1  0  0  0  0
 25 26  1  0  0  0  0
 25 24  1  0  0  0  0
 27 26  2  0  0  0  0
 28 27  1  0  0  0  0
 29 28  2  0  0  0  0
 29 36  1  0  0  0  0
 30 29  1  0  0  0  0
 31 30  2  0  0  0  0
 31 33  1  0  0  0  0
 32 31  1  0  0  0  0
 33 35  2  0  0  0  0
 34 33  1  0  0  0  0
 35 36  1  0  0  0  0
 36 25  2  0  0  0  0
M  END
>  <minimizedAffinity>
-5.71922922

>  <minimizedRMSD>
3.19951081

$$$$
