
     RDKit          3D

 51 54  0  0  0  0  0  0  0  0999 V2000
   37.6001   30.4620   48.5149 Cl  0  0  0  0  0  0  0  0  0  0  0  0
   36.4438   30.3204   47.1876 C   0  0  0  0  0  0  0  0  0  0  0  0
   36.8175   30.7034   45.9484 C   0  0  0  0  0  0  0  0  0  0  0  0
   35.9255   30.5997   44.9019 C   0  0  0  0  0  0  0  0  0  0  0  0
   34.6507   30.0986   45.1511 C   0  0  0  0  0  0  0  0  0  0  0  0
   34.3389   29.7212   46.4716 C   0  0  0  0  0  0  0  0  0  0  0  0
   35.2010   29.8179   47.4991 C   0  0  0  0  0  0  0  0  0  0  0  0
   39.8247   32.8358   45.9897 C   0  0  0  0  0  0  0  0  0  0  0  0
   40.6878   32.0936   45.1097 C   0  0  0  0  0  0  0  0  0  0  0  0
   40.1960   30.9071   44.5515 C   0  0  0  0  0  0  0  0  0  0  0  0
   38.9356   30.5077   44.8599 N   0  0  0  0  0  0  0  0  0  0  0  0
   38.1484   31.2287   45.6915 C   0  0  0  0  0  0  0  0  0  0  0  0
   38.5940   32.3710   46.2416 N   0  0  0  0  0  0  0  0  0  0  0  0
   41.0679   30.2165   43.7016 N   0  0  0  0  0  0  0  0  0  0  0  0
   34.8279   29.4189   48.8226 C   0  0  0  0  0  0  0  0  0  0  0  0
   34.1795   28.1226   49.0454 C   0  0  0  0  0  0  0  0  0  0  0  0
   32.8645   28.2773   49.3958 O   0  0  0  0  0  0  0  0  0  0  0  0
   32.6590   26.6963   47.3154 O   0  0  0  0  0  0  0  0  0  0  0  0
   31.8690   27.5227   48.2993 P   0  0  2  0  0  0  0  0  0  0  0  0
   31.0312   28.7757   47.4443 O   0  0  0  0  0  0  0  0  0  0  0  0
   30.6925   26.5930   48.9951 O   0  0  0  0  0  0  0  0  0  0  0  0
   29.8484   27.3583   49.7650 C   0  0  0  0  0  0  0  0  0  0  0  0
   29.3205   26.6493   50.8429 F   0  0  0  0  0  0  0  0  0  0  0  0
   30.5050   28.4444   50.3199 F   0  0  0  0  0  0  0  0  0  0  0  0
   28.7936   27.8119   48.9872 F   0  0  0  0  0  0  0  0  0  0  0  0
   36.2487   30.9161   43.9030 H   0  0  0  0  0  0  0  0  0  0  0  0
   34.0394   30.0596   44.2753 H   0  0  0  0  0  0  0  0  0  0  0  0
   33.3636   29.3849   46.4465 H   0  0  0  0  0  0  0  0  0  0  0  0
   40.1741   33.7425   46.4283 H   0  0  0  0  0  0  0  0  0  0  0  0
   41.6463   32.5299   44.9625 H   0  0  0  0  0  0  0  0  0  0  0  0
   41.5750   29.3219   43.9342 H   0  0  0  0  0  0  0  0  0  0  0  0
   41.1731   30.6877   42.7813 H   0  0  0  0  0  0  0  0  0  0  0  0
   35.7292   29.4627   49.4753 H   0  0  0  0  0  0  0  0  0  0  0  0
   34.1736   30.2374   49.2475 H   0  0  0  0  0  0  0  0  0  0  0  0
   34.7009   27.4844   49.8175 H   0  0  0  0  0  0  0  0  0  0  0  0
   34.2579   27.5251   48.1078 H   0  0  0  0  0  0  0  0  0  0  0  0
   30.1803   28.3754   46.4222 C   0  0  0  0  0  0  0  0  0  0  0  0
   29.2886   27.3693   46.4657 N   0  0  0  0  0  0  0  0  0  0  0  0
   28.5448   27.1127   45.3949 C   0  0  0  0  0  0  0  0  0  0  0  0
   28.6448   27.8235   44.2538 N   0  0  0  0  0  0  0  0  0  0  0  0
   29.5217   28.8454   44.1495 C   0  0  0  0  0  0  0  0  0  0  0  0
   29.6028   29.5559   42.9693 C   0  0  0  0  0  0  0  0  0  0  0  0
   30.5073   30.5901   42.8995 C   0  0  0  0  0  0  0  0  0  0  0  0
   30.6732   31.2300   42.0312 H   0  0  0  0  0  0  0  0  0  0  0  0
   31.3132   30.9142   43.9719 C   0  0  0  0  0  0  0  0  0  0  0  0
   32.0309   31.7122   43.9598 H   0  0  0  0  0  0  0  0  0  0  0  0
   31.2044   30.1816   45.1361 C   0  0  0  0  0  0  0  0  0  0  0  0
   30.3168   29.1369   45.2613 C   0  0  0  0  0  0  0  0  0  0  0  0
   27.8130   26.3122   45.3826 H   0  0  0  0  0  0  0  0  0  0  0  0
   29.0002   29.3461   42.1055 H   0  0  0  0  0  0  0  0  0  0  0  0
   31.8320   30.4243   45.9897 H   0  0  0  0  0  0  0  0  0  0  0  0
  2  7  2  0
  2  1  1  0
  3  2  1  0
  4  5  1  0
  4  3  2  0
  5  6  2  0
  6  7  1  0
  7 15  1  0
  8 13  2  0
  9  8  1  0
 10 11  1  0
 10  9  2  0
 11 12  2  0
 12  3  1  0
 12 13  1  0
 14 10  1  0
 15 16  1  0
 16 17  1  0
 19 18  2  0
 19 21  1  1
 19 17  1  0
 20 19  1  0
 21 22  1  0
 22 24  1  0
 22 23  1  0
 25 22  1  0
  4 26  1  0
  5 27  1  0
  6 28  1  0
  8 29  1  0
  9 30  1  0
 14 31  1  0
 14 32  1  0
 15 33  1  0
 15 34  1  0
 16 35  1  0
 16 36  1  0
 37 38  2  0
 38 39  1  0
 39 40  2  0
 40 41  1  0
 41 42  2  0
 42 43  1  0
 43 44  1  0
 43 45  2  0
 45 46  1  0
 45 47  1  0
 47 48  2  0
 48 37  1  0
 48 41  1  0
 39 49  1  0
 42 50  1  0
 47 51  1  0
 20 37  1  0
M  ISO  8  26  14  27  14  28  14  29  14  30  14  33   8  34   8  35   8
M  ISO  3  36   8  44  16  46  16
M  END
>  <DihAtoms>  (1) 
18,19,36,37

>  <DihDeg>  (1) 
-0.0003605711528209357

$$$$
