
     RDKit          3D

 52 57  0  0  0  0  0  0  0  0999 V2000
   38.1209   30.1477   47.4853 F   0  0  0  0  0  0  0  0  0  0  0  0
   38.3729   31.3894   47.9755 C   0  0  0  0  0  0  0  0  0  0  0  0
   37.7178   31.8338   49.0846 C   0  0  0  0  0  0  0  0  0  0  0  0
   38.0260   33.0991   49.5197 C   0  0  0  0  0  0  0  0  0  0  0  0
   38.9368   33.8978   48.8971 C   0  0  0  0  0  0  0  0  0  0  0  0
   39.5933   33.4250   47.7677 C   0  0  0  0  0  0  0  0  0  0  0  0
   39.3003   32.1498   47.3072 C   0  0  0  0  0  0  0  0  0  0  0  0
   36.0831   29.3657   51.4373 C   0  0  0  0  0  0  0  0  0  0  0  0
   37.0550   30.2204   50.8579 C   0  0  0  0  0  0  0  0  0  0  0  0
   36.7503   30.9412   49.7173 C   0  0  0  0  0  0  0  0  0  0  0  0
   35.4948   30.7880   49.1943 N   0  0  0  0  0  0  0  0  0  0  0  0
   34.5835   29.9772   49.7502 C   0  0  0  0  0  0  0  0  0  0  0  0
   34.8773   29.2810   50.8515 N   0  0  0  0  0  0  0  0  0  0  0  0
   39.2595   31.9048   44.9268 C   0  0  0  0  0  0  0  0  0  0  0  0
   38.1754   32.5582   45.0491 O   0  0  0  0  0  0  0  0  0  0  0  0
   39.9586   31.6341   46.1478 N   0  0  0  0  0  0  0  0  0  0  0  0
   39.1949   32.1922   42.5599 C   0  0  0  0  0  0  0  0  0  0  0  0
   39.7179   31.4829   43.6191 C   0  0  0  0  0  0  0  0  0  0  0  0
   40.5999   30.4607   43.4584 C   0  0  0  0  0  0  0  0  0  0  0  0
   41.0109   30.0913   42.1875 C   0  0  0  0  0  0  0  0  0  0  0  0
   41.8419   29.1558   41.7269 N   0  0  0  0  0  0  0  0  0  0  0  0
   41.8638   29.2494   40.3914 C   0  0  0  0  0  0  0  0  0  0  0  0
   41.0463   30.2436   40.0170 N   0  0  0  0  0  0  0  0  0  0  0  0
   40.4899   30.7990   41.1201 C   0  0  0  0  0  0  0  0  0  0  0  0
   39.5864   31.8488   41.2536 C   0  0  0  0  0  0  0  0  0  0  0  0
   39.0708   32.5499   40.1880 O   0  0  0  0  0  0  0  0  0  0  0  0
   37.5090   33.4656   50.4052 H   0  0  0  0  0  0  0  0  0  0  0  0
   39.1689   34.8960   49.2541 H   0  0  0  0  0  0  0  0  0  0  0  0
   40.3299   33.9919   47.2128 H   0  0  0  0  0  0  0  0  0  0  0  0
   36.4104   28.8405   52.3295 H   0  0  0  0  0  0  0  0  0  0  0  0
   38.0570   30.3699   51.2389 H   0  0  0  0  0  0  0  0  0  0  0  0
   33.5944   29.8244   49.3810 H   0  0  0  0  0  0  0  0  0  0  0  0
   40.8357   31.1135   46.0776 H   0  0  0  0  0  0  0  0  0  0  0  0
   38.4922   33.0073   42.6797 H   0  0  0  0  0  0  0  0  0  0  0  0
   40.9695   29.9476   44.3411 H   0  0  0  0  0  0  0  0  0  0  0  0
   42.3718   28.4783   42.3396 H   0  0  0  0  0  0  0  0  0  0  0  0
   42.4565   28.6109   39.7426 H   0  0  0  0  0  0  0  0  0  0  0  0
   38.3326   32.0391   39.1540 C   0  0  0  0  0  0  0  0  0  0  0  0
   37.8128   32.6961   38.0959 N   0  0  0  0  0  0  0  0  0  0  0  0
   37.1006   32.0690   37.1420 C   0  0  0  0  0  0  0  0  0  0  0  0
   36.8876   30.7308   37.2301 N   0  0  0  0  0  0  0  0  0  0  0  0
   37.3778   30.0228   38.2567 C   0  0  0  0  0  0  0  0  0  0  0  0
   37.1225   28.6637   38.2831 C   0  0  0  0  0  0  0  0  0  0  0  0
   37.6241   27.9463   39.3313 C   0  0  0  0  0  0  0  0  0  0  0  0
   37.4719   26.8824   39.4292 H   0  0  0  0  0  0  0  0  0  0  0  0
   38.3501   28.5316   40.3211 C   0  0  0  0  0  0  0  0  0  0  0  0
   38.7761   28.0096   41.1831 H   0  0  0  0  0  0  0  0  0  0  0  0
   38.5874   29.8888   40.2664 C   0  0  0  0  0  0  0  0  0  0  0  0
   38.1021   30.6698   39.2240 C   0  0  0  0  0  0  0  0  0  0  0  0
   36.7044   32.6323   36.3150 H   0  0  0  0  0  0  0  0  0  0  0  0
   36.5449   28.1888   37.4984 H   0  0  0  0  0  0  0  0  0  0  0  0
   39.1711   30.3878   41.0531 H   0  0  0  0  0  0  0  0  0  0  0  0
  1  2  1  0
  2  3  2  0
  3  4  1  0
  3 10  1  0
  5  4  2  0
  6  5  1  0
  7  6  2  0
  7  2  1  0
  9  8  2  0
 10  9  1  0
 11 10  2  0
 11 12  1  0
 12 13  2  0
 13  8  1  0
 14 15  2  0
 14 16  1  0
 16  7  1  0
 17 18  2  0
 18 14  1  0
 19 18  1  0
 20 19  2  0
 21 20  1  0
 22 21  1  0
 23 22  2  0
 23 24  1  0
 24 25  2  0
 24 20  1  0
 25 17  1  0
 26 25  1  0
  4 27  1  0
  5 28  1  0
  6 29  1  0
  8 30  1  0
  9 31  1  0
 12 32  1  0
 16 33  1  0
 17 34  1  0
 19 35  1  0
 21 36  1  0
 22 37  1  0
 38 39  2  0
 39 40  1  0
 40 41  2  0
 41 42  1  0
 42 43  2  0
 43 44  1  0
 44 45  1  0
 44 46  2  0
 46 47  1  0
 46 48  1  0
 48 49  2  0
 49 38  1  0
 49 42  1  0
 40 50  1  0
 43 51  1  0
 48 52  1  0
 26 38  1  0
M  ISO  8  27  14  28  14  29  14  30  14  31  14  32  14  34  14  35  14
M  ISO  4  36   9  37  14  45  16  47  16
M  END
>  <DihAtoms>  (1) 
24,25,37,38

>  <DihDeg>  (1) 
-2.8277287862817974e-05

$$$$
