REMARK  Name = 
REMARK  3 active torsions:
REMARK  status: ('A' for Active; 'I' for Inactive)
REMARK    1  A    between atoms: C_1  and  C_8
REMARK    2  A    between atoms: C_4  and  O_13
REMARK    3  A    between atoms: O_13  and  C_14
REMARK                            x       y       z     vdW  Elec       q    Type
REMARK                         _______ _______ _______ _____ _____    ______ ____
ROOT
ATOM      1  O   UNL     1      37.751  30.049  49.208  0.00  0.00    +0.000 OA
ENDROOT
BRANCH   1   2
ATOM      2  C   UNL     1      38.157  31.314  48.791  0.00  0.00    +0.000 A 
ATOM      3  C   UNL     1      37.869  32.324  49.692  0.00  0.00    +0.000 A 
ATOM      4  C   UNL     1      38.342  33.508  49.114  0.00  0.00    +0.000 A 
ATOM      5  N   UNL     1      38.885  33.179  47.913  0.00  0.00    +0.000 N 
ATOM      6  N   UNL     1      38.769  31.887  47.738  0.00  0.00    +0.000 NA
ATOM      7  H   UNL     1      37.400  32.416  50.666  0.00  0.00    +0.000 HD
ATOM      8  H   UNL     1      38.344  34.533  49.434  0.00  0.00    +0.000 HD
ATOM      9  C   UNL     1      39.496  34.031  46.951  0.00  0.00    +0.000 A 
ATOM     10  N   UNL     1      39.544  35.374  47.037  0.00  0.00    +0.000 NA
ATOM     11  C   UNL     1      40.153  36.111  46.064  0.00  0.00    +0.000 A 
ATOM     12  N   UNL     1      40.717  35.476  44.996  0.00  0.00    +0.000 NA
ATOM     13  C   UNL     1      40.687  34.137  44.880  0.00  0.00    +0.000 A 
ATOM     14  C   UNL     1      41.265  33.541  43.794  0.00  0.00    +0.000 A 
ATOM     15  C   UNL     1      41.241  32.163  43.662  0.00  0.00    +0.000 A 
ATOM     16  H   UNL     1      41.660  31.575  42.855  0.00  0.00    +0.000 HD
ATOM     17  C   UNL     1      40.623  31.382  44.645  0.00  0.00    +0.000 A 
ATOM     18  H   UNL     1      40.568  30.289  44.605  0.00  0.00    +0.000 HD
ATOM     19  C   UNL     1      40.046  31.998  45.733  0.00  0.00    +0.000 A 
ATOM     20  C   UNL     1      40.072  33.371  45.859  0.00  0.00    +0.000 A 
ENDBRANCH   1   2
BRANCH   1  24
ATOM     21  C   UNL     1      33.839  28.782  48.278  0.00  0.00    +0.000 A 
ATOM     22  C   UNL     1      34.437  28.410  49.431  0.00  0.00    +0.000 A 
ATOM     23  C   UNL     1      35.714  28.785  49.804  0.00  0.00    +0.000 A 
ATOM     24  C   UNL     1      36.458  29.583  48.985  0.00  0.00    +0.000 A 
ATOM     25  C   UNL     1      35.843  29.970  47.790  0.00  0.00    +0.000 A 
ATOM     26  N   UNL     1      34.593  29.581  47.465  0.00  0.00    +0.000 NA
ATOM     27  H   UNL     1      33.917  27.780  50.135  0.00  0.00    +0.000 HD
ATOM     28  H   UNL     1      36.187  28.485  50.727  0.00  0.00    +0.000 HD
ATOM     29  H   UNL     1      36.378  30.602  47.096  0.00  0.00    +0.000 HD
BRANCH  21  31
ATOM     30  C   UNL     1      31.640  27.671  48.701  0.00  0.00    +0.000 A 
ATOM     31  C   UNL     1      32.514  28.399  47.878  0.00  0.00    +0.000 A 
ATOM     32  C   UNL     1      32.035  28.743  46.634  0.00  0.00    +0.000 A 
ATOM     33  N   UNL     1      30.779  28.380  46.259  0.00  0.00    +0.000 NA
ATOM     34  C   UNL     1      29.975  27.671  47.105  0.00  0.00    +0.000 A 
ATOM     35  N   UNL     1      30.407  27.312  48.336  0.00  0.00    +0.000 NA
ATOM     36  H   UNL     1      31.969  27.378  49.684  0.00  0.00    +0.000 HD
ATOM     37  H   UNL     1      32.698  29.307  45.987  0.00  0.00    +0.000 HD
ATOM     38  H   UNL     1      29.027  27.491  46.605  0.00  0.00    +0.000 HD
ENDBRANCH  21  31
ENDBRANCH   1  24
TORSDOF 3
