
 OpenBabel03272507303D

 32 35  0  0  0  0  0  0  0  0999 V2000
   34.5640   28.6030   49.4960 C   0  0  0  0  0  0  0  0  0  0  0  0
   33.2420   28.8100   49.6620 C   0  0  0  0  0  0  0  0  0  0  0  0
   32.5390   28.0090   48.7630 C   0  0  0  0  0  0  0  0  0  0  0  0
   33.5460   27.3170   48.0580 C   0  0  0  0  0  0  0  0  0  0  0  0
   34.6480   27.7340   48.5590 O   0  0  0  0  0  0  0  0  0  0  0  0
   32.6290   29.4270   50.3030 H   0  0  0  0  0  0  0  0  0  0  0  0
   31.4790   27.8820   48.5790 H   0  0  0  0  0  0  0  0  0  0  0  0
   35.5800   29.2760   50.2670 C   0  0  0  0  0  0  0  0  0  0  0  0
   35.5880   29.1410   51.4970 O   0  0  0  0  0  0  0  0  0  0  0  0
   36.5430   30.0830   49.5250 C   0  0  0  0  0  0  0  0  0  0  0  0
   37.4500   30.8110   50.3120 C   0  0  0  0  0  0  0  0  0  0  0  0
   38.3860   31.5910   49.6260 C   0  0  0  0  0  0  0  0  0  0  0  0
   38.3760   31.6100   48.2680 N   0  0  0  0  0  0  0  0  0  0  0  0
   37.4750   30.8860   47.5600 C   0  0  0  0  0  0  0  0  0  0  0  0
   36.5740   30.1340   48.1840 N   0  0  0  0  0  0  0  0  0  0  0  0
   37.4600   30.7980   51.3910 H   0  0  0  0  0  0  0  0  0  0  0  0
   39.1280   32.1890   50.1570 H   0  0  0  0  0  0  0  0  0  0  0  0
   37.4430   30.8810   46.4850 H   0  0  0  0  0  0  0  0  0  0  0  0
   33.2820   26.3410   46.9940 C   0  0  0  0  0  0  0  0  0  0  0  0
   32.0950   26.0740   46.6880 O   0  0  0  0  0  0  0  0  0  0  0  0
   34.1050   25.5280   46.1330 C   0  0  0  0  0  0  0  0  0  0  0  0
   34.3520   26.0380   44.9030 N   0  0  0  0  0  0  0  0  0  0  0  0
   35.1080   25.3980   43.9660 C   0  0  0  0  0  3  0  0  0  0  0  0
   35.6460   24.2070   44.2520 N   0  0  0  0  0  0  0  0  0  0  0  0
   35.4650   23.6150   45.4430 C   0  0  0  0  0  0  0  0  0  0  0  0
   36.0380   22.4040   45.7640 C   0  0  0  0  0  3  0  0  0  0  0  0
   35.8690   21.8350   46.9970 C   0  0  0  0  0  0  0  0  0  0  0  0
   36.3170   20.8850   47.2470 H   0  0  0  0  0  0  0  0  0  0  0  0
   35.0910   22.5440   47.9090 C   0  0  0  0  0  0  0  0  0  0  0  0
   34.9730   22.0730   48.8800 H   0  0  0  0  0  0  0  0  0  0  0  0
   34.5330   23.7500   47.5570 C   0  0  0  0  0  3  0  0  0  0  0  0
   34.6930   24.3250   46.3270 C   0  0  0  0  0  0  0  0  0  0  0  0
  1  2  2  0  0  0  0
  1  8  1  0  0  0  0
  2  6  1  0  0  0  0
  3  2  1  0  0  0  0
  4  5  1  0  0  0  0
  4  3  2  0  0  0  0
  5  1  1  0  0  0  0
  7  3  1  0  0  0  0
  8  9  2  0  0  0  0
 10  8  1  0  0  0  0
 10 11  1  0  0  0  0
 11 16  1  0  0  0  0
 12 17  1  0  0  0  0
 12 11  2  0  0  0  0
 13 12  1  0  0  0  0
 14 15  1  0  0  0  0
 14 13  2  0  0  0  0
 15 10  2  0  0  0  0
 18 14  1  0  0  0  0
 19  4  1  0  0  0  0
 20 19  2  0  0  0  0
 21 32  1  0  0  0  0
 21 19  1  0  0  0  0
 22 21  2  0  0  0  0
 23 24  2  0  0  0  0
 23 22  1  0  0  0  0
 24 25  1  0  0  0  0
 25 26  2  0  0  0  0
 25 32  1  0  0  0  0
 26 27  1  0  0  0  0
 27 28  1  0  0  0  0
 27 29  2  0  0  0  0
 29 30  1  0  0  0  0
 31 29  1  0  0  0  0
 32 31  2  0  0  0  0
M  END
>  <minimizedAffinity>
-4.85631657

>  <minimizedRMSD>
2.16870737

$$$$
