
 OpenBabel03272503123D

 49 54  0  0  0  0  0  0  0  0999 V2000
   39.1550   32.1980   42.5920 C   0  0  0  0  0  0  0  0  0  0  0  0
   39.6970   31.4980   43.6470 C   0  0  0  0  0  0  0  0  0  0  0  0
   40.5940   30.4900   43.4800 C   0  0  0  0  0  0  0  0  0  0  0  0
   41.0000   30.1250   42.2070 C   0  0  0  0  0  0  0  0  0  0  0  0
   41.8420   29.2020   41.7400 N   0  0  0  0  0  0  0  0  0  0  0  0
   41.8510   29.2950   40.4030 C   0  0  0  0  0  0  0  0  0  0  0  0
   41.0150   30.2770   40.0350 N   0  0  0  0  0  0  0  0  0  0  0  0
   40.4590   30.8240   41.1430 C   0  0  0  0  0  0  0  0  0  0  0  0
   39.5400   31.8600   41.2830 C   0  0  0  0  0  0  0  0  0  0  0  0
   38.4400   33.0020   42.7170 H   0  0  0  0  0  0  0  0  0  0  0  0
   40.9780   29.9830   44.3600 H   0  0  0  0  0  0  0  0  0  0  0  0
   42.3870   28.5330   42.3490 H   0  0  0  0  0  0  0  0  0  0  0  0
   42.4480   28.6650   39.7510 H   0  0  0  0  0  0  0  0  0  0  0  0
   39.2440   31.9140   44.9590 C   0  0  0  0  0  0  0  0  0  0  0  0
   38.1550   32.5590   45.0880 O   0  0  0  0  0  0  0  0  0  0  0  0
   39.9510   31.6450   46.1750 N   0  0  0  0  0  0  0  0  0  0  0  0
   40.8310   31.1310   46.0990 H   0  0  0  0  0  0  0  0  0  0  0  0
   38.1120   30.1540   47.5040 F   0  0  0  0  0  0  0  0  0  0  0  0
   38.3670   31.3900   48.0030 C   0  0  0  0  0  0  0  0  0  0  0  0
   37.7150   31.8290   49.1170 C   0  0  0  0  0  0  0  0  0  0  0  0
   38.0260   33.0900   49.5610 C   0  0  0  0  0  0  0  0  0  0  0  0
   38.9380   33.8910   48.9420 C   0  0  0  0  0  0  0  0  0  0  0  0
   39.5910   33.4250   47.8090 C   0  0  0  0  0  0  0  0  0  0  0  0
   39.2950   32.1540   47.3390 C   0  0  0  0  0  0  0  0  0  0  0  0
   37.5110   33.4510   50.4490 H   0  0  0  0  0  0  0  0  0  0  0  0
   39.1730   34.8860   49.3060 H   0  0  0  0  0  0  0  0  0  0  0  0
   40.3290   33.9950   47.2570 H   0  0  0  0  0  0  0  0  0  0  0  0
   36.0760   29.3490   51.4550 C   0  0  0  0  0  0  0  0  0  0  0  0
   37.0490   30.2060   50.8810 C   0  0  0  0  0  0  0  0  0  0  0  0
   36.7460   30.9330   49.7430 C   0  0  0  0  0  0  0  0  0  0  0  0
   35.4910   30.7840   49.2190 N   0  0  0  0  0  0  0  0  0  0  0  0
   34.5790   29.9710   49.7710 C   0  0  0  0  0  0  0  0  0  0  0  0
   34.8710   29.2690   50.8690 N   0  0  0  0  0  0  0  0  0  0  0  0
   36.4030   28.8180   52.3450 H   0  0  0  0  0  0  0  0  0  0  0  0
   38.0520   30.3520   51.2630 H   0  0  0  0  0  0  0  0  0  0  0  0
   33.5880   29.8210   49.4000 H   0  0  0  0  0  0  0  0  0  0  0  0
   39.0060   32.5520   40.2210 O   0  0  0  0  0  0  0  0  0  0  0  0
   37.9220   32.1850   39.4690 C   0  0  0  0  0  0  0  0  0  0  0  0
   37.8520   31.2350   38.5130 N   0  0  0  0  0  0  0  0  0  0  0  0
   36.7140   30.9730   37.8450 C   0  0  0  0  0  3  0  0  0  0  0  0
   35.5890   31.6780   38.1270 N   0  0  0  0  0  0  0  0  0  0  0  0
   35.5940   32.6350   39.0660 C   0  0  0  0  0  0  0  0  0  0  0  0
   34.4120   33.3130   39.3020 C   0  0  0  0  0  3  0  0  0  0  0  0
   34.4220   34.2870   40.2590 C   0  0  0  0  0  0  0  0  0  0  0  0
   33.5440   34.8640   40.5070 H   0  0  0  0  0  0  0  0  0  0  0  0
   35.5460   34.5900   40.9630 C   0  0  0  0  0  0  0  0  0  0  0  0
   35.6140   35.3580   41.7400 H   0  0  0  0  0  0  0  0  0  0  0  0
   36.7080   33.8960   40.7040 C   0  0  0  0  0  3  0  0  0  0  0  0
   36.7580   32.8950   39.7420 C   0  0  0  0  0  0  0  0  0  0  0  0
  1 10  1  0  0  0  0
  1  2  1  0  0  0  0
  2 14  1  0  0  0  0
  3  2  2  0  0  0  0
  3 11  1  0  0  0  0
  4  3  1  0  0  0  0
  5  4  1  0  0  0  0
  5 12  1  0  0  0  0
  6  5  1  0  0  0  0
  7  6  2  0  0  0  0
  7  8  1  0  0  0  0
  8  9  1  0  0  0  0
  8  4  2  0  0  0  0
  9  1  2  0  0  0  0
 13  6  1  0  0  0  0
 14 15  2  0  0  0  0
 14 16  1  0  0  0  0
 16 24  1  0  0  0  0
 17 16  1  0  0  0  0
 18 19  1  0  0  0  0
 19 20  1  0  0  0  0
 20 21  2  0  0  0  0
 20 30  1  0  0  0  0
 21 25  1  0  0  0  0
 22 26  1  0  0  0  0
 22 21  1  0  0  0  0
 23 22  2  0  0  0  0
 24 23  1  0  0  0  0
 24 19  2  0  0  0  0
 27 23  1  0  0  0  0
 28 34  1  0  0  0  0
 29 35  1  0  0  0  0
 29 28  1  0  0  0  0
 30 29  2  0  0  0  0
 31 30  1  0  0  0  0
 31 32  2  0  0  0  0
 32 33  1  0  0  0  0
 33 28  2  0  0  0  0
 36 32  1  0  0  0  0
 37  9  1  0  0  0  0
 38 49  1  0  0  0  0
 38 37  1  0  0  0  0
 39 38  2  0  0  0  0
 40 41  2  0  0  0  0
 40 39  1  0  0  0  0
 41 42  1  0  0  0  0
 42 43  2  0  0  0  0
 42 49  1  0  0  0  0
 43 44  1  0  0  0  0
 44 45  1  0  0  0  0
 44 46  2  0  0  0  0
 46 47  1  0  0  0  0
 48 46  1  0  0  0  0
 49 48  2  0  0  0  0
M  END
>  <minimizedAffinity>
-7.51277542

>  <minimizedRMSD>
2.18346834

$$$$
