
 OpenBabel03272504183D

 29 31  0  0  0  0  0  0  0  0999 V2000
   33.8000   27.6010   45.7720 O   0  0  0  0  0  0  0  0  0  0  0  0
   33.1710   28.0830   47.0650 P   0  0  1  0  0  0  0  0  0  0  0  0
   33.7410   27.2050   48.3840 O   0  0  0  0  0  0  0  0  0  0  0  0
   33.3050   27.5740   49.1880 H   0  0  0  0  0  0  0  0  0  0  0  0
   33.5500   29.7390   47.3620 O   0  0  0  0  0  0  0  0  0  0  0  0
   34.6850   30.1240   48.0470 C   0  0  0  0  0  0  0  0  0  0  0  0
   34.8340   30.2420   49.4290 C   0  0  0  0  0  0  0  0  0  0  0  0
   36.0550   30.6450   49.9270 C   0  0  0  0  0  0  0  0  0  0  0  0
   37.0830   30.9180   49.0660 N   0  0  0  0  0  0  0  0  0  0  0  0
   36.9040   30.7930   47.7300 C   0  0  0  0  0  0  0  0  0  0  0  0
   35.7050   30.3970   47.2250 N   0  0  0  0  0  0  0  0  0  0  0  0
   36.1110   30.7190   51.0050 H   0  0  0  0  0  0  0  0  0  0  0  0
   37.7440   31.0180   47.0620 H   0  0  0  0  0  0  0  0  0  0  0  0
   33.6770   29.9230   50.1710 N   0  0  0  0  0  0  0  0  0  0  0  0
   32.9160   30.6370   50.0280 H   0  0  0  0  0  0  0  0  0  0  0  0
   34.0020   29.0400   50.6280 H   0  0  0  0  0  0  0  0  0  0  0  0
   31.5060   27.9150   46.8450 O   0  0  0  0  0  0  0  0  0  0  0  0
   30.6030   28.0480   47.8880 C   0  0  0  0  0  0  0  0  0  0  0  0
   30.7000   27.5530   49.1280 N   0  0  0  0  0  0  0  0  0  0  0  0
   29.7400   27.7620   50.0470 C   0  0  0  0  0  0  0  0  0  0  0  0
   28.6220   28.4880   49.7540 N   0  0  0  0  0  0  0  0  0  0  0  0
   28.4700   29.0140   48.5100 C   0  0  0  0  0  0  0  0  0  0  0  0
   27.3340   29.7570   48.2020 C   0  0  0  0  0  0  0  0  0  0  0  0
   27.1830   30.2920   46.9290 C   0  0  0  0  0  0  0  0  0  0  0  0
   26.2760   30.8480   46.7850 H   0  0  0  0  0  0  0  0  0  0  0  0
   28.1660   30.0840   45.9740 C   0  0  0  0  0  0  0  0  0  0  0  0
   28.0220   30.5070   45.0070 H   0  0  0  0  0  0  0  0  0  0  0  0
   29.2640   29.3410   46.3450 C   0  0  0  0  0  0  0  0  0  0  0  0
   29.4750   28.7830   47.5860 C   0  0  0  0  0  0  0  0  0  0  0  0
  2  1  2  6  0  0  0
  2  5  1  0  0  0  0
  2  3  1  0  0  0  0
  3  4  1  0  0  0  0
  5  6  1  0  0  0  0
  6  7  1  0  0  0  0
  7  8  2  0  0  0  0
  7 14  1  0  0  0  0
  8 12  1  0  0  0  0
  9  8  1  0  0  0  0
 10  9  2  0  0  0  0
 11 10  1  0  0  0  0
 11  6  2  0  0  0  0
 13 10  1  0  0  0  0
 14 16  1  0  0  0  0
 15 14  1  0  0  0  0
 17  2  1  0  0  0  0
 17 18  1  0  0  0  0
 18 19  1  0  0  0  0
 19 20  2  0  0  0  0
 21 20  1  0  0  0  0
 22 21  2  0  0  0  0
 23 22  1  0  0  0  0
 24 23  2  0  0  0  0
 25 24  1  0  0  0  0
 26 28  2  0  0  0  0
 26 24  1  0  0  0  0
 27 26  1  0  0  0  0
 28 29  1  0  0  0  0
 29 18  2  0  0  0  0
 29 22  1  0  0  0  0
M  END
>  <minimizedAffinity>
-5.21671867

>  <minimizedRMSD>
2.76253676

$$$$
