
 OpenBabel03272509473D

 28 30  0  0  0  0  0  0  0  0999 V2000
   33.5300   28.0400   47.8100 C   0  0  0  0  0  0  0  0  0  0  0  0
   33.5140   26.9330   47.9850 H   0  0  0  0  0  0  0  0  0  0  0  0
   34.3140   28.1750   47.0360 H   0  0  0  0  0  0  0  0  0  0  0  0
   32.1870   28.4210   47.3340 C   0  0  0  0  0  0  0  0  0  0  0  0
   31.0720   27.8810   47.8820 N   0  0  0  0  0  0  0  0  0  0  0  0
   29.8390   28.1990   47.5170 C   0  0  0  0  0  3  0  0  0  0  0  0
   29.6360   29.1080   46.5470 N   0  0  0  0  0  0  0  0  0  0  0  0
   30.6640   29.7030   45.9390 C   0  0  0  0  0  0  0  0  0  0  0  0
   30.4200   30.6240   44.9470 C   0  0  0  0  0  3  0  0  0  0  0  0
   31.5270   31.1950   44.3530 C   0  0  0  0  0  0  0  0  0  0  0  0
   31.3280   31.9190   43.5730 H   0  0  0  0  0  0  0  0  0  0  0  0
   32.8310   30.8800   44.7130 C   0  0  0  0  0  0  0  0  0  0  0  0
   33.6370   31.3890   44.1800 H   0  0  0  0  0  0  0  0  0  0  0  0
   32.9980   29.9470   45.7170 C   0  0  0  0  0  3  0  0  0  0  0  0
   31.9290   29.3450   46.3460 C   0  0  0  0  0  0  0  0  0  0  0  0
   33.8860   28.6610   49.1190 C   0  0  0  0  0  0  0  0  0  0  0  0
   33.0820   28.4340   49.8570 H   0  0  0  0  0  0  0  0  0  0  0  0
   33.8920   29.7560   49.0240 H   0  0  0  0  0  0  0  0  0  0  0  0
   35.1340   28.1640   49.5800 O   0  0  0  0  0  0  0  0  0  0  0  0
   37.4160   30.3230   51.3670 C   0  0  0  0  0  0  0  0  0  0  0  0
   38.1070   30.8910   50.2960 C   0  0  0  0  0  0  0  0  0  0  0  0
   37.7530   30.5000   48.9990 C   0  0  0  0  0  0  0  0  0  0  0  0
   36.7440   29.5830   48.8850 N   0  0  0  0  0  0  0  0  0  0  0  0
   36.1070   29.0630   49.9380 C   0  0  0  0  0  0  0  0  0  0  0  0
   36.4550   29.4450   51.1840 N   0  0  0  0  0  0  0  0  0  0  0  0
   37.6720   30.6100   52.3860 H   0  0  0  0  0  0  0  0  0  0  0  0
   38.8940   31.6110   50.4460 H   0  0  0  0  0  0  0  0  0  0  0  0
   38.2520   30.9040   48.1250 H   0  0  0  0  0  0  0  0  0  0  0  0
  1  2  1  0  0  0  0
  1 16  1  0  0  0  0
  3  1  1  0  0  0  0
  4  1  1  0  0  0  0
  4  5  1  0  0  0  0
  6  5  2  0  0  0  0
  7  6  1  0  0  0  0
  8 15  1  0  0  0  0
  8  7  2  0  0  0  0
  9  8  1  0  0  0  0
 10 12  1  0  0  0  0
 10  9  2  0  0  0  0
 11 10  1  0  0  0  0
 12 14  2  0  0  0  0
 13 12  1  0  0  0  0
 14 15  1  0  0  0  0
 15  4  2  0  0  0  0
 16 19  1  0  0  0  0
 16 17  1  0  0  0  0
 18 16  1  0  0  0  0
 19 24  1  0  0  0  0
 20 26  1  0  0  0  0
 21 27  1  0  0  0  0
 21 20  2  0  0  0  0
 22 21  1  0  0  0  0
 23 22  2  0  0  0  0
 23 24  1  0  0  0  0
 24 25  2  0  0  0  0
 25 20  1  0  0  0  0
 28 22  1  0  0  0  0
M  END
>  <minimizedAffinity>
-4.5555892

>  <minimizedRMSD>
2.46336699

$$$$
