
 OpenBabel03272503303D

 37 40  0  0  1  0  0  0  0  0999 V2000
   34.8100   29.3830   48.0840 C   0  0  0  0  0  0  0  0  0  0  0  0
   34.6040   29.9620   46.8190 C   0  0  0  0  0  0  0  0  0  0  0  0
   33.3900   29.6950   46.1930 C   0  0  0  0  0  0  0  0  0  0  0  0
   32.4890   28.8920   46.8520 N   0  0  0  0  0  0  0  0  0  0  0  0
   32.7260   28.3640   48.0500 C   0  0  0  0  0  0  0  0  0  0  0  0
   33.8900   28.6100   48.6690 N   0  0  0  0  0  0  0  0  0  0  0  0
   35.3490   30.5880   46.3470 H   0  0  0  0  0  0  0  0  0  0  0  0
   33.1590   30.1040   45.2230 H   0  0  0  0  0  0  0  0  0  0  0  0
   36.0630   29.6600   48.7240 N   0  0  0  0  0  0  0  0  0  0  0  0
   37.1650   30.4050   48.1920 C   0  0  0  0  0  0  0  0  0  0  0  0
   37.8240   30.9630   49.4440 C   0  0  2  0  0  0  0  0  0  0  0  0
   36.9440   30.5540   50.6000 C   0  0  0  0  0  0  0  0  0  0  0  0
   36.4440   29.2280   50.0520 C   0  0  0  0  0  0  0  0  0  0  0  0
   36.8480   31.2340   47.5340 H   0  0  0  0  0  0  0  0  0  0  0  0
   37.8400   29.7430   47.6220 H   0  0  0  0  0  0  0  0  0  0  0  0
   38.8030   30.4700   49.5560 H   0  0  0  0  0  0  0  0  0  0  0  0
   36.1230   31.2390   50.8150 H   0  0  0  0  0  0  0  0  0  0  0  0
   37.5960   30.3110   51.4600 H   0  0  0  0  0  0  0  0  0  0  0  0
   35.5540   28.9430   50.6550 H   0  0  0  0  0  0  0  0  0  0  0  0
   37.2490   28.4770   50.0670 H   0  0  0  0  0  0  0  0  0  0  0  0
   38.0280   32.4520   49.3730 C   0  0  0  0  0  0  0  0  0  0  0  0
   36.9020   33.0310   49.9440 F   0  0  0  0  0  0  0  0  0  0  0  0
   38.0040   32.8070   48.0400 F   0  0  0  0  0  0  0  0  0  0  0  0
   39.1860   32.8680   49.9610 F   0  0  0  0  0  0  0  0  0  0  0  0
   31.5130   27.3270   48.8470 S   0  0  0  0  0  0  0  0  0  0  0  0
   30.1100   27.1600   47.7550 C   0  0  0  0  0  0  0  0  0  0  0  0
   30.3160   26.2770   46.7460 N   0  0  0  0  0  0  0  0  0  0  0  0
   29.3520   26.0340   45.8300 C   0  0  0  0  0  3  0  0  0  0  0  0
   28.1750   26.6710   45.9130 N   0  0  0  0  0  0  0  0  0  0  0  0
   27.9290   27.5660   46.9120 C   0  0  0  0  0  0  0  0  0  0  0  0
   26.7320   28.2570   47.0520 C   0  0  0  0  0  3  0  0  0  0  0  0
   26.5850   29.1480   48.1070 C   0  0  0  0  0  0  0  0  0  0  0  0
   25.6150   29.6200   48.1070 H   0  0  0  0  0  0  0  0  0  0  0  0
   27.5870   29.3750   49.0260 C   0  0  0  0  0  0  0  0  0  0  0  0
   27.4110   30.0750   49.8160 H   0  0  0  0  0  0  0  0  0  0  0  0
   28.7990   28.6960   48.9100 C   0  0  0  0  0  3  0  0  0  0  0  0
   28.9070   27.8200   47.8510 C   0  0  0  0  0  0  0  0  0  0  0  0
  1  6  1  0  0  0  0
  1  9  1  0  0  0  0
  2  1  2  0  0  0  0
  3  2  1  0  0  0  0
  3  4  2  0  0  0  0
  4  5  1  0  0  0  0
  5  6  2  0  0  0  0
  5 25  1  0  0  0  0
  7  2  1  0  0  0  0
  8  3  1  0  0  0  0
  9 13  1  0  0  0  0
 10  9  1  0  0  0  0
 10 11  1  0  0  0  0
 11 16  1  1  0  0  0
 11 12  1  0  0  0  0
 12 17  1  0  0  0  0
 12 18  1  0  0  0  0
 13 20  1  0  0  0  0
 13 12  1  0  0  0  0
 13 19  1  0  0  0  0
 14 10  1  0  0  0  0
 15 10  1  0  0  0  0
 21 11  1  0  0  0  0
 21 22  1  0  0  0  0
 21 24  1  0  0  0  0
 23 21  1  0  0  0  0
 26 37  1  0  0  0  0
 26 25  1  0  0  0  0
 27 26  2  0  0  0  0
 28 29  2  0  0  0  0
 28 27  1  0  0  0  0
 29 30  1  0  0  0  0
 30 31  2  0  0  0  0
 30 37  1  0  0  0  0
 31 32  1  0  0  0  0
 32 34  2  0  0  0  0
 33 32  1  0  0  0  0
 34 35  1  0  0  0  0
 36 34  1  0  0  0  0
 37 36  2  0  0  0  0
M  END
>  <minimizedAffinity>
-6.7110033

>  <minimizedRMSD>
0.657686234

$$$$
