
 OpenBabel03272509573D

 49 53  0  0  0  0  0  0  0  0999 V2000
   33.5900   27.5140   47.7100 C   0  0  0  0  0  0  0  0  0  0  0  0
   33.8450   27.3180   46.6360 H   0  0  0  0  0  0  0  0  0  0  0  0
   33.7340   26.5750   48.2460 H   0  0  0  0  0  0  0  0  0  0  0  0
   32.1430   27.8750   47.7380 C   0  0  0  0  0  0  0  0  0  0  0  0
   31.3890   27.4200   48.8010 C   0  0  0  0  0  0  0  0  0  0  0  0
   30.0530   27.7100   48.8930 C   0  0  0  0  0  0  0  0  0  0  0  0
   29.4660   28.4420   47.9460 N   0  0  0  0  0  0  0  0  0  0  0  0
   30.2190   28.8880   46.8950 C   0  0  0  0  0  0  0  0  0  0  0  0
   31.5170   28.6030   46.8110 N   0  0  0  0  0  0  0  0  0  0  0  0
   31.8000   26.8280   49.5950 H   0  0  0  0  0  0  0  0  0  0  0  0
   29.4080   27.3800   49.7070 H   0  0  0  0  0  0  0  0  0  0  0  0
   29.5030   29.7060   45.8840 C   0  0  0  0  0  0  0  0  0  0  0  0
   30.1980   30.1760   45.1580 H   0  0  0  0  0  0  0  0  0  0  0  0
   29.0100   30.5520   46.3970 H   0  0  0  0  0  0  0  0  0  0  0  0
   28.4510   28.9020   45.2180 C   0  0  0  0  0  0  0  0  0  0  0  0
   27.1940   28.9600   45.7550 N   0  0  0  0  0  0  0  0  0  0  0  0
   26.1560   28.2570   45.2900 C   0  0  0  0  0  3  0  0  0  0  0  0
   26.2720   27.4240   44.2430 N   0  0  0  0  0  0  0  0  0  0  0  0
   27.5070   27.3320   43.6720 C   0  0  0  0  0  0  0  0  0  0  0  0
   27.7090   26.5070   42.5820 C   0  0  0  0  0  3  0  0  0  0  0  0
   28.9470   26.4140   41.9880 C   0  0  0  0  0  0  0  0  0  0  0  0
   28.9950   25.7400   41.1420 H   0  0  0  0  0  0  0  0  0  0  0  0
   30.0100   27.1630   42.4950 C   0  0  0  0  0  0  0  0  0  0  0  0
   30.9590   27.0510   41.9850 H   0  0  0  0  0  0  0  0  0  0  0  0
   29.8230   27.9830   43.5770 C   0  0  0  0  0  3  0  0  0  0  0  0
   28.5750   28.0490   44.1420 C   0  0  0  0  0  0  0  0  0  0  0  0
   34.4770   28.6300   48.1690 C   0  0  0  0  0  0  0  0  0  0  0  0
   35.3450   28.8170   47.5060 H   0  0  0  0  0  0  0  0  0  0  0  0
   33.8750   29.5460   48.2090 H   0  0  0  0  0  0  0  0  0  0  0  0
   35.0040   28.3480   49.4680 O   0  0  0  0  0  0  0  0  0  0  0  0
   37.3430   30.1810   51.5360 C   0  0  0  0  0  0  0  0  0  0  0  0
   38.0740   30.8710   50.5340 C   0  0  0  0  0  0  0  0  0  0  0  0
   37.7090   30.6570   49.2150 C   0  0  0  0  0  0  0  0  0  0  0  0
   36.6710   29.7930   48.9940 N   0  0  0  0  0  0  0  0  0  0  0  0
   35.9920   29.1490   49.9470 C   0  0  0  0  0  0  0  0  0  0  0  0
   36.3450   29.3550   51.2440 N   0  0  0  0  0  0  0  0  0  0  0  0
   37.6530   30.3700   52.5580 H   0  0  0  0  0  0  0  0  0  0  0  0
   38.8780   31.5380   50.7210 H   0  0  0  0  0  0  0  0  0  0  0  0
   38.9420   33.2700   49.0230 F   0  0  0  0  0  0  0  0  0  0  0  0
   38.9100   32.4820   47.9580 C   0  0  0  0  0  0  0  0  0  0  0  0
   38.3320   31.2700   48.0720 C   0  0  0  0  0  0  0  0  0  0  0  0
   38.3580   30.5250   46.8810 C   0  0  0  0  0  0  0  0  0  0  0  0
   38.9160   30.9930   45.7240 C   0  0  0  0  0  0  0  0  0  0  0  0
   39.4930   32.2420   45.6700 C   0  0  0  0  0  0  0  0  0  0  0  0
   39.4820   32.9860   46.8120 C   0  0  0  0  0  0  0  0  0  0  0  0
   37.9180   29.5280   46.8580 H   0  0  0  0  0  0  0  0  0  0  0  0
   38.9050   30.3640   44.8270 H   0  0  0  0  0  0  0  0  0  0  0  0
   39.9280   32.5830   44.7330 H   0  0  0  0  0  0  0  0  0  0  0  0
   39.9320   33.9700   46.7780 H   0  0  0  0  0  0  0  0  0  0  0  0
  1  4  1  0  0  0  0
  1 27  1  0  0  0  0
  1  3  1  0  0  0  0
  2  1  1  0  0  0  0
  4  5  1  0  0  0  0
  5  6  2  0  0  0  0
  5 10  1  0  0  0  0
  6 11  1  0  0  0  0
  7  6  1  0  0  0  0
  8  7  2  0  0  0  0
  9  8  1  0  0  0  0
  9  4  2  0  0  0  0
 12 14  1  0  0  0  0
 12  8  1  0  0  0  0
 13 12  1  0  0  0  0
 15 16  1  0  0  0  0
 15 12  1  0  0  0  0
 17 16  2  0  0  0  0
 18 17  1  0  0  0  0
 19 26  1  0  0  0  0
 19 18  2  0  0  0  0
 20 19  1  0  0  0  0
 21 23  1  0  0  0  0
 21 20  2  0  0  0  0
 22 21  1  0  0  0  0
 23 25  2  0  0  0  0
 24 23  1  0  0  0  0
 25 26  1  0  0  0  0
 26 15  2  0  0  0  0
 27 29  1  0  0  0  0
 27 30  1  0  0  0  0
 28 27  1  0  0  0  0
 30 35  1  0  0  0  0
 31 37  1  0  0  0  0
 32 38  1  0  0  0  0
 32 31  2  0  0  0  0
 33 32  1  0  0  0  0
 34 33  2  0  0  0  0
 34 35  1  0  0  0  0
 35 36  2  0  0  0  0
 36 31  1  0  0  0  0
 40 41  1  0  0  0  0
 40 39  1  0  0  0  0
 41 33  1  0  0  0  0
 42 41  2  0  0  0  0
 43 42  1  0  0  0  0
 44 43  2  0  0  0  0
 44 45  1  0  0  0  0
 45 40  2  0  0  0  0
 46 42  1  0  0  0  0
 47 43  1  0  0  0  0
 48 44  1  0  0  0  0
 49 45  1  0  0  0  0
M  END
>  <minimizedAffinity>
-6.67857695

>  <minimizedRMSD>
1.19107616

$$$$
