REMARK  Name = 
REMARK  5 active torsions:
REMARK  status: ('A' for Active; 'I' for Inactive)
REMARK    1  A    between atoms: C_3  and  C_10
REMARK    2  A    between atoms: C_7  and  N_16
REMARK    3  A    between atoms: C_14  and  C_18
REMARK    4  A    between atoms: C_25  and  O_26
REMARK    5  A    between atoms: O_26  and  C_38
REMARK                            x       y       z     vdW  Elec       q    Type
REMARK                         _______ _______ _______ _____ _____    ______ ____
ROOT
ATOM      1  C   UNL     1      39.195  32.192  42.560  0.00  0.00    +0.000 A 
ATOM      2  C   UNL     1      39.718  31.483  43.619  0.00  0.00    +0.000 A 
ATOM      3  C   UNL     1      40.600  30.461  43.458  0.00  0.00    +0.000 A 
ATOM      4  C   UNL     1      41.011  30.091  42.188  0.00  0.00    +0.000 A 
ATOM      5  N   UNL     1      41.842  29.156  41.727  0.00  0.00    +0.000 N 
ATOM      6  C   UNL     1      41.864  29.249  40.391  0.00  0.00    +0.000 A 
ATOM      7  N   UNL     1      41.046  30.244  40.017  0.00  0.00    +0.000 NA
ATOM      8  C   UNL     1      40.490  30.799  41.120  0.00  0.00    +0.000 A 
ATOM      9  C   UNL     1      39.586  31.849  41.254  0.00  0.00    +0.000 A 
ATOM     10  H   UNL     1      38.492  33.007  42.680  0.00  0.00    +0.000 HD
ATOM     11  H   UNL     1      40.969  29.948  44.341  0.00  0.00    +0.000 HD
ATOM     12  H   UNL     1      42.372  28.478  42.340  0.00  0.00    +0.000 HD
ATOM     13  H   UNL     1      42.456  28.611  39.743  0.00  0.00    +0.000 HD
ENDROOT
BRANCH   2  14
ATOM     14  C   UNL     1      39.260  31.905  44.927  0.00  0.00    +0.000 C 
ATOM     15  O   UNL     1      38.175  32.558  45.049  0.00  0.00    +0.000 OA
ATOM     16  N   UNL     1      39.959  31.634  46.148  0.00  0.00    +0.000 N 
ATOM     17  H   UNL     1      40.836  31.113  46.078  0.00  0.00    +0.000 HD
BRANCH  16  24
ATOM     18  F   UNL     1      38.121  30.148  47.485  0.00  0.00    +0.000 F 
ATOM     19  C   UNL     1      38.373  31.389  47.975  0.00  0.00    +0.000 A 
ATOM     20  C   UNL     1      37.718  31.834  49.085  0.00  0.00    +0.000 A 
ATOM     21  C   UNL     1      38.026  33.099  49.520  0.00  0.00    +0.000 A 
ATOM     22  C   UNL     1      38.937  33.898  48.897  0.00  0.00    +0.000 A 
ATOM     23  C   UNL     1      39.593  33.425  47.768  0.00  0.00    +0.000 A 
ATOM     24  C   UNL     1      39.300  32.150  47.307  0.00  0.00    +0.000 A 
ATOM     25  H   UNL     1      37.509  33.466  50.405  0.00  0.00    +0.000 HD
ATOM     26  H   UNL     1      39.169  34.896  49.254  0.00  0.00    +0.000 HD
ATOM     27  H   UNL     1      40.330  33.992  47.213  0.00  0.00    +0.000 HD
BRANCH  20  30
ATOM     28  C   UNL     1      36.083  29.366  51.437  0.00  0.00    +0.000 A 
ATOM     29  C   UNL     1      37.055  30.220  50.858  0.00  0.00    +0.000 A 
ATOM     30  C   UNL     1      36.750  30.941  49.717  0.00  0.00    +0.000 A 
ATOM     31  N   UNL     1      35.495  30.788  49.194  0.00  0.00    +0.000 NA
ATOM     32  C   UNL     1      34.584  29.977  49.750  0.00  0.00    +0.000 A 
ATOM     33  N   UNL     1      34.877  29.281  50.852  0.00  0.00    +0.000 NA
ATOM     34  H   UNL     1      36.410  28.840  52.330  0.00  0.00    +0.000 HD
ATOM     35  H   UNL     1      38.057  30.370  51.239  0.00  0.00    +0.000 HD
ATOM     36  H   UNL     1      33.594  29.824  49.381  0.00  0.00    +0.000 HD
ENDBRANCH  20  30
ENDBRANCH  16  24
ENDBRANCH   2  14
BRANCH   9  37
ATOM     37  O   UNL     1      39.071  32.550  40.188  0.00  0.00    +0.000 OA
BRANCH  37  38
ATOM     38  C   UNL     1      38.333  32.039  39.154  0.00  0.00    +0.000 A 
ATOM     39  N   UNL     1      37.004  32.150  38.943  0.00  0.00    +0.000 NA
ATOM     40  C   UNL     1      36.399  31.595  37.877  0.00  0.00    +0.000 A 
ATOM     41  N   UNL     1      37.133  30.896  36.973  0.00  0.00    +0.000 NA
ATOM     42  C   UNL     1      38.456  30.750  37.127  0.00  0.00    +0.000 A 
ATOM     43  C   UNL     1      39.141  30.026  36.169  0.00  0.00    +0.000 A 
ATOM     44  C   UNL     1      40.489  29.880  36.331  0.00  0.00    +0.000 A 
ATOM     45  H   UNL     1      41.099  29.331  35.630  0.00  0.00    +0.000 HD
ATOM     46  C   UNL     1      41.149  30.421  37.389  0.00  0.00    +0.000 A 
ATOM     47  H   UNL     1      42.225  30.337  37.571  0.00  0.00    +0.000 HD
ATOM     48  C   UNL     1      40.438  31.138  38.328  0.00  0.00    +0.000 A 
ATOM     49  C   UNL     1      39.064  31.319  38.216  0.00  0.00    +0.000 A 
ENDBRANCH  37  38
ENDBRANCH   9  37
TORSDOF 5
