REMARK  Name = 
REMARK  4 active torsions:
REMARK  status: ('A' for Active; 'I' for Inactive)
REMARK    1  A    between atoms: C_1  and  C_9
REMARK    2  A    between atoms: C_5  and  C_14
REMARK    3  A    between atoms: C_11  and  O_13
REMARK    4  A    between atoms: O_13  and  C_22
REMARK                            x       y       z     vdW  Elec       q    Type
REMARK                         _______ _______ _______ _____ _____    ______ ____
ROOT
ATOM      1  C   UNL     1      37.612  30.344  51.071  0.00  0.00    +0.000 A 
ATOM      2  C   UNL     1      38.058  30.922  49.857  0.00  0.00    +0.000 A 
ATOM      3  C   UNL     1      37.373  30.553  48.691  0.00  0.00    +0.000 A 
ATOM      4  N   UNL     1      36.356  29.691  48.802  0.00  0.00    +0.000 NA
ATOM      5  C   UNL     1      35.944  29.151  49.957  0.00  0.00    +0.000 A 
ATOM      6  N   UNL     1      36.582  29.484  51.102  0.00  0.00    +0.000 NA
ATOM      7  H   UNL     1      38.183  30.669  51.932  0.00  0.00    +0.000 HD
ATOM      8  H   UNL     1      38.884  31.617  49.801  0.00  0.00    +0.000 HD
ENDROOT
BRANCH   3   9
ATOM      9  C   UNL     1      37.731  31.072  47.388  0.00  0.00    +0.000 A 
ATOM     10  C   UNL     1      36.998  30.760  46.268  0.00  0.00    +0.000 A 
ATOM     11  C   UNL     1      37.300  31.227  45.007  0.00  0.00    +0.000 A 
ATOM     12  N   UNL     1      38.376  32.039  44.851  0.00  0.00    +0.000 NA
ATOM     13  C   UNL     1      39.084  32.338  45.947  0.00  0.00    +0.000 A 
ATOM     14  N   UNL     1      38.792  31.884  47.175  0.00  0.00    +0.000 NA
ATOM     15  H   UNL     1      36.132  30.130  46.286  0.00  0.00    +0.000 HD
ATOM     16  H   UNL     1      36.742  30.996  44.120  0.00  0.00    +0.000 HD
BRANCH  13  17
ATOM     17  C   UNL     1      40.263  33.224  45.800  0.00  0.00    +0.000 C 
ATOM     18  F   UNL     1      40.369  33.973  46.984  0.00  0.00    +0.000 F 
ATOM     19  F   UNL     1      41.413  32.512  45.560  0.00  0.00    +0.000 F 
ATOM     20  F   UNL     1      40.089  34.151  44.799  0.00  0.00    +0.000 F 
ENDBRANCH  13  17
ENDBRANCH   3   9
BRANCH   5  21
ATOM     21  O   UNL     1      34.890  28.283  49.913  0.00  0.00    +0.000 OA
BRANCH  21  22
ATOM     22  C   UNL     1      34.276  27.971  48.729  0.00  0.00    +0.000 A 
ATOM     23  N   UNL     1      33.852  26.863  48.143  0.00  0.00    +0.000 NA
ATOM     24  C   UNL     1      33.261  26.781  46.945  0.00  0.00    +0.000 A 
ATOM     25  N   UNL     1      33.038  27.881  46.201  0.00  0.00    +0.000 NA
ATOM     26  C   UNL     1      33.432  29.046  46.710  0.00  0.00    +0.000 A 
ATOM     27  C   UNL     1      33.187  30.148  45.919  0.00  0.00    +0.000 A 
ATOM     28  C   UNL     1      33.561  31.393  46.369  0.00  0.00    +0.000 A 
ATOM     29  H   UNL     1      33.368  32.257  45.747  0.00  0.00    +0.000 HD
ATOM     30  C   UNL     1      34.171  31.527  47.590  0.00  0.00    +0.000 A 
ATOM     31  H   UNL     1      34.486  32.502  47.987  0.00  0.00    +0.000 HD
ATOM     32  C   UNL     1      34.387  30.388  48.330  0.00  0.00    +0.000 A 
ATOM     33  C   UNL     1      34.041  29.102  47.950  0.00  0.00    +0.000 A 
ENDBRANCH  21  22
ENDBRANCH   5  21
TORSDOF 4
