
 OpenBabel03272504293D

 45 49  0  0  0  0  0  0  0  0999 V2000
   38.3780   27.1260   32.1220 C   0  0  0  0  0  0  0  0  0  0  0  0
   39.5650   27.0280   31.4800 C   0  0  0  0  0  0  0  0  0  0  0  0
   40.4500   26.0720   31.7840 C   0  0  0  0  0  0  0  0  0  0  0  0
   40.1320   25.1880   32.7630 N   0  0  0  0  0  0  0  0  0  0  0  0
   38.9700   25.2830   33.3930 C   0  0  0  0  0  0  0  0  0  0  0  0
   38.0820   26.2400   33.0900 N   0  0  0  0  0  0  0  0  0  0  0  0
   39.7840   27.7540   30.7010 H   0  0  0  0  0  0  0  0  0  0  0  0
   41.3960   26.0120   31.2580 H   0  0  0  0  0  0  0  0  0  0  0  0
   37.9840   23.1360   34.0690 C   0  0  0  0  0  0  0  0  0  0  0  0
   38.7360   24.2720   34.3920 C   0  0  0  0  0  0  0  0  0  0  0  0
   39.2660   24.5170   35.6440 C   0  0  0  0  0  0  0  0  0  0  0  0
   39.0500   23.5950   36.6520 C   0  0  0  0  0  0  0  0  0  0  0  0
   38.3190   22.4480   36.4250 C   0  0  0  0  0  0  0  0  0  0  0  0
   37.8390   22.2940   35.1630 C   0  0  0  0  0  0  0  0  0  0  0  0
   39.8430   25.4080   35.8470 H   0  0  0  0  0  0  0  0  0  0  0  0
   39.4650   23.7840   37.6390 H   0  0  0  0  0  0  0  0  0  0  0  0
   38.1290   21.7070   37.1880 H   0  0  0  0  0  0  0  0  0  0  0  0
   37.2580   21.3860   34.9770 H   0  0  0  0  0  0  0  0  0  0  0  0
   37.3510   22.7990   32.5640 S   0  0  0  0  0  0  0  0  0  0  0  0
   36.3370   21.7020   33.0350 O   0  0  0  0  0  0  0  0  0  0  0  0
   38.4400   22.1350   31.7600 O   0  0  0  0  0  0  0  0  0  0  0  0
   36.3720   23.0980   31.3410 C   0  0  0  0  0  0  0  0  0  0  0  0
   36.5240   24.1510   30.4140 F   0  0  0  0  0  0  0  0  0  0  0  0
   35.1330   23.7230   31.8330 F   0  0  0  0  0  0  0  0  0  0  0  0
   35.5360   22.0870   30.7850 F   0  0  0  0  0  0  0  0  0  0  0  0
   36.4700   29.7570   30.4370 C   0  0  0  0  0  0  0  0  0  0  0  0
   35.4520   30.0350   31.3600 C   0  0  0  0  0  0  0  0  0  0  0  0
   35.4410   29.3100   32.5600 C   0  0  0  0  0  0  0  0  0  0  0  0
   36.4330   28.4030   32.7000 N   0  0  0  0  0  0  0  0  0  0  0  0
   37.3970   28.1490   31.8120 C   0  0  0  0  0  0  0  0  0  0  0  0
   37.4080   28.8370   30.6710 N   0  0  0  0  0  0  0  0  0  0  0  0
   36.4810   30.3190   29.5030 H   0  0  0  0  0  0  0  0  0  0  0  0
   34.7250   30.7740   31.1360 H   0  0  0  0  0  0  0  0  0  0  0  0
   34.3660   29.6440   33.4690 C   0  0  0  0  0  0  0  0  0  0  0  0
   33.1250   29.1880   33.2470 N   0  0  0  0  0  0  0  0  0  0  0  0
   32.0630   29.4340   34.0190 C   0  0  0  0  0  3  0  0  0  0  0  0
   32.1590   30.1790   35.1110 N   0  0  0  0  0  0  0  0  0  0  0  0
   33.3580   30.6850   35.4260 C   0  0  0  0  0  0  0  0  0  0  0  0
   33.5030   31.4660   36.5540 C   0  0  0  0  0  3  0  0  0  0  0  0
   34.7340   32.0060   36.9080 C   0  0  0  0  0  0  0  0  0  0  0  0
   34.8150   32.6140   37.7980 H   0  0  0  0  0  0  0  0  0  0  0  0
   35.8200   31.7240   36.0720 C   0  0  0  0  0  0  0  0  0  0  0  0
   36.7760   32.1510   36.3600 H   0  0  0  0  0  0  0  0  0  0  0  0
   35.6170   30.9460   34.9700 C   0  0  0  0  0  3  0  0  0  0  0  0
   34.4220   30.4040   34.6000 C   0  0  0  0  0  0  0  0  0  0  0  0
  1  6  1  0  0  0  0
  2  3  1  0  0  0  0
  2  1  2  0  0  0  0
  3  4  2  0  0  0  0
  4  5  1  0  0  0  0
  5 10  1  0  0  0  0
  6  5  2  0  0  0  0
  7  2  1  0  0  0  0
  8  3  1  0  0  0  0
  9 10  2  0  0  0  0
  9 14  1  0  0  0  0
 10 11  1  0  0  0  0
 11 15  1  0  0  0  0
 11 12  2  0  0  0  0
 12 16  1  0  0  0  0
 13 12  1  0  0  0  0
 13 17  1  0  0  0  0
 14 13  2  0  0  0  0
 18 14  1  0  0  0  0
 19 20  2  0  0  0  0
 19  9  1  0  0  0  0
 21 19  2  0  0  0  0
 22 24  1  0  0  0  0
 22 19  1  0  0  0  0
 23 22  1  0  0  0  0
 25 22  1  0  0  0  0
 26 31  2  0  0  0  0
 26 27  1  0  0  0  0
 27 28  2  0  0  0  0
 28 29  1  0  0  0  0
 28 34  1  0  0  0  0
 30  1  1  0  0  0  0
 30 29  2  0  0  0  0
 31 30  1  0  0  0  0
 32 26  1  0  0  0  0
 33 27  1  0  0  0  0
 34 45  1  0  0  0  0
 35 34  2  0  0  0  0
 35 36  1  0  0  0  0
 36 37  2  0  0  0  0
 37 38  1  0  0  0  0
 38 39  1  0  0  0  0
 39 40  2  0  0  0  0
 40 41  1  0  0  0  0
 42 43  1  0  0  0  0
 42 40  1  0  0  0  0
 44 42  2  0  0  0  0
 45 44  1  0  0  0  0
 45 38  2  0  0  0  0
M  END
>  <minimizedAffinity>
-7.48036146

$$$$

 OpenBabel03272504293D

 45 49  0  0  0  0  0  0  0  0999 V2000
   36.3750   27.9480   33.5200 C   0  0  0  0  0  0  0  0  0  0  0  0
   36.2490   28.3870   32.2450 C   0  0  0  0  0  0  0  0  0  0  0  0
   35.6530   29.5490   31.9600 C   0  0  0  0  0  0  0  0  0  0  0  0
   35.1680   30.2940   32.9860 N   0  0  0  0  0  0  0  0  0  0  0  0
   35.2900   29.8660   34.2330 C   0  0  0  0  0  0  0  0  0  0  0  0
   35.8870   28.7010   34.5220 N   0  0  0  0  0  0  0  0  0  0  0  0
   36.6500   27.7630   31.4510 H   0  0  0  0  0  0  0  0  0  0  0  0
   35.5630   29.8820   30.9320 H   0  0  0  0  0  0  0  0  0  0  0  0
   33.4060   30.6890   35.5790 C   0  0  0  0  0  0  0  0  0  0  0  0
   34.7620   30.7550   35.2350 C   0  0  0  0  0  0  0  0  0  0  0  0
   35.6550   31.6560   35.7850 C   0  0  0  0  0  0  0  0  0  0  0  0
   35.1980   32.5540   36.7310 C   0  0  0  0  0  0  0  0  0  0  0  0
   33.8780   32.5630   37.1290 C   0  0  0  0  0  0  0  0  0  0  0  0
   33.0760   31.6410   36.5340 C   0  0  0  0  0  0  0  0  0  0  0  0
   36.6940   31.6690   35.4900 H   0  0  0  0  0  0  0  0  0  0  0  0
   35.8980   33.2640   37.1660 H   0  0  0  0  0  0  0  0  0  0  0  0
   33.4860   33.2510   37.8640 H   0  0  0  0  0  0  0  0  0  0  0  0
   32.0280   31.6430   36.8450 H   0  0  0  0  0  0  0  0  0  0  0  0
   32.3080   29.6010   34.9530 S   0  0  0  0  0  0  0  0  0  0  0  0
   31.0350   30.4870   35.1640 O   0  0  0  0  0  0  0  0  0  0  0  0
   32.2460   28.4340   35.9040 O   0  0  0  0  0  0  0  0  0  0  0  0
   31.5490   28.8960   33.7420 C   0  0  0  0  0  0  0  0  0  0  0  0
   31.0570   27.5740   33.7480 F   0  0  0  0  0  0  0  0  0  0  0  0
   32.5140   28.5230   32.6940 F   0  0  0  0  0  0  0  0  0  0  0  0
   30.8830   29.6500   32.7330 F   0  0  0  0  0  0  0  0  0  0  0  0
   38.0170   25.2330   35.3460 C   0  0  0  0  0  0  0  0  0  0  0  0
   38.1960   24.2620   34.3520 C   0  0  0  0  0  0  0  0  0  0  0  0
   37.7500   24.5590   33.0570 C   0  0  0  0  0  0  0  0  0  0  0  0
   37.1830   25.7760   32.9040 N   0  0  0  0  0  0  0  0  0  0  0  0
   37.0190   26.6940   33.8600 C   0  0  0  0  0  0  0  0  0  0  0  0
   37.4430   26.4110   35.0920 N   0  0  0  0  0  0  0  0  0  0  0  0
   38.3630   25.0050   36.3540 H   0  0  0  0  0  0  0  0  0  0  0  0
   38.6570   23.3370   34.5960 H   0  0  0  0  0  0  0  0  0  0  0  0
   37.9630   23.5150   32.0780 C   0  0  0  0  0  0  0  0  0  0  0  0
   39.0530   23.5310   31.2980 N   0  0  0  0  0  0  0  0  0  0  0  0
   39.3470   22.6210   30.3650 C   0  0  0  0  0  3  0  0  0  0  0  0
   38.5520   21.5880   30.1310 N   0  0  0  0  0  0  0  0  0  0  0  0
   37.4330   21.4760   30.8590 C   0  0  0  0  0  0  0  0  0  0  0  0
   36.5750   20.4160   30.6480 C   0  0  0  0  0  3  0  0  0  0  0  0
   35.4060   20.2710   31.3860 C   0  0  0  0  0  0  0  0  0  0  0  0
   34.7550   19.4290   31.1970 H   0  0  0  0  0  0  0  0  0  0  0  0
   35.1360   21.2470   32.3520 C   0  0  0  0  0  0  0  0  0  0  0  0
   34.2200   21.1210   32.9220 H   0  0  0  0  0  0  0  0  0  0  0  0
   36.0200   22.2720   32.5170 C   0  0  0  0  0  3  0  0  0  0  0  0
   37.1730   22.4380   31.8070 C   0  0  0  0  0  0  0  0  0  0  0  0
  1 30  1  0  0  0  0
  1  6  1  0  0  0  0
  2  1  2  0  0  0  0
  3  2  1  0  0  0  0
  3  4  2  0  0  0  0
  4  5  1  0  0  0  0
  5  6  2  0  0  0  0
  5 10  1  0  0  0  0
  7  2  1  0  0  0  0
  8  3  1  0  0  0  0
  9 14  1  0  0  0  0
 10  9  2  0  0  0  0
 10 11  1  0  0  0  0
 11 12  2  0  0  0  0
 12 13  1  0  0  0  0
 12 16  1  0  0  0  0
 13 17  1  0  0  0  0
 14 18  1  0  0  0  0
 14 13  2  0  0  0  0
 15 11  1  0  0  0  0
 19 20  2  0  0  0  0
 19  9  1  0  0  0  0
 19 21  2  0  0  0  0
 22 23  1  0  0  0  0
 22 19  1  0  0  0  0
 24 22  1  0  0  0  0
 25 22  1  0  0  0  0
 26 32  1  0  0  0  0
 27 33  1  0  0  0  0
 27 26  2  0  0  0  0
 28 27  1  0  0  0  0
 29 28  2  0  0  0  0
 29 30  1  0  0  0  0
 30 31  2  0  0  0  0
 31 26  1  0  0  0  0
 34 28  1  0  0  0  0
 35 34  2  0  0  0  0
 36 35  1  0  0  0  0
 37 36  2  0  0  0  0
 37 38  1  0  0  0  0
 38 45  1  0  0  0  0
 39 38  2  0  0  0  0
 39 40  1  0  0  0  0
 40 42  2  0  0  0  0
 41 40  1  0  0  0  0
 42 44  1  0  0  0  0
 42 43  1  0  0  0  0
 45 34  1  0  0  0  0
 45 44  2  0  0  0  0
M  END
>  <minimizedAffinity>
-7.38167191

$$$$

 OpenBabel03272504293D

 45 49  0  0  0  0  0  0  0  0999 V2000
   35.9780   28.2760   32.4310 C   0  0  0  0  0  0  0  0  0  0  0  0
   35.9990   29.0610   31.3280 C   0  0  0  0  0  0  0  0  0  0  0  0
   35.6750   30.3580   31.3850 C   0  0  0  0  0  0  0  0  0  0  0  0
   35.3200   30.8810   32.5850 N   0  0  0  0  0  0  0  0  0  0  0  0
   35.2990   30.1140   33.6650 C   0  0  0  0  0  0  0  0  0  0  0  0
   35.6230   28.8140   33.6110 N   0  0  0  0  0  0  0  0  0  0  0  0
   36.2900   28.6060   30.3850 H   0  0  0  0  0  0  0  0  0  0  0  0
   35.6980   30.9690   30.4900 H   0  0  0  0  0  0  0  0  0  0  0  0
   33.6430   30.6300   35.4060 C   0  0  0  0  0  0  0  0  0  0  0  0
   34.9330   30.7890   34.8840 C   0  0  0  0  0  0  0  0  0  0  0  0
   35.9030   31.5910   35.4530 C   0  0  0  0  0  0  0  0  0  0  0  0
   35.6000   32.2870   36.6090 C   0  0  0  0  0  0  0  0  0  0  0  0
   34.3550   32.1920   37.1930 C   0  0  0  0  0  0  0  0  0  0  0  0
   33.4670   31.3800   36.5620 C   0  0  0  0  0  0  0  0  0  0  0  0
   36.8870   31.6820   35.0150 H   0  0  0  0  0  0  0  0  0  0  0  0
   36.3610   32.9190   37.0590 H   0  0  0  0  0  0  0  0  0  0  0  0
   34.0820   32.7220   38.0940 H   0  0  0  0  0  0  0  0  0  0  0  0
   32.4770   31.3010   37.0200 H   0  0  0  0  0  0  0  0  0  0  0  0
   32.4570   29.6540   34.7580 S   0  0  0  0  0  0  0  0  0  0  0  0
   31.2770   30.6700   34.9190 O   0  0  0  0  0  0  0  0  0  0  0  0
   32.2450   28.5130   35.7190 O   0  0  0  0  0  0  0  0  0  0  0  0
   31.6650   29.0150   33.5310 C   0  0  0  0  0  0  0  0  0  0  0  0
   31.1780   27.6920   33.4750 F   0  0  0  0  0  0  0  0  0  0  0  0
   32.6000   28.7070   32.4360 F   0  0  0  0  0  0  0  0  0  0  0  0
   30.9680   29.8230   32.5860 F   0  0  0  0  0  0  0  0  0  0  0  0
   36.0520   24.6980   31.6590 C   0  0  0  0  0  0  0  0  0  0  0  0
   37.1290   24.2420   32.4330 C   0  0  0  0  0  0  0  0  0  0  0  0
   37.8160   25.1780   33.2180 C   0  0  0  0  0  0  0  0  0  0  0  0
   37.3560   26.4460   33.1420 N   0  0  0  0  0  0  0  0  0  0  0  0
   36.3270   26.8680   32.4010 C   0  0  0  0  0  0  0  0  0  0  0  0
   35.6750   25.9780   31.6550 N   0  0  0  0  0  0  0  0  0  0  0  0
   35.5170   23.9710   31.0480 H   0  0  0  0  0  0  0  0  0  0  0  0
   37.3970   23.2150   32.4080 H   0  0  0  0  0  0  0  0  0  0  0  0
   38.9160   24.6440   33.9910 C   0  0  0  0  0  0  0  0  0  0  0  0
   40.1320   24.5200   33.4410 N   0  0  0  0  0  0  0  0  0  0  0  0
   41.2140   24.0410   34.0630 C   0  0  0  0  0  3  0  0  0  0  0  0
   41.1650   23.6350   35.3220 N   0  0  0  0  0  0  0  0  0  0  0  0
   39.9930   23.7160   35.9670 C   0  0  0  0  0  0  0  0  0  0  0  0
   39.8970   23.3040   37.2800 C   0  0  0  0  0  3  0  0  0  0  0  0
   38.6960   23.3750   37.9760 C   0  0  0  0  0  0  0  0  0  0  0  0
   38.6540   23.0440   39.0040 H   0  0  0  0  0  0  0  0  0  0  0  0
   37.5890   23.8830   37.2880 C   0  0  0  0  0  0  0  0  0  0  0  0
   36.6560   23.9340   37.8440 H   0  0  0  0  0  0  0  0  0  0  0  0
   37.7420   24.2750   35.9910 C   0  0  0  0  0  3  0  0  0  0  0  0
   38.9080   24.2160   35.2850 C   0  0  0  0  0  0  0  0  0  0  0  0
  1  6  1  0  0  0  0
  2  3  1  0  0  0  0
  2  1  2  0  0  0  0
  3  4  2  0  0  0  0
  4  5  1  0  0  0  0
  5 10  1  0  0  0  0
  6  5  2  0  0  0  0
  7  2  1  0  0  0  0
  8  3  1  0  0  0  0
  9 14  1  0  0  0  0
 10  9  2  0  0  0  0
 10 11  1  0  0  0  0
 11 12  2  0  0  0  0
 12 16  1  0  0  0  0
 12 13  1  0  0  0  0
 13 17  1  0  0  0  0
 14 18  1  0  0  0  0
 14 13  2  0  0  0  0
 15 11  1  0  0  0  0
 19 20  2  0  0  0  0
 19  9  1  0  0  0  0
 19 21  2  0  0  0  0
 22 19  1  0  0  0  0
 23 22  1  0  0  0  0
 24 22  1  0  0  0  0
 25 22  1  0  0  0  0
 26 27  1  0  0  0  0
 27 28  2  0  0  0  0
 28 34  1  0  0  0  0
 29 28  1  0  0  0  0
 30  1  1  0  0  0  0
 30 29  2  0  0  0  0
 31 26  2  0  0  0  0
 31 30  1  0  0  0  0
 32 26  1  0  0  0  0
 33 27  1  0  0  0  0
 34 45  1  0  0  0  0
 35 34  2  0  0  0  0
 35 36  1  0  0  0  0
 36 37  2  0  0  0  0
 37 38  1  0  0  0  0
 38 39  1  0  0  0  0
 39 40  2  0  0  0  0
 40 41  1  0  0  0  0
 42 43  1  0  0  0  0
 42 40  1  0  0  0  0
 44 42  2  0  0  0  0
 45 38  2  0  0  0  0
 45 44  1  0  0  0  0
M  END
>  <minimizedAffinity>
-7.38150263

$$$$

 OpenBabel03272504293D

 45 49  0  0  0  0  0  0  0  0999 V2000
   36.8380   26.0080   31.7480 C   0  0  0  0  0  0  0  0  0  0  0  0
   36.7580   25.1100   30.7380 C   0  0  0  0  0  0  0  0  0  0  0  0
   37.2020   23.8560   30.8790 C   0  0  0  0  0  0  0  0  0  0  0  0
   37.7420   23.4930   32.0700 N   0  0  0  0  0  0  0  0  0  0  0  0
   37.8200   24.3710   33.0590 C   0  0  0  0  0  0  0  0  0  0  0  0
   37.3770   25.6280   32.9210 N   0  0  0  0  0  0  0  0  0  0  0  0
   36.3190   25.4380   29.7990 H   0  0  0  0  0  0  0  0  0  0  0  0
   37.1290   23.1530   30.0570 H   0  0  0  0  0  0  0  0  0  0  0  0
   39.4080   24.5700   34.9240 C   0  0  0  0  0  0  0  0  0  0  0  0
   38.3870   23.8600   34.2810 C   0  0  0  0  0  0  0  0  0  0  0  0
   37.8830   22.6550   34.7300 C   0  0  0  0  0  0  0  0  0  0  0  0
   38.4080   22.1010   35.8830 C   0  0  0  0  0  0  0  0  0  0  0  0
   39.4170   22.7290   36.5810 C   0  0  0  0  0  0  0  0  0  0  0  0
   39.8470   23.9100   36.0630 C   0  0  0  0  0  0  0  0  0  0  0  0
   37.0920   22.1430   34.2010 H   0  0  0  0  0  0  0  0  0  0  0  0
   38.0140   21.1520   36.2400 H   0  0  0  0  0  0  0  0  0  0  0  0
   39.8520   22.3260   37.4840 H   0  0  0  0  0  0  0  0  0  0  0  0
   40.6480   24.4130   36.6130 H   0  0  0  0  0  0  0  0  0  0  0  0
   40.0220   26.0370   34.4220 S   0  0  0  0  0  0  0  0  0  0  0  0
   41.4960   25.7840   34.8830 O   0  0  0  0  0  0  0  0  0  0  0  0
   39.4170   27.0990   35.3040 O   0  0  0  0  0  0  0  0  0  0  0  0
   40.5980   27.0230   33.3100 C   0  0  0  0  0  0  0  0  0  0  0  0
   39.8510   27.5860   32.2530 F   0  0  0  0  0  0  0  0  0  0  0  0
   41.3940   26.2650   32.3310 F   0  0  0  0  0  0  0  0  0  0  0  0
   41.7740   27.7980   33.5310 F   0  0  0  0  0  0  0  0  0  0  0  0
   36.2560   29.4260   30.5740 C   0  0  0  0  0  0  0  0  0  0  0  0
   35.3500   29.9240   31.5210 C   0  0  0  0  0  0  0  0  0  0  0  0
   34.9520   29.0700   32.5590 C   0  0  0  0  0  0  0  0  0  0  0  0
   35.4980   27.8350   32.5350 N   0  0  0  0  0  0  0  0  0  0  0  0
   36.3620   27.3730   31.6270 C   0  0  0  0  0  0  0  0  0  0  0  0
   36.7390   28.1840   30.6390 N   0  0  0  0  0  0  0  0  0  0  0  0
   36.5660   30.0880   29.7650 H   0  0  0  0  0  0  0  0  0  0  0  0
   34.9880   30.9180   31.4320 H   0  0  0  0  0  0  0  0  0  0  0  0
   34.0160   29.6430   33.5020 C   0  0  0  0  0  0  0  0  0  0  0  0
   32.6990   29.4330   33.3610 N   0  0  0  0  0  0  0  0  0  0  0  0
   31.7510   29.9130   34.1700 C   0  0  0  0  0  3  0  0  0  0  0  0
   32.0510   30.6640   35.2190 N   0  0  0  0  0  0  0  0  0  0  0  0
   33.3420   30.9350   35.4520 C   0  0  0  0  0  0  0  0  0  0  0  0
   33.7000   31.7140   36.5330 C   0  0  0  0  0  3  0  0  0  0  0  0
   35.0310   32.0130   36.8020 C   0  0  0  0  0  0  0  0  0  0  0  0
   35.2790   32.6260   37.6580 H   0  0  0  0  0  0  0  0  0  0  0  0
   35.9920   31.4910   35.9300 C   0  0  0  0  0  0  0  0  0  0  0  0
   37.0280   31.7320   36.1510 H   0  0  0  0  0  0  0  0  0  0  0  0
   35.5800   30.7280   34.8770 C   0  0  0  0  0  3  0  0  0  0  0  0
   34.2830   30.4190   34.5910 C   0  0  0  0  0  0  0  0  0  0  0  0
  1  6  1  0  0  0  0
  2  3  1  0  0  0  0
  2  1  2  0  0  0  0
  3  4  2  0  0  0  0
  4  5  1  0  0  0  0
  5 10  1  0  0  0  0
  6  5  2  0  0  0  0
  7  2  1  0  0  0  0
  8  3  1  0  0  0  0
  9 14  1  0  0  0  0
 10 11  1  0  0  0  0
 10  9  2  0  0  0  0
 11 12  2  0  0  0  0
 12 16  1  0  0  0  0
 12 13  1  0  0  0  0
 13 17  1  0  0  0  0
 14 13  2  0  0  0  0
 14 18  1  0  0  0  0
 15 11  1  0  0  0  0
 19 20  2  0  0  0  0
 19  9  1  0  0  0  0
 19 21  2  0  0  0  0
 22 25  1  0  0  0  0
 22 19  1  0  0  0  0
 23 22  1  0  0  0  0
 24 22  1  0  0  0  0
 26 31  2  0  0  0  0
 26 27  1  0  0  0  0
 27 28  2  0  0  0  0
 28 34  1  0  0  0  0
 29 28  1  0  0  0  0
 30  1  1  0  0  0  0
 30 29  2  0  0  0  0
 31 30  1  0  0  0  0
 32 26  1  0  0  0  0
 33 27  1  0  0  0  0
 34 45  1  0  0  0  0
 35 34  2  0  0  0  0
 35 36  1  0  0  0  0
 36 37  2  0  0  0  0
 37 38  1  0  0  0  0
 38 39  1  0  0  0  0
 39 40  2  0  0  0  0
 40 41  1  0  0  0  0
 42 43  1  0  0  0  0
 42 40  1  0  0  0  0
 44 42  2  0  0  0  0
 45 44  1  0  0  0  0
 45 38  2  0  0  0  0
M  END
>  <minimizedAffinity>
-7.34160089

$$$$

 OpenBabel03272504293D

 45 49  0  0  0  0  0  0  0  0999 V2000
   38.1220   27.4390   31.5110 C   0  0  0  0  0  0  0  0  0  0  0  0
   39.3970   27.5230   31.0640 C   0  0  0  0  0  0  0  0  0  0  0  0
   40.2450   26.4940   31.1660 C   0  0  0  0  0  0  0  0  0  0  0  0
   39.7990   25.3460   31.7340 N   0  0  0  0  0  0  0  0  0  0  0  0
   38.5510   25.2620   32.1730 C   0  0  0  0  0  0  0  0  0  0  0  0
   37.7000   26.2920   32.0710 N   0  0  0  0  0  0  0  0  0  0  0  0
   39.7180   28.4590   30.6140 H   0  0  0  0  0  0  0  0  0  0  0  0
   41.2620   26.5820   30.8020 H   0  0  0  0  0  0  0  0  0  0  0  0
   38.1300   23.8230   34.1210 C   0  0  0  0  0  0  0  0  0  0  0  0
   38.1880   23.9850   32.7300 C   0  0  0  0  0  0  0  0  0  0  0  0
   37.9390   22.9710   31.8250 C   0  0  0  0  0  0  0  0  0  0  0  0
   37.6130   21.7150   32.3020 C   0  0  0  0  0  0  0  0  0  0  0  0
   37.5350   21.4640   33.6560 C   0  0  0  0  0  0  0  0  0  0  0  0
   37.7950   22.5220   34.4680 C   0  0  0  0  0  0  0  0  0  0  0  0
   37.9940   23.1420   30.7590 H   0  0  0  0  0  0  0  0  0  0  0  0
   37.4170   20.9150   31.5930 H   0  0  0  0  0  0  0  0  0  0  0  0
   37.2850   20.4960   34.0650 H   0  0  0  0  0  0  0  0  0  0  0  0
   37.7350   22.3290   35.5430 H   0  0  0  0  0  0  0  0  0  0  0  0
   38.4010   25.0300   35.2390 S   0  0  0  0  0  0  0  0  0  0  0  0
   39.9510   24.8330   35.3460 O   0  0  0  0  0  0  0  0  0  0  0  0
   37.7700   24.5870   36.5340 O   0  0  0  0  0  0  0  0  0  0  0  0
   38.6230   26.5540   35.6510 C   0  0  0  0  0  0  0  0  0  0  0  0
   38.3630   27.1000   36.9260 F   0  0  0  0  0  0  0  0  0  0  0  0
   37.5490   27.3870   35.0850 F   0  0  0  0  0  0  0  0  0  0  0  0
   39.5270   27.3980   34.9440 F   0  0  0  0  0  0  0  0  0  0  0  0
   36.2840   30.3870   30.3570 C   0  0  0  0  0  0  0  0  0  0  0  0
   35.3070   30.5450   31.3500 C   0  0  0  0  0  0  0  0  0  0  0  0
   35.2980   29.6310   32.4130 C   0  0  0  0  0  0  0  0  0  0  0  0
   36.2530   28.6760   32.3630 N   0  0  0  0  0  0  0  0  0  0  0  0
   37.1790   28.5360   31.4110 C   0  0  0  0  0  0  0  0  0  0  0  0
   37.1870   29.4050   30.4010 N   0  0  0  0  0  0  0  0  0  0  0  0
   36.2920   31.0970   29.5300 H   0  0  0  0  0  0  0  0  0  0  0  0
   34.6060   31.3390   31.2780 H   0  0  0  0  0  0  0  0  0  0  0  0
   34.2660   29.8480   33.4030 C   0  0  0  0  0  0  0  0  0  0  0  0
   33.0370   29.3440   33.2220 N   0  0  0  0  0  0  0  0  0  0  0  0
   32.0140   29.4850   34.0700 C   0  0  0  0  0  3  0  0  0  0  0  0
   32.1410   30.1610   35.2020 N   0  0  0  0  0  0  0  0  0  0  0  0
   33.3310   30.7070   35.4810 C   0  0  0  0  0  0  0  0  0  0  0  0
   33.5080   31.4190   36.6490 C   0  0  0  0  0  3  0  0  0  0  0  0
   34.7310   31.9980   36.9670 C   0  0  0  0  0  0  0  0  0  0  0  0
   34.8370   32.5500   37.8900 H   0  0  0  0  0  0  0  0  0  0  0  0
   35.7760   31.8270   36.0520 C   0  0  0  0  0  0  0  0  0  0  0  0
   36.7260   32.2840   36.3130 H   0  0  0  0  0  0  0  0  0  0  0  0
   35.5440   31.1130   34.9140 C   0  0  0  0  0  3  0  0  0  0  0  0
   34.3550   30.5350   34.5770 C   0  0  0  0  0  0  0  0  0  0  0  0
  1  6  1  0  0  0  0
  2  3  1  0  0  0  0
  2  1  2  0  0  0  0
  3  4  2  0  0  0  0
  4  5  1  0  0  0  0
  5 10  1  0  0  0  0
  6  5  2  0  0  0  0
  7  2  1  0  0  0  0
  8  3  1  0  0  0  0
  9 14  1  0  0  0  0
  9 19  1  0  0  0  0
 10  9  2  0  0  0  0
 11 12  2  0  0  0  0
 11 10  1  0  0  0  0
 12 13  1  0  0  0  0
 13 17  1  0  0  0  0
 13 14  2  0  0  0  0
 14 18  1  0  0  0  0
 15 11  1  0  0  0  0
 16 12  1  0  0  0  0
 19 20  2  0  0  0  0
 19 22  1  0  0  0  0
 19 21  2  0  0  0  0
 22 23  1  0  0  0  0
 24 22  1  0  0  0  0
 25 22  1  0  0  0  0
 26 31  2  0  0  0  0
 26 27  1  0  0  0  0
 27 28  2  0  0  0  0
 28 34  1  0  0  0  0
 29 28  1  0  0  0  0
 30  1  1  0  0  0  0
 30 29  2  0  0  0  0
 31 30  1  0  0  0  0
 32 26  1  0  0  0  0
 33 27  1  0  0  0  0
 34 45  1  0  0  0  0
 35 34  2  0  0  0  0
 35 36  1  0  0  0  0
 36 37  2  0  0  0  0
 37 38  1  0  0  0  0
 38 39  1  0  0  0  0
 39 40  2  0  0  0  0
 40 41  1  0  0  0  0
 42 43  1  0  0  0  0
 42 40  1  0  0  0  0
 44 42  2  0  0  0  0
 45 44  1  0  0  0  0
 45 38  2  0  0  0  0
M  END
>  <minimizedAffinity>
-7.2965126

$$$$

 OpenBabel03272504293D

 45 49  0  0  0  0  0  0  0  0999 V2000
   37.7770   25.6380   32.5350 C   0  0  0  0  0  0  0  0  0  0  0  0
   37.0470   24.5330   32.2560 C   0  0  0  0  0  0  0  0  0  0  0  0
   37.4760   23.3080   32.5810 C   0  0  0  0  0  0  0  0  0  0  0  0
   38.6750   23.1910   33.2040 N   0  0  0  0  0  0  0  0  0  0  0  0
   39.3920   24.2710   33.4780 C   0  0  0  0  0  0  0  0  0  0  0  0
   38.9640   25.4990   33.1530 N   0  0  0  0  0  0  0  0  0  0  0  0
   36.0910   24.6670   31.7560 H   0  0  0  0  0  0  0  0  0  0  0  0
   36.8760   22.4370   32.3480 H   0  0  0  0  0  0  0  0  0  0  0  0
   40.6150   23.5930   35.4990 C   0  0  0  0  0  0  0  0  0  0  0  0
   40.6320   24.0200   34.1650 C   0  0  0  0  0  0  0  0  0  0  0  0
   41.7880   24.2510   33.4440 C   0  0  0  0  0  0  0  0  0  0  0  0
   43.0100   24.0550   34.0600 C   0  0  0  0  0  0  0  0  0  0  0  0
   43.0880   23.6370   35.3720 C   0  0  0  0  0  0  0  0  0  0  0  0
   41.9000   23.4350   35.9990 C   0  0  0  0  0  0  0  0  0  0  0  0
   41.7530   24.5790   32.4150 H   0  0  0  0  0  0  0  0  0  0  0  0
   43.9210   24.2360   33.4960 H   0  0  0  0  0  0  0  0  0  0  0  0
   44.0240   23.4740   35.8860 H   0  0  0  0  0  0  0  0  0  0  0  0
   41.9560   23.1030   37.0400 H   0  0  0  0  0  0  0  0  0  0  0  0
   39.2400   23.2830   36.3900 S   0  0  0  0  0  0  0  0  0  0  0  0
   39.9420   23.2150   37.7880 O   0  0  0  0  0  0  0  0  0  0  0  0
   38.7710   21.8990   36.0190 O   0  0  0  0  0  0  0  0  0  0  0  0
   37.9100   23.7360   37.1430 C   0  0  0  0  0  0  0  0  0  0  0  0
   37.0550   24.7790   36.7300 F   0  0  0  0  0  0  0  0  0  0  0  0
   38.2540   24.5080   38.3480 F   0  0  0  0  0  0  0  0  0  0  0  0
   37.2060   22.8570   38.0160 F   0  0  0  0  0  0  0  0  0  0  0  0
   37.4620   28.9380   30.9820 C   0  0  0  0  0  0  0  0  0  0  0  0
   36.3660   29.4900   31.6590 C   0  0  0  0  0  0  0  0  0  0  0  0
   35.7490   28.7140   32.6510 C   0  0  0  0  0  0  0  0  0  0  0  0
   36.2910   27.4920   32.8510 N   0  0  0  0  0  0  0  0  0  0  0  0
   37.3370   26.9780   32.1990 C   0  0  0  0  0  0  0  0  0  0  0  0
   37.9220   27.7150   31.2560 N   0  0  0  0  0  0  0  0  0  0  0  0
   37.9420   29.5390   30.2100 H   0  0  0  0  0  0  0  0  0  0  0  0
   36.0300   30.4660   31.4110 H   0  0  0  0  0  0  0  0  0  0  0  0
   34.6250   29.3410   33.3110 C   0  0  0  0  0  0  0  0  0  0  0  0
   33.3750   29.1140   32.8820 N   0  0  0  0  0  0  0  0  0  0  0  0
   32.2690   29.6390   33.4170 C   0  0  0  0  0  3  0  0  0  0  0  0
   32.3240   30.4580   34.4560 N   0  0  0  0  0  0  0  0  0  0  0  0
   33.5280   30.7510   34.9650 C   0  0  0  0  0  0  0  0  0  0  0  0
   33.6320   31.6000   36.0470 C   0  0  0  0  0  3  0  0  0  0  0  0
   34.8660   31.9250   36.5980 C   0  0  0  0  0  0  0  0  0  0  0  0
   34.9140   32.5930   37.4470 H   0  0  0  0  0  0  0  0  0  0  0  0
   35.9990   31.3530   36.0080 C   0  0  0  0  0  0  0  0  0  0  0  0
   36.9570   31.6150   36.4490 H   0  0  0  0  0  0  0  0  0  0  0  0
   35.8360   30.5210   34.9400 C   0  0  0  0  0  3  0  0  0  0  0  0
   34.6380   30.1870   34.3800 C   0  0  0  0  0  0  0  0  0  0  0  0
  1  6  1  0  0  0  0
  2  1  2  0  0  0  0
  2  3  1  0  0  0  0
  3  4  2  0  0  0  0
  4  5  1  0  0  0  0
  5 10  1  0  0  0  0
  6  5  2  0  0  0  0
  7  2  1  0  0  0  0
  8  3  1  0  0  0  0
  9 14  1  0  0  0  0
  9 19  1  0  0  0  0
 10  9  2  0  0  0  0
 11 12  2  0  0  0  0
 11 10  1  0  0  0  0
 12 13  1  0  0  0  0
 13 17  1  0  0  0  0
 13 14  2  0  0  0  0
 14 18  1  0  0  0  0
 15 11  1  0  0  0  0
 16 12  1  0  0  0  0
 19 22  1  0  0  0  0
 19 20  2  0  0  0  0
 21 19  2  0  0  0  0
 22 25  1  0  0  0  0
 22 24  1  0  0  0  0
 23 22  1  0  0  0  0
 26 31  2  0  0  0  0
 26 27  1  0  0  0  0
 27 28  2  0  0  0  0
 28 29  1  0  0  0  0
 28 34  1  0  0  0  0
 30  1  1  0  0  0  0
 30 29  2  0  0  0  0
 31 30  1  0  0  0  0
 32 26  1  0  0  0  0
 33 27  1  0  0  0  0
 34 45  1  0  0  0  0
 35 34  2  0  0  0  0
 35 36  1  0  0  0  0
 36 37  2  0  0  0  0
 37 38  1  0  0  0  0
 38 39  1  0  0  0  0
 39 40  2  0  0  0  0
 40 41  1  0  0  0  0
 42 43  1  0  0  0  0
 42 40  1  0  0  0  0
 44 42  2  0  0  0  0
 45 44  1  0  0  0  0
 45 38  2  0  0  0  0
M  END
>  <minimizedAffinity>
-7.24646425

$$$$

 OpenBabel03272504293D

 45 49  0  0  0  0  0  0  0  0999 V2000
   36.0050   28.8810   32.3900 C   0  0  0  0  0  0  0  0  0  0  0  0
   35.6300   29.6470   31.3380 C   0  0  0  0  0  0  0  0  0  0  0  0
   34.6270   30.5260   31.4330 C   0  0  0  0  0  0  0  0  0  0  0  0
   33.9810   30.6400   32.6200 N   0  0  0  0  0  0  0  0  0  0  0  0
   34.3460   29.8920   33.6510 C   0  0  0  0  0  0  0  0  0  0  0  0
   35.3500   29.0100   33.5580 N   0  0  0  0  0  0  0  0  0  0  0  0
   36.1720   29.5270   30.4030 H   0  0  0  0  0  0  0  0  0  0  0  0
   34.3430   31.1290   30.5780 H   0  0  0  0  0  0  0  0  0  0  0  0
   34.0010   31.1400   35.7400 C   0  0  0  0  0  0  0  0  0  0  0  0
   33.6030   30.1230   34.8630 C   0  0  0  0  0  0  0  0  0  0  0  0
   32.5330   29.2800   35.0940 C   0  0  0  0  0  0  0  0  0  0  0  0
   31.8000   29.4360   36.2560 C   0  0  0  0  0  0  0  0  0  0  0  0
   32.1210   30.4100   37.1770 C   0  0  0  0  0  0  0  0  0  0  0  0
   33.1880   31.1910   36.8640 C   0  0  0  0  0  0  0  0  0  0  0  0
   32.2610   28.5090   34.3880 H   0  0  0  0  0  0  0  0  0  0  0  0
   30.9570   28.7750   36.4410 H   0  0  0  0  0  0  0  0  0  0  0  0
   31.5720   30.5600   38.0960 H   0  0  0  0  0  0  0  0  0  0  0  0
   33.4480   31.9650   37.5910 H   0  0  0  0  0  0  0  0  0  0  0  0
   35.2720   32.1880   35.4810 S   0  0  0  0  0  0  0  0  0  0  0  0
   36.4010   31.2340   35.9970 O   0  0  0  0  0  0  0  0  0  0  0  0
   35.1180   33.3250   36.4580 O   0  0  0  0  0  0  0  0  0  0  0  0
   36.3640   32.8860   34.5530 C   0  0  0  0  0  0  0  0  0  0  0  0
   37.4980   33.5870   35.0140 F   0  0  0  0  0  0  0  0  0  0  0  0
   35.8250   34.1400   34.0010 F   0  0  0  0  0  0  0  0  0  0  0  0
   36.5670   32.4840   33.2010 F   0  0  0  0  0  0  0  0  0  0  0  0
   39.1480   27.2000   31.5570 C   0  0  0  0  0  0  0  0  0  0  0  0
   39.0730   26.0220   32.3120 C   0  0  0  0  0  0  0  0  0  0  0  0
   37.9320   25.8200   33.1000 C   0  0  0  0  0  0  0  0  0  0  0  0
   37.0070   26.8040   33.0440 N   0  0  0  0  0  0  0  0  0  0  0  0
   37.0900   27.9220   32.3190 C   0  0  0  0  0  0  0  0  0  0  0  0
   38.1760   28.1150   31.5700 N   0  0  0  0  0  0  0  0  0  0  0  0
   40.0350   27.3600   30.9430 H   0  0  0  0  0  0  0  0  0  0  0  0
   39.8690   25.3210   32.2740 H   0  0  0  0  0  0  0  0  0  0  0  0
   37.9170   24.5860   33.8560 C   0  0  0  0  0  0  0  0  0  0  0  0
   37.8480   23.4060   33.2230 N   0  0  0  0  0  0  0  0  0  0  0  0
   37.8280   22.2110   33.8210 C   0  0  0  0  0  3  0  0  0  0  0  0
   37.8770   22.0960   35.1400 N   0  0  0  0  0  0  0  0  0  0  0  0
   37.9480   23.2180   35.8690 C   0  0  0  0  0  0  0  0  0  0  0  0
   38.0000   23.1440   37.2450 C   0  0  0  0  0  3  0  0  0  0  0  0
   38.0740   24.2890   38.0300 C   0  0  0  0  0  0  0  0  0  0  0  0
   38.1140   24.1980   39.1060 H   0  0  0  0  0  0  0  0  0  0  0  0
   38.0920   25.5200   37.3640 C   0  0  0  0  0  0  0  0  0  0  0  0
   38.1510   26.4070   37.9890 H   0  0  0  0  0  0  0  0  0  0  0  0
   38.0380   25.5320   36.0010 C   0  0  0  0  0  3  0  0  0  0  0  0
   37.9660   24.4240   35.2080 C   0  0  0  0  0  0  0  0  0  0  0  0
  1  6  1  0  0  0  0
  2  3  1  0  0  0  0
  2  1  2  0  0  0  0
  3  4  2  0  0  0  0
  4  5  1  0  0  0  0
  5 10  1  0  0  0  0
  6  5  2  0  0  0  0
  7  2  1  0  0  0  0
  8  3  1  0  0  0  0
  9 14  1  0  0  0  0
 10 11  1  0  0  0  0
 10  9  2  0  0  0  0
 11 12  2  0  0  0  0
 12 16  1  0  0  0  0
 12 13  1  0  0  0  0
 13 17  1  0  0  0  0
 14 13  2  0  0  0  0
 14 18  1  0  0  0  0
 15 11  1  0  0  0  0
 19  9  1  0  0  0  0
 19 20  2  0  0  0  0
 19 21  2  0  0  0  0
 22 23  1  0  0  0  0
 22 19  1  0  0  0  0
 24 22  1  0  0  0  0
 25 22  1  0  0  0  0
 26 31  2  0  0  0  0
 26 27  1  0  0  0  0
 27 28  2  0  0  0  0
 28 34  1  0  0  0  0
 29 28  1  0  0  0  0
 30  1  1  0  0  0  0
 30 29  2  0  0  0  0
 31 30  1  0  0  0  0
 32 26  1  0  0  0  0
 33 27  1  0  0  0  0
 34 45  1  0  0  0  0
 35 36  1  0  0  0  0
 35 34  2  0  0  0  0
 36 37  2  0  0  0  0
 37 38  1  0  0  0  0
 38 39  1  0  0  0  0
 39 40  2  0  0  0  0
 40 41  1  0  0  0  0
 42 43  1  0  0  0  0
 42 40  1  0  0  0  0
 44 42  2  0  0  0  0
 45 38  2  0  0  0  0
 45 44  1  0  0  0  0
M  END
>  <minimizedAffinity>
-7.23596811

$$$$

 OpenBabel03272504293D

 45 49  0  0  0  0  0  0  0  0999 V2000
   37.5670   26.8700   32.4520 C   0  0  0  0  0  0  0  0  0  0  0  0
   38.9190   26.9250   32.4920 C   0  0  0  0  0  0  0  0  0  0  0  0
   39.6630   25.8170   32.5850 C   0  0  0  0  0  0  0  0  0  0  0  0
   39.0300   24.6180   32.6390 N   0  0  0  0  0  0  0  0  0  0  0  0
   37.7070   24.5630   32.6000 C   0  0  0  0  0  0  0  0  0  0  0  0
   36.9600   25.6710   32.5080 N   0  0  0  0  0  0  0  0  0  0  0  0
   39.3900   27.9030   32.4460 H   0  0  0  0  0  0  0  0  0  0  0  0
   40.7450   25.8840   32.6150 H   0  0  0  0  0  0  0  0  0  0  0  0
   37.2700   22.4630   33.8010 C   0  0  0  0  0  0  0  0  0  0  0  0
   37.1540   23.2340   32.6370 C   0  0  0  0  0  0  0  0  0  0  0  0
   36.5500   22.7900   31.4760 C   0  0  0  0  0  0  0  0  0  0  0  0
   36.0260   21.5120   31.4420 C   0  0  0  0  0  0  0  0  0  0  0  0
   36.0970   20.6820   32.5410 C   0  0  0  0  0  0  0  0  0  0  0  0
   36.7070   21.2050   33.6370 C   0  0  0  0  0  0  0  0  0  0  0  0
   36.4820   23.4210   30.6010 H   0  0  0  0  0  0  0  0  0  0  0  0
   35.5510   21.1600   30.5300 H   0  0  0  0  0  0  0  0  0  0  0  0
   35.7000   19.6780   32.5510 H   0  0  0  0  0  0  0  0  0  0  0  0
   36.7670   20.5520   34.5120 H   0  0  0  0  0  0  0  0  0  0  0  0
   37.9710   22.9750   35.2250 S   0  0  0  0  0  0  0  0  0  0  0  0
   39.3420   22.2470   35.0250 O   0  0  0  0  0  0  0  0  0  0  0  0
   37.2290   22.3040   36.3530 O   0  0  0  0  0  0  0  0  0  0  0  0
   38.7360   24.0500   36.1190 C   0  0  0  0  0  0  0  0  0  0  0  0
   38.5240   24.2640   37.4970 F   0  0  0  0  0  0  0  0  0  0  0  0
   38.2140   25.3980   35.8390 F   0  0  0  0  0  0  0  0  0  0  0  0
   40.0110   24.5650   35.7450 F   0  0  0  0  0  0  0  0  0  0  0  0
   35.5820   29.6560   31.1490 C   0  0  0  0  0  0  0  0  0  0  0  0
   35.1290   30.2810   32.3190 C   0  0  0  0  0  0  0  0  0  0  0  0
   35.5210   29.7330   33.5490 C   0  0  0  0  0  0  0  0  0  0  0  0
   36.3090   28.6380   33.4710 N   0  0  0  0  0  0  0  0  0  0  0  0
   36.7340   28.0520   32.3480 C   0  0  0  0  0  0  0  0  0  0  0  0
   36.3620   28.5730   31.1800 N   0  0  0  0  0  0  0  0  0  0  0  0
   35.2790   30.0800   30.1920 H   0  0  0  0  0  0  0  0  0  0  0  0
   34.5100   31.1400   32.2510 H   0  0  0  0  0  0  0  0  0  0  0  0
   35.0200   30.4240   34.7170 C   0  0  0  0  0  0  0  0  0  0  0  0
   35.7770   31.3400   35.3380 N   0  0  0  0  0  0  0  0  0  0  0  0
   35.4140   32.0350   36.4200 C   0  0  0  0  0  3  0  0  0  0  0  0
   34.2290   31.8650   36.9870 N   0  0  0  0  0  0  0  0  0  0  0  0
   33.3930   30.9700   36.4430 C   0  0  0  0  0  0  0  0  0  0  0  0
   32.1490   30.7610   37.0010 C   0  0  0  0  0  3  0  0  0  0  0  0
   31.2580   29.8400   36.4610 C   0  0  0  0  0  0  0  0  0  0  0  0
   30.2900   29.6990   36.9220 H   0  0  0  0  0  0  0  0  0  0  0  0
   31.6770   29.1340   35.3280 C   0  0  0  0  0  0  0  0  0  0  0  0
   30.9720   28.4180   34.9160 H   0  0  0  0  0  0  0  0  0  0  0  0
   32.9180   29.3820   34.8200 C   0  0  0  0  0  3  0  0  0  0  0  0
   33.8110   30.2790   35.3290 C   0  0  0  0  0  0  0  0  0  0  0  0
  1  2  2  0  0  0  0
  1  6  1  0  0  0  0
  2  3  1  0  0  0  0
  3  8  1  0  0  0  0
  3  4  2  0  0  0  0
  5 10  1  0  0  0  0
  5  4  1  0  0  0  0
  6  5  2  0  0  0  0
  7  2  1  0  0  0  0
  9 19  1  0  0  0  0
 10  9  2  0  0  0  0
 11 10  1  0  0  0  0
 12 11  2  0  0  0  0
 12 13  1  0  0  0  0
 13 17  1  0  0  0  0
 13 14  2  0  0  0  0
 14  9  1  0  0  0  0
 14 18  1  0  0  0  0
 15 11  1  0  0  0  0
 16 12  1  0  0  0  0
 19 22  1  0  0  0  0
 19 21  2  0  0  0  0
 20 19  2  0  0  0  0
 22 23  1  0  0  0  0
 24 22  1  0  0  0  0
 25 22  1  0  0  0  0
 26 31  2  0  0  0  0
 26 27  1  0  0  0  0
 27 28  2  0  0  0  0
 28 34  1  0  0  0  0
 29 28  1  0  0  0  0
 30  1  1  0  0  0  0
 30 29  2  0  0  0  0
 31 30  1  0  0  0  0
 32 26  1  0  0  0  0
 33 27  1  0  0  0  0
 34 45  2  0  0  0  0
 34 35  1  0  0  0  0
 35 36  2  0  0  0  0
 36 37  1  0  0  0  0
 38 37  2  0  0  0  0
 38 39  1  0  0  0  0
 40 41  1  0  0  0  0
 40 39  2  0  0  0  0
 42 40  1  0  0  0  0
 43 42  1  0  0  0  0
 44 42  2  0  0  0  0
 44 45  1  0  0  0  0
 45 38  1  0  0  0  0
M  END
>  <minimizedAffinity>
-7.21361971

$$$$

 OpenBabel03272504293D

 45 49  0  0  0  0  0  0  0  0999 V2000
   38.5420   25.4720   33.4310 C   0  0  0  0  0  0  0  0  0  0  0  0
   38.6810   26.7990   33.6570 C   0  0  0  0  0  0  0  0  0  0  0  0
   39.6880   27.2830   34.3920 C   0  0  0  0  0  0  0  0  0  0  0  0
   40.5830   26.4080   34.9160 N   0  0  0  0  0  0  0  0  0  0  0  0
   40.4480   25.1090   34.6950 C   0  0  0  0  0  0  0  0  0  0  0  0
   39.4400   24.6210   33.9600 N   0  0  0  0  0  0  0  0  0  0  0  0
   37.9450   27.4690   33.2210 H   0  0  0  0  0  0  0  0  0  0  0  0
   39.7800   28.3500   34.5610 H   0  0  0  0  0  0  0  0  0  0  0  0
   41.1420   23.3650   36.2830 C   0  0  0  0  0  0  0  0  0  0  0  0
   41.4750   24.2840   35.2800 C   0  0  0  0  0  0  0  0  0  0  0  0
   42.7590   24.4830   34.8110 C   0  0  0  0  0  0  0  0  0  0  0  0
   43.7900   23.7400   35.3550 C   0  0  0  0  0  0  0  0  0  0  0  0
   43.5560   22.8140   36.3490 C   0  0  0  0  0  0  0  0  0  0  0  0
   42.2620   22.6870   36.7440 C   0  0  0  0  0  0  0  0  0  0  0  0
   42.9690   25.2030   34.0330 H   0  0  0  0  0  0  0  0  0  0  0  0
   44.8020   23.8950   34.9890 H   0  0  0  0  0  0  0  0  0  0  0  0
   44.3360   22.2170   36.7970 H   0  0  0  0  0  0  0  0  0  0  0  0
   42.0690   21.9540   37.5320 H   0  0  0  0  0  0  0  0  0  0  0  0
   39.6010   23.0830   36.8540 S   0  0  0  0  0  0  0  0  0  0  0  0
   40.0200   22.6360   38.2950 O   0  0  0  0  0  0  0  0  0  0  0  0
   39.0630   21.8850   36.1150 O   0  0  0  0  0  0  0  0  0  0  0  0
   38.2100   23.5630   37.4690 C   0  0  0  0  0  0  0  0  0  0  0  0
   36.9520   22.9940   37.1800 F   0  0  0  0  0  0  0  0  0  0  0  0
   37.7820   24.8150   36.8240 F   0  0  0  0  0  0  0  0  0  0  0  0
   38.1410   24.2780   38.6990 F   0  0  0  0  0  0  0  0  0  0  0  0
   35.7120   25.0940   31.1400 C   0  0  0  0  0  0  0  0  0  0  0  0
   35.4790   23.7120   31.1690 C   0  0  0  0  0  0  0  0  0  0  0  0
   36.3020   22.9250   31.9860 C   0  0  0  0  0  0  0  0  0  0  0  0
   37.2520   23.5990   32.6720 N   0  0  0  0  0  0  0  0  0  0  0  0
   37.4630   24.9170   32.6360 C   0  0  0  0  0  0  0  0  0  0  0  0
   36.6810   25.6650   31.8590 N   0  0  0  0  0  0  0  0  0  0  0  0
   35.0730   25.7080   30.5050 H   0  0  0  0  0  0  0  0  0  0  0  0
   34.6980   23.2970   30.5810 H   0  0  0  0  0  0  0  0  0  0  0  0
   36.0100   21.5080   31.9710 C   0  0  0  0  0  0  0  0  0  0  0  0
   34.7760   21.0680   32.2540 N   0  0  0  0  0  0  0  0  0  0  0  0
   34.3980   19.7870   32.2690 C   0  0  0  0  0  3  0  0  0  0  0  0
   35.2510   18.8110   31.9920 N   0  0  0  0  0  0  0  0  0  0  0  0
   36.5140   19.1430   31.6940 C   0  0  0  0  0  0  0  0  0  0  0  0
   37.4350   18.1590   31.4000 C   0  0  0  0  0  3  0  0  0  0  0  0
   38.7530   18.4700   31.0870 C   0  0  0  0  0  0  0  0  0  0  0  0
   39.4510   17.6760   30.8610 H   0  0  0  0  0  0  0  0  0  0  0  0
   39.1060   19.8240   31.0830 C   0  0  0  0  0  0  0  0  0  0  0  0
   40.1390   20.0530   30.8360 H   0  0  0  0  0  0  0  0  0  0  0  0
   38.1540   20.7530   31.3820 C   0  0  0  0  0  3  0  0  0  0  0  0
   36.8550   20.4760   31.6920 C   0  0  0  0  0  0  0  0  0  0  0  0
  1  2  2  0  0  0  0
  1  6  1  0  0  0  0
  2  3  1  0  0  0  0
  3  8  1  0  0  0  0
  3  4  2  0  0  0  0
  5  4  1  0  0  0  0
  5 10  1  0  0  0  0
  6  5  2  0  0  0  0
  7  2  1  0  0  0  0
  9 14  1  0  0  0  0
  9 19  1  0  0  0  0
 10  9  2  0  0  0  0
 11 10  1  0  0  0  0
 11 12  2  0  0  0  0
 12 13  1  0  0  0  0
 13 14  2  0  0  0  0
 13 17  1  0  0  0  0
 14 18  1  0  0  0  0
 15 11  1  0  0  0  0
 16 12  1  0  0  0  0
 19 22  1  0  0  0  0
 19 20  2  0  0  0  0
 21 19  2  0  0  0  0
 22 25  1  0  0  0  0
 23 22  1  0  0  0  0
 24 22  1  0  0  0  0
 26 27  2  0  0  0  0
 26 31  1  0  0  0  0
 27 28  1  0  0  0  0
 28 29  2  0  0  0  0
 30 29  1  0  0  0  0
 30  1  1  0  0  0  0
 31 30  2  0  0  0  0
 32 26  1  0  0  0  0
 33 27  1  0  0  0  0
 34 28  1  0  0  0  0
 34 35  1  0  0  0  0
 35 36  2  0  0  0  0
 37 36  1  0  0  0  0
 38 37  2  0  0  0  0
 39 38  1  0  0  0  0
 40 39  2  0  0  0  0
 41 40  1  0  0  0  0
 42 40  1  0  0  0  0
 42 44  2  0  0  0  0
 43 42  1  0  0  0  0
 44 45  1  0  0  0  0
 45 38  1  0  0  0  0
 45 34  2  0  0  0  0
M  END
>  <minimizedAffinity>
-7.19915247

$$$$
