
 OpenBabel03262521523D

 26 28  0  0  0  0  0  0  0  0999 V2000
   34.9100   29.5340   50.3660 C   0  0  0  0  0  0  0  0  0  0  0  0
   34.2440   29.5040   51.2460 H   0  0  0  0  0  0  0  0  0  0  0  0
   34.5770   30.4250   49.7560 H   0  0  0  0  0  0  0  0  0  0  0  0
   36.6330   29.8080   50.7850 S   0  0  0  0  0  0  0  0  0  0  0  0
   37.3980   30.7500   49.4810 C   0  0  0  0  0  0  0  0  0  0  0  0
   37.6750   32.0690   49.7980 C   0  0  0  0  0  0  0  0  0  0  0  0
   38.2730   32.8460   48.8140 C   0  0  0  0  0  0  0  0  0  0  0  0
   38.5630   32.2880   47.5830 N   0  0  0  0  0  0  0  0  0  0  0  0
   38.2630   30.9880   47.3440 C   0  0  0  0  0  0  0  0  0  0  0  0
   37.6960   30.2410   48.2700 N   0  0  0  0  0  0  0  0  0  0  0  0
   37.4700   32.5540   50.7430 H   0  0  0  0  0  0  0  0  0  0  0  0
   38.5320   33.8830   48.9540 H   0  0  0  0  0  0  0  0  0  0  0  0
   38.5260   30.6360   46.3530 H   0  0  0  0  0  0  0  0  0  0  0  0
   34.6700   28.0910   49.2920 S   0  0  0  0  0  0  0  0  0  0  0  0
   33.2950   28.3380   48.1940 C   0  0  0  0  0  0  0  0  0  0  0  0
   32.1290   27.8210   48.6320 N   0  0  0  0  0  0  0  0  0  0  0  0
   31.0130   27.9410   47.8930 C   0  0  0  0  0  3  0  0  0  0  0  0
   31.0340   28.5760   46.7070 N   0  0  0  0  0  0  0  0  0  0  0  0
   32.1750   29.1010   46.2390 C   0  0  0  0  0  0  0  0  0  0  0  0
   32.2090   29.7620   45.0090 C   0  0  0  0  0  3  0  0  0  0  0  0
   33.4360   30.2740   44.6060 C   0  0  0  0  0  0  0  0  0  0  0  0
   33.4040   30.7750   43.6480 H   0  0  0  0  0  0  0  0  0  0  0  0
   34.5750   30.1470   45.3690 C   0  0  0  0  0  0  0  0  0  0  0  0
   35.5090   30.5680   45.0030 H   0  0  0  0  0  0  0  0  0  0  0  0
   34.5440   29.4900   46.5930 C   0  0  0  0  0  3  0  0  0  0  0  0
   33.3150   28.9880   46.9770 C   0  0  0  0  0  0  0  0  0  0  0  0
  1  4  1  0  0  0  0
  1  2  1  0  0  0  0
  3  1  1  0  0  0  0
  5  6  1  0  0  0  0
  5  4  1  0  0  0  0
  6 11  1  0  0  0  0
  7 12  1  0  0  0  0
  7  6  2  0  0  0  0
  8  7  1  0  0  0  0
  9  8  2  0  0  0  0
  9 10  1  0  0  0  0
 10  5  2  0  0  0  0
 13  9  1  0  0  0  0
 14  1  1  0  0  0  0
 15 16  1  0  0  0  0
 15 14  1  0  0  0  0
 17 16  2  0  0  0  0
 18 17  1  0  0  0  0
 19 18  2  0  0  0  0
 19 26  1  0  0  0  0
 20 19  1  0  0  0  0
 21 20  2  0  0  0  0
 21 23  1  0  0  0  0
 22 21  1  0  0  0  0
 23 25  2  0  0  0  0
 24 23  1  0  0  0  0
 25 26  1  0  0  0  0
 26 15  2  0  0  0  0
M  END
>  <minimizedAffinity>
-4.52528048

>  <minimizedRMSD>
2.25526452

$$$$
