REMARK  Name = 
REMARK  7 active torsions:
REMARK  status: ('A' for Active; 'I' for Inactive)
REMARK    1  A    between atoms: C_3  and  C_9
REMARK    2  A    between atoms: C_5  and  O_14
REMARK    3  A    between atoms: O_14  and  C_15
REMARK    4  A    between atoms: C_15  and  C_16
REMARK    5  A    between atoms: C_16  and  C_17
REMARK    6  A    between atoms: C_21  and  C_23
REMARK    7  A    between atoms: C_23  and  C_38
REMARK                            x       y       z     vdW  Elec       q    Type
REMARK                         _______ _______ _______ _____ _____    ______ ____
ROOT
ATOM      1  C   UNL     1      33.561  27.534  47.708  0.00  0.00    +0.000 C 
ATOM      2  H   UNL     1      33.809  27.349  46.630  0.00  0.00    +0.000 HD
ATOM      3  H   UNL     1      33.712  26.590  48.234  0.00  0.00    +0.000 HD
ENDROOT
BRANCH   1   4
ATOM      4  C   UNL     1      32.114  27.889  47.750  0.00  0.00    +0.000 A 
ATOM      5  C   UNL     1      31.379  27.462  48.838  0.00  0.00    +0.000 A 
ATOM      6  C   UNL     1      30.044  27.749  48.944  0.00  0.00    +0.000 A 
ATOM      7  N   UNL     1      29.438  28.451  47.986  0.00  0.00    +0.000 NA
ATOM      8  C   UNL     1      30.171  28.870  46.910  0.00  0.00    +0.000 A 
ATOM      9  N   UNL     1      31.469  28.588  46.813  0.00  0.00    +0.000 NA
ATOM     10  H   UNL     1      31.806  26.895  49.642  0.00  0.00    +0.000 HD
ATOM     11  H   UNL     1      29.414  27.440  49.778  0.00  0.00    +0.000 HD
BRANCH   8  12
ATOM     12  C   UNL     1      29.435  29.656  45.889  0.00  0.00    +0.000 C 
ATOM     13  H   UNL     1      30.083  30.407  45.391  0.00  0.00    +0.000 HD
ATOM     14  H   UNL     1      28.649  30.246  46.394  0.00  0.00    +0.000 HD
BRANCH  12  15
ATOM     15  C   UNL     1      28.773  28.752  44.918  0.00  0.00    +0.000 A 
ATOM     16  N   UNL     1      27.907  29.327  44.029  0.00  0.00    +0.000 NA
ATOM     17  C   UNL     1      27.204  28.635  43.125  0.00  0.00    +0.000 A 
ATOM     18  N   UNL     1      27.297  27.299  43.022  0.00  0.00    +0.000 NA
ATOM     19  C   UNL     1      28.150  26.680  43.888  0.00  0.00    +0.000 A 
ATOM     20  C   UNL     1      28.314  25.308  43.840  0.00  0.00    +0.000 A 
ATOM     21  C   UNL     1      29.180  24.671  44.698  0.00  0.00    +0.000 A 
ATOM     22  H   UNL     1      29.233  23.597  44.576  0.00  0.00    +0.000 HD
ATOM     23  C   UNL     1      29.901  25.422  45.629  0.00  0.00    +0.000 A 
ATOM     24  H   UNL     1      30.569  24.867  46.275  0.00  0.00    +0.000 HD
ATOM     25  C   UNL     1      29.746  26.782  45.687  0.00  0.00    +0.000 A 
ATOM     26  C   UNL     1      28.873  27.381  44.815  0.00  0.00    +0.000 A 
ENDBRANCH  12  15
ENDBRANCH   8  12
ENDBRANCH   1   4
BRANCH   1  27
ATOM     27  C   UNL     1      34.448  28.648  48.172  0.00  0.00    +0.000 C 
ATOM     28  H   UNL     1      35.304  28.852  47.498  0.00  0.00    +0.000 HD
ATOM     29  H   UNL     1      33.841  29.559  48.236  0.00  0.00    +0.000 HD
BRANCH  27  30
ATOM     30  O   UNL     1      34.997  28.348  49.457  0.00  0.00    +0.000 OA
BRANCH  30  35
ATOM     31  C   UNL     1      37.332  30.188  51.524  0.00  0.00    +0.000 A 
ATOM     32  C   UNL     1      38.065  30.874  50.522  0.00  0.00    +0.000 A 
ATOM     33  C   UNL     1      37.704  30.656  49.203  0.00  0.00    +0.000 A 
ATOM     34  N   UNL     1      36.666  29.791  48.982  0.00  0.00    +0.000 NA
ATOM     35  C   UNL     1      35.984  29.151  49.936  0.00  0.00    +0.000 A 
ATOM     36  N   UNL     1      36.334  29.362  51.233  0.00  0.00    +0.000 NA
ATOM     37  H   UNL     1      37.639  30.381  52.547  0.00  0.00    +0.000 HD
ATOM     38  H   UNL     1      38.869  31.542  50.708  0.00  0.00    +0.000 HD
BRANCH  33  41
ATOM     39  F   UNL     1      38.949  33.263  49.007  0.00  0.00    +0.000 F 
ATOM     40  C   UNL     1      38.914  32.473  47.943  0.00  0.00    +0.000 A 
ATOM     41  C   UNL     1      38.330  31.264  48.059  0.00  0.00    +0.000 A 
ATOM     42  C   UNL     1      38.353  30.517  46.869  0.00  0.00    +0.000 A 
ATOM     43  C   UNL     1      38.914  30.981  45.712  0.00  0.00    +0.000 A 
ATOM     44  C   UNL     1      39.496  32.227  45.656  0.00  0.00    +0.000 A 
ATOM     45  C   UNL     1      39.488  32.973  46.797  0.00  0.00    +0.000 A 
ATOM     46  H   UNL     1      37.909  29.522  46.847  0.00  0.00    +0.000 HD
ATOM     47  H   UNL     1      38.900  30.351  44.816  0.00  0.00    +0.000 HD
ATOM     48  H   UNL     1      39.933  32.565  44.719  0.00  0.00    +0.000 HD
ATOM     49  H   UNL     1      39.943  33.955  46.762  0.00  0.00    +0.000 HD
ENDBRANCH  33  41
ENDBRANCH  30  35
ENDBRANCH  27  30
ENDBRANCH   1  27
TORSDOF 7
