
 OpenBabel03272507163D

 29 32  0  0  1  0  0  0  0  0999 V2000
   36.1600   30.7630   49.8840 C   0  0  1  0  0  0  0  0  0  0  0  0
   35.3400   29.6070   49.5950 C   0  0  2  0  0  0  0  0  0  0  0  0
   36.6200   29.3860   50.3760 C   0  0  0  0  0  0  0  0  0  0  0  0
   35.9730   31.5190   50.6970 H   0  0  0  0  0  0  0  0  0  0  0  0
   34.3590   29.5170   50.1100 H   0  0  0  0  0  0  0  0  0  0  0  0
   36.4330   29.2230   51.4470 H   0  0  0  0  0  0  0  0  0  0  0  0
   37.4530   28.8870   49.8620 H   0  0  0  0  0  0  0  0  0  0  0  0
   37.0850   31.3480   48.8450 C   0  0  0  0  0  0  0  0  0  0  0  0
   38.0340   32.2620   49.3090 C   0  0  0  0  0  0  0  0  0  0  0  0
   38.8570   32.8070   48.3180 C   0  0  0  0  0  0  0  0  0  0  0  0
   38.7110   32.4470   47.0160 N   0  0  0  0  0  0  0  0  0  0  0  0
   37.7770   31.5570   46.6170 C   0  0  0  0  0  0  0  0  0  0  0  0
   36.9500   30.9970   47.5440 N   0  0  0  0  0  0  0  0  0  0  0  0
   38.1040   32.5110   50.3580 H   0  0  0  0  0  0  0  0  0  0  0  0
   39.6040   33.5200   48.6390 H   0  0  0  0  0  0  0  0  0  0  0  0
   37.6330   31.2490   45.5900 H   0  0  0  0  0  0  0  0  0  0  0  0
   35.3280   29.0880   48.2910 O   0  0  0  0  0  0  0  0  0  0  0  0
   34.1610   28.4450   47.8730 C   0  0  0  0  0  0  0  0  0  0  0  0
   33.9160   27.1620   48.2260 N   0  0  0  0  0  0  0  0  0  0  0  0
   32.7960   26.5210   47.8340 C   0  0  0  0  0  3  0  0  0  0  0  0
   31.8730   27.1360   47.0730 N   0  0  0  0  0  0  0  0  0  0  0  0
   32.0710   28.4000   46.7010 C   0  0  0  0  0  0  0  0  0  0  0  0
   31.0950   28.9990   45.9150 C   0  0  0  0  0  3  0  0  0  0  0  0
   31.2960   30.3090   45.5290 C   0  0  0  0  0  0  0  0  0  0  0  0
   30.6280   30.9010   44.9210 H   0  0  0  0  0  0  0  0  0  0  0  0
   32.4300   30.9760   45.9180 C   0  0  0  0  0  0  0  0  0  0  0  0
   32.6330   32.0100   45.6370 H   0  0  0  0  0  0  0  0  0  0  0  0
   33.4190   30.4070   46.6990 C   0  0  0  0  0  3  0  0  0  0  0  0
   33.2120   29.0920   47.0860 C   0  0  0  0  0  0  0  0  0  0  0  0
  1  3  1  0  0  0  0
  1  4  1  1  0  0  0
  2  1  1  0  0  0  0
  2  5  1  1  0  0  0
  2  3  1  0  0  0  0
  3  6  1  0  0  0  0
  7  3  1  0  0  0  0
  8  9  1  0  0  0  0
  8  1  1  0  0  0  0
  9 14  1  0  0  0  0
 10 15  1  0  0  0  0
 10  9  2  0  0  0  0
 11 10  1  0  0  0  0
 12 11  2  0  0  0  0
 12 13  1  0  0  0  0
 13  8  2  0  0  0  0
 16 12  1  0  0  0  0
 17  2  1  0  0  0  0
 18 19  1  0  0  0  0
 18 17  1  0  0  0  0
 20 19  2  0  0  0  0
 21 20  1  0  0  0  0
 22 21  2  0  0  0  0
 22 29  1  0  0  0  0
 23 22  1  0  0  0  0
 24 23  2  0  0  0  0
 24 26  1  0  0  0  0
 25 24  1  0  0  0  0
 26 28  2  0  0  0  0
 27 26  1  0  0  0  0
 28 29  1  0  0  0  0
 29 18  2  0  0  0  0
M  END
>  <minimizedAffinity>
-5.28390551

>  <minimizedRMSD>
2.79386163

$$$$
