REMARK  Name = 
REMARK  6 active torsions:
REMARK  status: ('A' for Active; 'I' for Inactive)
REMARK    1  A    between atoms: C_1  and  C_4
REMARK    2  A    between atoms: C_3  and  O_11
REMARK    3  A    between atoms: O_11  and  P_13
REMARK    4  A    between atoms: P_13  and  O_14
REMARK    5  A    between atoms: P_13  and  O_15
REMARK    6  A    between atoms: O_15  and  C_25
REMARK                            x       y       z     vdW  Elec       q    Type
REMARK                         _______ _______ _______ _____ _____    ______ ____
ROOT
ATOM      1  C   UNL     1      36.982  31.572  48.669  0.00  0.00    +0.000 C 
ATOM      2  C   UNL     1      36.213  30.920  47.635  0.00  0.00    +0.000 C 
ATOM      3  C   UNL     1      37.176  30.134  48.468  0.00  0.00    +0.000 C 
ATOM      4  H   UNL     1      36.541  31.840  49.690  0.00  0.00    +0.000 HD
ATOM      5  H   UNL     1      35.179  31.167  47.800  0.00  0.00    +0.000 HD
ATOM      6  H   UNL     1      36.516  31.107  46.585  0.00  0.00    +0.000 HD
ATOM      7  H   UNL     1      37.877  29.621  47.832  0.00  0.00    +0.000 HD
ENDROOT
BRANCH   1   8
ATOM      8  C   UNL     1      38.145  32.462  48.326  0.00  0.00    +0.000 A 
ATOM      9  C   UNL     1      38.536  33.374  49.321  0.00  0.00    +0.000 A 
ATOM     10  C   UNL     1      39.604  34.175  48.985  0.00  0.00    +0.000 A 
ATOM     11  N   UNL     1      40.199  34.054  47.777  0.00  0.00    +0.000 NA
ATOM     12  C   UNL     1      39.793  33.160  46.844  0.00  0.00    +0.000 A 
ATOM     13  N   UNL     1      38.729  32.336  47.128  0.00  0.00    +0.000 NA
ATOM     14  N   UNL     1      40.405  32.996  45.597  0.00  0.00    +0.000 N 
ATOM     15  H   UNL     1      38.080  33.479  50.272  0.00  0.00    +0.000 HD
ATOM     16  H   UNL     1      39.962  34.903  49.701  0.00  0.00    +0.000 HD
ATOM     17  H   UNL     1      41.322  32.471  45.479  0.00  0.00    +0.000 HD
ATOM     18  H   UNL     1      39.943  33.403  44.760  0.00  0.00    +0.000 HD
ENDBRANCH   1   8
BRANCH   3  19
ATOM     19  O   UNL     1      36.596  29.309  49.435  0.00  0.00    +0.000 OA
BRANCH  19  21
ATOM     20  O   UNL     1      34.627  27.668  49.697  0.00  0.00    +0.000 OA
ATOM     21  P   UNL     1      35.019  28.951  49.037  0.00  0.00    +0.000 P 
BRANCH  21  22
ATOM     22  O   UNL     1      33.973  30.148  49.730  0.00  0.00    +0.000 OA
ATOM     23  H   UNL     1      33.070  29.783  49.561  0.00  0.00    +0.000 HD
ENDBRANCH  21  22
BRANCH  21  24
ATOM     24  O   UNL     1      34.857  28.949  47.367  0.00  0.00    +0.000 OA
BRANCH  24  25
ATOM     25  C   UNL     1      35.079  27.933  46.488  0.00  0.00    +0.000 A 
ATOM     26  N   UNL     1      34.442  26.762  46.495  0.00  0.00    +0.000 NA
ATOM     27  C   UNL     1      34.776  25.858  45.557  0.00  0.00    +0.000 A 
ATOM     28  N   UNL     1      35.723  26.095  44.619  0.00  0.00    +0.000 NA
ATOM     29  C   UNL     1      36.394  27.260  44.569  0.00  0.00    +0.000 A 
ATOM     30  C   UNL     1      37.368  27.535  43.624  0.00  0.00    +0.000 A 
ATOM     31  C   UNL     1      38.027  28.732  43.607  0.00  0.00    +0.000 A 
ATOM     32  H   UNL     1      38.789  28.975  42.885  0.00  0.00    +0.000 HD
ATOM     33  C   UNL     1      37.715  29.675  44.545  0.00  0.00    +0.000 A 
ATOM     34  H   UNL     1      38.224  30.632  44.551  0.00  0.00    +0.000 HD
ATOM     35  C   UNL     1      36.743  29.392  45.482  0.00  0.00    +0.000 A 
ATOM     36  C   UNL     1      36.062  28.205  45.530  0.00  0.00    +0.000 A 
ENDBRANCH  24  25
ENDBRANCH  21  24
ENDBRANCH  19  21
ENDBRANCH   3  19
TORSDOF 6
