
 OpenBabel03262522303D

 49 53  0  0  0  0  0  0  0  0999 V2000
   37.7380   27.8670   31.5720 C   0  0  0  0  0  0  0  0  0  0  0  0
   38.4690   27.2670   30.9880 H   0  0  0  0  0  0  0  0  0  0  0  0
   37.8060   28.9480   31.3290 H   0  0  0  0  0  0  0  0  0  0  0  0
   39.9590   26.4250   32.3160 F   0  0  0  0  0  0  0  0  0  0  0  0
   39.1100   26.8740   33.2830 C   0  0  0  0  0  0  0  0  0  0  0  0
   37.9560   27.6140   33.0340 C   0  0  0  0  0  0  0  0  0  0  0  0
   37.1390   28.0400   34.0430 C   0  0  0  0  0  0  0  0  0  0  0  0
   37.4470   27.7390   35.3870 C   0  0  0  0  0  0  0  0  0  0  0  0
   38.5890   27.0080   35.6520 C   0  0  0  0  0  0  0  0  0  0  0  0
   39.3990   26.5880   34.6040 C   0  0  0  0  0  0  0  0  0  0  0  0
   36.2830   28.6010   33.7090 H   0  0  0  0  0  0  0  0  0  0  0  0
   36.7590   28.1080   36.1350 H   0  0  0  0  0  0  0  0  0  0  0  0
   38.8140   26.7840   36.6860 H   0  0  0  0  0  0  0  0  0  0  0  0
   40.5140   25.8640   34.9740 O   0  0  0  0  0  0  0  0  0  0  0  0
   40.3140   24.5430   35.3550 C   0  0  0  0  0  0  0  0  0  0  0  0
   39.1100   23.9350   35.4180 N   0  0  0  0  0  0  0  0  0  0  0  0
   38.9850   22.6440   35.7990 C   0  0  0  0  0  3  0  0  0  0  0  0
   40.1040   21.9440   36.1260 N   0  0  0  0  0  0  0  0  0  0  0  0
   41.3380   22.4730   36.0900 C   0  0  0  0  0  0  0  0  0  0  0  0
   42.4440   21.7200   36.4320 C   0  0  0  0  0  3  0  0  0  0  0  0
   43.7020   22.2860   36.3880 C   0  0  0  0  0  0  0  0  0  0  0  0
   44.6270   21.7810   36.6360 H   0  0  0  0  0  0  0  0  0  0  0  0
   43.8220   23.6040   35.9990 C   0  0  0  0  0  0  0  0  0  0  0  0
   44.7570   24.1300   35.9340 H   0  0  0  0  0  0  0  0  0  0  0  0
   42.7170   24.3560   35.6570 C   0  0  0  0  0  3  0  0  0  0  0  0
   41.4310   23.8080   35.6930 C   0  0  0  0  0  0  0  0  0  0  0  0
   36.1010   27.2010   31.1560 S   0  0  0  0  0  0  0  0  0  0  0  0
   35.7660   23.1860   31.1670 C   0  0  0  0  0  0  0  0  0  0  0  0
   37.0530   22.8000   30.8130 C   0  0  0  0  0  0  0  0  0  0  0  0
   37.9660   23.7920   30.5870 C   0  0  0  0  0  0  0  0  0  0  0  0
   37.5730   25.0850   30.7180 N   0  0  0  0  0  0  0  0  0  0  0  0
   36.3500   25.4140   31.0540 C   0  0  0  0  0  0  0  0  0  0  0  0
   35.3810   24.4650   31.2970 N   0  0  0  0  0  0  0  0  0  0  0  0
   34.9880   22.4440   31.3640 H   0  0  0  0  0  0  0  0  0  0  0  0
   38.9790   23.5170   30.3080 H   0  0  0  0  0  0  0  0  0  0  0  0
   37.3250   21.4720   30.7140 O   0  0  0  0  0  0  0  0  0  0  0  0
   36.6020   20.5630   31.4720 C   0  0  0  0  0  0  0  0  0  0  0  0
   36.0450   19.3710   31.0380 C   0  0  0  0  0  0  0  0  0  0  0  0
   35.3690   18.6040   31.9170 C   0  0  0  0  0  0  0  0  0  0  0  0
   35.2560   19.0280   33.2140 C   0  0  0  0  0  0  0  0  0  0  0  0
   35.8220   20.2250   33.6290 C   0  0  0  0  0  0  0  0  0  0  0  0
   36.4960   20.9820   32.7300 N   0  0  0  0  0  0  0  0  0  0  0  0
   36.2030   19.1470   29.9920 H   0  0  0  0  0  0  0  0  0  0  0  0
   34.9330   17.6860   31.6060 H   0  0  0  0  0  0  0  0  0  0  0  0
   34.7140   18.4150   33.9230 H   0  0  0  0  0  0  0  0  0  0  0  0
   35.6770   20.6700   35.0800 C   0  0  0  0  0  0  0  0  0  0  0  0
   36.2790   19.9590   35.6660 H   0  0  0  0  0  0  0  0  0  0  0  0
   34.6250   20.5800   35.4120 H   0  0  0  0  0  0  0  0  0  0  0  0
   36.0880   21.6760   35.1490 H   0  0  0  0  0  0  0  0  0  0  0  0
  1  6  1  0  0  0  0
  2  1  1  0  0  0  0
  3  1  1  0  0  0  0
  4  5  1  0  0  0  0
  5 10  1  0  0  0  0
  6  5  2  0  0  0  0
  6  7  1  0  0  0  0
  7  8  2  0  0  0  0
  8  9  1  0  0  0  0
  8 12  1  0  0  0  0
  9 13  1  0  0  0  0
 10 14  1  0  0  0  0
 10  9  2  0  0  0  0
 11  7  1  0  0  0  0
 14 15  1  0  0  0  0
 15 16  2  0  0  0  0
 15 26  1  0  0  0  0
 16 17  1  0  0  0  0
 17 18  2  0  0  0  0
 19 18  1  0  0  0  0
 19 20  1  0  0  0  0
 21 20  2  0  0  0  0
 21 22  1  0  0  0  0
 23 21  1  0  0  0  0
 24 23  1  0  0  0  0
 25 26  1  0  0  0  0
 25 23  2  0  0  0  0
 26 19  2  0  0  0  0
 27  1  1  0  0  0  0
 28 33  1  0  0  0  0
 28 34  1  0  0  0  0
 29 28  2  0  0  0  0
 30 31  2  0  0  0  0
 30 29  1  0  0  0  0
 31 32  1  0  0  0  0
 32 27  1  0  0  0  0
 32 33  2  0  0  0  0
 35 30  1  0  0  0  0
 36 29  1  0  0  0  0
 36 37  1  0  0  0  0
 37 42  1  0  0  0  0
 38 37  2  0  0  0  0
 38 39  1  0  0  0  0
 39 40  2  0  0  0  0
 40 41  1  0  0  0  0
 40 45  1  0  0  0  0
 41 46  1  0  0  0  0
 42 41  2  0  0  0  0
 43 38  1  0  0  0  0
 44 39  1  0  0  0  0
 46 49  1  0  0  0  0
 46 48  1  0  0  0  0
 46 47  1  0  0  0  0
M  END
>  <minimizedAffinity>
-6.67924356

$$$$

 OpenBabel03262522303D

 49 53  0  0  0  0  0  0  0  0999 V2000
   36.9380   20.8200   32.0510 C   0  0  0  0  0  0  0  0  0  0  0  0
   36.7740   19.7360   31.8620 H   0  0  0  0  0  0  0  0  0  0  0  0
   37.9200   21.1610   31.6610 H   0  0  0  0  0  0  0  0  0  0  0  0
   38.9490   22.2230   33.2980 F   0  0  0  0  0  0  0  0  0  0  0  0
   37.8830   21.8020   34.0370 C   0  0  0  0  0  0  0  0  0  0  0  0
   36.8050   21.0850   33.5210 C   0  0  0  0  0  0  0  0  0  0  0  0
   35.7610   20.6860   34.3080 C   0  0  0  0  0  0  0  0  0  0  0  0
   35.7440   20.9940   35.6840 C   0  0  0  0  0  0  0  0  0  0  0  0
   36.8050   21.7060   36.2110 C   0  0  0  0  0  0  0  0  0  0  0  0
   37.8530   22.0970   35.3860 C   0  0  0  0  0  0  0  0  0  0  0  0
   34.9970   20.1410   33.7800 H   0  0  0  0  0  0  0  0  0  0  0  0
   34.8880   20.6500   36.2470 H   0  0  0  0  0  0  0  0  0  0  0  0
   36.7810   21.9360   37.2680 H   0  0  0  0  0  0  0  0  0  0  0  0
   38.8630   22.8010   36.0090 O   0  0  0  0  0  0  0  0  0  0  0  0
   38.8740   24.1790   35.8360 C   0  0  0  0  0  0  0  0  0  0  0  0
   37.8670   25.0060   36.1880 N   0  0  0  0  0  0  0  0  0  0  0  0
   37.9410   26.3410   35.9910 C   0  0  0  0  0  3  0  0  0  0  0  0
   39.0620   26.8600   35.4220 N   0  0  0  0  0  0  0  0  0  0  0  0
   40.1090   26.1070   35.0430 C   0  0  0  0  0  0  0  0  0  0  0  0
   41.2260   26.6820   34.4690 C   0  0  0  0  0  3  0  0  0  0  0  0
   42.2890   25.8890   34.0880 C   0  0  0  0  0  0  0  0  0  0  0  0
   43.2050   26.2420   33.6320 H   0  0  0  0  0  0  0  0  0  0  0  0
   42.2050   24.5280   34.2920 C   0  0  0  0  0  0  0  0  0  0  0  0
   42.9800   23.8310   34.0280 H   0  0  0  0  0  0  0  0  0  0  0  0
   41.0900   23.9530   34.8660 C   0  0  0  0  0  3  0  0  0  0  0  0
   39.9990   24.7340   35.2610 C   0  0  0  0  0  0  0  0  0  0  0  0
   35.5670   21.6820   31.2300 S   0  0  0  0  0  0  0  0  0  0  0  0
   37.6140   25.1410   30.9520 C   0  0  0  0  0  0  0  0  0  0  0  0
   36.5860   26.0750   30.9960 C   0  0  0  0  0  0  0  0  0  0  0  0
   35.3110   25.5990   31.1100 C   0  0  0  0  0  0  0  0  0  0  0  0
   35.1160   24.2570   31.1720 N   0  0  0  0  0  0  0  0  0  0  0  0
   36.1090   23.4030   31.1280 C   0  0  0  0  0  0  0  0  0  0  0  0
   37.4190   23.8140   31.0150 N   0  0  0  0  0  0  0  0  0  0  0  0
   38.6580   25.4530   30.8630 H   0  0  0  0  0  0  0  0  0  0  0  0
   34.4890   26.3090   31.1460 H   0  0  0  0  0  0  0  0  0  0  0  0
   36.9090   27.3930   30.9260 O   0  0  0  0  0  0  0  0  0  0  0  0
   36.3710   28.2850   31.8420 C   0  0  0  0  0  0  0  0  0  0  0  0
   36.4770   28.2300   33.2220 C   0  0  0  0  0  0  0  0  0  0  0  0
   35.8860   29.1870   33.9650 C   0  0  0  0  0  0  0  0  0  0  0  0
   35.1990   30.1870   33.3290 C   0  0  0  0  0  0  0  0  0  0  0  0
   35.1050   30.2240   31.9450 C   0  0  0  0  0  0  0  0  0  0  0  0
   35.7050   29.2520   31.2170 N   0  0  0  0  0  0  0  0  0  0  0  0
   37.0450   27.3910   33.6030 H   0  0  0  0  0  0  0  0  0  0  0  0
   35.9540   29.1640   35.0250 H   0  0  0  0  0  0  0  0  0  0  0  0
   34.7230   30.9580   33.9210 H   0  0  0  0  0  0  0  0  0  0  0  0
   34.3320   31.3510   31.2680 C   0  0  0  0  0  0  0  0  0  0  0  0
   34.9240   32.2600   31.4450 H   0  0  0  0  0  0  0  0  0  0  0  0
   33.3440   31.4880   31.7470 H   0  0  0  0  0  0  0  0  0  0  0  0
   34.2900   31.1150   30.2060 H   0  0  0  0  0  0  0  0  0  0  0  0
  1  6  1  0  0  0  0
  2  1  1  0  0  0  0
  3  1  1  0  0  0  0
  4  5  1  0  0  0  0
  5 10  1  0  0  0  0
  6  5  2  0  0  0  0
  6  7  1  0  0  0  0
  7  8  2  0  0  0  0
  8  9  1  0  0  0  0
  8 12  1  0  0  0  0
  9 13  1  0  0  0  0
 10 14  1  0  0  0  0
 10  9  2  0  0  0  0
 11  7  1  0  0  0  0
 15 14  1  0  0  0  0
 15 16  1  0  0  0  0
 17 16  2  0  0  0  0
 18 17  1  0  0  0  0
 19 26  1  0  0  0  0
 19 18  2  0  0  0  0
 20 19  1  0  0  0  0
 21 23  1  0  0  0  0
 21 20  2  0  0  0  0
 22 21  1  0  0  0  0
 23 25  2  0  0  0  0
 24 23  1  0  0  0  0
 25 26  1  0  0  0  0
 26 15  2  0  0  0  0
 27  1  1  0  0  0  0
 28 29  2  0  0  0  0
 28 33  1  0  0  0  0
 29 30  1  0  0  0  0
 30 35  1  0  0  0  0
 30 31  2  0  0  0  0
 32 31  1  0  0  0  0
 32 27  1  0  0  0  0
 33 32  2  0  0  0  0
 34 28  1  0  0  0  0
 36 29  1  0  0  0  0
 36 37  1  0  0  0  0
 37 38  1  0  0  0  0
 38 43  1  0  0  0  0
 38 39  2  0  0  0  0
 39 44  1  0  0  0  0
 40 45  1  0  0  0  0
 40 39  1  0  0  0  0
 41 40  2  0  0  0  0
 42 37  2  0  0  0  0
 42 41  1  0  0  0  0
 46 47  1  0  0  0  0
 46 48  1  0  0  0  0
 46 41  1  0  0  0  0
 49 46  1  0  0  0  0
M  END
>  <minimizedAffinity>
-6.64423227

$$$$

 OpenBabel03262522303D

 49 53  0  0  0  0  0  0  0  0999 V2000
   37.1460   20.6280   32.1550 C   0  0  0  0  0  0  0  0  0  0  0  0
   37.0830   19.5240   32.0450 H   0  0  0  0  0  0  0  0  0  0  0  0
   38.1230   21.0210   31.8050 H   0  0  0  0  0  0  0  0  0  0  0  0
   38.7690   22.5150   33.3270 F   0  0  0  0  0  0  0  0  0  0  0  0
   37.7700   21.9550   34.0660 C   0  0  0  0  0  0  0  0  0  0  0  0
   36.8840   20.9920   33.5860 C   0  0  0  0  0  0  0  0  0  0  0  0
   35.8980   20.4630   34.3710 C   0  0  0  0  0  0  0  0  0  0  0  0
   35.7470   20.8840   35.7090 C   0  0  0  0  0  0  0  0  0  0  0  0
   36.6160   21.8390   36.2000 C   0  0  0  0  0  0  0  0  0  0  0  0
   37.6100   22.3570   35.3780 C   0  0  0  0  0  0  0  0  0  0  0  0
   35.2860   19.7300   33.8730 H   0  0  0  0  0  0  0  0  0  0  0  0
   34.9470   20.4260   36.2730 H   0  0  0  0  0  0  0  0  0  0  0  0
   36.4900   22.1530   37.2280 H   0  0  0  0  0  0  0  0  0  0  0  0
   38.4250   23.3040   35.9630 O   0  0  0  0  0  0  0  0  0  0  0  0
   39.7420   22.9380   36.2130 C   0  0  0  0  0  0  0  0  0  0  0  0
   40.1180   21.8210   36.8720 N   0  0  0  0  0  0  0  0  0  0  0  0
   41.4200   21.5240   37.0830 C   0  0  0  0  0  3  0  0  0  0  0  0
   42.3720   22.3760   36.6150 N   0  0  0  0  0  0  0  0  0  0  0  0
   42.0830   23.5070   35.9500 C   0  0  0  0  0  0  0  0  0  0  0  0
   43.0870   24.3390   35.4950 C   0  0  0  0  0  3  0  0  0  0  0  0
   42.7660   25.4960   34.8140 C   0  0  0  0  0  0  0  0  0  0  0  0
   43.4760   26.2100   34.4190 H   0  0  0  0  0  0  0  0  0  0  0  0
   41.4350   25.7920   34.6040 C   0  0  0  0  0  0  0  0  0  0  0  0
   41.0880   26.6680   34.0860 H   0  0  0  0  0  0  0  0  0  0  0  0
   40.4320   24.9610   35.0580 C   0  0  0  0  0  3  0  0  0  0  0  0
   40.7300   23.7830   35.7500 C   0  0  0  0  0  0  0  0  0  0  0  0
   35.7750   21.3060   31.1760 S   0  0  0  0  0  0  0  0  0  0  0  0
   37.3840   24.9820   30.8060 C   0  0  0  0  0  0  0  0  0  0  0  0
   36.2780   25.7910   31.0340 C   0  0  0  0  0  0  0  0  0  0  0  0
   35.0880   25.1710   31.2910 C   0  0  0  0  0  0  0  0  0  0  0  0
   35.0480   23.8140   31.3100 N   0  0  0  0  0  0  0  0  0  0  0  0
   36.1110   23.0800   31.0910 C   0  0  0  0  0  0  0  0  0  0  0  0
   37.3420   23.6400   30.8260 N   0  0  0  0  0  0  0  0  0  0  0  0
   38.3660   25.4120   30.5960 H   0  0  0  0  0  0  0  0  0  0  0  0
   34.2080   25.7820   31.4710 H   0  0  0  0  0  0  0  0  0  0  0  0
   36.4450   27.1400   30.9880 O   0  0  0  0  0  0  0  0  0  0  0  0
   36.2180   27.9010   32.1250 C   0  0  0  0  0  0  0  0  0  0  0  0
   35.3440   28.9680   32.2550 C   0  0  0  0  0  0  0  0  0  0  0  0
   35.2500   29.5990   33.4430 C   0  0  0  0  0  0  0  0  0  0  0  0
   36.0220   29.1630   34.4860 C   0  0  0  0  0  0  0  0  0  0  0  0
   36.8910   28.0910   34.3350 C   0  0  0  0  0  0  0  0  0  0  0  0
   36.9720   27.4720   33.1340 N   0  0  0  0  0  0  0  0  0  0  0  0
   34.7910   29.2160   31.3590 H   0  0  0  0  0  0  0  0  0  0  0  0
   34.5860   30.4200   33.5640 H   0  0  0  0  0  0  0  0  0  0  0  0
   35.9490   29.6660   35.4410 H   0  0  0  0  0  0  0  0  0  0  0  0
   37.7370   27.6310   35.5170 C   0  0  0  0  0  0  0  0  0  0  0  0
   37.0260   27.2020   36.2380 H   0  0  0  0  0  0  0  0  0  0  0  0
   38.2350   28.4930   36.0000 H   0  0  0  0  0  0  0  0  0  0  0  0
   38.4190   26.8680   35.1430 H   0  0  0  0  0  0  0  0  0  0  0  0
  1  6  1  0  0  0  0
  2  1  1  0  0  0  0
  3  1  1  0  0  0  0
  4  5  1  0  0  0  0
  5 10  1  0  0  0  0
  6  5  2  0  0  0  0
  6  7  1  0  0  0  0
  7  8  2  0  0  0  0
  8  9  1  0  0  0  0
  8 12  1  0  0  0  0
  9 13  1  0  0  0  0
 10 14  1  0  0  0  0
 10  9  2  0  0  0  0
 11  7  1  0  0  0  0
 14 15  1  0  0  0  0
 15 16  1  0  0  0  0
 16 17  2  0  0  0  0
 18 17  1  0  0  0  0
 19 18  2  0  0  0  0
 20 19  1  0  0  0  0
 21 20  2  0  0  0  0
 22 21  1  0  0  0  0
 23 21  1  0  0  0  0
 23 25  2  0  0  0  0
 24 23  1  0  0  0  0
 25 26  1  0  0  0  0
 26 19  1  0  0  0  0
 26 15  2  0  0  0  0
 27  1  1  0  0  0  0
 28 33  2  0  0  0  0
 28 29  1  0  0  0  0
 29 30  2  0  0  0  0
 30 31  1  0  0  0  0
 30 35  1  0  0  0  0
 32 27  1  0  0  0  0
 32 31  2  0  0  0  0
 33 32  1  0  0  0  0
 34 28  1  0  0  0  0
 36 29  1  0  0  0  0
 36 37  1  0  0  0  0
 37 38  2  0  0  0  0
 37 42  1  0  0  0  0
 38 39  1  0  0  0  0
 39 44  1  0  0  0  0
 39 40  2  0  0  0  0
 40 45  1  0  0  0  0
 41 40  1  0  0  0  0
 41 46  1  0  0  0  0
 42 41  2  0  0  0  0
 43 38  1  0  0  0  0
 46 48  1  0  0  0  0
 46 47  1  0  0  0  0
 49 46  1  0  0  0  0
M  END
>  <minimizedAffinity>
-6.58854389

$$$$

 OpenBabel03262522303D

 49 53  0  0  0  0  0  0  0  0999 V2000
   38.9300   27.6510   31.2590 C   0  0  0  0  0  0  0  0  0  0  0  0
   39.1530   27.3070   32.2930 H   0  0  0  0  0  0  0  0  0  0  0  0
   39.7940   28.1800   30.8070 H   0  0  0  0  0  0  0  0  0  0  0  0
   37.1960   27.3690   33.3770 F   0  0  0  0  0  0  0  0  0  0  0  0
   36.9080   28.2810   32.4050 C   0  0  0  0  0  0  0  0  0  0  0  0
   37.7050   28.5160   31.2870 C   0  0  0  0  0  0  0  0  0  0  0  0
   37.3670   29.4430   30.3410 C   0  0  0  0  0  0  0  0  0  0  0  0
   36.1840   30.2000   30.4730 C   0  0  0  0  0  0  0  0  0  0  0  0
   35.3830   29.9800   31.5770 C   0  0  0  0  0  0  0  0  0  0  0  0
   35.7520   29.0290   32.5210 C   0  0  0  0  0  0  0  0  0  0  0  0
   38.0720   29.5210   29.5320 H   0  0  0  0  0  0  0  0  0  0  0  0
   35.9780   30.9160   29.6910 H   0  0  0  0  0  0  0  0  0  0  0  0
   34.4780   30.5670   31.6670 H   0  0  0  0  0  0  0  0  0  0  0  0
   34.8850   28.8860   33.5840 O   0  0  0  0  0  0  0  0  0  0  0  0
   34.9190   29.8670   34.5670 C   0  0  0  0  0  0  0  0  0  0  0  0
   36.0330   30.5160   34.9670 N   0  0  0  0  0  0  0  0  0  0  0  0
   35.9970   31.4620   35.9320 C   0  0  0  0  0  3  0  0  0  0  0  0
   34.8050   31.7650   36.5120 N   0  0  0  0  0  0  0  0  0  0  0  0
   33.6500   31.1660   36.1720 C   0  0  0  0  0  0  0  0  0  0  0  0
   32.4640   31.5090   36.7910 C   0  0  0  0  0  3  0  0  0  0  0  0
   31.2910   30.8810   36.4260 C   0  0  0  0  0  0  0  0  0  0  0  0
   30.3150   31.0780   36.8490 H   0  0  0  0  0  0  0  0  0  0  0  0
   31.3360   29.9160   35.4410 C   0  0  0  0  0  0  0  0  0  0  0  0
   30.4770   29.3740   35.0900 H   0  0  0  0  0  0  0  0  0  0  0  0
   32.5210   29.5740   34.8220 C   0  0  0  0  0  3  0  0  0  0  0  0
   33.7240   30.1950   35.1730 C   0  0  0  0  0  0  0  0  0  0  0  0
   38.5050   26.1580   30.3180 S   0  0  0  0  0  0  0  0  0  0  0  0
   37.4550   23.1550   32.7900 C   0  0  0  0  0  0  0  0  0  0  0  0
   38.6370   22.9470   33.4900 C   0  0  0  0  0  0  0  0  0  0  0  0
   39.7030   23.7400   33.1710 C   0  0  0  0  0  0  0  0  0  0  0  0
   39.5550   24.6760   32.1990 N   0  0  0  0  0  0  0  0  0  0  0  0
   38.4240   24.8460   31.5580 C   0  0  0  0  0  0  0  0  0  0  0  0
   37.3100   24.0830   31.8300 N   0  0  0  0  0  0  0  0  0  0  0  0
   36.5630   22.5580   32.9960 H   0  0  0  0  0  0  0  0  0  0  0  0
   40.6390   23.5970   33.7030 H   0  0  0  0  0  0  0  0  0  0  0  0
   38.6600   21.9780   34.4420 O   0  0  0  0  0  0  0  0  0  0  0  0
   39.2010   22.2500   35.6900 C   0  0  0  0  0  0  0  0  0  0  0  0
   40.4070   21.7930   36.1960 C   0  0  0  0  0  0  0  0  0  0  0  0
   40.7790   22.1600   37.4390 C   0  0  0  0  0  0  0  0  0  0  0  0
   39.9510   22.9760   38.1630 C   0  0  0  0  0  0  0  0  0  0  0  0
   38.7470   23.4240   37.6380 C   0  0  0  0  0  0  0  0  0  0  0  0
   38.3910   23.0430   36.3880 N   0  0  0  0  0  0  0  0  0  0  0  0
   40.9700   21.1560   35.5280 H   0  0  0  0  0  0  0  0  0  0  0  0
   41.7000   21.8210   37.8480 H   0  0  0  0  0  0  0  0  0  0  0  0
   40.2460   23.2730   39.1610 H   0  0  0  0  0  0  0  0  0  0  0  0
   37.8470   24.3310   38.4700 C   0  0  0  0  0  0  0  0  0  0  0  0
   38.3880   25.2850   38.5520 H   0  0  0  0  0  0  0  0  0  0  0  0
   37.7190   23.9230   39.4910 H   0  0  0  0  0  0  0  0  0  0  0  0
   36.9190   24.4570   37.9140 H   0  0  0  0  0  0  0  0  0  0  0  0
  1  6  1  0  0  0  0
  1  2  1  0  0  0  0
  3  1  1  0  0  0  0
  5 10  1  0  0  0  0
  5  4  1  0  0  0  0
  6  5  2  0  0  0  0
  7  8  2  0  0  0  0
  7  6  1  0  0  0  0
  8  9  1  0  0  0  0
  9 13  1  0  0  0  0
  9 10  2  0  0  0  0
 10 14  1  0  0  0  0
 11  7  1  0  0  0  0
 12  8  1  0  0  0  0
 14 15  1  0  0  0  0
 15 16  2  0  0  0  0
 15 26  1  0  0  0  0
 16 17  1  0  0  0  0
 17 18  2  0  0  0  0
 19 18  1  0  0  0  0
 19 20  1  0  0  0  0
 21 20  2  0  0  0  0
 21 22  1  0  0  0  0
 23 21  1  0  0  0  0
 24 23  1  0  0  0  0
 25 26  1  0  0  0  0
 25 23  2  0  0  0  0
 26 19  2  0  0  0  0
 27  1  1  0  0  0  0
 27 32  1  0  0  0  0
 28 34  1  0  0  0  0
 28 29  1  0  0  0  0
 29 36  1  0  0  0  0
 30 29  2  0  0  0  0
 30 35  1  0  0  0  0
 31 30  1  0  0  0  0
 32 33  1  0  0  0  0
 32 31  2  0  0  0  0
 33 28  2  0  0  0  0
 36 37  1  0  0  0  0
 37 38  2  0  0  0  0
 37 42  1  0  0  0  0
 38 39  1  0  0  0  0
 39 44  1  0  0  0  0
 39 40  2  0  0  0  0
 40 45  1  0  0  0  0
 41 40  1  0  0  0  0
 41 46  1  0  0  0  0
 42 41  2  0  0  0  0
 43 38  1  0  0  0  0
 46 47  1  0  0  0  0
 46 48  1  0  0  0  0
 49 46  1  0  0  0  0
M  END
>  <minimizedAffinity>
-6.54002857

$$$$

 OpenBabel03262522303D

 49 53  0  0  0  0  0  0  0  0999 V2000
   36.8240   27.8420   30.3480 C   0  0  0  0  0  0  0  0  0  0  0  0
   36.6830   28.0130   29.2590 H   0  0  0  0  0  0  0  0  0  0  0  0
   36.2340   26.9740   30.7080 H   0  0  0  0  0  0  0  0  0  0  0  0
   36.0850   27.6180   32.9880 F   0  0  0  0  0  0  0  0  0  0  0  0
   36.1130   28.8540   32.4150 C   0  0  0  0  0  0  0  0  0  0  0  0
   36.4700   29.0970   31.0890 C   0  0  0  0  0  0  0  0  0  0  0  0
   36.4810   30.3590   30.5640 C   0  0  0  0  0  0  0  0  0  0  0  0
   36.1270   31.4670   31.3610 C   0  0  0  0  0  0  0  0  0  0  0  0
   35.7710   31.2450   32.6770 C   0  0  0  0  0  0  0  0  0  0  0  0
   35.7690   29.9500   33.1830 C   0  0  0  0  0  0  0  0  0  0  0  0
   36.7760   30.4010   29.5300 H   0  0  0  0  0  0  0  0  0  0  0  0
   36.1580   32.4360   30.8830 H   0  0  0  0  0  0  0  0  0  0  0  0
   35.5020   32.1030   33.2780 H   0  0  0  0  0  0  0  0  0  0  0  0
   35.3980   29.8350   34.5070 O   0  0  0  0  0  0  0  0  0  0  0  0
   34.0780   30.1290   34.8230 C   0  0  0  0  0  0  0  0  0  0  0  0
   33.0050   29.4820   34.3220 N   0  0  0  0  0  0  0  0  0  0  0  0
   31.7430   29.8210   34.6720 C   0  0  0  0  0  3  0  0  0  0  0  0
   31.5570   30.8400   35.5520 N   0  0  0  0  0  0  0  0  0  0  0  0
   32.5700   31.5350   36.0970 C   0  0  0  0  0  0  0  0  0  0  0  0
   32.3280   32.5630   36.9870 C   0  0  0  0  0  3  0  0  0  0  0  0
   33.3850   33.2620   37.5340 C   0  0  0  0  0  0  0  0  0  0  0  0
   33.3000   34.0810   38.2370 H   0  0  0  0  0  0  0  0  0  0  0  0
   34.6680   32.9110   37.1720 C   0  0  0  0  0  0  0  0  0  0  0  0
   35.5530   33.3970   37.5430 H   0  0  0  0  0  0  0  0  0  0  0  0
   34.9100   31.8840   36.2830 C   0  0  0  0  0  3  0  0  0  0  0  0
   33.8580   31.1590   35.7140 C   0  0  0  0  0  0  0  0  0  0  0  0
   38.6040   27.5710   30.5840 S   0  0  0  0  0  0  0  0  0  0  0  0
   39.6470   24.7570   33.2710 C   0  0  0  0  0  0  0  0  0  0  0  0
   38.5420   23.9160   33.2340 C   0  0  0  0  0  0  0  0  0  0  0  0
   37.5260   24.2520   32.3840 C   0  0  0  0  0  0  0  0  0  0  0  0
   37.6470   25.3750   31.6300 N   0  0  0  0  0  0  0  0  0  0  0  0
   38.7050   26.1460   31.6900 C   0  0  0  0  0  0  0  0  0  0  0  0
   39.7650   25.8670   32.5240 N   0  0  0  0  0  0  0  0  0  0  0  0
   40.4960   24.5470   33.9270 H   0  0  0  0  0  0  0  0  0  0  0  0
   36.6500   23.6110   32.3360 H   0  0  0  0  0  0  0  0  0  0  0  0
   38.5380   22.8200   34.0370 O   0  0  0  0  0  0  0  0  0  0  0  0
   38.7730   22.9600   35.3960 C   0  0  0  0  0  0  0  0  0  0  0  0
   38.0250   23.6930   36.3020 C   0  0  0  0  0  0  0  0  0  0  0  0
   38.4010   23.7200   37.5970 C   0  0  0  0  0  0  0  0  0  0  0  0
   39.5150   23.0180   37.9750 C   0  0  0  0  0  0  0  0  0  0  0  0
   40.2510   22.2900   37.0520 C   0  0  0  0  0  0  0  0  0  0  0  0
   39.8560   22.2770   35.7570 N   0  0  0  0  0  0  0  0  0  0  0  0
   37.1690   24.2030   35.8800 H   0  0  0  0  0  0  0  0  0  0  0  0
   37.8410   24.2760   38.3090 H   0  0  0  0  0  0  0  0  0  0  0  0
   39.8210   23.0360   39.0130 H   0  0  0  0  0  0  0  0  0  0  0  0
   41.4870   21.5200   37.5060 C   0  0  0  0  0  0  0  0  0  0  0  0
   41.1070   20.7030   38.1380 H   0  0  0  0  0  0  0  0  0  0  0  0
   42.1370   22.1610   38.1320 H   0  0  0  0  0  0  0  0  0  0  0  0
   41.9660   21.1280   36.6100 H   0  0  0  0  0  0  0  0  0  0  0  0
  1 27  1  0  0  0  0
  1  3  1  0  0  0  0
  1  6  1  0  0  0  0
  2  1  1  0  0  0  0
  5  4  1  0  0  0  0
  5 10  1  0  0  0  0
  6  5  2  0  0  0  0
  7  6  1  0  0  0  0
  7  8  2  0  0  0  0
  8  9  1  0  0  0  0
  9 10  2  0  0  0  0
  9 13  1  0  0  0  0
 10 14  1  0  0  0  0
 11  7  1  0  0  0  0
 12  8  1  0  0  0  0
 14 15  1  0  0  0  0
 15 26  1  0  0  0  0
 16 17  1  0  0  0  0
 16 15  2  0  0  0  0
 17 18  2  0  0  0  0
 18 19  1  0  0  0  0
 19 20  1  0  0  0  0
 20 21  2  0  0  0  0
 21 22  1  0  0  0  0
 23 21  1  0  0  0  0
 23 24  1  0  0  0  0
 25 23  2  0  0  0  0
 26 19  2  0  0  0  0
 26 25  1  0  0  0  0
 27 32  1  0  0  0  0
 28 34  1  0  0  0  0
 29 28  1  0  0  0  0
 29 36  1  0  0  0  0
 30 29  2  0  0  0  0
 31 32  2  0  0  0  0
 31 30  1  0  0  0  0
 32 33  1  0  0  0  0
 33 28  2  0  0  0  0
 35 30  1  0  0  0  0
 36 37  1  0  0  0  0
 37 42  2  0  0  0  0
 37 38  1  0  0  0  0
 38 39  2  0  0  0  0
 39 40  1  0  0  0  0
 39 44  1  0  0  0  0
 40 45  1  0  0  0  0
 41 46  1  0  0  0  0
 41 40  2  0  0  0  0
 42 41  1  0  0  0  0
 43 38  1  0  0  0  0
 46 48  1  0  0  0  0
 46 47  1  0  0  0  0
 49 46  1  0  0  0  0
M  END
>  <minimizedAffinity>
-6.52377748

$$$$

 OpenBabel03262522303D

 49 53  0  0  0  0  0  0  0  0999 V2000
   35.7260   28.5130   31.8080 C   0  0  0  0  0  0  0  0  0  0  0  0
   35.1110   28.6150   30.8880 H   0  0  0  0  0  0  0  0  0  0  0  0
   35.3230   27.7340   32.4880 H   0  0  0  0  0  0  0  0  0  0  0  0
   35.3760   28.6010   34.5350 F   0  0  0  0  0  0  0  0  0  0  0  0
   35.6200   29.7620   33.8640 C   0  0  0  0  0  0  0  0  0  0  0  0
   35.8140   29.8470   32.4870 C   0  0  0  0  0  0  0  0  0  0  0  0
   36.0560   31.0400   31.8640 C   0  0  0  0  0  0  0  0  0  0  0  0
   36.1160   32.2360   32.6090 C   0  0  0  0  0  0  0  0  0  0  0  0
   35.9260   32.1690   33.9760 C   0  0  0  0  0  0  0  0  0  0  0  0
   35.6820   30.9420   34.5810 C   0  0  0  0  0  0  0  0  0  0  0  0
   36.1870   30.9600   30.7990 H   0  0  0  0  0  0  0  0  0  0  0  0
   36.3110   33.1430   32.0540 H   0  0  0  0  0  0  0  0  0  0  0  0
   35.9750   33.0930   34.5360 H   0  0  0  0  0  0  0  0  0  0  0  0
   35.5060   30.9830   35.9490 O   0  0  0  0  0  0  0  0  0  0  0  0
   34.6390   31.9480   36.4470 C   0  0  0  0  0  0  0  0  0  0  0  0
   35.0260   33.1240   36.9850 N   0  0  0  0  0  0  0  0  0  0  0  0
   34.1280   34.0210   37.4530 C   0  0  0  0  0  3  0  0  0  0  0  0
   32.8030   33.7240   37.3780 N   0  0  0  0  0  0  0  0  0  0  0  0
   32.3350   32.5770   36.8590 C   0  0  0  0  0  0  0  0  0  0  0  0
   30.9790   32.3230   36.8060 C   0  0  0  0  0  3  0  0  0  0  0  0
   30.5220   31.1370   36.2670 C   0  0  0  0  0  0  0  0  0  0  0  0
   29.4830   30.8450   36.1810 H   0  0  0  0  0  0  0  0  0  0  0  0
   31.4430   30.2270   35.7920 C   0  0  0  0  0  0  0  0  0  0  0  0
   31.1840   29.2800   35.3570 H   0  0  0  0  0  0  0  0  0  0  0  0
   32.7980   30.4810   35.8440 C   0  0  0  0  0  3  0  0  0  0  0  0
   33.2880   31.6750   36.3850 C   0  0  0  0  0  0  0  0  0  0  0  0
   37.4000   28.0930   31.2440 S   0  0  0  0  0  0  0  0  0  0  0  0
   39.1140   25.2660   33.5480 C   0  0  0  0  0  0  0  0  0  0  0  0
   38.1870   24.2360   33.4560 C   0  0  0  0  0  0  0  0  0  0  0  0
   37.0770   24.4560   32.6900 C   0  0  0  0  0  0  0  0  0  0  0  0
   36.9390   25.6550   32.0670 N   0  0  0  0  0  0  0  0  0  0  0  0
   37.8340   26.6060   32.1750 C   0  0  0  0  0  0  0  0  0  0  0  0
   38.9760   26.4500   32.9300 N   0  0  0  0  0  0  0  0  0  0  0  0
   40.0250   25.1570   34.1420 H   0  0  0  0  0  0  0  0  0  0  0  0
   36.3360   23.6660   32.6030 H   0  0  0  0  0  0  0  0  0  0  0  0
   38.4380   23.0810   34.1270 O   0  0  0  0  0  0  0  0  0  0  0  0
   38.7380   23.1210   35.4800 C   0  0  0  0  0  0  0  0  0  0  0  0
   38.0340   23.7840   36.4730 C   0  0  0  0  0  0  0  0  0  0  0  0
   38.4720   23.7150   37.7460 C   0  0  0  0  0  0  0  0  0  0  0  0
   39.6010   22.9900   38.0180 C   0  0  0  0  0  0  0  0  0  0  0  0
   40.2920   22.3330   37.0100 C   0  0  0  0  0  0  0  0  0  0  0  0
   39.8360   22.4150   35.7370 N   0  0  0  0  0  0  0  0  0  0  0  0
   37.1600   24.3210   36.1310 H   0  0  0  0  0  0  0  0  0  0  0  0
   37.9480   24.2160   38.5230 H   0  0  0  0  0  0  0  0  0  0  0  0
   39.9570   22.9320   39.0390 H   0  0  0  0  0  0  0  0  0  0  0  0
   41.5460   21.5340   37.3460 C   0  0  0  0  0  0  0  0  0  0  0  0
   41.1970   20.6720   37.9330 H   0  0  0  0  0  0  0  0  0  0  0  0
   42.2280   22.1290   37.9850 H   0  0  0  0  0  0  0  0  0  0  0  0
   41.9820   21.2100   36.4020 H   0  0  0  0  0  0  0  0  0  0  0  0
  1  6  1  0  0  0  0
  1  3  1  0  0  0  0
  2  1  1  0  0  0  0
  5  4  1  0  0  0  0
  5 10  1  0  0  0  0
  6  5  2  0  0  0  0
  7  6  1  0  0  0  0
  7  8  2  0  0  0  0
  8  9  1  0  0  0  0
  9 13  1  0  0  0  0
  9 10  2  0  0  0  0
 10 14  1  0  0  0  0
 11  7  1  0  0  0  0
 12  8  1  0  0  0  0
 14 15  1  0  0  0  0
 15 16  1  0  0  0  0
 16 17  2  0  0  0  0
 18 17  1  0  0  0  0
 19 18  2  0  0  0  0
 20 19  1  0  0  0  0
 21 20  2  0  0  0  0
 22 21  1  0  0  0  0
 23 25  2  0  0  0  0
 23 21  1  0  0  0  0
 24 23  1  0  0  0  0
 25 26  1  0  0  0  0
 26 15  2  0  0  0  0
 26 19  1  0  0  0  0
 27  1  1  0  0  0  0
 27 32  1  0  0  0  0
 28 34  1  0  0  0  0
 29 28  1  0  0  0  0
 29 36  1  0  0  0  0
 30 29  2  0  0  0  0
 31 32  2  0  0  0  0
 31 30  1  0  0  0  0
 32 33  1  0  0  0  0
 33 28  2  0  0  0  0
 35 30  1  0  0  0  0
 36 37  1  0  0  0  0
 37 42  2  0  0  0  0
 37 38  1  0  0  0  0
 38 39  2  0  0  0  0
 39 40  1  0  0  0  0
 39 44  1  0  0  0  0
 40 45  1  0  0  0  0
 41 46  1  0  0  0  0
 41 40  2  0  0  0  0
 42 41  1  0  0  0  0
 43 38  1  0  0  0  0
 46 47  1  0  0  0  0
 46 48  1  0  0  0  0
 49 46  1  0  0  0  0
M  END
>  <minimizedAffinity>
-6.51209831

$$$$

 OpenBabel03262522303D

 49 53  0  0  0  0  0  0  0  0999 V2000
   37.7890   27.6350   30.8630 C   0  0  0  0  0  0  0  0  0  0  0  0
   38.4210   28.4680   30.4880 H   0  0  0  0  0  0  0  0  0  0  0  0
   36.9910   27.3660   30.1410 H   0  0  0  0  0  0  0  0  0  0  0  0
   35.8620   29.5970   30.9340 F   0  0  0  0  0  0  0  0  0  0  0  0
   36.2560   29.0180   32.1030 C   0  0  0  0  0  0  0  0  0  0  0  0
   37.2200   28.0160   32.1980 C   0  0  0  0  0  0  0  0  0  0  0  0
   37.5780   27.4700   33.3990 C   0  0  0  0  0  0  0  0  0  0  0  0
   36.9730   27.9110   34.5940 C   0  0  0  0  0  0  0  0  0  0  0  0
   36.0140   28.9030   34.5180 C   0  0  0  0  0  0  0  0  0  0  0  0
   35.6720   29.4400   33.2820 C   0  0  0  0  0  0  0  0  0  0  0  0
   38.3340   26.7070   33.3260 H   0  0  0  0  0  0  0  0  0  0  0  0
   37.3020   27.4360   35.5070 H   0  0  0  0  0  0  0  0  0  0  0  0
   35.5570   29.2330   35.4410 H   0  0  0  0  0  0  0  0  0  0  0  0
   34.7050   30.4250   33.3140 O   0  0  0  0  0  0  0  0  0  0  0  0
   33.4060   30.0280   33.6050 C   0  0  0  0  0  0  0  0  0  0  0  0
   32.7220   29.0810   32.9280 N   0  0  0  0  0  0  0  0  0  0  0  0
   31.4570   28.7420   33.2630 C   0  0  0  0  0  3  0  0  0  0  0  0
   30.8620   29.3750   34.3100 N   0  0  0  0  0  0  0  0  0  0  0  0
   31.4720   30.3280   35.0340 C   0  0  0  0  0  0  0  0  0  0  0  0
   30.8250   30.9420   36.0890 C   0  0  0  0  0  3  0  0  0  0  0  0
   31.4720   31.9170   36.8190 C   0  0  0  0  0  0  0  0  0  0  0  0
   31.0520   32.4550   37.6590 H   0  0  0  0  0  0  0  0  0  0  0  0
   32.7620   32.2580   36.4710 C   0  0  0  0  0  0  0  0  0  0  0  0
   33.3460   33.0050   36.9790 H   0  0  0  0  0  0  0  0  0  0  0  0
   33.4090   31.6450   35.4180 C   0  0  0  0  0  3  0  0  0  0  0  0
   32.7770   30.6530   34.6620 C   0  0  0  0  0  0  0  0  0  0  0  0
   38.9170   26.2410   31.1470 S   0  0  0  0  0  0  0  0  0  0  0  0
   37.1870   22.9090   32.6090 C   0  0  0  0  0  0  0  0  0  0  0  0
   35.9790   22.9010   31.9220 C   0  0  0  0  0  0  0  0  0  0  0  0
   35.7520   23.9200   31.0400 C   0  0  0  0  0  0  0  0  0  0  0  0
   36.7040   24.8750   30.8830 N   0  0  0  0  0  0  0  0  0  0  0  0
   37.8330   24.8520   31.5480 C   0  0  0  0  0  0  0  0  0  0  0  0
   38.1270   23.8540   32.4510 N   0  0  0  0  0  0  0  0  0  0  0  0
   37.4340   22.1240   33.3280 H   0  0  0  0  0  0  0  0  0  0  0  0
   34.8150   23.9360   30.4910 H   0  0  0  0  0  0  0  0  0  0  0  0
   35.1050   21.8890   32.1650 O   0  0  0  0  0  0  0  0  0  0  0  0
   35.4970   20.5750   31.9570 C   0  0  0  0  0  0  0  0  0  0  0  0
   35.4410   19.5320   32.8680 C   0  0  0  0  0  0  0  0  0  0  0  0
   35.8680   18.3090   32.4930 C   0  0  0  0  0  0  0  0  0  0  0  0
   36.3430   18.1370   31.2200 C   0  0  0  0  0  0  0  0  0  0  0  0
   36.3910   19.1940   30.3230 C   0  0  0  0  0  0  0  0  0  0  0  0
   35.9580   20.4150   30.7200 N   0  0  0  0  0  0  0  0  0  0  0  0
   35.0460   19.7960   33.8390 H   0  0  0  0  0  0  0  0  0  0  0  0
   35.8340   17.4950   33.1750 H   0  0  0  0  0  0  0  0  0  0  0  0
   36.6870   17.1570   30.9150 H   0  0  0  0  0  0  0  0  0  0  0  0
   36.9270   18.9690   28.9130 C   0  0  0  0  0  0  0  0  0  0  0  0
   36.1840   18.3280   28.4160 H   0  0  0  0  0  0  0  0  0  0  0  0
   37.8860   18.4180   28.9440 H   0  0  0  0  0  0  0  0  0  0  0  0
   36.9810   19.9450   28.4330 H   0  0  0  0  0  0  0  0  0  0  0  0
  1 27  1  0  0  0  0
  1  6  1  0  0  0  0
  2  1  1  0  0  0  0
  3  1  1  0  0  0  0
  4  5  1  0  0  0  0
  5  6  2  0  0  0  0
  5 10  1  0  0  0  0
  6  7  1  0  0  0  0
  7  8  2  0  0  0  0
  8 12  1  0  0  0  0
  9  8  1  0  0  0  0
  9 13  1  0  0  0  0
 10 14  1  0  0  0  0
 10  9  2  0  0  0  0
 11  7  1  0  0  0  0
 14 15  1  0  0  0  0
 15 26  1  0  0  0  0
 16 17  1  0  0  0  0
 16 15  2  0  0  0  0
 17 18  2  0  0  0  0
 18 19  1  0  0  0  0
 19 20  1  0  0  0  0
 20 21  2  0  0  0  0
 21 22  1  0  0  0  0
 23 21  1  0  0  0  0
 23 24  1  0  0  0  0
 25 23  2  0  0  0  0
 26 19  2  0  0  0  0
 26 25  1  0  0  0  0
 27 32  1  0  0  0  0
 28 34  1  0  0  0  0
 29 36  1  0  0  0  0
 29 28  2  0  0  0  0
 30 29  1  0  0  0  0
 31 30  2  0  0  0  0
 31 32  1  0  0  0  0
 32 33  2  0  0  0  0
 33 28  1  0  0  0  0
 35 30  1  0  0  0  0
 37 36  1  0  0  0  0
 37 38  1  0  0  0  0
 38 43  1  0  0  0  0
 39 38  2  0  0  0  0
 39 44  1  0  0  0  0
 40 39  1  0  0  0  0
 41 42  1  0  0  0  0
 41 40  2  0  0  0  0
 42 37  2  0  0  0  0
 45 40  1  0  0  0  0
 46 48  1  0  0  0  0
 46 41  1  0  0  0  0
 47 46  1  0  0  0  0
 49 46  1  0  0  0  0
M  END
>  <minimizedAffinity>
-6.47239733

$$$$

 OpenBabel03262522303D

 49 53  0  0  0  0  0  0  0  0999 V2000
   35.6430   28.8430   31.9700 C   0  0  0  0  0  0  0  0  0  0  0  0
   35.6620   29.0270   30.8740 H   0  0  0  0  0  0  0  0  0  0  0  0
   34.7200   28.3120   32.2830 H   0  0  0  0  0  0  0  0  0  0  0  0
   35.0830   28.9160   34.6630 F   0  0  0  0  0  0  0  0  0  0  0  0
   35.4850   30.0610   34.0420 C   0  0  0  0  0  0  0  0  0  0  0  0
   35.7980   30.1520   32.6870 C   0  0  0  0  0  0  0  0  0  0  0  0
   36.1970   31.3270   32.1150 C   0  0  0  0  0  0  0  0  0  0  0  0
   36.3060   32.4990   32.8920 C   0  0  0  0  0  0  0  0  0  0  0  0
   36.0010   32.4260   34.2380 C   0  0  0  0  0  0  0  0  0  0  0  0
   35.5970   31.2170   34.7910 C   0  0  0  0  0  0  0  0  0  0  0  0
   36.4060   31.2540   31.0620 H   0  0  0  0  0  0  0  0  0  0  0  0
   36.6270   33.3930   32.3770 H   0  0  0  0  0  0  0  0  0  0  0  0
   36.0880   33.3320   34.8230 H   0  0  0  0  0  0  0  0  0  0  0  0
   35.3150   31.2510   36.1410 O   0  0  0  0  0  0  0  0  0  0  0  0
   34.4400   32.2350   36.5810 C   0  0  0  0  0  0  0  0  0  0  0  0
   34.8180   33.4240   37.0980 N   0  0  0  0  0  0  0  0  0  0  0  0
   33.9120   34.3400   37.5100 C   0  0  0  0  0  3  0  0  0  0  0  0
   32.5880   34.0520   37.3980 N   0  0  0  0  0  0  0  0  0  0  0  0
   32.1290   32.8930   36.8950 C   0  0  0  0  0  0  0  0  0  0  0  0
   30.7730   32.6470   36.8020 C   0  0  0  0  0  3  0  0  0  0  0  0
   30.3250   31.4500   36.2820 C   0  0  0  0  0  0  0  0  0  0  0  0
   29.2870   31.1640   36.1680 H   0  0  0  0  0  0  0  0  0  0  0  0
   31.2540   30.5210   35.8650 C   0  0  0  0  0  0  0  0  0  0  0  0
   31.0020   29.5620   35.4480 H   0  0  0  0  0  0  0  0  0  0  0  0
   32.6090   30.7660   35.9570 C   0  0  0  0  0  3  0  0  0  0  0  0
   33.0900   31.9710   36.4800 C   0  0  0  0  0  0  0  0  0  0  0  0
   37.1240   27.8600   32.3370 S   0  0  0  0  0  0  0  0  0  0  0  0
   36.9890   23.9080   31.5610 C   0  0  0  0  0  0  0  0  0  0  0  0
   35.7150   23.7760   31.0240 C   0  0  0  0  0  0  0  0  0  0  0  0
   34.9550   24.9070   30.9240 C   0  0  0  0  0  0  0  0  0  0  0  0
   35.4770   26.0860   31.3490 N   0  0  0  0  0  0  0  0  0  0  0  0
   36.6840   26.1750   31.8520 C   0  0  0  0  0  0  0  0  0  0  0  0
   37.5030   25.0760   31.9810 N   0  0  0  0  0  0  0  0  0  0  0  0
   37.6500   23.0450   31.6690 H   0  0  0  0  0  0  0  0  0  0  0  0
   33.9550   24.8300   30.5070 H   0  0  0  0  0  0  0  0  0  0  0  0
   35.3050   22.5400   30.6320 O   0  0  0  0  0  0  0  0  0  0  0  0
   35.5690   21.4400   31.4350 C   0  0  0  0  0  0  0  0  0  0  0  0
   35.1460   21.2360   32.7380 C   0  0  0  0  0  0  0  0  0  0  0  0
   35.4980   20.1000   33.3730 C   0  0  0  0  0  0  0  0  0  0  0  0
   36.2640   19.1810   32.7070 C   0  0  0  0  0  0  0  0  0  0  0  0
   36.6780   19.4050   31.4010 C   0  0  0  0  0  0  0  0  0  0  0  0
   36.3140   20.5530   30.7820 N   0  0  0  0  0  0  0  0  0  0  0  0
   34.5460   22.0350   33.1540 H   0  0  0  0  0  0  0  0  0  0  0  0
   35.1840   19.9230   34.3730 H   0  0  0  0  0  0  0  0  0  0  0  0
   36.5490   18.2680   33.2120 H   0  0  0  0  0  0  0  0  0  0  0  0
   37.5310   18.3620   30.6880 C   0  0  0  0  0  0  0  0  0  0  0  0
   36.8700   17.4970   30.5350 H   0  0  0  0  0  0  0  0  0  0  0  0
   38.3720   18.0390   31.3310 H   0  0  0  0  0  0  0  0  0  0  0  0
   37.8320   18.7940   29.7340 H   0  0  0  0  0  0  0  0  0  0  0  0
  1  3  1  0  0  0  0
  1 27  1  0  0  0  0
  1  6  1  0  0  0  0
  2  1  1  0  0  0  0
  5  4  1  0  0  0  0
  5 10  1  0  0  0  0
  6  5  2  0  0  0  0
  7  6  1  0  0  0  0
  7  8  2  0  0  0  0
  8  9  1  0  0  0  0
  9 10  2  0  0  0  0
  9 13  1  0  0  0  0
 10 14  1  0  0  0  0
 11  7  1  0  0  0  0
 12  8  1  0  0  0  0
 14 15  1  0  0  0  0
 15 16  1  0  0  0  0
 16 17  2  0  0  0  0
 18 17  1  0  0  0  0
 19 18  2  0  0  0  0
 20 19  1  0  0  0  0
 21 20  2  0  0  0  0
 22 21  1  0  0  0  0
 23 25  2  0  0  0  0
 23 21  1  0  0  0  0
 24 23  1  0  0  0  0
 25 26  1  0  0  0  0
 26 15  2  0  0  0  0
 26 19  1  0  0  0  0
 28 34  1  0  0  0  0
 28 33  1  0  0  0  0
 29 28  2  0  0  0  0
 30 29  1  0  0  0  0
 30 31  2  0  0  0  0
 31 32  1  0  0  0  0
 32 33  2  0  0  0  0
 32 27  1  0  0  0  0
 35 30  1  0  0  0  0
 36 29  1  0  0  0  0
 36 37  1  0  0  0  0
 37 38  1  0  0  0  0
 38 43  1  0  0  0  0
 38 39  2  0  0  0  0
 39 44  1  0  0  0  0
 40 45  1  0  0  0  0
 40 39  1  0  0  0  0
 41 40  2  0  0  0  0
 42 41  1  0  0  0  0
 42 37  2  0  0  0  0
 46 48  1  0  0  0  0
 46 41  1  0  0  0  0
 47 46  1  0  0  0  0
 49 46  1  0  0  0  0
M  END
>  <minimizedAffinity>
-6.36454964

$$$$

 OpenBabel03262522303D

 49 53  0  0  0  0  0  0  0  0999 V2000
   37.8990   26.2420   30.8590 C   0  0  0  0  0  0  0  0  0  0  0  0
   37.2470   26.6950   30.0820 H   0  0  0  0  0  0  0  0  0  0  0  0
   37.8890   25.1330   30.8100 H   0  0  0  0  0  0  0  0  0  0  0  0
   36.7300   28.7280   31.0070 F   0  0  0  0  0  0  0  0  0  0  0  0
   36.8920   28.0070   32.1520 C   0  0  0  0  0  0  0  0  0  0  0  0
   37.4690   26.7390   32.2080 C   0  0  0  0  0  0  0  0  0  0  0  0
   37.6080   26.0600   33.3850 C   0  0  0  0  0  0  0  0  0  0  0  0
   37.1650   26.6310   34.5960 C   0  0  0  0  0  0  0  0  0  0  0  0
   36.5900   27.8870   34.5590 C   0  0  0  0  0  0  0  0  0  0  0  0
   36.4630   28.5540   33.3460 C   0  0  0  0  0  0  0  0  0  0  0  0
   38.0690   25.0930   33.2820 H   0  0  0  0  0  0  0  0  0  0  0  0
   37.3040   26.0400   35.4900 H   0  0  0  0  0  0  0  0  0  0  0  0
   36.2540   28.3140   35.4950 H   0  0  0  0  0  0  0  0  0  0  0  0
   35.8770   29.8010   33.4170 O   0  0  0  0  0  0  0  0  0  0  0  0
   34.5490   29.8540   33.8220 C   0  0  0  0  0  0  0  0  0  0  0  0
   33.5270   29.2400   33.1900 N   0  0  0  0  0  0  0  0  0  0  0  0
   32.2540   29.3340   33.6370 C   0  0  0  0  0  3  0  0  0  0  0  0
   32.0030   30.0670   34.7550 N   0  0  0  0  0  0  0  0  0  0  0  0
   32.9630   30.7100   35.4430 C   0  0  0  0  0  0  0  0  0  0  0  0
   32.6560   31.4430   36.5720 C   0  0  0  0  0  3  0  0  0  0  0  0
   33.6580   32.0940   37.2620 C   0  0  0  0  0  0  0  0  0  0  0  0
   33.5210   32.6910   38.1550 H   0  0  0  0  0  0  0  0  0  0  0  0
   34.9540   31.9940   36.7990 C   0  0  0  0  0  0  0  0  0  0  0  0
   35.7980   32.4650   37.2680 H   0  0  0  0  0  0  0  0  0  0  0  0
   35.2600   31.2610   35.6710 C   0  0  0  0  0  3  0  0  0  0  0  0
   34.2640   30.5920   34.9530 C   0  0  0  0  0  0  0  0  0  0  0  0
   39.5650   26.8990   30.5580 S   0  0  0  0  0  0  0  0  0  0  0  0
   41.7360   26.4250   33.9190 C   0  0  0  0  0  0  0  0  0  0  0  0
   42.0100   25.0640   33.8810 C   0  0  0  0  0  0  0  0  0  0  0  0
   41.5160   24.3530   32.8240 C   0  0  0  0  0  0  0  0  0  0  0  0
   40.7910   25.0050   31.8790 N   0  0  0  0  0  0  0  0  0  0  0  0
   40.5510   26.2910   31.9450 C   0  0  0  0  0  0  0  0  0  0  0  0
   41.0200   27.0670   32.9820 N   0  0  0  0  0  0  0  0  0  0  0  0
   42.1020   27.0530   34.7350 H   0  0  0  0  0  0  0  0  0  0  0  0
   41.7160   23.2860   32.7710 H   0  0  0  0  0  0  0  0  0  0  0  0
   42.7480   24.5260   34.8880 O   0  0  0  0  0  0  0  0  0  0  0  0
   42.1940   23.5490   35.7020 C   0  0  0  0  0  0  0  0  0  0  0  0
   42.8270   22.4260   36.2100 C   0  0  0  0  0  0  0  0  0  0  0  0
   42.1300   21.5760   36.9910 C   0  0  0  0  0  0  0  0  0  0  0  0
   40.8160   21.8510   37.2590 C   0  0  0  0  0  0  0  0  0  0  0  0
   40.2000   22.9820   36.7420 C   0  0  0  0  0  0  0  0  0  0  0  0
   40.9170   23.8230   35.9580 N   0  0  0  0  0  0  0  0  0  0  0  0
   43.8650   22.3210   35.9260 H   0  0  0  0  0  0  0  0  0  0  0  0
   42.5960   20.7080   37.3900 H   0  0  0  0  0  0  0  0  0  0  0  0
   40.2530   21.1710   37.8860 H   0  0  0  0  0  0  0  0  0  0  0  0
   38.7350   23.2590   37.0590 C   0  0  0  0  0  0  0  0  0  0  0  0
   38.7070   23.4990   38.1320 H   0  0  0  0  0  0  0  0  0  0  0  0
   38.1220   22.3510   36.8970 H   0  0  0  0  0  0  0  0  0  0  0  0
   38.4360   24.1180   36.4610 H   0  0  0  0  0  0  0  0  0  0  0  0
  1  6  1  0  0  0  0
  2  1  1  0  0  0  0
  3  1  1  0  0  0  0
  4  5  1  0  0  0  0
  5  6  2  0  0  0  0
  5 10  1  0  0  0  0
  6  7  1  0  0  0  0
  7  8  2  0  0  0  0
  8 12  1  0  0  0  0
  9  8  1  0  0  0  0
  9 13  1  0  0  0  0
 10 14  1  0  0  0  0
 10  9  2  0  0  0  0
 11  7  1  0  0  0  0
 14 15  1  0  0  0  0
 15 26  1  0  0  0  0
 16 17  1  0  0  0  0
 16 15  2  0  0  0  0
 17 18  2  0  0  0  0
 18 19  1  0  0  0  0
 19 20  1  0  0  0  0
 20 21  2  0  0  0  0
 21 22  1  0  0  0  0
 23 21  1  0  0  0  0
 23 24  1  0  0  0  0
 25 23  2  0  0  0  0
 26 19  2  0  0  0  0
 26 25  1  0  0  0  0
 27  1  1  0  0  0  0
 27 32  1  0  0  0  0
 28 34  1  0  0  0  0
 29 28  1  0  0  0  0
 29 36  1  0  0  0  0
 30 29  2  0  0  0  0
 31 32  2  0  0  0  0
 31 30  1  0  0  0  0
 32 33  1  0  0  0  0
 33 28  2  0  0  0  0
 35 30  1  0  0  0  0
 36 37  1  0  0  0  0
 37 42  2  0  0  0  0
 37 38  1  0  0  0  0
 38 39  2  0  0  0  0
 39 40  1  0  0  0  0
 39 44  1  0  0  0  0
 40 45  1  0  0  0  0
 41 46  1  0  0  0  0
 41 40  2  0  0  0  0
 42 41  1  0  0  0  0
 43 38  1  0  0  0  0
 46 47  1  0  0  0  0
 48 46  1  0  0  0  0
 49 46  1  0  0  0  0
M  END
>  <minimizedAffinity>
-6.32934618

$$$$
