REMARK  Name = 
REMARK  4 active torsions:
REMARK  status: ('A' for Active; 'I' for Inactive)
REMARK    1  A    between atoms: C_3  and  C_7
REMARK    2  A    between atoms: C_5  and  O_17
REMARK    3  A    between atoms: C_11  and  C_13
REMARK    4  A    between atoms: O_17  and  C_20
REMARK                            x       y       z     vdW  Elec       q    Type
REMARK                         _______ _______ _______ _____ _____    ______ ____
ROOT
ATOM      1  N   UNL     1      33.289  27.170  47.000  0.00  0.00    +0.000 N 
ATOM      2  C   UNL     1      34.170  27.008  47.997  0.00  0.00    +0.000 A 
ATOM      3  C   UNL     1      34.404  28.057  48.877  0.00  0.00    +0.000 A 
ATOM      4  C   UNL     1      33.718  29.246  48.699  0.00  0.00    +0.000 A 
ATOM      5  O   UNL     1      33.776  30.312  49.374  0.00  0.00    +0.000 OA
ATOM      6  N   UNL     1      32.839  29.361  47.676  0.00  0.00    +0.000 N 
ATOM      7  C   UNL     1      32.623  28.322  46.825  0.00  0.00    +0.000 A 
ATOM      8  O   UNL     1      31.810  28.384  45.854  0.00  0.00    +0.000 OA
ATOM      9  H   UNL     1      33.131  26.368  46.353  0.00  0.00    +0.000 HD
ATOM     10  H   UNL     1      34.736  26.133  48.205  0.00  0.00    +0.000 HD
ATOM     11  C   UNL     1      32.078  30.520  47.389  0.00  0.00    +0.000 A 
ATOM     12  N   UNL     1      32.545  31.771  47.582  0.00  0.00    +0.000 NA
ATOM     13  C   UNL     1      31.820  32.876  47.307  0.00  0.00    +0.000 A 
ATOM     14  N   UNL     1      30.556  32.758  46.812  0.00  0.00    +0.000 NA
ATOM     15  C   UNL     1      30.054  31.524  46.605  0.00  0.00    +0.000 A 
ATOM     16  C   UNL     1      28.770  31.405  46.102  0.00  0.00    +0.000 A 
ATOM     17  C   UNL     1      28.214  30.163  45.874  0.00  0.00    +0.000 A 
ATOM     18  H   UNL     1      27.205  30.072  45.478  0.00  0.00    +0.000 HD
ATOM     19  C   UNL     1      28.938  29.021  46.148  0.00  0.00    +0.000 A 
ATOM     20  H   UNL     1      28.457  28.079  45.952  0.00  0.00    +0.000 HD
ATOM     21  C   UNL     1      30.218  29.163  46.649  0.00  0.00    +0.000 A 
ATOM     22  C   UNL     1      30.796  30.395  46.886  0.00  0.00    +0.000 A 
ENDROOT
BRANCH   3  23
ATOM     23  O   UNL     1      35.262  28.099  49.960  0.00  0.00    +0.000 OA
BRANCH  23  28
ATOM     24  C   UNL     1      37.814  30.390  51.090  0.00  0.00    +0.000 A 
ATOM     25  C   UNL     1      38.221  30.977  49.883  0.00  0.00    +0.000 A 
ATOM     26  C   UNL     1      37.589  30.550  48.725  0.00  0.00    +0.000 A 
ATOM     27  N   UNL     1      36.638  29.610  48.846  0.00  0.00    +0.000 NA
ATOM     28  C   UNL     1      36.262  29.058  50.014  0.00  0.00    +0.000 A 
ATOM     29  N   UNL     1      36.862  29.458  51.153  0.00  0.00    +0.000 NA
ATOM     30  H   UNL     1      38.306  30.720  52.008  0.00  0.00    +0.000 HD
ATOM     31  H   UNL     1      38.982  31.722  49.832  0.00  0.00    +0.000 HD
BRANCH  26  32
ATOM     32  C   UNL     1      37.899  31.079  47.416  0.00  0.00    +0.000 A 
ATOM     33  C   UNL     1      37.116  30.755  46.313  0.00  0.00    +0.000 A 
ATOM     34  C   UNL     1      37.359  31.234  45.054  0.00  0.00    +0.000 A 
ATOM     35  N   UNL     1      38.411  32.065  44.861  0.00  0.00    +0.000 NA
ATOM     36  C   UNL     1      39.156  32.367  45.936  0.00  0.00    +0.000 A 
ATOM     37  N   UNL     1      38.938  31.909  47.188  0.00  0.00    +0.000 NA
ATOM     38  H   UNL     1      36.254  30.086  46.423  0.00  0.00    +0.000 HD
ATOM     39  H   UNL     1      36.755  30.988  44.188  0.00  0.00    +0.000 HD
BRANCH  36  40
ATOM     40  C   UNL     1      40.319  33.277  45.757  0.00  0.00    +0.000 C 
ATOM     41  F   UNL     1      40.418  34.068  46.924  0.00  0.00    +0.000 F 
ATOM     42  F   UNL     1      41.469  32.584  45.523  0.00  0.00    +0.000 F 
ATOM     43  F   UNL     1      40.102  34.185  44.734  0.00  0.00    +0.000 F 
ENDBRANCH  36  40
ENDBRANCH  26  32
ENDBRANCH  23  28
ENDBRANCH   3  23
TORSDOF 4
