
     RDKit          3D

 39 42  0  0  0  0  0  0  0  0999 V2000
   33.5913   28.7144   49.0333 N   0  0  0  0  0  0  0  0  0  0  0  0
   34.4392   29.8745   48.9364 C   0  0  2  0  0  0  0  0  0  0  0  0
   34.3725   30.3905   47.5093 C   0  0  0  0  0  0  0  0  0  0  0  0
   33.2492   29.8588   46.8345 O   0  0  0  0  0  0  0  0  0  0  0  0
   33.5554   28.4960   46.6523 C   0  0  0  0  0  0  0  0  0  0  0  0
   33.9196   27.8216   47.9516 C   0  0  2  0  0  0  0  0  0  0  0  0
   33.1775   26.6309   48.1234 O   0  0  0  0  0  0  0  0  0  0  0  0
   36.2002   29.4218   49.2766 S   0  0  0  0  0  0  0  0  0  0  0  0
   37.2711   30.7584   48.8387 C   0  0  0  0  0  0  0  0  0  0  0  0
   37.2194   31.8714   49.6679 C   0  0  0  0  0  0  0  0  0  0  0  0
   38.0536   32.9317   49.3526 C   0  0  0  0  0  0  0  0  0  0  0  0
   38.8737   32.8381   48.2619 N   0  0  0  0  0  0  0  0  0  0  0  0
   38.9094   31.7468   47.4668 C   0  0  0  0  0  0  0  0  0  0  0  0
   38.0940   30.7838   47.8258 N   0  0  0  0  0  0  0  0  0  0  0  0
   32.6180   29.0381   48.9930 H   0  0  0  0  0  0  0  0  0  0  0  0
   34.1961   30.6713   49.6641 H   0  0  0  0  0  0  0  0  0  0  0  0
   34.3076   31.4931   47.5360 H   0  0  0  0  0  0  0  0  0  0  0  0
   35.2670   30.0540   46.9476 H   0  0  0  0  0  0  0  0  0  0  0  0
   32.7443   27.9663   46.1143 H   0  0  0  0  0  0  0  0  0  0  0  0
   34.4550   28.4775   46.0017 H   0  0  0  0  0  0  0  0  0  0  0  0
   34.9805   27.5343   48.0009 H   0  0  0  0  0  0  0  0  0  0  0  0
   32.2424   26.8171   48.3731 H   0  0  0  0  0  0  0  0  0  0  0  0
   36.6012   32.0160   50.5406 H   0  0  0  0  0  0  0  0  0  0  0  0
   38.0623   33.8276   49.9573 H   0  0  0  0  0  0  0  0  0  0  0  0
   39.8522   31.8821   46.3791 C   0  0  0  0  0  0  0  0  0  0  0  0
   39.7655   32.8601   45.4416 N   0  0  0  0  0  0  0  0  0  0  0  0
   40.5942   33.0332   44.4289 C   0  0  0  0  0  0  0  0  0  0  0  0
   41.6487   32.1930   44.2512 N   0  0  0  0  0  0  0  0  0  0  0  0
   41.8450   31.1671   45.1290 C   0  0  0  0  0  0  0  0  0  0  0  0
   42.9068   30.3231   44.9478 C   0  0  0  0  0  0  0  0  0  0  0  0
   43.1232   29.2930   45.8098 C   0  0  0  0  0  0  0  0  0  0  0  0
   43.9854   28.6840   45.5827 H   0  0  0  0  0  0  0  0  0  0  0  0
   42.2327   29.1457   46.8575 C   0  0  0  0  0  0  0  0  0  0  0  0
   42.4293   28.3144   47.5312 H   0  0  0  0  0  0  0  0  0  0  0  0
   41.1803   30.0225   46.9948 C   0  0  0  0  0  0  0  0  0  0  0  0
   40.9368   31.0706   46.1412 C   0  0  0  0  0  0  0  0  0  0  0  0
   40.3893   33.8685   43.7594 H   0  0  0  0  0  0  0  0  0  0  0  0
   43.5560   30.5172   44.0932 H   0  0  0  0  0  0  0  0  0  0  0  0
   40.5695   29.7992   47.8416 H   0  0  0  0  0  0  0  0  0  0  0  0
  2  1  1  0
  2  8  1  0
  3  2  1  0
  4  3  1  0
  5  4  1  0
  5  6  1  0
  6  7  1  0
  6  1  1  0
  9  8  1  0
  9 10  2  0
 11 10  1  0
 12 11  2  0
 13 14  2  0
 13 12  1  0
 14  9  1  0
  1 15  1  0
  2 16  1  1
  3 17  1  0
  3 18  1  0
  5 19  1  0
  5 20  1  0
  6 21  1  6
  7 22  1  0
 10 23  1  0
 11 24  1  0
 25 26  2  0
 26 27  1  0
 27 28  2  0
 28 29  1  0
 29 30  2  0
 30 31  1  0
 31 32  1  0
 31 33  2  0
 33 34  1  0
 33 35  1  0
 35 36  2  0
 36 25  1  0
 36 29  1  0
 27 37  1  0
 30 38  1  0
 35 39  1  0
 13 25  1  0
M  ISO  8  15   5  16  13  17  13  18  13  19  13  20  13  21  13  22   3
M  ISO  4  23  14  24  14  32  16  34  16
M  END
>  <DihAtoms>  (1) 
13,12,24,25

>  <DihDeg>  (1) 
-179.9988690600928

$$$$
