REMARK  Name = 
REMARK  3 active torsions:
REMARK  status: ('A' for Active; 'I' for Inactive)
REMARK    1  A    between atoms: C_1  and  C_15
REMARK    2  A    between atoms: C_11  and  N_17
REMARK    3  A    between atoms: C_13  and  C_26
REMARK                            x       y       z     vdW  Elec       q    Type
REMARK                         _______ _______ _______ _____ _____    ______ ____
ROOT
ATOM      1  C   UNL     1      37.564  30.204  50.777  0.00  0.00    +0.000 A 
ATOM      2  C   UNL     1      38.249  31.296  50.226  0.00  0.00    +0.000 A 
ATOM      3  C   UNL     1      37.762  31.789  49.007  0.00  0.00    +0.000 A 
ATOM      4  N   UNL     1      36.708  31.180  48.494  0.00  0.00    +0.000 NA
ATOM      5  C   UNL     1      36.042  30.159  48.979  0.00  0.00    +0.000 A 
ATOM      6  N   UNL     1      36.527  29.718  50.130  0.00  0.00    +0.000 NA
ATOM      7  H   UNL     1      39.082  31.682  50.751  0.00  0.00    +0.000 HD
ENDROOT
BRANCH   5   8
ATOM      8  C   UNL     1      34.873  29.423  48.525  0.00  0.00    +0.000 A 
ATOM      9  N   UNL     1      34.035  28.769  49.380  0.00  0.00    +0.000 NA
ATOM     10  C   UNL     1      32.954  28.119  48.963  0.00  0.00    +0.000 A 
ATOM     11  N   UNL     1      32.578  28.038  47.681  0.00  0.00    +0.000 NA
ATOM     12  C   UNL     1      33.360  28.662  46.769  0.00  0.00    +0.000 A 
ATOM     13  C   UNL     1      32.988  28.585  45.446  0.00  0.00    +0.000 A 
ATOM     14  C   UNL     1      33.749  29.197  44.480  0.00  0.00    +0.000 A 
ATOM     15  C   UNL     1      34.872  29.870  44.908  0.00  0.00    +0.000 A 
ATOM     16  C   UNL     1      35.205  29.919  46.248  0.00  0.00    +0.000 A 
ATOM     17  C   UNL     1      34.468  29.323  47.225  0.00  0.00    +0.000 A 
ATOM     18  H   UNL     1      32.286  27.593  49.673  0.00  0.00    +0.000 HD
ATOM     19  H   UNL     1      32.099  28.050  45.123  0.00  0.00    +0.000 HD
ATOM     20  H   UNL     1      33.474  29.149  43.437  0.00  0.00    +0.000 HD
ATOM     21  H   UNL     1      35.450  30.341  44.111  0.00  0.00    +0.000 HD
ATOM     22  H   UNL     1      36.115  30.462  46.413  0.00  0.00    +0.000 HD
ENDBRANCH   5   8
BRANCH   3  23
ATOM     23  C   UNL     1      38.493  32.938  48.541  0.00  0.00    +0.000 A 
ATOM     24  N   UNL     1      38.940  33.885  49.390  0.00  0.00    +0.000 NA
ATOM     25  C   UNL     1      39.613  34.979  49.033  0.00  0.00    +0.000 A 
ATOM     26  N   UNL     1      39.918  35.252  47.763  0.00  0.00    +0.000 NA
ATOM     27  C   UNL     1      39.520  34.373  46.825  0.00  0.00    +0.000 A 
ATOM     28  C   UNL     1      39.794  34.611  45.497  0.00  0.00    +0.000 A 
ATOM     29  C   UNL     1      39.391  33.753  44.522  0.00  0.00    +0.000 A 
ATOM     30  H   UNL     1      39.606  33.939  43.481  0.00  0.00    +0.000 HD
ATOM     31  C   UNL     1      38.683  32.609  44.909  0.00  0.00    +0.000 A 
ATOM     32  H   UNL     1      38.367  31.934  44.129  0.00  0.00    +0.000 HD
ATOM     33  C   UNL     1      38.438  32.422  46.248  0.00  0.00    +0.000 A 
ATOM     34  C   UNL     1      38.829  33.263  47.256  0.00  0.00    +0.000 A 
ENDBRANCH   3  23
BRANCH   1  35
ATOM     35  N   UNL     1      37.975  29.624  52.022  0.00  0.00    +0.000 N 
ATOM     36  H   UNL     1      38.555  28.771  51.822  0.00  0.00    +0.000 HD
ATOM     37  H   UNL     1      37.719  30.017  52.947  0.00  0.00    +0.000 HD
ENDBRANCH   1  35
TORSDOF 3
