
     RDKit          3D

 35 38  0  0  0  0  0  0  0  0999 V2000
   37.5531   30.1871   50.7635 C   0  0  0  0  0  0  0  0  0  0  0  0
   38.2280   31.2280   50.0810 C   0  0  0  0  0  0  0  0  0  0  0  0
   37.7483   31.5992   48.8276 C   0  0  0  0  0  0  0  0  0  0  0  0
   36.6750   30.9478   48.3423 N   0  0  0  0  0  0  0  0  0  0  0  0
   36.0408   29.9706   48.9821 C   0  0  0  0  0  0  0  0  0  0  0  0
   36.5026   29.6004   50.2086 N   0  0  0  0  0  0  0  0  0  0  0  0
   34.8702   29.2863   48.4264 C   0  0  0  0  0  0  0  0  0  0  0  0
   34.4440   28.0976   48.9268 C   0  0  0  0  0  0  0  0  0  0  0  0
   33.3269   27.5946   48.3073 C   0  0  0  0  0  0  0  0  0  0  0  0
   32.6802   28.2195   47.2717 C   0  0  0  0  0  0  0  0  0  0  0  0
   33.1797   29.4438   46.8097 C   0  0  0  0  0  0  0  0  0  0  0  0
   34.2608   29.9183   47.4179 N   0  0  0  0  0  0  0  0  0  0  0  0
   37.9783   29.7517   52.0452 N   0  0  0  0  0  0  0  0  0  0  0  0
   39.0709   31.6811   50.5540 H   0  0  0  0  0  0  0  0  0  0  0  0
   38.2393   32.3820   48.2912 H   0  0  0  0  0  0  0  0  0  0  0  0
   34.9795   27.6359   49.7432 H   0  0  0  0  0  0  0  0  0  0  0  0
   32.9320   26.6302   48.6696 H   0  0  0  0  0  0  0  0  0  0  0  0
   31.8224   27.7449   46.8616 H   0  0  0  0  0  0  0  0  0  0  0  0
   37.8623   28.7602   52.3143 H   0  0  0  0  0  0  0  0  0  0  0  0
   38.4135   30.4076   52.7433 H   0  0  0  0  0  0  0  0  0  0  0  0
   32.4054   30.0013   45.7133 C   0  0  0  0  0  0  0  0  0  0  0  0
   32.5298   31.2815   45.3278 N   0  0  0  0  0  0  0  0  0  0  0  0
   31.8432   31.8427   44.3278 C   0  0  0  0  0  0  0  0  0  0  0  0
   30.9479   31.1709   43.5995 N   0  0  0  0  0  0  0  0  0  0  0  0
   30.7529   29.8728   43.9134 C   0  0  0  0  0  0  0  0  0  0  0  0
   29.8388   29.1492   43.1854 C   0  0  0  0  0  0  0  0  0  0  0  0
   29.5980   27.8154   43.4624 C   0  0  0  0  0  0  0  0  0  0  0  0
   28.8613   27.3484   42.8280 H   0  0  0  0  0  0  0  0  0  0  0  0
   30.3300   27.2546   44.5132 C   0  0  0  0  0  0  0  0  0  0  0  0
   30.1038   26.2058   44.6898 H   0  0  0  0  0  0  0  0  0  0  0  0
   31.2207   28.0167   45.1992 C   0  0  0  0  0  0  0  0  0  0  0  0
   31.4793   29.3328   44.9493 C   0  0  0  0  0  0  0  0  0  0  0  0
   32.0471   32.9027   44.1215 H   0  0  0  0  0  0  0  0  0  0  0  0
   29.3029   29.6645   42.3731 H   0  0  0  0  0  0  0  0  0  0  0  0
   31.7167   27.4865   45.9727 H   0  0  0  0  0  0  0  0  0  0  0  0
  1 13  1  0
  2  1  2  0
  3  2  1  0
  4  3  2  0
  4  5  1  0
  5  6  2  0
  6  1  1  0
  7  8  2  0
  7  5  1  0
  9  8  1  0
 10  9  2  0
 11 10  1  0
 11 12  2  0
 12  7  1  0
  2 14  1  0
  3 15  1  0
  8 16  1  0
  9 17  1  0
 10 18  1  0
 13 19  1  0
 13 20  1  0
 21 22  2  0
 22 23  1  0
 23 24  2  0
 24 25  1  0
 25 26  2  0
 26 27  1  0
 27 28  1  0
 27 29  2  0
 29 30  1  0
 29 31  1  0
 31 32  2  0
 32 21  1  0
 32 25  1  0
 23 33  1  0
 26 34  1  0
 31 35  1  0
 11 21  1  0
M  ISO  7  14  14  15  14  16  14  17  14  18  14  28  16  30  16
M  END
>  <DihAtoms>  (1) 
9,10,20,21

>  <DihDeg>  (1) 
-0.029028242648779366

$$$$
