
     RDKit          3D

 46 51  0  0  0  0  0  0  0  0999 V2000
   35.8453   29.1343   49.8161 C   0  0  0  0  0  0  0  0  0  0  0  0
   34.8195   29.6346   50.5504 C   0  0  0  0  0  0  0  0  0  0  0  0
   33.6459   29.0479   50.0589 C   0  0  0  0  0  0  0  0  0  0  0  0
   34.0511   28.2062   49.0290 C   0  0  0  0  0  0  0  0  0  0  0  0
   35.3583   28.3003   48.9338 O   0  0  0  0  0  0  0  0  0  0  0  0
   33.5322   26.4229   47.3451 C   0  0  0  0  0  0  0  0  0  0  0  0
   33.1310   27.3897   48.2336 C   0  0  0  0  0  0  0  0  0  0  0  0
   31.7866   27.6651   48.4359 C   0  0  0  0  0  0  0  0  0  0  0  0
   30.8415   26.9440   47.7217 C   0  0  0  0  0  0  0  0  0  0  0  0
   29.5108   26.9872   47.7050 N   0  0  0  0  0  0  0  0  0  0  0  0
   29.0979   26.0740   46.8314 N   0  0  0  0  0  0  0  0  0  0  0  0
   30.1563   25.4462   46.2886 C   0  0  0  0  0  0  0  0  0  0  0  0
   31.3031   25.9758   46.8342 C   0  0  0  0  0  0  0  0  0  0  0  0
   32.6535   25.6933   46.6256 C   0  0  0  0  0  0  0  0  0  0  0  0
   37.2228   29.5260   50.0516 C   0  0  0  0  0  0  0  0  0  0  0  0
   37.8854   28.9474   50.9558 O   0  0  0  0  0  0  0  0  0  0  0  0
   37.7746   30.5780   49.2232 C   0  0  0  0  0  0  0  0  0  0  0  0
   38.1459   31.7559   49.8218 C   0  0  0  0  0  0  0  0  0  0  0  0
   38.6846   32.7623   49.0425 C   0  0  0  0  0  0  0  0  0  0  0  0
   38.8161   32.5269   47.7230 N   0  0  0  0  0  0  0  0  0  0  0  0
   38.4620   31.3933   47.1251 C   0  0  0  0  0  0  0  0  0  0  0  0
   37.9445   30.4466   47.9206 N   0  0  0  0  0  0  0  0  0  0  0  0
   34.8584   30.3590   51.3764 H   0  0  0  0  0  0  0  0  0  0  0  0
   32.6653   29.2652   50.4612 H   0  0  0  0  0  0  0  0  0  0  0  0
   34.5940   26.2595   47.2363 H   0  0  0  0  0  0  0  0  0  0  0  0
   31.3806   28.4177   49.1236 H   0  0  0  0  0  0  0  0  0  0  0  0
   28.8952   27.6230   48.2744 H   0  0  0  0  0  0  0  0  0  0  0  0
   30.0746   24.6659   45.5538 H   0  0  0  0  0  0  0  0  0  0  0  0
   32.9274   24.9212   45.9139 H   0  0  0  0  0  0  0  0  0  0  0  0
   38.0491   31.9644   50.8745 H   0  0  0  0  0  0  0  0  0  0  0  0
   39.0102   33.7134   49.3761 H   0  0  0  0  0  0  0  0  0  0  0  0
   38.5158   30.9355   45.7211 C   0  0  0  0  0  0  0  0  0  0  0  0
   38.3838   29.6601   45.3417 N   0  0  0  0  0  0  0  0  0  0  0  0
   38.4384   29.2922   44.0646 C   0  0  0  0  0  0  0  0  0  0  0  0
   38.6272   30.1420   43.0496 N   0  0  0  0  0  0  0  0  0  0  0  0
   38.7704   31.4505   43.3408 C   0  0  0  0  0  0  0  0  0  0  0  0
   38.9639   32.3270   42.3000 C   0  0  0  0  0  0  0  0  0  0  0  0
   39.1134   33.6702   42.5590 C   0  0  0  0  0  0  0  0  0  0  0  0
   39.2607   34.3045   41.7132 H   0  0  0  0  0  0  0  0  0  0  0  0
   39.0608   34.0812   43.8770 C   0  0  0  0  0  0  0  0  0  0  0  0
   39.1832   35.1422   44.0267 H   0  0  0  0  0  0  0  0  0  0  0  0
   38.8641   33.1524   44.8737 C   0  0  0  0  0  0  0  0  0  0  0  0
   38.7096   31.8032   44.6706 C   0  0  0  0  0  0  0  0  0  0  0  0
   38.3125   28.2082   43.9145 H   0  0  0  0  0  0  0  0  0  0  0  0
   38.9984   31.9585   41.2778 H   0  0  0  0  0  0  0  0  0  0  0  0
   38.8444   33.6096   45.8413 H   0  0  0  0  0  0  0  0  0  0  0  0
  1 15  1  0
  1  2  2  0
  3  2  1  0
  4  3  2  0
  5  4  1  0
  5  1  1  0
  6  7  2  0
  7  8  1  0
  7  4  1  0
  9  8  2  0
 10  9  1  0
 11 10  1  0
 12 13  1  0
 12 11  2  0
 13  9  1  0
 14 13  2  0
 14  6  1  0
 15 16  2  0
 17 18  2  0
 17 15  1  0
 19 18  1  0
 20 19  2  0
 21 20  1  0
 21 22  2  0
 22 17  1  0
  2 23  1  0
  3 24  1  0
  6 25  1  0
  8 26  1  0
 10 27  1  0
 12 28  1  0
 14 29  1  0
 18 30  1  0
 19 31  1  0
 32 33  2  0
 33 34  1  0
 34 35  2  0
 35 36  1  0
 36 37  2  0
 37 38  1  0
 38 39  1  0
 38 40  2  0
 40 41  1  0
 40 42  1  0
 42 43  2  0
 43 32  1  0
 43 36  1  0
 34 44  1  0
 37 45  1  0
 42 46  1  0
 21 32  1  0
M  ISO  8  23  14  24  14  25  14  26  14  27   9  28  14  29  14  30  14
M  ISO  3  31  14  39  16  41  16
M  END
>  <DihAtoms>  (1) 
19,20,31,32

>  <DihDeg>  (1) 
179.82327027151288

$$$$
