REMARK  Name = 
REMARK  3 active torsions:
REMARK  status: ('A' for Active; 'I' for Inactive)
REMARK    1  A    between atoms: C_1  and  N_13
REMARK    2  A    between atoms: C_5  and  C_7
REMARK    3  A    between atoms: C_11  and  C_21
REMARK                            x       y       z     vdW  Elec       q    Type
REMARK                         _______ _______ _______ _____ _____    ______ ____
ROOT
ATOM      1  C   UNL     1      34.870  29.286  48.426  0.00  0.00    +0.000 A 
ATOM      2  C   UNL     1      34.444  28.098  48.927  0.00  0.00    +0.000 A 
ATOM      3  C   UNL     1      33.327  27.595  48.307  0.00  0.00    +0.000 A 
ATOM      4  C   UNL     1      32.680  28.220  47.272  0.00  0.00    +0.000 A 
ATOM      5  C   UNL     1      33.180  29.444  46.810  0.00  0.00    +0.000 A 
ATOM      6  N   UNL     1      34.261  29.918  47.418  0.00  0.00    +0.000 NA
ATOM      7  H   UNL     1      34.980  27.636  49.743  0.00  0.00    +0.000 HD
ATOM      8  H   UNL     1      32.932  26.630  48.670  0.00  0.00    +0.000 HD
ATOM      9  H   UNL     1      31.822  27.745  46.862  0.00  0.00    +0.000 HD
ENDROOT
BRANCH   5  10
ATOM     10  C   UNL     1      32.405  30.001  45.713  0.00  0.00    +0.000 A 
ATOM     11  N   UNL     1      32.530  31.282  45.328  0.00  0.00    +0.000 NA
ATOM     12  C   UNL     1      31.843  31.843  44.328  0.00  0.00    +0.000 A 
ATOM     13  N   UNL     1      30.948  31.171  43.599  0.00  0.00    +0.000 NA
ATOM     14  C   UNL     1      30.753  29.873  43.913  0.00  0.00    +0.000 A 
ATOM     15  C   UNL     1      29.839  29.149  43.185  0.00  0.00    +0.000 A 
ATOM     16  C   UNL     1      29.598  27.815  43.462  0.00  0.00    +0.000 A 
ATOM     17  H   UNL     1      28.861  27.348  42.828  0.00  0.00    +0.000 HD
ATOM     18  C   UNL     1      30.330  27.255  44.513  0.00  0.00    +0.000 A 
ATOM     19  H   UNL     1      30.104  26.206  44.690  0.00  0.00    +0.000 HD
ATOM     20  C   UNL     1      31.221  28.017  45.199  0.00  0.00    +0.000 A 
ATOM     21  C   UNL     1      31.479  29.333  44.949  0.00  0.00    +0.000 A 
ENDBRANCH   5  10
BRANCH   1  26
ATOM     22  C   UNL     1      37.553  30.187  50.764  0.00  0.00    +0.000 A 
ATOM     23  C   UNL     1      38.228  31.228  50.081  0.00  0.00    +0.000 A 
ATOM     24  C   UNL     1      37.748  31.599  48.828  0.00  0.00    +0.000 A 
ATOM     25  N   UNL     1      36.675  30.948  48.342  0.00  0.00    +0.000 NA
ATOM     26  C   UNL     1      36.041  29.971  48.982  0.00  0.00    +0.000 A 
ATOM     27  N   UNL     1      36.503  29.600  50.209  0.00  0.00    +0.000 NA
ATOM     28  H   UNL     1      39.071  31.681  50.554  0.00  0.00    +0.000 HD
ATOM     29  H   UNL     1      38.239  32.382  48.291  0.00  0.00    +0.000 HD
BRANCH  22  30
ATOM     30  N   UNL     1      37.978  29.752  52.045  0.00  0.00    +0.000 N 
ATOM     31  H   UNL     1      37.862  28.760  52.314  0.00  0.00    +0.000 HD
ATOM     32  H   UNL     1      38.413  30.408  52.743  0.00  0.00    +0.000 HD
ENDBRANCH  22  30
ENDBRANCH   1  26
TORSDOF 3
