
 OpenBabel03272506073D

 33 36  0  0  0  0  0  0  0  0999 V2000
   34.4860   28.6270   48.6420 C   0  0  0  0  0  0  0  0  0  0  0  0
   34.4270   29.1940   47.3160 C   0  0  0  0  0  0  0  0  0  0  0  0
   32.7020   28.9310   46.9580 S   0  0  0  0  0  0  0  0  0  0  0  0
   32.3150   28.1180   48.6020 C   0  0  0  0  0  0  0  0  0  0  0  0
   33.3800   28.1460   49.1290 N   0  0  0  0  0  0  0  0  0  0  0  0
   35.2240   29.6310   46.7590 H   0  0  0  0  0  0  0  0  0  0  0  0
   30.8930   27.7210   48.7200 C   0  0  0  0  0  0  0  0  0  0  0  0
   30.0720   28.0170   49.7430 N   0  0  0  0  0  0  0  0  0  0  0  0
   28.7910   27.6270   49.7910 C   0  0  0  0  0  3  0  0  0  0  0  0
   28.2490   26.9060   48.7990 N   0  0  0  0  0  0  0  0  0  0  0  0
   28.9920   26.5620   47.7340 C   0  0  0  0  0  0  0  0  0  0  0  0
   28.4110   25.8210   46.7280 C   0  0  0  0  0  3  0  0  0  0  0  0
   29.1840   25.4700   45.6320 C   0  0  0  0  0  0  0  0  0  0  0  0
   28.7140   24.8890   44.8520 H   0  0  0  0  0  0  0  0  0  0  0  0
   30.5180   25.8960   45.6180 C   0  0  0  0  0  0  0  0  0  0  0  0
   31.0140   25.5580   44.7100 H   0  0  0  0  0  0  0  0  0  0  0  0
   31.0580   26.6370   46.6470 C   0  0  0  0  0  3  0  0  0  0  0  0
   30.3050   26.9820   47.7220 C   0  0  0  0  0  0  0  0  0  0  0  0
   35.8090   28.6390   49.3480 C   0  0  0  0  0  0  0  0  0  0  0  0
   36.6450   28.6070   48.5890 H   0  0  0  0  0  0  0  0  0  0  0  0
   35.9440   27.7000   49.9250 H   0  0  0  0  0  0  0  0  0  0  0  0
   35.9900   29.8190   50.2220 C   0  0  0  0  0  0  0  0  0  0  0  0
   35.0370   30.2910   50.5620 H   0  0  0  0  0  0  0  0  0  0  0  0
   36.5340   29.5270   51.1680 H   0  0  0  0  0  0  0  0  0  0  0  0
   37.7700   32.9580   49.3940 C   0  0  0  0  0  0  0  0  0  0  0  0
   38.5560   32.5930   48.3040 C   0  0  0  0  0  0  0  0  0  0  0  0
   38.4650   31.2670   47.8670 C   0  0  0  0  0  0  0  0  0  0  0  0
   37.6350   30.4030   48.5000 N   0  0  0  0  0  0  0  0  0  0  0  0
   36.8910   30.8270   49.5630 C   0  0  0  0  0  0  0  0  0  0  0  0
   36.9580   32.0830   50.0010 N   0  0  0  0  0  0  0  0  0  0  0  0
   37.8050   33.9720   49.7690 H   0  0  0  0  0  0  0  0  0  0  0  0
   39.2140   33.2970   47.8110 H   0  0  0  0  0  0  0  0  0  0  0  0
   39.0460   30.9420   47.0390 H   0  0  0  0  0  0  0  0  0  0  0  0
  1  5  1  0  0  0  0
  1 19  1  0  0  0  0
  2  1  2  0  0  0  0
  3  2  1  0  0  0  0
  3  4  1  0  0  0  0
  4  7  1  0  0  0  0
  4  5  2  0  0  0  0
  6  2  1  0  0  0  0
  7  8  1  0  0  0  0
  8  9  2  0  0  0  0
 10  9  1  0  0  0  0
 11 10  2  0  0  0  0
 12 11  1  0  0  0  0
 13 12  2  0  0  0  0
 14 13  1  0  0  0  0
 15 13  1  0  0  0  0
 15 17  2  0  0  0  0
 16 15  1  0  0  0  0
 17 18  1  0  0  0  0
 18 11  1  0  0  0  0
 18  7  2  0  0  0  0
 19 21  1  0  0  0  0
 19 22  1  0  0  0  0
 20 19  1  0  0  0  0
 22 23  1  0  0  0  0
 22 24  1  0  0  0  0
 25 31  1  0  0  0  0
 25 30  1  0  0  0  0
 26 25  2  0  0  0  0
 27 26  1  0  0  0  0
 27 28  2  0  0  0  0
 28 29  1  0  0  0  0
 29 30  2  0  0  0  0
 29 22  1  0  0  0  0
 32 26  1  0  0  0  0
 33 27  1  0  0  0  0
M  END
>  <minimizedAffinity>
-5.54867411

>  <minimizedRMSD>
0.798082054

$$$$
