
 OpenBabel03272507133D

 43 48  0  0  0  0  0  0  0  0999 V2000
   37.2460   29.5010   50.2320 C   0  0  0  0  0  0  0  0  0  0  0  0
   37.8890   28.9010   51.1350 O   0  0  0  0  0  0  0  0  0  0  0  0
   37.8090   30.5810   49.4490 C   0  0  0  0  0  0  0  0  0  0  0  0
   38.3180   31.6720   50.1090 C   0  0  0  0  0  0  0  0  0  0  0  0
   38.8690   32.7030   49.3720 C   0  0  0  0  0  0  0  0  0  0  0  0
   38.8740   32.5790   48.0320 N   0  0  0  0  0  0  0  0  0  0  0  0
   38.3850   31.5310   47.3740 C   0  0  0  0  0  0  0  0  0  0  0  0
   37.8610   30.5560   48.1310 N   0  0  0  0  0  0  0  0  0  0  0  0
   38.3230   31.7900   51.1800 H   0  0  0  0  0  0  0  0  0  0  0  0
   39.2930   33.5950   49.7550 H   0  0  0  0  0  0  0  0  0  0  0  0
   38.2890   31.2000   45.9380 C   0  0  0  0  0  0  0  0  0  0  0  0
   39.2680   31.4080   45.0510 N   0  0  0  0  0  0  0  0  0  0  0  0
   39.1380   31.0930   43.7660 C   0  0  0  0  0  3  0  0  0  0  0  0
   38.0380   30.5470   43.2380 N   0  0  0  0  0  0  0  0  0  0  0  0
   36.9990   30.3020   44.0610 C   0  0  0  0  0  0  0  0  0  0  0  0
   35.8660   29.7400   43.5210 C   0  0  0  0  0  3  0  0  0  0  0  0
   34.7850   29.4750   44.3300 C   0  0  0  0  0  0  0  0  0  0  0  0
   33.9330   29.0380   43.8580 H   0  0  0  0  0  0  0  0  0  0  0  0
   34.8920   29.7920   45.6710 C   0  0  0  0  0  0  0  0  0  0  0  0
   34.0190   29.5640   46.2620 H   0  0  0  0  0  0  0  0  0  0  0  0
   36.0550   30.3530   46.1480 C   0  0  0  0  0  3  0  0  0  0  0  0
   37.1600   30.6370   45.3860 C   0  0  0  0  0  0  0  0  0  0  0  0
   35.8780   29.1040   49.9490 C   0  0  0  0  0  0  0  0  0  0  0  0
   34.8320   29.5460   50.6920 C   0  0  0  0  0  0  0  0  0  0  0  0
   33.6770   28.9730   50.1470 C   0  0  0  0  0  0  0  0  0  0  0  0
   34.1120   28.1990   49.0760 C   0  0  0  0  0  0  0  0  0  0  0  0
   35.4190   28.3170   49.0100 O   0  0  0  0  0  0  0  0  0  0  0  0
   34.8460   30.2210   51.5600 H   0  0  0  0  0  0  0  0  0  0  0  0
   32.6860   29.1520   50.5430 H   0  0  0  0  0  0  0  0  0  0  0  0
   33.6480   26.5810   47.2180 C   0  0  0  0  0  0  0  0  0  0  0  0
   33.2180   27.4190   48.2180 C   0  0  0  0  0  0  0  0  0  0  0  0
   31.8670   27.5850   48.4820 C   0  0  0  0  0  0  0  0  0  0  0  0
   30.9440   26.8890   47.7160 C   0  0  0  0  0  0  0  0  0  0  0  0
   29.6140   26.8500   47.7360 N   0  0  0  0  0  0  0  0  0  0  0  0
   29.2290   26.0140   46.7760 N   0  0  0  0  0  0  0  0  0  0  0  0
   30.3050   25.5160   46.1430 C   0  0  0  0  0  0  0  0  0  0  0  0
   31.4350   26.0540   46.7150 C   0  0  0  0  0  0  0  0  0  0  0  0
   32.7930   25.8810   46.4440 C   0  0  0  0  0  0  0  0  0  0  0  0
   34.7140   26.4970   47.0660 H   0  0  0  0  0  0  0  0  0  0  0  0
   31.4380   28.2320   49.2590 H   0  0  0  0  0  0  0  0  0  0  0  0
   28.9790   27.3810   48.3860 H   0  0  0  0  0  0  0  0  0  0  0  0
   30.2480   24.8170   45.3280 H   0  0  0  0  0  0  0  0  0  0  0  0
   33.0890   25.2090   45.6450 H   0  0  0  0  0  0  0  0  0  0  0  0
  1  2  2  0  0  0  0
  3  4  1  0  0  0  0
  3  1  1  0  0  0  0
  4  9  1  0  0  0  0
  5 10  1  0  0  0  0
  5  4  2  0  0  0  0
  6  5  1  0  0  0  0
  7  6  2  0  0  0  0
  7  8  1  0  0  0  0
  8  3  2  0  0  0  0
 11  7  1  0  0  0  0
 12 11  2  0  0  0  0
 13 12  1  0  0  0  0
 14 13  2  0  0  0  0
 14 15  1  0  0  0  0
 15 22  1  0  0  0  0
 16 15  2  0  0  0  0
 16 17  1  0  0  0  0
 17 19  2  0  0  0  0
 18 17  1  0  0  0  0
 19 21  1  0  0  0  0
 19 20  1  0  0  0  0
 22 11  1  0  0  0  0
 22 21  2  0  0  0  0
 23  1  1  0  0  0  0
 23 24  2  0  0  0  0
 24 28  1  0  0  0  0
 25 29  1  0  0  0  0
 25 24  1  0  0  0  0
 26 25  2  0  0  0  0
 27 26  1  0  0  0  0
 27 23  1  0  0  0  0
 30 31  1  0  0  0  0
 31 32  2  0  0  0  0
 31 26  1  0  0  0  0
 32 40  1  0  0  0  0
 33 34  1  0  0  0  0
 33 32  1  0  0  0  0
 34 41  1  0  0  0  0
 35 34  1  0  0  0  0
 36 37  1  0  0  0  0
 36 35  2  0  0  0  0
 37 33  2  0  0  0  0
 38 37  1  0  0  0  0
 38 30  2  0  0  0  0
 39 30  1  0  0  0  0
 42 36  1  0  0  0  0
 43 38  1  0  0  0  0
M  END
>  <minimizedAffinity>
-7.14913082

>  <minimizedRMSD>
0.841693342

$$$$
