
 OpenBabel03272501273D

 42 46  0  0  1  0  0  0  0  0999 V2000
   34.8730   30.0360   47.0150 C   0  0  0  0  0  0  0  0  0  0  0  0
   35.6570   30.0850   45.8590 C   0  0  0  0  0  0  0  0  0  0  0  0
   36.8620   30.7090   46.2120 C   0  0  0  0  0  0  0  0  0  0  0  0
   36.7640   31.0040   47.5190 N   0  0  0  0  0  0  0  0  0  0  0  0
   35.5800   30.6000   47.9810 N   0  0  0  0  0  0  0  0  0  0  0  0
   35.4190   29.7200   44.8580 H   0  0  0  0  0  0  0  0  0  0  0  0
   37.7080   30.9140   45.5570 H   0  0  0  0  0  0  0  0  0  0  0  0
   38.4570   32.7010   47.7010 N   0  0  0  0  0  0  0  0  0  0  0  0
   39.0380   33.4750   48.7730 C   0  0  0  0  0  0  0  0  0  0  0  0
   38.3020   33.1170   50.0430 C   0  0  0  0  0  0  0  0  0  0  0  0
   37.0740   32.3880   49.4870 C   0  0  0  0  0  0  0  0  0  0  0  0
   37.7130   31.6440   48.3660 C   0  0  1  0  0  0  0  0  0  0  0  0
   37.7590   33.2910   47.1900 H   0  0  0  0  0  0  0  0  0  0  0  0
   38.8750   34.5680   48.5620 H   0  0  0  0  0  0  0  0  0  0  0  0
   40.1410   33.3100   48.8700 H   0  0  0  0  0  0  0  0  0  0  0  0
   38.0300   33.9800   50.6510 H   0  0  0  0  0  0  0  0  0  0  0  0
   38.9050   32.3510   50.5710 H   0  0  0  0  0  0  0  0  0  0  0  0
   36.6430   31.6840   50.2340 H   0  0  0  0  0  0  0  0  0  0  0  0
   36.3330   33.1060   49.0940 H   0  0  0  0  0  0  0  0  0  0  0  0
   38.6130   30.6310   48.9010 N   0  0  0  0  0  0  0  0  0  0  0  0
   38.3230   30.3430   49.8580 H   0  0  0  0  0  0  0  0  0  0  0  0
   39.6110   30.9270   48.8600 H   0  0  0  0  0  0  0  0  0  0  0  0
   33.2030   28.3590   47.8030 C   0  0  0  0  0  0  0  0  0  0  0  0
   33.5540   29.4500   47.0140 C   0  0  0  0  0  0  0  0  0  0  0  0
   32.5550   29.9650   46.2000 C   0  0  0  0  0  0  0  0  0  0  0  0
   31.3420   29.3890   46.2250 N   0  0  0  0  0  0  0  0  0  0  0  0
   31.0250   28.3470   46.9850 C   0  0  0  0  0  0  0  0  0  0  0  0
   31.9850   27.8270   47.7890 N   0  0  0  0  0  0  0  0  0  0  0  0
   34.0260   28.0010   48.4180 H   0  0  0  0  0  0  0  0  0  0  0  0
   32.6920   30.8060   45.5400 H   0  0  0  0  0  0  0  0  0  0  0  0
   29.7820   27.5970   47.1440 C   0  0  0  0  0  0  0  0  0  0  0  0
   29.5120   26.4030   46.5740 N   0  0  0  0  0  0  0  0  0  0  0  0
   28.3780   25.7180   46.7170 C   0  0  0  0  0  0  0  0  0  0  0  0
   27.3630   26.1690   47.4690 N   0  0  0  0  0  0  0  0  0  0  0  0
   27.5350   27.3500   48.0790 C   0  0  0  0  0  0  0  0  0  0  0  0
   26.4870   27.8020   48.8470 C   0  0  0  0  0  0  0  0  0  0  0  0
   26.5840   29.0080   49.5070 C   0  0  0  0  0  0  0  0  0  0  0  0
   25.7350   29.3160   50.0950 H   0  0  0  0  0  0  0  0  0  0  0  0
   27.7540   29.7260   49.3660 C   0  0  0  0  0  0  0  0  0  0  0  0
   27.7920   30.6640   49.8980 H   0  0  0  0  0  0  0  0  0  0  0  0
   28.7650   29.2200   48.5830 C   0  0  0  0  0  0  0  0  0  0  0  0
   28.7200   28.0250   47.9050 C   0  0  0  0  0  0  0  0  0  0  0  0
  1  5  2  0  0  0  0
  2  3  2  0  0  0  0
  2  1  1  0  0  0  0
  3  4  1  0  0  0  0
  4  5  1  0  0  0  0
  4 12  1  0  0  0  0
  6  2  1  0  0  0  0
  7  3  1  0  0  0  0
  8 12  1  0  0  0  0
  8  9  1  0  0  0  0
  9 15  1  0  0  0  0
  9 10  1  0  0  0  0
 10 17  1  0  0  0  0
 10 16  1  0  0  0  0
 11 10  1  0  0  0  0
 11 18  1  0  0  0  0
 12 20  1  1  0  0  0
 12 11  1  0  0  0  0
 13  8  1  0  0  0  0
 14  9  1  0  0  0  0
 19 11  1  0  0  0  0
 20 21  1  0  0  0  0
 22 20  1  0  0  0  0
 23 29  1  0  0  0  0
 24  1  1  0  0  0  0
 24 23  2  0  0  0  0
 25 26  2  0  0  0  0
 25 24  1  0  0  0  0
 26 27  1  0  0  0  0
 27 31  1  0  0  0  0
 27 28  2  0  0  0  0
 28 23  1  0  0  0  0
 30 25  1  0  0  0  0
 31 42  1  0  0  0  0
 32 33  1  0  0  0  0
 32 31  2  0  0  0  0
 33 34  2  0  0  0  0
 34 35  1  0  0  0  0
 35 36  1  0  0  0  0
 36 37  2  0  0  0  0
 37 38  1  0  0  0  0
 39 37  1  0  0  0  0
 39 40  1  0  0  0  0
 41 39  2  0  0  0  0
 42 35  2  0  0  0  0
 42 41  1  0  0  0  0
M  END
>  <minimizedAffinity>
-6.61928558

>  <minimizedRMSD>
1.68764377

$$$$
