
     RDKit          3D

 27 29  0  0  0  0  0  0  0  0999 V2000
   35.5365   29.0365   50.2008 C   0  0  0  0  0  0  0  0  0  0  0  0
   36.2407   30.1219   49.6626 C   0  0  0  0  0  0  0  0  0  0  0  0
   36.0099   30.4378   48.3282 C   0  0  0  0  0  0  0  0  0  0  0  0
   35.1262   29.6867   47.6311 N   0  0  0  0  0  0  0  0  0  0  0  0
   34.4660   28.6644   48.1482 C   0  0  0  0  0  0  0  0  0  0  0  0
   34.6730   28.3471   49.4197 N   0  0  0  0  0  0  0  0  0  0  0  0
   37.1871   30.8769   50.5443 C   0  0  0  0  0  0  0  0  0  0  0  0
   38.4909   30.7691   50.0799 F   0  0  0  0  0  0  0  0  0  0  0  0
   36.8242   32.2175   50.4818 F   0  0  0  0  0  0  0  0  0  0  0  0
   37.1284   30.4511   51.8503 F   0  0  0  0  0  0  0  0  0  0  0  0
   35.7303   28.8073   51.2387 H   0  0  0  0  0  0  0  0  0  0  0  0
   36.5162   31.2462   47.8768 H   0  0  0  0  0  0  0  0  0  0  0  0
   33.4762   27.7414   47.5550 C   0  0  0  0  0  0  0  0  0  0  0  0
   32.2053   28.0537   47.2921 N   0  0  0  0  0  0  0  0  0  0  0  0
   31.3313   27.2027   46.7560 C   0  0  0  0  0  0  0  0  0  0  0  0
   31.6374   25.9391   46.4232 N   0  0  0  0  0  0  0  0  0  0  0  0
   32.9004   25.5482   46.6577 C   0  0  0  0  0  0  0  0  0  0  0  0
   33.1996   24.2589   46.3142 C   0  0  0  0  0  0  0  0  0  0  0  0
   34.4674   23.7750   46.5190 C   0  0  0  0  0  0  0  0  0  0  0  0
   34.6916   22.7603   46.2455 H   0  0  0  0  0  0  0  0  0  0  0  0
   35.4078   24.6462   47.0810 C   0  0  0  0  0  0  0  0  0  0  0  0
   36.3819   24.2126   47.2178 H   0  0  0  0  0  0  0  0  0  0  0  0
   35.0377   25.9202   47.3988 C   0  0  0  0  0  0  0  0  0  0  0  0
   33.7824   26.4509   47.2132 C   0  0  0  0  0  0  0  0  0  0  0  0
   30.3263   27.6098   46.6015 H   0  0  0  0  0  0  0  0  0  0  0  0
   32.4670   23.5971   45.8821 H   0  0  0  0  0  0  0  0  0  0  0  0
   35.8350   26.4723   47.8131 H   0  0  0  0  0  0  0  0  0  0  0  0
  2  1  2  0
  2  7  1  0
  3  2  1  0
  4  5  1  0
  4  3  2  0
  5  6  2  0
  6  1  1  0
  7 10  1  0
  8  7  1  0
  9  7  1  0
  1 11  1  0
  3 12  1  0
 13 14  2  0
 14 15  1  0
 15 16  2  0
 16 17  1  0
 17 18  2  0
 18 19  1  0
 19 20  1  0
 19 21  2  0
 21 22  1  0
 21 23  1  0
 23 24  2  0
 24 13  1  0
 24 17  1  0
 15 25  1  0
 18 26  1  0
 23 27  1  0
  5 13  1  0
M  ISO  4  11  14  12  14  20  16  22  16
M  END
>  <DihAtoms>  (1) 
3,4,12,13

>  <DihDeg>  (1) 
179.9803541692543

$$$$
