
 OpenBabel03262521583D

 36 39  0  0  1  0  0  0  0  0999 V2000
   36.3820   29.7000   48.7210 N   0  0  0  0  0  0  0  0  0  0  0  0
   36.8700   29.2570   50.0210 C   0  0  0  0  0  0  0  0  0  0  0  0
   37.5200   30.2310   50.8880 C   0  0  0  0  0  0  0  0  0  0  0  0
   38.1300   31.4270   50.2660 C   0  0  0  0  0  0  0  0  0  0  0  0
   37.5390   31.7990   48.9250 C   0  0  0  0  0  0  0  0  0  0  0  0
   37.3900   30.4860   48.1190 C   0  0  2  0  0  0  0  0  0  0  0  0
   37.5510   28.3890   49.7860 H   0  0  0  0  0  0  0  0  0  0  0  0
   36.0030   28.7860   50.5330 H   0  0  0  0  0  0  0  0  0  0  0  0
   36.8330   30.5480   51.7050 H   0  0  0  0  0  0  0  0  0  0  0  0
   38.3470   29.7000   51.4430 H   0  0  0  0  0  0  0  0  0  0  0  0
   39.2300   31.3310   50.0800 H   0  0  0  0  0  0  0  0  0  0  0  0
   38.0170   32.3330   50.9070 H   0  0  0  0  0  0  0  0  0  0  0  0
   38.2100   32.4130   48.3250 H   0  0  0  0  0  0  0  0  0  0  0  0
   36.5310   32.2160   48.9870 H   0  0  0  0  0  0  0  0  0  0  0  0
   38.4330   30.0220   48.2510 H   0  0  0  0  0  0  0  0  0  0  0  0
   37.3160   30.7990   46.7000 C   0  0  0  0  0  0  0  0  0  0  0  0
   36.3650   30.2890   45.8560 N   0  0  0  0  0  0  0  0  0  0  0  0
   36.3620   30.6500   44.5650 C   0  0  0  0  0  0  0  0  0  0  0  0
   37.2430   31.5060   43.9840 N   0  0  0  0  0  0  0  0  0  0  0  0
   38.1910   32.0300   44.7790 C   0  0  0  0  0  0  0  0  0  0  0  0
   39.0900   32.9010   44.2110 C   0  0  0  0  0  0  0  0  0  0  0  0
   40.0800   33.4670   44.9850 C   0  0  0  0  0  0  0  0  0  0  0  0
   40.7820   34.1510   44.5310 H   0  0  0  0  0  0  0  0  0  0  0  0
   40.1500   33.1450   46.3270 C   0  0  0  0  0  0  0  0  0  0  0  0
   40.9290   33.5910   46.9350 H   0  0  0  0  0  0  0  0  0  0  0  0
   39.2330   32.2770   46.8330 C   0  0  0  0  0  0  0  0  0  0  0  0
   38.2110   31.6710   46.1110 C   0  0  0  0  0  0  0  0  0  0  0  0
   35.0980   29.3470   48.2270 C   0  0  0  0  0  0  0  0  0  0  0  0
   34.2220   30.2550   47.6400 C   0  0  0  0  0  0  0  0  0  0  0  0
   32.9910   29.8290   47.1810 C   0  0  0  0  0  0  0  0  0  0  0  0
   32.6950   28.4960   47.3360 N   0  0  0  0  0  0  0  0  0  0  0  0
   33.5700   27.6420   47.9120 C   0  0  0  0  0  0  0  0  0  0  0  0
   34.7540   28.0730   48.3490 N   0  0  0  0  0  0  0  0  0  0  0  0
   34.4700   31.2910   47.5360 H   0  0  0  0  0  0  0  0  0  0  0  0
   32.3230   30.5330   46.7300 H   0  0  0  0  0  0  0  0  0  0  0  0
   33.2440   26.6140   47.9880 H   0  0  0  0  0  0  0  0  0  0  0  0
  1  2  1  0  0  0  0
  2  8  1  0  0  0  0
  2  3  1  0  0  0  0
  3 10  1  0  0  0  0
  3  9  1  0  0  0  0
  4  3  1  0  0  0  0
  4 12  1  0  0  0  0
  5 14  1  0  0  0  0
  5  4  1  0  0  0  0
  6 15  1  1  0  0  0
  6  1  1  0  0  0  0
  6  5  1  0  0  0  0
  7  2  1  0  0  0  0
 11  4  1  0  0  0  0
 13  5  1  0  0  0  0
 16  6  1  0  0  0  0
 17 16  2  0  0  0  0
 18 17  1  0  0  0  0
 19 18  2  0  0  0  0
 19 20  1  0  0  0  0
 20 27  1  0  0  0  0
 21 20  2  0  0  0  0
 21 22  1  0  0  0  0
 22 24  2  0  0  0  0
 23 22  1  0  0  0  0
 24 26  1  0  0  0  0
 24 25  1  0  0  0  0
 27 16  1  0  0  0  0
 27 26  2  0  0  0  0
 28 33  1  0  0  0  0
 28  1  1  0  0  0  0
 29 28  2  0  0  0  0
 30 31  2  0  0  0  0
 30 29  1  0  0  0  0
 31 32  1  0  0  0  0
 32 36  1  0  0  0  0
 32 33  2  0  0  0  0
 34 29  1  0  0  0  0
 35 30  1  0  0  0  0
M  END
>  <minimizedAffinity>
-6.63270378

>  <minimizedRMSD>
0.865001678

$$$$
