
     RDKit          3D

 36 39  0  0  0  0  0  0  0  0999 V2000
   36.1153   30.4608   49.9745 C   0  0  0  0  0  0  0  0  0  0  0  0
   38.2376   33.3875   49.1768 C   0  0  0  0  0  0  0  0  0  0  0  0
   39.0072   32.9336   48.1077 C   0  0  0  0  0  0  0  0  0  0  0  0
   38.7849   31.6234   47.6741 C   0  0  0  0  0  0  0  0  0  0  0  0
   37.8535   30.8564   48.2898 N   0  0  0  0  0  0  0  0  0  0  0  0
   37.1334   31.3633   49.3326 C   0  0  0  0  0  0  0  0  0  0  0  0
   37.3237   32.6081   49.7672 N   0  0  0  0  0  0  0  0  0  0  0  0
   36.1011   29.1411   49.3052 C   0  0  0  0  0  0  0  0  0  0  0  0
   34.8008   28.8420   48.6209 C   0  0  0  0  0  0  0  0  0  0  0  0
   34.5814   29.4148   47.3146 C   0  0  0  0  0  0  0  0  0  0  0  0
   32.9565   28.7690   46.9771 S   0  0  0  0  0  0  0  0  0  0  0  0
   32.8065   27.8439   48.5998 C   0  0  0  0  0  0  0  0  0  0  0  0
   33.8481   28.1041   49.1096 N   0  0  0  0  0  0  0  0  0  0  0  0
   35.1172   30.9577   50.0333 H   0  0  0  0  0  0  0  0  0  0  0  0
   36.4623   30.3560   51.0434 H   0  0  0  0  0  0  0  0  0  0  0  0
   38.3724   34.3945   49.5492 H   0  0  0  0  0  0  0  0  0  0  0  0
   39.7468   33.5613   47.6284 H   0  0  0  0  0  0  0  0  0  0  0  0
   39.3482   31.2317   46.8610 H   0  0  0  0  0  0  0  0  0  0  0  0
   36.9450   29.0960   48.5548 H   0  0  0  0  0  0  0  0  0  0  0  0
   36.3500   28.3355   50.0260 H   0  0  0  0  0  0  0  0  0  0  0  0
   35.2423   30.0404   46.7586 H   0  0  0  0  0  0  0  0  0  0  0  0
   31.5178   27.1248   48.7286 C   0  0  0  0  0  0  0  0  0  0  0  0
   31.2750   25.8609   48.3373 N   0  0  0  0  0  0  0  0  0  0  0  0
   30.0833   25.2661   48.4822 C   0  0  0  0  0  0  0  0  0  0  0  0
   29.0492   25.9129   49.0363 N   0  0  0  0  0  0  0  0  0  0  0  0
   29.1952   27.1802   49.4585 C   0  0  0  0  0  0  0  0  0  0  0  0
   28.1161   27.8232   50.0250 C   0  0  0  0  0  0  0  0  0  0  0  0
   28.2759   29.1299   50.4574 C   0  0  0  0  0  0  0  0  0  0  0  0
   27.4201   29.6204   50.8995 H   0  0  0  0  0  0  0  0  0  0  0  0
   29.5350   29.7185   50.2896 C   0  0  0  0  0  0  0  0  0  0  0  0
   29.5304   30.7392   50.6669 H   0  0  0  0  0  0  0  0  0  0  0  0
   30.5879   29.0375   49.7171 C   0  0  0  0  0  0  0  0  0  0  0  0
   30.4354   27.7576   49.2924 C   0  0  0  0  0  0  0  0  0  0  0  0
   29.9713   24.2415   48.1390 H   0  0  0  0  0  0  0  0  0  0  0  0
   27.1737   27.2619   50.1061 H   0  0  0  0  0  0  0  0  0  0  0  0
   31.4373   29.6657   49.6890 H   0  0  0  0  0  0  0  0  0  0  0  0
  2  7  2  0
  3  2  1  0
  4  3  2  0
  4  5  1  0
  5  6  2  0
  6  7  1  0
  6  1  1  0
  8  1  1  0
  9 13  1  0
  9  8  1  0
 10  9  2  0
 11 10  1  0
 11 12  1  0
 12 13  2  0
  1 14  1  0
  1 15  1  0
  2 16  1  0
  3 17  1  0
  4 18  1  0
  8 19  1  0
  8 20  1  0
 10 21  1  0
 22 23  2  0
 23 24  1  0
 24 25  2  0
 25 26  1  0
 26 27  2  0
 27 28  1  0
 28 29  1  0
 28 30  2  0
 30 31  1  0
 30 32  1  0
 32 33  2  0
 33 22  1  0
 33 26  1  0
 24 34  1  0
 27 35  1  0
 32 36  1  0
 12 22  1  0
M  ISO  8  14   8  15   8  16  14  17  14  18  14  19   8  20   8  21  14
M  ISO  2  29  16  31  16
M  END
>  <DihAtoms>  (1) 
10,11,21,22

>  <DihDeg>  (1) 
0.025023438884083135

$$$$
