
 OpenBabel03262521583D

 36 39  0  0  1  0  0  0  0  0999 V2000
   39.2310   23.5840   35.9170 N   0  0  0  0  0  0  0  0  0  0  0  0
   39.4850   23.1520   37.2870 C   0  0  0  0  0  0  0  0  0  0  0  0
   40.6420   22.3050   37.5450 C   0  0  0  0  0  0  0  0  0  0  0  0
   41.1830   21.4980   36.4300 C   0  0  0  0  0  0  0  0  0  0  0  0
   40.8670   22.0450   35.0560 C   0  0  0  0  0  0  0  0  0  0  0  0
   39.3770   22.4630   35.0710 C   0  0  2  0  0  0  0  0  0  0  0  0
   38.5250   22.6540   37.6070 H   0  0  0  0  0  0  0  0  0  0  0  0
   39.5250   24.0780   37.9000 H   0  0  0  0  0  0  0  0  0  0  0  0
   41.4640   22.8960   38.0080 H   0  0  0  0  0  0  0  0  0  0  0  0
   40.3600   21.5780   38.3610 H   0  0  0  0  0  0  0  0  0  0  0  0
   40.8120   20.4420   36.4110 H   0  0  0  0  0  0  0  0  0  0  0  0
   42.2960   21.4190   36.4740 H   0  0  0  0  0  0  0  0  0  0  0  0
   40.9310   21.2870   34.2760 H   0  0  0  0  0  0  0  0  0  0  0  0
   41.4200   22.9540   34.8050 H   0  0  0  0  0  0  0  0  0  0  0  0
   38.8850   21.5240   35.5120 H   0  0  0  0  0  0  0  0  0  0  0  0
   38.8800   22.5170   33.7030 C   0  0  0  0  0  0  0  0  0  0  0  0
   39.5670   23.0920   32.6660 N   0  0  0  0  0  0  0  0  0  0  0  0
   39.0390   23.0770   31.4340 C   0  0  0  0  0  3  0  0  0  0  0  0
   37.8430   22.5280   31.0940 N   0  0  0  0  0  0  0  0  0  0  0  0
   37.1400   21.9540   32.0840 C   0  0  0  0  0  0  0  0  0  0  0  0
   35.9280   21.3900   31.7610 C   0  0  0  0  0  3  0  0  0  0  0  0
   35.1680   20.7860   32.7400 C   0  0  0  0  0  0  0  0  0  0  0  0
   34.2190   20.3450   32.4770 H   0  0  0  0  0  0  0  0  0  0  0  0
   35.6430   20.7590   34.0370 C   0  0  0  0  0  0  0  0  0  0  0  0
   35.0460   20.2840   34.8060 H   0  0  0  0  0  0  0  0  0  0  0  0
   36.8500   21.3340   34.2970 C   0  0  0  0  0  3  0  0  0  0  0  0
   37.6650   21.9580   33.3600 C   0  0  0  0  0  0  0  0  0  0  0  0
   38.8980   24.9260   35.5900 C   0  0  0  0  0  0  0  0  0  0  0  0
   37.6020   25.4290   35.6250 C   0  0  0  0  0  0  0  0  0  0  0  0
   37.3650   26.7490   35.2950 C   0  0  0  0  0  0  0  0  0  0  0  0
   38.4540   27.5090   34.9430 N   0  0  0  0  0  0  0  0  0  0  0  0
   39.7000   26.9880   34.9200 C   0  0  0  0  0  0  0  0  0  0  0  0
   39.9090   25.7100   35.2410 N   0  0  0  0  0  0  0  0  0  0  0  0
   36.7670   24.8170   35.8940 H   0  0  0  0  0  0  0  0  0  0  0  0
   36.3650   27.1290   35.3250 H   0  0  0  0  0  0  0  0  0  0  0  0
   40.4900   27.6660   34.6290 H   0  0  0  0  0  0  0  0  0  0  0  0
  1  2  1  0  0  0  0
  2  3  1  0  0  0  0
  2  7  1  0  0  0  0
  2  8  1  0  0  0  0
  3  9  1  0  0  0  0
  3 10  1  0  0  0  0
  4 12  1  0  0  0  0
  4  3  1  0  0  0  0
  5  6  1  0  0  0  0
  5  4  1  0  0  0  0
  6 15  1  1  0  0  0
  6  1  1  0  0  0  0
 11  4  1  0  0  0  0
 13  5  1  0  0  0  0
 14  5  1  0  0  0  0
 16  6  1  0  0  0  0
 17 16  2  0  0  0  0
 18 17  1  0  0  0  0
 19 18  2  0  0  0  0
 19 20  1  0  0  0  0
 20 27  1  0  0  0  0
 21 20  2  0  0  0  0
 21 22  1  0  0  0  0
 22 24  2  0  0  0  0
 23 22  1  0  0  0  0
 24 26  1  0  0  0  0
 24 25  1  0  0  0  0
 27 16  1  0  0  0  0
 27 26  2  0  0  0  0
 28 29  1  0  0  0  0
 28  1  1  0  0  0  0
 29 34  1  0  0  0  0
 30 35  1  0  0  0  0
 30 29  2  0  0  0  0
 31 30  1  0  0  0  0
 32 31  2  0  0  0  0
 32 33  1  0  0  0  0
 33 28  2  0  0  0  0
 36 32  1  0  0  0  0
M  END
>  <minimizedAffinity>
-5.30960703

$$$$

 OpenBabel03262521583D

 36 39  0  0  1  0  0  0  0  0999 V2000
   39.0870   23.2930   35.8050 N   0  0  0  0  0  0  0  0  0  0  0  0
   39.5440   22.7830   37.0930 C   0  0  0  0  0  0  0  0  0  0  0  0
   38.8450   23.2090   38.2970 C   0  0  0  0  0  0  0  0  0  0  0  0
   38.0950   24.4840   38.2600 C   0  0  0  0  0  0  0  0  0  0  0  0
   37.6610   24.9090   36.8750 C   0  0  0  0  0  0  0  0  0  0  0  0
   38.8710   24.6820   35.9360 C   0  0  2  0  0  0  0  0  0  0  0  0
   40.6390   23.0550   37.1290 H   0  0  0  0  0  0  0  0  0  0  0  0
   39.5460   21.6760   37.0040 H   0  0  0  0  0  0  0  0  0  0  0  0
   38.1790   22.3980   38.6700 H   0  0  0  0  0  0  0  0  0  0  0  0
   39.6090   23.3100   39.1210 H   0  0  0  0  0  0  0  0  0  0  0  0
   38.6650   25.3580   38.6640 H   0  0  0  0  0  0  0  0  0  0  0  0
   37.1600   24.4350   38.8660 H   0  0  0  0  0  0  0  0  0  0  0  0
   37.4590   25.9780   36.8060 H   0  0  0  0  0  0  0  0  0  0  0  0
   36.8540   24.3010   36.4590 H   0  0  0  0  0  0  0  0  0  0  0  0
   39.7120   25.1950   36.5260 H   0  0  0  0  0  0  0  0  0  0  0  0
   38.7160   25.5070   34.7470 C   0  0  0  0  0  0  0  0  0  0  0  0
   37.5140   25.7360   34.1290 N   0  0  0  0  0  0  0  0  0  0  0  0
   37.4650   26.5270   33.0490 C   0  0  0  0  0  3  0  0  0  0  0  0
   38.5280   27.1510   32.4780 N   0  0  0  0  0  0  0  0  0  0  0  0
   39.7250   26.9530   33.0550 C   0  0  0  0  0  0  0  0  0  0  0  0
   40.8140   27.5770   32.4950 C   0  0  0  0  0  3  0  0  0  0  0  0
   42.0650   27.4080   33.0510 C   0  0  0  0  0  0  0  0  0  0  0  0
   42.9140   27.9030   32.6050 H   0  0  0  0  0  0  0  0  0  0  0  0
   42.2000   26.6070   34.1680 C   0  0  0  0  0  0  0  0  0  0  0  0
   43.1830   26.4740   34.6050 H   0  0  0  0  0  0  0  0  0  0  0  0
   41.0850   26.0140   34.6780 C   0  0  0  0  0  3  0  0  0  0  0  0
   39.7980   26.1420   34.1690 C   0  0  0  0  0  0  0  0  0  0  0  0
   38.9180   22.4550   34.6700 C   0  0  0  0  0  0  0  0  0  0  0  0
   39.9700   22.0160   33.8730 C   0  0  0  0  0  0  0  0  0  0  0  0
   39.7190   21.1990   32.7880 C   0  0  0  0  0  0  0  0  0  0  0  0
   38.4100   20.8580   32.5530 N   0  0  0  0  0  0  0  0  0  0  0  0
   37.4110   21.3030   33.3490 C   0  0  0  0  0  0  0  0  0  0  0  0
   37.6740   22.0910   34.3920 N   0  0  0  0  0  0  0  0  0  0  0  0
   40.9830   22.3000   34.0690 H   0  0  0  0  0  0  0  0  0  0  0  0
   40.5340   20.8650   32.1800 H   0  0  0  0  0  0  0  0  0  0  0  0
   36.4150   20.9800   33.0810 H   0  0  0  0  0  0  0  0  0  0  0  0
  1  6  1  0  0  0  0
  1  2  1  0  0  0  0
  2  7  1  0  0  0  0
  2  3  1  0  0  0  0
  3  9  1  0  0  0  0
  3 10  1  0  0  0  0
  4  3  1  0  0  0  0
  4 11  1  0  0  0  0
  4 12  1  0  0  0  0
  5  4  1  0  0  0  0
  6 15  1  1  0  0  0
  6  5  1  0  0  0  0
  8  2  1  0  0  0  0
 13  5  1  0  0  0  0
 14  5  1  0  0  0  0
 16  6  1  0  0  0  0
 17 16  2  0  0  0  0
 18 17  1  0  0  0  0
 19 18  2  0  0  0  0
 19 20  1  0  0  0  0
 20 27  1  0  0  0  0
 21 22  1  0  0  0  0
 21 20  2  0  0  0  0
 22 24  2  0  0  0  0
 23 22  1  0  0  0  0
 24 25  1  0  0  0  0
 24 26  1  0  0  0  0
 27 26  2  0  0  0  0
 27 16  1  0  0  0  0
 28  1  1  0  0  0  0
 29 34  1  0  0  0  0
 29 28  2  0  0  0  0
 30 29  1  0  0  0  0
 31 30  2  0  0  0  0
 31 32  1  0  0  0  0
 32 33  2  0  0  0  0
 33 28  1  0  0  0  0
 35 30  1  0  0  0  0
 36 32  1  0  0  0  0
M  END
>  <minimizedAffinity>
-5.29045725

$$$$

 OpenBabel03262521583D

 36 39  0  0  1  0  0  0  0  0999 V2000
   38.2190   24.3920   35.7660 N   0  0  0  0  0  0  0  0  0  0  0  0
   37.5620   24.7270   37.0240 C   0  0  0  0  0  0  0  0  0  0  0  0
   38.1580   24.2550   38.2660 C   0  0  0  0  0  0  0  0  0  0  0  0
   39.0400   23.0680   38.2150 C   0  0  0  0  0  0  0  0  0  0  0  0
   39.6760   22.8240   36.8650 C   0  0  0  0  0  0  0  0  0  0  0  0
   38.5660   23.0240   35.8040 C   0  0  2  0  0  0  0  0  0  0  0  0
   36.5060   24.3480   36.8990 H   0  0  0  0  0  0  0  0  0  0  0  0
   37.4510   25.8330   37.0300 H   0  0  0  0  0  0  0  0  0  0  0  0
   38.6850   25.0860   38.7880 H   0  0  0  0  0  0  0  0  0  0  0  0
   37.3180   24.0010   38.9760 H   0  0  0  0  0  0  0  0  0  0  0  0
   38.5240   22.1080   38.4690 H   0  0  0  0  0  0  0  0  0  0  0  0
   39.8870   23.1470   38.9370 H   0  0  0  0  0  0  0  0  0  0  0  0
   39.9980   21.7920   36.7320 H   0  0  0  0  0  0  0  0  0  0  0  0
   40.4550   23.5450   36.6070 H   0  0  0  0  0  0  0  0  0  0  0  0
   37.7220   22.3770   36.2380 H   0  0  0  0  0  0  0  0  0  0  0  0
   38.9470   22.3370   34.5780 C   0  0  0  0  0  0  0  0  0  0  0  0
   40.2130   22.3600   34.0530 N   0  0  0  0  0  0  0  0  0  0  0  0
   40.4760   21.6810   32.9280 C   0  0  0  0  0  3  0  0  0  0  0  0
   39.5780   20.9420   32.2250 N   0  0  0  0  0  0  0  0  0  0  0  0
   38.3260   20.8940   32.7070 C   0  0  0  0  0  0  0  0  0  0  0  0
   37.4030   20.1490   32.0120 C   0  0  0  0  0  3  0  0  0  0  0  0
   36.1040   20.0650   32.4670 C   0  0  0  0  0  0  0  0  0  0  0  0
   35.3860   19.4770   31.9150 H   0  0  0  0  0  0  0  0  0  0  0  0
   35.7520   20.7370   33.6210 C   0  0  0  0  0  0  0  0  0  0  0  0
   34.7310   20.6700   33.9780 H   0  0  0  0  0  0  0  0  0  0  0  0
   36.7090   21.4590   34.2670 C   0  0  0  0  0  3  0  0  0  0  0  0
   38.0340   21.5860   33.8640 C   0  0  0  0  0  0  0  0  0  0  0  0
   38.4280   25.3480   34.7370 C   0  0  0  0  0  0  0  0  0  0  0  0
   39.5740   26.1290   34.6310 C   0  0  0  0  0  0  0  0  0  0  0  0
   39.7000   27.0340   33.5950 C   0  0  0  0  0  0  0  0  0  0  0  0
   38.6580   27.1110   32.7040 N   0  0  0  0  0  0  0  0  0  0  0  0
   37.5580   26.3370   32.8370 C   0  0  0  0  0  0  0  0  0  0  0  0
   37.4550   25.4690   33.8440 N   0  0  0  0  0  0  0  0  0  0  0  0
   40.3720   26.0590   35.3410 H   0  0  0  0  0  0  0  0  0  0  0  0
   40.5850   27.6310   33.5200 H   0  0  0  0  0  0  0  0  0  0  0  0
   36.7920   26.4720   32.0850 H   0  0  0  0  0  0  0  0  0  0  0  0
  1  6  1  0  0  0  0
  1  2  1  0  0  0  0
  2  8  1  0  0  0  0
  2  3  1  0  0  0  0
  3  9  1  0  0  0  0
  3 10  1  0  0  0  0
  4  3  1  0  0  0  0
  4 11  1  0  0  0  0
  4 12  1  0  0  0  0
  5  4  1  0  0  0  0
  6 15  1  1  0  0  0
  6  5  1  0  0  0  0
  7  2  1  0  0  0  0
 13  5  1  0  0  0  0
 14  5  1  0  0  0  0
 16  6  1  0  0  0  0
 17 16  1  0  0  0  0
 18 17  2  0  0  0  0
 19 20  2  0  0  0  0
 19 18  1  0  0  0  0
 20 27  1  0  0  0  0
 21 22  2  0  0  0  0
 21 20  1  0  0  0  0
 22 24  1  0  0  0  0
 23 22  1  0  0  0  0
 24 25  1  0  0  0  0
 24 26  2  0  0  0  0
 27 26  1  0  0  0  0
 27 16  2  0  0  0  0
 28  1  1  0  0  0  0
 29 28  1  0  0  0  0
 29 34  1  0  0  0  0
 30 29  2  0  0  0  0
 31 32  2  0  0  0  0
 31 30  1  0  0  0  0
 32 33  1  0  0  0  0
 33 28  2  0  0  0  0
 35 30  1  0  0  0  0
 36 32  1  0  0  0  0
M  END
>  <minimizedAffinity>
-5.25942802

$$$$

 OpenBabel03262521583D

 36 39  0  0  1  0  0  0  0  0999 V2000
   37.7120   24.4990   32.7600 N   0  0  0  0  0  0  0  0  0  0  0  0
   36.7510   25.5370   32.4070 C   0  0  0  0  0  0  0  0  0  0  0  0
   37.2520   26.8580   32.0520 C   0  0  0  0  0  0  0  0  0  0  0  0
   38.5840   27.2600   32.5540 C   0  0  0  0  0  0  0  0  0  0  0  0
   39.5020   26.1030   32.8790 C   0  0  0  0  0  0  0  0  0  0  0  0
   38.6550   25.0610   33.6490 C   0  0  2  0  0  0  0  0  0  0  0  0
   36.0480   25.5810   33.2890 H   0  0  0  0  0  0  0  0  0  0  0  0
   36.1280   25.1150   31.5890 H   0  0  0  0  0  0  0  0  0  0  0  0
   37.2100   27.0100   30.9500 H   0  0  0  0  0  0  0  0  0  0  0  0
   36.5180   27.6200   32.4430 H   0  0  0  0  0  0  0  0  0  0  0  0
   38.5510   27.8730   33.4900 H   0  0  0  0  0  0  0  0  0  0  0  0
   39.1380   27.8850   31.8130 H   0  0  0  0  0  0  0  0  0  0  0  0
   40.2960   26.3770   33.5730 H   0  0  0  0  0  0  0  0  0  0  0  0
   39.8770   25.5770   31.9970 H   0  0  0  0  0  0  0  0  0  0  0  0
   38.1560   25.7220   34.4450 H   0  0  0  0  0  0  0  0  0  0  0  0
   39.5410   24.1930   34.4110 C   0  0  0  0  0  0  0  0  0  0  0  0
   40.6720   23.6170   33.8950 N   0  0  0  0  0  0  0  0  0  0  0  0
   41.4400   22.8460   34.6790 C   0  0  0  0  0  3  0  0  0  0  0  0
   41.2000   22.5650   35.9870 N   0  0  0  0  0  0  0  0  0  0  0  0
   40.1000   23.1120   36.5300 C   0  0  0  0  0  0  0  0  0  0  0  0
   39.8410   22.8430   37.8530 C   0  0  0  0  0  3  0  0  0  0  0  0
   38.7260   23.3820   38.4580 C   0  0  0  0  0  0  0  0  0  0  0  0
   38.5310   23.1650   39.4980 H   0  0  0  0  0  0  0  0  0  0  0  0
   37.8840   24.1880   37.7180 C   0  0  0  0  0  0  0  0  0  0  0  0
   37.0080   24.6120   38.1950 H   0  0  0  0  0  0  0  0  0  0  0  0
   38.1920   24.4190   36.4120 C   0  0  0  0  0  3  0  0  0  0  0  0
   39.2970   23.9090   35.7410 C   0  0  0  0  0  0  0  0  0  0  0  0
   37.6310   23.1770   32.2480 C   0  0  0  0  0  0  0  0  0  0  0  0
   38.2590   22.7650   31.0770 C   0  0  0  0  0  0  0  0  0  0  0  0
   38.1330   21.4570   30.6500 C   0  0  0  0  0  0  0  0  0  0  0  0
   37.3740   20.6170   31.4280 N   0  0  0  0  0  0  0  0  0  0  0  0
   36.7780   21.0520   32.5600 C   0  0  0  0  0  0  0  0  0  0  0  0
   36.9110   22.3180   32.9560 N   0  0  0  0  0  0  0  0  0  0  0  0
   38.8400   23.4380   30.4810 H   0  0  0  0  0  0  0  0  0  0  0  0
   38.6200   21.1470   29.7490 H   0  0  0  0  0  0  0  0  0  0  0  0
   36.2020   20.3150   33.1030 H   0  0  0  0  0  0  0  0  0  0  0  0
  1  6  1  0  0  0  0
  2  1  1  0  0  0  0
  2  7  1  0  0  0  0
  3  2  1  0  0  0  0
  3 10  1  0  0  0  0
  3  4  1  0  0  0  0
  4  5  1  0  0  0  0
  4 11  1  0  0  0  0
  5 13  1  0  0  0  0
  5  6  1  0  0  0  0
  6 16  1  0  0  0  0
  6 15  1  1  0  0  0
  8  2  1  0  0  0  0
  9  3  1  0  0  0  0
 12  4  1  0  0  0  0
 14  5  1  0  0  0  0
 16 27  1  0  0  0  0
 17 16  2  0  0  0  0
 17 18  1  0  0  0  0
 18 19  2  0  0  0  0
 19 20  1  0  0  0  0
 20 21  1  0  0  0  0
 21 22  2  0  0  0  0
 22 23  1  0  0  0  0
 24 25  1  0  0  0  0
 24 22  1  0  0  0  0
 26 24  2  0  0  0  0
 27 26  1  0  0  0  0
 27 20  2  0  0  0  0
 28  1  1  0  0  0  0
 28 33  1  0  0  0  0
 29 28  2  0  0  0  0
 30 29  1  0  0  0  0
 30 31  2  0  0  0  0
 31 32  1  0  0  0  0
 32 33  2  0  0  0  0
 32 36  1  0  0  0  0
 34 29  1  0  0  0  0
 35 30  1  0  0  0  0
M  END
>  <minimizedAffinity>
-5.25604105

$$$$

 OpenBabel03262521583D

 36 39  0  0  1  0  0  0  0  0999 V2000
   38.1180   23.5650   31.5010 N   0  0  0  0  0  0  0  0  0  0  0  0
   38.1210   22.1090   31.5880 C   0  0  0  0  0  0  0  0  0  0  0  0
   36.8880   21.3920   31.2920 C   0  0  0  0  0  0  0  0  0  0  0  0
   35.6040   22.1130   31.4390 C   0  0  0  0  0  0  0  0  0  0  0  0
   35.7190   23.6160   31.3210 C   0  0  0  0  0  0  0  0  0  0  0  0
   36.9560   24.0400   32.1500 C   0  0  2  0  0  0  0  0  0  0  0  0
   38.4890   21.8910   32.6320 H   0  0  0  0  0  0  0  0  0  0  0  0
   38.9500   21.7620   30.9340 H   0  0  0  0  0  0  0  0  0  0  0  0
   36.9380   20.9280   30.2810 H   0  0  0  0  0  0  0  0  0  0  0  0
   36.8360   20.4990   31.9800 H   0  0  0  0  0  0  0  0  0  0  0  0
   35.0960   21.9400   32.4210 H   0  0  0  0  0  0  0  0  0  0  0  0
   34.8620   21.8060   30.6640 H   0  0  0  0  0  0  0  0  0  0  0  0
   34.8850   24.1410   31.7870 H   0  0  0  0  0  0  0  0  0  0  0  0
   35.9190   23.9650   30.3040 H   0  0  0  0  0  0  0  0  0  0  0  0
   36.7610   23.4910   33.1400 H   0  0  0  0  0  0  0  0  0  0  0  0
   36.8430   25.4490   32.4950 C   0  0  0  0  0  0  0  0  0  0  0  0
   36.2330   26.3820   31.6980 N   0  0  0  0  0  0  0  0  0  0  0  0
   36.1580   27.6560   32.1080 C   0  0  0  0  0  3  0  0  0  0  0  0
   36.6460   28.1370   33.2810 N   0  0  0  0  0  0  0  0  0  0  0  0
   37.2510   27.2530   34.0910 C   0  0  0  0  0  0  0  0  0  0  0  0
   37.7490   27.7190   35.2850 C   0  0  0  0  0  3  0  0  0  0  0  0
   38.3760   26.8510   36.1540 C   0  0  0  0  0  0  0  0  0  0  0  0
   38.7640   27.2250   37.0890 H   0  0  0  0  0  0  0  0  0  0  0  0
   38.4940   25.5200   35.8040 C   0  0  0  0  0  0  0  0  0  0  0  0
   38.9870   24.8380   36.4870 H   0  0  0  0  0  0  0  0  0  0  0  0
   37.9810   25.1170   34.6090 C   0  0  0  0  0  3  0  0  0  0  0  0
   37.3380   25.9360   33.6880 C   0  0  0  0  0  0  0  0  0  0  0  0
   39.1520   24.2930   30.8550 C   0  0  0  0  0  0  0  0  0  0  0  0
   39.1400   24.6110   29.5000 C   0  0  0  0  0  0  0  0  0  0  0  0
   40.1850   25.3270   28.9500 C   0  0  0  0  0  0  0  0  0  0  0  0
   41.2030   25.6940   29.7960 N   0  0  0  0  0  0  0  0  0  0  0  0
   41.1830   25.3670   31.1080 C   0  0  0  0  0  0  0  0  0  0  0  0
   40.1650   24.6750   31.6200 N   0  0  0  0  0  0  0  0  0  0  0  0
   38.3400   24.3090   28.8570 H   0  0  0  0  0  0  0  0  0  0  0  0
   40.1680   25.5690   27.9080 H   0  0  0  0  0  0  0  0  0  0  0  0
   42.0300   25.7010   31.6900 H   0  0  0  0  0  0  0  0  0  0  0  0
  1  2  1  0  0  0  0
  1  6  1  0  0  0  0
  2  7  1  0  0  0  0
  3  4  1  0  0  0  0
  3  2  1  0  0  0  0
  3 10  1  0  0  0  0
  4 11  1  0  0  0  0
  5  4  1  0  0  0  0
  5 13  1  0  0  0  0
  5  6  1  0  0  0  0
  6 16  1  0  0  0  0
  6 15  1  1  0  0  0
  8  2  1  0  0  0  0
  9  3  1  0  0  0  0
 12  4  1  0  0  0  0
 14  5  1  0  0  0  0
 16 27  1  0  0  0  0
 17 18  1  0  0  0  0
 17 16  2  0  0  0  0
 18 19  2  0  0  0  0
 19 20  1  0  0  0  0
 20 21  1  0  0  0  0
 21 22  2  0  0  0  0
 22 23  1  0  0  0  0
 24 22  1  0  0  0  0
 24 25  1  0  0  0  0
 26 24  2  0  0  0  0
 27 20  2  0  0  0  0
 27 26  1  0  0  0  0
 28  1  1  0  0  0  0
 28 33  1  0  0  0  0
 29 28  2  0  0  0  0
 30 29  1  0  0  0  0
 30 31  2  0  0  0  0
 31 32  1  0  0  0  0
 32 33  2  0  0  0  0
 32 36  1  0  0  0  0
 34 29  1  0  0  0  0
 35 30  1  0  0  0  0
M  END
>  <minimizedAffinity>
-5.1557045

$$$$

 OpenBabel03262521583D

 36 39  0  0  1  0  0  0  0  0999 V2000
   37.6830   24.0940   32.8580 N   0  0  0  0  0  0  0  0  0  0  0  0
   36.7010   25.0940   32.4590 C   0  0  0  0  0  0  0  0  0  0  0  0
   37.1780   26.3970   32.0140 C   0  0  0  0  0  0  0  0  0  0  0  0
   38.5130   26.8480   32.4660 C   0  0  0  0  0  0  0  0  0  0  0  0
   39.4520   25.7250   32.8450 C   0  0  0  0  0  0  0  0  0  0  0  0
   38.6330   24.7210   33.6940 C   0  0  2  0  0  0  0  0  0  0  0  0
   36.0140   25.1840   33.3490 H   0  0  0  0  0  0  0  0  0  0  0  0
   36.0710   24.6150   31.6790 H   0  0  0  0  0  0  0  0  0  0  0  0
   37.1150   26.4800   30.9060 H   0  0  0  0  0  0  0  0  0  0  0  0
   36.4400   27.1730   32.3700 H   0  0  0  0  0  0  0  0  0  0  0  0
   38.4870   27.5170   33.3630 H   0  0  0  0  0  0  0  0  0  0  0  0
   39.0450   27.4320   31.6780 H   0  0  0  0  0  0  0  0  0  0  0  0
   40.2540   26.0510   33.5070 H   0  0  0  0  0  0  0  0  0  0  0  0
   39.8190   25.1490   31.9920 H   0  0  0  0  0  0  0  0  0  0  0  0
   38.1390   25.4240   34.4560 H   0  0  0  0  0  0  0  0  0  0  0  0
   39.5440   23.9140   34.4920 C   0  0  0  0  0  0  0  0  0  0  0  0
   40.6660   23.3080   33.9890 N   0  0  0  0  0  0  0  0  0  0  0  0
   41.4580   22.5990   34.8050 C   0  0  0  0  0  3  0  0  0  0  0  0
   41.2540   22.4100   36.1350 N   0  0  0  0  0  0  0  0  0  0  0  0
   40.1640   22.9870   36.6670 C   0  0  0  0  0  0  0  0  0  0  0  0
   39.9400   22.8110   38.0110 C   0  0  0  0  0  3  0  0  0  0  0  0
   38.8370   23.3860   38.6060 C   0  0  0  0  0  0  0  0  0  0  0  0
   38.6700   23.2430   39.6630 H   0  0  0  0  0  0  0  0  0  0  0  0
   37.9710   24.1340   37.8320 C   0  0  0  0  0  0  0  0  0  0  0  0
   37.1040   24.5860   38.3000 H   0  0  0  0  0  0  0  0  0  0  0  0
   38.2440   24.2740   36.5060 C   0  0  0  0  0  3  0  0  0  0  0  0
   39.3360   23.7230   35.8440 C   0  0  0  0  0  0  0  0  0  0  0  0
   37.6120   22.7410   32.4300 C   0  0  0  0  0  0  0  0  0  0  0  0
   37.1510   21.7020   33.2320 C   0  0  0  0  0  0  0  0  0  0  0  0
   37.1090   20.4140   32.7350 C   0  0  0  0  0  0  0  0  0  0  0  0
   37.5370   20.2290   31.4430 N   0  0  0  0  0  0  0  0  0  0  0  0
   37.9790   21.2620   30.6920 C   0  0  0  0  0  0  0  0  0  0  0  0
   38.0120   22.4990   31.1890 N   0  0  0  0  0  0  0  0  0  0  0  0
   36.8290   21.8670   34.2390 H   0  0  0  0  0  0  0  0  0  0  0  0
   36.7530   19.6190   33.3580 H   0  0  0  0  0  0  0  0  0  0  0  0
   38.2950   21.0140   29.6880 H   0  0  0  0  0  0  0  0  0  0  0  0
  1  6  1  0  0  0  0
  2  1  1  0  0  0  0
  2  7  1  0  0  0  0
  3 10  1  0  0  0  0
  3  2  1  0  0  0  0
  3  4  1  0  0  0  0
  4  5  1  0  0  0  0
  4 11  1  0  0  0  0
  5 13  1  0  0  0  0
  5  6  1  0  0  0  0
  6 15  1  1  0  0  0
  6 16  1  0  0  0  0
  8  2  1  0  0  0  0
  9  3  1  0  0  0  0
 12  4  1  0  0  0  0
 14  5  1  0  0  0  0
 16 27  1  0  0  0  0
 17 16  2  0  0  0  0
 17 18  1  0  0  0  0
 18 19  2  0  0  0  0
 19 20  1  0  0  0  0
 20 21  1  0  0  0  0
 21 22  2  0  0  0  0
 22 23  1  0  0  0  0
 24 25  1  0  0  0  0
 24 22  1  0  0  0  0
 26 24  2  0  0  0  0
 27 26  1  0  0  0  0
 27 20  2  0  0  0  0
 28  1  1  0  0  0  0
 28 29  1  0  0  0  0
 29 34  1  0  0  0  0
 30 29  2  0  0  0  0
 30 35  1  0  0  0  0
 31 30  1  0  0  0  0
 32 33  1  0  0  0  0
 32 31  2  0  0  0  0
 33 28  2  0  0  0  0
 36 32  1  0  0  0  0
M  END
>  <minimizedAffinity>
-5.04015446

$$$$

 OpenBabel03262521583D

 36 39  0  0  1  0  0  0  0  0999 V2000
   37.7010   22.4650   34.1860 N   0  0  0  0  0  0  0  0  0  0  0  0
   36.8070   21.3480   33.9050 C   0  0  0  0  0  0  0  0  0  0  0  0
   36.9910   20.6030   32.6670 C   0  0  0  0  0  0  0  0  0  0  0  0
   37.6660   21.2790   31.5360 C   0  0  0  0  0  0  0  0  0  0  0  0
   38.5760   22.4150   31.9450 C   0  0  0  0  0  0  0  0  0  0  0  0
   37.8140   23.2400   33.0110 C   0  0  2  0  0  0  0  0  0  0  0  0
   35.7720   21.7920   33.9740 H   0  0  0  0  0  0  0  0  0  0  0  0
   36.8680   20.6740   34.7870 H   0  0  0  0  0  0  0  0  0  0  0  0
   37.4900   19.6280   32.8660 H   0  0  0  0  0  0  0  0  0  0  0  0
   35.9710   20.2960   32.2950 H   0  0  0  0  0  0  0  0  0  0  0  0
   36.9630   21.7280   30.7900 H   0  0  0  0  0  0  0  0  0  0  0  0
   38.3060   20.5750   30.9520 H   0  0  0  0  0  0  0  0  0  0  0  0
   38.7610   23.1190   31.1350 H   0  0  0  0  0  0  0  0  0  0  0  0
   39.4970   22.0880   32.4360 H   0  0  0  0  0  0  0  0  0  0  0  0
   36.7990   23.3900   32.4940 H   0  0  0  0  0  0  0  0  0  0  0  0
   38.3820   24.5790   33.0770 C   0  0  0  0  0  0  0  0  0  0  0  0
   39.6070   24.8610   33.6230 N   0  0  0  0  0  0  0  0  0  0  0  0
   40.0580   26.1230   33.6220 C   0  0  0  0  0  3  0  0  0  0  0  0
   39.3980   27.1960   33.1130 N   0  0  0  0  0  0  0  0  0  0  0  0
   38.1930   26.9610   32.5680 C   0  0  0  0  0  0  0  0  0  0  0  0
   37.5100   28.0330   32.0450 C   0  0  0  0  0  3  0  0  0  0  0  0
   36.2700   27.8440   31.4710 C   0  0  0  0  0  0  0  0  0  0  0  0
   35.7410   28.6920   31.0620 H   0  0  0  0  0  0  0  0  0  0  0  0
   35.7360   26.5710   31.4320 C   0  0  0  0  0  0  0  0  0  0  0  0
   34.7610   26.4230   30.9810 H   0  0  0  0  0  0  0  0  0  0  0  0
   36.4580   25.5490   31.9660 C   0  0  0  0  0  3  0  0  0  0  0  0
   37.7110   25.6680   32.5590 C   0  0  0  0  0  0  0  0  0  0  0  0
   38.3060   22.6570   35.4560 C   0  0  0  0  0  0  0  0  0  0  0  0
   39.5750   22.1910   35.7840 C   0  0  0  0  0  0  0  0  0  0  0  0
   40.0920   22.4260   37.0430 C   0  0  0  0  0  0  0  0  0  0  0  0
   39.3020   23.1260   37.9220 N   0  0  0  0  0  0  0  0  0  0  0  0
   38.0720   23.5640   37.5700 C   0  0  0  0  0  0  0  0  0  0  0  0
   37.5900   23.3270   36.3490 N   0  0  0  0  0  0  0  0  0  0  0  0
   40.1710   21.6420   35.0860 H   0  0  0  0  0  0  0  0  0  0  0  0
   41.0690   22.0650   37.2880 H   0  0  0  0  0  0  0  0  0  0  0  0
   37.5280   24.1040   38.3320 H   0  0  0  0  0  0  0  0  0  0  0  0
  1 28  1  0  0  0  0
  2  7  1  0  0  0  0
  2  1  1  0  0  0  0
  2  8  1  0  0  0  0
  3  9  1  0  0  0  0
  3  2  1  0  0  0  0
  4  5  1  0  0  0  0
  4  3  1  0  0  0  0
  5 14  1  0  0  0  0
  5  6  1  0  0  0  0
  6 15  1  6  0  0  0
  6 16  1  0  0  0  0
  6  1  1  0  0  0  0
 10  3  1  0  0  0  0
 11  4  1  0  0  0  0
 12  4  1  0  0  0  0
 13  5  1  0  0  0  0
 16 17  1  0  0  0  0
 18 17  2  0  0  0  0
 19 18  1  0  0  0  0
 20 19  2  0  0  0  0
 21 20  1  0  0  0  0
 22 21  2  0  0  0  0
 23 22  1  0  0  0  0
 24 22  1  0  0  0  0
 24 26  2  0  0  0  0
 25 24  1  0  0  0  0
 26 27  1  0  0  0  0
 27 20  1  0  0  0  0
 27 16  2  0  0  0  0
 28 29  2  0  0  0  0
 28 33  1  0  0  0  0
 29 30  1  0  0  0  0
 30 35  1  0  0  0  0
 30 31  2  0  0  0  0
 32 31  1  0  0  0  0
 32 36  1  0  0  0  0
 33 32  2  0  0  0  0
 34 29  1  0  0  0  0
M  END
>  <minimizedAffinity>
-5.03956842

$$$$

 OpenBabel03262521583D

 36 39  0  0  1  0  0  0  0  0999 V2000
   39.4450   24.5990   34.9560 N   0  0  0  0  0  0  0  0  0  0  0  0
   39.5120   24.0680   36.3120 C   0  0  0  0  0  0  0  0  0  0  0  0
   38.9830   22.7340   36.5630 C   0  0  0  0  0  0  0  0  0  0  0  0
   37.9620   22.1980   35.6360 C   0  0  0  0  0  0  0  0  0  0  0  0
   37.9910   22.8140   34.2550 C   0  0  0  0  0  0  0  0  0  0  0  0
   38.1520   24.3420   34.4480 C   0  0  2  0  0  0  0  0  0  0  0  0
   38.9950   24.8460   36.9450 H   0  0  0  0  0  0  0  0  0  0  0  0
   40.5780   24.1370   36.6190 H   0  0  0  0  0  0  0  0  0  0  0  0
   39.8110   21.9970   36.6660 H   0  0  0  0  0  0  0  0  0  0  0  0
   38.5150   22.7360   37.5890 H   0  0  0  0  0  0  0  0  0  0  0  0
   36.9090   22.3370   35.9900 H   0  0  0  0  0  0  0  0  0  0  0  0
   38.0770   21.1000   35.4770 H   0  0  0  0  0  0  0  0  0  0  0  0
   37.0470   22.7040   33.7240 H   0  0  0  0  0  0  0  0  0  0  0  0
   38.8500   22.5080   33.6530 H   0  0  0  0  0  0  0  0  0  0  0  0
   37.3340   24.5570   35.2250 H   0  0  0  0  0  0  0  0  0  0  0  0
   37.6940   25.0280   33.2490 C   0  0  0  0  0  0  0  0  0  0  0  0
   37.7480   24.4840   31.9930 N   0  0  0  0  0  0  0  0  0  0  0  0
   37.2830   25.1830   30.9480 C   0  0  0  0  0  3  0  0  0  0  0  0
   36.7430   26.4280   31.0090 N   0  0  0  0  0  0  0  0  0  0  0  0
   36.6720   26.9960   32.2240 C   0  0  0  0  0  0  0  0  0  0  0  0
   36.1250   28.2550   32.3080 C   0  0  0  0  0  3  0  0  0  0  0  0
   36.0270   28.8810   33.5330 C   0  0  0  0  0  0  0  0  0  0  0  0
   35.5960   29.8690   33.5900 H   0  0  0  0  0  0  0  0  0  0  0  0
   36.4830   28.2260   34.6600 C   0  0  0  0  0  0  0  0  0  0  0  0
   36.4060   28.7180   35.6230 H   0  0  0  0  0  0  0  0  0  0  0  0
   37.0150   26.9810   34.5150 C   0  0  0  0  0  3  0  0  0  0  0  0
   37.1440   26.2930   33.3130 C   0  0  0  0  0  0  0  0  0  0  0  0
   40.5450   25.2510   34.3370 C   0  0  0  0  0  0  0  0  0  0  0  0
   40.7930   26.6160   34.4450 C   0  0  0  0  0  0  0  0  0  0  0  0
   41.8890   27.1690   33.8140 C   0  0  0  0  0  0  0  0  0  0  0  0
   42.6940   26.3170   33.0980 N   0  0  0  0  0  0  0  0  0  0  0  0
   42.4230   24.9950   33.0140 C   0  0  0  0  0  0  0  0  0  0  0  0
   41.3590   24.4790   33.6300 N   0  0  0  0  0  0  0  0  0  0  0  0
   40.1480   27.2630   35.0020 H   0  0  0  0  0  0  0  0  0  0  0  0
   42.0740   28.2200   33.9010 H   0  0  0  0  0  0  0  0  0  0  0  0
   43.1150   24.4080   32.4270 H   0  0  0  0  0  0  0  0  0  0  0  0
  1  2  1  0  0  0  0
  2  3  1  0  0  0  0
  2  8  1  0  0  0  0
  2  7  1  0  0  0  0
  3  9  1  0  0  0  0
  3 10  1  0  0  0  0
  4 11  1  0  0  0  0
  4  3  1  0  0  0  0
  5  6  1  0  0  0  0
  5  4  1  0  0  0  0
  6  1  1  0  0  0  0
  6 15  1  1  0  0  0
 12  4  1  0  0  0  0
 13  5  1  0  0  0  0
 14  5  1  0  0  0  0
 16 27  1  0  0  0  0
 16  6  1  0  0  0  0
 17 16  2  0  0  0  0
 18 19  2  0  0  0  0
 18 17  1  0  0  0  0
 19 20  1  0  0  0  0
 20 21  2  0  0  0  0
 20 27  1  0  0  0  0
 21 22  1  0  0  0  0
 22 23  1  0  0  0  0
 22 24  2  0  0  0  0
 24 25  1  0  0  0  0
 26 24  1  0  0  0  0
 27 26  2  0  0  0  0
 28 29  1  0  0  0  0
 28  1  1  0  0  0  0
 29 34  1  0  0  0  0
 30 35  1  0  0  0  0
 30 29  2  0  0  0  0
 31 30  1  0  0  0  0
 32 31  2  0  0  0  0
 32 33  1  0  0  0  0
 33 28  2  0  0  0  0
 36 32  1  0  0  0  0
M  END
>  <minimizedAffinity>
-5.03041935

$$$$

 OpenBabel03262521583D

 36 39  0  0  1  0  0  0  0  0999 V2000
   38.2440   24.1960   34.7900 N   0  0  0  0  0  0  0  0  0  0  0  0
   38.0140   24.3160   36.2250 C   0  0  0  0  0  0  0  0  0  0  0  0
   38.8870   23.5840   37.1330 C   0  0  0  0  0  0  0  0  0  0  0  0
   39.5860   22.3850   36.6190 C   0  0  0  0  0  0  0  0  0  0  0  0
   39.7790   22.3730   35.1200 C   0  0  0  0  0  0  0  0  0  0  0  0
   38.4400   22.8300   34.4910 C   0  0  2  0  0  0  0  0  0  0  0  0
   36.9330   24.0240   36.3620 H   0  0  0  0  0  0  0  0  0  0  0  0
   38.0280   25.4040   36.4510 H   0  0  0  0  0  0  0  0  0  0  0  0
   39.6270   24.2710   37.6030 H   0  0  0  0  0  0  0  0  0  0  0  0
   38.2640   23.2420   38.0090 H   0  0  0  0  0  0  0  0  0  0  0  0
   39.0650   21.4220   36.8510 H   0  0  0  0  0  0  0  0  0  0  0  0
   40.6080   22.2800   37.0550 H   0  0  0  0  0  0  0  0  0  0  0  0
   39.9380   21.3700   34.7240 H   0  0  0  0  0  0  0  0  0  0  0  0
   40.5240   23.0890   34.7640 H   0  0  0  0  0  0  0  0  0  0  0  0
   37.6910   22.1570   35.0440 H   0  0  0  0  0  0  0  0  0  0  0  0
   38.3780   22.3740   33.1100 C   0  0  0  0  0  0  0  0  0  0  0  0
   39.3140   22.6890   32.1610 N   0  0  0  0  0  0  0  0  0  0  0  0
   39.1850   22.2060   30.9170 C   0  0  0  0  0  3  0  0  0  0  0  0
   38.1790   21.4030   30.4830 N   0  0  0  0  0  0  0  0  0  0  0  0
   37.2400   21.0710   31.3840 C   0  0  0  0  0  0  0  0  0  0  0  0
   36.2150   20.2560   30.9670 C   0  0  0  0  0  3  0  0  0  0  0  0
   35.2270   19.8840   31.8540 C   0  0  0  0  0  0  0  0  0  0  0  0
   34.4260   19.2430   31.5170 H   0  0  0  0  0  0  0  0  0  0  0  0
   35.2890   20.3400   33.1560 C   0  0  0  0  0  0  0  0  0  0  0  0
   34.5130   20.0470   33.8540 H   0  0  0  0  0  0  0  0  0  0  0  0
   36.3280   21.1440   33.5120 C   0  0  0  0  0  3  0  0  0  0  0  0
   37.3540   21.5570   32.6710 C   0  0  0  0  0  0  0  0  0  0  0  0
   38.2500   25.3210   33.9220 C   0  0  0  0  0  0  0  0  0  0  0  0
   37.1260   25.7720   33.2370 C   0  0  0  0  0  0  0  0  0  0  0  0
   37.2170   26.8770   32.4150 C   0  0  0  0  0  0  0  0  0  0  0  0
   38.4450   27.4850   32.3190 N   0  0  0  0  0  0  0  0  0  0  0  0
   39.5170   27.0190   32.9990 C   0  0  0  0  0  0  0  0  0  0  0  0
   39.4090   25.9500   33.7880 N   0  0  0  0  0  0  0  0  0  0  0  0
   36.1800   25.2790   33.3210 H   0  0  0  0  0  0  0  0  0  0  0  0
   36.3480   27.2190   31.8920 H   0  0  0  0  0  0  0  0  0  0  0  0
   40.4390   27.5650   32.8570 H   0  0  0  0  0  0  0  0  0  0  0  0
  1  2  1  0  0  0  0
  2  7  1  0  0  0  0
  2  8  1  0  0  0  0
  2  3  1  0  0  0  0
  3  9  1  0  0  0  0
  3 10  1  0  0  0  0
  4 11  1  0  0  0  0
  4 12  1  0  0  0  0
  4  3  1  0  0  0  0
  5  4  1  0  0  0  0
  6  1  1  0  0  0  0
  6 15  1  1  0  0  0
  6  5  1  0  0  0  0
 13  5  1  0  0  0  0
 14  5  1  0  0  0  0
 16  6  1  0  0  0  0
 17 16  2  0  0  0  0
 18 17  1  0  0  0  0
 19 18  2  0  0  0  0
 19 20  1  0  0  0  0
 20 27  1  0  0  0  0
 21 20  2  0  0  0  0
 21 22  1  0  0  0  0
 22 24  2  0  0  0  0
 23 22  1  0  0  0  0
 24 26  1  0  0  0  0
 24 25  1  0  0  0  0
 27 16  1  0  0  0  0
 27 26  2  0  0  0  0
 28  1  1  0  0  0  0
 29 34  1  0  0  0  0
 29 28  2  0  0  0  0
 30 29  1  0  0  0  0
 31 30  2  0  0  0  0
 31 32  1  0  0  0  0
 32 33  2  0  0  0  0
 33 28  1  0  0  0  0
 35 30  1  0  0  0  0
 36 32  1  0  0  0  0
M  END
>  <minimizedAffinity>
-5.02488375

$$$$
