
 OpenBabel03272507133D

 43 48  0  0  0  0  0  0  0  0999 V2000
   37.5260   29.9370   49.6080 C   0  0  0  0  0  0  0  0  0  0  0  0
   38.2350   29.5610   50.5810 O   0  0  0  0  0  0  0  0  0  0  0  0
   38.0120   30.8330   48.5790 C   0  0  0  0  0  0  0  0  0  0  0  0
   38.4110   32.0940   48.9450 C   0  0  0  0  0  0  0  0  0  0  0  0
   38.8880   32.9530   47.9720 C   0  0  0  0  0  0  0  0  0  0  0  0
   38.9340   32.4990   46.7060 N   0  0  0  0  0  0  0  0  0  0  0  0
   38.5520   31.2810   46.3320 C   0  0  0  0  0  0  0  0  0  0  0  0
   38.0960   30.4840   47.3090 N   0  0  0  0  0  0  0  0  0  0  0  0
   38.3820   32.4770   49.9510 H   0  0  0  0  0  0  0  0  0  0  0  0
   39.2250   33.9460   48.1190 H   0  0  0  0  0  0  0  0  0  0  0  0
   38.5170   30.5940   45.0250 C   0  0  0  0  0  0  0  0  0  0  0  0
   39.1820   29.4660   44.7530 N   0  0  0  0  0  0  0  0  0  0  0  0
   39.1220   28.8790   43.5600 C   0  0  0  0  0  3  0  0  0  0  0  0
   38.4050   29.3470   42.5330 N   0  0  0  0  0  0  0  0  0  0  0  0
   37.7010   30.4820   42.7190 C   0  0  0  0  0  0  0  0  0  0  0  0
   36.9630   30.9640   41.6660 C   0  0  0  0  0  3  0  0  0  0  0  0
   36.2310   32.1200   41.8190 C   0  0  0  0  0  0  0  0  0  0  0  0
   35.6760   32.4480   40.9690 H   0  0  0  0  0  0  0  0  0  0  0  0
   36.2750   32.7500   43.0480 C   0  0  0  0  0  0  0  0  0  0  0  0
   35.6840   33.6500   43.1170 H   0  0  0  0  0  0  0  0  0  0  0  0
   37.0340   32.2150   44.0630 C   0  0  0  0  0  3  0  0  0  0  0  0
   37.7810   31.0670   43.9630 C   0  0  0  0  0  0  0  0  0  0  0  0
   36.1590   29.4600   49.4970 C   0  0  0  0  0  0  0  0  0  0  0  0
   35.1770   29.8910   50.3300 C   0  0  0  0  0  0  0  0  0  0  0  0
   34.0020   29.2340   49.9430 C   0  0  0  0  0  0  0  0  0  0  0  0
   34.3600   28.4260   48.8690 C   0  0  0  0  0  0  0  0  0  0  0  0
   35.6440   28.6030   48.6540 O   0  0  0  0  0  0  0  0  0  0  0  0
   35.2490   30.6100   51.1580 H   0  0  0  0  0  0  0  0  0  0  0  0
   33.0520   29.3860   50.4380 H   0  0  0  0  0  0  0  0  0  0  0  0
   33.8020   26.5460   47.3090 C   0  0  0  0  0  0  0  0  0  0  0  0
   33.4220   27.5590   48.1540 C   0  0  0  0  0  0  0  0  0  0  0  0
   32.0830   27.8360   48.3840 C   0  0  0  0  0  0  0  0  0  0  0  0
   31.1200   27.0690   47.7440 C   0  0  0  0  0  0  0  0  0  0  0  0
   29.7900   27.1010   47.7690 N   0  0  0  0  0  0  0  0  0  0  0  0
   29.3570   26.1360   46.9630 N   0  0  0  0  0  0  0  0  0  0  0  0
   30.4020   25.4860   46.4230 C   0  0  0  0  0  0  0  0  0  0  0  0
   31.5620   26.0540   46.8990 C   0  0  0  0  0  0  0  0  0  0  0  0
   32.9080   25.7690   46.6630 C   0  0  0  0  0  0  0  0  0  0  0  0
   34.8610   26.3830   47.1740 H   0  0  0  0  0  0  0  0  0  0  0  0
   31.6930   28.6250   49.0400 H   0  0  0  0  0  0  0  0  0  0  0  0
   29.1870   27.7650   48.3210 H   0  0  0  0  0  0  0  0  0  0  0  0
   30.3040   24.6640   45.7370 H   0  0  0  0  0  0  0  0  0  0  0  0
   33.1640   24.9590   45.9870 H   0  0  0  0  0  0  0  0  0  0  0  0
  1  2  2  0  0  0  0
  3  4  1  0  0  0  0
  3  1  1  0  0  0  0
  4  9  1  0  0  0  0
  5 10  1  0  0  0  0
  5  4  2  0  0  0  0
  6  5  1  0  0  0  0
  7  6  2  0  0  0  0
  7  8  1  0  0  0  0
  8  3  2  0  0  0  0
 11  7  1  0  0  0  0
 12 11  1  0  0  0  0
 13 12  2  0  0  0  0
 14 15  2  0  0  0  0
 14 13  1  0  0  0  0
 15 22  1  0  0  0  0
 16 17  2  0  0  0  0
 16 15  1  0  0  0  0
 17 19  1  0  0  0  0
 18 17  1  0  0  0  0
 19 20  1  0  0  0  0
 19 21  2  0  0  0  0
 22 21  1  0  0  0  0
 22 11  2  0  0  0  0
 23  1  1  0  0  0  0
 23 24  2  0  0  0  0
 24 28  1  0  0  0  0
 25 24  1  0  0  0  0
 25 29  1  0  0  0  0
 26 25  2  0  0  0  0
 27 26  1  0  0  0  0
 27 23  1  0  0  0  0
 30 31  1  0  0  0  0
 31 32  2  0  0  0  0
 31 26  1  0  0  0  0
 32 40  1  0  0  0  0
 33 34  1  0  0  0  0
 33 32  1  0  0  0  0
 34 41  1  0  0  0  0
 35 34  1  0  0  0  0
 36 37  1  0  0  0  0
 36 35  2  0  0  0  0
 37 33  2  0  0  0  0
 38 37  1  0  0  0  0
 38 30  2  0  0  0  0
 39 30  1  0  0  0  0
 42 36  1  0  0  0  0
 43 38  1  0  0  0  0
M  END
>  <minimizedAffinity>
-6.75654411

>  <minimizedRMSD>
0.84827143

$$$$
