
     RDKit          3D

 27 29  0  0  0  0  0  0  0  0999 V2000
   35.5365   29.0365   50.2008 C   0  0  0  0  0  0  0  0  0  0  0  0
   36.2407   30.1219   49.6626 C   0  0  0  0  0  0  0  0  0  0  0  0
   36.0099   30.4378   48.3282 C   0  0  0  0  0  0  0  0  0  0  0  0
   35.1262   29.6867   47.6311 N   0  0  0  0  0  0  0  0  0  0  0  0
   34.4660   28.6644   48.1482 C   0  0  0  0  0  0  0  0  0  0  0  0
   34.6730   28.3471   49.4197 N   0  0  0  0  0  0  0  0  0  0  0  0
   37.1871   30.8769   50.5443 C   0  0  0  0  0  0  0  0  0  0  0  0
   38.4909   30.7691   50.0799 F   0  0  0  0  0  0  0  0  0  0  0  0
   36.8242   32.2175   50.4818 F   0  0  0  0  0  0  0  0  0  0  0  0
   37.1284   30.4511   51.8503 F   0  0  0  0  0  0  0  0  0  0  0  0
   35.7303   28.8073   51.2387 H   0  0  0  0  0  0  0  0  0  0  0  0
   36.5162   31.2462   47.8768 H   0  0  0  0  0  0  0  0  0  0  0  0
   33.4762   27.7414   47.5550 C   0  0  0  0  0  0  0  0  0  0  0  0
   32.4520   28.1151   46.7849 N   0  0  0  0  0  0  0  0  0  0  0  0
   31.5722   27.2626   46.2609 C   0  0  0  0  0  0  0  0  0  0  0  0
   31.6231   25.9353   46.4530 N   0  0  0  0  0  0  0  0  0  0  0  0
   32.6277   25.4800   47.2188 C   0  0  0  0  0  0  0  0  0  0  0  0
   32.6686   24.1262   47.4067 C   0  0  0  0  0  0  0  0  0  0  0  0
   33.6619   23.5739   48.1759 C   0  0  0  0  0  0  0  0  0  0  0  0
   33.6846   22.5089   48.3169 H   0  0  0  0  0  0  0  0  0  0  0  0
   34.6013   24.4450   48.7398 C   0  0  0  0  0  0  0  0  0  0  0  0
   35.3544   23.9563   49.3311 H   0  0  0  0  0  0  0  0  0  0  0  0
   34.4979   25.7856   48.5091 C   0  0  0  0  0  0  0  0  0  0  0  0
   33.5228   26.3861   47.7472 C   0  0  0  0  0  0  0  0  0  0  0  0
   30.7886   27.7248   45.6510 H   0  0  0  0  0  0  0  0  0  0  0  0
   31.9395   23.4652   46.9673 H   0  0  0  0  0  0  0  0  0  0  0  0
   35.2636   26.3298   48.9882 H   0  0  0  0  0  0  0  0  0  0  0  0
  2  1  2  0
  2  7  1  0
  3  2  1  0
  4  5  1  0
  4  3  2  0
  5  6  2  0
  6  1  1  0
  7 10  1  0
  8  7  1  0
  9  7  1  0
  1 11  1  0
  3 12  1  0
 13 14  2  0
 14 15  1  0
 15 16  2  0
 16 17  1  0
 17 18  2  0
 18 19  1  0
 19 20  1  0
 19 21  2  0
 21 22  1  0
 21 23  1  0
 23 24  2  0
 24 13  1  0
 24 17  1  0
 15 25  1  0
 18 26  1  0
 23 27  1  0
  5 13  1  0
M  ISO  4  11  14  12  14  20  16  22  16
M  END
>  <DihAtoms>  (1) 
3,4,12,13

>  <DihDeg>  (1) 
179.9803541692543

$$$$
