
 OpenBabel03272507133D

 43 48  0  0  0  0  0  0  0  0999 V2000
   37.3180   29.6350   50.1440 C   0  0  0  0  0  0  0  0  0  0  0  0
   37.9680   29.0850   51.0750 O   0  0  0  0  0  0  0  0  0  0  0  0
   37.8720   30.6770   49.3050 C   0  0  0  0  0  0  0  0  0  0  0  0
   38.2090   31.8740   49.8860 C   0  0  0  0  0  0  0  0  0  0  0  0
   38.7500   32.8720   49.0970 C   0  0  0  0  0  0  0  0  0  0  0  0
   38.9170   32.6100   47.7870 N   0  0  0  0  0  0  0  0  0  0  0  0
   38.5970   31.4570   47.2070 C   0  0  0  0  0  0  0  0  0  0  0  0
   38.0750   30.5200   48.0110 N   0  0  0  0  0  0  0  0  0  0  0  0
   38.0830   32.1040   50.9310 H   0  0  0  0  0  0  0  0  0  0  0  0
   39.0510   33.8360   49.4170 H   0  0  0  0  0  0  0  0  0  0  0  0
   38.6930   30.9700   45.8150 C   0  0  0  0  0  0  0  0  0  0  0  0
   39.8200   30.9640   45.0980 N   0  0  0  0  0  0  0  0  0  0  0  0
   39.8620   30.5150   43.8460 C   0  0  0  0  0  3  0  0  0  0  0  0
   38.8010   30.0320   43.1900 N   0  0  0  0  0  0  0  0  0  0  0  0
   37.6200   30.0000   43.8400 C   0  0  0  0  0  0  0  0  0  0  0  0
   36.5270   29.5030   43.1690 C   0  0  0  0  0  3  0  0  0  0  0  0
   35.3050   29.4540   43.8000 C   0  0  0  0  0  0  0  0  0  0  0  0
   34.4920   29.0590   43.2320 H   0  0  0  0  0  0  0  0  0  0  0  0
   35.2320   29.9150   45.1000 C   0  0  0  0  0  0  0  0  0  0  0  0
   34.2550   29.8550   45.5490 H   0  0  0  0  0  0  0  0  0  0  0  0
   36.3650   30.4000   45.7160 C   0  0  0  0  0  3  0  0  0  0  0  0
   37.6060   30.4710   45.1330 C   0  0  0  0  0  0  0  0  0  0  0  0
   35.9510   29.2170   49.8870 C   0  0  0  0  0  0  0  0  0  0  0  0
   34.9270   29.5630   50.7070 C   0  0  0  0  0  0  0  0  0  0  0  0
   33.7660   28.9970   50.1650 C   0  0  0  0  0  0  0  0  0  0  0  0
   34.1760   28.3270   49.0180 C   0  0  0  0  0  0  0  0  0  0  0  0
   35.4750   28.4930   48.9080 O   0  0  0  0  0  0  0  0  0  0  0  0
   34.9590   30.1660   51.6250 H   0  0  0  0  0  0  0  0  0  0  0  0
   32.7890   29.1110   50.6160 H   0  0  0  0  0  0  0  0  0  0  0  0
   33.6720   26.8990   47.0200 C   0  0  0  0  0  0  0  0  0  0  0  0
   33.2690   27.5880   48.1370 C   0  0  0  0  0  0  0  0  0  0  0  0
   31.9330   27.6330   48.5080 C   0  0  0  0  0  0  0  0  0  0  0  0
   30.9990   26.9660   47.7300 C   0  0  0  0  0  0  0  0  0  0  0  0
   29.6790   26.8350   47.8350 N   0  0  0  0  0  0  0  0  0  0  0  0
   29.2740   26.0870   46.8130 N   0  0  0  0  0  0  0  0  0  0  0  0
   30.3280   25.7370   46.0550 C   0  0  0  0  0  0  0  0  0  0  0  0
   31.4630   26.2830   46.6090 C   0  0  0  0  0  0  0  0  0  0  0  0
   32.8050   26.2330   46.2290 C   0  0  0  0  0  0  0  0  0  0  0  0
   34.7270   26.9040   46.7880 H   0  0  0  0  0  0  0  0  0  0  0  0
   31.5260   28.1590   49.3820 H   0  0  0  0  0  0  0  0  0  0  0  0
   29.0640   27.2460   48.5840 H   0  0  0  0  0  0  0  0  0  0  0  0
   30.2520   25.1310   45.1700 H   0  0  0  0  0  0  0  0  0  0  0  0
   33.0810   25.6760   45.3390 H   0  0  0  0  0  0  0  0  0  0  0  0
  1  2  2  0  0  0  0
  3  4  1  0  0  0  0
  3  1  1  0  0  0  0
  4  9  1  0  0  0  0
  5 10  1  0  0  0  0
  5  4  2  0  0  0  0
  6  5  1  0  0  0  0
  7  6  2  0  0  0  0
  7  8  1  0  0  0  0
  8  3  2  0  0  0  0
 11  7  1  0  0  0  0
 12 11  2  0  0  0  0
 13 12  1  0  0  0  0
 14 15  1  0  0  0  0
 14 13  2  0  0  0  0
 15 22  1  0  0  0  0
 16 17  1  0  0  0  0
 16 15  2  0  0  0  0
 17 19  2  0  0  0  0
 18 17  1  0  0  0  0
 19 20  1  0  0  0  0
 19 21  1  0  0  0  0
 22 21  2  0  0  0  0
 22 11  1  0  0  0  0
 23  1  1  0  0  0  0
 23 24  2  0  0  0  0
 24 28  1  0  0  0  0
 25 29  1  0  0  0  0
 25 24  1  0  0  0  0
 26 25  2  0  0  0  0
 27 26  1  0  0  0  0
 27 23  1  0  0  0  0
 30 31  1  0  0  0  0
 31 32  2  0  0  0  0
 31 26  1  0  0  0  0
 32 40  1  0  0  0  0
 33 34  1  0  0  0  0
 33 32  1  0  0  0  0
 34 41  1  0  0  0  0
 35 34  1  0  0  0  0
 36 37  1  0  0  0  0
 36 35  2  0  0  0  0
 37 33  2  0  0  0  0
 38 37  1  0  0  0  0
 38 30  2  0  0  0  0
 39 30  1  0  0  0  0
 42 36  1  0  0  0  0
 43 38  1  0  0  0  0
M  END
>  <minimizedAffinity>
-7.25019169

>  <minimizedRMSD>
0.30092597

$$$$
