
     RDKit          3D

 26 28  0  0  0  0  0  0  0  0999 V2000
   37.3098   30.2164   51.4231 C   0  0  0  0  0  0  0  0  0  0  0  0
   38.0672   30.7295   50.3724 C   0  0  0  0  0  0  0  0  0  0  0  0
   37.7386   30.4177   49.0293 C   0  0  0  0  0  0  0  0  0  0  0  0
   36.6647   29.6123   48.9461 N   0  0  0  0  0  0  0  0  0  0  0  0
   35.9376   29.1183   49.9248 C   0  0  0  0  0  0  0  0  0  0  0  0
   36.2570   29.4196   51.1955 N   0  0  0  0  0  0  0  0  0  0  0  0
   34.8661   28.2982   49.5087 N   0  0  0  0  0  0  0  0  0  0  0  0
   37.5674   30.4590   52.4389 H   0  0  0  0  0  0  0  0  0  0  0  0
   38.8838   31.3513   50.6264 H   0  0  0  0  0  0  0  0  0  0  0  0
   35.2090   27.3422   49.3128 H   0  0  0  0  0  0  0  0  0  0  0  0
   33.8803   28.6363   49.4209 H   0  0  0  0  0  0  0  0  0  0  0  0
   38.5992   31.0118   48.0596 C   0  0  0  0  0  0  0  0  0  0  0  0
   39.3201   30.2655   47.1944 N   0  0  0  0  0  0  0  0  0  0  0  0
   40.1430   30.7572   46.2638 C   0  0  0  0  0  0  0  0  0  0  0  0
   40.3215   32.0812   46.1140 N   0  0  0  0  0  0  0  0  0  0  0  0
   39.6451   32.9274   46.9319 C   0  0  0  0  0  0  0  0  0  0  0  0
   39.8165   34.2864   46.7916 C   0  0  0  0  0  0  0  0  0  0  0  0
   39.1403   35.1667   47.6108 C   0  0  0  0  0  0  0  0  0  0  0  0
   39.3622   36.2038   47.3983 H   0  0  0  0  0  0  0  0  0  0  0  0
   38.2896   34.6050   48.5704 C   0  0  0  0  0  0  0  0  0  0  0  0
   37.7923   35.3639   49.1777 H   0  0  0  0  0  0  0  0  0  0  0  0
   38.1617   33.2549   48.6609 C   0  0  0  0  0  0  0  0  0  0  0  0
   38.8106   32.3607   47.8726 C   0  0  0  0  0  0  0  0  0  0  0  0
   40.6549   30.0350   45.6413 H   0  0  0  0  0  0  0  0  0  0  0  0
   40.5055   34.6148   46.0090 H   0  0  0  0  0  0  0  0  0  0  0  0
   37.4961   32.9448   49.4172 H   0  0  0  0  0  0  0  0  0  0  0  0
  2  1  2  0
  3  2  1  0
  4  3  2  0
  4  5  1  0
  5  6  2  0
  6  1  1  0
  7  5  1  0
  1  8  1  0
  2  9  1  0
  7 10  1  0
  7 11  1  0
 12 13  2  0
 13 14  1  0
 14 15  2  0
 15 16  1  0
 16 17  2  0
 17 18  1  0
 18 19  1  0
 18 20  2  0
 20 21  1  0
 20 22  1  0
 22 23  2  0
 23 12  1  0
 23 16  1  0
 14 24  1  0
 17 25  1  0
 22 26  1  0
  3 12  1  0
M  ISO  4   8  14   9  14  19  16  21  16
M  END
>  <DihAtoms>  (1) 
1,2,11,12

>  <DihDeg>  (1) 
0.0027259501134451547

$$$$
