REMARK  Name = 
REMARK  4 active torsions:
REMARK  status: ('A' for Active; 'I' for Inactive)
REMARK    1  A    between atoms: C_1  and  C_6
REMARK    2  A    between atoms: C_1  and  C_8
REMARK    3  A    between atoms: C_8  and  C_9
REMARK    4  A    between atoms: C_12  and  C_22
REMARK                            x       y       z     vdW  Elec       q    Type
REMARK                         _______ _______ _______ _____ _____    ______ ____
ROOT
ATOM      1  C   UNL     1      34.801  28.842  48.621  0.00  0.00    +0.000 A 
ATOM      2  C   UNL     1      34.581  29.415  47.315  0.00  0.00    +0.000 A 
ATOM      3  S   UNL     1      32.956  28.769  46.977  0.00  0.00    +0.000 S 
ATOM      4  C   UNL     1      32.806  27.844  48.600  0.00  0.00    +0.000 A 
ATOM      5  N   UNL     1      33.848  28.104  49.110  0.00  0.00    +0.000 NA
ATOM      6  H   UNL     1      35.242  30.040  46.759  0.00  0.00    +0.000 HD
ENDROOT
BRANCH   4   7
ATOM      7  C   UNL     1      31.518  27.125  48.729  0.00  0.00    +0.000 A 
ATOM      8  N   UNL     1      31.312  25.988  49.417  0.00  0.00    +0.000 NA
ATOM      9  C   UNL     1      30.118  25.385  49.495  0.00  0.00    +0.000 A 
ATOM     10  N   UNL     1      29.044  25.894  48.878  0.00  0.00    +0.000 NA
ATOM     11  C   UNL     1      29.151  27.028  48.165  0.00  0.00    +0.000 A 
ATOM     12  C   UNL     1      28.031  27.531  47.539  0.00  0.00    +0.000 A 
ATOM     13  C   UNL     1      28.150  28.701  46.806  0.00  0.00    +0.000 A 
ATOM     14  H   UNL     1      27.263  29.083  46.322  0.00  0.00    +0.000 HD
ATOM     15  C   UNL     1      29.413  29.302  46.748  0.00  0.00    +0.000 A 
ATOM     16  H   UNL     1      29.375  30.208  46.145  0.00  0.00    +0.000 HD
ATOM     17  C   UNL     1      30.508  28.764  47.389  0.00  0.00    +0.000 A 
ATOM     18  C   UNL     1      30.395  27.619  48.108  0.00  0.00    +0.000 A 
ENDBRANCH   4   7
BRANCH   1  19
ATOM     19  C   UNL     1      36.101  29.141  49.305  0.00  0.00    +0.000 C 
ATOM     20  H   UNL     1      36.945  29.096  48.555  0.00  0.00    +0.000 HD
ATOM     21  H   UNL     1      36.350  28.335  50.026  0.00  0.00    +0.000 HD
BRANCH  19  22
ATOM     22  C   UNL     1      36.115  30.461  49.974  0.00  0.00    +0.000 C 
ATOM     23  H   UNL     1      35.117  30.958  50.033  0.00  0.00    +0.000 HD
ATOM     24  H   UNL     1      36.462  30.356  51.043  0.00  0.00    +0.000 HD
BRANCH  22  29
ATOM     25  C   UNL     1      38.238  33.388  49.177  0.00  0.00    +0.000 A 
ATOM     26  C   UNL     1      39.007  32.934  48.108  0.00  0.00    +0.000 A 
ATOM     27  C   UNL     1      38.785  31.623  47.674  0.00  0.00    +0.000 A 
ATOM     28  N   UNL     1      37.853  30.856  48.290  0.00  0.00    +0.000 NA
ATOM     29  C   UNL     1      37.133  31.363  49.333  0.00  0.00    +0.000 A 
ATOM     30  N   UNL     1      37.324  32.608  49.767  0.00  0.00    +0.000 NA
ATOM     31  H   UNL     1      38.372  34.395  49.549  0.00  0.00    +0.000 HD
ATOM     32  H   UNL     1      39.747  33.561  47.628  0.00  0.00    +0.000 HD
ATOM     33  H   UNL     1      39.348  31.232  46.861  0.00  0.00    +0.000 HD
ENDBRANCH  22  29
ENDBRANCH  19  22
ENDBRANCH   1  19
TORSDOF 4
