REMARK  Name = 
REMARK  2 active torsions:
REMARK  status: ('A' for Active; 'I' for Inactive)
REMARK    1  A    between atoms: C_2  and  C_7
REMARK    2  A    between atoms: C_5  and  C_13
REMARK                            x       y       z     vdW  Elec       q    Type
REMARK                         _______ _______ _______ _____ _____    ______ ____
ROOT
ATOM      1  C   UNL     1      35.536  29.037  50.201  0.00  0.00    +0.000 A 
ATOM      2  C   UNL     1      36.241  30.122  49.663  0.00  0.00    +0.000 A 
ATOM      3  C   UNL     1      36.010  30.438  48.328  0.00  0.00    +0.000 A 
ATOM      4  N   UNL     1      35.126  29.687  47.631  0.00  0.00    +0.000 NA
ATOM      5  C   UNL     1      34.466  28.664  48.148  0.00  0.00    +0.000 A 
ATOM      6  N   UNL     1      34.673  28.347  49.420  0.00  0.00    +0.000 NA
ATOM      7  H   UNL     1      35.730  28.807  51.239  0.00  0.00    +0.000 HD
ATOM      8  H   UNL     1      36.516  31.246  47.877  0.00  0.00    +0.000 HD
ENDROOT
BRANCH   5   9
ATOM      9  C   UNL     1      33.476  27.741  47.555  0.00  0.00    +0.000 A 
ATOM     10  N   UNL     1      33.776  26.591  46.948  0.00  0.00    +0.000 NA
ATOM     11  C   UNL     1      32.864  25.775  46.421  0.00  0.00    +0.000 A 
ATOM     12  N   UNL     1      31.545  26.024  46.444  0.00  0.00    +0.000 NA
ATOM     13  C   UNL     1      31.163  27.166  47.039  0.00  0.00    +0.000 A 
ATOM     14  C   UNL     1      29.818  27.409  47.056  0.00  0.00    +0.000 A 
ATOM     15  C   UNL     1      29.338  28.552  47.644  0.00  0.00    +0.000 A 
ATOM     16  H   UNL     1      28.279  28.733  47.652  0.00  0.00    +0.000 HD
ATOM     17  C   UNL     1      30.273  29.429  48.207  0.00  0.00    +0.000 A 
ATOM     18  H   UNL     1      29.840  30.307  48.652  0.00  0.00    +0.000 HD
ATOM     19  C   UNL     1      31.601  29.122  48.152  0.00  0.00    +0.000 A 
ATOM     20  C   UNL     1      32.130  27.990  47.576  0.00  0.00    +0.000 A 
ENDBRANCH   5   9
BRANCH   2  21
ATOM     21  C   UNL     1      37.187  30.877  50.544  0.00  0.00    +0.000 C 
ATOM     22  F   UNL     1      38.491  30.769  50.080  0.00  0.00    +0.000 F 
ATOM     23  F   UNL     1      36.824  32.218  50.482  0.00  0.00    +0.000 F 
ATOM     24  F   UNL     1      37.128  30.451  51.850  0.00  0.00    +0.000 F 
ENDBRANCH   2  21
TORSDOF 2
