
     RDKit          3D

 36 39  0  0  0  0  0  0  0  0999 V2000
   38.0908   33.1424   49.5001 C   0  0  0  0  0  0  0  0  0  0  0  0
   38.9431   33.0591   48.3954 C   0  0  0  0  0  0  0  0  0  0  0  0
   38.7180   32.0356   47.4404 C   0  0  0  0  0  0  0  0  0  0  0  0
   37.6773   31.1733   47.6421 N   0  0  0  0  0  0  0  0  0  0  0  0
   36.8850   31.3051   48.7359 C   0  0  0  0  0  0  0  0  0  0  0  0
   37.0782   32.2688   49.6560 N   0  0  0  0  0  0  0  0  0  0  0  0
   35.8052   30.3564   48.8914 N   0  0  0  0  0  0  0  0  0  0  0  0
   34.7244   30.1988   47.9449 C   0  0  0  0  0  0  0  0  0  0  0  0
   34.0201   28.9579   48.3774 C   0  0  0  0  0  0  0  0  0  0  0  0
   34.8965   28.3076   49.4372 C   0  0  0  0  0  0  0  0  0  0  0  0
   35.6623   29.4350   50.0182 C   0  0  0  0  0  0  0  0  0  0  0  0
   38.2736   33.9307   50.1923 H   0  0  0  0  0  0  0  0  0  0  0  0
   39.3195   31.8927   46.5589 H   0  0  0  0  0  0  0  0  0  0  0  0
   34.0157   31.0532   47.9581 H   0  0  0  0  0  0  0  0  0  0  0  0
   35.0938   30.1204   46.9015 H   0  0  0  0  0  0  0  0  0  0  0  0
   33.8979   28.2740   47.5204 H   0  0  0  0  0  0  0  0  0  0  0  0
   33.0097   29.1885   48.7768 H   0  0  0  0  0  0  0  0  0  0  0  0
   35.5347   27.5205   48.9754 H   0  0  0  0  0  0  0  0  0  0  0  0
   34.2179   27.8771   50.2143 H   0  0  0  0  0  0  0  0  0  0  0  0
   35.1863   29.9017   50.8882 H   0  0  0  0  0  0  0  0  0  0  0  0
   36.6721   29.0510   50.3412 H   0  0  0  0  0  0  0  0  0  0  0  0
   40.0796   33.8766   48.0787 C   0  0  0  0  0  0  0  0  0  0  0  0
   40.1030   34.3983   46.8303 N   0  0  0  0  0  0  0  0  0  0  0  0
   41.1347   35.1698   46.4603 C   0  0  0  0  0  0  0  0  0  0  0  0
   42.1999   35.4884   47.2527 N   0  0  0  0  0  0  0  0  0  0  0  0
   42.2080   34.9846   48.5007 C   0  0  0  0  0  0  0  0  0  0  0  0
   43.2445   35.2268   49.4042 C   0  0  0  0  0  0  0  0  0  0  0  0
   43.2274   34.6779   50.6889 C   0  0  0  0  0  0  0  0  0  0  0  0
   44.0417   34.8813   51.3679 H   0  0  0  0  0  0  0  0  0  0  0  0
   42.1500   33.8713   51.0725 C   0  0  0  0  0  0  0  0  0  0  0  0
   42.1411   33.4443   52.0767 H   0  0  0  0  0  0  0  0  0  0  0  0
   41.1467   33.6567   50.1518 C   0  0  0  0  0  0  0  0  0  0  0  0
   41.1523   34.1936   48.8828 C   0  0  0  0  0  0  0  0  0  0  0  0
   41.2252   35.6296   45.4638 H   0  0  0  0  0  0  0  0  0  0  0  0
   44.0481   35.8496   49.0668 H   0  0  0  0  0  0  0  0  0  0  0  0
   40.3689   33.0217   50.5131 H   0  0  0  0  0  0  0  0  0  0  0  0
  1  6  2  0
  2  1  1  0
  3  4  1  0
  3  2  2  0
  4  5  2  0
  5  7  1  0
  5  6  1  0
  7 11  1  0
  8  9  1  0
  8  7  1  0
  9 10  1  0
 10 11  1  0
  1 12  1  0
  3 13  1  0
  8 14  1  0
  8 15  1  0
  9 16  1  0
  9 17  1  0
 10 18  1  0
 10 19  1  0
 11 20  1  0
 11 21  1  0
 22 23  2  0
 23 24  1  0
 24 25  2  0
 25 26  1  0
 26 27  2  0
 27 28  1  0
 28 29  1  0
 28 30  2  0
 30 31  1  0
 30 32  1  0
 32 33  2  0
 33 22  1  0
 33 26  1  0
 24 34  1  0
 27 35  1  0
 32 36  1  0
  2 22  1  0
M  ISO  8  12  14  13  14  14  13  15  13  16  13  17  13  18  13  19  13
M  ISO  4  20  13  21  13  29  16  31  16
M  END
>  <DihAtoms>  (1) 
0,1,21,22

>  <DihDeg>  (1) 
-129.1814806373225

$$$$
