
 OpenBabel03272502073D

 42 46  0  0  0  0  0  0  0  0999 V2000
   34.3700   30.8080   46.6370 F   0  0  0  0  0  0  0  0  0  0  0  0
   34.8490   30.1540   45.5330 C   0  0  0  0  0  0  0  0  0  0  0  0
   34.0070   29.5330   44.6120 C   0  0  0  0  0  0  0  0  0  0  0  0
   34.5560   28.9120   43.5210 C   0  0  0  0  0  0  0  0  0  0  0  0
   35.9440   28.9000   43.3330 C   0  0  0  0  0  0  0  0  0  0  0  0
   36.7290   29.5310   44.2780 C   0  0  0  0  0  0  0  0  0  0  0  0
   36.2320   30.1510   45.3610 C   0  0  0  0  0  0  0  0  0  0  0  0
   33.8690   28.4450   42.8370 H   0  0  0  0  0  0  0  0  0  0  0  0
   36.3440   28.3990   42.4560 H   0  0  0  0  0  0  0  0  0  0  0  0
   37.7870   29.4800   44.0650 H   0  0  0  0  0  0  0  0  0  0  0  0
   38.0570   32.4890   44.3430 Br  0  0  0  0  0  0  0  0  0  0  0  0
   37.9710   31.8400   46.1320 C   0  0  0  0  0  0  0  0  0  0  0  0
   37.1120   30.7840   46.3210 C   0  0  0  0  0  0  0  0  0  0  0  0
   37.0270   30.2280   47.6100 C   0  0  0  0  0  0  0  0  0  0  0  0
   37.7670   30.7190   48.6290 C   0  0  0  0  0  0  0  0  0  0  0  0
   38.6100   31.7810   48.3850 C   0  0  0  0  0  0  0  0  0  0  0  0
   38.7250   32.3670   47.1120 C   0  0  0  0  0  0  0  0  0  0  0  0
   36.3790   29.3950   47.8460 H   0  0  0  0  0  0  0  0  0  0  0  0
   37.7520   30.3430   49.6400 H   0  0  0  0  0  0  0  0  0  0  0  0
   39.2240   32.2110   49.1720 H   0  0  0  0  0  0  0  0  0  0  0  0
   39.5290   33.4150   46.7870 O   0  0  0  0  0  0  0  0  0  0  0  0
   40.0150   33.9260   47.5210 H   0  0  0  0  0  0  0  0  0  0  0  0
   32.2360   29.3950   46.2370 C   0  0  0  0  0  0  0  0  0  0  0  0
   32.6060   29.6150   44.9220 C   0  0  0  0  0  0  0  0  0  0  0  0
   31.6060   29.9190   44.0240 C   0  0  0  0  0  0  0  0  0  0  0  0
   30.3160   29.9970   44.4370 N   0  0  0  0  0  0  0  0  0  0  0  0
   29.9890   29.7870   45.6930 C   0  0  0  0  0  0  0  0  0  0  0  0
   30.9210   29.4910   46.5750 N   0  0  0  0  0  0  0  0  0  0  0  0
   33.0110   29.1470   46.9810 H   0  0  0  0  0  0  0  0  0  0  0  0
   31.8470   30.0960   42.9920 H   0  0  0  0  0  0  0  0  0  0  0  0
   28.6760   29.8190   46.3630 C   0  0  0  0  0  0  0  0  0  0  0  0
   27.8330   30.8720   46.3870 N   0  0  0  0  0  0  0  0  0  0  0  0
   26.6530   30.9180   46.9820 C   0  0  0  0  0  3  0  0  0  0  0  0
   26.1750   29.8570   47.6480 N   0  0  0  0  0  0  0  0  0  0  0  0
   26.9290   28.7370   47.6980 C   0  0  0  0  0  0  0  0  0  0  0  0
   26.4150   27.6740   48.3840 C   0  0  0  0  0  3  0  0  0  0  0  0
   27.1350   26.5030   48.4710 C   0  0  0  0  0  0  0  0  0  0  0  0
   26.6830   25.6970   49.0240 H   0  0  0  0  0  0  0  0  0  0  0  0
   28.3680   26.4670   47.8440 C   0  0  0  0  0  0  0  0  0  0  0  0
   28.8940   25.5270   47.9410 H   0  0  0  0  0  0  0  0  0  0  0  0
   28.8320   27.5720   47.1670 C   0  0  0  0  0  3  0  0  0  0  0  0
   28.1450   28.7570   47.0580 C   0  0  0  0  0  0  0  0  0  0  0  0
  2  1  1  0  0  0  0
  3 24  1  0  0  0  0
  3  2  2  0  0  0  0
  4  3  1  0  0  0  0
  5  4  2  0  0  0  0
  5  6  1  0  0  0  0
  6  7  2  0  0  0  0
  7  2  1  0  0  0  0
  7 13  1  0  0  0  0
  8  4  1  0  0  0  0
  9  5  1  0  0  0  0
 10  6  1  0  0  0  0
 11 12  1  0  0  0  0
 12 13  2  0  0  0  0
 12 17  1  0  0  0  0
 13 14  1  0  0  0  0
 14 18  1  0  0  0  0
 14 15  2  0  0  0  0
 15 19  1  0  0  0  0
 16 15  1  0  0  0  0
 16 20  1  0  0  0  0
 17 16  2  0  0  0  0
 21 17  1  0  0  0  0
 21 22  1  0  0  0  0
 23 28  1  0  0  0  0
 23 29  1  0  0  0  0
 24 23  2  0  0  0  0
 25 26  2  0  0  0  0
 25 24  1  0  0  0  0
 26 27  1  0  0  0  0
 27 31  1  0  0  0  0
 27 28  2  0  0  0  0
 30 25  1  0  0  0  0
 31 32  2  0  0  0  0
 31 42  1  0  0  0  0
 32 33  1  0  0  0  0
 33 34  2  0  0  0  0
 34 35  1  0  0  0  0
 35 36  1  0  0  0  0
 36 37  2  0  0  0  0
 37 38  1  0  0  0  0
 39 40  1  0  0  0  0
 39 37  1  0  0  0  0
 41 39  2  0  0  0  0
 42 41  1  0  0  0  0
 42 35  2  0  0  0  0
M  END
>  <minimizedAffinity>
-6.37304735

>  <minimizedRMSD>
1.48680496

$$$$
