
 OpenBabel03272506073D

 33 36  0  0  0  0  0  0  0  0999 V2000
   37.7590   27.2690   33.7060 C   0  0  0  0  0  0  0  0  0  0  0  0
   38.0090   27.5260   32.3080 C   0  0  0  0  0  0  0  0  0  0  0  0
   36.6330   28.6000   31.9530 S   0  0  0  0  0  0  0  0  0  0  0  0
   35.9360   28.5540   33.6920 C   0  0  0  0  0  0  0  0  0  0  0  0
   36.7160   27.8390   34.2340 N   0  0  0  0  0  0  0  0  0  0  0  0
   38.8070   27.1500   31.7100 H   0  0  0  0  0  0  0  0  0  0  0  0
   34.7090   29.3710   33.8360 C   0  0  0  0  0  0  0  0  0  0  0  0
   33.5270   29.1350   33.2400 N   0  0  0  0  0  0  0  0  0  0  0  0
   32.4510   29.9150   33.4110 C   0  0  0  0  0  3  0  0  0  0  0  0
   32.4980   30.9950   34.2020 N   0  0  0  0  0  0  0  0  0  0  0  0
   33.6370   31.3130   34.8410 C   0  0  0  0  0  0  0  0  0  0  0  0
   33.6600   32.4290   35.6490 C   0  0  0  0  0  3  0  0  0  0  0  0
   34.8380   32.7500   36.3040 C   0  0  0  0  0  0  0  0  0  0  0  0
   34.8400   33.6270   36.9340 H   0  0  0  0  0  0  0  0  0  0  0  0
   35.9400   31.9110   36.1000 C   0  0  0  0  0  0  0  0  0  0  0  0
   36.7990   32.2690   36.6660 H   0  0  0  0  0  0  0  0  0  0  0  0
   35.8740   30.8040   35.2820 C   0  0  0  0  0  3  0  0  0  0  0  0
   34.7220   30.4870   34.6400 C   0  0  0  0  0  0  0  0  0  0  0  0
   38.7150   26.3730   34.4330 C   0  0  0  0  0  0  0  0  0  0  0  0
   38.8410   26.7320   35.4970 H   0  0  0  0  0  0  0  0  0  0  0  0
   39.7340   26.4690   34.0040 H   0  0  0  0  0  0  0  0  0  0  0  0
   38.2880   24.9560   34.4460 C   0  0  0  0  0  0  0  0  0  0  0  0
   37.2360   24.7890   34.1110 H   0  0  0  0  0  0  0  0  0  0  0  0
   38.9270   24.3460   33.7440 H   0  0  0  0  0  0  0  0  0  0  0  0
   39.6440   22.8810   37.1970 C   0  0  0  0  0  0  0  0  0  0  0  0
   38.8990   23.2970   38.2980 C   0  0  0  0  0  0  0  0  0  0  0  0
   37.9370   24.2890   38.0800 C   0  0  0  0  0  0  0  0  0  0  0  0
   37.7640   24.8000   36.8370 N   0  0  0  0  0  0  0  0  0  0  0  0
   38.5280   24.3480   35.8000 C   0  0  0  0  0  0  0  0  0  0  0  0
   39.4520   23.4040   35.9800 N   0  0  0  0  0  0  0  0  0  0  0  0
   40.4000   22.1160   37.3150 H   0  0  0  0  0  0  0  0  0  0  0  0
   39.0510   22.8780   39.2840 H   0  0  0  0  0  0  0  0  0  0  0  0
   37.3440   24.6390   38.8900 H   0  0  0  0  0  0  0  0  0  0  0  0
  1  5  1  0  0  0  0
  1 19  1  0  0  0  0
  2  1  2  0  0  0  0
  3  2  1  0  0  0  0
  3  4  1  0  0  0  0
  4  7  1  0  0  0  0
  4  5  2  0  0  0  0
  6  2  1  0  0  0  0
  7 18  1  0  0  0  0
  8  9  1  0  0  0  0
  8  7  2  0  0  0  0
  9 10  2  0  0  0  0
 10 11  1  0  0  0  0
 11 12  1  0  0  0  0
 12 13  2  0  0  0  0
 13 14  1  0  0  0  0
 15 13  1  0  0  0  0
 15 16  1  0  0  0  0
 17 15  2  0  0  0  0
 18 11  2  0  0  0  0
 18 17  1  0  0  0  0
 19 22  1  0  0  0  0
 19 20  1  0  0  0  0
 21 19  1  0  0  0  0
 22 29  1  0  0  0  0
 23 22  1  0  0  0  0
 24 22  1  0  0  0  0
 25 31  1  0  0  0  0
 25 26  1  0  0  0  0
 26 32  1  0  0  0  0
 27 26  2  0  0  0  0
 27 33  1  0  0  0  0
 28 27  1  0  0  0  0
 29 30  1  0  0  0  0
 29 28  2  0  0  0  0
 30 25  2  0  0  0  0
M  END
>  <minimizedAffinity>
-5.62761545

$$$$

 OpenBabel03272506073D

 33 36  0  0  0  0  0  0  0  0999 V2000
   37.5440   24.2960   32.2050 C   0  0  0  0  0  0  0  0  0  0  0  0
   38.0250   25.6560   32.1620 C   0  0  0  0  0  0  0  0  0  0  0  0
   38.6000   25.8210   33.8400 S   0  0  0  0  0  0  0  0  0  0  0  0
   38.1260   24.0800   34.3480 C   0  0  0  0  0  0  0  0  0  0  0  0
   37.6630   23.6630   33.3350 N   0  0  0  0  0  0  0  0  0  0  0  0
   38.0120   26.3250   31.3320 H   0  0  0  0  0  0  0  0  0  0  0  0
   38.4550   23.7890   35.7620 C   0  0  0  0  0  0  0  0  0  0  0  0
   37.7600   24.2000   36.8370 N   0  0  0  0  0  0  0  0  0  0  0  0
   38.1120   23.9030   38.0950 C   0  0  0  0  0  3  0  0  0  0  0  0
   39.1990   23.1640   38.3530 N   0  0  0  0  0  0  0  0  0  0  0  0
   39.9590   22.7070   37.3430 C   0  0  0  0  0  0  0  0  0  0  0  0
   41.0720   21.9500   37.6350 C   0  0  0  0  0  3  0  0  0  0  0  0
   41.8500   21.4830   36.5870 C   0  0  0  0  0  0  0  0  0  0  0  0
   42.7190   20.8900   36.8320 H   0  0  0  0  0  0  0  0  0  0  0  0
   41.4500   21.8140   35.2870 C   0  0  0  0  0  0  0  0  0  0  0  0
   42.1400   21.3910   34.5580 H   0  0  0  0  0  0  0  0  0  0  0  0
   40.3280   22.5760   35.0400 C   0  0  0  0  0  3  0  0  0  0  0  0
   39.5640   23.0350   36.0630 C   0  0  0  0  0  0  0  0  0  0  0  0
   36.9520   23.7250   30.9520 C   0  0  0  0  0  0  0  0  0  0  0  0
   37.6600   22.9660   30.5070 H   0  0  0  0  0  0  0  0  0  0  0  0
   36.8830   24.5080   30.1680 H   0  0  0  0  0  0  0  0  0  0  0  0
   35.6330   23.0900   31.1700 C   0  0  0  0  0  0  0  0  0  0  0  0
   35.0660   23.4950   32.0430 H   0  0  0  0  0  0  0  0  0  0  0  0
   34.9650   23.2540   30.2750 H   0  0  0  0  0  0  0  0  0  0  0  0
   36.9080   19.6350   30.7940 C   0  0  0  0  0  0  0  0  0  0  0  0
   35.9660   18.8770   31.4860 C   0  0  0  0  0  0  0  0  0  0  0  0
   34.9020   19.5670   32.0750 C   0  0  0  0  0  0  0  0  0  0  0  0
   34.8210   20.9140   31.9570 N   0  0  0  0  0  0  0  0  0  0  0  0
   35.7790   21.5970   31.2640 C   0  0  0  0  0  0  0  0  0  0  0  0
   36.8040   20.9650   30.6930 N   0  0  0  0  0  0  0  0  0  0  0  0
   37.7500   19.1470   30.3200 H   0  0  0  0  0  0  0  0  0  0  0  0
   36.0470   17.8010   31.5700 H   0  0  0  0  0  0  0  0  0  0  0  0
   34.1570   19.0310   32.6140 H   0  0  0  0  0  0  0  0  0  0  0  0
  1  5  1  0  0  0  0
  2  1  2  0  0  0  0
  2  3  1  0  0  0  0
  3  4  1  0  0  0  0
  4  7  1  0  0  0  0
  5  4  2  0  0  0  0
  6  2  1  0  0  0  0
  7 18  2  0  0  0  0
  7  8  1  0  0  0  0
  8  9  2  0  0  0  0
  9 10  1  0  0  0  0
 11 12  1  0  0  0  0
 11 10  2  0  0  0  0
 13 14  1  0  0  0  0
 13 12  2  0  0  0  0
 15 13  1  0  0  0  0
 16 15  1  0  0  0  0
 17 15  2  0  0  0  0
 17 18  1  0  0  0  0
 18 11  1  0  0  0  0
 19 22  1  0  0  0  0
 19  1  1  0  0  0  0
 20 19  1  0  0  0  0
 21 19  1  0  0  0  0
 22 29  1  0  0  0  0
 22 23  1  0  0  0  0
 24 22  1  0  0  0  0
 25 26  1  0  0  0  0
 26 32  1  0  0  0  0
 26 27  2  0  0  0  0
 27 33  1  0  0  0  0
 28 27  1  0  0  0  0
 29 28  2  0  0  0  0
 30 25  2  0  0  0  0
 30 29  1  0  0  0  0
 31 25  1  0  0  0  0
M  END
>  <minimizedAffinity>
-5.62147379

$$$$

 OpenBabel03272506073D

 33 36  0  0  0  0  0  0  0  0999 V2000
   36.8460   28.1080   31.7040 C   0  0  0  0  0  0  0  0  0  0  0  0
   36.8300   29.1430   30.6980 C   0  0  0  0  0  0  0  0  0  0  0  0
   35.4830   30.1330   31.3120 S   0  0  0  0  0  0  0  0  0  0  0  0
   35.1410   29.0430   32.7970 C   0  0  0  0  0  0  0  0  0  0  0  0
   35.9660   28.1980   32.6570 N   0  0  0  0  0  0  0  0  0  0  0  0
   37.4690   29.2350   29.8500 H   0  0  0  0  0  0  0  0  0  0  0  0
   34.0210   29.5440   33.6260 C   0  0  0  0  0  0  0  0  0  0  0  0
   32.7170   29.2690   33.4450 N   0  0  0  0  0  0  0  0  0  0  0  0
   31.7490   29.7570   34.2330 C   0  0  0  0  0  3  0  0  0  0  0  0
   32.0360   30.5610   35.2650 N   0  0  0  0  0  0  0  0  0  0  0  0
   33.3120   30.8930   35.5260 C   0  0  0  0  0  0  0  0  0  0  0  0
   33.5800   31.7230   36.5930 C   0  0  0  0  0  3  0  0  0  0  0  0
   34.8980   32.0600   36.8550 C   0  0  0  0  0  0  0  0  0  0  0  0
   35.0930   32.7110   37.6960 H   0  0  0  0  0  0  0  0  0  0  0  0
   35.8820   31.5320   36.0100 C   0  0  0  0  0  0  0  0  0  0  0  0
   36.8700   31.8700   36.3200 H   0  0  0  0  0  0  0  0  0  0  0  0
   35.5690   30.7060   34.9530 C   0  0  0  0  0  3  0  0  0  0  0  0
   34.2790   30.3730   34.6930 C   0  0  0  0  0  0  0  0  0  0  0  0
   37.8680   27.0200   31.5710 C   0  0  0  0  0  0  0  0  0  0  0  0
   38.2350   26.9700   30.5030 H   0  0  0  0  0  0  0  0  0  0  0  0
   37.3970   26.0280   31.7310 H   0  0  0  0  0  0  0  0  0  0  0  0
   39.0270   27.1980   32.4740 C   0  0  0  0  0  0  0  0  0  0  0  0
   39.9880   26.7920   32.0760 H   0  0  0  0  0  0  0  0  0  0  0  0
   39.2170   28.2950   32.6580 H   0  0  0  0  0  0  0  0  0  0  0  0
   38.4330   26.8800   36.1150 C   0  0  0  0  0  0  0  0  0  0  0  0
   38.1590   25.5230   36.2690 C   0  0  0  0  0  0  0  0  0  0  0  0
   38.1830   24.7320   35.1150 C   0  0  0  0  0  0  0  0  0  0  0  0
   38.4640   25.2960   33.9160 N   0  0  0  0  0  0  0  0  0  0  0  0
   38.7230   26.6340   33.8340 C   0  0  0  0  0  0  0  0  0  0  0  0
   38.7070   27.4100   34.9170 N   0  0  0  0  0  0  0  0  0  0  0  0
   38.4280   27.5330   36.9770 H   0  0  0  0  0  0  0  0  0  0  0  0
   37.9370   25.0900   37.2360 H   0  0  0  0  0  0  0  0  0  0  0  0
   37.9800   23.6910   35.1830 H   0  0  0  0  0  0  0  0  0  0  0  0
  1  5  1  0  0  0  0
  2  3  1  0  0  0  0
  2  1  2  0  0  0  0
  3  4  1  0  0  0  0
  4  7  1  0  0  0  0
  5  4  2  0  0  0  0
  6  2  1  0  0  0  0
  7 18  1  0  0  0  0
  8  7  2  0  0  0  0
  8  9  1  0  0  0  0
  9 10  2  0  0  0  0
 10 11  1  0  0  0  0
 11 12  1  0  0  0  0
 12 13  2  0  0  0  0
 13 14  1  0  0  0  0
 15 16  1  0  0  0  0
 15 13  1  0  0  0  0
 17 15  2  0  0  0  0
 18 17  1  0  0  0  0
 18 11  2  0  0  0  0
 19  1  1  0  0  0  0
 19 21  1  0  0  0  0
 19 22  1  0  0  0  0
 20 19  1  0  0  0  0
 22 24  1  0  0  0  0
 22 29  1  0  0  0  0
 23 22  1  0  0  0  0
 25 26  1  0  0  0  0
 25 31  1  0  0  0  0
 26 32  1  0  0  0  0
 27 33  1  0  0  0  0
 27 26  2  0  0  0  0
 28 27  1  0  0  0  0
 29 28  2  0  0  0  0
 29 30  1  0  0  0  0
 30 25  2  0  0  0  0
M  END
>  <minimizedAffinity>
-5.592237

$$$$

 OpenBabel03272506073D

 33 36  0  0  0  0  0  0  0  0999 V2000
   36.6830   27.8640   33.9440 C   0  0  0  0  0  0  0  0  0  0  0  0
   36.2980   27.4070   32.6310 C   0  0  0  0  0  0  0  0  0  0  0  0
   37.2530   25.9060   32.5470 S   0  0  0  0  0  0  0  0  0  0  0  0
   38.0150   26.1000   34.2490 C   0  0  0  0  0  0  0  0  0  0  0  0
   37.5220   27.1220   34.6050 N   0  0  0  0  0  0  0  0  0  0  0  0
   35.6280   27.8780   31.9480 H   0  0  0  0  0  0  0  0  0  0  0  0
   38.9320   24.9900   34.5920 C   0  0  0  0  0  0  0  0  0  0  0  0
   39.8380   24.4290   33.7710 N   0  0  0  0  0  0  0  0  0  0  0  0
   40.6410   23.4240   34.1450 C   0  0  0  0  0  3  0  0  0  0  0  0
   40.5830   22.9140   35.3820 N   0  0  0  0  0  0  0  0  0  0  0  0
   39.7090   23.4090   36.2740 C   0  0  0  0  0  0  0  0  0  0  0  0
   39.6680   22.8670   37.5400 C   0  0  0  0  0  3  0  0  0  0  0  0
   38.7640   23.3840   38.4550 C   0  0  0  0  0  0  0  0  0  0  0  0
   38.7450   22.9490   39.4430 H   0  0  0  0  0  0  0  0  0  0  0  0
   37.9420   24.4330   38.0280 C   0  0  0  0  0  0  0  0  0  0  0  0
   37.2800   24.7480   38.8330 H   0  0  0  0  0  0  0  0  0  0  0  0
   38.0150   24.9460   36.7510 C   0  0  0  0  0  3  0  0  0  0  0  0
   38.8990   24.4430   35.8530 C   0  0  0  0  0  0  0  0  0  0  0  0
   36.0890   29.1490   34.4390 C   0  0  0  0  0  0  0  0  0  0  0  0
   36.7440   30.0160   34.1280 H   0  0  0  0  0  0  0  0  0  0  0  0
   36.1190   29.1840   35.5470 H   0  0  0  0  0  0  0  0  0  0  0  0
   34.7120   29.3790   33.9470 C   0  0  0  0  0  0  0  0  0  0  0  0
   34.6510   29.9950   33.0180 H   0  0  0  0  0  0  0  0  0  0  0  0
   34.2180   28.3970   33.6890 H   0  0  0  0  0  0  0  0  0  0  0  0
   33.4230   31.5680   36.6400 C   0  0  0  0  0  0  0  0  0  0  0  0
   32.2360   30.9400   37.0120 C   0  0  0  0  0  0  0  0  0  0  0  0
   31.8940   29.7690   36.3290 C   0  0  0  0  0  0  0  0  0  0  0  0
   32.7060   29.2930   35.3540 N   0  0  0  0  0  0  0  0  0  0  0  0
   33.8550   29.9580   35.0390 C   0  0  0  0  0  0  0  0  0  0  0  0
   34.2060   31.0760   35.6720 N   0  0  0  0  0  0  0  0  0  0  0  0
   33.7320   32.4770   37.1390 H   0  0  0  0  0  0  0  0  0  0  0  0
   31.6000   31.3350   37.7930 H   0  0  0  0  0  0  0  0  0  0  0  0
   30.9970   29.2540   36.5780 H   0  0  0  0  0  0  0  0  0  0  0  0
  1 19  1  0  0  0  0
  1  5  1  0  0  0  0
  2  1  2  0  0  0  0
  3  2  1  0  0  0  0
  3  4  1  0  0  0  0
  4  7  1  0  0  0  0
  4  5  2  0  0  0  0
  6  2  1  0  0  0  0
  7 18  1  0  0  0  0
  8  9  1  0  0  0  0
  8  7  2  0  0  0  0
  9 10  2  0  0  0  0
 10 11  1  0  0  0  0
 11 12  1  0  0  0  0
 12 13  2  0  0  0  0
 13 14  1  0  0  0  0
 15 13  1  0  0  0  0
 15 16  1  0  0  0  0
 17 15  2  0  0  0  0
 18 11  2  0  0  0  0
 18 17  1  0  0  0  0
 19 21  1  0  0  0  0
 20 19  1  0  0  0  0
 22 19  1  0  0  0  0
 22 29  1  0  0  0  0
 23 22  1  0  0  0  0
 24 22  1  0  0  0  0
 25 26  1  0  0  0  0
 25 31  1  0  0  0  0
 26 32  1  0  0  0  0
 27 33  1  0  0  0  0
 27 26  2  0  0  0  0
 28 27  1  0  0  0  0
 29 28  2  0  0  0  0
 29 30  1  0  0  0  0
 30 25  2  0  0  0  0
M  END
>  <minimizedAffinity>
-5.58309937

$$$$

 OpenBabel03272506073D

 33 36  0  0  0  0  0  0  0  0999 V2000
   36.7330   28.2860   31.8140 C   0  0  0  0  0  0  0  0  0  0  0  0
   36.6340   29.2980   30.7900 C   0  0  0  0  0  0  0  0  0  0  0  0
   35.2590   30.2320   31.4290 S   0  0  0  0  0  0  0  0  0  0  0  0
   35.0190   29.1570   32.9450 C   0  0  0  0  0  0  0  0  0  0  0  0
   35.8800   28.3520   32.7940 N   0  0  0  0  0  0  0  0  0  0  0  0
   37.2400   29.4040   29.9200 H   0  0  0  0  0  0  0  0  0  0  0  0
   33.9030   29.6200   33.8010 C   0  0  0  0  0  0  0  0  0  0  0  0
   32.6060   29.2950   33.6530 N   0  0  0  0  0  0  0  0  0  0  0  0
   31.6410   29.7490   34.4640 C   0  0  0  0  0  3  0  0  0  0  0  0
   31.9230   30.5670   35.4860 N   0  0  0  0  0  0  0  0  0  0  0  0
   33.1910   30.9480   35.7140 C   0  0  0  0  0  0  0  0  0  0  0  0
   33.4550   31.7910   36.7720 C   0  0  0  0  0  3  0  0  0  0  0  0
   34.7660   32.1790   37.0000 C   0  0  0  0  0  0  0  0  0  0  0  0
   34.9570   32.8390   37.8330 H   0  0  0  0  0  0  0  0  0  0  0  0
   35.7470   31.6840   36.1320 C   0  0  0  0  0  0  0  0  0  0  0  0
   36.7290   32.0600   36.4150 H   0  0  0  0  0  0  0  0  0  0  0  0
   35.4390   30.8430   35.0840 C   0  0  0  0  0  3  0  0  0  0  0  0
   34.1560   30.4610   34.8590 C   0  0  0  0  0  0  0  0  0  0  0  0
   37.8040   27.2470   31.6680 C   0  0  0  0  0  0  0  0  0  0  0  0
   38.8120   27.7500   31.5720 H   0  0  0  0  0  0  0  0  0  0  0  0
   37.6890   26.7090   30.7040 H   0  0  0  0  0  0  0  0  0  0  0  0
   37.8430   26.2900   32.7960 C   0  0  0  0  0  0  0  0  0  0  0  0
   38.8650   26.1010   33.2050 H   0  0  0  0  0  0  0  0  0  0  0  0
   37.2400   26.6840   33.6660 H   0  0  0  0  0  0  0  0  0  0  0  0
   35.5200   23.8320   31.2900 C   0  0  0  0  0  0  0  0  0  0  0  0
   35.9930   22.6160   31.7780 C   0  0  0  0  0  0  0  0  0  0  0  0
   37.1080   22.6570   32.6210 C   0  0  0  0  0  0  0  0  0  0  0  0
   37.6780   23.8480   32.9290 N   0  0  0  0  0  0  0  0  0  0  0  0
   37.1650   25.0040   32.4170 C   0  0  0  0  0  0  0  0  0  0  0  0
   36.1040   24.9930   31.6110 N   0  0  0  0  0  0  0  0  0  0  0  0
   34.6600   23.8530   30.6350 H   0  0  0  0  0  0  0  0  0  0  0  0
   35.5250   21.6750   31.5210 H   0  0  0  0  0  0  0  0  0  0  0  0
   37.5050   21.7550   33.0190 H   0  0  0  0  0  0  0  0  0  0  0  0
  1  5  1  0  0  0  0
  2  3  1  0  0  0  0
  2  1  2  0  0  0  0
  3  4  1  0  0  0  0
  4  7  1  0  0  0  0
  5  4  2  0  0  0  0
  6  2  1  0  0  0  0
  7 18  1  0  0  0  0
  8  7  2  0  0  0  0
  8  9  1  0  0  0  0
  9 10  2  0  0  0  0
 10 11  1  0  0  0  0
 11 12  1  0  0  0  0
 12 13  2  0  0  0  0
 13 14  1  0  0  0  0
 15 16  1  0  0  0  0
 15 13  1  0  0  0  0
 17 15  2  0  0  0  0
 18 17  1  0  0  0  0
 18 11  2  0  0  0  0
 19  1  1  0  0  0  0
 19 22  1  0  0  0  0
 20 19  1  0  0  0  0
 21 19  1  0  0  0  0
 22 23  1  0  0  0  0
 22 24  1  0  0  0  0
 25 30  2  0  0  0  0
 25 26  1  0  0  0  0
 26 27  2  0  0  0  0
 27 28  1  0  0  0  0
 27 33  1  0  0  0  0
 29 22  1  0  0  0  0
 29 28  2  0  0  0  0
 30 29  1  0  0  0  0
 31 25  1  0  0  0  0
 32 26  1  0  0  0  0
M  END
>  <minimizedAffinity>
-5.57775116

$$$$

 OpenBabel03272506073D

 33 36  0  0  0  0  0  0  0  0999 V2000
   37.0740   24.4330   32.3230 C   0  0  0  0  0  0  0  0  0  0  0  0
   35.8540   23.9820   31.6960 C   0  0  0  0  0  0  0  0  0  0  0  0
   35.3310   25.5050   30.9360 S   0  0  0  0  0  0  0  0  0  0  0  0
   36.7890   26.5070   31.5530 C   0  0  0  0  0  0  0  0  0  0  0  0
   37.3930   25.6830   32.1630 N   0  0  0  0  0  0  0  0  0  0  0  0
   35.4360   23.0020   31.7180 H   0  0  0  0  0  0  0  0  0  0  0  0
   36.7360   27.9200   31.1150 C   0  0  0  0  0  0  0  0  0  0  0  0
   37.0640   28.3840   29.8960 N   0  0  0  0  0  0  0  0  0  0  0  0
   36.9930   29.6790   29.5620 C   0  0  0  0  0  3  0  0  0  0  0  0
   36.5840   30.6010   30.4430 N   0  0  0  0  0  0  0  0  0  0  0  0
   36.2360   30.2340   31.6880 C   0  0  0  0  0  0  0  0  0  0  0  0
   35.8190   31.2010   32.5770 C   0  0  0  0  0  3  0  0  0  0  0  0
   35.4610   30.8140   33.8590 C   0  0  0  0  0  0  0  0  0  0  0  0
   35.1360   31.5840   34.5430 H   0  0  0  0  0  0  0  0  0  0  0  0
   35.5470   29.4520   34.1710 C   0  0  0  0  0  0  0  0  0  0  0  0
   35.2420   29.2780   35.2010 H   0  0  0  0  0  0  0  0  0  0  0  0
   35.9710   28.5170   33.2510 C   0  0  0  0  0  3  0  0  0  0  0  0
   36.3210   28.8930   31.9950 C   0  0  0  0  0  0  0  0  0  0  0  0
   37.8690   23.4300   33.1040 C   0  0  0  0  0  0  0  0  0  0  0  0
   38.2380   22.6150   32.4130 H   0  0  0  0  0  0  0  0  0  0  0  0
   37.2130   22.8900   33.8170 H   0  0  0  0  0  0  0  0  0  0  0  0
   39.0240   24.0280   33.8100 C   0  0  0  0  0  0  0  0  0  0  0  0
   40.0200   23.6940   33.4300 H   0  0  0  0  0  0  0  0  0  0  0  0
   39.0190   25.1510   33.6900 H   0  0  0  0  0  0  0  0  0  0  0  0
   37.8210   24.1120   37.3100 C   0  0  0  0  0  0  0  0  0  0  0  0
   38.7700   23.3470   37.9850 C   0  0  0  0  0  0  0  0  0  0  0  0
   39.8140   22.8110   37.2250 C   0  0  0  0  0  0  0  0  0  0  0  0
   39.8690   23.0460   35.8910 N   0  0  0  0  0  0  0  0  0  0  0  0
   38.9060   23.8050   35.2920 C   0  0  0  0  0  0  0  0  0  0  0  0
   37.9010   24.3280   35.9920 N   0  0  0  0  0  0  0  0  0  0  0  0
   36.9940   24.5490   37.8540 H   0  0  0  0  0  0  0  0  0  0  0  0
   38.7100   23.1700   39.0510 H   0  0  0  0  0  0  0  0  0  0  0  0
   40.5630   22.2200   37.6960 H   0  0  0  0  0  0  0  0  0  0  0  0
  1 19  1  0  0  0  0
  2  6  1  0  0  0  0
  2  1  2  0  0  0  0
  3  4  1  0  0  0  0
  3  2  1  0  0  0  0
  4  5  2  0  0  0  0
  5  1  1  0  0  0  0
  7  4  1  0  0  0  0
  7 18  1  0  0  0  0
  8  7  2  0  0  0  0
  9  8  1  0  0  0  0
  9 10  2  0  0  0  0
 10 11  1  0  0  0  0
 11 18  2  0  0  0  0
 11 12  1  0  0  0  0
 12 13  2  0  0  0  0
 13 15  1  0  0  0  0
 13 14  1  0  0  0  0
 15 16  1  0  0  0  0
 17 15  2  0  0  0  0
 18 17  1  0  0  0  0
 19 22  1  0  0  0  0
 19 21  1  0  0  0  0
 20 19  1  0  0  0  0
 22 29  1  0  0  0  0
 23 22  1  0  0  0  0
 24 22  1  0  0  0  0
 25 31  1  0  0  0  0
 25 26  1  0  0  0  0
 26 32  1  0  0  0  0
 27 33  1  0  0  0  0
 27 26  2  0  0  0  0
 28 27  1  0  0  0  0
 29 28  2  0  0  0  0
 29 30  1  0  0  0  0
 30 25  2  0  0  0  0
M  END
>  <minimizedAffinity>
-5.39703131

$$$$

 OpenBabel03272506073D

 33 36  0  0  0  0  0  0  0  0999 V2000
   35.7980   30.2050   32.4250 C   0  0  0  0  0  0  0  0  0  0  0  0
   36.1660   30.3740   31.0400 C   0  0  0  0  0  0  0  0  0  0  0  0
   36.7520   28.7300   30.6860 S   0  0  0  0  0  0  0  0  0  0  0  0
   36.4250   28.0650   32.4070 C   0  0  0  0  0  0  0  0  0  0  0  0
   35.9830   29.0280   32.9460 N   0  0  0  0  0  0  0  0  0  0  0  0
   36.0880   31.2580   30.4490 H   0  0  0  0  0  0  0  0  0  0  0  0
   36.7970   26.6380   32.5470 C   0  0  0  0  0  0  0  0  0  0  0  0
   36.6060   25.6770   31.6270 N   0  0  0  0  0  0  0  0  0  0  0  0
   36.9670   24.4000   31.8150 C   0  0  0  0  0  3  0  0  0  0  0  0
   37.5480   24.0060   32.9550 N   0  0  0  0  0  0  0  0  0  0  0  0
   37.7800   24.8960   33.9360 C   0  0  0  0  0  0  0  0  0  0  0  0
   38.3790   24.4650   35.0990 C   0  0  0  0  0  3  0  0  0  0  0  0
   38.6150   25.3890   36.1050 C   0  0  0  0  0  0  0  0  0  0  0  0
   39.0860   25.0360   37.0110 H   0  0  0  0  0  0  0  0  0  0  0  0
   38.2250   26.7130   35.8720 C   0  0  0  0  0  0  0  0  0  0  0  0
   38.4620   27.3360   36.7330 H   0  0  0  0  0  0  0  0  0  0  0  0
   37.6270   27.1000   34.6920 C   0  0  0  0  0  3  0  0  0  0  0  0
   37.3950   26.1990   33.7050 C   0  0  0  0  0  0  0  0  0  0  0  0
   35.2350   31.3920   33.1480 C   0  0  0  0  0  0  0  0  0  0  0  0
   34.1090   31.3940   33.0580 H   0  0  0  0  0  0  0  0  0  0  0  0
   35.5380   32.3310   32.6390 H   0  0  0  0  0  0  0  0  0  0  0  0
   35.6090   31.4310   34.5790 C   0  0  0  0  0  0  0  0  0  0  0  0
   36.4500   30.7510   34.8540 H   0  0  0  0  0  0  0  0  0  0  0  0
   35.9540   32.4670   34.8670 H   0  0  0  0  0  0  0  0  0  0  0  0
   32.4280   30.0680   35.8960 C   0  0  0  0  0  0  0  0  0  0  0  0
   32.2430   30.7890   37.0730 C   0  0  0  0  0  0  0  0  0  0  0  0
   33.2180   31.7380   37.4000 C   0  0  0  0  0  0  0  0  0  0  0  0
   34.2830   31.9210   36.5830 N   0  0  0  0  0  0  0  0  0  0  0  0
   34.4040   31.1800   35.4430 C   0  0  0  0  0  0  0  0  0  0  0  0
   33.4900   30.2700   35.1070 N   0  0  0  0  0  0  0  0  0  0  0  0
   31.7010   29.3240   35.6000 H   0  0  0  0  0  0  0  0  0  0  0  0
   31.3860   30.6300   37.7140 H   0  0  0  0  0  0  0  0  0  0  0  0
   33.1200   32.3130   38.2890 H   0  0  0  0  0  0  0  0  0  0  0  0
  1  5  1  0  0  0  0
  1 19  1  0  0  0  0
  2  1  2  0  0  0  0
  3  2  1  0  0  0  0
  3  4  1  0  0  0  0
  4  7  1  0  0  0  0
  4  5  2  0  0  0  0
  6  2  1  0  0  0  0
  7 18  1  0  0  0  0
  8  9  1  0  0  0  0
  8  7  2  0  0  0  0
  9 10  2  0  0  0  0
 10 11  1  0  0  0  0
 11 12  1  0  0  0  0
 12 13  2  0  0  0  0
 13 14  1  0  0  0  0
 15 13  1  0  0  0  0
 15 16  1  0  0  0  0
 17 15  2  0  0  0  0
 18 11  2  0  0  0  0
 18 17  1  0  0  0  0
 19 22  1  0  0  0  0
 20 19  1  0  0  0  0
 21 19  1  0  0  0  0
 22 23  1  0  0  0  0
 22 24  1  0  0  0  0
 22 29  1  0  0  0  0
 25 26  1  0  0  0  0
 26 27  2  0  0  0  0
 26 32  1  0  0  0  0
 27 33  1  0  0  0  0
 28 27  1  0  0  0  0
 29 28  2  0  0  0  0
 30 29  1  0  0  0  0
 30 25  2  0  0  0  0
 31 25  1  0  0  0  0
M  END
>  <minimizedAffinity>
-5.26005697

$$$$

 OpenBabel03272506073D

 33 36  0  0  0  0  0  0  0  0999 V2000
   36.3580   29.8430   31.9250 C   0  0  0  0  0  0  0  0  0  0  0  0
   36.3450   31.1360   31.2840 C   0  0  0  0  0  0  0  0  0  0  0  0
   35.5740   32.0980   32.5690 S   0  0  0  0  0  0  0  0  0  0  0  0
   35.3840   30.6610   33.7580 C   0  0  0  0  0  0  0  0  0  0  0  0
   35.8560   29.7740   33.1230 N   0  0  0  0  0  0  0  0  0  0  0  0
   36.7080   31.3850   30.3120 H   0  0  0  0  0  0  0  0  0  0  0  0
   34.7450   31.0570   35.0330 C   0  0  0  0  0  0  0  0  0  0  0  0
   35.2640   31.8890   35.9530 N   0  0  0  0  0  0  0  0  0  0  0  0
   34.6330   32.2090   37.0910 C   0  0  0  0  0  3  0  0  0  0  0  0
   33.4260   31.7050   37.3780 N   0  0  0  0  0  0  0  0  0  0  0  0
   32.8260   30.8630   36.5200 C   0  0  0  0  0  0  0  0  0  0  0  0
   31.5840   30.3580   36.8390 C   0  0  0  0  0  3  0  0  0  0  0  0
   30.9720   29.4910   35.9480 C   0  0  0  0  0  0  0  0  0  0  0  0
   29.9990   29.1040   36.2120 H   0  0  0  0  0  0  0  0  0  0  0  0
   31.6620   29.1810   34.7700 C   0  0  0  0  0  0  0  0  0  0  0  0
   31.0790   28.4940   34.1580 H   0  0  0  0  0  0  0  0  0  0  0  0
   32.9040   29.7090   34.4910 C   0  0  0  0  0  3  0  0  0  0  0  0
   33.5060   30.5580   35.3600 C   0  0  0  0  0  0  0  0  0  0  0  0
   36.9430   28.6920   31.1640 C   0  0  0  0  0  0  0  0  0  0  0  0
   37.7490   29.0680   30.4660 H   0  0  0  0  0  0  0  0  0  0  0  0
   36.1860   28.2600   30.4780 H   0  0  0  0  0  0  0  0  0  0  0  0
   37.5110   27.6450   32.0420 C   0  0  0  0  0  0  0  0  0  0  0  0
   38.6180   27.5290   31.9640 H   0  0  0  0  0  0  0  0  0  0  0  0
   37.3090   27.8880   33.1250 H   0  0  0  0  0  0  0  0  0  0  0  0
   36.6640   24.0400   32.0680 C   0  0  0  0  0  0  0  0  0  0  0  0
   35.4730   23.9940   31.3480 C   0  0  0  0  0  0  0  0  0  0  0  0
   34.9740   25.2070   30.8620 C   0  0  0  0  0  0  0  0  0  0  0  0
   35.6480   26.3580   31.0990 N   0  0  0  0  0  0  0  0  0  0  0  0
   36.8120   26.3330   31.8120 C   0  0  0  0  0  0  0  0  0  0  0  0
   37.3090   25.1920   32.2870 N   0  0  0  0  0  0  0  0  0  0  0  0
   37.0910   23.1280   32.4640 H   0  0  0  0  0  0  0  0  0  0  0  0
   34.9480   23.0650   31.1680 H   0  0  0  0  0  0  0  0  0  0  0  0
   34.0670   25.2220   30.3060 H   0  0  0  0  0  0  0  0  0  0  0  0
  1  5  1  0  0  0  0
  2  1  2  0  0  0  0
  2  3  1  0  0  0  0
  3  4  1  0  0  0  0
  4  7  1  0  0  0  0
  5  4  2  0  0  0  0
  6  2  1  0  0  0  0
  7 18  2  0  0  0  0
  7  8  1  0  0  0  0
  8  9  2  0  0  0  0
  9 10  1  0  0  0  0
 11 12  1  0  0  0  0
 11 10  2  0  0  0  0
 13 14  1  0  0  0  0
 13 12  2  0  0  0  0
 15 13  1  0  0  0  0
 16 15  1  0  0  0  0
 17 15  2  0  0  0  0
 17 18  1  0  0  0  0
 18 11  1  0  0  0  0
 19  1  1  0  0  0  0
 19 22  1  0  0  0  0
 20 19  1  0  0  0  0
 21 19  1  0  0  0  0
 22 24  1  0  0  0  0
 23 22  1  0  0  0  0
 25 30  1  0  0  0  0
 25 31  1  0  0  0  0
 26 25  2  0  0  0  0
 27 28  2  0  0  0  0
 27 26  1  0  0  0  0
 28 29  1  0  0  0  0
 29 22  1  0  0  0  0
 29 30  2  0  0  0  0
 32 26  1  0  0  0  0
 33 27  1  0  0  0  0
M  END
>  <minimizedAffinity>
-5.25113583

$$$$

 OpenBabel03272506073D

 33 36  0  0  0  0  0  0  0  0999 V2000
   36.9650   26.8810   33.0720 C   0  0  0  0  0  0  0  0  0  0  0  0
   36.3990   25.9510   32.1240 C   0  0  0  0  0  0  0  0  0  0  0  0
   37.3410   24.4970   32.5360 S   0  0  0  0  0  0  0  0  0  0  0  0
   38.3360   25.3230   33.8920 C   0  0  0  0  0  0  0  0  0  0  0  0
   37.8940   26.4270   33.8610 N   0  0  0  0  0  0  0  0  0  0  0  0
   35.6360   26.1400   31.4040 H   0  0  0  0  0  0  0  0  0  0  0  0
   39.3000   24.4010   34.5350 C   0  0  0  0  0  0  0  0  0  0  0  0
   40.3720   23.8420   33.9470 N   0  0  0  0  0  0  0  0  0  0  0  0
   41.2080   23.0120   34.5860 C   0  0  0  0  0  3  0  0  0  0  0  0
   41.0150   22.6890   35.8710 N   0  0  0  0  0  0  0  0  0  0  0  0
   39.9690   23.1980   36.5430 C   0  0  0  0  0  0  0  0  0  0  0  0
   39.7910   22.8490   37.8650 C   0  0  0  0  0  3  0  0  0  0  0  0
   38.7100   23.3790   38.5510 C   0  0  0  0  0  0  0  0  0  0  0  0
   38.5850   23.0960   39.5860 H   0  0  0  0  0  0  0  0  0  0  0  0
   37.8590   24.2420   37.8510 C   0  0  0  0  0  0  0  0  0  0  0  0
   37.0530   24.5870   38.4960 H   0  0  0  0  0  0  0  0  0  0  0  0
   38.0730   24.5630   36.5280 C   0  0  0  0  0  3  0  0  0  0  0  0
   39.1310   24.0470   35.8530 C   0  0  0  0  0  0  0  0  0  0  0  0
   36.4400   28.2850   33.0720 C   0  0  0  0  0  0  0  0  0  0  0  0
   37.2980   29.0120   33.1860 H   0  0  0  0  0  0  0  0  0  0  0  0
   35.8240   28.4650   33.9770 H   0  0  0  0  0  0  0  0  0  0  0  0
   35.6790   28.6200   31.8480 C   0  0  0  0  0  0  0  0  0  0  0  0
   35.6030   27.7860   31.1100 H   0  0  0  0  0  0  0  0  0  0  0  0
   34.6130   28.8870   32.1100 H   0  0  0  0  0  0  0  0  0  0  0  0
   37.1860   30.9690   29.4160 C   0  0  0  0  0  0  0  0  0  0  0  0
   37.2260   32.1680   30.1230 C   0  0  0  0  0  0  0  0  0  0  0  0
   36.7320   32.1540   31.4320 C   0  0  0  0  0  0  0  0  0  0  0  0
   36.2440   31.0040   31.9570 N   0  0  0  0  0  0  0  0  0  0  0  0
   36.2340   29.8620   31.2080 C   0  0  0  0  0  0  0  0  0  0  0  0
   36.6980   29.8480   29.9590 N   0  0  0  0  0  0  0  0  0  0  0  0
   37.5570   30.9290   28.4000 H   0  0  0  0  0  0  0  0  0  0  0  0
   37.6200   33.0770   29.6880 H   0  0  0  0  0  0  0  0  0  0  0  0
   36.7420   33.0450   32.0120 H   0  0  0  0  0  0  0  0  0  0  0  0
  1 19  1  0  0  0  0
  1  5  1  0  0  0  0
  2  3  1  0  0  0  0
  2  1  2  0  0  0  0
  3  4  1  0  0  0  0
  4  7  1  0  0  0  0
  5  4  2  0  0  0  0
  6  2  1  0  0  0  0
  7 18  1  0  0  0  0
  8  7  2  0  0  0  0
  8  9  1  0  0  0  0
  9 10  2  0  0  0  0
 10 11  1  0  0  0  0
 11 12  1  0  0  0  0
 12 13  2  0  0  0  0
 13 14  1  0  0  0  0
 15 16  1  0  0  0  0
 15 13  1  0  0  0  0
 17 15  2  0  0  0  0
 18 17  1  0  0  0  0
 18 11  2  0  0  0  0
 19 20  1  0  0  0  0
 19 21  1  0  0  0  0
 22 24  1  0  0  0  0
 22 19  1  0  0  0  0
 23 22  1  0  0  0  0
 25 30  2  0  0  0  0
 25 26  1  0  0  0  0
 26 27  2  0  0  0  0
 27 28  1  0  0  0  0
 27 33  1  0  0  0  0
 29 22  1  0  0  0  0
 29 28  2  0  0  0  0
 30 29  1  0  0  0  0
 31 25  1  0  0  0  0
 32 26  1  0  0  0  0
M  END
>  <minimizedAffinity>
-5.24762249

$$$$
