
 OpenBabel03272501503D

 23 25  0  0  0  0  0  0  0  0999 V2000
   38.7700   24.6610   34.5370 C   0  0  0  0  0  0  0  0  0  0  0  0
   37.7720   24.2920   33.7040 N   0  0  0  0  0  0  0  0  0  0  0  0
   37.5970   24.7590   32.4660 C   0  0  0  0  0  3  0  0  0  0  0  0
   38.4350   25.6670   31.9350 N   0  0  0  0  0  0  0  0  0  0  0  0
   39.4770   26.1100   32.6830 C   0  0  0  0  0  0  0  0  0  0  0  0
   40.3440   27.0400   32.1530 C   0  0  0  0  0  3  0  0  0  0  0  0
   41.4100   27.5070   32.8950 C   0  0  0  0  0  0  0  0  0  0  0  0
   42.0130   28.2320   32.3650 H   0  0  0  0  0  0  0  0  0  0  0  0
   41.5510   26.9880   34.1870 C   0  0  0  0  0  0  0  0  0  0  0  0
   42.4150   27.4040   34.7090 H   0  0  0  0  0  0  0  0  0  0  0  0
   40.6620   26.0720   34.6550 C   0  0  0  0  0  3  0  0  0  0  0  0
   39.6040   25.5910   33.9540 C   0  0  0  0  0  0  0  0  0  0  0  0
   38.0200   24.2450   38.1240 C   0  0  0  0  0  0  0  0  0  0  0  0
   38.0060   24.6800   36.8000 C   0  0  0  0  0  0  0  0  0  0  0  0
   38.8950   24.1200   35.8490 C   0  0  0  0  0  0  0  0  0  0  0  0
   39.6850   23.1760   36.3920 N   0  0  0  0  0  0  0  0  0  0  0  0
   39.7120   22.7510   37.6370 C   0  0  0  0  0  0  0  0  0  0  0  0
   38.8650   23.2890   38.5320 N   0  0  0  0  0  0  0  0  0  0  0  0
   40.6640   21.7400   37.8960 N   0  0  0  0  0  0  0  0  0  0  0  0
   37.3410   24.6760   38.8380 H   0  0  0  0  0  0  0  0  0  0  0  0
   37.3130   25.4380   36.5500 H   0  0  0  0  0  0  0  0  0  0  0  0
   41.5960   22.1630   38.0450 H   0  0  0  0  0  0  0  0  0  0  0  0
   40.4310   20.7210   37.9250 H   0  0  0  0  0  0  0  0  0  0  0  0
  1 15  1  0  0  0  0
  2  1  2  0  0  0  0
  3  2  1  0  0  0  0
  4  3  2  0  0  0  0
  4  5  1  0  0  0  0
  5 12  1  0  0  0  0
  6  5  2  0  0  0  0
  6  7  1  0  0  0  0
  7  9  2  0  0  0  0
  8  7  1  0  0  0  0
  9 11  1  0  0  0  0
  9 10  1  0  0  0  0
 12  1  1  0  0  0  0
 12 11  2  0  0  0  0
 13 18  1  0  0  0  0
 13 20  1  0  0  0  0
 14 13  2  0  0  0  0
 15 16  2  0  0  0  0
 15 14  1  0  0  0  0
 16 17  1  0  0  0  0
 17 19  1  0  0  0  0
 17 18  2  0  0  0  0
 19 23  1  0  0  0  0
 19 22  1  0  0  0  0
 21 14  1  0  0  0  0
M  END
>  <minimizedAffinity>
-5.32303047

$$$$

 OpenBabel03272501503D

 23 25  0  0  0  0  0  0  0  0999 V2000
   38.1130   23.0070   34.1250 C   0  0  0  0  0  0  0  0  0  0  0  0
   38.6140   23.8750   33.2200 N   0  0  0  0  0  0  0  0  0  0  0  0
   38.2360   23.9470   31.9410 C   0  0  0  0  0  3  0  0  0  0  0  0
   37.2930   23.1290   31.4410 N   0  0  0  0  0  0  0  0  0  0  0  0
   36.7190   22.2150   32.2630 C   0  0  0  0  0  0  0  0  0  0  0  0
   35.7520   21.3700   31.7670 C   0  0  0  0  0  3  0  0  0  0  0  0
   35.1550   20.4320   32.5830 C   0  0  0  0  0  0  0  0  0  0  0  0
   34.4130   19.8320   32.0720 H   0  0  0  0  0  0  0  0  0  0  0  0
   35.5830   20.3940   33.9150 C   0  0  0  0  0  0  0  0  0  0  0  0
   35.0650   19.6280   34.4950 H   0  0  0  0  0  0  0  0  0  0  0  0
   36.5430   21.2540   34.3470 C   0  0  0  0  0  3  0  0  0  0  0  0
   37.1510   22.1880   33.5720 C   0  0  0  0  0  0  0  0  0  0  0  0
   38.2110   23.9570   37.6880 C   0  0  0  0  0  0  0  0  0  0  0  0
   37.8720   23.8730   36.3390 C   0  0  0  0  0  0  0  0  0  0  0  0
   38.5640   22.9860   35.4770 C   0  0  0  0  0  0  0  0  0  0  0  0
   39.5200   22.2950   36.1250 N   0  0  0  0  0  0  0  0  0  0  0  0
   39.8530   22.3600   37.3970 C   0  0  0  0  0  0  0  0  0  0  0  0
   39.1900   23.2050   38.2060 N   0  0  0  0  0  0  0  0  0  0  0  0
   40.9070   21.4990   37.7760 N   0  0  0  0  0  0  0  0  0  0  0  0
   37.6790   24.6330   38.3340 H   0  0  0  0  0  0  0  0  0  0  0  0
   37.0890   24.4970   35.9990 H   0  0  0  0  0  0  0  0  0  0  0  0
   41.8160   21.9310   37.5400 H   0  0  0  0  0  0  0  0  0  0  0  0
   40.7580   20.5670   38.2270 H   0  0  0  0  0  0  0  0  0  0  0  0
  1 15  1  0  0  0  0
  2  1  2  0  0  0  0
  3  2  1  0  0  0  0
  4  3  2  0  0  0  0
  4  5  1  0  0  0  0
  5 12  1  0  0  0  0
  6  5  2  0  0  0  0
  6  7  1  0  0  0  0
  7  9  2  0  0  0  0
  8  7  1  0  0  0  0
  9 11  1  0  0  0  0
  9 10  1  0  0  0  0
 12  1  1  0  0  0  0
 12 11  2  0  0  0  0
 13 18  1  0  0  0  0
 13 20  1  0  0  0  0
 14 13  2  0  0  0  0
 15 16  2  0  0  0  0
 15 14  1  0  0  0  0
 16 17  1  0  0  0  0
 17 19  1  0  0  0  0
 17 18  2  0  0  0  0
 19 23  1  0  0  0  0
 21 14  1  0  0  0  0
 22 19  1  0  0  0  0
M  END
>  <minimizedAffinity>
-5.31889725

$$$$

 OpenBabel03272501503D

 23 25  0  0  0  0  0  0  0  0999 V2000
   38.2960   24.2590   34.4080 C   0  0  0  0  0  0  0  0  0  0  0  0
   38.0230   23.5100   33.3170 N   0  0  0  0  0  0  0  0  0  0  0  0
   37.3560   23.9400   32.2430 C   0  0  0  0  0  3  0  0  0  0  0  0
   36.8870   25.1980   32.1650 N   0  0  0  0  0  0  0  0  0  0  0  0
   37.1040   26.0400   33.2060 C   0  0  0  0  0  0  0  0  0  0  0  0
   36.6310   27.3320   33.1420 C   0  0  0  0  0  3  0  0  0  0  0  0
   36.8390   28.2070   34.1890 C   0  0  0  0  0  0  0  0  0  0  0  0
   36.4180   29.1890   34.0140 H   0  0  0  0  0  0  0  0  0  0  0  0
   37.5430   27.7110   35.2920 C   0  0  0  0  0  0  0  0  0  0  0  0
   37.6670   28.4620   36.0760 H   0  0  0  0  0  0  0  0  0  0  0  0
   37.9850   26.4270   35.2970 C   0  0  0  0  0  3  0  0  0  0  0  0
   37.7990   25.5390   34.2870 C   0  0  0  0  0  0  0  0  0  0  0  0
   41.2100   22.9670   36.2640 C   0  0  0  0  0  0  0  0  0  0  0  0
   40.3870   23.4830   35.2650 C   0  0  0  0  0  0  0  0  0  0  0  0
   39.0150   23.7340   35.5200 C   0  0  0  0  0  0  0  0  0  0  0  0
   38.6710   23.4190   36.7820 N   0  0  0  0  0  0  0  0  0  0  0  0
   39.4330   22.9320   37.7380 C   0  0  0  0  0  0  0  0  0  0  0  0
   40.7330   22.6980   37.4870 N   0  0  0  0  0  0  0  0  0  0  0  0
   38.7690   22.7070   38.9650 N   0  0  0  0  0  0  0  0  0  0  0  0
   42.2490   22.7800   36.0600 H   0  0  0  0  0  0  0  0  0  0  0  0
   40.8310   23.6700   34.3240 H   0  0  0  0  0  0  0  0  0  0  0  0
   38.2700   21.8010   38.9340 H   0  0  0  0  0  0  0  0  0  0  0  0
   38.7960   23.3760   39.7680 H   0  0  0  0  0  0  0  0  0  0  0  0
  1 15  1  0  0  0  0
  2  1  2  0  0  0  0
  3  2  1  0  0  0  0
  4  3  2  0  0  0  0
  4  5  1  0  0  0  0
  5 12  1  0  0  0  0
  6  5  2  0  0  0  0
  6  7  1  0  0  0  0
  7  9  2  0  0  0  0
  8  7  1  0  0  0  0
  9 11  1  0  0  0  0
  9 10  1  0  0  0  0
 12  1  1  0  0  0  0
 12 11  2  0  0  0  0
 13 18  1  0  0  0  0
 14 15  1  0  0  0  0
 14 13  2  0  0  0  0
 15 16  2  0  0  0  0
 16 17  1  0  0  0  0
 17 19  1  0  0  0  0
 18 17  2  0  0  0  0
 19 23  1  0  0  0  0
 20 13  1  0  0  0  0
 21 14  1  0  0  0  0
 22 19  1  0  0  0  0
M  END
>  <minimizedAffinity>
-5.25285292

$$$$

 OpenBabel03272501503D

 23 25  0  0  0  0  0  0  0  0999 V2000
   39.1310   25.1390   34.7100 C   0  0  0  0  0  0  0  0  0  0  0  0
   39.7640   26.3280   34.5990 N   0  0  0  0  0  0  0  0  0  0  0  0
   39.8360   27.0540   33.4810 C   0  0  0  0  0  3  0  0  0  0  0  0
   39.2600   26.6400   32.3380 N   0  0  0  0  0  0  0  0  0  0  0  0
   38.5940   25.4580   32.3340 C   0  0  0  0  0  0  0  0  0  0  0  0
   37.9990   25.0200   31.1720 C   0  0  0  0  0  3  0  0  0  0  0  0
   37.3180   23.8200   31.1420 C   0  0  0  0  0  0  0  0  0  0  0  0
   36.8980   23.5920   30.1710 H   0  0  0  0  0  0  0  0  0  0  0  0
   37.2700   23.0950   32.3380 C   0  0  0  0  0  0  0  0  0  0  0  0
   36.7150   22.1610   32.2340 H   0  0  0  0  0  0  0  0  0  0  0  0
   37.8780   23.5790   33.4530 C   0  0  0  0  0  3  0  0  0  0  0  0
   38.5560   24.7530   33.5190 C   0  0  0  0  0  0  0  0  0  0  0  0
   37.9410   24.2290   38.0810 C   0  0  0  0  0  0  0  0  0  0  0  0
   38.0890   24.8470   36.8400 C   0  0  0  0  0  0  0  0  0  0  0  0
   39.0950   24.4180   35.9390 C   0  0  0  0  0  0  0  0  0  0  0  0
   39.8200   23.4000   36.4380 N   0  0  0  0  0  0  0  0  0  0  0  0
   39.6940   22.8040   37.6040 C   0  0  0  0  0  0  0  0  0  0  0  0
   38.7370   23.2180   38.4530 N   0  0  0  0  0  0  0  0  0  0  0  0
   40.6150   21.7590   37.8360 N   0  0  0  0  0  0  0  0  0  0  0  0
   37.1740   24.5620   38.7580 H   0  0  0  0  0  0  0  0  0  0  0  0
   37.4260   25.6380   36.6140 H   0  0  0  0  0  0  0  0  0  0  0  0
   41.5170   22.1480   38.1590 H   0  0  0  0  0  0  0  0  0  0  0  0
   40.3890   20.7470   37.6920 H   0  0  0  0  0  0  0  0  0  0  0  0
  1 15  1  0  0  0  0
  2  1  1  0  0  0  0
  3  2  2  0  0  0  0
  4  3  1  0  0  0  0
  5  4  2  0  0  0  0
  5 12  1  0  0  0  0
  6  5  1  0  0  0  0
  7  6  2  0  0  0  0
  7  9  1  0  0  0  0
  8  7  1  0  0  0  0
  9 11  2  0  0  0  0
 10  9  1  0  0  0  0
 11 12  1  0  0  0  0
 12  1  2  0  0  0  0
 13 18  1  0  0  0  0
 13 20  1  0  0  0  0
 14 13  2  0  0  0  0
 15 16  2  0  0  0  0
 15 14  1  0  0  0  0
 16 17  1  0  0  0  0
 17 19  1  0  0  0  0
 17 18  2  0  0  0  0
 19 22  1  0  0  0  0
 21 14  1  0  0  0  0
 23 19  1  0  0  0  0
M  END
>  <minimizedAffinity>
-5.05157709

$$$$

 OpenBabel03272501503D

 23 25  0  0  0  0  0  0  0  0999 V2000
   34.9720   30.0370   33.5450 C   0  0  0  0  0  0  0  0  0  0  0  0
   34.6620   30.5980   32.3550 N   0  0  0  0  0  0  0  0  0  0  0  0
   35.2010   30.2500   31.1840 C   0  0  0  0  0  3  0  0  0  0  0  0
   36.1270   29.2800   31.0980 N   0  0  0  0  0  0  0  0  0  0  0  0
   36.5150   28.6460   32.2340 C   0  0  0  0  0  0  0  0  0  0  0  0
   37.4630   27.6490   32.1630 C   0  0  0  0  0  3  0  0  0  0  0  0
   37.8740   26.9910   33.3040 C   0  0  0  0  0  0  0  0  0  0  0  0
   38.6210   26.2320   33.1130 H   0  0  0  0  0  0  0  0  0  0  0  0
   37.2820   27.3900   34.5080 C   0  0  0  0  0  0  0  0  0  0  0  0
   37.6580   26.8240   35.3620 H   0  0  0  0  0  0  0  0  0  0  0  0
   36.3520   28.3810   34.5140 C   0  0  0  0  0  3  0  0  0  0  0  0
   35.9240   29.0490   33.4120 C   0  0  0  0  0  0  0  0  0  0  0  0
   32.3770   30.1910   36.1610 C   0  0  0  0  0  0  0  0  0  0  0  0
   33.0920   29.8690   35.0100 C   0  0  0  0  0  0  0  0  0  0  0  0
   34.3560   30.4590   34.7590 C   0  0  0  0  0  0  0  0  0  0  0  0
   34.7180   31.3100   35.7360 N   0  0  0  0  0  0  0  0  0  0  0  0
   34.0580   31.6270   36.8290 C   0  0  0  0  0  0  0  0  0  0  0  0
   32.8590   31.0610   37.0580 N   0  0  0  0  0  0  0  0  0  0  0  0
   34.7110   32.5590   37.6650 N   0  0  0  0  0  0  0  0  0  0  0  0
   31.4180   29.7370   36.3420 H   0  0  0  0  0  0  0  0  0  0  0  0
   32.6490   29.1750   34.3460 H   0  0  0  0  0  0  0  0  0  0  0  0
   34.5480   33.5190   37.3170 H   0  0  0  0  0  0  0  0  0  0  0  0
   35.2710   32.2880   38.5060 H   0  0  0  0  0  0  0  0  0  0  0  0
  1 15  1  0  0  0  0
  2  1  2  0  0  0  0
  3  2  1  0  0  0  0
  4  3  2  0  0  0  0
  4  5  1  0  0  0  0
  5 12  1  0  0  0  0
  6  5  2  0  0  0  0
  6  7  1  0  0  0  0
  7  9  2  0  0  0  0
  8  7  1  0  0  0  0
  9 11  1  0  0  0  0
  9 10  1  0  0  0  0
 12  1  1  0  0  0  0
 12 11  2  0  0  0  0
 13 20  1  0  0  0  0
 13 18  1  0  0  0  0
 14 13  2  0  0  0  0
 15 14  1  0  0  0  0
 15 16  2  0  0  0  0
 16 17  1  0  0  0  0
 17 18  2  0  0  0  0
 17 19  1  0  0  0  0
 19 23  1  0  0  0  0
 21 14  1  0  0  0  0
 22 19  1  0  0  0  0
M  END
>  <minimizedAffinity>
-4.96583843

$$$$

 OpenBabel03272501503D

 23 25  0  0  0  0  0  0  0  0999 V2000
   38.7750   23.1950   35.0880 C   0  0  0  0  0  0  0  0  0  0  0  0
   38.7130   24.3920   34.4640 N   0  0  0  0  0  0  0  0  0  0  0  0
   39.7220   25.2620   34.3790 C   0  0  0  0  0  3  0  0  0  0  0  0
   40.9210   25.0020   34.9300 N   0  0  0  0  0  0  0  0  0  0  0  0
   41.0980   23.8260   35.5830 C   0  0  0  0  0  0  0  0  0  0  0  0
   42.3200   23.5440   36.1520 C   0  0  0  0  0  3  0  0  0  0  0  0
   42.5230   22.3550   36.8220 C   0  0  0  0  0  0  0  0  0  0  0  0
   43.5240   22.2560   37.2220 H   0  0  0  0  0  0  0  0  0  0  0  0
   41.4370   21.4750   36.8850 C   0  0  0  0  0  0  0  0  0  0  0  0
   41.6760   20.5590   37.4290 H   0  0  0  0  0  0  0  0  0  0  0  0
   40.2550   21.8090   36.3040 C   0  0  0  0  0  3  0  0  0  0  0  0
   40.0190   22.9690   35.6380 C   0  0  0  0  0  0  0  0  0  0  0  0
   36.2100   20.8840   33.7910 C   0  0  0  0  0  0  0  0  0  0  0  0
   37.2880   21.7620   33.8870 C   0  0  0  0  0  0  0  0  0  0  0  0
   37.6560   22.3140   35.1400 C   0  0  0  0  0  0  0  0  0  0  0  0
   36.8590   21.8840   36.1350 N   0  0  0  0  0  0  0  0  0  0  0  0
   35.8380   21.0570   36.0630 C   0  0  0  0  0  0  0  0  0  0  0  0
   35.4970   20.5380   34.8700 N   0  0  0  0  0  0  0  0  0  0  0  0
   35.1980   20.8000   37.2960 N   0  0  0  0  0  0  0  0  0  0  0  0
   35.9380   20.4700   32.8350 H   0  0  0  0  0  0  0  0  0  0  0  0
   37.8040   21.9900   32.9940 H   0  0  0  0  0  0  0  0  0  0  0  0
   34.5340   21.5630   37.5130 H   0  0  0  0  0  0  0  0  0  0  0  0
   35.3890   19.9550   37.8810 H   0  0  0  0  0  0  0  0  0  0  0  0
  1 15  1  0  0  0  0
  1 12  1  0  0  0  0
  2  1  2  0  0  0  0
  3  2  1  0  0  0  0
  3  4  2  0  0  0  0
  4  5  1  0  0  0  0
  5 12  2  0  0  0  0
  5  6  1  0  0  0  0
  6  7  2  0  0  0  0
  7  9  1  0  0  0  0
  7  8  1  0  0  0  0
  9 10  1  0  0  0  0
 11  9  2  0  0  0  0
 12 11  1  0  0  0  0
 13 14  2  0  0  0  0
 13 18  1  0  0  0  0
 14 15  1  0  0  0  0
 15 16  2  0  0  0  0
 17 16  1  0  0  0  0
 17 19  1  0  0  0  0
 18 17  2  0  0  0  0
 19 22  1  0  0  0  0
 19 23  1  0  0  0  0
 20 13  1  0  0  0  0
 21 14  1  0  0  0  0
M  END
>  <minimizedAffinity>
-4.93023777

$$$$

 OpenBabel03272501503D

 23 25  0  0  0  0  0  0  0  0999 V2000
   36.2210   28.3760   33.4190 C   0  0  0  0  0  0  0  0  0  0  0  0
   35.7470   27.8700   32.2590 N   0  0  0  0  0  0  0  0  0  0  0  0
   36.0020   26.6420   31.8010 C   0  0  0  0  0  3  0  0  0  0  0  0
   36.7780   25.7850   32.4860 N   0  0  0  0  0  0  0  0  0  0  0  0
   37.3090   26.1870   33.6680 C   0  0  0  0  0  0  0  0  0  0  0  0
   38.1070   25.3210   34.3830 C   0  0  0  0  0  3  0  0  0  0  0  0
   38.6580   25.7080   35.5870 C   0  0  0  0  0  0  0  0  0  0  0  0
   39.2630   24.9370   36.0460 H   0  0  0  0  0  0  0  0  0  0  0  0
   38.3630   27.0040   36.0260 C   0  0  0  0  0  0  0  0  0  0  0  0
   38.8350   27.2340   36.9830 H   0  0  0  0  0  0  0  0  0  0  0  0
   37.5700   27.8130   35.2760 C   0  0  0  0  0  3  0  0  0  0  0  0
   37.0110   27.4660   34.0880 C   0  0  0  0  0  0  0  0  0  0  0  0
   35.4020   31.9550   33.0640 C   0  0  0  0  0  0  0  0  0  0  0  0
   35.7130   30.6240   32.7910 C   0  0  0  0  0  0  0  0  0  0  0  0
   35.9070   29.6990   33.8460 C   0  0  0  0  0  0  0  0  0  0  0  0
   35.7530   30.2710   35.0540 N   0  0  0  0  0  0  0  0  0  0  0  0
   35.4580   31.5230   35.3320 C   0  0  0  0  0  0  0  0  0  0  0  0
   35.2760   32.3930   34.3230 N   0  0  0  0  0  0  0  0  0  0  0  0
   35.3640   31.8150   36.7100 N   0  0  0  0  0  0  0  0  0  0  0  0
   35.2560   32.6490   32.2560 H   0  0  0  0  0  0  0  0  0  0  0  0
   35.7970   30.3490   31.7730 H   0  0  0  0  0  0  0  0  0  0  0  0
   36.3080   31.9750   37.1020 H   0  0  0  0  0  0  0  0  0  0  0  0
   34.4580   31.8570   37.2320 H   0  0  0  0  0  0  0  0  0  0  0  0
  1 15  1  0  0  0  0
  1 12  1  0  0  0  0
  2  1  2  0  0  0  0
  3  2  1  0  0  0  0
  3  4  2  0  0  0  0
  4  5  1  0  0  0  0
  5 12  2  0  0  0  0
  5  6  1  0  0  0  0
  6  7  2  0  0  0  0
  7  9  1  0  0  0  0
  7  8  1  0  0  0  0
  9 10  1  0  0  0  0
 11  9  2  0  0  0  0
 12 11  1  0  0  0  0
 13 18  1  0  0  0  0
 14 13  2  0  0  0  0
 14 15  1  0  0  0  0
 15 16  2  0  0  0  0
 16 17  1  0  0  0  0
 17 19  1  0  0  0  0
 18 17  2  0  0  0  0
 19 22  1  0  0  0  0
 19 23  1  0  0  0  0
 20 13  1  0  0  0  0
 21 14  1  0  0  0  0
M  END
>  <minimizedAffinity>
-4.92844248

$$$$

 OpenBabel03272501503D

 23 25  0  0  0  0  0  0  0  0999 V2000
   38.1890   24.7860   34.3400 C   0  0  0  0  0  0  0  0  0  0  0  0
   38.0970   26.1330   34.2880 N   0  0  0  0  0  0  0  0  0  0  0  0
   37.4340   26.8170   33.3520 C   0  0  0  0  0  3  0  0  0  0  0  0
   36.7840   26.1920   32.3550 N   0  0  0  0  0  0  0  0  0  0  0  0
   36.8090   24.8360   32.3080 C   0  0  0  0  0  0  0  0  0  0  0  0
   36.1480   24.1810   31.2930 C   0  0  0  0  0  3  0  0  0  0  0  0
   36.1600   22.8020   31.2240 C   0  0  0  0  0  0  0  0  0  0  0  0
   35.6050   22.4130   30.3810 H   0  0  0  0  0  0  0  0  0  0  0  0
   36.8680   22.1300   32.2260 C   0  0  0  0  0  0  0  0  0  0  0  0
   36.8300   21.0450   32.1030 H   0  0  0  0  0  0  0  0  0  0  0  0
   37.5010   22.8310   33.2030 C   0  0  0  0  0  3  0  0  0  0  0  0
   37.5110   24.1860   33.3010 C   0  0  0  0  0  0  0  0  0  0  0  0
   41.1070   23.2360   35.9800 C   0  0  0  0  0  0  0  0  0  0  0  0
   40.2780   23.8790   35.0630 C   0  0  0  0  0  0  0  0  0  0  0  0
   38.9160   24.1210   35.3710 C   0  0  0  0  0  0  0  0  0  0  0  0
   38.5850   23.6650   36.5920 N   0  0  0  0  0  0  0  0  0  0  0  0
   39.3530   23.0570   37.4710 C   0  0  0  0  0  0  0  0  0  0  0  0
   40.6440   22.8320   37.1710 N   0  0  0  0  0  0  0  0  0  0  0  0
   38.7040   22.6990   38.6740 N   0  0  0  0  0  0  0  0  0  0  0  0
   42.1400   23.0570   35.7380 H   0  0  0  0  0  0  0  0  0  0  0  0
   40.7110   24.1690   34.1440 H   0  0  0  0  0  0  0  0  0  0  0  0
   38.1880   21.8120   38.5460 H   0  0  0  0  0  0  0  0  0  0  0  0
   38.7560   23.2680   39.5500 H   0  0  0  0  0  0  0  0  0  0  0  0
  1 15  1  0  0  0  0
  2  1  1  0  0  0  0
  3  2  2  0  0  0  0
  4  3  1  0  0  0  0
  5  4  2  0  0  0  0
  5 12  1  0  0  0  0
  6  5  1  0  0  0  0
  7  6  2  0  0  0  0
  7  9  1  0  0  0  0
  8  7  1  0  0  0  0
  9 11  2  0  0  0  0
 10  9  1  0  0  0  0
 11 12  1  0  0  0  0
 12  1  2  0  0  0  0
 13 18  1  0  0  0  0
 14 15  1  0  0  0  0
 14 13  2  0  0  0  0
 15 16  2  0  0  0  0
 16 17  1  0  0  0  0
 17 19  1  0  0  0  0
 18 17  2  0  0  0  0
 19 23  1  0  0  0  0
 20 13  1  0  0  0  0
 21 14  1  0  0  0  0
 22 19  1  0  0  0  0
M  END
>  <minimizedAffinity>
-4.89580154

$$$$

 OpenBabel03272501503D

 23 25  0  0  0  0  0  0  0  0999 V2000
   34.3850   29.6160   33.3930 C   0  0  0  0  0  0  0  0  0  0  0  0
   33.1250   29.1990   33.1430 N   0  0  0  0  0  0  0  0  0  0  0  0
   32.0620   29.4830   33.8990 C   0  0  0  0  0  3  0  0  0  0  0  0
   32.1710   30.2340   35.0090 N   0  0  0  0  0  0  0  0  0  0  0  0
   33.3940   30.7090   35.3580 C   0  0  0  0  0  0  0  0  0  0  0  0
   33.5230   31.4800   36.4910 C   0  0  0  0  0  3  0  0  0  0  0  0
   34.7560   31.9740   36.8660 C   0  0  0  0  0  0  0  0  0  0  0  0
   34.7210   32.5630   37.7730 H   0  0  0  0  0  0  0  0  0  0  0  0
   35.8400   31.6490   36.0430 C   0  0  0  0  0  0  0  0  0  0  0  0
   36.7770   32.0750   36.4050 H   0  0  0  0  0  0  0  0  0  0  0  0
   35.6500   30.8830   34.9370 C   0  0  0  0  0  3  0  0  0  0  0  0
   34.4530   30.3810   34.5380 C   0  0  0  0  0  0  0  0  0  0  0  0
   36.5170   29.7520   30.3860 C   0  0  0  0  0  0  0  0  0  0  0  0
   35.5060   29.9870   31.3160 C   0  0  0  0  0  0  0  0  0  0  0  0
   35.4750   29.2730   32.5410 C   0  0  0  0  0  0  0  0  0  0  0  0
   36.4970   28.4060   32.6460 N   0  0  0  0  0  0  0  0  0  0  0  0
   37.4600   28.1710   31.7800 C   0  0  0  0  0  0  0  0  0  0  0  0
   37.4820   28.8530   30.6210 N   0  0  0  0  0  0  0  0  0  0  0  0
   38.3940   27.1920   32.1870 N   0  0  0  0  0  0  0  0  0  0  0  0
   36.5320   30.2990   29.4600 H   0  0  0  0  0  0  0  0  0  0  0  0
   34.7780   30.7100   31.0630 H   0  0  0  0  0  0  0  0  0  0  0  0
   38.0210   26.2470   31.9930 H   0  0  0  0  0  0  0  0  0  0  0  0
   39.3190   27.4200   32.6180 H   0  0  0  0  0  0  0  0  0  0  0  0
  1 12  1  0  0  0  0
  2  1  2  0  0  0  0
  2  3  1  0  0  0  0
  3  4  2  0  0  0  0
  4  5  1  0  0  0  0
  5  6  1  0  0  0  0
  6  7  2  0  0  0  0
  7  8  1  0  0  0  0
  9 10  1  0  0  0  0
  9  7  1  0  0  0  0
 11  9  2  0  0  0  0
 12 11  1  0  0  0  0
 12  5  2  0  0  0  0
 13 18  2  0  0  0  0
 13 14  1  0  0  0  0
 14 15  2  0  0  0  0
 15 16  1  0  0  0  0
 15  1  1  0  0  0  0
 17 19  1  0  0  0  0
 17 16  2  0  0  0  0
 18 17  1  0  0  0  0
 19 23  1  0  0  0  0
 20 13  1  0  0  0  0
 21 14  1  0  0  0  0
 22 19  1  0  0  0  0
M  END
>  <minimizedAffinity>
-4.83452606

$$$$
