REMARK  Name = 
REMARK  5 active torsions:
REMARK  status: ('A' for Active; 'I' for Inactive)
REMARK    1  A    between atoms: N_1  and  C_6
REMARK    2  A    between atoms: C_3  and  C_18
REMARK    3  A    between atoms: C_10  and  S_12
REMARK    4  A    between atoms: S_12  and  C_13
REMARK    5  A    between atoms: C_16  and  C_33
REMARK                            x       y       z     vdW  Elec       q    Type
REMARK                         _______ _______ _______ _____ _____    ______ ____
ROOT
ATOM      1  C   UNL     1      35.248  29.422  47.898  0.00  0.00    +0.000 A 
ATOM      2  C   UNL     1      35.118  30.033  46.641  0.00  0.00    +0.000 A 
ATOM      3  C   UNL     1      33.985  29.701  45.890  0.00  0.00    +0.000 A 
ATOM      4  N   UNL     1      33.091  28.805  46.442  0.00  0.00    +0.000 NA
ATOM      5  C   UNL     1      33.262  28.253  47.641  0.00  0.00    +0.000 A 
ATOM      6  N   UNL     1      34.343  28.555  48.384  0.00  0.00    +0.000 NA
ATOM      7  H   UNL     1      35.806  30.722  46.216  0.00  0.00    +0.000 HD
ATOM      8  H   UNL     1      33.799  30.116  44.919  0.00  0.00    +0.000 HD
ENDROOT
BRANCH   1   9
ATOM      9  N   UNL     1      36.412  29.761  48.674  0.00  0.00    +0.000 N 
ATOM     10  C   UNL     1      37.541  30.526  48.236  0.00  0.00    +0.000 C 
ATOM     11  C   UNL     1      38.032  31.154  49.542  0.00  0.00    +0.000 C 
ATOM     12  C   UNL     1      37.015  30.769  50.611  0.00  0.00    +0.000 C 
ATOM     13  C   UNL     1      36.666  29.392  50.054  0.00  0.00    +0.000 C 
ATOM     14  H   UNL     1      37.299  31.289  47.487  0.00  0.00    +0.000 HD
ATOM     15  H   UNL     1      38.334  29.838  47.871  0.00  0.00    +0.000 HD
ATOM     16  H   UNL     1      39.007  30.727  49.862  0.00  0.00    +0.000 HD
ATOM     17  H   UNL     1      36.117  31.394  50.597  0.00  0.00    +0.000 HD
ATOM     18  H   UNL     1      37.494  30.708  51.590  0.00  0.00    +0.000 HD
ATOM     19  H   UNL     1      37.571  28.767  50.154  0.00  0.00    +0.000 HD
ATOM     20  H   UNL     1      35.794  29.009  50.578  0.00  0.00    +0.000 HD
BRANCH  11  21
ATOM     21  C   UNL     1      38.189  32.643  49.421  0.00  0.00    +0.000 C 
ATOM     22  F   UNL     1      37.039  33.202  49.946  0.00  0.00    +0.000 F 
ATOM     23  F   UNL     1      38.198  32.959  48.084  0.00  0.00    +0.000 F 
ATOM     24  F   UNL     1      39.313  33.119  50.048  0.00  0.00    +0.000 F 
ENDBRANCH  11  21
ENDBRANCH   1   9
BRANCH   5  25
ATOM     25  S   UNL     1      32.067  27.106  48.285  0.00  0.00    +0.000 S 
BRANCH  25  26
ATOM     26  C   UNL     1      30.585  27.709  48.815  0.00  0.00    +0.000 A 
ATOM     27  C   UNL     1      29.811  27.866  49.922  0.00  0.00    +0.000 A 
ATOM     28  C   UNL     1      28.573  28.446  49.961  0.00  0.00    +0.000 A 
ATOM     29  C   UNL     1      28.118  28.913  48.629  0.00  0.00    +0.000 A 
ATOM     30  S   UNL     1      29.486  28.477  47.520  0.00  0.00    +0.000 S 
ATOM     31  H   UNL     1      30.357  27.450  50.756  0.00  0.00    +0.000 HD
ATOM     32  H   UNL     1      28.081  28.538  50.888  0.00  0.00    +0.000 HD
BRANCH  29  33
ATOM     33  C   UNL     1      26.994  29.604  48.200  0.00  0.00    +0.000 A 
ATOM     34  N   UNL     1      25.840  28.865  48.133  0.00  0.00    +0.000 NA
ATOM     35  C   UNL     1      24.685  29.333  47.640  0.00  0.00    +0.000 A 
ATOM     36  N   UNL     1      24.557  30.583  47.163  0.00  0.00    +0.000 NA
ATOM     37  C   UNL     1      25.621  31.400  47.180  0.00  0.00    +0.000 A 
ATOM     38  C   UNL     1      25.600  32.710  46.748  0.00  0.00    +0.000 A 
ATOM     39  C   UNL     1      26.723  33.540  46.816  0.00  0.00    +0.000 A 
ATOM     40  H   UNL     1      26.632  34.563  46.456  0.00  0.00    +0.000 HD
ATOM     41  C   UNL     1      27.887  32.974  47.351  0.00  0.00    +0.000 A 
ATOM     42  H   UNL     1      28.728  33.651  47.386  0.00  0.00    +0.000 HD
ATOM     43  C   UNL     1      27.870  31.670  47.769  0.00  0.00    +0.000 A 
ATOM     44  C   UNL     1      26.773  30.860  47.699  0.00  0.00    +0.000 A 
ENDBRANCH  29  33
ENDBRANCH  25  26
ENDBRANCH   5  25
TORSDOF 5
