
 OpenBabel03272500133D

 24 26  0  0  0  0  0  0  0  0999 V2000
   38.5280   25.7370   36.6450 C   0  0  0  0  0  0  0  0  0  0  0  0
   38.2450   24.3820   36.8640 C   0  0  0  0  0  0  0  0  0  0  0  0
   38.0400   23.5810   35.7450 C   0  0  0  0  0  0  0  0  0  0  0  0
   38.1250   24.1500   34.5200 N   0  0  0  0  0  0  0  0  0  0  0  0
   38.3920   25.4310   34.3240 C   0  0  0  0  0  0  0  0  0  0  0  0
   38.5910   26.2110   35.3790 N   0  0  0  0  0  0  0  0  0  0  0  0
   38.6830   26.3420   37.5270 H   0  0  0  0  0  0  0  0  0  0  0  0
   37.8240   22.5550   35.8570 H   0  0  0  0  0  0  0  0  0  0  0  0
   38.5250   26.2210   33.0830 C   0  0  0  0  0  0  0  0  0  0  0  0
   39.4440   26.0070   32.1380 N   0  0  0  0  0  0  0  0  0  0  0  0
   39.5420   26.7340   31.0260 C   0  0  0  0  0  3  0  0  0  0  0  0
   38.7280   27.7600   30.7380 N   0  0  0  0  0  0  0  0  0  0  0  0
   37.7750   28.0400   31.6430 C   0  0  0  0  0  0  0  0  0  0  0  0
   36.9510   29.0880   31.3380 C   0  0  0  0  0  3  0  0  0  0  0  0
   35.9490   29.4430   32.2060 C   0  0  0  0  0  0  0  0  0  0  0  0
   35.3080   30.2680   31.9570 H   0  0  0  0  0  0  0  0  0  0  0  0
   35.8210   28.6970   33.3830 C   0  0  0  0  0  0  0  0  0  0  0  0
   35.0190   29.0200   34.0230 H   0  0  0  0  0  0  0  0  0  0  0  0
   36.6790   27.6630   33.6210 C   0  0  0  0  0  3  0  0  0  0  0  0
   37.6970   27.2700   32.7840 C   0  0  0  0  0  0  0  0  0  0  0  0
   38.1850   23.8740   38.2710 C   0  0  0  0  0  0  0  0  0  0  0  0
   39.4150   23.3670   38.6680 F   0  0  0  0  0  0  0  0  0  0  0  0
   37.8910   24.9610   39.0870 F   0  0  0  0  0  0  0  0  0  0  0  0
   37.2180   22.9110   38.4320 F   0  0  0  0  0  0  0  0  0  0  0  0
  1  2  1  0  0  0  0
  1  7  1  0  0  0  0
  2 21  1  0  0  0  0
  3  8  1  0  0  0  0
  3  2  2  0  0  0  0
  4  3  1  0  0  0  0
  5  4  2  0  0  0  0
  5  6  1  0  0  0  0
  6  1  2  0  0  0  0
  9  5  1  0  0  0  0
 10  9  2  0  0  0  0
 11 10  1  0  0  0  0
 12 11  2  0  0  0  0
 12 13  1  0  0  0  0
 13 20  1  0  0  0  0
 14 13  2  0  0  0  0
 14 15  1  0  0  0  0
 15 17  2  0  0  0  0
 16 15  1  0  0  0  0
 17 19  1  0  0  0  0
 17 18  1  0  0  0  0
 20  9  1  0  0  0  0
 20 19  2  0  0  0  0
 21 24  1  0  0  0  0
 21 22  1  0  0  0  0
 21 23  1  0  0  0  0
M  END
>  <minimizedAffinity>
-5.51454258

$$$$

 OpenBabel03272500133D

 24 26  0  0  0  0  0  0  0  0999 V2000
   38.1690   24.2960   35.4470 C   0  0  0  0  0  0  0  0  0  0  0  0
   38.1870   24.9100   36.7060 C   0  0  0  0  0  0  0  0  0  0  0  0
   38.2510   26.3000   36.7400 C   0  0  0  0  0  0  0  0  0  0  0  0
   38.2930   26.9720   35.5670 N   0  0  0  0  0  0  0  0  0  0  0  0
   38.2770   26.3830   34.3830 C   0  0  0  0  0  0  0  0  0  0  0  0
   38.2150   25.0580   34.3300 N   0  0  0  0  0  0  0  0  0  0  0  0
   38.1200   23.2160   35.4410 H   0  0  0  0  0  0  0  0  0  0  0  0
   38.2670   26.8090   37.6630 H   0  0  0  0  0  0  0  0  0  0  0  0
   38.3140   26.9390   33.0140 C   0  0  0  0  0  0  0  0  0  0  0  0
   39.2360   26.6430   32.0960 N   0  0  0  0  0  0  0  0  0  0  0  0
   39.2470   27.1570   30.8680 C   0  0  0  0  0  3  0  0  0  0  0  0
   38.3300   28.0300   30.4230 N   0  0  0  0  0  0  0  0  0  0  0  0
   37.3670   28.3800   31.2910 C   0  0  0  0  0  0  0  0  0  0  0  0
   36.4380   29.2700   30.8250 C   0  0  0  0  0  3  0  0  0  0  0  0
   35.4180   29.6820   31.6450 C   0  0  0  0  0  0  0  0  0  0  0  0
   34.6940   30.3820   31.2690 H   0  0  0  0  0  0  0  0  0  0  0  0
   35.3800   29.1580   32.9420 C   0  0  0  0  0  0  0  0  0  0  0  0
   34.5590   29.5150   33.5360 H   0  0  0  0  0  0  0  0  0  0  0  0
   36.3400   28.2720   33.3370 C   0  0  0  0  0  3  0  0  0  0  0  0
   37.3810   27.8300   32.5550 C   0  0  0  0  0  0  0  0  0  0  0  0
   38.1290   24.0510   37.9300 C   0  0  0  0  0  0  0  0  0  0  0  0
   39.3480   23.4250   38.1550 F   0  0  0  0  0  0  0  0  0  0  0  0
   37.8770   24.8900   39.0100 F   0  0  0  0  0  0  0  0  0  0  0  0
   37.1350   23.1040   37.8500 F   0  0  0  0  0  0  0  0  0  0  0  0
  1  2  1  0  0  0  0
  2  3  2  0  0  0  0
  2 21  1  0  0  0  0
  3  8  1  0  0  0  0
  4  3  1  0  0  0  0
  5  4  2  0  0  0  0
  6  5  1  0  0  0  0
  6  1  2  0  0  0  0
  7  1  1  0  0  0  0
  9  5  1  0  0  0  0
 10  9  2  0  0  0  0
 11 10  1  0  0  0  0
 12 11  2  0  0  0  0
 12 13  1  0  0  0  0
 13 20  1  0  0  0  0
 14 13  2  0  0  0  0
 14 15  1  0  0  0  0
 15 17  2  0  0  0  0
 16 15  1  0  0  0  0
 17 19  1  0  0  0  0
 17 18  1  0  0  0  0
 20  9  1  0  0  0  0
 20 19  2  0  0  0  0
 21 22  1  0  0  0  0
 21 23  1  0  0  0  0
 24 21  1  0  0  0  0
M  END
>  <minimizedAffinity>
-5.46200132

$$$$

 OpenBabel03272500133D

 24 26  0  0  0  0  0  0  0  0999 V2000
   37.1210   27.5100   34.5680 C   0  0  0  0  0  0  0  0  0  0  0  0
   37.0140   27.2400   33.1970 C   0  0  0  0  0  0  0  0  0  0  0  0
   37.3370   25.9560   32.7700 C   0  0  0  0  0  0  0  0  0  0  0  0
   37.7310   25.0480   33.6930 N   0  0  0  0  0  0  0  0  0  0  0  0
   37.8300   25.3130   34.9850 C   0  0  0  0  0  0  0  0  0  0  0  0
   37.5270   26.5330   35.4120 N   0  0  0  0  0  0  0  0  0  0  0  0
   36.8670   28.5130   34.8800 H   0  0  0  0  0  0  0  0  0  0  0  0
   37.2720   25.7030   31.7480 H   0  0  0  0  0  0  0  0  0  0  0  0
   38.2350   24.4680   36.1270 C   0  0  0  0  0  0  0  0  0  0  0  0
   37.4680   24.2000   37.1860 N   0  0  0  0  0  0  0  0  0  0  0  0
   37.8560   23.4330   38.2040 C   0  0  0  0  0  3  0  0  0  0  0  0
   39.0620   22.8470   38.2710 N   0  0  0  0  0  0  0  0  0  0  0  0
   39.8940   23.0700   37.2400 C   0  0  0  0  0  0  0  0  0  0  0  0
   41.1190   22.4670   37.3200 C   0  0  0  0  0  3  0  0  0  0  0  0
   42.0310   22.6400   36.3100 C   0  0  0  0  0  0  0  0  0  0  0  0
   42.9910   22.1630   36.3840 H   0  0  0  0  0  0  0  0  0  0  0  0
   41.6510   23.4410   35.2270 C   0  0  0  0  0  0  0  0  0  0  0  0
   42.4050   23.5400   34.4680 H   0  0  0  0  0  0  0  0  0  0  0  0
   40.4110   24.0100   35.2150 C   0  0  0  0  0  3  0  0  0  0  0  0
   39.4630   23.8670   36.2010 C   0  0  0  0  0  0  0  0  0  0  0  0
   36.5590   28.3310   32.2790 C   0  0  0  0  0  0  0  0  0  0  0  0
   36.2420   29.4800   32.9920 F   0  0  0  0  0  0  0  0  0  0  0  0
   37.6250   28.6330   31.4390 F   0  0  0  0  0  0  0  0  0  0  0  0
   35.4770   27.9500   31.5200 F   0  0  0  0  0  0  0  0  0  0  0  0
  1  7  1  0  0  0  0
  1  6  1  0  0  0  0
  2  1  2  0  0  0  0
  3  2  1  0  0  0  0
  3  4  2  0  0  0  0
  4  5  1  0  0  0  0
  5  6  2  0  0  0  0
  5  9  1  0  0  0  0
  8  3  1  0  0  0  0
  9 20  2  0  0  0  0
  9 10  1  0  0  0  0
 10 11  2  0  0  0  0
 11 12  1  0  0  0  0
 13 14  1  0  0  0  0
 13 12  2  0  0  0  0
 15 16  1  0  0  0  0
 15 14  2  0  0  0  0
 17 15  1  0  0  0  0
 18 17  1  0  0  0  0
 19 17  2  0  0  0  0
 19 20  1  0  0  0  0
 20 13  1  0  0  0  0
 21 22  1  0  0  0  0
 21  2  1  0  0  0  0
 23 21  1  0  0  0  0
 24 21  1  0  0  0  0
M  END
>  <minimizedAffinity>
-5.39826584

$$$$

 OpenBabel03272500133D

 24 26  0  0  0  0  0  0  0  0999 V2000
   37.8280   25.6330   36.5690 C   0  0  0  0  0  0  0  0  0  0  0  0
   38.1320   24.2930   36.8440 C   0  0  0  0  0  0  0  0  0  0  0  0
   38.3150   23.4420   35.7590 C   0  0  0  0  0  0  0  0  0  0  0  0
   38.1890   23.9510   34.5110 N   0  0  0  0  0  0  0  0  0  0  0  0
   37.9010   25.2180   34.2630 C   0  0  0  0  0  0  0  0  0  0  0  0
   37.7240   26.0450   35.2850 N   0  0  0  0  0  0  0  0  0  0  0  0
   37.6900   26.2780   37.4250 H   0  0  0  0  0  0  0  0  0  0  0  0
   38.5450   22.4240   35.9140 H   0  0  0  0  0  0  0  0  0  0  0  0
   37.7270   25.9470   32.9890 C   0  0  0  0  0  0  0  0  0  0  0  0
   36.5610   26.1190   32.3630 N   0  0  0  0  0  0  0  0  0  0  0  0
   36.4290   26.7820   31.2150 C   0  0  0  0  0  3  0  0  0  0  0  0
   37.4580   27.3480   30.5660 N   0  0  0  0  0  0  0  0  0  0  0  0
   38.6690   27.2180   31.1340 C   0  0  0  0  0  0  0  0  0  0  0  0
   39.7080   27.8000   30.4630 C   0  0  0  0  0  3  0  0  0  0  0  0
   40.9800   27.7160   30.9710 C   0  0  0  0  0  0  0  0  0  0  0  0
   41.7900   28.1760   30.4360 H   0  0  0  0  0  0  0  0  0  0  0  0
   41.1490   27.0250   32.1770 C   0  0  0  0  0  0  0  0  0  0  0  0
   42.1650   26.9940   32.5260 H   0  0  0  0  0  0  0  0  0  0  0  0
   40.0640   26.4710   32.7910 C   0  0  0  0  0  3  0  0  0  0  0  0
   38.7730   26.5270   32.3220 C   0  0  0  0  0  0  0  0  0  0  0  0
   38.2500   23.8570   38.2710 C   0  0  0  0  0  0  0  0  0  0  0  0
   39.5130   23.3440   38.5310 F   0  0  0  0  0  0  0  0  0  0  0  0
   38.0800   24.9890   39.0610 F   0  0  0  0  0  0  0  0  0  0  0  0
   37.2980   22.9240   38.6060 F   0  0  0  0  0  0  0  0  0  0  0  0
  1  2  1  0  0  0  0
  1  7  1  0  0  0  0
  2 21  1  0  0  0  0
  3  8  1  0  0  0  0
  3  2  2  0  0  0  0
  4  3  1  0  0  0  0
  5  4  2  0  0  0  0
  5  6  1  0  0  0  0
  6  1  2  0  0  0  0
  9  5  1  0  0  0  0
 10  9  1  0  0  0  0
 11 10  2  0  0  0  0
 12 13  2  0  0  0  0
 12 11  1  0  0  0  0
 13 20  1  0  0  0  0
 14 15  2  0  0  0  0
 14 13  1  0  0  0  0
 15 17  1  0  0  0  0
 16 15  1  0  0  0  0
 17 18  1  0  0  0  0
 17 19  2  0  0  0  0
 20 19  1  0  0  0  0
 20  9  2  0  0  0  0
 21 22  1  0  0  0  0
 21 24  1  0  0  0  0
 21 23  1  0  0  0  0
M  END
>  <minimizedAffinity>
-5.34036922

$$$$

 OpenBabel03272500133D

 24 26  0  0  0  0  0  0  0  0999 V2000
   40.5250   24.1050   35.2930 C   0  0  0  0  0  0  0  0  0  0  0  0
   40.0390   23.1570   36.2040 C   0  0  0  0  0  0  0  0  0  0  0  0
   38.7040   22.7830   36.0880 C   0  0  0  0  0  0  0  0  0  0  0  0
   37.9570   23.3500   35.1110 N   0  0  0  0  0  0  0  0  0  0  0  0
   38.4260   24.2450   34.2570 C   0  0  0  0  0  0  0  0  0  0  0  0
   39.6970   24.6140   34.3520 N   0  0  0  0  0  0  0  0  0  0  0  0
   41.5640   24.3830   35.4000 H   0  0  0  0  0  0  0  0  0  0  0  0
   38.2900   22.0730   36.7490 H   0  0  0  0  0  0  0  0  0  0  0  0
   37.7760   24.9630   33.1420 C   0  0  0  0  0  0  0  0  0  0  0  0
   37.6760   24.5020   31.8930 N   0  0  0  0  0  0  0  0  0  0  0  0
   37.0840   25.1690   30.9040 C   0  0  0  0  0  3  0  0  0  0  0  0
   36.5240   26.3780   31.0590 N   0  0  0  0  0  0  0  0  0  0  0  0
   36.5840   26.9120   32.2900 C   0  0  0  0  0  0  0  0  0  0  0  0
   36.0090   28.1450   32.4350 C   0  0  0  0  0  3  0  0  0  0  0  0
   36.0240   28.7650   33.6590 C   0  0  0  0  0  0  0  0  0  0  0  0
   35.5700   29.7330   33.7620 H   0  0  0  0  0  0  0  0  0  0  0  0
   36.6390   28.0870   34.7180 C   0  0  0  0  0  0  0  0  0  0  0  0
   36.6200   28.6200   35.6510 H   0  0  0  0  0  0  0  0  0  0  0  0
   37.1920   26.8590   34.5000 C   0  0  0  0  0  3  0  0  0  0  0  0
   37.2030   26.1980   33.2930 C   0  0  0  0  0  0  0  0  0  0  0  0
   40.9710   22.6000   37.2340 C   0  0  0  0  0  0  0  0  0  0  0  0
   42.2350   23.1630   37.1160 F   0  0  0  0  0  0  0  0  0  0  0  0
   40.4640   22.9530   38.4800 F   0  0  0  0  0  0  0  0  0  0  0  0
   41.0700   21.2310   37.1550 F   0  0  0  0  0  0  0  0  0  0  0  0
  1  7  1  0  0  0  0
  1  2  1  0  0  0  0
  2 21  1  0  0  0  0
  3  2  2  0  0  0  0
  3  8  1  0  0  0  0
  4  3  1  0  0  0  0
  5  6  1  0  0  0  0
  5  4  2  0  0  0  0
  6  1  2  0  0  0  0
  9 20  1  0  0  0  0
  9  5  1  0  0  0  0
 10  9  2  0  0  0  0
 11 12  2  0  0  0  0
 11 10  1  0  0  0  0
 12 13  1  0  0  0  0
 13 14  2  0  0  0  0
 13 20  1  0  0  0  0
 14 15  1  0  0  0  0
 15 16  1  0  0  0  0
 15 17  2  0  0  0  0
 17 18  1  0  0  0  0
 19 17  1  0  0  0  0
 20 19  2  0  0  0  0
 21 23  1  0  0  0  0
 22 21  1  0  0  0  0
 24 21  1  0  0  0  0
M  END
>  <minimizedAffinity>
-5.26696014

$$$$

 OpenBabel03272500133D

 24 26  0  0  0  0  0  0  0  0999 V2000
   36.8270   24.9280   32.1990 C   0  0  0  0  0  0  0  0  0  0  0  0
   36.8110   26.3230   32.0700 C   0  0  0  0  0  0  0  0  0  0  0  0
   37.7430   27.0460   32.8070 C   0  0  0  0  0  0  0  0  0  0  0  0
   38.6050   26.3670   33.6000 N   0  0  0  0  0  0  0  0  0  0  0  0
   38.6110   25.0500   33.7160 C   0  0  0  0  0  0  0  0  0  0  0  0
   37.7290   24.3430   33.0210 N   0  0  0  0  0  0  0  0  0  0  0  0
   36.0950   24.3850   31.6190 H   0  0  0  0  0  0  0  0  0  0  0  0
   37.7720   28.0980   32.7440 H   0  0  0  0  0  0  0  0  0  0  0  0
   39.4620   24.1450   34.5170 C   0  0  0  0  0  0  0  0  0  0  0  0
   40.5160   23.4750   34.0460 N   0  0  0  0  0  0  0  0  0  0  0  0
   41.2680   22.6650   34.7890 C   0  0  0  0  0  3  0  0  0  0  0  0
   41.0440   22.4360   36.0920 N   0  0  0  0  0  0  0  0  0  0  0  0
   39.9970   23.0740   36.6410 C   0  0  0  0  0  0  0  0  0  0  0  0
   39.7800   22.8320   37.9690 C   0  0  0  0  0  3  0  0  0  0  0  0
   38.7320   23.4420   38.6110 C   0  0  0  0  0  0  0  0  0  0  0  0
   38.5700   23.2450   39.6540 H   0  0  0  0  0  0  0  0  0  0  0  0
   37.9240   24.3000   37.8560 C   0  0  0  0  0  0  0  0  0  0  0  0
   37.1210   24.7500   38.4110 H   0  0  0  0  0  0  0  0  0  0  0  0
   38.2020   24.4950   36.5340 C   0  0  0  0  0  3  0  0  0  0  0  0
   39.2380   23.9060   35.8470 C   0  0  0  0  0  0  0  0  0  0  0  0
   35.8090   26.9520   31.1520 C   0  0  0  0  0  0  0  0  0  0  0  0
   35.0130   25.9870   30.5510 F   0  0  0  0  0  0  0  0  0  0  0  0
   34.9860   27.7560   31.9330 F   0  0  0  0  0  0  0  0  0  0  0  0
   36.4090   27.7220   30.1830 F   0  0  0  0  0  0  0  0  0  0  0  0
  1  6  1  0  0  0  0
  2  1  2  0  0  0  0
  2  3  1  0  0  0  0
  3  4  2  0  0  0  0
  4  5  1  0  0  0  0
  5  9  1  0  0  0  0
  6  5  2  0  0  0  0
  7  1  1  0  0  0  0
  8  3  1  0  0  0  0
  9 20  1  0  0  0  0
 10  9  2  0  0  0  0
 10 11  1  0  0  0  0
 11 12  2  0  0  0  0
 12 13  1  0  0  0  0
 13 14  1  0  0  0  0
 14 15  2  0  0  0  0
 15 16  1  0  0  0  0
 17 18  1  0  0  0  0
 17 15  1  0  0  0  0
 19 17  2  0  0  0  0
 20 19  1  0  0  0  0
 20 13  2  0  0  0  0
 21 23  1  0  0  0  0
 21  2  1  0  0  0  0
 22 21  1  0  0  0  0
 24 21  1  0  0  0  0
M  END
>  <minimizedAffinity>
-5.26311207

$$$$

 OpenBabel03272500133D

 24 26  0  0  0  0  0  0  0  0999 V2000
   38.8140   22.3410   36.4680 C   0  0  0  0  0  0  0  0  0  0  0  0
   38.3870   23.5730   36.9810 C   0  0  0  0  0  0  0  0  0  0  0  0
   37.9530   24.5310   36.0710 C   0  0  0  0  0  0  0  0  0  0  0  0
   37.9670   24.2220   34.7530 N   0  0  0  0  0  0  0  0  0  0  0  0
   38.3730   23.0560   34.2790 C   0  0  0  0  0  0  0  0  0  0  0  0
   38.7910   22.1290   35.1320 N   0  0  0  0  0  0  0  0  0  0  0  0
   39.1480   21.6110   37.1920 H   0  0  0  0  0  0  0  0  0  0  0  0
   37.6220   25.4740   36.4070 H   0  0  0  0  0  0  0  0  0  0  0  0
   38.4590   22.5410   32.8960 C   0  0  0  0  0  0  0  0  0  0  0  0
   39.4480   22.8130   32.0420 N   0  0  0  0  0  0  0  0  0  0  0  0
   39.5030   22.3360   30.8000 C   0  0  0  0  0  3  0  0  0  0  0  0
   38.5680   21.5290   30.2750 N   0  0  0  0  0  0  0  0  0  0  0  0
   37.5370   21.2090   31.0740 C   0  0  0  0  0  0  0  0  0  0  0  0
   36.5920   20.3850   30.5280 C   0  0  0  0  0  3  0  0  0  0  0  0
   35.5040   20.0070   31.2740 C   0  0  0  0  0  0  0  0  0  0  0  0
   34.7670   19.3610   30.8350 H   0  0  0  0  0  0  0  0  0  0  0  0
   35.4190   20.4930   32.5830 C   0  0  0  0  0  0  0  0  0  0  0  0
   34.5470   20.1630   33.1190 H   0  0  0  0  0  0  0  0  0  0  0  0
   36.4010   21.3100   33.0620 C   0  0  0  0  0  3  0  0  0  0  0  0
   37.5080   21.7180   32.3550 C   0  0  0  0  0  0  0  0  0  0  0  0
   38.4150   23.7870   38.4630 C   0  0  0  0  0  0  0  0  0  0  0  0
   38.0320   25.0830   38.7840 F   0  0  0  0  0  0  0  0  0  0  0  0
   37.4820   22.9190   39.0200 F   0  0  0  0  0  0  0  0  0  0  0  0
   39.6540   23.5280   38.9990 F   0  0  0  0  0  0  0  0  0  0  0  0
  1  2  1  0  0  0  0
  1  7  1  0  0  0  0
  2 21  1  0  0  0  0
  3  8  1  0  0  0  0
  3  2  2  0  0  0  0
  4  3  1  0  0  0  0
  5  4  2  0  0  0  0
  5  6  1  0  0  0  0
  6  1  2  0  0  0  0
  9  5  1  0  0  0  0
 10  9  2  0  0  0  0
 11 10  1  0  0  0  0
 12 11  2  0  0  0  0
 12 13  1  0  0  0  0
 13 20  1  0  0  0  0
 14 13  2  0  0  0  0
 14 15  1  0  0  0  0
 15 17  2  0  0  0  0
 16 15  1  0  0  0  0
 17 19  1  0  0  0  0
 17 18  1  0  0  0  0
 20  9  1  0  0  0  0
 20 19  2  0  0  0  0
 21 22  1  0  0  0  0
 21 24  1  0  0  0  0
 21 23  1  0  0  0  0
M  END
>  <minimizedAffinity>
-5.24807644

$$$$

 OpenBabel03272500133D

 24 26  0  0  0  0  0  0  0  0999 V2000
   35.1540   24.6750   31.0180 C   0  0  0  0  0  0  0  0  0  0  0  0
   36.1170   23.8210   31.5720 C   0  0  0  0  0  0  0  0  0  0  0  0
   37.3160   24.3910   31.9870 C   0  0  0  0  0  0  0  0  0  0  0  0
   37.4840   25.7250   31.8330 N   0  0  0  0  0  0  0  0  0  0  0  0
   36.5690   26.5230   31.3070 C   0  0  0  0  0  0  0  0  0  0  0  0
   35.4180   25.9970   30.9060 N   0  0  0  0  0  0  0  0  0  0  0  0
   34.2300   24.2130   30.7010 H   0  0  0  0  0  0  0  0  0  0  0  0
   38.0730   23.7910   32.4110 H   0  0  0  0  0  0  0  0  0  0  0  0
   36.5680   27.9800   31.0610 C   0  0  0  0  0  0  0  0  0  0  0  0
   36.8960   28.5570   29.9030 N   0  0  0  0  0  0  0  0  0  0  0  0
   36.8870   29.8740   29.7060 C   0  0  0  0  0  3  0  0  0  0  0  0
   36.5470   30.7620   30.6540 N   0  0  0  0  0  0  0  0  0  0  0  0
   36.2050   30.2580   31.8500 C   0  0  0  0  0  0  0  0  0  0  0  0
   35.8600   31.1730   32.8070 C   0  0  0  0  0  3  0  0  0  0  0  0
   35.4960   30.7450   34.0590 C   0  0  0  0  0  0  0  0  0  0  0  0
   35.2270   31.4720   34.8030 H   0  0  0  0  0  0  0  0  0  0  0  0
   35.4950   29.3660   34.2960 C   0  0  0  0  0  0  0  0  0  0  0  0
   35.2010   29.0910   35.2920 H   0  0  0  0  0  0  0  0  0  0  0  0
   35.8500   28.5120   33.2920 C   0  0  0  0  0  3  0  0  0  0  0  0
   36.2230   28.8900   32.0240 C   0  0  0  0  0  0  0  0  0  0  0  0
   35.8050   22.3620   31.6940 C   0  0  0  0  0  0  0  0  0  0  0  0
   35.2400   21.8760   30.5220 F   0  0  0  0  0  0  0  0  0  0  0  0
   37.0110   21.6990   31.8910 F   0  0  0  0  0  0  0  0  0  0  0  0
   34.9650   22.1000   32.7510 F   0  0  0  0  0  0  0  0  0  0  0  0
  1  2  1  0  0  0  0
  2 21  1  0  0  0  0
  2  3  2  0  0  0  0
  3  8  1  0  0  0  0
  4  3  1  0  0  0  0
  5  4  2  0  0  0  0
  6  1  2  0  0  0  0
  6  5  1  0  0  0  0
  7  1  1  0  0  0  0
  9  5  1  0  0  0  0
  9 20  1  0  0  0  0
 10  9  2  0  0  0  0
 11 10  1  0  0  0  0
 11 12  2  0  0  0  0
 12 13  1  0  0  0  0
 13 20  2  0  0  0  0
 13 14  1  0  0  0  0
 14 15  2  0  0  0  0
 15 17  1  0  0  0  0
 15 16  1  0  0  0  0
 17 18  1  0  0  0  0
 19 17  2  0  0  0  0
 20 19  1  0  0  0  0
 21 23  1  0  0  0  0
 21 24  1  0  0  0  0
 22 21  1  0  0  0  0
M  END
>  <minimizedAffinity>
-5.24657297

$$$$

 OpenBabel03272500133D

 24 26  0  0  0  0  0  0  0  0999 V2000
   38.7840   22.9300   36.1030 C   0  0  0  0  0  0  0  0  0  0  0  0
   40.1800   22.9060   35.9830 C   0  0  0  0  0  0  0  0  0  0  0  0
   40.7220   23.2270   34.7420 C   0  0  0  0  0  0  0  0  0  0  0  0
   39.8790   23.5420   33.7320 N   0  0  0  0  0  0  0  0  0  0  0  0
   38.5620   23.5610   33.8550 C   0  0  0  0  0  0  0  0  0  0  0  0
   38.0260   23.2570   35.0310 N   0  0  0  0  0  0  0  0  0  0  0  0
   38.3830   22.6770   37.0740 H   0  0  0  0  0  0  0  0  0  0  0  0
   41.7670   23.2230   34.6010 H   0  0  0  0  0  0  0  0  0  0  0  0
   37.4950   23.8750   32.8830 C   0  0  0  0  0  0  0  0  0  0  0  0
   36.7890   22.9660   32.2060 N   0  0  0  0  0  0  0  0  0  0  0  0
   35.8300   23.2740   31.3350 C   0  0  0  0  0  3  0  0  0  0  0  0
   35.4730   24.5340   31.0440 N   0  0  0  0  0  0  0  0  0  0  0  0
   36.1390   25.5090   31.6850 C   0  0  0  0  0  0  0  0  0  0  0  0
   35.7640   26.7890   31.3800 C   0  0  0  0  0  3  0  0  0  0  0  0
   36.3920   27.8460   31.9890 C   0  0  0  0  0  0  0  0  0  0  0  0
   36.0910   28.8470   31.7420 H   0  0  0  0  0  0  0  0  0  0  0  0
   37.4040   27.5520   32.9100 C   0  0  0  0  0  0  0  0  0  0  0  0
   37.8580   28.4190   33.3550 H   0  0  0  0  0  0  0  0  0  0  0  0
   37.7240   26.2510   33.1650 C   0  0  0  0  0  3  0  0  0  0  0  0
   37.1250   25.1580   32.5820 C   0  0  0  0  0  0  0  0  0  0  0  0
   41.0020   22.5480   37.1810 C   0  0  0  0  0  0  0  0  0  0  0  0
   42.2230   23.2080   37.1610 F   0  0  0  0  0  0  0  0  0  0  0  0
   40.3040   22.9810   38.3030 F   0  0  0  0  0  0  0  0  0  0  0  0
   41.2160   21.1930   37.2750 F   0  0  0  0  0  0  0  0  0  0  0  0
  1  7  1  0  0  0  0
  2  1  1  0  0  0  0
  2 21  1  0  0  0  0
  3  2  2  0  0  0  0
  4  5  2  0  0  0  0
  4  3  1  0  0  0  0
  5  6  1  0  0  0  0
  6  1  2  0  0  0  0
  8  3  1  0  0  0  0
  9  5  1  0  0  0  0
 10  9  2  0  0  0  0
 11 10  1  0  0  0  0
 12 11  2  0  0  0  0
 12 13  1  0  0  0  0
 13 20  1  0  0  0  0
 14 13  2  0  0  0  0
 14 15  1  0  0  0  0
 15 17  2  0  0  0  0
 16 15  1  0  0  0  0
 17 19  1  0  0  0  0
 17 18  1  0  0  0  0
 20  9  1  0  0  0  0
 20 19  2  0  0  0  0
 21 24  1  0  0  0  0
 21 23  1  0  0  0  0
 22 21  1  0  0  0  0
M  END
>  <minimizedAffinity>
-5.24586248

$$$$
