REMARK  Name = 
REMARK  1 active torsions:
REMARK  status: ('A' for Active; 'I' for Inactive)
REMARK    1  A    between atoms: C_12  and  C_25
REMARK                            x       y       z     vdW  Elec       q    Type
REMARK                         _______ _______ _______ _____ _____    ______ ____
ROOT
ATOM      1  C   UNL     1      38.849  32.731  48.108  0.00  0.00    +0.000 A 
ATOM      2  C   UNL     1      39.350  32.205  46.910  0.00  0.00    +0.000 A 
ATOM      3  C   UNL     1      38.690  31.123  46.339  0.00  0.00    +0.000 A 
ATOM      4  N   UNL     1      37.595  30.627  46.967  0.00  0.00    +0.000 NA
ATOM      5  C   UNL     1      37.138  31.160  48.125  0.00  0.00    +0.000 A 
ATOM      6  N   UNL     1      37.752  32.199  48.695  0.00  0.00    +0.000 NA
ATOM      7  N   UNL     1      35.962  30.603  48.763  0.00  0.00    +0.000 N 
ATOM      8  C   UNL     1      35.974  30.349  50.193  0.00  0.00    +0.000 C 
ATOM      9  C   UNL     1      35.130  29.182  50.596  0.00  0.00    +0.000 C 
ATOM     10  C   UNL     1      34.938  28.298  49.377  0.00  0.00    +0.000 C 
ATOM     11  C   UNL     1      34.063  29.070  48.431  0.00  0.00    +0.000 C 
ATOM     12  C   UNL     1      34.786  30.310  47.955  0.00  0.00    +0.000 C 
ATOM     13  H   UNL     1      39.372  33.573  48.541  0.00  0.00    +0.000 HD
ATOM     14  H   UNL     1      40.230  32.614  46.418  0.00  0.00    +0.000 HD
ATOM     15  H   UNL     1      39.024  30.665  45.411  0.00  0.00    +0.000 HD
ATOM     16  H   UNL     1      35.548  31.272  50.671  0.00  0.00    +0.000 HD
ATOM     17  H   UNL     1      37.022  30.255  50.555  0.00  0.00    +0.000 HD
ATOM     18  H   UNL     1      35.683  28.584  51.347  0.00  0.00    +0.000 HD
ATOM     19  H   UNL     1      34.162  29.470  51.053  0.00  0.00    +0.000 HD
ATOM     20  H   UNL     1      34.432  27.363  49.690  0.00  0.00    +0.000 HD
ATOM     21  H   UNL     1      35.940  28.128  48.950  0.00  0.00    +0.000 HD
ATOM     22  H   UNL     1      33.111  29.272  48.921  0.00  0.00    +0.000 HD
ATOM     23  H   UNL     1      33.864  28.366  47.571  0.00  0.00    +0.000 HD
ATOM     24  H   UNL     1      35.153  30.197  46.916  0.00  0.00    +0.000 HD
ENDROOT
BRANCH  12  25
ATOM     25  C   UNL     1      33.927  31.520  48.068  0.00  0.00    +0.000 A 
ATOM     26  N   UNL     1      33.498  31.948  49.292  0.00  0.00    +0.000 NA
ATOM     27  C   UNL     1      32.726  33.037  49.457  0.00  0.00    +0.000 A 
ATOM     28  N   UNL     1      32.311  33.796  48.427  0.00  0.00    +0.000 NA
ATOM     29  C   UNL     1      32.705  33.421  47.195  0.00  0.00    +0.000 A 
ATOM     30  C   UNL     1      32.301  34.170  46.111  0.00  0.00    +0.000 A 
ATOM     31  C   UNL     1      32.673  33.831  44.824  0.00  0.00    +0.000 A 
ATOM     32  H   UNL     1      32.352  34.425  43.970  0.00  0.00    +0.000 HD
ATOM     33  C   UNL     1      33.473  32.698  44.677  0.00  0.00    +0.000 A 
ATOM     34  H   UNL     1      33.761  32.437  43.676  0.00  0.00    +0.000 HD
ATOM     35  C   UNL     1      33.882  31.944  45.757  0.00  0.00    +0.000 A 
ATOM     36  C   UNL     1      33.496  32.306  47.019  0.00  0.00    +0.000 A 
ENDBRANCH  12  25
TORSDOF 1
