REMARK  Name = 
REMARK  2 active torsions:
REMARK  status: ('A' for Active; 'I' for Inactive)
REMARK    1  A    between atoms: C_2  and  C_12
REMARK    2  A    between atoms: C_20  and  C_36
REMARK                            x       y       z     vdW  Elec       q    Type
REMARK                         _______ _______ _______ _____ _____    ______ ____
ROOT
ATOM      1  C   UNL     1      36.834  31.125  48.537  0.00  0.00    +0.000 A 
ATOM      2  N   UNL     1      36.799  32.009  49.568  0.00  0.00    +0.000 NA
ATOM      3  C   UNL     1      37.676  33.019  49.611  0.00  0.00    +0.000 A 
ATOM      4  N   UNL     1      38.646  33.239  48.661  0.00  0.00    +0.000 NA
ATOM      5  C   UNL     1      38.706  32.383  47.634  0.00  0.00    +0.000 A 
ATOM      6  C   UNL     1      39.671  32.468  46.632  0.00  0.00    +0.000 A 
ATOM      7  C   UNL     1      39.736  31.536  45.606  0.00  0.00    +0.000 A 
ATOM      8  C   UNL     1      38.809  30.482  45.575  0.00  0.00    +0.000 A 
ATOM      9  C   UNL     1      37.859  30.436  46.593  0.00  0.00    +0.000 A 
ATOM     10  C   UNL     1      37.804  31.352  47.594  0.00  0.00    +0.000 A 
ATOM     11  H   UNL     1      37.650  33.723  50.438  0.00  0.00    +0.000 HD
ATOM     12  H   UNL     1      40.357  33.316  46.722  0.00  0.00    +0.000 HD
ATOM     13  H   UNL     1      40.531  31.748  44.926  0.00  0.00    +0.000 HD
ATOM     14  H   UNL     1      39.055  29.896  44.706  0.00  0.00    +0.000 HD
ENDROOT
BRANCH   1  16
ATOM     15  C   UNL     1      35.847  28.909  49.369  0.00  0.00    +0.000 A 
ATOM     16  C   UNL     1      35.853  30.095  48.588  0.00  0.00    +0.000 A 
ATOM     17  C   UNL     1      34.766  30.326  47.714  0.00  0.00    +0.000 A 
ATOM     18  N   UNL     1      33.762  29.414  47.642  0.00  0.00    +0.000 NA
ATOM     19  C   UNL     1      33.817  28.285  48.420  0.00  0.00    +0.000 A 
ATOM     20  N   UNL     1      34.840  28.034  49.273  0.00  0.00    +0.000 NA
ATOM     21  N   UNL     1      32.746  27.328  48.279  0.00  0.00    +0.000 N 
ATOM     22  C   UNL     1      31.372  27.623  48.561  0.00  0.00    +0.000 C 
ATOM     23  C   UNL     1      30.611  26.455  48.016  0.00  0.00    +0.000 C 
ATOM     24  C   UNL     1      31.586  25.629  47.212  0.00  0.00    +0.000 C 
ATOM     25  C   UNL     1      32.902  25.939  47.837  0.00  0.00    +0.000 C 
ATOM     26  H   UNL     1      36.705  28.822  50.002  0.00  0.00    +0.000 HD
ATOM     27  H   UNL     1      34.662  31.174  47.093  0.00  0.00    +0.000 HD
ATOM     28  H   UNL     1      31.203  27.753  49.657  0.00  0.00    +0.000 HD
ATOM     29  H   UNL     1      31.091  28.521  47.977  0.00  0.00    +0.000 HD
ATOM     30  H   UNL     1      29.796  26.771  47.334  0.00  0.00    +0.000 HD
ATOM     31  H   UNL     1      30.156  25.861  48.849  0.00  0.00    +0.000 HD
ATOM     32  H   UNL     1      31.559  25.874  46.128  0.00  0.00    +0.000 HD
ATOM     33  H   UNL     1      31.331  24.564  47.368  0.00  0.00    +0.000 HD
ATOM     34  H   UNL     1      33.763  25.781  47.186  0.00  0.00    +0.000 HD
ATOM     35  H   UNL     1      33.047  25.289  48.724  0.00  0.00    +0.000 HD
ENDBRANCH   1  16
BRANCH   9  36
ATOM     36  C   UNL     1      37.031  29.335  46.105  0.00  0.00    +0.000 A 
ATOM     37  N   UNL     1      35.751  28.925  46.214  0.00  0.00    +0.000 NA
ATOM     38  C   UNL     1      35.332  27.780  45.696  0.00  0.00    +0.000 A 
ATOM     39  N   UNL     1      36.144  26.958  45.037  0.00  0.00    +0.000 NA
ATOM     40  C   UNL     1      37.451  27.260  44.864  0.00  0.00    +0.000 A 
ATOM     41  C   UNL     1      38.199  26.326  44.199  0.00  0.00    +0.000 A 
ATOM     42  C   UNL     1      39.529  26.588  44.037  0.00  0.00    +0.000 A 
ATOM     43  H   UNL     1      40.170  25.905  43.538  0.00  0.00    +0.000 HD
ATOM     44  C   UNL     1      40.068  27.745  44.531  0.00  0.00    +0.000 A 
ATOM     45  H   UNL     1      41.128  28.017  44.444  0.00  0.00    +0.000 HD
ATOM     46  C   UNL     1      39.260  28.637  45.188  0.00  0.00    +0.000 A 
ATOM     47  C   UNL     1      37.886  28.472  45.411  0.00  0.00    +0.000 A 
ENDBRANCH   9  36
TORSDOF 2
