
 OpenBabel03272502183D

 36 39  0  0  1  0  0  0  0  0999 V2000
   37.2920   30.5930   48.1380 C   0  0  0  0  0  0  0  0  0  0  0  0
   38.1260   31.5190   48.7510 C   0  0  0  0  0  0  0  0  0  0  0  0
   38.8020   32.4030   47.9250 C   0  0  0  0  0  0  0  0  0  0  0  0
   38.6210   32.3270   46.5710 N   0  0  0  0  0  0  0  0  0  0  0  0
   37.8040   31.4200   45.9930 C   0  0  0  0  0  0  0  0  0  0  0  0
   37.1990   30.6160   46.8360 N   0  0  0  0  0  0  0  0  0  0  0  0
   38.3170   31.6380   49.8060 H   0  0  0  0  0  0  0  0  0  0  0  0
   39.4650   33.1490   48.3380 H   0  0  0  0  0  0  0  0  0  0  0  0
   37.7760   31.5350   44.5520 C   0  0  0  0  0  0  0  0  0  0  0  0
   37.2860   32.6220   43.9060 N   0  0  0  0  0  0  0  0  0  0  0  0
   37.2340   32.7840   42.5970 C   0  0  0  0  0  3  0  0  0  0  0  0
   37.6970   31.8130   41.7650 N   0  0  0  0  0  0  0  0  0  0  0  0
   38.2170   30.6680   42.2940 C   0  0  0  0  0  0  0  0  0  0  0  0
   38.6840   29.6920   41.4550 C   0  0  0  0  0  3  0  0  0  0  0  0
   39.2060   28.5420   41.9590 C   0  0  0  0  0  0  0  0  0  0  0  0
   39.5460   27.8350   41.2180 H   0  0  0  0  0  0  0  0  0  0  0  0
   39.2430   28.4120   43.3350 C   0  0  0  0  0  0  0  0  0  0  0  0
   39.6650   27.4820   43.7110 H   0  0  0  0  0  0  0  0  0  0  0  0
   38.7600   29.4240   44.1350 C   0  0  0  0  0  3  0  0  0  0  0  0
   38.2270   30.5950   43.6550 C   0  0  0  0  0  0  0  0  0  0  0  0
   36.4550   29.4750   49.2210 S   0  0  0  0  0  0  0  0  0  0  0  0
   33.9510   28.4340   49.0890 N   0  0  0  0  0  0  0  0  0  0  0  0
   34.6240   29.7090   49.0910 C   0  0  2  0  0  0  0  0  0  0  0  0
   34.3480   30.3900   47.7620 C   0  0  0  0  0  0  0  0  0  0  0  0
   33.2430   29.7930   47.1110 O   0  0  0  0  0  0  0  0  0  0  0  0
   33.7080   28.5240   46.7120 C   0  0  0  0  0  0  0  0  0  0  0  0
   34.2860   27.7470   47.8690 C   0  0  2  0  0  0  0  0  0  0  0  0
   32.9450   28.6160   49.1750 H   0  0  0  0  0  0  0  0  0  0  0  0
   34.3510   30.3600   49.9420 H   0  0  0  0  0  0  0  0  0  0  0  0
   34.1410   31.4580   47.9510 H   0  0  0  0  0  0  0  0  0  0  0  0
   35.2190   30.2630   47.0890 H   0  0  0  0  0  0  0  0  0  0  0  0
   32.9250   27.9570   46.1710 H   0  0  0  0  0  0  0  0  0  0  0  0
   34.5330   28.7210   45.9960 H   0  0  0  0  0  0  0  0  0  0  0  0
   35.3750   27.6120   47.7910 H   0  0  0  0  0  0  0  0  0  0  0  0
   33.7300   26.4490   47.9280 O   0  0  0  0  0  0  0  0  0  0  0  0
   32.8070   26.4640   48.2760 H   0  0  0  0  0  0  0  0  0  0  0  0
  1  2  1  0  0  0  0
  1 21  1  0  0  0  0
  2  7  1  0  0  0  0
  3  8  1  0  0  0  0
  3  2  2  0  0  0  0
  4  3  1  0  0  0  0
  5  4  2  0  0  0  0
  5  6  1  0  0  0  0
  6  1  2  0  0  0  0
  9  5  1  0  0  0  0
 10  9  1  0  0  0  0
 11 10  2  0  0  0  0
 12 13  2  0  0  0  0
 12 11  1  0  0  0  0
 13 20  1  0  0  0  0
 14 15  2  0  0  0  0
 14 13  1  0  0  0  0
 15 17  1  0  0  0  0
 16 15  1  0  0  0  0
 17 18  1  0  0  0  0
 17 19  2  0  0  0  0
 20 19  1  0  0  0  0
 20  9  2  0  0  0  0
 22 23  1  0  0  0  0
 22 28  1  0  0  0  0
 23 21  1  0  0  0  0
 23 29  1  1  0  0  0
 24 30  1  0  0  0  0
 24 23  1  0  0  0  0
 25 24  1  0  0  0  0
 26 25  1  0  0  0  0
 26 27  1  0  0  0  0
 27 34  1  6  0  0  0
 27 35  1  0  0  0  0
 27 22  1  0  0  0  0
 31 24  1  0  0  0  0
 32 26  1  0  0  0  0
 33 26  1  0  0  0  0
 35 36  1  0  0  0  0
M  END
>  <minimizedAffinity>
-5.39899492

>  <minimizedRMSD>
2.88954139

$$$$
