
     RDKit          3D

 36 39  0  0  0  0  0  0  0  0999 V2000
   38.0908   33.1424   49.5001 C   0  0  0  0  0  0  0  0  0  0  0  0
   38.9431   33.0591   48.3954 C   0  0  0  0  0  0  0  0  0  0  0  0
   38.7180   32.0356   47.4404 C   0  0  0  0  0  0  0  0  0  0  0  0
   37.6773   31.1733   47.6421 N   0  0  0  0  0  0  0  0  0  0  0  0
   36.8850   31.3051   48.7359 C   0  0  0  0  0  0  0  0  0  0  0  0
   37.0782   32.2688   49.6560 N   0  0  0  0  0  0  0  0  0  0  0  0
   35.8052   30.3564   48.8914 N   0  0  0  0  0  0  0  0  0  0  0  0
   34.7244   30.1988   47.9449 C   0  0  0  0  0  0  0  0  0  0  0  0
   34.0201   28.9579   48.3774 C   0  0  0  0  0  0  0  0  0  0  0  0
   34.8965   28.3076   49.4372 C   0  0  0  0  0  0  0  0  0  0  0  0
   35.6623   29.4350   50.0182 C   0  0  0  0  0  0  0  0  0  0  0  0
   38.2736   33.9307   50.1923 H   0  0  0  0  0  0  0  0  0  0  0  0
   39.3195   31.8927   46.5589 H   0  0  0  0  0  0  0  0  0  0  0  0
   34.0157   31.0532   47.9581 H   0  0  0  0  0  0  0  0  0  0  0  0
   35.0938   30.1204   46.9015 H   0  0  0  0  0  0  0  0  0  0  0  0
   33.8979   28.2740   47.5204 H   0  0  0  0  0  0  0  0  0  0  0  0
   33.0097   29.1885   48.7768 H   0  0  0  0  0  0  0  0  0  0  0  0
   35.5347   27.5205   48.9754 H   0  0  0  0  0  0  0  0  0  0  0  0
   34.2179   27.8771   50.2143 H   0  0  0  0  0  0  0  0  0  0  0  0
   35.1863   29.9017   50.8882 H   0  0  0  0  0  0  0  0  0  0  0  0
   36.6721   29.0510   50.3412 H   0  0  0  0  0  0  0  0  0  0  0  0
   40.0796   33.8766   48.0787 C   0  0  0  0  0  0  0  0  0  0  0  0
   41.0082   33.3113   47.2728 N   0  0  0  0  0  0  0  0  0  0  0  0
   42.0995   34.0127   46.9357 C   0  0  0  0  0  0  0  0  0  0  0  0
   42.3702   35.2871   47.3442 N   0  0  0  0  0  0  0  0  0  0  0  0
   41.4668   35.8782   48.1479 C   0  0  0  0  0  0  0  0  0  0  0  0
   41.6321   37.1733   48.6425 C   0  0  0  0  0  0  0  0  0  0  0  0
   40.6801   37.7529   49.4851 C   0  0  0  0  0  0  0  0  0  0  0  0
   40.8324   38.7562   49.8534 H   0  0  0  0  0  0  0  0  0  0  0  0
   39.5422   37.0181   49.8371 C   0  0  0  0  0  0  0  0  0  0  0  0
   38.8016   37.4745   50.4958 H   0  0  0  0  0  0  0  0  0  0  0  0
   39.4161   35.7433   49.3276 C   0  0  0  0  0  0  0  0  0  0  0  0
   40.3476   35.1622   48.4951 C   0  0  0  0  0  0  0  0  0  0  0  0
   42.8979   33.6225   46.2855 H   0  0  0  0  0  0  0  0  0  0  0  0
   42.5182   37.6975   48.3467 H   0  0  0  0  0  0  0  0  0  0  0  0
   38.5309   35.2432   49.6518 H   0  0  0  0  0  0  0  0  0  0  0  0
  1  6  2  0
  2  1  1  0
  3  4  1  0
  3  2  2  0
  4  5  2  0
  5  7  1  0
  5  6  1  0
  7 11  1  0
  8  9  1  0
  8  7  1  0
  9 10  1  0
 10 11  1  0
  1 12  1  0
  3 13  1  0
  8 14  1  0
  8 15  1  0
  9 16  1  0
  9 17  1  0
 10 18  1  0
 10 19  1  0
 11 20  1  0
 11 21  1  0
 22 23  2  0
 23 24  1  0
 24 25  2  0
 25 26  1  0
 26 27  2  0
 27 28  1  0
 28 29  1  0
 28 30  2  0
 30 31  1  0
 30 32  1  0
 32 33  2  0
 33 22  1  0
 33 26  1  0
 24 34  1  0
 27 35  1  0
 32 36  1  0
  2 22  1  0
M  ISO  8  12  14  13  14  14  13  15  13  16  13  17  13  18  13  19  13
M  ISO  4  20  13  21  13  29  16  31  16
M  END
>  <DihAtoms>  (1) 
0,1,21,22

>  <DihDeg>  (1) 
-129.1814806373225

$$$$
