
     RDKit          3D

 26 28  0  0  0  0  0  0  0  0999 V2000
   37.3767   29.9994   50.7407 C   0  0  0  0  0  0  0  0  0  0  0  0
   37.6838   31.2206   50.1200 C   0  0  0  0  0  0  0  0  0  0  0  0
   37.0691   31.4344   48.9002 C   0  0  0  0  0  0  0  0  0  0  0  0
   36.2499   30.4996   48.4045 N   0  0  0  0  0  0  0  0  0  0  0  0
   35.9567   29.3422   48.9892 C   0  0  0  0  0  0  0  0  0  0  0  0
   36.5516   29.1517   50.1545 N   0  0  0  0  0  0  0  0  0  0  0  0
   37.9463   29.6350   52.0249 N   0  0  0  0  0  0  0  0  0  0  0  0
   38.3423   31.9032   50.5823 H   0  0  0  0  0  0  0  0  0  0  0  0
   37.2300   32.3202   48.3472 H   0  0  0  0  0  0  0  0  0  0  0  0
   38.8930   29.2834   52.2343 H   0  0  0  0  0  0  0  0  0  0  0  0
   37.3479   29.7275   52.8769 H   0  0  0  0  0  0  0  0  0  0  0  0
   35.0940   28.2207   48.5942 C   0  0  0  0  0  0  0  0  0  0  0  0
   35.4318   27.3283   47.6436 N   0  0  0  0  0  0  0  0  0  0  0  0
   34.6354   26.3167   47.2984 C   0  0  0  0  0  0  0  0  0  0  0  0
   33.4346   26.0841   47.8511 N   0  0  0  0  0  0  0  0  0  0  0  0
   33.0323   26.9350   48.8072 C   0  0  0  0  0  0  0  0  0  0  0  0
   31.8004   26.7035   49.3799 C   0  0  0  0  0  0  0  0  0  0  0  0
   31.3299   27.5418   50.3680 C   0  0  0  0  0  0  0  0  0  0  0  0
   30.3613   27.3039   50.7720 H   0  0  0  0  0  0  0  0  0  0  0  0
   32.1470   28.5932   50.7334 C   0  0  0  0  0  0  0  0  0  0  0  0
   31.7233   29.2262   51.5219 H   0  0  0  0  0  0  0  0  0  0  0  0
   33.3717   28.7925   50.1383 C   0  0  0  0  0  0  0  0  0  0  0  0
   33.8624   27.9725   49.1529 C   0  0  0  0  0  0  0  0  0  0  0  0
   35.0447   25.6716   46.5088 H   0  0  0  0  0  0  0  0  0  0  0  0
   31.1910   25.8507   49.0506 H   0  0  0  0  0  0  0  0  0  0  0  0
   33.8734   29.6323   50.5237 H   0  0  0  0  0  0  0  0  0  0  0  0
  1  7  1  0
  2  1  2  0
  3  2  1  0
  4  3  2  0
  4  5  1  0
  5  6  2  0
  6  1  1  0
  2  8  1  0
  3  9  1  0
  7 10  1  0
  7 11  1  0
 12 13  2  0
 13 14  1  0
 14 15  2  0
 15 16  1  0
 16 17  2  0
 17 18  1  0
 18 19  1  0
 18 20  2  0
 20 21  1  0
 20 22  1  0
 22 23  2  0
 23 12  1  0
 23 16  1  0
 14 24  1  0
 17 25  1  0
 22 26  1  0
  5 12  1  0
M  ISO  4   8  14   9  14  19  16  21  16
M  END
>  <DihAtoms>  (1) 
3,4,11,12

>  <DihDeg>  (1) 
-179.99795533896386

$$$$
