
 OpenBabel03272503273D

 33 36  0  0  1  0  0  0  0  0999 V2000
   39.6220   24.9410   34.8050 N   0  0  0  0  0  0  0  0  0  0  0  0
   38.7540   25.0340   33.6590 C   0  0  0  0  0  0  0  0  0  0  0  0
   39.1690   26.3370   32.9960 C   0  0  2  0  0  0  0  0  0  0  0  0
   40.2970   26.8900   33.8820 C   0  0  0  0  0  0  0  0  0  0  0  0
   40.8520   25.5980   34.4330 C   0  0  0  0  0  0  0  0  0  0  0  0
   37.6830   25.1300   33.9320 H   0  0  0  0  0  0  0  0  0  0  0  0
   38.8330   24.1610   32.9810 H   0  0  0  0  0  0  0  0  0  0  0  0
   39.5450   26.0870   31.9980 H   0  0  0  0  0  0  0  0  0  0  0  0
   39.7720   27.4210   34.6980 H   0  0  0  0  0  0  0  0  0  0  0  0
   41.0110   27.4950   33.3270 H   0  0  0  0  0  0  0  0  0  0  0  0
   41.3770   25.0500   33.6120 H   0  0  0  0  0  0  0  0  0  0  0  0
   41.5240   25.7480   35.3060 H   0  0  0  0  0  0  0  0  0  0  0  0
   38.0380   27.3020   32.9570 C   0  0  0  0  0  0  0  0  0  0  0  0
   37.3160   27.4280   34.1080 N   0  0  0  0  0  0  0  0  0  0  0  0
   36.2710   28.2560   34.2370 C   0  0  0  0  0  3  0  0  0  0  0  0
   35.8850   29.0240   33.1820 N   0  0  0  0  0  0  0  0  0  0  0  0
   36.5580   28.9420   32.0200 C   0  0  0  0  0  0  0  0  0  0  0  0
   36.2280   29.6880   30.9000 C   0  0  0  0  0  3  0  0  0  0  0  0
   36.9360   29.5900   29.7050 C   0  0  0  0  0  0  0  0  0  0  0  0
   36.6770   30.1740   28.8300 H   0  0  0  0  0  0  0  0  0  0  0  0
   38.0140   28.7050   29.6450 C   0  0  0  0  0  0  0  0  0  0  0  0
   38.5520   28.6480   28.6910 H   0  0  0  0  0  0  0  0  0  0  0  0
   38.3570   27.9540   30.7490 C   0  0  0  0  0  3  0  0  0  0  0  0
   37.6300   28.0820   31.9130 C   0  0  0  0  0  0  0  0  0  0  0  0
   39.3180   24.3220   36.0560 C   0  0  0  0  0  0  0  0  0  0  0  0
   38.1780   24.7510   36.7300 C   0  0  0  0  0  0  0  0  0  0  0  0
   37.8810   24.1480   37.9500 C   0  0  0  0  0  0  0  0  0  0  0  0
   38.7270   23.1670   38.4140 N   0  0  0  0  0  0  0  0  0  0  0  0
   39.8150   22.7820   37.7340 C   0  0  0  0  0  0  0  0  0  0  0  0
   40.1230   23.3650   36.5340 N   0  0  0  0  0  0  0  0  0  0  0  0
   37.5070   25.5030   36.4000 H   0  0  0  0  0  0  0  0  0  0  0  0
   37.0190   24.4260   38.5280 H   0  0  0  0  0  0  0  0  0  0  0  0
   40.4820   22.0110   38.0960 H   0  0  0  0  0  0  0  0  0  0  0  0
  1 25  1  0  0  0  0
  2  6  1  0  0  0  0
  2  1  1  0  0  0  0
  3  8  1  6  0  0  0
  3  2  1  0  0  0  0
  3  4  1  0  0  0  0
  4  5  1  0  0  0  0
  4  9  1  0  0  0  0
  5  1  1  0  0  0  0
  5 12  1  0  0  0  0
  7  2  1  0  0  0  0
 10  4  1  0  0  0  0
 11  5  1  0  0  0  0
 13  3  1  0  0  0  0
 13 14  1  0  0  0  0
 14 15  2  0  0  0  0
 16 15  1  0  0  0  0
 17 16  2  0  0  0  0
 18 17  1  0  0  0  0
 19 18  2  0  0  0  0
 20 19  1  0  0  0  0
 21 19  1  0  0  0  0
 21 23  2  0  0  0  0
 22 21  1  0  0  0  0
 23 24  1  0  0  0  0
 24 17  1  0  0  0  0
 24 13  2  0  0  0  0
 25 30  2  0  0  0  0
 25 26  1  0  0  0  0
 26 27  2  0  0  0  0
 27 28  1  0  0  0  0
 27 32  1  0  0  0  0
 29 33  1  0  0  0  0
 29 28  2  0  0  0  0
 30 29  1  0  0  0  0
 31 26  1  0  0  0  0
M  END
>  <minimizedAffinity>
-5.50034809

$$$$

 OpenBabel03272503273D

 33 36  0  0  1  0  0  0  0  0999 V2000
   37.9740   24.6410   32.9800 N   0  0  0  0  0  0  0  0  0  0  0  0
   39.3530   24.2910   33.2030 C   0  0  0  0  0  0  0  0  0  0  0  0
   39.2940   22.8260   33.6040 C   0  0  2  0  0  0  0  0  0  0  0  0
   37.8000   22.4670   33.5680 C   0  0  0  0  0  0  0  0  0  0  0  0
   37.3230   23.4400   32.5150 C   0  0  0  0  0  0  0  0  0  0  0  0
   39.8090   24.8460   34.0490 H   0  0  0  0  0  0  0  0  0  0  0  0
   39.9970   24.4710   32.3200 H   0  0  0  0  0  0  0  0  0  0  0  0
   39.8490   22.2610   32.8480 H   0  0  0  0  0  0  0  0  0  0  0  0
   37.4120   22.7960   34.5490 H   0  0  0  0  0  0  0  0  0  0  0  0
   37.6240   21.4180   33.3350 H   0  0  0  0  0  0  0  0  0  0  0  0
   37.7190   23.1180   31.5200 H   0  0  0  0  0  0  0  0  0  0  0  0
   36.2170   23.5480   32.4890 H   0  0  0  0  0  0  0  0  0  0  0  0
   39.8290   22.6250   34.9770 C   0  0  0  0  0  0  0  0  0  0  0  0
   41.0260   21.9760   35.0660 N   0  0  0  0  0  0  0  0  0  0  0  0
   41.6430   21.7200   36.2270 C   0  0  0  0  0  3  0  0  0  0  0  0
   41.0700   22.1160   37.3960 N   0  0  0  0  0  0  0  0  0  0  0  0
   39.8890   22.7600   37.3730 C   0  0  0  0  0  0  0  0  0  0  0  0
   39.2400   23.1940   38.5170 C   0  0  0  0  0  3  0  0  0  0  0  0
   38.0170   23.8570   38.4730 C   0  0  0  0  0  0  0  0  0  0  0  0
   37.5110   24.1970   39.3690 H   0  0  0  0  0  0  0  0  0  0  0  0
   37.4340   24.0880   37.2260 C   0  0  0  0  0  0  0  0  0  0  0  0
   36.4710   24.6130   37.2220 H   0  0  0  0  0  0  0  0  0  0  0  0
   38.0650   23.6640   36.0760 C   0  0  0  0  0  3  0  0  0  0  0  0
   39.2750   23.0100   36.1640 C   0  0  0  0  0  0  0  0  0  0  0  0
   37.3770   25.9230   33.1800 C   0  0  0  0  0  0  0  0  0  0  0  0
   37.5410   26.5250   34.4240 C   0  0  0  0  0  0  0  0  0  0  0  0
   36.9580   27.7760   34.6210 C   0  0  0  0  0  0  0  0  0  0  0  0
   36.2600   28.3400   33.5780 N   0  0  0  0  0  0  0  0  0  0  0  0
   36.1260   27.7270   32.3930 C   0  0  0  0  0  0  0  0  0  0  0  0
   36.6910   26.4980   32.1840 N   0  0  0  0  0  0  0  0  0  0  0  0
   38.0720   26.1180   35.2470 H   0  0  0  0  0  0  0  0  0  0  0  0
   37.0410   28.3030   35.5540 H   0  0  0  0  0  0  0  0  0  0  0  0
   35.5780   28.1680   31.5720 H   0  0  0  0  0  0  0  0  0  0  0  0
  1 25  1  0  0  0  0
  1  2  1  0  0  0  0
  2  3  1  0  0  0  0
  2  6  1  0  0  0  0
  3  8  1  6  0  0  0
  3 13  1  0  0  0  0
  4  3  1  0  0  0  0
  4  9  1  0  0  0  0
  5  1  1  0  0  0  0
  5  4  1  0  0  0  0
  7  2  1  0  0  0  0
 10  4  1  0  0  0  0
 11  5  1  0  0  0  0
 12  5  1  0  0  0  0
 13 14  2  0  0  0  0
 13 24  1  0  0  0  0
 14 15  1  0  0  0  0
 15 16  2  0  0  0  0
 17 16  1  0  0  0  0
 17 18  1  0  0  0  0
 19 18  2  0  0  0  0
 19 20  1  0  0  0  0
 21 19  1  0  0  0  0
 22 21  1  0  0  0  0
 23 24  1  0  0  0  0
 23 21  2  0  0  0  0
 24 17  2  0  0  0  0
 25 26  1  0  0  0  0
 26 27  2  0  0  0  0
 26 31  1  0  0  0  0
 27 32  1  0  0  0  0
 28 27  1  0  0  0  0
 29 28  2  0  0  0  0
 30 29  1  0  0  0  0
 30 25  2  0  0  0  0
 33 29  1  0  0  0  0
M  END
>  <minimizedAffinity>
-5.47794676

$$$$

 OpenBabel03272503273D

 33 36  0  0  1  0  0  0  0  0999 V2000
   39.8390   24.9590   34.8670 N   0  0  0  0  0  0  0  0  0  0  0  0
   39.3250   24.6600   33.5550 C   0  0  0  0  0  0  0  0  0  0  0  0
   39.4050   25.9910   32.8240 C   0  0  2  0  0  0  0  0  0  0  0  0
   39.9900   26.9720   33.8520 C   0  0  0  0  0  0  0  0  0  0  0  0
   40.8060   26.0160   34.6890 C   0  0  0  0  0  0  0  0  0  0  0  0
   38.2580   24.3550   33.5660 H   0  0  0  0  0  0  0  0  0  0  0  0
   39.8820   23.8520   33.0420 H   0  0  0  0  0  0  0  0  0  0  0  0
   40.0900   25.8560   31.9800 H   0  0  0  0  0  0  0  0  0  0  0  0
   39.1190   27.3020   34.4470 H   0  0  0  0  0  0  0  0  0  0  0  0
   40.5600   27.7770   33.3890 H   0  0  0  0  0  0  0  0  0  0  0  0
   41.6850   25.6710   34.0910 H   0  0  0  0  0  0  0  0  0  0  0  0
   41.1300   26.4510   35.6600 H   0  0  0  0  0  0  0  0  0  0  0  0
   38.0560   26.4500   32.3980 C   0  0  0  0  0  0  0  0  0  0  0  0
   37.7870   27.7750   32.5810 N   0  0  0  0  0  0  0  0  0  0  0  0
   36.6220   28.3450   32.2460 C   0  0  0  0  0  3  0  0  0  0  0  0
   35.6360   27.5890   31.6930 N   0  0  0  0  0  0  0  0  0  0  0  0
   35.8420   26.2750   31.4880 C   0  0  0  0  0  0  0  0  0  0  0  0
   34.8900   25.4360   30.9310 C   0  0  0  0  0  3  0  0  0  0  0  0
   35.1210   24.0790   30.7280 C   0  0  0  0  0  0  0  0  0  0  0  0
   34.3750   23.4240   30.2920 H   0  0  0  0  0  0  0  0  0  0  0  0
   36.3590   23.5550   31.1020 C   0  0  0  0  0  0  0  0  0  0  0  0
   36.5130   22.4830   30.9300 H   0  0  0  0  0  0  0  0  0  0  0  0
   37.3200   24.3740   31.6570 C   0  0  0  0  0  3  0  0  0  0  0  0
   37.0500   25.7130   31.8420 C   0  0  0  0  0  0  0  0  0  0  0  0
   39.4630   24.3300   36.0930 C   0  0  0  0  0  0  0  0  0  0  0  0
   38.3050   24.7820   36.7210 C   0  0  0  0  0  0  0  0  0  0  0  0
   37.9370   24.1690   37.9180 C   0  0  0  0  0  0  0  0  0  0  0  0
   38.7350   23.1600   38.4040 N   0  0  0  0  0  0  0  0  0  0  0  0
   39.8430   22.7540   37.7670 C   0  0  0  0  0  0  0  0  0  0  0  0
   40.2190   23.3450   36.5920 N   0  0  0  0  0  0  0  0  0  0  0  0
   37.6700   25.5550   36.3730 H   0  0  0  0  0  0  0  0  0  0  0  0
   37.0580   24.4620   38.4610 H   0  0  0  0  0  0  0  0  0  0  0  0
   40.4720   21.9600   38.1470 H   0  0  0  0  0  0  0  0  0  0  0  0
  1 25  1  0  0  0  0
  2  6  1  0  0  0  0
  2  1  1  0  0  0  0
  3  8  1  6  0  0  0
  3  2  1  0  0  0  0
  3  4  1  0  0  0  0
  4  9  1  0  0  0  0
  4  5  1  0  0  0  0
  5  1  1  0  0  0  0
  5 12  1  0  0  0  0
  7  2  1  0  0  0  0
 10  4  1  0  0  0  0
 11  5  1  0  0  0  0
 13 14  1  0  0  0  0
 13  3  1  0  0  0  0
 15 14  2  0  0  0  0
 16 15  1  0  0  0  0
 17 16  2  0  0  0  0
 17 24  1  0  0  0  0
 18 17  1  0  0  0  0
 19 18  2  0  0  0  0
 19 21  1  0  0  0  0
 20 19  1  0  0  0  0
 21 23  2  0  0  0  0
 22 21  1  0  0  0  0
 23 24  1  0  0  0  0
 24 13  2  0  0  0  0
 25 30  2  0  0  0  0
 25 26  1  0  0  0  0
 26 27  2  0  0  0  0
 27 28  1  0  0  0  0
 27 32  1  0  0  0  0
 29 33  1  0  0  0  0
 29 28  2  0  0  0  0
 30 29  1  0  0  0  0
 31 26  1  0  0  0  0
M  END
>  <minimizedAffinity>
-5.4436307

$$$$

 OpenBabel03272503273D

 33 36  0  0  1  0  0  0  0  0999 V2000
   36.9590   27.5480   33.1950 N   0  0  0  0  0  0  0  0  0  0  0  0
   37.0240   26.1270   33.4210 C   0  0  0  0  0  0  0  0  0  0  0  0
   37.5690   26.0110   34.8350 C   0  0  2  0  0  0  0  0  0  0  0  0
   37.7740   27.4620   35.3000 C   0  0  0  0  0  0  0  0  0  0  0  0
   36.7070   28.1500   34.4820 C   0  0  0  0  0  0  0  0  0  0  0  0
   37.7410   25.6130   32.7480 H   0  0  0  0  0  0  0  0  0  0  0  0
   36.0470   25.6210   33.2930 H   0  0  0  0  0  0  0  0  0  0  0  0
   36.8030   25.5130   35.4380 H   0  0  0  0  0  0  0  0  0  0  0  0
   38.7630   27.7450   34.8950 H   0  0  0  0  0  0  0  0  0  0  0  0
   37.6700   27.5770   36.3780 H   0  0  0  0  0  0  0  0  0  0  0  0
   35.7040   27.8610   34.8810 H   0  0  0  0  0  0  0  0  0  0  0  0
   36.8230   29.2560   34.4560 H   0  0  0  0  0  0  0  0  0  0  0  0
   38.8690   25.2870   34.8500 C   0  0  0  0  0  0  0  0  0  0  0  0
   39.7090   25.5400   33.8040 N   0  0  0  0  0  0  0  0  0  0  0  0
   40.9150   24.9730   33.6720 C   0  0  0  0  0  3  0  0  0  0  0  0
   41.3530   24.0950   34.6140 N   0  0  0  0  0  0  0  0  0  0  0  0
   40.5690   23.8050   35.6690 C   0  0  0  0  0  0  0  0  0  0  0  0
   40.9410   22.9220   36.6690 C   0  0  0  0  0  3  0  0  0  0  0  0
   40.1160   22.6340   37.7530 C   0  0  0  0  0  0  0  0  0  0  0  0
   40.4080   21.9430   38.5350 H   0  0  0  0  0  0  0  0  0  0  0  0
   38.8720   23.2630   37.8230 C   0  0  0  0  0  0  0  0  0  0  0  0
   38.2430   23.0170   38.6870 H   0  0  0  0  0  0  0  0  0  0  0  0
   38.4840   24.1460   36.8360 C   0  0  0  0  0  3  0  0  0  0  0  0
   39.3320   24.4030   35.7800 C   0  0  0  0  0  0  0  0  0  0  0  0
   37.1130   28.2200   31.9440 C   0  0  0  0  0  0  0  0  0  0  0  0
   38.1360   27.7910   31.1020 C   0  0  0  0  0  0  0  0  0  0  0  0
   38.2880   28.4450   29.8820 C   0  0  0  0  0  0  0  0  0  0  0  0
   37.4220   29.4710   29.5810 N   0  0  0  0  0  0  0  0  0  0  0  0
   36.4490   29.8540   30.4200 C   0  0  0  0  0  0  0  0  0  0  0  0
   36.2860   29.2230   31.6240 N   0  0  0  0  0  0  0  0  0  0  0  0
   38.8180   27.0040   31.3040 H   0  0  0  0  0  0  0  0  0  0  0  0
   39.0540   28.1710   29.1790 H   0  0  0  0  0  0  0  0  0  0  0  0
   35.7670   30.6610   30.1870 H   0  0  0  0  0  0  0  0  0  0  0  0
  1  2  1  0  0  0  0
  1  5  1  0  0  0  0
  2  3  1  0  0  0  0
  3 13  1  0  0  0  0
  3  4  1  0  0  0  0
  3  8  1  1  0  0  0
  4 10  1  0  0  0  0
  5 11  1  0  0  0  0
  5  4  1  0  0  0  0
  6  2  1  0  0  0  0
  7  2  1  0  0  0  0
  9  4  1  0  0  0  0
 12  5  1  0  0  0  0
 13 24  1  0  0  0  0
 14 13  2  0  0  0  0
 15 14  1  0  0  0  0
 15 16  2  0  0  0  0
 16 17  1  0  0  0  0
 17 24  2  0  0  0  0
 17 18  1  0  0  0  0
 18 19  2  0  0  0  0
 19 21  1  0  0  0  0
 19 20  1  0  0  0  0
 21 22  1  0  0  0  0
 23 21  2  0  0  0  0
 24 23  1  0  0  0  0
 25  1  1  0  0  0  0
 26 31  1  0  0  0  0
 26 25  2  0  0  0  0
 27 26  1  0  0  0  0
 28 27  2  0  0  0  0
 28 29  1  0  0  0  0
 29 30  2  0  0  0  0
 30 25  1  0  0  0  0
 32 27  1  0  0  0  0
 33 29  1  0  0  0  0
M  END
>  <minimizedAffinity>
-5.39995241

$$$$

 OpenBabel03272503273D

 33 36  0  0  1  0  0  0  0  0999 V2000
   36.5790   27.3130   32.7540 N   0  0  0  0  0  0  0  0  0  0  0  0
   36.0530   28.6130   32.4250 C   0  0  0  0  0  0  0  0  0  0  0  0
   36.0670   29.3550   33.7520 C   0  0  2  0  0  0  0  0  0  0  0  0
   36.6320   28.3450   34.7630 C   0  0  0  0  0  0  0  0  0  0  0  0
   37.5000   27.5160   33.8460 C   0  0  0  0  0  0  0  0  0  0  0  0
   35.0000   28.5800   32.0780 H   0  0  0  0  0  0  0  0  0  0  0  0
   36.6320   29.1310   31.6350 H   0  0  0  0  0  0  0  0  0  0  0  0
   36.7420   30.2100   33.6380 H   0  0  0  0  0  0  0  0  0  0  0  0
   35.7590   27.7360   35.0630 H   0  0  0  0  0  0  0  0  0  0  0  0
   37.1610   28.8230   35.5860 H   0  0  0  0  0  0  0  0  0  0  0  0
   38.3810   28.1280   33.5310 H   0  0  0  0  0  0  0  0  0  0  0  0
   37.8240   26.5550   34.3020 H   0  0  0  0  0  0  0  0  0  0  0  0
   34.6940   29.7590   34.1540 C   0  0  0  0  0  0  0  0  0  0  0  0
   33.6690   29.1630   33.4770 N   0  0  0  0  0  0  0  0  0  0  0  0
   32.3770   29.4150   33.7220 C   0  0  0  0  0  3  0  0  0  0  0  0
   32.0360   30.3080   34.6910 N   0  0  0  0  0  0  0  0  0  0  0  0
   33.0030   30.9280   35.3920 C   0  0  0  0  0  0  0  0  0  0  0  0
   32.7390   31.8500   36.3920 C   0  0  0  0  0  3  0  0  0  0  0  0
   33.7530   32.4830   37.1070 C   0  0  0  0  0  0  0  0  0  0  0  0
   33.5450   33.2030   37.8900 H   0  0  0  0  0  0  0  0  0  0  0  0
   35.0770   32.1700   36.7960 C   0  0  0  0  0  0  0  0  0  0  0  0
   35.8530   32.6840   37.3740 H   0  0  0  0  0  0  0  0  0  0  0  0
   35.3590   31.2550   35.8030 C   0  0  0  0  0  3  0  0  0  0  0  0
   34.3250   30.6510   35.1200 C   0  0  0  0  0  0  0  0  0  0  0  0
   36.2500   26.0760   32.1200 C   0  0  0  0  0  0  0  0  0  0  0  0
   37.0310   24.9650   32.4280 C   0  0  0  0  0  0  0  0  0  0  0  0
   36.7120   23.7580   31.8100 C   0  0  0  0  0  0  0  0  0  0  0  0
   35.6480   23.7350   30.9370 N   0  0  0  0  0  0  0  0  0  0  0  0
   34.9210   24.8280   30.6680 C   0  0  0  0  0  0  0  0  0  0  0  0
   35.2210   26.0220   31.2660 N   0  0  0  0  0  0  0  0  0  0  0  0
   37.8550   24.9500   33.0950 H   0  0  0  0  0  0  0  0  0  0  0  0
   37.2670   22.8570   31.9970 H   0  0  0  0  0  0  0  0  0  0  0  0
   34.0840   24.8130   29.9820 H   0  0  0  0  0  0  0  0  0  0  0  0
  1  5  1  0  0  0  0
  2  1  1  0  0  0  0
  2  3  1  0  0  0  0
  3  8  1  6  0  0  0
  3 13  1  0  0  0  0
  3  4  1  0  0  0  0
  4  9  1  0  0  0  0
  4 10  1  0  0  0  0
  5 12  1  0  0  0  0
  5  4  1  0  0  0  0
  6  2  1  0  0  0  0
  7  2  1  0  0  0  0
 11  5  1  0  0  0  0
 13 24  1  0  0  0  0
 14 15  1  0  0  0  0
 14 13  2  0  0  0  0
 15 16  2  0  0  0  0
 16 17  1  0  0  0  0
 17 18  1  0  0  0  0
 18 19  2  0  0  0  0
 19 20  1  0  0  0  0
 21 19  1  0  0  0  0
 21 22  1  0  0  0  0
 23 21  2  0  0  0  0
 24 17  2  0  0  0  0
 24 23  1  0  0  0  0
 25 26  1  0  0  0  0
 25  1  1  0  0  0  0
 26 31  1  0  0  0  0
 27 32  1  0  0  0  0
 27 26  2  0  0  0  0
 28 27  1  0  0  0  0
 29 28  2  0  0  0  0
 29 30  1  0  0  0  0
 30 25  2  0  0  0  0
 33 29  1  0  0  0  0
M  END
>  <minimizedAffinity>
-5.37251186

$$$$

 OpenBabel03272503273D

 33 36  0  0  1  0  0  0  0  0999 V2000
   37.8880   26.2920   32.8690 N   0  0  0  0  0  0  0  0  0  0  0  0
   39.1020   25.9550   33.5670 C   0  0  0  0  0  0  0  0  0  0  0  0
   39.0400   24.4420   33.6910 C   0  0  2  0  0  0  0  0  0  0  0  0
   37.7190   24.0440   33.0120 C   0  0  0  0  0  0  0  0  0  0  0  0
   37.5910   25.1690   32.0130 C   0  0  0  0  0  0  0  0  0  0  0  0
   39.1390   26.3680   34.5960 H   0  0  0  0  0  0  0  0  0  0  0  0
   40.0150   26.3080   33.0490 H   0  0  0  0  0  0  0  0  0  0  0  0
   39.8970   24.0360   33.1430 H   0  0  0  0  0  0  0  0  0  0  0  0
   36.9530   24.1830   33.7960 H   0  0  0  0  0  0  0  0  0  0  0  0
   37.7530   23.0460   32.5770 H   0  0  0  0  0  0  0  0  0  0  0  0
   38.3690   25.0400   31.2210 H   0  0  0  0  0  0  0  0  0  0  0  0
   36.5750   25.2430   31.5660 H   0  0  0  0  0  0  0  0  0  0  0  0
   39.0220   24.0210   35.1180 C   0  0  0  0  0  0  0  0  0  0  0  0
   37.9870   24.4960   35.8710 N   0  0  0  0  0  0  0  0  0  0  0  0
   37.8250   24.2070   37.1680 C   0  0  0  0  0  3  0  0  0  0  0  0
   38.7230   23.4010   37.7970 N   0  0  0  0  0  0  0  0  0  0  0  0
   39.7660   22.9030   37.1060 C   0  0  0  0  0  0  0  0  0  0  0  0
   40.7230   22.0770   37.6720 C   0  0  0  0  0  3  0  0  0  0  0  0
   41.7950   21.5720   36.9420 C   0  0  0  0  0  0  0  0  0  0  0  0
   42.5440   20.9250   37.3850 H   0  0  0  0  0  0  0  0  0  0  0  0
   41.8990   21.9160   35.5930 C   0  0  0  0  0  0  0  0  0  0  0  0
   42.7530   21.5040   35.0440 H   0  0  0  0  0  0  0  0  0  0  0  0
   40.9550   22.7370   35.0120 C   0  0  0  0  0  3  0  0  0  0  0  0
   39.9090   23.2160   35.7720 C   0  0  0  0  0  0  0  0  0  0  0  0
   37.1350   27.4980   33.0020 C   0  0  0  0  0  0  0  0  0  0  0  0
   36.6690   27.8320   34.2710 C   0  0  0  0  0  0  0  0  0  0  0  0
   35.9340   29.0080   34.4020 C   0  0  0  0  0  0  0  0  0  0  0  0
   35.7140   29.7680   33.2760 N   0  0  0  0  0  0  0  0  0  0  0  0
   36.1820   29.4110   32.0710 C   0  0  0  0  0  0  0  0  0  0  0  0
   36.9050   28.2580   31.9240 N   0  0  0  0  0  0  0  0  0  0  0  0
   36.8210   27.2700   35.1570 H   0  0  0  0  0  0  0  0  0  0  0  0
   35.5410   29.3330   35.3480 H   0  0  0  0  0  0  0  0  0  0  0  0
   36.0110   30.0060   31.1840 H   0  0  0  0  0  0  0  0  0  0  0  0
  1 25  1  0  0  0  0
  1  2  1  0  0  0  0
  2  3  1  0  0  0  0
  2  6  1  0  0  0  0
  3  8  1  6  0  0  0
  3 13  1  0  0  0  0
  4  3  1  0  0  0  0
  4  9  1  0  0  0  0
  5  1  1  0  0  0  0
  5  4  1  0  0  0  0
  7  2  1  0  0  0  0
 10  4  1  0  0  0  0
 11  5  1  0  0  0  0
 12  5  1  0  0  0  0
 13 24  2  0  0  0  0
 13 14  1  0  0  0  0
 14 15  2  0  0  0  0
 15 16  1  0  0  0  0
 17 18  1  0  0  0  0
 17 16  2  0  0  0  0
 19 20  1  0  0  0  0
 19 18  2  0  0  0  0
 21 19  1  0  0  0  0
 22 21  1  0  0  0  0
 23 21  2  0  0  0  0
 23 24  1  0  0  0  0
 24 17  1  0  0  0  0
 25 26  1  0  0  0  0
 26 27  2  0  0  0  0
 26 31  1  0  0  0  0
 27 32  1  0  0  0  0
 28 27  1  0  0  0  0
 29 28  2  0  0  0  0
 30 29  1  0  0  0  0
 30 25  2  0  0  0  0
 33 29  1  0  0  0  0
M  END
>  <minimizedAffinity>
-5.25297546

$$$$

 OpenBabel03272503273D

 33 36  0  0  1  0  0  0  0  0999 V2000
   37.2320   27.2030   33.5640 N   0  0  0  0  0  0  0  0  0  0  0  0
   37.3900   25.8220   33.9400 C   0  0  0  0  0  0  0  0  0  0  0  0
   38.0220   25.8920   35.3200 C   0  0  2  0  0  0  0  0  0  0  0  0
   38.1710   27.3950   35.6100 C   0  0  0  0  0  0  0  0  0  0  0  0
   37.0220   27.9330   34.7920 C   0  0  0  0  0  0  0  0  0  0  0  0
   38.0950   25.2720   33.2830 H   0  0  0  0  0  0  0  0  0  0  0  0
   36.4380   25.2560   33.9300 H   0  0  0  0  0  0  0  0  0  0  0  0
   37.3210   25.4280   36.0220 H   0  0  0  0  0  0  0  0  0  0  0  0
   39.1170   27.6790   35.1140 H   0  0  0  0  0  0  0  0  0  0  0  0
   38.1240   27.6250   36.6730 H   0  0  0  0  0  0  0  0  0  0  0  0
   36.0610   27.6420   35.2820 H   0  0  0  0  0  0  0  0  0  0  0  0
   37.0730   29.0330   34.6370 H   0  0  0  0  0  0  0  0  0  0  0  0
   39.3590   25.2400   35.3310 C   0  0  0  0  0  0  0  0  0  0  0  0
   39.4300   24.0250   35.9480 N   0  0  0  0  0  0  0  0  0  0  0  0
   40.5570   23.3080   36.0390 C   0  0  0  0  0  3  0  0  0  0  0  0
   41.7090   23.7910   35.4980 N   0  0  0  0  0  0  0  0  0  0  0  0
   41.7020   24.9840   34.8770 C   0  0  0  0  0  0  0  0  0  0  0  0
   42.8300   25.5460   34.3020 C   0  0  0  0  0  3  0  0  0  0  0  0
   42.8040   26.7830   33.6650 C   0  0  0  0  0  0  0  0  0  0  0  0
   43.6880   27.2210   33.2150 H   0  0  0  0  0  0  0  0  0  0  0  0
   41.5920   27.4730   33.6090 C   0  0  0  0  0  0  0  0  0  0  0  0
   41.6020   28.4440   33.1010 H   0  0  0  0  0  0  0  0  0  0  0  0
   40.4580   26.9310   34.1750 C   0  0  0  0  0  3  0  0  0  0  0  0
   40.5280   25.7020   34.7970 C   0  0  0  0  0  0  0  0  0  0  0  0
   37.2750   27.7370   32.2400 C   0  0  0  0  0  0  0  0  0  0  0  0
   38.1930   27.1830   31.3510 C   0  0  0  0  0  0  0  0  0  0  0  0
   38.2370   27.7030   30.0580 C   0  0  0  0  0  0  0  0  0  0  0  0
   37.3740   28.7260   29.7390 N   0  0  0  0  0  0  0  0  0  0  0  0
   36.5050   29.2310   30.6260 C   0  0  0  0  0  0  0  0  0  0  0  0
   36.4490   28.7330   31.8990 N   0  0  0  0  0  0  0  0  0  0  0  0
   38.8690   26.3950   31.5650 H   0  0  0  0  0  0  0  0  0  0  0  0
   38.9170   27.3280   29.3160 H   0  0  0  0  0  0  0  0  0  0  0  0
   35.8260   30.0360   30.3770 H   0  0  0  0  0  0  0  0  0  0  0  0
  1  2  1  0  0  0  0
  1  5  1  0  0  0  0
  2  3  1  0  0  0  0
  3 13  1  0  0  0  0
  3  4  1  0  0  0  0
  3  8  1  1  0  0  0
  4 10  1  0  0  0  0
  5 11  1  0  0  0  0
  5  4  1  0  0  0  0
  6  2  1  0  0  0  0
  7  2  1  0  0  0  0
  9  4  1  0  0  0  0
 12  5  1  0  0  0  0
 13 14  1  0  0  0  0
 14 15  2  0  0  0  0
 16 15  1  0  0  0  0
 17 16  2  0  0  0  0
 18 17  1  0  0  0  0
 19 18  2  0  0  0  0
 20 19  1  0  0  0  0
 21 19  1  0  0  0  0
 21 23  2  0  0  0  0
 22 21  1  0  0  0  0
 23 24  1  0  0  0  0
 24 17  1  0  0  0  0
 24 13  2  0  0  0  0
 25  1  1  0  0  0  0
 26 31  1  0  0  0  0
 26 25  2  0  0  0  0
 27 26  1  0  0  0  0
 28 27  2  0  0  0  0
 28 29  1  0  0  0  0
 29 30  2  0  0  0  0
 30 25  1  0  0  0  0
 32 27  1  0  0  0  0
 33 29  1  0  0  0  0
M  END
>  <minimizedAffinity>
-5.22789288

$$$$

 OpenBabel03272503273D

 33 36  0  0  1  0  0  0  0  0999 V2000
   39.5240   25.0040   34.1590 N   0  0  0  0  0  0  0  0  0  0  0  0
   39.3050   25.0760   32.7370 C   0  0  0  0  0  0  0  0  0  0  0  0
   39.7760   26.4730   32.3690 C   0  0  2  0  0  0  0  0  0  0  0  0
   40.2420   27.0950   33.6950 C   0  0  0  0  0  0  0  0  0  0  0  0
   40.6620   25.8470   34.4350 C   0  0  0  0  0  0  0  0  0  0  0  0
   38.2330   25.0060   32.4590 H   0  0  0  0  0  0  0  0  0  0  0  0
   39.8330   24.2810   32.1740 H   0  0  0  0  0  0  0  0  0  0  0  0
   40.6160   26.3600   31.6760 H   0  0  0  0  0  0  0  0  0  0  0  0
   39.3170   27.4820   34.1600 H   0  0  0  0  0  0  0  0  0  0  0  0
   41.0300   27.8340   33.5600 H   0  0  0  0  0  0  0  0  0  0  0  0
   41.5930   25.4440   33.9650 H   0  0  0  0  0  0  0  0  0  0  0  0
   40.8040   26.0120   35.5250 H   0  0  0  0  0  0  0  0  0  0  0  0
   38.6650   27.2790   31.7960 C   0  0  0  0  0  0  0  0  0  0  0  0
   38.7120   27.4940   30.4480 N   0  0  0  0  0  0  0  0  0  0  0  0
   37.7870   28.1940   29.7800 C   0  0  0  0  0  3  0  0  0  0  0  0
   36.7340   28.7340   30.4520 N   0  0  0  0  0  0  0  0  0  0  0  0
   36.6340   28.5570   31.7820 C   0  0  0  0  0  0  0  0  0  0  0  0
   35.5950   29.0730   32.5390 C   0  0  0  0  0  3  0  0  0  0  0  0
   35.5090   28.8810   33.9150 C   0  0  0  0  0  0  0  0  0  0  0  0
   34.6950   29.2850   34.5060 H   0  0  0  0  0  0  0  0  0  0  0  0
   36.5100   28.1400   34.5440 C   0  0  0  0  0  0  0  0  0  0  0  0
   36.4160   28.0040   35.6280 H   0  0  0  0  0  0  0  0  0  0  0  0
   37.5530   27.6170   33.8070 C   0  0  0  0  0  3  0  0  0  0  0  0
   37.6000   27.8310   32.4460 C   0  0  0  0  0  0  0  0  0  0  0  0
   38.7610   24.2470   35.1010 C   0  0  0  0  0  0  0  0  0  0  0  0
   38.3580   24.8880   36.2690 C   0  0  0  0  0  0  0  0  0  0  0  0
   37.6150   24.1510   37.1890 C   0  0  0  0  0  0  0  0  0  0  0  0
   37.3240   22.8400   36.8890 N   0  0  0  0  0  0  0  0  0  0  0  0
   37.7310   22.2600   35.7510 C   0  0  0  0  0  0  0  0  0  0  0  0
   38.4630   22.9690   34.8380 N   0  0  0  0  0  0  0  0  0  0  0  0
   38.5650   25.8950   36.5290 H   0  0  0  0  0  0  0  0  0  0  0  0
   37.2680   24.5760   38.1130 H   0  0  0  0  0  0  0  0  0  0  0  0
   37.5050   21.2290   35.5130 H   0  0  0  0  0  0  0  0  0  0  0  0
  1  5  1  0  0  0  0
  1 25  1  0  0  0  0
  2  1  1  0  0  0  0
  3  8  1  6  0  0  0
  3  2  1  0  0  0  0
  3  4  1  0  0  0  0
  4  9  1  0  0  0  0
  4  5  1  0  0  0  0
  5 12  1  0  0  0  0
  6  2  1  0  0  0  0
  7  2  1  0  0  0  0
 10  4  1  0  0  0  0
 11  5  1  0  0  0  0
 13  3  1  0  0  0  0
 13 24  1  0  0  0  0
 14 13  2  0  0  0  0
 15 14  1  0  0  0  0
 15 16  2  0  0  0  0
 16 17  1  0  0  0  0
 17 24  2  0  0  0  0
 17 18  1  0  0  0  0
 18 19  2  0  0  0  0
 19 20  1  0  0  0  0
 19 21  1  0  0  0  0
 21 22  1  0  0  0  0
 23 21  2  0  0  0  0
 24 23  1  0  0  0  0
 25 26  1  0  0  0  0
 26 31  1  0  0  0  0
 26 27  2  0  0  0  0
 27 32  1  0  0  0  0
 28 27  1  0  0  0  0
 29 28  2  0  0  0  0
 30 25  2  0  0  0  0
 30 29  1  0  0  0  0
 33 29  1  0  0  0  0
M  END
>  <minimizedAffinity>
-5.22037506

$$$$

 OpenBabel03272503273D

 33 36  0  0  1  0  0  0  0  0999 V2000
   37.0070   22.8210   30.9620 N   0  0  0  0  0  0  0  0  0  0  0  0
   36.3530   24.0970   31.0960 C   0  0  0  0  0  0  0  0  0  0  0  0
   37.5000   25.0680   31.3280 C   0  0  2  0  0  0  0  0  0  0  0  0
   38.7660   24.1970   31.3020 C   0  0  0  0  0  0  0  0  0  0  0  0
   38.3020   23.0900   30.3850 C   0  0  0  0  0  0  0  0  0  0  0  0
   35.6900   24.1540   31.9840 H   0  0  0  0  0  0  0  0  0  0  0  0
   35.7330   24.3640   30.2180 H   0  0  0  0  0  0  0  0  0  0  0  0
   37.4970   25.7770   30.4930 H   0  0  0  0  0  0  0  0  0  0  0  0
   38.8440   23.7920   32.3270 H   0  0  0  0  0  0  0  0  0  0  0  0
   39.6440   24.7410   30.9560 H   0  0  0  0  0  0  0  0  0  0  0  0
   38.2120   23.4950   29.3470 H   0  0  0  0  0  0  0  0  0  0  0  0
   38.9630   22.1970   30.4090 H   0  0  0  0  0  0  0  0  0  0  0  0
   37.3750   25.7390   32.6500 C   0  0  0  0  0  0  0  0  0  0  0  0
   37.8670   25.0520   33.7210 N   0  0  0  0  0  0  0  0  0  0  0  0
   37.8350   25.5190   34.9760 C   0  0  0  0  0  3  0  0  0  0  0  0
   37.2890   26.7390   35.2270 N   0  0  0  0  0  0  0  0  0  0  0  0
   36.7860   27.4640   34.2110 C   0  0  0  0  0  0  0  0  0  0  0  0
   36.2120   28.7130   34.3820 C   0  0  0  0  0  3  0  0  0  0  0  0
   35.6970   29.4480   33.3190 C   0  0  0  0  0  0  0  0  0  0  0  0
   35.2480   30.4260   33.4540 H   0  0  0  0  0  0  0  0  0  0  0  0
   35.7640   28.8970   32.0380 C   0  0  0  0  0  0  0  0  0  0  0  0
   35.3500   29.4980   31.2200 H   0  0  0  0  0  0  0  0  0  0  0  0
   36.3320   27.6540   31.8470 C   0  0  0  0  0  3  0  0  0  0  0  0
   36.8310   26.9600   32.9280 C   0  0  0  0  0  0  0  0  0  0  0  0
   36.4730   21.5480   31.3280 C   0  0  0  0  0  0  0  0  0  0  0  0
   37.3160   20.4430   31.2350 C   0  0  0  0  0  0  0  0  0  0  0  0
   36.7960   19.2000   31.5910 C   0  0  0  0  0  0  0  0  0  0  0  0
   35.4880   19.1380   32.0130 N   0  0  0  0  0  0  0  0  0  0  0  0
   34.7090   20.2270   32.0890 C   0  0  0  0  0  0  0  0  0  0  0  0
   35.2040   21.4560   31.7420 N   0  0  0  0  0  0  0  0  0  0  0  0
   38.3260   20.4570   30.9140 H   0  0  0  0  0  0  0  0  0  0  0  0
   37.3840   18.3020   31.5460 H   0  0  0  0  0  0  0  0  0  0  0  0
   33.6810   20.1820   32.4200 H   0  0  0  0  0  0  0  0  0  0  0  0
  1  2  1  0  0  0  0
  1 25  1  0  0  0  0
  2  3  1  0  0  0  0
  2  6  1  0  0  0  0
  3  8  1  6  0  0  0
  3 13  1  0  0  0  0
  4  3  1  0  0  0  0
  4  9  1  0  0  0  0
  5 12  1  0  0  0  0
  5  1  1  0  0  0  0
  5  4  1  0  0  0  0
  7  2  1  0  0  0  0
 10  4  1  0  0  0  0
 11  5  1  0  0  0  0
 13 24  2  0  0  0  0
 13 14  1  0  0  0  0
 14 15  2  0  0  0  0
 15 16  1  0  0  0  0
 17 18  1  0  0  0  0
 17 16  2  0  0  0  0
 19 20  1  0  0  0  0
 19 18  2  0  0  0  0
 21 19  1  0  0  0  0
 22 21  1  0  0  0  0
 23 21  2  0  0  0  0
 23 24  1  0  0  0  0
 24 17  1  0  0  0  0
 25 30  1  0  0  0  0
 26 25  2  0  0  0  0
 26 27  1  0  0  0  0
 27 28  2  0  0  0  0
 28 29  1  0  0  0  0
 29 33  1  0  0  0  0
 30 29  2  0  0  0  0
 31 26  1  0  0  0  0
 32 27  1  0  0  0  0
M  END
>  <minimizedAffinity>
-5.09512711

$$$$
