
 OpenBabel03262523133D

 32 35  0  0  0  0  0  0  0  0999 V2000
   34.8210   29.2170   48.4920 C   0  0  0  0  0  0  0  0  0  0  0  0
   34.4590   27.9940   48.9570 C   0  0  0  0  0  0  0  0  0  0  0  0
   33.3170   27.4900   48.3850 C   0  0  0  0  0  0  0  0  0  0  0  0
   32.5880   28.1470   47.4270 C   0  0  0  0  0  0  0  0  0  0  0  0
   33.0250   29.4060   46.9980 C   0  0  0  0  0  0  0  0  0  0  0  0
   34.1310   29.8800   47.5590 N   0  0  0  0  0  0  0  0  0  0  0  0
   35.0580   27.5070   49.7130 H   0  0  0  0  0  0  0  0  0  0  0  0
   32.9710   26.4970   48.7220 H   0  0  0  0  0  0  0  0  0  0  0  0
   31.7170   27.6690   47.0490 H   0  0  0  0  0  0  0  0  0  0  0  0
   32.1660   29.9950   45.9830 C   0  0  0  0  0  0  0  0  0  0  0  0
   32.1790   31.3100   45.7110 N   0  0  0  0  0  0  0  0  0  0  0  0
   31.4110   31.9010   44.7900 C   0  0  0  0  0  3  0  0  0  0  0  0
   30.5400   31.2270   44.0340 N   0  0  0  0  0  0  0  0  0  0  0  0
   30.4560   29.8950   44.2360 C   0  0  0  0  0  0  0  0  0  0  0  0
   29.5700   29.1680   43.4770 C   0  0  0  0  0  3  0  0  0  0  0  0
   29.4420   27.8000   43.6400 C   0  0  0  0  0  0  0  0  0  0  0  0
   28.7170   27.3340   42.9920 H   0  0  0  0  0  0  0  0  0  0  0  0
   30.2560   27.2100   44.6100 C   0  0  0  0  0  0  0  0  0  0  0  0
   30.1170   26.1350   44.6990 H   0  0  0  0  0  0  0  0  0  0  0  0
   31.1150   27.9760   45.3320 C   0  0  0  0  0  3  0  0  0  0  0  0
   31.2630   29.3250   45.1930 C   0  0  0  0  0  0  0  0  0  0  0  0
   37.5510   30.1640   50.7560 C   0  0  0  0  0  0  0  0  0  0  0  0
   38.2250   31.1750   50.0280 C   0  0  0  0  0  0  0  0  0  0  0  0
   37.7280   31.5100   48.7720 C   0  0  0  0  0  0  0  0  0  0  0  0
   36.6410   30.8560   48.3250 N   0  0  0  0  0  0  0  0  0  0  0  0
   36.0080   29.9070   49.0060 C   0  0  0  0  0  0  0  0  0  0  0  0
   36.4860   29.5700   50.2370 N   0  0  0  0  0  0  0  0  0  0  0  0
   39.0810   31.6340   50.4730 H   0  0  0  0  0  0  0  0  0  0  0  0
   38.2180   32.2700   48.2020 H   0  0  0  0  0  0  0  0  0  0  0  0
   37.9930   29.7650   52.0430 N   0  0  0  0  0  0  0  0  0  0  0  0
   37.8710   28.7840   52.3460 H   0  0  0  0  0  0  0  0  0  0  0  0
   38.4460   30.4390   52.7120 H   0  0  0  0  0  0  0  0  0  0  0  0
  1  2  1  0  0  0  0
  1 26  1  0  0  0  0
  2  7  1  0  0  0  0
  3  8  1  0  0  0  0
  3  2  2  0  0  0  0
  4  3  1  0  0  0  0
  5  4  2  0  0  0  0
  5  6  1  0  0  0  0
  6  1  2  0  0  0  0
  9  4  1  0  0  0  0
 10  5  1  0  0  0  0
 11 10  1  0  0  0  0
 12 11  2  0  0  0  0
 13 14  2  0  0  0  0
 13 12  1  0  0  0  0
 14 21  1  0  0  0  0
 15 16  2  0  0  0  0
 15 14  1  0  0  0  0
 16 18  1  0  0  0  0
 17 16  1  0  0  0  0
 18 19  1  0  0  0  0
 18 20  2  0  0  0  0
 21 20  1  0  0  0  0
 21 10  2  0  0  0  0
 22 30  1  0  0  0  0
 23 28  1  0  0  0  0
 23 22  2  0  0  0  0
 24 23  1  0  0  0  0
 25 24  2  0  0  0  0
 25 26  1  0  0  0  0
 26 27  2  0  0  0  0
 27 22  1  0  0  0  0
 29 24  1  0  0  0  0
 30 31  1  0  0  0  0
 30 32  1  0  0  0  0
M  END
>  <minimizedAffinity>
-5.60087824

>  <minimizedRMSD>
0.290152669

$$$$
