REMARK  Name = 
REMARK  4 active torsions:
REMARK  status: ('A' for Active; 'I' for Inactive)
REMARK    1  A    between atoms: C_3  and  C_17
REMARK    2  A    between atoms: C_7  and  C_10
REMARK    3  A    between atoms: C_14  and  O_15
REMARK    4  A    between atoms: C_20  and  C_31
REMARK                            x       y       z     vdW  Elec       q    Type
REMARK                         _______ _______ _______ _____ _____    ______ ____
ROOT
ATOM      1  F   UNL     1      34.325  30.457  47.605  0.00  0.00    +0.000 F 
ATOM      2  C   UNL     1      34.745  29.989  46.388  0.00  0.00    +0.000 A 
ATOM      3  C   UNL     1      33.881  29.363  45.492  0.00  0.00    +0.000 A 
ATOM      4  C   UNL     1      34.368  28.935  44.285  0.00  0.00    +0.000 A 
ATOM      5  C   UNL     1      35.716  29.123  43.955  0.00  0.00    +0.000 A 
ATOM      6  C   UNL     1      36.526  29.749  44.882  0.00  0.00    +0.000 A 
ATOM      7  C   UNL     1      36.089  30.184  46.076  0.00  0.00    +0.000 A 
ATOM      8  H   UNL     1      33.665  28.456  43.625  0.00  0.00    +0.000 HD
ATOM      9  H   UNL     1      36.067  28.772  42.989  0.00  0.00    +0.000 HD
ATOM     10  H   UNL     1      37.551  29.859  44.557  0.00  0.00    +0.000 HD
ENDROOT
BRANCH   7  13
ATOM     11 BR   UNL     1      37.978  32.427  44.965  0.00  0.00    +0.000 Br
ATOM     12  C   UNL     1      37.884  31.845  46.777  0.00  0.00    +0.000 A 
ATOM     13  C   UNL     1      36.995  30.823  47.008  0.00  0.00    +0.000 A 
ATOM     14  C   UNL     1      36.902  30.315  48.316  0.00  0.00    +0.000 A 
ATOM     15  C   UNL     1      37.663  30.819  49.313  0.00  0.00    +0.000 A 
ATOM     16  C   UNL     1      38.536  31.845  49.027  0.00  0.00    +0.000 A 
ATOM     17  C   UNL     1      38.661  32.382  47.733  0.00  0.00    +0.000 A 
ATOM     18  H   UNL     1      36.230  29.511  48.585  0.00  0.00    +0.000 HD
ATOM     19  H   UNL     1      37.644  30.479  50.337  0.00  0.00    +0.000 HD
ATOM     20  H   UNL     1      39.168  32.284  49.794  0.00  0.00    +0.000 HD
BRANCH  17  21
ATOM     21  O   UNL     1      39.494  33.393  47.367  0.00  0.00    +0.000 OA
ATOM     22  H   UNL     1      40.000  33.915  48.079  0.00  0.00    +0.000 HD
ENDBRANCH  17  21
ENDBRANCH   7  13
BRANCH   3  24
ATOM     23  C   UNL     1      32.258  28.201  46.838  0.00  0.00    +0.000 A 
ATOM     24  C   UNL     1      32.526  29.229  45.952  0.00  0.00    +0.000 A 
ATOM     25  C   UNL     1      31.479  30.055  45.604  0.00  0.00    +0.000 A 
ATOM     26  N   UNL     1      30.243  29.850  46.125  0.00  0.00    +0.000 NA
ATOM     27  C   UNL     1      30.014  28.867  46.968  0.00  0.00    +0.000 A 
ATOM     28  N   UNL     1      30.992  28.059  47.318  0.00  0.00    +0.000 NA
ATOM     29  H   UNL     1      33.072  27.520  47.136  0.00  0.00    +0.000 HD
ATOM     30  H   UNL     1      31.640  30.866  44.918  0.00  0.00    +0.000 HD
BRANCH  27  31
ATOM     31  C   UNL     1      28.774  28.459  47.654  0.00  0.00    +0.000 A 
ATOM     32  N   UNL     1      28.213  29.093  48.704  0.00  0.00    +0.000 NA
ATOM     33  C   UNL     1      27.103  28.742  49.331  0.00  0.00    +0.000 A 
ATOM     34  N   UNL     1      26.408  27.661  48.947  0.00  0.00    +0.000 NA
ATOM     35  C   UNL     1      26.868  26.938  47.902  0.00  0.00    +0.000 A 
ATOM     36  C   UNL     1      26.138  25.845  47.536  0.00  0.00    +0.000 A 
ATOM     37  C   UNL     1      26.556  25.067  46.478  0.00  0.00    +0.000 A 
ATOM     38  H   UNL     1      25.942  24.216  46.231  0.00  0.00    +0.000 HD
ATOM     39  C   UNL     1      27.718  25.445  45.830  0.00  0.00    +0.000 A 
ATOM     40  H   UNL     1      28.004  24.803  45.008  0.00  0.00    +0.000 HD
ATOM     41  C   UNL     1      28.411  26.559  46.247  0.00  0.00    +0.000 A 
ATOM     42  C   UNL     1      28.028  27.360  47.296  0.00  0.00    +0.000 A 
ENDBRANCH  27  31
ENDBRANCH   3  24
TORSDOF 4
