
 OpenBabel03272507133D

 43 48  0  0  0  0  0  0  0  0999 V2000
   37.2990   29.6910   50.2360 C   0  0  0  0  0  0  0  0  0  0  0  0
   37.9280   29.1810   51.2030 O   0  0  0  0  0  0  0  0  0  0  0  0
   37.8650   30.7130   49.3790 C   0  0  0  0  0  0  0  0  0  0  0  0
   38.2460   31.9030   49.9460 C   0  0  0  0  0  0  0  0  0  0  0  0
   38.7990   32.8810   49.1400 C   0  0  0  0  0  0  0  0  0  0  0  0
   38.9320   32.6070   47.8290 N   0  0  0  0  0  0  0  0  0  0  0  0
   38.5680   31.4600   47.2620 C   0  0  0  0  0  0  0  0  0  0  0  0
   38.0370   30.5430   48.0820 N   0  0  0  0  0  0  0  0  0  0  0  0
   38.1480   32.1420   50.9910 H   0  0  0  0  0  0  0  0  0  0  0  0
   39.1330   33.8370   49.4480 H   0  0  0  0  0  0  0  0  0  0  0  0
   38.6220   30.9630   45.8720 C   0  0  0  0  0  0  0  0  0  0  0  0
   39.7270   30.9560   45.1200 N   0  0  0  0  0  0  0  0  0  0  0  0
   39.7310   30.4960   43.8700 C   0  0  0  0  0  3  0  0  0  0  0  0
   38.6530   30.0050   43.2520 N   0  0  0  0  0  0  0  0  0  0  0  0
   37.4920   29.9740   43.9370 C   0  0  0  0  0  0  0  0  0  0  0  0
   36.3810   29.4680   43.3050 C   0  0  0  0  0  3  0  0  0  0  0  0
   35.1790   29.4200   43.9730 C   0  0  0  0  0  0  0  0  0  0  0  0
   34.3510   29.0190   43.4340 H   0  0  0  0  0  0  0  0  0  0  0  0
   35.1460   29.8910   45.2730 C   0  0  0  0  0  0  0  0  0  0  0  0
   34.1820   29.8310   45.7520 H   0  0  0  0  0  0  0  0  0  0  0  0
   36.2940   30.3840   45.8480 C   0  0  0  0  0  3  0  0  0  0  0  0
   37.5160   30.4550   45.2270 C   0  0  0  0  0  0  0  0  0  0  0  0
   35.9460   29.2450   49.9520 C   0  0  0  0  0  0  0  0  0  0  0  0
   34.8940   29.5980   50.7340 C   0  0  0  0  0  0  0  0  0  0  0  0
   33.7570   29.0000   50.1750 C   0  0  0  0  0  0  0  0  0  0  0  0
   34.2090   28.3060   49.0580 C   0  0  0  0  0  0  0  0  0  0  0  0
   35.5080   28.4890   48.9790 O   0  0  0  0  0  0  0  0  0  0  0  0
   34.8920   30.2240   51.6370 H   0  0  0  0  0  0  0  0  0  0  0  0
   32.7660   29.1110   50.5950 H   0  0  0  0  0  0  0  0  0  0  0  0
   33.7870   26.7810   47.1140 C   0  0  0  0  0  0  0  0  0  0  0  0
   33.3370   27.5310   48.1720 C   0  0  0  0  0  0  0  0  0  0  0  0
   31.9860   27.6080   48.4740 C   0  0  0  0  0  0  0  0  0  0  0  0
   31.0830   26.9090   47.6850 C   0  0  0  0  0  0  0  0  0  0  0  0
   29.7580   26.7970   47.7310 N   0  0  0  0  0  0  0  0  0  0  0  0
   29.3950   26.0000   46.7300 N   0  0  0  0  0  0  0  0  0  0  0  0
   30.4810   25.6010   46.0440 C   0  0  0  0  0  0  0  0  0  0  0  0
   31.5940   26.1650   46.6250 C   0  0  0  0  0  0  0  0  0  0  0  0
   32.9530   26.0820   46.3160 C   0  0  0  0  0  0  0  0  0  0  0  0
   34.8520   26.7640   46.9350 H   0  0  0  0  0  0  0  0  0  0  0  0
   31.5420   28.1820   49.2980 H   0  0  0  0  0  0  0  0  0  0  0  0
   29.1120   27.2510   48.4260 H   0  0  0  0  0  0  0  0  0  0  0  0
   30.4410   24.9510   45.1890 H   0  0  0  0  0  0  0  0  0  0  0  0
   33.2650   25.4780   45.4710 H   0  0  0  0  0  0  0  0  0  0  0  0
  1  2  2  0  0  0  0
  3  4  1  0  0  0  0
  3  1  1  0  0  0  0
  4  9  1  0  0  0  0
  5 10  1  0  0  0  0
  5  4  2  0  0  0  0
  6  5  1  0  0  0  0
  7  6  2  0  0  0  0
  7  8  1  0  0  0  0
  8  3  2  0  0  0  0
 11  7  1  0  0  0  0
 12 11  2  0  0  0  0
 13 12  1  0  0  0  0
 14 13  2  0  0  0  0
 14 15  1  0  0  0  0
 15 22  1  0  0  0  0
 16 15  2  0  0  0  0
 16 17  1  0  0  0  0
 17 19  2  0  0  0  0
 18 17  1  0  0  0  0
 19 20  1  0  0  0  0
 19 21  1  0  0  0  0
 22 21  2  0  0  0  0
 22 11  1  0  0  0  0
 23  1  1  0  0  0  0
 23 24  2  0  0  0  0
 24 28  1  0  0  0  0
 25 29  1  0  0  0  0
 25 24  1  0  0  0  0
 26 25  2  0  0  0  0
 27 26  1  0  0  0  0
 27 23  1  0  0  0  0
 30 31  1  0  0  0  0
 31 32  2  0  0  0  0
 31 26  1  0  0  0  0
 32 40  1  0  0  0  0
 33 34  1  0  0  0  0
 33 32  1  0  0  0  0
 34 41  1  0  0  0  0
 35 34  1  0  0  0  0
 36 37  1  0  0  0  0
 36 35  2  0  0  0  0
 37 33  2  0  0  0  0
 38 37  1  0  0  0  0
 38 30  2  0  0  0  0
 39 30  1  0  0  0  0
 42 36  1  0  0  0  0
 43 38  1  0  0  0  0
M  END
>  <minimizedAffinity>
-7.23659658

>  <minimizedRMSD>
0.786131501

$$$$
