
 OpenBabel03262523233D

 36 39  0  0  1  0  0  0  0  0999 V2000
   37.4000   31.1990   43.5800 C   0  0  0  0  0  0  0  0  0  0  0  0
   37.7790   30.1570   42.7230 C   0  0  0  0  0  0  0  0  0  0  0  0
   37.1030   28.9460   42.8210 C   0  0  0  0  0  0  0  0  0  0  0  0
   36.1120   28.8290   43.7390 N   0  0  0  0  0  0  0  0  0  0  0  0
   35.7720   29.8570   44.5520 C   0  0  0  0  0  0  0  0  0  0  0  0
   36.4030   31.0300   44.4800 N   0  0  0  0  0  0  0  0  0  0  0  0
   34.7040   29.6920   45.5180 N   0  0  0  0  0  0  0  0  0  0  0  0
   34.8950   30.1490   46.8840 C   0  0  0  0  0  0  0  0  0  0  0  0
   34.1560   29.3310   47.8930 C   0  0  0  0  0  0  0  0  0  0  0  0
   33.8600   27.9770   47.2740 C   0  0  0  0  0  0  0  0  0  0  0  0
   32.8470   28.2210   46.1920 C   0  0  0  0  0  0  0  0  0  0  0  0
   33.4550   29.0720   45.0990 C   0  0  1  0  0  0  0  0  0  0  0  0
   37.9330   32.1360   43.4930 H   0  0  0  0  0  0  0  0  0  0  0  0
   38.5760   30.2660   41.9920 H   0  0  0  0  0  0  0  0  0  0  0  0
   37.3450   28.0950   42.1880 H   0  0  0  0  0  0  0  0  0  0  0  0
   34.4890   31.1960   46.9150 H   0  0  0  0  0  0  0  0  0  0  0  0
   35.9820   30.2200   47.1140 H   0  0  0  0  0  0  0  0  0  0  0  0
   34.8180   29.1520   48.7630 H   0  0  0  0  0  0  0  0  0  0  0  0
   33.2370   29.8190   48.2750 H   0  0  0  0  0  0  0  0  0  0  0  0
   33.4350   27.3130   48.0530 H   0  0  0  0  0  0  0  0  0  0  0  0
   34.8110   27.6060   46.8580 H   0  0  0  0  0  0  0  0  0  0  0  0
   31.9520   28.6490   46.6410 H   0  0  0  0  0  0  0  0  0  0  0  0
   32.5790   27.1960   45.8010 H   0  0  0  0  0  0  0  0  0  0  0  0
   33.7020   28.4710   44.2010 H   0  0  0  0  0  0  0  0  0  0  0  0
   32.5640   30.2050   44.7300 C   0  0  0  0  0  0  0  0  0  0  0  0
   33.0680   31.2920   44.0740 N   0  0  0  0  0  0  0  0  0  0  0  0
   32.3110   32.3420   43.7090 C   0  0  0  0  0  3  0  0  0  0  0  0
   30.9920   32.4090   43.9620 N   0  0  0  0  0  0  0  0  0  0  0  0
   30.4400   31.3640   44.6070 C   0  0  0  0  0  0  0  0  0  0  0  0
   29.0910   31.3920   44.8870 C   0  0  0  0  0  3  0  0  0  0  0  0
   28.4720   30.3480   45.5480 C   0  0  0  0  0  0  0  0  0  0  0  0
   27.4060   30.3740   45.7680 H   0  0  0  0  0  0  0  0  0  0  0  0
   29.2760   29.2700   45.9170 C   0  0  0  0  0  0  0  0  0  0  0  0
   28.7920   28.4600   46.4300 H   0  0  0  0  0  0  0  0  0  0  0  0
   30.6270   29.2340   45.6390 C   0  0  0  0  0  3  0  0  0  0  0  0
   31.2100   30.2840   44.9830 C   0  0  0  0  0  0  0  0  0  0  0  0
  1  6  1  0  0  0  0
  2  3  1  0  0  0  0
  2  1  2  0  0  0  0
  3  4  2  0  0  0  0
  4  5  1  0  0  0  0
  5  7  1  0  0  0  0
  6  5  2  0  0  0  0
  7  8  1  0  0  0  0
  8 16  1  0  0  0  0
  8 17  1  0  0  0  0
  8  9  1  0  0  0  0
  9 19  1  0  0  0  0
  9 18  1  0  0  0  0
 10  9  1  0  0  0  0
 10 20  1  0  0  0  0
 11 22  1  0  0  0  0
 11 10  1  0  0  0  0
 12 24  1  6  0  0  0
 12  7  1  0  0  0  0
 12 11  1  0  0  0  0
 13  1  1  0  0  0  0
 14  2  1  0  0  0  0
 15  3  1  0  0  0  0
 21 10  1  0  0  0  0
 23 11  1  0  0  0  0
 25 36  1  0  0  0  0
 25 12  1  0  0  0  0
 26 25  2  0  0  0  0
 27 28  2  0  0  0  0
 27 26  1  0  0  0  0
 28 29  1  0  0  0  0
 29 30  2  0  0  0  0
 29 36  1  0  0  0  0
 30 31  1  0  0  0  0
 31 32  1  0  0  0  0
 31 33  2  0  0  0  0
 33 34  1  0  0  0  0
 35 33  1  0  0  0  0
 36 35  2  0  0  0  0
M  END
>  <minimizedAffinity>
-3.46198654

>  <minimizedRMSD>
4.30488968

$$$$
