REMARK  Name = 
REMARK  2 active torsions:
REMARK  status: ('A' for Active; 'I' for Inactive)
REMARK    1  A    between atoms: C_1  and  N_7
REMARK    2  A    between atoms: C_5  and  C_12
REMARK                            x       y       z     vdW  Elec       q    Type
REMARK                         _______ _______ _______ _____ _____    ______ ____
ROOT
ATOM      1  C   UNL     1      35.094  28.221  48.594  0.00  0.00    +0.000 A 
ATOM      2  N   UNL     1      34.235  27.617  49.438  0.00  0.00    +0.000 NA
ATOM      3  C   UNL     1      33.460  26.600  49.061  0.00  0.00    +0.000 A 
ATOM      4  N   UNL     1      33.453  26.079  47.824  0.00  0.00    +0.000 NA
ATOM      5  C   UNL     1      34.286  26.632  46.929  0.00  0.00    +0.000 A 
ATOM      6  C   UNL     1      34.285  26.104  45.656  0.00  0.00    +0.000 A 
ATOM      7  C   UNL     1      35.118  26.628  44.691  0.00  0.00    +0.000 A 
ATOM      8  H   UNL     1      35.067  26.168  43.719  0.00  0.00    +0.000 HD
ATOM      9  C   UNL     1      35.925  27.682  45.070  0.00  0.00    +0.000 A 
ATOM     10  H   UNL     1      36.565  28.058  44.264  0.00  0.00    +0.000 HD
ATOM     11  C   UNL     1      35.898  28.183  46.352  0.00  0.00    +0.000 A 
ATOM     12  C   UNL     1      35.078  27.679  47.331  0.00  0.00    +0.000 A 
ENDROOT
BRANCH   1  17
ATOM     13  C   UNL     1      37.377  29.999  50.741  0.00  0.00    +0.000 A 
ATOM     14  C   UNL     1      37.684  31.221  50.120  0.00  0.00    +0.000 A 
ATOM     15  C   UNL     1      37.069  31.434  48.900  0.00  0.00    +0.000 A 
ATOM     16  N   UNL     1      36.250  30.500  48.404  0.00  0.00    +0.000 NA
ATOM     17  C   UNL     1      35.957  29.342  48.989  0.00  0.00    +0.000 A 
ATOM     18  N   UNL     1      36.552  29.152  50.154  0.00  0.00    +0.000 NA
ATOM     19  H   UNL     1      38.342  31.903  50.582  0.00  0.00    +0.000 HD
ATOM     20  H   UNL     1      37.230  32.320  48.347  0.00  0.00    +0.000 HD
BRANCH  13  21
ATOM     21  N   UNL     1      37.946  29.635  52.025  0.00  0.00    +0.000 N 
ATOM     22  H   UNL     1      38.893  29.283  52.234  0.00  0.00    +0.000 HD
ATOM     23  H   UNL     1      37.348  29.727  52.877  0.00  0.00    +0.000 HD
ENDBRANCH  13  21
ENDBRANCH   1  17
TORSDOF 2
