REMARK  Name = 
REMARK  2 active torsions:
REMARK  status: ('A' for Active; 'I' for Inactive)
REMARK    1  A    between atoms: C_1  and  N_7
REMARK    2  A    between atoms: C_12  and  C_25
REMARK                            x       y       z     vdW  Elec       q    Type
REMARK                         _______ _______ _______ _____ _____    ______ ____
ROOT
ATOM      1  N   UNL     1      36.501  29.616  48.865  0.00  0.00    +0.000 N 
ATOM      2  C   UNL     1      36.934  29.347  50.231  0.00  0.00    +0.000 C 
ATOM      3  C   UNL     1      37.637  30.396  50.957  0.00  0.00    +0.000 C 
ATOM      4  C   UNL     1      38.341  31.438  50.177  0.00  0.00    +0.000 C 
ATOM      5  C   UNL     1      37.801  31.639  48.779  0.00  0.00    +0.000 C 
ATOM      6  C   UNL     1      37.572  30.230  48.179  0.00  0.00    +0.000 C 
ATOM      7  H   UNL     1      37.556  28.409  50.149  0.00  0.00    +0.000 HD
ATOM      8  H   UNL     1      36.027  29.020  50.784  0.00  0.00    +0.000 HD
ATOM      9  H   UNL     1      36.961  30.881  51.697  0.00  0.00    +0.000 HD
ATOM     10  H   UNL     1      38.415  29.902  51.608  0.00  0.00    +0.000 HD
ATOM     11  H   UNL     1      39.434  31.241  50.038  0.00  0.00    +0.000 HD
ATOM     12  H   UNL     1      38.282  32.438  50.669  0.00  0.00    +0.000 HD
ATOM     13  H   UNL     1      38.524  32.106  48.111  0.00  0.00    +0.000 HD
ATOM     14  H   UNL     1      36.824  32.128  48.749  0.00  0.00    +0.000 HD
ATOM     15  H   UNL     1      38.577  29.723  48.408  0.00  0.00    +0.000 HD
ENDROOT
BRANCH   6  16
ATOM     16  C   UNL     1      37.544  30.326  46.727  0.00  0.00    +0.000 A 
ATOM     17  N   UNL     1      37.209  29.285  45.901  0.00  0.00    +0.000 NA
ATOM     18  C   UNL     1      37.191  29.472  44.574  0.00  0.00    +0.000 A 
ATOM     19  N   UNL     1      37.484  30.636  43.937  0.00  0.00    +0.000 NA
ATOM     20  C   UNL     1      37.817  31.681  44.712  0.00  0.00    +0.000 A 
ATOM     21  C   UNL     1      38.114  32.869  44.088  0.00  0.00    +0.000 A 
ATOM     22  C   UNL     1      38.459  33.973  44.839  0.00  0.00    +0.000 A 
ATOM     23  H   UNL     1      38.690  34.902  44.340  0.00  0.00    +0.000 HD
ATOM     24  C   UNL     1      38.500  33.862  46.215  0.00  0.00    +0.000 A 
ATOM     25  H   UNL     1      38.771  34.730  46.805  0.00  0.00    +0.000 HD
ATOM     26  C   UNL     1      38.196  32.660  46.777  0.00  0.00    +0.000 A 
ATOM     27  C   UNL     1      37.841  31.510  46.081  0.00  0.00    +0.000 A 
ENDBRANCH   6  16
BRANCH   1  28
ATOM     28  C   UNL     1      35.203  29.280  48.396  0.00  0.00    +0.000 A 
ATOM     29  C   UNL     1      34.611  29.865  47.281  0.00  0.00    +0.000 A 
ATOM     30  C   UNL     1      33.345  29.477  46.889  0.00  0.00    +0.000 A 
ATOM     31  N   UNL     1      32.727  28.509  47.643  0.00  0.00    +0.000 NA
ATOM     32  C   UNL     1      33.332  27.962  48.721  0.00  0.00    +0.000 A 
ATOM     33  N   UNL     1      34.555  28.350  49.084  0.00  0.00    +0.000 NA
ATOM     34  H   UNL     1      35.107  30.623  46.712  0.00  0.00    +0.000 HD
ATOM     35  H   UNL     1      32.896  29.931  46.030  0.00  0.00    +0.000 HD
ATOM     36  H   UNL     1      32.764  27.209  49.249  0.00  0.00    +0.000 HD
ENDBRANCH   1  28
TORSDOF 2
