REMARK  Name = 
REMARK  4 active torsions:
REMARK  status: ('A' for Active; 'I' for Inactive)
REMARK    1  A    between atoms: C_1  and  C_19
REMARK    2  A    between atoms: C_5  and  C_9
REMARK    3  A    between atoms: C_15  and  N_21
REMARK    4  A    between atoms: C_17  and  C_31
REMARK                            x       y       z     vdW  Elec       q    Type
REMARK                         _______ _______ _______ _____ _____    ______ ____
ROOT
ATOM      1  C   UNL     1      37.370  30.296  50.682  0.00  0.00    +0.000 A 
ATOM      2  C   UNL     1      38.003  31.326  49.990  0.00  0.00    +0.000 A 
ATOM      3  C   UNL     1      37.529  31.663  48.732  0.00  0.00    +0.000 A 
ATOM      4  N   UNL     1      36.471  30.945  48.281  0.00  0.00    +0.000 NA
ATOM      5  C   UNL     1      35.873  29.970  48.935  0.00  0.00    +0.000 A 
ATOM      6  N   UNL     1      36.336  29.649  50.151  0.00  0.00    +0.000 NA
ATOM      7  H   UNL     1      38.830  31.823  50.447  0.00  0.00    +0.000 HD
ENDROOT
BRANCH   3   8
ATOM      8  C   UNL     1      38.238  32.741  48.075  0.00  0.00    +0.000 A 
ATOM      9  N   UNL     1      39.296  32.480  47.287  0.00  0.00    +0.000 NA
ATOM     10  C   UNL     1      40.012  33.407  46.639  0.00  0.00    +0.000 A 
ATOM     11  N   UNL     1      39.731  34.718  46.720  0.00  0.00    +0.000 NA
ATOM     12  C   UNL     1      38.682  35.074  47.491  0.00  0.00    +0.000 A 
ATOM     13  C   UNL     1      38.347  36.406  47.611  0.00  0.00    +0.000 A 
ATOM     14  C   UNL     1      37.283  36.820  48.388  0.00  0.00    +0.000 A 
ATOM     15  H   UNL     1      37.005  37.858  48.494  0.00  0.00    +0.000 HD
ATOM     16  C   UNL     1      36.562  35.819  49.047  0.00  0.00    +0.000 A 
ATOM     17  H   UNL     1      35.728  36.162  49.653  0.00  0.00    +0.000 HD
ATOM     18  C   UNL     1      36.934  34.503  48.896  0.00  0.00    +0.000 A 
ATOM     19  C   UNL     1      37.974  34.087  48.138  0.00  0.00    +0.000 A 
ENDBRANCH   3   8
BRANCH   5  20
ATOM     20  C   UNL     1      34.743  29.247  48.337  0.00  0.00    +0.000 A 
ATOM     21  C   UNL     1      34.492  27.944  48.741  0.00  0.00    +0.000 A 
ATOM     22  C   UNL     1      33.424  27.360  48.113  0.00  0.00    +0.000 A 
ATOM     23  C   UNL     1      32.662  28.005  47.162  0.00  0.00    +0.000 A 
ATOM     24  C   UNL     1      32.982  29.292  46.825  0.00  0.00    +0.000 A 
ATOM     25  N   UNL     1      34.027  29.904  47.421  0.00  0.00    +0.000 NA
ATOM     26  H   UNL     1      35.097  27.469  49.479  0.00  0.00    +0.000 HD
ATOM     27  H   UNL     1      33.181  26.331  48.394  0.00  0.00    +0.000 HD
ATOM     28  H   UNL     1      31.849  27.439  46.732  0.00  0.00    +0.000 HD
BRANCH  24  31
ATOM     29 CL   UNL     1      29.972  29.076  47.014  0.00  0.00    +0.000 Cl
ATOM     30  C   UNL     1      30.849  29.993  45.829  0.00  0.00    +0.000 A 
ATOM     31  C   UNL     1      32.218  30.023  45.835  0.00  0.00    +0.000 A 
ATOM     32  C   UNL     1      32.777  30.801  44.829  0.00  0.00    +0.000 A 
ATOM     33  C   UNL     1      32.058  31.493  43.893  0.00  0.00    +0.000 A 
ATOM     34  C   UNL     1      30.667  31.435  43.924  0.00  0.00    +0.000 A 
ATOM     35 CL   UNL     1      29.747  32.313  42.741  0.00  0.00    +0.000 Cl
ATOM     36  C   UNL     1      30.086  30.676  44.904  0.00  0.00    +0.000 A 
ATOM     37  H   UNL     1      33.861  30.867  44.777  0.00  0.00    +0.000 HD
ATOM     38  H   UNL     1      32.518  32.087  43.127  0.00  0.00    +0.000 HD
ATOM     39  H   UNL     1      29.001  30.650  44.904  0.00  0.00    +0.000 HD
ENDBRANCH  24  31
ENDBRANCH   5  20
BRANCH   1  40
ATOM     40  N   UNL     1      37.782  29.867  52.000  0.00  0.00    +0.000 N 
ATOM     41  H   UNL     1      37.500  30.697  52.602  0.00  0.00    +0.000 HD
ATOM     42  H   UNL     1      38.232  28.979  52.263  0.00  0.00    +0.000 HD
ENDBRANCH   1  40
TORSDOF 4
