REMARK  Name = 
REMARK  2 active torsions:
REMARK  status: ('A' for Active; 'I' for Inactive)
REMARK    1  A    between atoms: C_1  and  N_7
REMARK    2  A    between atoms: C_9  and  C_22
REMARK                            x       y       z     vdW  Elec       q    Type
REMARK                         _______ _______ _______ _____ _____    ______ ____
ROOT
ATOM      1  N   UNL     1      36.658  29.568  49.380  0.00  0.00    +0.000 N 
ATOM      2  C   UNL     1      37.656  30.480  48.883  0.00  0.00    +0.000 C 
ATOM      3  C   UNL     1      38.270  31.066  50.144  0.00  0.00    +0.000 C 
ATOM      4  C   UNL     1      37.516  30.391  51.301  0.00  0.00    +0.000 C 
ATOM      5  C   UNL     1      37.152  29.080  50.645  0.00  0.00    +0.000 C 
ATOM      6  H   UNL     1      37.224  31.323  48.305  0.00  0.00    +0.000 HD
ATOM      7  H   UNL     1      38.403  29.993  48.226  0.00  0.00    +0.000 HD
ATOM      8  H   UNL     1      39.328  30.783  50.151  0.00  0.00    +0.000 HD
ATOM      9  H   UNL     1      36.595  30.991  51.418  0.00  0.00    +0.000 HD
ATOM     10  H   UNL     1      38.121  30.300  52.202  0.00  0.00    +0.000 HD
ATOM     11  H   UNL     1      38.080  28.471  50.515  0.00  0.00    +0.000 HD
ATOM     12  H   UNL     1      36.377  28.512  51.204  0.00  0.00    +0.000 HD
ENDROOT
BRANCH   3  13
ATOM     13  C   UNL     1      38.071  32.539  50.202  0.00  0.00    +0.000 A 
ATOM     14  N   UNL     1      39.152  33.306  49.876  0.00  0.00    +0.000 NA
ATOM     15  C   UNL     1      39.134  34.644  49.874  0.00  0.00    +0.000 A 
ATOM     16  N   UNL     1      37.993  35.303  50.209  0.00  0.00    +0.000 NA
ATOM     17  C   UNL     1      36.893  34.602  50.540  0.00  0.00    +0.000 A 
ATOM     18  C   UNL     1      35.694  35.197  50.895  0.00  0.00    +0.000 A 
ATOM     19  C   UNL     1      34.566  34.455  51.236  0.00  0.00    +0.000 A 
ATOM     20  H   UNL     1      33.628  34.922  51.513  0.00  0.00    +0.000 HD
ATOM     21  C   UNL     1      34.660  33.063  51.216  0.00  0.00    +0.000 A 
ATOM     22  H   UNL     1      33.757  32.504  51.489  0.00  0.00    +0.000 HD
ATOM     23  C   UNL     1      35.846  32.451  50.866  0.00  0.00    +0.000 A 
ATOM     24  C   UNL     1      36.938  33.224  50.535  0.00  0.00    +0.000 A 
ENDBRANCH   3  13
BRANCH   1  25
ATOM     25  C   UNL     1      35.428  29.221  48.742  0.00  0.00    +0.000 A 
ATOM     26  C   UNL     1      35.010  30.009  47.673  0.00  0.00    +0.000 A 
ATOM     27  C   UNL     1      33.810  29.672  47.050  0.00  0.00    +0.000 A 
ATOM     28  N   UNL     1      33.113  28.585  47.525  0.00  0.00    +0.000 NA
ATOM     29  C   UNL     1      33.551  27.851  48.558  0.00  0.00    +0.000 A 
ATOM     30  N   UNL     1      34.727  28.169  49.182  0.00  0.00    +0.000 NA
ATOM     31  H   UNL     1      35.523  30.851  47.283  0.00  0.00    +0.000 HD
ATOM     32  H   UNL     1      33.422  30.232  46.219  0.00  0.00    +0.000 HD
ATOM     33  H   UNL     1      33.005  26.996  48.934  0.00  0.00    +0.000 HD
ENDBRANCH   1  25
TORSDOF 2
