
 OpenBabel03272503263D

 33 36  0  0  1  0  0  0  0  0999 V2000
   35.8530   29.4930   49.3070 N   0  0  0  0  0  0  0  0  0  0  0  0
   37.2210   29.5030   48.8570 C   0  0  0  0  0  0  0  0  0  0  0  0
   37.9060   30.4780   49.8010 C   0  0  2  0  0  0  0  0  0  0  0  0
   36.7940   30.9550   50.7500 C   0  0  0  0  0  0  0  0  0  0  0  0
   35.8950   29.7410   50.7280 C   0  0  0  0  0  0  0  0  0  0  0  0
   37.3370   29.9050   47.8290 H   0  0  0  0  0  0  0  0  0  0  0  0
   37.6890   28.4990   48.8610 H   0  0  0  0  0  0  0  0  0  0  0  0
   38.6710   29.9170   50.3480 H   0  0  0  0  0  0  0  0  0  0  0  0
   36.2930   31.7720   50.2000 H   0  0  0  0  0  0  0  0  0  0  0  0
   37.1700   31.2290   51.7350 H   0  0  0  0  0  0  0  0  0  0  0  0
   36.3990   28.9080   51.2750 H   0  0  0  0  0  0  0  0  0  0  0  0
   34.8840   29.9390   51.1460 H   0  0  0  0  0  0  0  0  0  0  0  0
   38.4680   31.6380   49.0590 C   0  0  0  0  0  0  0  0  0  0  0  0
   38.6940   32.7680   49.7910 N   0  0  0  0  0  0  0  0  0  0  0  0
   39.2000   33.8940   49.2720 C   0  0  0  0  0  0  0  0  0  0  0  0
   39.5150   33.9450   47.9500 N   0  0  0  0  0  0  0  0  0  0  0  0
   39.3140   32.8630   47.1760 C   0  0  0  0  0  0  0  0  0  0  0  0
   39.6070   32.8340   45.8220 C   0  0  0  0  0  0  0  0  0  0  0  0
   39.3910   31.7040   45.0380 C   0  0  0  0  0  0  0  0  0  0  0  0
   39.6210   31.6830   43.9790 H   0  0  0  0  0  0  0  0  0  0  0  0
   38.8600   30.5670   45.6470 C   0  0  0  0  0  0  0  0  0  0  0  0
   38.7010   29.6920   45.0050 H   0  0  0  0  0  0  0  0  0  0  0  0
   38.5620   30.5760   46.9940 C   0  0  0  0  0  0  0  0  0  0  0  0
   38.7920   31.7160   47.7350 C   0  0  0  0  0  0  0  0  0  0  0  0
   34.6930   29.2790   48.5020 C   0  0  0  0  0  0  0  0  0  0  0  0
   34.5010   30.1200   47.4100 C   0  0  0  0  0  0  0  0  0  0  0  0
   33.3690   29.9130   46.6240 C   0  0  0  0  0  0  0  0  0  0  0  0
   32.5130   28.8930   46.9710 N   0  0  0  0  0  0  0  0  0  0  0  0
   32.7350   28.1040   48.0330 C   0  0  0  0  0  0  0  0  0  0  0  0
   33.8410   28.2950   48.8160 N   0  0  0  0  0  0  0  0  0  0  0  0
   35.1400   30.9130   47.1150 H   0  0  0  0  0  0  0  0  0  0  0  0
   33.1520   30.5210   45.7650 H   0  0  0  0  0  0  0  0  0  0  0  0
   32.0640   27.3020   48.3090 H   0  0  0  0  0  0  0  0  0  0  0  0
  1  5  1  0  0  0  0
  2  7  1  0  0  0  0
  2  1  1  0  0  0  0
  2  3  1  0  0  0  0
  3  8  1  1  0  0  0
  3  4  1  0  0  0  0
  4 10  1  0  0  0  0
  5  4  1  0  0  0  0
  5 12  1  0  0  0  0
  5 11  1  0  0  0  0
  6  2  1  0  0  0  0
  9  4  1  0  0  0  0
 13 14  1  0  0  0  0
 13  3  1  0  0  0  0
 15 14  2  0  0  0  0
 16 15  1  0  0  0  0
 17 24  1  0  0  0  0
 17 16  2  0  0  0  0
 18 17  1  0  0  0  0
 19 21  1  0  0  0  0
 19 18  2  0  0  0  0
 20 19  1  0  0  0  0
 21 23  2  0  0  0  0
 22 21  1  0  0  0  0
 23 24  1  0  0  0  0
 24 13  2  0  0  0  0
 25 30  1  0  0  0  0
 25  1  1  0  0  0  0
 26 25  2  0  0  0  0
 27 28  2  0  0  0  0
 27 26  1  0  0  0  0
 28 29  1  0  0  0  0
 29 33  1  0  0  0  0
 29 30  2  0  0  0  0
 31 26  1  0  0  0  0
 32 27  1  0  0  0  0
M  END
>  <minimizedAffinity>
-6.15494585

>  <minimizedRMSD>
2.28208971

$$$$
