
     RDKit          3D

 40 44  0  0  0  0  0  0  0  0999 V2000
   34.8728   29.4230   48.5247 C   0  0  0  0  0  0  0  0  0  0  0  0
   34.0351   28.7688   49.3798 N   0  0  0  0  0  0  0  0  0  0  0  0
   32.9540   28.1185   48.9634 C   0  0  0  0  0  0  0  0  0  0  0  0
   32.5783   28.0379   47.6808 N   0  0  0  0  0  0  0  0  0  0  0  0
   33.3602   28.6620   46.7690 C   0  0  0  0  0  0  0  0  0  0  0  0
   32.9876   28.5850   45.4459 C   0  0  0  0  0  0  0  0  0  0  0  0
   33.7486   29.1969   44.4795 C   0  0  0  0  0  0  0  0  0  0  0  0
   34.8721   29.8696   44.9080 C   0  0  0  0  0  0  0  0  0  0  0  0
   35.2051   29.9192   46.2475 C   0  0  0  0  0  0  0  0  0  0  0  0
   34.4677   29.3235   47.2248 C   0  0  0  0  0  0  0  0  0  0  0  0
   37.5636   30.2037   50.7771 C   0  0  0  0  0  0  0  0  0  0  0  0
   38.2495   31.2956   50.2264 C   0  0  0  0  0  0  0  0  0  0  0  0
   37.7620   31.7886   49.0070 C   0  0  0  0  0  0  0  0  0  0  0  0
   36.7077   31.1802   48.4938 N   0  0  0  0  0  0  0  0  0  0  0  0
   36.0418   30.1585   48.9792 C   0  0  0  0  0  0  0  0  0  0  0  0
   36.5266   29.7176   50.1299 N   0  0  0  0  0  0  0  0  0  0  0  0
   37.9752   29.6243   52.0222 N   0  0  0  0  0  0  0  0  0  0  0  0
   32.2860   27.5931   49.6730 H   0  0  0  0  0  0  0  0  0  0  0  0
   32.0993   28.0503   45.1235 H   0  0  0  0  0  0  0  0  0  0  0  0
   33.4740   29.1491   43.4369 H   0  0  0  0  0  0  0  0  0  0  0  0
   35.4497   30.3411   44.1106 H   0  0  0  0  0  0  0  0  0  0  0  0
   36.1150   30.4615   46.4128 H   0  0  0  0  0  0  0  0  0  0  0  0
   39.0818   31.6818   50.7507 H   0  0  0  0  0  0  0  0  0  0  0  0
   38.5548   28.7714   51.8218 H   0  0  0  0  0  0  0  0  0  0  0  0
   37.7190   30.0173   52.9472 H   0  0  0  0  0  0  0  0  0  0  0  0
   38.4933   32.9378   48.5411 C   0  0  0  0  0  0  0  0  0  0  0  0
   38.4366   34.1214   49.1831 N   0  0  0  0  0  0  0  0  0  0  0  0
   39.0751   35.2293   48.8070 C   0  0  0  0  0  0  0  0  0  0  0  0
   39.8555   35.2765   47.7262 N   0  0  0  0  0  0  0  0  0  0  0  0
   39.9862   34.1484   47.0035 C   0  0  0  0  0  0  0  0  0  0  0  0
   40.7669   34.1426   45.8693 C   0  0  0  0  0  0  0  0  0  0  0  0
   40.9071   33.0255   45.1077 C   0  0  0  0  0  0  0  0  0  0  0  0
   41.5193   33.0211   44.2188 H   0  0  0  0  0  0  0  0  0  0  0  0
   40.2293   31.8695   45.5112 C   0  0  0  0  0  0  0  0  0  0  0  0
   40.3460   30.9880   44.9001 H   0  0  0  0  0  0  0  0  0  0  0  0
   39.4648   31.9324   46.6512 C   0  0  0  0  0  0  0  0  0  0  0  0
   39.3016   33.0374   47.4430 C   0  0  0  0  0  0  0  0  0  0  0  0
   38.9586   36.1451   49.4071 H   0  0  0  0  0  0  0  0  0  0  0  0
   41.2926   35.0339   45.5532 H   0  0  0  0  0  0  0  0  0  0  0  0
   38.9723   31.0146   46.8721 H   0  0  0  0  0  0  0  0  0  0  0  0
  1 15  1  0
  1  2  2  0
  3  2  1  0
  4  3  2  0
  5 10  2  0
  5  4  1  0
  6  5  1  0
  7  8  1  0
  7  6  2  0
  8  9  2  0
  9 10  1  0
 10  1  1  0
 11 17  1  0
 12 11  2  0
 13 12  1  0
 14 15  1  0
 14 13  2  0
 15 16  2  0
 16 11  1  0
  3 18  1  0
  6 19  1  0
  7 20  1  0
  8 21  1  0
  9 22  1  0
 12 23  1  0
 17 24  1  0
 17 25  1  0
 26 27  2  0
 27 28  1  0
 28 29  2  0
 29 30  1  0
 30 31  2  0
 31 32  1  0
 32 33  1  0
 32 34  2  0
 34 35  1  0
 34 36  1  0
 36 37  2  0
 37 26  1  0
 37 30  1  0
 28 38  1  0
 31 39  1  0
 36 40  1  0
 13 26  1  0
M  ISO  8  18  14  19  14  20  14  21  14  22  14  23  14  33  16  35  16
M  END
>  <DihAtoms>  (1) 
11,12,25,26

>  <DihDeg>  (1) 
6.941558335730461

$$$$
