REMARK  Name = 
REMARK  3 active torsions:
REMARK  status: ('A' for Active; 'I' for Inactive)
REMARK    1  A    between atoms: C_1  and  C_7
REMARK    2  A    between atoms: C_3  and  N_13
REMARK    3  A    between atoms: C_17  and  N_40
REMARK                            x       y       z     vdW  Elec       q    Type
REMARK                         _______ _______ _______ _____ _____    ______ ____
ROOT
ATOM      1  C   UNL     1      35.237  30.322  49.576  0.00  0.00    +0.000 C 
ATOM      2  C   UNL     1      36.249  30.987  48.711  0.00  0.00    +0.000 C 
ATOM      3  C   UNL     1      37.639  30.401  48.878  0.00  0.00    +0.000 C 
ATOM      4  C   UNL     1      38.114  30.438  50.284  0.00  0.00    +0.000 C 
ATOM      5  C   UNL     1      37.042  30.086  51.291  0.00  0.00    +0.000 C 
ATOM      6  C   UNL     1      35.852  29.438  50.633  0.00  0.00    +0.000 C 
ATOM      7  H   UNL     1      34.588  31.040  50.160  0.00  0.00    +0.000 HD
ATOM      8  H   UNL     1      36.090  30.970  47.627  0.00  0.00    +0.000 HD
ATOM      9  H   UNL     1      36.272  32.068  49.063  0.00  0.00    +0.000 HD
ATOM     10  H   UNL     1      37.557  29.329  48.566  0.00  0.00    +0.000 HD
ATOM     11  H   UNL     1      38.893  29.625  50.381  0.00  0.00    +0.000 HD
ATOM     12  H   UNL     1      38.587  31.339  50.646  0.00  0.00    +0.000 HD
ATOM     13  H   UNL     1      37.409  29.452  52.097  0.00  0.00    +0.000 HD
ATOM     14  H   UNL     1      36.662  31.017  51.775  0.00  0.00    +0.000 HD
ATOM     15  H   UNL     1      35.098  29.220  51.395  0.00  0.00    +0.000 HD
ATOM     16  H   UNL     1      36.192  28.480  50.180  0.00  0.00    +0.000 HD
ENDROOT
BRANCH   3  17
ATOM     17  N   UNL     1      38.586  31.035  48.032  0.00  0.00    +0.000 NA
ATOM     18  C   UNL     1      38.464  30.635  46.639  0.00  0.00    +0.000 C 
ATOM     19  C   UNL     1      39.651  31.391  46.042  0.00  0.00    +0.000 C 
ATOM     20  C   UNL     1      39.491  32.738  46.752  0.00  0.00    +0.000 C 
ATOM     21  C   UNL     1      38.688  32.423  48.030  0.00  0.00    +0.000 C 
ATOM     22  H   UNL     1      38.606  29.532  46.528  0.00  0.00    +0.000 HD
ATOM     23  H   UNL     1      37.534  31.007  46.183  0.00  0.00    +0.000 HD
ATOM     24  H   UNL     1      40.567  30.872  46.389  0.00  0.00    +0.000 HD
ATOM     25  H   UNL     1      39.573  31.481  44.955  0.00  0.00    +0.000 HD
ATOM     26  H   UNL     1      38.944  33.421  46.076  0.00  0.00    +0.000 HD
ATOM     27  H   UNL     1      40.508  33.076  46.960  0.00  0.00    +0.000 HD
ATOM     28  H   UNL     1      37.721  32.919  47.911  0.00  0.00    +0.000 HD
BRANCH  21  31
ATOM     29  N   UNL     1      38.728  35.303  48.163  0.00  0.00    +0.000 NA
ATOM     30  C   UNL     1      39.439  34.482  48.888  0.00  0.00    +0.000 C 
ATOM     31  N   UNL     1      39.452  33.053  49.082  0.00  0.00    +0.000 N 
ATOM     32  N   UNL     1      40.217  35.537  49.441  0.00  0.00    +0.000 N 
ATOM     33  H   UNL     1      39.912  35.876  50.403  0.00  0.00    +0.000 HD
ATOM     34  H   UNL     1      37.965  35.034  47.532  0.00  0.00    +0.000 HD
ATOM     35  H   UNL     1      40.036  33.010  49.945  0.00  0.00    +0.000 HD
ATOM     36  H   UNL     1      41.062  36.038  49.035  0.00  0.00    +0.000 HD
ENDBRANCH  21  31
ENDBRANCH   3  17
BRANCH   1  37
ATOM     37  C   UNL     1      34.285  29.486  48.808  0.00  0.00    +0.000 A 
ATOM     38  C   UNL     1      34.142  29.867  47.471  0.00  0.00    +0.000 A 
ATOM     39  C   UNL     1      33.255  29.093  46.692  0.00  0.00    +0.000 A 
ATOM     40  N   UNL     1      32.593  28.030  47.272  0.00  0.00    +0.000 NA
ATOM     41  C   UNL     1      32.773  27.707  48.581  0.00  0.00    +0.000 A 
ATOM     42  N   UNL     1      33.603  28.431  49.310  0.00  0.00    +0.000 NA
ATOM     43  H   UNL     1      34.495  30.611  46.788  0.00  0.00    +0.000 HD
ATOM     44  H   UNL     1      32.976  29.179  45.654  0.00  0.00    +0.000 HD
ATOM     45  H   UNL     1      32.238  26.869  49.003  0.00  0.00    +0.000 HD
ENDBRANCH   1  37
TORSDOF 3
