
 OpenBabel03272507013D

 45 47  0  0  1  0  0  0  0  0999 V2000
   35.0030   30.0130   49.0240 C   0  0  2  0  0  0  0  0  0  0  0  0
   35.8160   30.6870   47.9760 C   0  0  0  0  0  0  0  0  0  0  0  0
   37.2020   30.0850   47.8310 C   0  0  2  0  0  0  0  0  0  0  0  0
   37.9660   30.0870   49.1040 C   0  0  0  0  0  0  0  0  0  0  0  0
   37.1280   29.7240   50.3100 C   0  0  0  0  0  0  0  0  0  0  0  0
   35.8170   29.1010   49.9090 C   0  0  0  0  0  0  0  0  0  0  0  0
   34.5030   30.7250   49.7460 H   0  0  0  0  0  0  0  0  0  0  0  0
   35.4290   30.6950   46.9500 H   0  0  0  0  0  0  0  0  0  0  0  0
   35.9280   31.7600   48.3350 H   0  0  0  0  0  0  0  0  0  0  0  0
   37.0400   29.0200   47.5240 H   0  0  0  0  0  0  0  0  0  0  0  0
   38.7360   29.2650   49.0170 H   0  0  0  0  0  0  0  0  0  0  0  0
   38.5170   30.9760   49.3730 H   0  0  0  0  0  0  0  0  0  0  0  0
   37.6500   29.0690   51.0070 H   0  0  0  0  0  0  0  0  0  0  0  0
   36.8730   30.6480   50.8810 H   0  0  0  0  0  0  0  0  0  0  0  0
   35.2390   28.8740   50.8100 H   0  0  0  0  0  0  0  0  0  0  0  0
   36.0390   28.1500   49.3750 H   0  0  0  0  0  0  0  0  0  0  0  0
   37.9550   30.7280   46.8150 N   0  0  1  0  0  0  0  0  0  0  0  0
   37.3920   30.5460   45.4860 C   0  0  0  0  0  0  0  0  0  0  0  0
   38.4600   31.2480   44.6480 C   0  0  0  0  0  0  0  0  0  0  0  0
   38.7020   32.4890   45.5110 C   0  0  0  0  0  0  0  0  0  0  0  0
   38.2520   32.0830   46.9290 C   0  0  2  0  0  0  0  0  0  0  0  0
   37.3360   29.4620   45.2220 H   0  0  0  0  0  0  0  0  0  0  0  0
   36.4350   31.0780   45.3680 H   0  0  0  0  0  0  0  0  0  0  0  0
   39.3520   30.5890   44.6510 H   0  0  0  0  0  0  0  0  0  0  0  0
   38.0950   31.5000   43.6480 H   0  0  0  0  0  0  0  0  0  0  0  0
   38.0920   33.3160   45.1040 H   0  0  0  0  0  0  0  0  0  0  0  0
   39.7740   32.6820   45.4440 H   0  0  0  0  0  0  0  0  0  0  0  0
   37.3720   32.6910   47.1550 H   0  0  0  0  0  0  0  0  0  0  0  0
   37.7130   33.6790   49.2690 N   0  0  0  0  0  0  0  0  0  0  0  0
   38.8890   33.3600   48.8000 C   0  0  0  0  0  0  0  0  0  0  0  0
   39.3620   32.4700   47.7680 N   0  0  0  0  0  0  0  0  0  0  0  0
   39.5610   34.2300   49.7040 N   0  0  0  0  0  0  0  0  0  0  0  0
   39.9560   33.7680   50.5770 H   0  0  0  0  0  0  0  0  0  0  0  0
   36.8180   33.3000   48.9420 H   0  0  0  0  0  0  0  0  0  0  0  0
   40.3730   32.4420   48.0250 H   0  0  0  0  0  0  0  0  0  0  0  0
   39.7280   35.2770   49.6370 H   0  0  0  0  0  0  0  0  0  0  0  0
   33.8970   29.2030   48.4610 C   0  0  0  0  0  0  0  0  0  0  0  0
   33.5980   29.4950   47.1280 C   0  0  0  0  0  0  0  0  0  0  0  0
   32.5600   28.7400   46.5400 C   0  0  0  0  0  0  0  0  0  0  0  0
   31.9120   27.7800   47.2890 N   0  0  0  0  0  0  0  0  0  0  0  0
   32.2480   27.5400   48.5860 C   0  0  0  0  0  0  0  0  0  0  0  0
   33.2190   28.2460   49.1350 N   0  0  0  0  0  0  0  0  0  0  0  0
   33.9050   30.1560   46.3440 H   0  0  0  0  0  0  0  0  0  0  0  0
   32.1470   28.7720   45.5450 H   0  0  0  0  0  0  0  0  0  0  0  0
   31.7190   26.7810   49.1430 H   0  0  0  0  0  0  0  0  0  0  0  0
  1  7  1  1  0  0  0
  1  6  1  0  0  0  0
  2  9  1  0  0  0  0
  2  1  1  0  0  0  0
  3 10  1  6  0  0  0
  3  2  1  0  0  0  0
  3  4  1  0  0  0  0
  4 12  1  0  0  0  0
  4  5  1  0  0  0  0
  5 14  1  0  0  0  0
  5 13  1  0  0  0  0
  6  5  1  0  0  0  0
  6 15  1  0  0  0  0
  8  2  1  0  0  0  0
 11  4  1  0  0  0  0
 16  6  1  0  0  0  0
 17 18  1  6  0  0  0
 17 21  1  0  0  0  0
 17  3  1  0  0  0  0
 19 24  1  0  0  0  0
 19 18  1  0  0  0  0
 19 20  1  0  0  0  0
 20 21  1  0  0  0  0
 21 28  1  1  0  0  0
 21 31  1  0  0  0  0
 22 18  1  0  0  0  0
 23 18  1  0  0  0  0
 25 19  1  0  0  0  0
 26 20  1  0  0  0  0
 27 20  1  0  0  0  0
 30 29  2  0  0  0  0
 30 32  1  0  0  0  0
 31 35  1  0  0  0  0
 31 30  1  0  0  0  0
 32 33  1  0  0  0  0
 34 29  1  0  0  0  0
 36 32  1  0  0  0  0
 37  1  1  0  0  0  0
 37 42  1  0  0  0  0
 38 37  2  0  0  0  0
 39 38  1  0  0  0  0
 39 40  2  0  0  0  0
 40 41  1  0  0  0  0
 41 42  2  0  0  0  0
 41 45  1  0  0  0  0
 43 38  1  0  0  0  0
 44 39  1  0  0  0  0
M  END
>  <minimizedAffinity>
-5.81364298

>  <minimizedRMSD>
1.1331197

$$$$
