REMARK  Name = 
REMARK  3 active torsions:
REMARK  status: ('A' for Active; 'I' for Inactive)
REMARK    1  A    between atoms: C_3  and  C_7
REMARK    2  A    between atoms: C_8  and  C_9
REMARK    3  A    between atoms: C_9  and  N_19
REMARK                            x       y       z     vdW  Elec       q    Type
REMARK                         _______ _______ _______ _____ _____    ______ ____
ROOT
ATOM      1  C   UNL     1      38.242  30.898  47.848  0.00  0.00    +0.000 C 
ATOM      2  C   UNL     1      38.804  32.085  47.773  0.00  0.00    +0.000 C 
ENDROOT
BRANCH   1   5
ATOM      3  C   UNL     1      37.379  30.242  51.375  0.00  0.00    +0.000 A 
ATOM      4  C   UNL     1      38.033  30.738  50.236  0.00  0.00    +0.000 A 
ATOM      5  C   UNL     1      37.562  30.386  48.986  0.00  0.00    +0.000 A 
ATOM      6  N   UNL     1      36.489  29.576  48.879  0.00  0.00    +0.000 NA
ATOM      7  C   UNL     1      35.870  29.106  49.982  0.00  0.00    +0.000 A 
ATOM      8  N   UNL     1      36.298  29.427  51.219  0.00  0.00    +0.000 NA
ATOM      9  H   UNL     1      37.794  30.552  52.321  0.00  0.00    +0.000 HD
ATOM     10  H   UNL     1      38.907  31.398  50.365  0.00  0.00    +0.000 HD
ATOM     11  H   UNL     1      34.999  28.450  49.928  0.00  0.00    +0.000 HD
ENDBRANCH   1   5
BRANCH   2  12
ATOM     12  C   UNL     1      39.510  32.581  46.561  0.00  0.00    +0.000 C 
ATOM     13  H   UNL     1      39.435  31.809  45.785  0.00  0.00    +0.000 HD
ATOM     14  H   UNL     1      39.047  33.488  46.121  0.00  0.00    +0.000 HD
BRANCH  12  17
ATOM     15  N   UNL     1      40.193  33.819  49.047  0.00  0.00    +0.000 NA
ATOM     16  C   UNL     1      41.059  33.684  48.105  0.00  0.00    +0.000 C 
ATOM     17  N   UNL     1      40.873  32.855  46.962  0.00  0.00    +0.000 N 
ATOM     18  N   UNL     1      42.283  34.432  48.244  0.00  0.00    +0.000 N 
ATOM     19  H   UNL     1      43.038  33.745  48.450  0.00  0.00    +0.000 HD
ATOM     20  H   UNL     1      39.277  33.331  49.057  0.00  0.00    +0.000 HD
ATOM     21  H   UNL     1      41.707  32.472  46.453  0.00  0.00    +0.000 HD
ATOM     22  H   UNL     1      42.670  35.414  48.210  0.00  0.00    +0.000 HD
ENDBRANCH  12  17
ENDBRANCH   2  12
TORSDOF 3
