
 OpenBabel03272507073D

 38 41  0  0  0  0  0  0  0  0999 V2000
   38.2760   32.5710   49.2430 C   0  0  0  0  0  0  0  0  0  0  0  0
   38.9510   32.7120   48.0260 C   0  0  0  0  0  0  0  0  0  0  0  0
   38.4940   31.9260   46.9490 C   0  0  0  0  0  0  0  0  0  0  0  0
   37.4490   31.0960   47.1480 N   0  0  0  0  0  0  0  0  0  0  0  0
   36.8280   30.9910   48.3370 C   0  0  0  0  0  0  0  0  0  0  0  0
   37.2350   31.7210   49.3800 N   0  0  0  0  0  0  0  0  0  0  0  0
   38.6430   33.1770   50.0410 H   0  0  0  0  0  0  0  0  0  0  0  0
   39.7690   33.3530   47.8500 H   0  0  0  0  0  0  0  0  0  0  0  0
   39.0810   31.9510   45.6240 C   0  0  0  0  0  0  0  0  0  0  0  0
   39.1300   33.0660   44.8240 C   0  0  0  0  0  0  0  0  0  0  0  0
   39.6830   33.1100   43.5630 C   0  0  0  0  0  0  0  0  0  0  0  0
   40.2110   31.9700   43.0890 N   0  0  0  0  0  0  0  0  0  0  0  0
   40.1800   30.8610   43.8430 C   0  0  0  0  0  0  0  0  0  0  0  0
   39.6410   30.8600   45.0470 N   0  0  0  0  0  0  0  0  0  0  0  0
   38.7070   34.0010   45.1910 H   0  0  0  0  0  0  0  0  0  0  0  0
   39.7210   33.9810   42.9390 H   0  0  0  0  0  0  0  0  0  0  0  0
   38.6320   28.8320   42.6010 N   0  0  0  0  0  0  0  0  0  0  0  0
   39.9180   28.7840   42.5270 C   0  0  0  0  0  0  0  0  0  0  0  0
   40.7540   29.6730   43.2950 N   0  0  0  0  0  0  0  0  0  0  0  0
   40.4230   27.7940   41.6380 N   0  0  0  0  0  0  0  0  0  0  0  0
   41.0680   27.4300   40.9010 H   0  0  0  0  0  0  0  0  0  0  0  0
   37.9630   28.2460   42.0980 H   0  0  0  0  0  0  0  0  0  0  0  0
   41.7350   29.4010   43.4100 H   0  0  0  0  0  0  0  0  0  0  0  0
   39.9870   26.8300   41.6000 H   0  0  0  0  0  0  0  0  0  0  0  0
   35.7340   29.0980   49.4590 C   0  0  0  0  0  0  0  0  0  0  0  0
   35.7010   30.0610   48.4540 C   0  0  0  0  0  0  0  0  0  0  0  0
   34.6350   30.1290   47.5980 C   0  0  0  0  0  0  0  0  0  0  0  0
   33.5840   29.2530   47.7180 C   0  0  0  0  0  0  0  0  0  0  0  0
   32.4370   29.1120   47.0150 N   0  0  0  0  0  0  0  0  0  0  0  0
   31.8100   28.0670   47.6180 C   0  0  0  0  0  0  0  0  0  0  0  0
   32.5360   27.5800   48.6480 N   0  0  0  0  0  0  0  0  0  0  0  0
   33.6630   28.3120   48.7330 C   0  0  0  0  0  0  0  0  0  0  0  0
   34.6940   28.2050   49.6030 C   0  0  0  0  0  0  0  0  0  0  0  0
   36.6040   29.0820   50.1170 H   0  0  0  0  0  0  0  0  0  0  0  0
   34.6070   30.8800   46.8130 H   0  0  0  0  0  0  0  0  0  0  0  0
   32.0970   29.6550   46.2100 H   0  0  0  0  0  0  0  0  0  0  0  0
   30.8430   27.6800   47.2990 H   0  0  0  0  0  0  0  0  0  0  0  0
   34.7640   27.4800   50.3920 H   0  0  0  0  0  0  0  0  0  0  0  0
  1  6  1  0  0  0  0
  1  7  1  0  0  0  0
  2  1  2  0  0  0  0
  3  4  2  0  0  0  0
  3  2  1  0  0  0  0
  4  5  1  0  0  0  0
  5 26  1  0  0  0  0
  5  6  2  0  0  0  0
  8  2  1  0  0  0  0
  9  3  1  0  0  0  0
 10 15  1  0  0  0  0
 10  9  2  0  0  0  0
 11 10  1  0  0  0  0
 12 11  2  0  0  0  0
 12 13  1  0  0  0  0
 13 14  2  0  0  0  0
 14  9  1  0  0  0  0
 16 11  1  0  0  0  0
 18 17  2  0  0  0  0
 18 19  1  0  0  0  0
 19 23  1  0  0  0  0
 19 13  1  0  0  0  0
 20 18  1  0  0  0  0
 21 20  1  0  0  0  0
 22 17  1  0  0  0  0
 24 20  1  0  0  0  0
 25 33  1  0  0  0  0
 25 34  1  0  0  0  0
 26 25  2  0  0  0  0
 27 28  2  0  0  0  0
 27 26  1  0  0  0  0
 28 32  1  0  0  0  0
 29 30  1  0  0  0  0
 29 28  1  0  0  0  0
 30 31  2  0  0  0  0
 31 32  1  0  0  0  0
 32 33  2  0  0  0  0
 33 38  1  0  0  0  0
 35 27  1  0  0  0  0
 36 29  1  0  0  0  0
 37 30  1  0  0  0  0
M  END
>  <minimizedAffinity>
-7.59054661

>  <minimizedRMSD>
0.874602079

$$$$
