
 OpenBabel03272506463D

 41 43  0  0  1  0  0  0  0  0999 V2000
   32.1490   28.5350   47.4250 C   0  0  2  0  0  0  0  0  0  0  0  0
   33.3950   28.3490   48.2430 C   0  0  1  0  0  0  0  0  0  0  0  0
   33.7790   27.0470   48.1340 O   0  0  0  0  0  0  0  0  0  0  0  0
   33.0630   26.4380   47.1090 C   0  0  0  0  0  0  0  0  0  0  0  0
   32.4620   27.5360   46.2710 C   0  0  1  0  0  0  0  0  0  0  0  0
   31.2140   28.2720   47.9060 H   0  0  0  0  0  0  0  0  0  0  0  0
   33.2780   28.7000   49.2940 H   0  0  0  0  0  0  0  0  0  0  0  0
   33.8460   25.9110   46.4900 H   0  0  0  0  0  0  0  0  0  0  0  0
   32.3750   25.7490   47.5740 H   0  0  0  0  0  0  0  0  0  0  0  0
   33.1980   28.0310   45.6480 H   0  0  0  0  0  0  0  0  0  0  0  0
   32.0860   29.8420   46.9040 O   0  0  0  0  0  0  0  0  0  0  0  0
   32.8770   29.9650   46.3430 H   0  0  0  0  0  0  0  0  0  0  0  0
   34.7070   29.3870   47.4870 S   0  0  0  0  0  0  0  0  0  0  0  0
   37.1200   29.2990   50.6250 C   0  0  0  0  0  0  0  0  0  0  0  0
   37.6130   30.5870   50.7460 C   0  0  0  0  0  0  0  0  0  0  0  0
   37.1790   31.5390   49.8080 C   0  0  0  0  0  0  0  0  0  0  0  0
   36.3110   31.1460   48.8480 N   0  0  0  0  0  0  0  0  0  0  0  0
   35.8550   29.8820   48.7660 C   0  0  0  0  0  0  0  0  0  0  0  0
   36.2520   28.9320   49.6540 N   0  0  0  0  0  0  0  0  0  0  0  0
   37.3820   28.4710   51.2930 H   0  0  0  0  0  0  0  0  0  0  0  0
   38.2990   30.7760   51.5500 H   0  0  0  0  0  0  0  0  0  0  0  0
   37.5590   32.5460   49.9000 H   0  0  0  0  0  0  0  0  0  0  0  0
   31.3100   27.0780   45.6830 O   0  0  0  0  0  0  0  0  0  0  0  0
   29.8080   29.1750   44.2720 Cl  0  0  0  0  0  0  0  0  0  0  0  0
   29.2800   28.1580   45.5920 C   0  0  0  0  0  0  0  0  0  0  0  0
   30.0780   27.1980   46.1740 C   0  0  0  0  0  0  0  0  0  0  0  0
   29.5350   26.4380   47.2120 C   0  0  0  0  0  0  0  0  0  0  0  0
   28.2440   26.6450   47.6350 C   0  0  0  0  0  0  0  0  0  0  0  0
   27.4370   27.6020   47.0620 C   0  0  0  0  0  0  0  0  0  0  0  0
   27.9590   28.3660   46.0320 C   0  0  0  0  0  0  0  0  0  0  0  0
   30.0900   25.6650   47.7150 H   0  0  0  0  0  0  0  0  0  0  0  0
   27.8400   26.0540   48.4360 H   0  0  0  0  0  0  0  0  0  0  0  0
   26.4420   27.7170   47.4290 H   0  0  0  0  0  0  0  0  0  0  0  0
   25.6260   28.0450   44.3040 N   0  0  0  0  0  0  0  0  0  0  0  0
   26.4040   29.0970   44.2250 C   0  0  0  0  0  0  0  0  0  0  0  0
   27.1570   29.3630   45.3770 N   0  0  0  0  0  0  0  0  0  0  0  0
   26.4690   29.9320   43.0560 N   0  0  0  0  0  0  0  0  0  0  0  0
   26.2240   30.7600   42.5030 H   0  0  0  0  0  0  0  0  0  0  0  0
   25.0140   27.7160   43.5420 H   0  0  0  0  0  0  0  0  0  0  0  0
   27.1110   30.3510   45.7360 H   0  0  0  0  0  0  0  0  0  0  0  0
   27.0560   29.6930   42.2070 H   0  0  0  0  0  0  0  0  0  0  0  0
  1  6  1  1  0  0  0
  1  2  1  0  0  0  0
  2  7  1  1  0  0  0
  3  2  1  0  0  0  0
  4  9  1  0  0  0  0
  4  3  1  0  0  0  0
  5 10  1  6  0  0  0
  5  4  1  0  0  0  0
  5  1  1  0  0  0  0
  8  4  1  0  0  0  0
 11  1  1  0  0  0  0
 12 11  1  0  0  0  0
 13  2  1  0  0  0  0
 13 18  1  0  0  0  0
 14 15  1  0  0  0  0
 14 20  1  0  0  0  0
 15 21  1  0  0  0  0
 16 22  1  0  0  0  0
 16 15  2  0  0  0  0
 17 16  1  0  0  0  0
 18 17  2  0  0  0  0
 18 19  1  0  0  0  0
 19 14  2  0  0  0  0
 23 26  1  0  0  0  0
 23  5  1  0  0  0  0
 24 25  1  0  0  0  0
 25 30  2  0  0  0  0
 25 26  1  0  0  0  0
 26 27  2  0  0  0  0
 27 28  1  0  0  0  0
 27 31  1  0  0  0  0
 28 32  1  0  0  0  0
 29 33  1  0  0  0  0
 29 28  2  0  0  0  0
 30 29  1  0  0  0  0
 35 34  2  0  0  0  0
 35 36  1  0  0  0  0
 36 40  1  0  0  0  0
 36 30  1  0  0  0  0
 37 35  1  0  0  0  0
 38 37  1  0  0  0  0
 39 34  1  0  0  0  0
 41 37  1  0  0  0  0
M  END
>  <minimizedAffinity>
-4.89646292

>  <minimizedRMSD>
0.583313346

$$$$
