
 OpenBabel03272507013D

 45 47  0  0  1  0  0  0  0  0999 V2000
   35.0360   30.0050   49.0680 C   0  0  2  0  0  0  0  0  0  0  0  0
   35.8460   30.6970   48.0290 C   0  0  0  0  0  0  0  0  0  0  0  0
   37.2270   30.0910   47.8620 C   0  0  2  0  0  0  0  0  0  0  0  0
   38.0000   30.0610   49.1290 C   0  0  0  0  0  0  0  0  0  0  0  0
   37.1690   29.6750   50.3320 C   0  0  0  0  0  0  0  0  0  0  0  0
   35.8520   29.0690   49.9260 C   0  0  0  0  0  0  0  0  0  0  0  0
   34.5450   30.7020   49.8100 H   0  0  0  0  0  0  0  0  0  0  0  0
   35.4520   30.7300   47.0070 H   0  0  0  0  0  0  0  0  0  0  0  0
   35.9670   31.7610   48.4120 H   0  0  0  0  0  0  0  0  0  0  0  0
   37.0580   29.0350   47.5320 H   0  0  0  0  0  0  0  0  0  0  0  0
   38.7660   29.2370   49.0180 H   0  0  0  0  0  0  0  0  0  0  0  0
   38.5580   30.9410   49.4140 H   0  0  0  0  0  0  0  0  0  0  0  0
   37.6920   29.0030   51.0100 H   0  0  0  0  0  0  0  0  0  0  0  0
   36.9230   30.5880   50.9260 H   0  0  0  0  0  0  0  0  0  0  0  0
   35.2790   28.8240   50.8260 H   0  0  0  0  0  0  0  0  0  0  0  0
   36.0650   28.1280   49.3710 H   0  0  0  0  0  0  0  0  0  0  0  0
   37.9770   30.7530   46.8550 N   0  0  1  0  0  0  0  0  0  0  0  0
   37.4220   30.5760   45.5220 C   0  0  0  0  0  0  0  0  0  0  0  0
   38.4860   31.2990   44.6950 C   0  0  0  0  0  0  0  0  0  0  0  0
   38.7070   32.5350   45.5700 C   0  0  0  0  0  0  0  0  0  0  0  0
   38.2550   32.1100   46.9820 C   0  0  2  0  0  0  0  0  0  0  0  0
   37.3820   29.4930   45.2480 H   0  0  0  0  0  0  0  0  0  0  0  0
   36.4590   31.0960   45.4030 H   0  0  0  0  0  0  0  0  0  0  0  0
   39.3860   30.6520   44.6970 H   0  0  0  0  0  0  0  0  0  0  0  0
   38.1220   31.5550   43.6960 H   0  0  0  0  0  0  0  0  0  0  0  0
   38.0880   33.3580   45.1670 H   0  0  0  0  0  0  0  0  0  0  0  0
   39.7770   32.7430   45.5090 H   0  0  0  0  0  0  0  0  0  0  0  0
   37.3670   32.7060   47.2090 H   0  0  0  0  0  0  0  0  0  0  0  0
   37.6700   33.5260   49.4250 N   0  0  0  0  0  0  0  0  0  0  0  0
   38.8530   33.3030   48.9220 C   0  0  0  0  0  0  0  0  0  0  0  0
   39.3570   32.5050   47.8300 N   0  0  0  0  0  0  0  0  0  0  0  0
   39.4910   34.1480   49.8710 N   0  0  0  0  0  0  0  0  0  0  0  0
   39.9250   33.6550   50.7080 H   0  0  0  0  0  0  0  0  0  0  0  0
   36.7900   33.1190   49.0860 H   0  0  0  0  0  0  0  0  0  0  0  0
   40.3720   32.5160   48.0720 H   0  0  0  0  0  0  0  0  0  0  0  0
   39.6010   35.2060   49.8680 H   0  0  0  0  0  0  0  0  0  0  0  0
   33.9230   29.2130   48.4950 C   0  0  0  0  0  0  0  0  0  0  0  0
   33.6320   29.5190   47.1630 C   0  0  0  0  0  0  0  0  0  0  0  0
   32.5860   28.7820   46.5660 C   0  0  0  0  0  0  0  0  0  0  0  0
   31.9230   27.8240   47.3060 N   0  0  0  0  0  0  0  0  0  0  0  0
   32.2520   27.5700   48.6010 C   0  0  0  0  0  0  0  0  0  0  0  0
   33.2300   28.2590   49.1600 N   0  0  0  0  0  0  0  0  0  0  0  0
   33.9500   30.1820   46.3860 H   0  0  0  0  0  0  0  0  0  0  0  0
   32.1770   28.8270   45.5700 H   0  0  0  0  0  0  0  0  0  0  0  0
   31.7110   26.8130   49.1510 H   0  0  0  0  0  0  0  0  0  0  0  0
  1  7  1  1  0  0  0
  1  6  1  0  0  0  0
  2  9  1  0  0  0  0
  2  1  1  0  0  0  0
  3 10  1  6  0  0  0
  3  2  1  0  0  0  0
  3  4  1  0  0  0  0
  4 12  1  0  0  0  0
  4  5  1  0  0  0  0
  5 14  1  0  0  0  0
  5 13  1  0  0  0  0
  6  5  1  0  0  0  0
  6 15  1  0  0  0  0
  8  2  1  0  0  0  0
 11  4  1  0  0  0  0
 16  6  1  0  0  0  0
 17 18  1  6  0  0  0
 17 21  1  0  0  0  0
 17  3  1  0  0  0  0
 19 24  1  0  0  0  0
 19 18  1  0  0  0  0
 19 20  1  0  0  0  0
 20 21  1  0  0  0  0
 21 28  1  1  0  0  0
 21 31  1  0  0  0  0
 22 18  1  0  0  0  0
 23 18  1  0  0  0  0
 25 19  1  0  0  0  0
 26 20  1  0  0  0  0
 27 20  1  0  0  0  0
 30 29  2  0  0  0  0
 30 32  1  0  0  0  0
 31 35  1  0  0  0  0
 31 30  1  0  0  0  0
 32 33  1  0  0  0  0
 34 29  1  0  0  0  0
 36 32  1  0  0  0  0
 37  1  1  0  0  0  0
 37 42  1  0  0  0  0
 38 37  2  0  0  0  0
 39 38  1  0  0  0  0
 39 40  2  0  0  0  0
 40 41  1  0  0  0  0
 41 45  1  0  0  0  0
 41 42  2  0  0  0  0
 43 38  1  0  0  0  0
 44 39  1  0  0  0  0
M  END
>  <minimizedAffinity>
-5.82955456

>  <minimizedRMSD>
1.0870142

$$$$
