
 OpenBabel03272507013D

 45 45  0  0  1  0  0  0  0  0999 V2000
   35.0000   30.0940   49.3860 C   0  0  2  0  0  0  0  0  0  0  0  0
   35.9800   30.7700   48.4930 C   0  0  0  0  0  0  0  0  0  0  0  0
   37.3700   30.1680   48.5870 C   0  0  2  0  0  0  0  0  0  0  0  0
   37.9060   30.1700   49.9710 C   0  0  0  0  0  0  0  0  0  0  0  0
   36.8750   29.8050   51.0160 C   0  0  0  0  0  0  0  0  0  0  0  0
   35.6520   29.1820   50.3960 C   0  0  0  0  0  0  0  0  0  0  0  0
   34.3840   30.8050   50.0130 H   0  0  0  0  0  0  0  0  0  0  0  0
   35.7740   30.7780   47.4170 H   0  0  0  0  0  0  0  0  0  0  0  0
   36.0280   31.8420   48.8670 H   0  0  0  0  0  0  0  0  0  0  0  0
   37.2650   29.1040   48.2550 H   0  0  0  0  0  0  0  0  0  0  0  0
   38.6810   29.3490   50.0170 H   0  0  0  0  0  0  0  0  0  0  0  0
   38.4020   31.0590   50.3320 H   0  0  0  0  0  0  0  0  0  0  0  0
   37.2700   29.1500   51.7910 H   0  0  0  0  0  0  0  0  0  0  0  0
   36.5250   30.7280   51.5360 H   0  0  0  0  0  0  0  0  0  0  0  0
   34.9290   28.9540   51.1850 H   0  0  0  0  0  0  0  0  0  0  0  0
   35.9630   28.2310   49.9080 H   0  0  0  0  0  0  0  0  0  0  0  0
   38.2860   30.8130   47.7150 N   0  0  0  0  0  0  0  0  0  0  0  0
   38.4880   30.0930   46.4670 C   0  0  0  0  0  0  0  0  0  0  0  0
   39.5660   30.9680   45.8290 C   0  0  0  0  0  3  0  0  0  0  0  0
   39.0030   32.3560   46.1450 C   0  0  0  0  0  2  0  0  0  0  0  0
   38.0840   32.1450   47.3660 C   0  0  0  0  0  3  0  0  0  0  0  0
   38.8810   29.0650   46.6600 H   0  0  0  0  0  0  0  0  0  0  0  0
   37.5890   30.1080   45.8320 H   0  0  0  0  0  0  0  0  0  0  0  0
   40.5020   30.7870   46.3950 H   0  0  0  0  0  0  0  0  0  0  0  0
   39.6540   30.7900   44.7530 H   0  0  0  0  0  0  0  0  0  0  0  0
   38.4420   32.7110   45.2610 H   0  0  0  0  0  0  0  0  0  0  0  0
   39.8730   32.9760   46.3690 H   0  0  0  0  0  0  0  0  0  0  0  0
   37.0670   32.3430   47.0180 H   0  0  0  0  0  0  0  0  0  0  0  0
   40.0390   34.0760   46.4920 N   0  0  0  0  0  0  0  0  0  0  0  0
   39.5710   33.9380   47.7030 C   0  0  0  0  0  0  0  0  0  0  0  0
   38.5070   33.1660   48.2970 N   0  0  0  0  0  0  0  0  0  0  0  0
   40.5110   34.8590   48.2450 N   0  0  0  0  0  0  0  0  0  0  0  0
   40.1530   35.8510   48.3860 H   0  0  0  0  0  0  0  0  0  0  0  0
   39.6830   33.5980   45.6580 H   0  0  0  0  0  0  0  0  0  0  0  0
   38.4430   33.6540   49.2170 H   0  0  0  0  0  0  0  0  0  0  0  0
   41.5230   34.7020   48.5320 H   0  0  0  0  0  0  0  0  0  0  0  0
   34.0080   29.2840   48.6420 C   0  0  0  0  0  0  0  0  0  0  0  0
   33.8400   29.6700   47.3100 C   0  0  0  0  0  0  0  0  0  0  0  0
   32.9140   28.9200   46.5530 C   0  0  0  0  0  0  0  0  0  0  0  0
   32.2410   27.8730   47.1490 N   0  0  0  0  0  0  0  0  0  0  0  0
   32.4460   27.5430   48.4530 C   0  0  0  0  0  0  0  0  0  0  0  0
   33.3130   28.2450   49.1610 N   0  0  0  0  0  0  0  0  0  0  0  0
   34.1940   30.4060   46.6190 H   0  0  0  0  0  0  0  0  0  0  0  0
   32.6110   29.0150   45.5230 H   0  0  0  0  0  0  0  0  0  0  0  0
   31.9020   26.7180   48.8880 H   0  0  0  0  0  0  0  0  0  0  0  0
  1  7  1  1  0  0  0
  1  6  1  0  0  0  0
  2  3  1  0  0  0  0
  2  9  1  0  0  0  0
  2  1  1  0  0  0  0
  3 10  1  6  0  0  0
  3  4  1  0  0  0  0
  4 11  1  0  0  0  0
  4 12  1  0  0  0  0
  4  5  1  0  0  0  0
  5 14  1  0  0  0  0
  5 13  1  0  0  0  0
  6  5  1  0  0  0  0
  6 15  1  0  0  0  0
  8  2  1  0  0  0  0
 16  6  1  0  0  0  0
 17  3  1  0  0  0  0
 18 22  1  0  0  0  0
 18 17  1  0  0  0  0
 19 24  1  0  0  0  0
 19 18  1  0  0  0  0
 20 27  1  0  0  0  0
 21 17  1  0  0  0  0
 21 31  1  0  0  0  0
 23 18  1  0  0  0  0
 25 19  1  0  0  0  0
 26 20  1  0  0  0  0
 28 21  1  0  0  0  0
 29 30  2  0  0  0  0
 30 32  1  0  0  0  0
 30 31  1  0  0  0  0
 31 35  1  0  0  0  0
 32 33  1  0  0  0  0
 32 36  1  0  0  0  0
 34 29  1  0  0  0  0
 37 42  1  0  0  0  0
 37  1  1  0  0  0  0
 38 37  2  0  0  0  0
 39 40  2  0  0  0  0
 39 38  1  0  0  0  0
 40 41  1  0  0  0  0
 41 45  1  0  0  0  0
 41 42  2  0  0  0  0
 43 38  1  0  0  0  0
 44 39  1  0  0  0  0
M  END
>  <minimizedAffinity>
-5.8605752

>  <minimizedRMSD>
0.944417477

$$$$
