
 OpenBabel03272507063D

 38 41  0  0  0  0  0  0  0  0999 V2000
   38.2850   32.5410   49.1630 C   0  0  0  0  0  0  0  0  0  0  0  0
   38.9330   32.6940   47.9320 C   0  0  0  0  0  0  0  0  0  0  0  0
   38.4490   31.9220   46.8570 C   0  0  0  0  0  0  0  0  0  0  0  0
   37.4050   31.0940   47.0700 N   0  0  0  0  0  0  0  0  0  0  0  0
   36.8100   30.9780   48.2720 C   0  0  0  0  0  0  0  0  0  0  0  0
   37.2440   31.6950   49.3140 N   0  0  0  0  0  0  0  0  0  0  0  0
   38.6730   33.1370   49.9590 H   0  0  0  0  0  0  0  0  0  0  0  0
   39.7500   33.3340   47.7450 H   0  0  0  0  0  0  0  0  0  0  0  0
   39.0050   31.9600   45.5190 C   0  0  0  0  0  0  0  0  0  0  0  0
   38.7350   32.9440   44.6000 C   0  0  0  0  0  0  0  0  0  0  0  0
   39.2540   32.9980   43.3250 C   0  0  0  0  0  0  0  0  0  0  0  0
   40.0850   32.0080   42.9630 N   0  0  0  0  0  0  0  0  0  0  0  0
   40.3700   31.0290   43.8350 C   0  0  0  0  0  0  0  0  0  0  0  0
   39.8530   31.0130   45.0480 N   0  0  0  0  0  0  0  0  0  0  0  0
   38.0630   33.7570   44.8750 H   0  0  0  0  0  0  0  0  0  0  0  0
   39.0430   33.7670   42.6080 H   0  0  0  0  0  0  0  0  0  0  0  0
   39.9640   29.5440   41.4510 N   0  0  0  0  0  0  0  0  0  0  0  0
   41.0760   29.4200   42.0950 C   0  0  0  0  0  0  0  0  0  0  0  0
   41.2600   29.9980   43.4030 N   0  0  0  0  0  0  0  0  0  0  0  0
   42.0770   28.6770   41.4090 N   0  0  0  0  0  0  0  0  0  0  0  0
   43.0520   28.4810   41.0900 H   0  0  0  0  0  0  0  0  0  0  0  0
   39.7430   29.1700   40.5240 H   0  0  0  0  0  0  0  0  0  0  0  0
   42.0340   29.6310   43.9640 H   0  0  0  0  0  0  0  0  0  0  0  0
   41.8260   27.7970   40.8770 H   0  0  0  0  0  0  0  0  0  0  0  0
   35.7200   29.0970   49.4170 C   0  0  0  0  0  0  0  0  0  0  0  0
   35.6830   30.0510   48.4040 C   0  0  0  0  0  0  0  0  0  0  0  0
   34.6120   30.1130   47.5540 C   0  0  0  0  0  0  0  0  0  0  0  0
   33.5600   29.2400   47.6870 C   0  0  0  0  0  0  0  0  0  0  0  0
   32.4090   29.0940   46.9930 N   0  0  0  0  0  0  0  0  0  0  0  0
   31.7840   28.0560   47.6090 C   0  0  0  0  0  0  0  0  0  0  0  0
   32.5150   27.5770   48.6390 N   0  0  0  0  0  0  0  0  0  0  0  0
   33.6430   28.3080   48.7110 C   0  0  0  0  0  0  0  0  0  0  0  0
   34.6790   28.2070   49.5760 C   0  0  0  0  0  0  0  0  0  0  0  0
   36.5930   29.0850   50.0710 H   0  0  0  0  0  0  0  0  0  0  0  0
   34.5810   30.8570   46.7620 H   0  0  0  0  0  0  0  0  0  0  0  0
   32.0650   29.6300   46.1850 H   0  0  0  0  0  0  0  0  0  0  0  0
   30.8140   27.6670   47.2990 H   0  0  0  0  0  0  0  0  0  0  0  0
   34.7530   27.4900   50.3710 H   0  0  0  0  0  0  0  0  0  0  0  0
  1  6  1  0  0  0  0
  1  7  1  0  0  0  0
  2  1  2  0  0  0  0
  3  4  2  0  0  0  0
  3  2  1  0  0  0  0
  4  5  1  0  0  0  0
  5 26  1  0  0  0  0
  5  6  2  0  0  0  0
  8  2  1  0  0  0  0
  9  3  1  0  0  0  0
 10 15  1  0  0  0  0
 10  9  2  0  0  0  0
 11 10  1  0  0  0  0
 12 11  2  0  0  0  0
 12 13  1  0  0  0  0
 13 14  2  0  0  0  0
 14  9  1  0  0  0  0
 16 11  1  0  0  0  0
 17 18  2  0  0  0  0
 18 19  1  0  0  0  0
 19 13  1  0  0  0  0
 19 23  1  0  0  0  0
 20 18  1  0  0  0  0
 21 20  1  0  0  0  0
 22 17  1  0  0  0  0
 24 20  1  0  0  0  0
 25 33  1  0  0  0  0
 25 34  1  0  0  0  0
 26 25  2  0  0  0  0
 27 28  2  0  0  0  0
 27 26  1  0  0  0  0
 28 32  1  0  0  0  0
 29 30  1  0  0  0  0
 29 28  1  0  0  0  0
 30 31  2  0  0  0  0
 31 32  1  0  0  0  0
 32 33  2  0  0  0  0
 33 38  1  0  0  0  0
 35 27  1  0  0  0  0
 36 29  1  0  0  0  0
 37 30  1  0  0  0  0
M  END
>  <minimizedAffinity>
-7.84170341

>  <minimizedRMSD>
0.525592923

$$$$
