
 OpenBabel03272506493D

 41 43  0  0  1  0  0  0  0  0999 V2000
   36.9460   27.9310   32.9010 C   0  0  2  0  0  0  0  0  0  0  0  0
   36.2200   29.1420   32.3910 C   0  0  1  0  0  0  0  0  0  0  0  0
   36.0430   28.9920   31.0480 O   0  0  0  0  0  0  0  0  0  0  0  0
   36.3390   27.6820   30.6870 C   0  0  0  0  0  0  0  0  0  0  0  0
   36.3350   26.8590   31.9490 C   0  0  1  0  0  0  0  0  0  0  0  0
   38.0260   27.9430   32.8090 H   0  0  0  0  0  0  0  0  0  0  0  0
   36.7170   30.0960   32.6780 H   0  0  0  0  0  0  0  0  0  0  0  0
   35.4620   27.3570   30.0530 H   0  0  0  0  0  0  0  0  0  0  0  0
   37.2610   27.7110   30.1290 H   0  0  0  0  0  0  0  0  0  0  0  0
   35.3330   26.6750   32.3200 H   0  0  0  0  0  0  0  0  0  0  0  0
   36.5670   27.6440   34.2270 O   0  0  0  0  0  0  0  0  0  0  0  0
   35.6030   27.4790   34.2200 H   0  0  0  0  0  0  0  0  0  0  0  0
   34.5610   29.1580   33.1780 S   0  0  0  0  0  0  0  0  0  0  0  0
   35.8630   31.5530   36.0500 C   0  0  0  0  0  0  0  0  0  0  0  0
   34.7290   31.9490   36.7400 C   0  0  0  0  0  0  0  0  0  0  0  0
   33.4930   31.4520   36.2960 C   0  0  0  0  0  0  0  0  0  0  0  0
   33.4790   30.6210   35.2290 N   0  0  0  0  0  0  0  0  0  0  0  0
   34.6050   30.2600   34.5860 C   0  0  0  0  0  0  0  0  0  0  0  0
   35.8210   30.7190   34.9850 N   0  0  0  0  0  0  0  0  0  0  0  0
   36.8810   31.8700   36.2990 H   0  0  0  0  0  0  0  0  0  0  0  0
   34.8690   32.6140   37.5700 H   0  0  0  0  0  0  0  0  0  0  0  0
   32.6050   31.7570   36.8330 H   0  0  0  0  0  0  0  0  0  0  0  0
   37.1810   25.7900   31.7950 O   0  0  0  0  0  0  0  0  0  0  0  0
   39.0320   24.6480   33.7750 Cl  0  0  0  0  0  0  0  0  0  0  0  0
   37.6950   23.8720   32.9580 C   0  0  0  0  0  0  0  0  0  0  0  0
   36.8880   24.5150   32.0470 C   0  0  0  0  0  0  0  0  0  0  0  0
   35.8410   23.7910   31.4740 C   0  0  0  0  0  0  0  0  0  0  0  0
   35.6270   22.4760   31.8130 C   0  0  0  0  0  0  0  0  0  0  0  0
   36.4270   21.8210   32.7220 C   0  0  0  0  0  0  0  0  0  0  0  0
   37.4700   22.5240   33.2990 C   0  0  0  0  0  0  0  0  0  0  0  0
   35.1620   24.2210   30.7580 H   0  0  0  0  0  0  0  0  0  0  0  0
   34.8180   21.9300   31.3630 H   0  0  0  0  0  0  0  0  0  0  0  0
   36.2130   20.8020   32.9490 H   0  0  0  0  0  0  0  0  0  0  0  0
   36.8590   21.6180   36.0080 N   0  0  0  0  0  0  0  0  0  0  0  0
   38.0730   21.9610   35.6520 C   0  0  0  0  0  0  0  0  0  0  0  0
   38.3250   21.9030   34.2740 N   0  0  0  0  0  0  0  0  0  0  0  0
   39.0830   22.3490   36.6000 N   0  0  0  0  0  0  0  0  0  0  0  0
   39.9020   22.1760   37.1930 H   0  0  0  0  0  0  0  0  0  0  0  0
   36.5190   21.6110   36.9810 H   0  0  0  0  0  0  0  0  0  0  0  0
   39.1930   21.3810   33.9890 H   0  0  0  0  0  0  0  0  0  0  0  0
   39.1510   23.3250   37.0070 H   0  0  0  0  0  0  0  0  0  0  0  0
  1  6  1  6  0  0  0
  1 11  1  0  0  0  0
  2  7  1  1  0  0  0
  2  1  1  0  0  0  0
  2 13  1  0  0  0  0
  3  2  1  0  0  0  0
  4  3  1  0  0  0  0
  4  5  1  0  0  0  0
  5 10  1  1  0  0  0
  5  1  1  0  0  0  0
  8  4  1  0  0  0  0
  9  4  1  0  0  0  0
 12 11  1  0  0  0  0
 13 18  1  0  0  0  0
 14 20  1  0  0  0  0
 14 15  1  0  0  0  0
 15 21  1  0  0  0  0
 16 15  2  0  0  0  0
 16 22  1  0  0  0  0
 17 16  1  0  0  0  0
 18 19  1  0  0  0  0
 18 17  2  0  0  0  0
 19 14  2  0  0  0  0
 23  5  1  0  0  0  0
 23 26  1  0  0  0  0
 25 30  1  0  0  0  0
 25 24  1  0  0  0  0
 26 25  2  0  0  0  0
 27 28  2  0  0  0  0
 27 26  1  0  0  0  0
 28 29  1  0  0  0  0
 29 33  1  0  0  0  0
 29 30  2  0  0  0  0
 30 36  1  0  0  0  0
 31 27  1  0  0  0  0
 32 28  1  0  0  0  0
 34 39  1  0  0  0  0
 35 34  2  0  0  0  0
 35 37  1  0  0  0  0
 36 35  1  0  0  0  0
 37 41  1  0  0  0  0
 37 38  1  0  0  0  0
 40 36  1  0  0  0  0
M  END
>  <minimizedAffinity>
-5.7546382

$$$$

 OpenBabel03272506493D

 41 43  0  0  1  0  0  0  0  0999 V2000
   36.5610   29.0670   32.0760 C   0  0  2  0  0  0  0  0  0  0  0  0
   37.0670   27.6560   31.9930 C   0  0  1  0  0  0  0  0  0  0  0  0
   37.1670   27.1690   33.2620 O   0  0  0  0  0  0  0  0  0  0  0  0
   36.5180   28.0310   34.1390 C   0  0  0  0  0  0  0  0  0  0  0  0
   35.6260   28.9200   33.3130 C   0  0  1  0  0  0  0  0  0  0  0  0
   37.3050   29.8350   32.2570 H   0  0  0  0  0  0  0  0  0  0  0  0
   38.0050   27.5670   31.3990 H   0  0  0  0  0  0  0  0  0  0  0  0
   35.8620   27.3570   34.7650 H   0  0  0  0  0  0  0  0  0  0  0  0
   37.2820   28.5180   34.7240 H   0  0  0  0  0  0  0  0  0  0  0  0
   34.7440   28.4020   32.9530 H   0  0  0  0  0  0  0  0  0  0  0  0
   35.7870   29.3860   30.9440 O   0  0  0  0  0  0  0  0  0  0  0  0
   35.0360   28.7610   30.9250 H   0  0  0  0  0  0  0  0  0  0  0  0
   35.7940   26.6680   31.1120 S   0  0  0  0  0  0  0  0  0  0  0  0
   37.9430   23.3610   30.7600 C   0  0  0  0  0  0  0  0  0  0  0  0
   37.0970   22.3320   31.1350 C   0  0  0  0  0  0  0  0  0  0  0  0
   35.7900   22.6730   31.5180 C   0  0  0  0  0  0  0  0  0  0  0  0
   35.4340   23.9770   31.5000 N   0  0  0  0  0  0  0  0  0  0  0  0
   36.2880   24.9490   31.1280 C   0  0  0  0  0  0  0  0  0  0  0  0
   37.5620   24.6600   30.7500 N   0  0  0  0  0  0  0  0  0  0  0  0
   38.9820   23.2230   30.4400 H   0  0  0  0  0  0  0  0  0  0  0  0
   37.4970   21.3350   31.1090 H   0  0  0  0  0  0  0  0  0  0  0  0
   35.1250   21.8720   31.8090 H   0  0  0  0  0  0  0  0  0  0  0  0
   35.4600   30.1200   33.9570 O   0  0  0  0  0  0  0  0  0  0  0  0
   36.3570   32.3050   35.7090 Cl  0  0  0  0  0  0  0  0  0  0  0  0
   34.8650   31.3950   35.7780 C   0  0  0  0  0  0  0  0  0  0  0  0
   34.5500   30.3890   34.8920 C   0  0  0  0  0  0  0  0  0  0  0  0
   33.3190   29.7470   35.0410 C   0  0  0  0  0  0  0  0  0  0  0  0
   32.4530   30.1130   36.0430 C   0  0  0  0  0  0  0  0  0  0  0  0
   32.7550   31.1160   36.9360 C   0  0  0  0  0  0  0  0  0  0  0  0
   33.9720   31.7630   36.8030 C   0  0  0  0  0  0  0  0  0  0  0  0
   32.9960   28.9550   34.3870 H   0  0  0  0  0  0  0  0  0  0  0  0
   31.5090   29.6090   36.1480 H   0  0  0  0  0  0  0  0  0  0  0  0
   32.0430   31.3600   37.6910 H   0  0  0  0  0  0  0  0  0  0  0  0
   32.5630   34.2530   37.3910 N   0  0  0  0  0  0  0  0  0  0  0  0
   33.8620   34.1460   37.5280 C   0  0  0  0  0  0  0  0  0  0  0  0
   34.3340   32.8360   37.6880 N   0  0  0  0  0  0  0  0  0  0  0  0
   34.7420   35.2840   37.5350 N   0  0  0  0  0  0  0  0  0  0  0  0
   35.3100   36.0040   37.9940 H   0  0  0  0  0  0  0  0  0  0  0  0
   32.0640   35.1460   37.2610 H   0  0  0  0  0  0  0  0  0  0  0  0
   34.9870   32.6810   38.4980 H   0  0  0  0  0  0  0  0  0  0  0  0
   35.0830   35.7570   36.6500 H   0  0  0  0  0  0  0  0  0  0  0  0
  1  6  1  1  0  0  0
  1  5  1  0  0  0  0
  2  7  1  6  0  0  0
  2  1  1  0  0  0  0
  2  3  1  0  0  0  0
  3  4  1  0  0  0  0
  4  9  1  0  0  0  0
  4  8  1  0  0  0  0
  5 10  1  6  0  0  0
  5 23  1  0  0  0  0
  5  4  1  0  0  0  0
 11  1  1  0  0  0  0
 12 11  1  0  0  0  0
 13 18  1  0  0  0  0
 13  2  1  0  0  0  0
 14 15  1  0  0  0  0
 15 16  2  0  0  0  0
 16 22  1  0  0  0  0
 17 16  1  0  0  0  0
 18 17  2  0  0  0  0
 19 14  2  0  0  0  0
 19 18  1  0  0  0  0
 20 14  1  0  0  0  0
 21 15  1  0  0  0  0
 23 26  1  0  0  0  0
 24 25  1  0  0  0  0
 25 30  1  0  0  0  0
 26 27  1  0  0  0  0
 26 25  2  0  0  0  0
 27 28  2  0  0  0  0
 28 32  1  0  0  0  0
 28 29  1  0  0  0  0
 29 33  1  0  0  0  0
 30 29  2  0  0  0  0
 30 36  1  0  0  0  0
 31 27  1  0  0  0  0
 34 35  2  0  0  0  0
 35 37  1  0  0  0  0
 35 36  1  0  0  0  0
 36 40  1  0  0  0  0
 37 38  1  0  0  0  0
 39 34  1  0  0  0  0
 41 37  1  0  0  0  0
M  END
>  <minimizedAffinity>
-5.64579773

$$$$

 OpenBabel03272506493D

 41 43  0  0  1  0  0  0  0  0999 V2000
   36.6640   28.7840   31.7840 C   0  0  2  0  0  0  0  0  0  0  0  0
   37.0260   27.3490   32.0340 C   0  0  1  0  0  0  0  0  0  0  0  0
   37.0180   27.1400   33.3800 O   0  0  0  0  0  0  0  0  0  0  0  0
   36.4200   28.2260   34.0110 C   0  0  0  0  0  0  0  0  0  0  0  0
   35.6620   28.9930   32.9590 C   0  0  1  0  0  0  0  0  0  0  0  0
   37.4730   29.5030   31.8490 H   0  0  0  0  0  0  0  0  0  0  0  0
   37.9770   27.0500   31.5350 H   0  0  0  0  0  0  0  0  0  0  0  0
   35.6710   27.7640   34.7190 H   0  0  0  0  0  0  0  0  0  0  0  0
   37.2020   28.7570   34.5310 H   0  0  0  0  0  0  0  0  0  0  0  0
   34.7500   28.4900   32.6580 H   0  0  0  0  0  0  0  0  0  0  0  0
   35.9800   28.9200   30.5610 O   0  0  0  0  0  0  0  0  0  0  0  0
   35.1700   28.3760   30.6240 H   0  0  0  0  0  0  0  0  0  0  0  0
   35.7010   26.3130   31.2970 S   0  0  0  0  0  0  0  0  0  0  0  0
   35.8630   22.3610   31.4770 C   0  0  0  0  0  0  0  0  0  0  0  0
   37.1320   22.0250   31.0390 C   0  0  0  0  0  0  0  0  0  0  0  0
   37.9890   23.0730   30.6650 C   0  0  0  0  0  0  0  0  0  0  0  0
   37.5290   24.3420   30.7550 N   0  0  0  0  0  0  0  0  0  0  0  0
   36.2860   24.6260   31.1870 C   0  0  0  0  0  0  0  0  0  0  0  0
   35.4270   23.6390   31.5580 N   0  0  0  0  0  0  0  0  0  0  0  0
   35.1070   21.6350   31.7960 H   0  0  0  0  0  0  0  0  0  0  0  0
   37.3800   20.9800   31.0110 H   0  0  0  0  0  0  0  0  0  0  0  0
   38.9820   22.8160   30.3240 H   0  0  0  0  0  0  0  0  0  0  0  0
   35.5910   30.3130   33.3240 O   0  0  0  0  0  0  0  0  0  0  0  0
   32.6930   29.8510   33.5110 Cl  0  0  0  0  0  0  0  0  0  0  0  0
   33.7490   30.6290   34.6670 C   0  0  0  0  0  0  0  0  0  0  0  0
   35.1030   30.7840   34.4710 C   0  0  0  0  0  0  0  0  0  0  0  0
   35.8430   31.4080   35.4770 C   0  0  0  0  0  0  0  0  0  0  0  0
   35.2330   31.8520   36.6260 C   0  0  0  0  0  0  0  0  0  0  0  0
   33.8800   31.7040   36.8340 C   0  0  0  0  0  0  0  0  0  0  0  0
   33.1310   31.0870   35.8460 C   0  0  0  0  0  0  0  0  0  0  0  0
   36.9060   31.5630   35.4040 H   0  0  0  0  0  0  0  0  0  0  0  0
   35.8140   32.3330   37.3920 H   0  0  0  0  0  0  0  0  0  0  0  0
   33.4610   32.0650   37.7460 H   0  0  0  0  0  0  0  0  0  0  0  0
   31.7080   29.4240   37.7800 N   0  0  0  0  0  0  0  0  0  0  0  0
   31.1850   29.7330   36.6190 C   0  0  0  0  0  0  0  0  0  0  0  0
   31.7190   30.8810   36.0160 N   0  0  0  0  0  0  0  0  0  0  0  0
   30.1290   28.9690   36.0100 N   0  0  0  0  0  0  0  0  0  0  0  0
   29.1490   28.7780   35.7780 H   0  0  0  0  0  0  0  0  0  0  0  0
   31.4260   28.6090   38.3460 H   0  0  0  0  0  0  0  0  0  0  0  0
   31.0170   31.5890   35.6800 H   0  0  0  0  0  0  0  0  0  0  0  0
   30.3010   28.0780   35.4620 H   0  0  0  0  0  0  0  0  0  0  0  0
  1  6  1  1  0  0  0
  1  2  1  0  0  0  0
  1  5  1  0  0  0  0
  2  7  1  6  0  0  0
  2  3  1  0  0  0  0
  3  4  1  0  0  0  0
  4  9  1  0  0  0  0
  4  8  1  0  0  0  0
  5 10  1  6  0  0  0
  5 23  1  0  0  0  0
  5  4  1  0  0  0  0
 11 12  1  0  0  0  0
 11  1  1  0  0  0  0
 13  2  1  0  0  0  0
 14 19  1  0  0  0  0
 14 20  1  0  0  0  0
 15 14  2  0  0  0  0
 16 17  2  0  0  0  0
 16 15  1  0  0  0  0
 17 18  1  0  0  0  0
 18 13  1  0  0  0  0
 18 19  2  0  0  0  0
 21 15  1  0  0  0  0
 22 16  1  0  0  0  0
 23 26  1  0  0  0  0
 24 25  1  0  0  0  0
 25 30  1  0  0  0  0
 26 25  2  0  0  0  0
 26 27  1  0  0  0  0
 27 28  2  0  0  0  0
 28 29  1  0  0  0  0
 28 32  1  0  0  0  0
 29 33  1  0  0  0  0
 30 36  1  0  0  0  0
 30 29  2  0  0  0  0
 31 27  1  0  0  0  0
 34 39  1  0  0  0  0
 35 34  2  0  0  0  0
 36 35  1  0  0  0  0
 37 35  1  0  0  0  0
 38 37  1  0  0  0  0
 40 36  1  0  0  0  0
 41 37  1  0  0  0  0
M  END
>  <minimizedAffinity>
-5.63703203

$$$$

 OpenBabel03272506493D

 41 43  0  0  1  0  0  0  0  0999 V2000
   38.4520   24.1760   32.2900 C   0  0  2  0  0  0  0  0  0  0  0  0
   39.2110   23.2860   33.2310 C   0  0  1  0  0  0  0  0  0  0  0  0
   40.0200   24.0730   33.9940 O   0  0  0  0  0  0  0  0  0  0  0  0
   39.6570   25.4050   33.8280 C   0  0  0  0  0  0  0  0  0  0  0  0
   38.2830   25.4200   33.2110 C   0  0  1  0  0  0  0  0  0  0  0  0
   38.9600   24.4530   31.3740 H   0  0  0  0  0  0  0  0  0  0  0  0
   39.7460   22.4600   32.7080 H   0  0  0  0  0  0  0  0  0  0  0  0
   39.5760   25.8100   34.8790 H   0  0  0  0  0  0  0  0  0  0  0  0
   40.4470   25.8780   33.2660 H   0  0  0  0  0  0  0  0  0  0  0  0
   37.5070   25.1560   33.9220 H   0  0  0  0  0  0  0  0  0  0  0  0
   37.1830   23.6330   32.0060 O   0  0  0  0  0  0  0  0  0  0  0  0
   36.7060   23.5590   32.8550 H   0  0  0  0  0  0  0  0  0  0  0  0
   37.9850   22.4930   34.3450 S   0  0  0  0  0  0  0  0  0  0  0  0
   37.8890   23.8890   38.0490 C   0  0  0  0  0  0  0  0  0  0  0  0
   39.0620   23.4470   38.6380 C   0  0  0  0  0  0  0  0  0  0  0  0
   39.9320   22.6740   37.8520 C   0  0  0  0  0  0  0  0  0  0  0  0
   39.5790   22.4090   36.5740 N   0  0  0  0  0  0  0  0  0  0  0  0
   38.4290   22.8580   36.0390 C   0  0  0  0  0  0  0  0  0  0  0  0
   37.5600   23.6080   36.7670 N   0  0  0  0  0  0  0  0  0  0  0  0
   37.1330   24.4970   38.5570 H   0  0  0  0  0  0  0  0  0  0  0  0
   39.2290   23.7220   39.6630 H   0  0  0  0  0  0  0  0  0  0  0  0
   40.8500   22.3290   38.3080 H   0  0  0  0  0  0  0  0  0  0  0  0
   38.1300   26.5680   32.4750 O   0  0  0  0  0  0  0  0  0  0  0  0
   37.4520   28.0180   30.0080 Cl  0  0  0  0  0  0  0  0  0  0  0  0
   36.8680   28.2980   31.6330 C   0  0  0  0  0  0  0  0  0  0  0  0
   37.2560   27.5440   32.7170 C   0  0  0  0  0  0  0  0  0  0  0  0
   36.7060   27.8560   33.9620 C   0  0  0  0  0  0  0  0  0  0  0  0
   35.8060   28.8860   34.0940 C   0  0  0  0  0  0  0  0  0  0  0  0
   35.4100   29.6480   33.0180 C   0  0  0  0  0  0  0  0  0  0  0  0
   35.9460   29.3520   31.7760 C   0  0  0  0  0  0  0  0  0  0  0  0
   36.9530   27.3120   34.8570 H   0  0  0  0  0  0  0  0  0  0  0  0
   35.3910   29.1170   35.0590 H   0  0  0  0  0  0  0  0  0  0  0  0
   34.7060   30.4330   33.1790 H   0  0  0  0  0  0  0  0  0  0  0  0
   37.0660   31.8110   30.6670 N   0  0  0  0  0  0  0  0  0  0  0  0
   35.8200   31.4630   30.4550 C   0  0  0  0  0  0  0  0  0  0  0  0
   35.5540   30.0960   30.6100 N   0  0  0  0  0  0  0  0  0  0  0  0
   34.8020   32.4040   30.0720 N   0  0  0  0  0  0  0  0  0  0  0  0
   34.2030   32.8840   29.3920 H   0  0  0  0  0  0  0  0  0  0  0  0
   37.4200   32.7770   30.5950 H   0  0  0  0  0  0  0  0  0  0  0  0
   35.0320   29.6390   29.8180 H   0  0  0  0  0  0  0  0  0  0  0  0
   34.2930   33.0210   30.7670 H   0  0  0  0  0  0  0  0  0  0  0  0
  1  6  1  6  0  0  0
  1  5  1  0  0  0  0
  1  2  1  0  0  0  0
  2  7  1  6  0  0  0
  2  3  1  0  0  0  0
  2 13  1  0  0  0  0
  4  3  1  0  0  0  0
  4  8  1  0  0  0  0
  5  4  1  0  0  0  0
  5 10  1  1  0  0  0
  9  4  1  0  0  0  0
 11  1  1  0  0  0  0
 11 12  1  0  0  0  0
 13 18  1  0  0  0  0
 14 20  1  0  0  0  0
 14 15  1  0  0  0  0
 15 21  1  0  0  0  0
 16 22  1  0  0  0  0
 16 15  2  0  0  0  0
 17 16  1  0  0  0  0
 18 17  2  0  0  0  0
 18 19  1  0  0  0  0
 19 14  2  0  0  0  0
 23 26  1  0  0  0  0
 23  5  1  0  0  0  0
 24 25  1  0  0  0  0
 25 30  2  0  0  0  0
 25 26  1  0  0  0  0
 26 27  2  0  0  0  0
 27 28  1  0  0  0  0
 27 31  1  0  0  0  0
 28 32  1  0  0  0  0
 29 33  1  0  0  0  0
 29 28  2  0  0  0  0
 30 29  1  0  0  0  0
 35 36  1  0  0  0  0
 35 34  2  0  0  0  0
 36 30  1  0  0  0  0
 37 35  1  0  0  0  0
 37 41  1  0  0  0  0
 38 37  1  0  0  0  0
 39 34  1  0  0  0  0
 40 36  1  0  0  0  0
M  END
>  <minimizedAffinity>
-5.34075832

$$$$

 OpenBabel03272506493D

 41 43  0  0  1  0  0  0  0  0999 V2000
   38.9750   24.1380   32.3870 C   0  0  2  0  0  0  0  0  0  0  0  0
   39.6470   23.0620   33.1900 C   0  0  1  0  0  0  0  0  0  0  0  0
   40.5350   23.6590   34.0340 O   0  0  0  0  0  0  0  0  0  0  0  0
   40.3060   25.0310   34.0480 C   0  0  0  0  0  0  0  0  0  0  0  0
   38.9370   25.2620   33.4650 C   0  0  1  0  0  0  0  0  0  0  0  0
   39.5030   24.4810   31.5050 H   0  0  0  0  0  0  0  0  0  0  0  0
   40.0930   22.2630   32.5550 H   0  0  0  0  0  0  0  0  0  0  0  0
   40.2720   25.3000   35.1450 H   0  0  0  0  0  0  0  0  0  0  0  0
   41.1360   25.4930   33.5370 H   0  0  0  0  0  0  0  0  0  0  0  0
   38.1430   24.9840   34.1490 H   0  0  0  0  0  0  0  0  0  0  0  0
   37.6570   23.7650   32.0590 O   0  0  0  0  0  0  0  0  0  0  0  0
   37.1800   23.6270   32.9000 H   0  0  0  0  0  0  0  0  0  0  0  0
   38.3540   22.2540   34.2150 S   0  0  0  0  0  0  0  0  0  0  0  0
   37.8670   23.7690   37.8410 C   0  0  0  0  0  0  0  0  0  0  0  0
   38.9910   23.3880   38.5520 C   0  0  0  0  0  0  0  0  0  0  0  0
   39.9560   22.6200   37.8790 C   0  0  0  0  0  0  0  0  0  0  0  0
   39.7330   22.2990   36.5850 N   0  0  0  0  0  0  0  0  0  0  0  0
   38.6250   22.6910   35.9280 C   0  0  0  0  0  0  0  0  0  0  0  0
   37.6680   23.4350   36.5440 N   0  0  0  0  0  0  0  0  0  0  0  0
   37.0470   24.3680   38.2530 H   0  0  0  0  0  0  0  0  0  0  0  0
   39.0530   23.7030   39.5770 H   0  0  0  0  0  0  0  0  0  0  0  0
   40.8370   22.3210   38.4300 H   0  0  0  0  0  0  0  0  0  0  0  0
   38.8950   26.5050   32.8870 O   0  0  0  0  0  0  0  0  0  0  0  0
   37.8380   27.8490   35.2790 Cl  0  0  0  0  0  0  0  0  0  0  0  0
   37.2060   27.8690   33.6490 C   0  0  0  0  0  0  0  0  0  0  0  0
   37.7950   27.2000   32.6000 C   0  0  0  0  0  0  0  0  0  0  0  0
   37.2030   27.3080   31.3400 C   0  0  0  0  0  0  0  0  0  0  0  0
   36.0680   28.0600   31.1590 C   0  0  0  0  0  0  0  0  0  0  0  0
   35.4680   28.7330   32.1990 C   0  0  0  0  0  0  0  0  0  0  0  0
   36.0420   28.6370   33.4550 C   0  0  0  0  0  0  0  0  0  0  0  0
   37.6050   26.8200   30.4680 H   0  0  0  0  0  0  0  0  0  0  0  0
   35.6220   28.1330   30.1830 H   0  0  0  0  0  0  0  0  0  0  0  0
   34.5900   29.3050   31.9990 H   0  0  0  0  0  0  0  0  0  0  0  0
   35.6120   31.5010   33.8420 N   0  0  0  0  0  0  0  0  0  0  0  0
   35.7620   30.6820   34.8550 C   0  0  0  0  0  0  0  0  0  0  0  0
   35.4770   29.3380   34.5760 N   0  0  0  0  0  0  0  0  0  0  0  0
   36.1670   31.1240   36.1620 N   0  0  0  0  0  0  0  0  0  0  0  0
   35.9930   31.4080   37.1310 H   0  0  0  0  0  0  0  0  0  0  0  0
   35.7850   32.5160   33.8850 H   0  0  0  0  0  0  0  0  0  0  0  0
   34.8250   28.8600   35.2500 H   0  0  0  0  0  0  0  0  0  0  0  0
   37.1790   31.3030   36.4240 H   0  0  0  0  0  0  0  0  0  0  0  0
  1  6  1  6  0  0  0
  1  2  1  0  0  0  0
  1  5  1  0  0  0  0
  2  7  1  6  0  0  0
  2  3  1  0  0  0  0
  2 13  1  0  0  0  0
  3  4  1  0  0  0  0
  4  8  1  0  0  0  0
  5  4  1  0  0  0  0
  5 10  1  1  0  0  0
  9  4  1  0  0  0  0
 11  1  1  0  0  0  0
 11 12  1  0  0  0  0
 13 18  1  0  0  0  0
 14 20  1  0  0  0  0
 14 15  1  0  0  0  0
 15 21  1  0  0  0  0
 16 22  1  0  0  0  0
 16 15  2  0  0  0  0
 17 16  1  0  0  0  0
 18 19  1  0  0  0  0
 18 17  2  0  0  0  0
 19 14  2  0  0  0  0
 23  5  1  0  0  0  0
 25 24  1  0  0  0  0
 26 23  1  0  0  0  0
 26 25  2  0  0  0  0
 27 26  1  0  0  0  0
 28 27  2  0  0  0  0
 28 29  1  0  0  0  0
 29 30  2  0  0  0  0
 30 25  1  0  0  0  0
 30 36  1  0  0  0  0
 31 27  1  0  0  0  0
 32 28  1  0  0  0  0
 33 29  1  0  0  0  0
 34 39  1  0  0  0  0
 34 35  2  0  0  0  0
 35 37  1  0  0  0  0
 36 35  1  0  0  0  0
 36 40  1  0  0  0  0
 37 41  1  0  0  0  0
 37 38  1  0  0  0  0
M  END
>  <minimizedAffinity>
-5.24736929

$$$$

 OpenBabel03272506493D

 41 43  0  0  1  0  0  0  0  0999 V2000
   37.6380   27.8570   30.7650 C   0  0  2  0  0  0  0  0  0  0  0  0
   38.8970   28.4240   30.1750 C   0  0  1  0  0  0  0  0  0  0  0  0
   39.9540   27.8990   30.8550 O   0  0  0  0  0  0  0  0  0  0  0  0
   39.5160   26.8420   31.6450 C   0  0  0  0  0  0  0  0  0  0  0  0
   38.1580   26.4350   31.1340 C   0  0  1  0  0  0  0  0  0  0  0  0
   37.2520   28.3560   31.6460 H   0  0  0  0  0  0  0  0  0  0  0  0
   38.8920   29.5370   30.1340 H   0  0  0  0  0  0  0  0  0  0  0  0
   40.2410   26.0040   31.4250 H   0  0  0  0  0  0  0  0  0  0  0  0
   39.5700   27.1720   32.6710 H   0  0  0  0  0  0  0  0  0  0  0  0
   38.2140   25.8920   30.1980 H   0  0  0  0  0  0  0  0  0  0  0  0
   36.6350   27.7430   29.7830 O   0  0  0  0  0  0  0  0  0  0  0  0
   36.9780   27.1460   29.0900 H   0  0  0  0  0  0  0  0  0  0  0  0
   39.0010   27.8370   28.4380 S   0  0  0  0  0  0  0  0  0  0  0  0
   38.3860   31.3530   26.7220 C   0  0  0  0  0  0  0  0  0  0  0  0
   39.3540   31.4550   25.7380 C   0  0  0  0  0  0  0  0  0  0  0  0
   40.2490   30.3820   25.5930 C   0  0  0  0  0  0  0  0  0  0  0  0
   40.1140   29.3180   26.4160 N   0  0  0  0  0  0  0  0  0  0  0  0
   39.1580   29.2570   27.3620 C   0  0  0  0  0  0  0  0  0  0  0  0
   38.2730   30.2750   27.5330 N   0  0  0  0  0  0  0  0  0  0  0  0
   37.6330   32.1200   26.9320 H   0  0  0  0  0  0  0  0  0  0  0  0
   39.3600   32.3530   25.1490 H   0  0  0  0  0  0  0  0  0  0  0  0
   41.0050   30.4570   24.8240 H   0  0  0  0  0  0  0  0  0  0  0  0
   37.4320   25.8910   32.1620 O   0  0  0  0  0  0  0  0  0  0  0  0
   38.7110   23.4650   33.2220 Cl  0  0  0  0  0  0  0  0  0  0  0  0
   38.2920   24.9350   34.0710 C   0  0  0  0  0  0  0  0  0  0  0  0
   37.6960   26.0160   33.4620 C   0  0  0  0  0  0  0  0  0  0  0  0
   37.4260   27.1410   34.2440 C   0  0  0  0  0  0  0  0  0  0  0  0
   37.7480   27.1620   35.5800 C   0  0  0  0  0  0  0  0  0  0  0  0
   38.3430   26.0880   36.2010 C   0  0  0  0  0  0  0  0  0  0  0  0
   38.6180   24.9640   35.4400 C   0  0  0  0  0  0  0  0  0  0  0  0
   36.9670   28.0290   33.8440 H   0  0  0  0  0  0  0  0  0  0  0  0
   37.5320   28.0340   36.1710 H   0  0  0  0  0  0  0  0  0  0  0  0
   38.5740   26.1610   37.2390 H   0  0  0  0  0  0  0  0  0  0  0  0
   37.4540   22.6840   36.8470 N   0  0  0  0  0  0  0  0  0  0  0  0
   38.6870   23.0720   37.0620 C   0  0  0  0  0  0  0  0  0  0  0  0
   39.2620   23.8200   36.0250 N   0  0  0  0  0  0  0  0  0  0  0  0
   39.4110   22.7410   38.2600 N   0  0  0  0  0  0  0  0  0  0  0  0
   40.0760   22.1850   38.8090 H   0  0  0  0  0  0  0  0  0  0  0  0
   36.8940   22.1310   37.5130 H   0  0  0  0  0  0  0  0  0  0  0  0
   40.2100   23.4990   35.7010 H   0  0  0  0  0  0  0  0  0  0  0  0
   39.3040   23.2780   39.1680 H   0  0  0  0  0  0  0  0  0  0  0  0
  1  5  1  0  0  0  0
  1  6  1  1  0  0  0
  2  7  1  1  0  0  0
  2  1  1  0  0  0  0
  2  3  1  0  0  0  0
  3  4  1  0  0  0  0
  4  9  1  0  0  0  0
  5 10  1  6  0  0  0
  5  4  1  0  0  0  0
  5 23  1  0  0  0  0
  8  4  1  0  0  0  0
 11  1  1  0  0  0  0
 12 11  1  0  0  0  0
 13  2  1  0  0  0  0
 14 20  1  0  0  0  0
 14 19  1  0  0  0  0
 15 14  2  0  0  0  0
 16 15  1  0  0  0  0
 16 17  2  0  0  0  0
 17 18  1  0  0  0  0
 18 19  2  0  0  0  0
 18 13  1  0  0  0  0
 21 15  1  0  0  0  0
 22 16  1  0  0  0  0
 23 26  1  0  0  0  0
 24 25  1  0  0  0  0
 25 30  1  0  0  0  0
 26 25  2  0  0  0  0
 26 27  1  0  0  0  0
 27 28  2  0  0  0  0
 28 32  1  0  0  0  0
 28 29  1  0  0  0  0
 29 33  1  0  0  0  0
 30 36  1  0  0  0  0
 30 29  2  0  0  0  0
 31 27  1  0  0  0  0
 34 35  2  0  0  0  0
 34 39  1  0  0  0  0
 35 37  1  0  0  0  0
 36 35  1  0  0  0  0
 37 38  1  0  0  0  0
 37 41  1  0  0  0  0
 40 36  1  0  0  0  0
M  END
>  <minimizedAffinity>
-5.23436689

$$$$

 OpenBabel03272506493D

 41 43  0  0  1  0  0  0  0  0999 V2000
   36.9880   25.5620   32.7570 C   0  0  2  0  0  0  0  0  0  0  0  0
   37.8700   24.3620   32.9460 C   0  0  1  0  0  0  0  0  0  0  0  0
   38.3350   23.9850   31.7220 O   0  0  0  0  0  0  0  0  0  0  0  0
   38.0600   24.9850   30.7960 C   0  0  0  0  0  0  0  0  0  0  0  0
   37.7410   26.2360   31.5710 C   0  0  1  0  0  0  0  0  0  0  0  0
   35.9580   25.3650   32.4850 H   0  0  0  0  0  0  0  0  0  0  0  0
   37.3710   23.5440   33.5130 H   0  0  0  0  0  0  0  0  0  0  0  0
   39.0390   25.1460   30.2550 H   0  0  0  0  0  0  0  0  0  0  0  0
   37.2880   24.6070   30.1440 H   0  0  0  0  0  0  0  0  0  0  0  0
   38.6240   26.6910   32.0050 H   0  0  0  0  0  0  0  0  0  0  0  0
   37.0480   26.4060   33.8840 O   0  0  0  0  0  0  0  0  0  0  0  0
   37.9780   26.6870   33.9830 H   0  0  0  0  0  0  0  0  0  0  0  0
   39.3110   24.8930   33.9540 S   0  0  0  0  0  0  0  0  0  0  0  0
   37.9070   24.2300   37.5970 C   0  0  0  0  0  0  0  0  0  0  0  0
   38.7740   23.3100   38.1620 C   0  0  0  0  0  0  0  0  0  0  0  0
   39.8520   22.8670   37.3780 C   0  0  0  0  0  0  0  0  0  0  0  0
   39.9820   23.3600   36.1260 N   0  0  0  0  0  0  0  0  0  0  0  0
   39.1170   24.2550   35.6130 C   0  0  0  0  0  0  0  0  0  0  0  0
   38.0610   24.7090   36.3400 N   0  0  0  0  0  0  0  0  0  0  0  0
   37.0330   24.6510   38.1060 H   0  0  0  0  0  0  0  0  0  0  0  0
   38.5630   22.9920   39.1650 H   0  0  0  0  0  0  0  0  0  0  0  0
   40.5320   22.1500   37.8160 H   0  0  0  0  0  0  0  0  0  0  0  0
   36.8980   27.0250   30.8310 O   0  0  0  0  0  0  0  0  0  0  0  0
   38.3290   28.2460   28.5710 Cl  0  0  0  0  0  0  0  0  0  0  0  0
   37.4650   29.0370   29.8690 C   0  0  0  0  0  0  0  0  0  0  0  0
   36.8230   28.3540   30.8780 C   0  0  0  0  0  0  0  0  0  0  0  0
   36.1530   29.1000   31.8490 C   0  0  0  0  0  0  0  0  0  0  0  0
   36.1370   30.4730   31.7960 C   0  0  0  0  0  0  0  0  0  0  0  0
   36.7760   31.1680   30.7940 C   0  0  0  0  0  0  0  0  0  0  0  0
   37.4460   30.4440   29.8220 C   0  0  0  0  0  0  0  0  0  0  0  0
   35.6220   28.6420   32.6670 H   0  0  0  0  0  0  0  0  0  0  0  0
   35.6190   31.0340   32.5520 H   0  0  0  0  0  0  0  0  0  0  0  0
   36.7280   32.2330   30.8000 H   0  0  0  0  0  0  0  0  0  0  0  0
   36.3370   32.1330   27.7120 N   0  0  0  0  0  0  0  0  0  0  0  0
   37.4550   31.4690   27.5490 C   0  0  0  0  0  0  0  0  0  0  0  0
   38.1100   31.1120   28.7360 N   0  0  0  0  0  0  0  0  0  0  0  0
   37.9880   31.1460   26.2530 N   0  0  0  0  0  0  0  0  0  0  0  0
   38.6070   31.2970   25.4490 H   0  0  0  0  0  0  0  0  0  0  0  0
   35.7390   32.4640   26.9400 H   0  0  0  0  0  0  0  0  0  0  0  0
   39.1330   31.3530   28.7840 H   0  0  0  0  0  0  0  0  0  0  0  0
   37.6560   30.3180   25.6800 H   0  0  0  0  0  0  0  0  0  0  0  0
  1  6  1  6  0  0  0
  1  2  1  0  0  0  0
  1 11  1  0  0  0  0
  2  7  1  1  0  0  0
  2 13  1  0  0  0  0
  3  2  1  0  0  0  0
  4  5  1  0  0  0  0
  4  3  1  0  0  0  0
  5 10  1  1  0  0  0
  5  1  1  0  0  0  0
  8  4  1  0  0  0  0
  9  4  1  0  0  0  0
 11 12  1  0  0  0  0
 13 18  1  0  0  0  0
 14 20  1  0  0  0  0
 14 15  1  0  0  0  0
 15 21  1  0  0  0  0
 16 22  1  0  0  0  0
 16 15  2  0  0  0  0
 17 16  1  0  0  0  0
 18 17  2  0  0  0  0
 18 19  1  0  0  0  0
 19 14  2  0  0  0  0
 23 26  1  0  0  0  0
 23  5  1  0  0  0  0
 24 25  1  0  0  0  0
 25 26  1  0  0  0  0
 26 27  2  0  0  0  0
 27 31  1  0  0  0  0
 28 27  1  0  0  0  0
 28 32  1  0  0  0  0
 29 33  1  0  0  0  0
 29 28  2  0  0  0  0
 30 25  2  0  0  0  0
 30 29  1  0  0  0  0
 35 34  2  0  0  0  0
 35 36  1  0  0  0  0
 36 40  1  0  0  0  0
 36 30  1  0  0  0  0
 37 35  1  0  0  0  0
 38 37  1  0  0  0  0
 39 34  1  0  0  0  0
 41 37  1  0  0  0  0
M  END
>  <minimizedAffinity>
-5.19501305

$$$$

 OpenBabel03272506493D

 41 43  0  0  1  0  0  0  0  0999 V2000
   36.9970   24.9100   30.8490 C   0  0  2  0  0  0  0  0  0  0  0  0
   37.2070   23.4390   31.0620 C   0  0  1  0  0  0  0  0  0  0  0  0
   38.1730   23.2850   32.0110 O   0  0  0  0  0  0  0  0  0  0  0  0
   38.4130   24.5080   32.6280 C   0  0  0  0  0  0  0  0  0  0  0  0
   37.2480   25.4080   32.3030 C   0  0  1  0  0  0  0  0  0  0  0  0
   37.6780   25.3990   30.1620 H   0  0  0  0  0  0  0  0  0  0  0  0
   37.4120   22.8900   30.1150 H   0  0  0  0  0  0  0  0  0  0  0  0
   38.3830   24.2790   33.7330 H   0  0  0  0  0  0  0  0  0  0  0  0
   39.3870   24.8390   32.3030 H   0  0  0  0  0  0  0  0  0  0  0  0
   36.3560   25.1460   32.8610 H   0  0  0  0  0  0  0  0  0  0  0  0
   35.6600   25.1750   30.4920 O   0  0  0  0  0  0  0  0  0  0  0  0
   35.0990   24.8590   31.2280 H   0  0  0  0  0  0  0  0  0  0  0  0
   35.6430   22.7530   31.7370 S   0  0  0  0  0  0  0  0  0  0  0  0
   36.4030   19.0010   30.7230 C   0  0  0  0  0  0  0  0  0  0  0  0
   35.9910   18.2390   31.8030 C   0  0  0  0  0  0  0  0  0  0  0  0
   35.4490   18.9160   32.9070 C   0  0  0  0  0  0  0  0  0  0  0  0
   35.3600   20.2640   32.8530 N   0  0  0  0  0  0  0  0  0  0  0  0
   35.7720   20.9690   31.7830 C   0  0  0  0  0  0  0  0  0  0  0  0
   36.3020   20.3500   30.6950 N   0  0  0  0  0  0  0  0  0  0  0  0
   36.8390   18.5900   29.8060 H   0  0  0  0  0  0  0  0  0  0  0  0
   36.1150   17.1750   31.7270 H   0  0  0  0  0  0  0  0  0  0  0  0
   35.1250   18.3250   33.7520 H   0  0  0  0  0  0  0  0  0  0  0  0
   37.6670   26.7140   32.3170 O   0  0  0  0  0  0  0  0  0  0  0  0
   37.0100   28.3050   29.9330 Cl  0  0  0  0  0  0  0  0  0  0  0  0
   36.5600   28.5980   31.5970 C   0  0  0  0  0  0  0  0  0  0  0  0
   36.9250   27.7720   32.6370 C   0  0  0  0  0  0  0  0  0  0  0  0
   36.4880   28.1050   33.9210 C   0  0  0  0  0  0  0  0  0  0  0  0
   35.7190   29.2230   34.1340 C   0  0  0  0  0  0  0  0  0  0  0  0
   35.3480   30.0570   33.1040 C   0  0  0  0  0  0  0  0  0  0  0  0
   35.7720   29.7420   31.8240 C   0  0  0  0  0  0  0  0  0  0  0  0
   36.7260   27.5100   34.7860 H   0  0  0  0  0  0  0  0  0  0  0  0
   35.3910   29.4690   35.1280 H   0  0  0  0  0  0  0  0  0  0  0  0
   34.7470   30.9090   33.3270 H   0  0  0  0  0  0  0  0  0  0  0  0
   37.1720   32.0000   30.6080 N   0  0  0  0  0  0  0  0  0  0  0  0
   35.8700   31.8670   30.5220 C   0  0  0  0  0  0  0  0  0  0  0  0
   35.3960   30.5600   30.7030 N   0  0  0  0  0  0  0  0  0  0  0  0
   34.9910   32.9700   30.2430 N   0  0  0  0  0  0  0  0  0  0  0  0
   34.4160   33.5540   29.6260 H   0  0  0  0  0  0  0  0  0  0  0  0
   37.6720   32.8950   30.5020 H   0  0  0  0  0  0  0  0  0  0  0  0
   34.7300   30.2100   29.9670 H   0  0  0  0  0  0  0  0  0  0  0  0
   34.6630   33.6510   30.9850 H   0  0  0  0  0  0  0  0  0  0  0  0
  1  6  1  6  0  0  0
  1  2  1  0  0  0  0
  1  5  1  0  0  0  0
  2  7  1  6  0  0  0
  2 13  1  0  0  0  0
  2  3  1  0  0  0  0
  3  4  1  0  0  0  0
  4  8  1  0  0  0  0
  5 23  1  0  0  0  0
  5  4  1  0  0  0  0
  5 10  1  1  0  0  0
  9  4  1  0  0  0  0
 11  1  1  0  0  0  0
 11 12  1  0  0  0  0
 13 18  1  0  0  0  0
 14 15  1  0  0  0  0
 15 16  2  0  0  0  0
 16 22  1  0  0  0  0
 17 16  1  0  0  0  0
 18 17  2  0  0  0  0
 19 14  2  0  0  0  0
 19 18  1  0  0  0  0
 20 14  1  0  0  0  0
 21 15  1  0  0  0  0
 23 26  1  0  0  0  0
 24 25  1  0  0  0  0
 25 30  2  0  0  0  0
 25 26  1  0  0  0  0
 26 27  2  0  0  0  0
 27 28  1  0  0  0  0
 27 31  1  0  0  0  0
 28 32  1  0  0  0  0
 29 33  1  0  0  0  0
 29 28  2  0  0  0  0
 30 29  1  0  0  0  0
 35 34  2  0  0  0  0
 35 36  1  0  0  0  0
 36 30  1  0  0  0  0
 37 35  1  0  0  0  0
 37 41  1  0  0  0  0
 38 37  1  0  0  0  0
 39 34  1  0  0  0  0
 40 36  1  0  0  0  0
M  END
>  <minimizedAffinity>
-5.17914581

$$$$

 OpenBabel03272506493D

 41 43  0  0  1  0  0  0  0  0999 V2000
   37.0390   27.9170   32.6980 C   0  0  2  0  0  0  0  0  0  0  0  0
   36.3530   29.1130   32.1030 C   0  0  1  0  0  0  0  0  0  0  0  0
   36.2170   28.8970   30.7640 O   0  0  0  0  0  0  0  0  0  0  0  0
   36.5010   27.5650   30.4810 C   0  0  0  0  0  0  0  0  0  0  0  0
   36.4400   26.8090   31.7820 C   0  0  1  0  0  0  0  0  0  0  0  0
   38.1220   27.9070   32.6420 H   0  0  0  0  0  0  0  0  0  0  0  0
   36.8580   30.0730   32.3580 H   0  0  0  0  0  0  0  0  0  0  0  0
   35.6400   27.2240   29.8350 H   0  0  0  0  0  0  0  0  0  0  0  0
   37.4410   27.5500   29.9530 H   0  0  0  0  0  0  0  0  0  0  0  0
   35.4230   26.6610   32.1280 H   0  0  0  0  0  0  0  0  0  0  0  0
   36.6110   27.7060   34.0230 O   0  0  0  0  0  0  0  0  0  0  0  0
   35.6460   27.5570   33.9920 H   0  0  0  0  0  0  0  0  0  0  0  0
   34.6690   29.1980   32.8320 S   0  0  0  0  0  0  0  0  0  0  0  0
   31.7230   31.5030   31.5340 C   0  0  0  0  0  0  0  0  0  0  0  0
   32.3390   32.5330   30.8430 C   0  0  0  0  0  0  0  0  0  0  0  0
   33.7420   32.5190   30.7730 C   0  0  0  0  0  0  0  0  0  0  0  0
   34.4060   31.5080   31.3780 N   0  0  0  0  0  0  0  0  0  0  0  0
   33.7680   30.5240   32.0400 C   0  0  0  0  0  0  0  0  0  0  0  0
   32.4120   30.5020   32.1310 N   0  0  0  0  0  0  0  0  0  0  0  0
   30.6390   31.4020   31.6570 H   0  0  0  0  0  0  0  0  0  0  0  0
   31.7030   33.2790   30.4070 H   0  0  0  0  0  0  0  0  0  0  0  0
   34.2270   33.3200   30.2330 H   0  0  0  0  0  0  0  0  0  0  0  0
   37.2710   25.7190   31.7110 O   0  0  0  0  0  0  0  0  0  0  0  0
   39.1010   24.5770   33.7100 Cl  0  0  0  0  0  0  0  0  0  0  0  0
   37.7340   23.8190   32.9240 C   0  0  0  0  0  0  0  0  0  0  0  0
   36.9410   24.4610   32.0010 C   0  0  0  0  0  0  0  0  0  0  0  0
   35.8670   23.7540   31.4550 C   0  0  0  0  0  0  0  0  0  0  0  0
   35.6170   22.4560   31.8320 C   0  0  0  0  0  0  0  0  0  0  0  0
   36.4030   21.8030   32.7540 C   0  0  0  0  0  0  0  0  0  0  0  0
   37.4720   22.4890   33.3050 C   0  0  0  0  0  0  0  0  0  0  0  0
   35.1970   24.1850   30.7320 H   0  0  0  0  0  0  0  0  0  0  0  0
   34.7880   21.9220   31.4030 H   0  0  0  0  0  0  0  0  0  0  0  0
   36.1600   20.7970   33.0110 H   0  0  0  0  0  0  0  0  0  0  0  0
   36.8370   21.6210   36.0200 N   0  0  0  0  0  0  0  0  0  0  0  0
   38.0570   21.9460   35.6670 C   0  0  0  0  0  0  0  0  0  0  0  0
   38.3140   21.8690   34.2910 N   0  0  0  0  0  0  0  0  0  0  0  0
   39.0660   22.3330   36.6150 N   0  0  0  0  0  0  0  0  0  0  0  0
   39.8800   22.1580   37.2140 H   0  0  0  0  0  0  0  0  0  0  0  0
   36.4920   21.6290   36.9920 H   0  0  0  0  0  0  0  0  0  0  0  0
   39.1770   21.3340   34.0160 H   0  0  0  0  0  0  0  0  0  0  0  0
   39.1430   23.3130   37.0110 H   0  0  0  0  0  0  0  0  0  0  0  0
  1  6  1  6  0  0  0
  1 11  1  0  0  0  0
  2  7  1  1  0  0  0
  2  1  1  0  0  0  0
  2 13  1  0  0  0  0
  3  2  1  0  0  0  0
  4  3  1  0  0  0  0
  4  5  1  0  0  0  0
  5 10  1  1  0  0  0
  5  1  1  0  0  0  0
  8  4  1  0  0  0  0
  9  4  1  0  0  0  0
 12 11  1  0  0  0  0
 14 20  1  0  0  0  0
 14 19  1  0  0  0  0
 15 14  2  0  0  0  0
 16 15  1  0  0  0  0
 16 17  2  0  0  0  0
 17 18  1  0  0  0  0
 18 19  2  0  0  0  0
 18 13  1  0  0  0  0
 21 15  1  0  0  0  0
 22 16  1  0  0  0  0
 23  5  1  0  0  0  0
 23 26  1  0  0  0  0
 25 30  1  0  0  0  0
 25 24  1  0  0  0  0
 26 25  2  0  0  0  0
 27 28  2  0  0  0  0
 27 26  1  0  0  0  0
 28 29  1  0  0  0  0
 29 33  1  0  0  0  0
 29 30  2  0  0  0  0
 30 36  1  0  0  0  0
 31 27  1  0  0  0  0
 32 28  1  0  0  0  0
 34 39  1  0  0  0  0
 35 34  2  0  0  0  0
 35 37  1  0  0  0  0
 36 35  1  0  0  0  0
 37 41  1  0  0  0  0
 37 38  1  0  0  0  0
 40 36  1  0  0  0  0
M  END
>  <minimizedAffinity>
-5.1195364

$$$$
