
 OpenBabel03272507013D

 45 47  0  0  1  0  0  0  0  0999 V2000
   35.0790   29.6020   48.8620 C   0  0  2  0  0  0  0  0  0  0  0  0
   35.8120   30.6160   48.0570 C   0  0  0  0  0  0  0  0  0  0  0  0
   37.3190   30.4470   48.1320 C   0  0  2  0  0  0  0  0  0  0  0  0
   37.8330   30.4800   49.5240 C   0  0  0  0  0  0  0  0  0  0  0  0
   36.9590   29.7320   50.5060 C   0  0  0  0  0  0  0  0  0  0  0  0
   35.9740   28.8350   49.8030 C   0  0  0  0  0  0  0  0  0  0  0  0
   34.2810   30.0380   49.5330 H   0  0  0  0  0  0  0  0  0  0  0  0
   35.6110   30.6620   46.9800 H   0  0  0  0  0  0  0  0  0  0  0  0
   35.5410   31.6160   48.5250 H   0  0  0  0  0  0  0  0  0  0  0  0
   37.5330   29.4350   47.7050 H   0  0  0  0  0  0  0  0  0  0  0  0
   38.8160   29.9240   49.5170 H   0  0  0  0  0  0  0  0  0  0  0  0
   38.0440   31.4390   49.9750 H   0  0  0  0  0  0  0  0  0  0  0  0
   37.5320   29.1550   51.2310 H   0  0  0  0  0  0  0  0  0  0  0  0
   36.3520   30.4590   51.0970 H   0  0  0  0  0  0  0  0  0  0  0  0
   35.3540   28.3310   50.5500 H   0  0  0  0  0  0  0  0  0  0  0  0
   36.5530   28.0680   49.2410 H   0  0  0  0  0  0  0  0  0  0  0  0
   38.0000   31.4110   47.3440 N   0  0  1  0  0  0  0  0  0  0  0  0
   39.0020   32.1550   48.0910 C   0  0  0  0  0  0  0  0  0  0  0  0
   39.4560   33.1410   47.0160 C   0  0  0  0  0  0  0  0  0  0  0  0
   39.5480   32.1980   45.8130 C   0  0  0  0  0  0  0  0  0  0  0  0
   38.6120   31.0220   46.1560 C   0  0  2  0  0  0  0  0  0  0  0  0
   38.5350   32.6980   48.9500 H   0  0  0  0  0  0  0  0  0  0  0  0
   39.8530   31.5220   48.3820 H   0  0  0  0  0  0  0  0  0  0  0  0
   38.6300   33.8680   46.8800 H   0  0  0  0  0  0  0  0  0  0  0  0
   40.4180   33.5990   47.2610 H   0  0  0  0  0  0  0  0  0  0  0  0
   40.6000   31.8750   45.7090 H   0  0  0  0  0  0  0  0  0  0  0  0
   39.2010   32.7850   44.9600 H   0  0  0  0  0  0  0  0  0  0  0  0
   39.2560   30.1470   46.2770 H   0  0  0  0  0  0  0  0  0  0  0  0
   39.3910   29.0950   44.1580 N   0  0  0  0  0  0  0  0  0  0  0  0
   38.4220   29.9650   44.0610 C   0  0  0  0  0  0  0  0  0  0  0  0
   37.7880   30.8820   44.9770 N   0  0  0  0  0  0  0  0  0  0  0  0
   38.2040   29.6730   42.6850 N   0  0  0  0  0  0  0  0  0  0  0  0
   37.4090   28.9970   42.4810 H   0  0  0  0  0  0  0  0  0  0  0  0
   39.9280   28.8910   45.0080 H   0  0  0  0  0  0  0  0  0  0  0  0
   36.9380   31.1100   44.4180 H   0  0  0  0  0  0  0  0  0  0  0  0
   38.7210   30.0310   41.8280 H   0  0  0  0  0  0  0  0  0  0  0  0
   34.3710   28.6060   48.0240 C   0  0  0  0  0  0  0  0  0  0  0  0
   34.0770   29.0530   46.7330 C   0  0  0  0  0  0  0  0  0  0  0  0
   33.4130   28.1360   45.8900 C   0  0  0  0  0  0  0  0  0  0  0  0
   33.0970   26.8810   46.3680 N   0  0  0  0  0  0  0  0  0  0  0  0
   33.4100   26.5020   47.6370 C   0  0  0  0  0  0  0  0  0  0  0  0
   34.0310   27.3600   48.4260 N   0  0  0  0  0  0  0  0  0  0  0  0
   34.1810   29.9270   46.1240 H   0  0  0  0  0  0  0  0  0  0  0  0
   33.0820   28.2350   44.8690 H   0  0  0  0  0  0  0  0  0  0  0  0
   33.1470   25.5120   47.9790 H   0  0  0  0  0  0  0  0  0  0  0  0
  1  7  1  1  0  0  0
  1  6  1  0  0  0  0
  2  3  1  0  0  0  0
  2  9  1  0  0  0  0
  2  1  1  0  0  0  0
  3 10  1  6  0  0  0
  3  4  1  0  0  0  0
  4 12  1  0  0  0  0
  4  5  1  0  0  0  0
  5 14  1  0  0  0  0
  5 13  1  0  0  0  0
  6  5  1  0  0  0  0
  6 15  1  0  0  0  0
  8  2  1  0  0  0  0
 11  4  1  0  0  0  0
 16  6  1  0  0  0  0
 17 18  1  1  0  0  0
 17  3  1  0  0  0  0
 18 23  1  0  0  0  0
 18 22  1  0  0  0  0
 19 25  1  0  0  0  0
 19 18  1  0  0  0  0
 20 21  1  0  0  0  0
 20 19  1  0  0  0  0
 21 28  1  1  0  0  0
 21 17  1  0  0  0  0
 24 19  1  0  0  0  0
 26 20  1  0  0  0  0
 27 20  1  0  0  0  0
 29 34  1  0  0  0  0
 30 29  2  0  0  0  0
 30 31  1  0  0  0  0
 31 21  1  0  0  0  0
 32 30  1  0  0  0  0
 33 32  1  0  0  0  0
 35 31  1  0  0  0  0
 36 32  1  0  0  0  0
 37 42  1  0  0  0  0
 37  1  1  0  0  0  0
 38 37  2  0  0  0  0
 39 40  2  0  0  0  0
 39 38  1  0  0  0  0
 40 41  1  0  0  0  0
 41 45  1  0  0  0  0
 41 42  2  0  0  0  0
 43 38  1  0  0  0  0
 44 39  1  0  0  0  0
M  END
>  <minimizedAffinity>
-5.77456951

>  <minimizedRMSD>
3.52851057

$$$$
