
 OpenBabel03272507073D

 38 41  0  0  0  0  0  0  0  0999 V2000
   38.0140   31.8970   48.1750 C   0  0  0  0  0  0  0  0  0  0  0  0
   38.3620   32.1510   46.8450 C   0  0  0  0  0  0  0  0  0  0  0  0
   37.5760   31.5340   45.8510 C   0  0  0  0  0  0  0  0  0  0  0  0
   36.5480   30.7460   46.2320 N   0  0  0  0  0  0  0  0  0  0  0  0
   36.2480   30.5290   47.5260 C   0  0  0  0  0  0  0  0  0  0  0  0
   36.9730   31.0990   48.4950 N   0  0  0  0  0  0  0  0  0  0  0  0
   38.6270   32.3770   48.9060 H   0  0  0  0  0  0  0  0  0  0  0  0
   39.1610   32.7620   46.5250 H   0  0  0  0  0  0  0  0  0  0  0  0
   37.8000   31.6910   44.4280 C   0  0  0  0  0  0  0  0  0  0  0  0
   37.1480   32.6080   43.6410 C   0  0  0  0  0  0  0  0  0  0  0  0
   37.3470   32.7730   42.2880 C   0  0  0  0  0  0  0  0  0  0  0  0
   38.2510   31.9710   41.7030 N   0  0  0  0  0  0  0  0  0  0  0  0
   38.9070   31.0630   42.4420 C   0  0  0  0  0  0  0  0  0  0  0  0
   38.6880   30.9360   43.7360 N   0  0  0  0  0  0  0  0  0  0  0  0
   36.4110   33.2690   44.0980 H   0  0  0  0  0  0  0  0  0  0  0  0
   36.8370   33.4900   41.6750 H   0  0  0  0  0  0  0  0  0  0  0  0
   41.3740   30.2960   43.6160 N   0  0  0  0  0  0  0  0  0  0  0  0
   41.0010   29.7470   42.5100 C   0  0  0  0  0  0  0  0  0  0  0  0
   39.8590   30.2320   41.7730 N   0  0  0  0  0  0  0  0  0  0  0  0
   41.8010   28.6450   42.0950 N   0  0  0  0  0  0  0  0  0  0  0  0
   41.9570   27.6930   41.6980 H   0  0  0  0  0  0  0  0  0  0  0  0
   42.1660   30.0220   44.2030 H   0  0  0  0  0  0  0  0  0  0  0  0
   39.7900   29.9500   40.7910 H   0  0  0  0  0  0  0  0  0  0  0  0
   42.8550   28.6800   42.1830 H   0  0  0  0  0  0  0  0  0  0  0  0
   35.1730   28.8720   48.9880 C   0  0  0  0  0  0  0  0  0  0  0  0
   35.1130   29.6580   47.8400 C   0  0  0  0  0  0  0  0  0  0  0  0
   34.0120   29.6090   47.0290 C   0  0  0  0  0  0  0  0  0  0  0  0
   32.9530   28.7890   47.3330 C   0  0  0  0  0  0  0  0  0  0  0  0
   31.7740   28.5610   46.7090 N   0  0  0  0  0  0  0  0  0  0  0  0
   31.1570   27.6440   47.5010 C   0  0  0  0  0  0  0  0  0  0  0  0
   31.9190   27.3160   48.5680 N   0  0  0  0  0  0  0  0  0  0  0  0
   33.0600   28.0260   48.4860 C   0  0  0  0  0  0  0  0  0  0  0  0
   34.1260   28.0390   49.3190 C   0  0  0  0  0  0  0  0  0  0  0  0
   36.0700   28.9430   49.6050 H   0  0  0  0  0  0  0  0  0  0  0  0
   33.9620   30.2210   46.1320 H   0  0  0  0  0  0  0  0  0  0  0  0
   31.4080   28.9720   45.8410 H   0  0  0  0  0  0  0  0  0  0  0  0
   30.1700   27.2330   47.2890 H   0  0  0  0  0  0  0  0  0  0  0  0
   34.2190   27.4530   50.2140 H   0  0  0  0  0  0  0  0  0  0  0  0
  1  6  1  0  0  0  0
  1  7  1  0  0  0  0
  2  1  2  0  0  0  0
  3  4  2  0  0  0  0
  3  2  1  0  0  0  0
  4  5  1  0  0  0  0
  5 26  1  0  0  0  0
  5  6  2  0  0  0  0
  8  2  1  0  0  0  0
  9  3  1  0  0  0  0
 10 15  1  0  0  0  0
 10  9  2  0  0  0  0
 11 10  1  0  0  0  0
 12 11  2  0  0  0  0
 12 13  1  0  0  0  0
 13 14  2  0  0  0  0
 14  9  1  0  0  0  0
 16 11  1  0  0  0  0
 17 22  1  0  0  0  0
 18 17  2  0  0  0  0
 19 13  1  0  0  0  0
 19 18  1  0  0  0  0
 20 24  1  0  0  0  0
 20 18  1  0  0  0  0
 21 20  1  0  0  0  0
 23 19  1  0  0  0  0
 25 33  1  0  0  0  0
 25 34  1  0  0  0  0
 26 25  2  0  0  0  0
 27 28  2  0  0  0  0
 27 26  1  0  0  0  0
 28 32  1  0  0  0  0
 29 28  1  0  0  0  0
 29 30  1  0  0  0  0
 30 31  2  0  0  0  0
 32 31  1  0  0  0  0
 32 33  2  0  0  0  0
 33 38  1  0  0  0  0
 35 27  1  0  0  0  0
 36 29  1  0  0  0  0
 37 30  1  0  0  0  0
M  END
>  <minimizedAffinity>
-6.47842789

>  <minimizedRMSD>
1.90752161

$$$$
