
     RDKit          3D

 24 24  0  0  0  0  0  0  0  0999 V2000
   37.3793   30.2420   51.3754 C   0  0  0  0  0  0  0  0  0  0  0  0
   38.0330   30.7383   50.2360 C   0  0  0  0  0  0  0  0  0  0  0  0
   37.5622   30.3862   48.9856 C   0  0  0  0  0  0  0  0  0  0  0  0
   36.4885   29.5761   48.8791 N   0  0  0  0  0  0  0  0  0  0  0  0
   35.8698   29.1063   49.9822 C   0  0  0  0  0  0  0  0  0  0  0  0
   36.2983   29.4265   51.2192 N   0  0  0  0  0  0  0  0  0  0  0  0
   38.2415   30.8982   47.8484 C   0  0  0  0  0  0  0  0  0  0  0  0
   38.8045   32.0853   47.7731 C   0  0  0  0  0  0  0  0  0  0  0  0
   39.5100   32.5812   46.5610 C   0  0  0  0  0  0  0  0  0  0  0  0
   37.7941   30.5518   52.3205 H   0  0  0  0  0  0  0  0  0  0  0  0
   38.9069   31.3978   50.3651 H   0  0  0  0  0  0  0  0  0  0  0  0
   34.9994   28.4501   49.9284 H   0  0  0  0  0  0  0  0  0  0  0  0
   38.3179   30.2753   46.9446 H   0  0  0  0  0  0  0  0  0  0  0  0
   38.7796   32.7822   48.6275 H   0  0  0  0  0  0  0  0  0  0  0  0
   39.4350   31.8090   45.7845 H   0  0  0  0  0  0  0  0  0  0  0  0
   39.0469   33.4882   46.1208 H   0  0  0  0  0  0  0  0  0  0  0  0
   40.2363   34.7690   48.2535 N   0  0  0  0  0  0  0  0  0  0  0  0
   41.1225   34.1013   47.6026 C   0  0  0  0  0  0  0  0  0  0  0  0
   40.8727   32.8545   46.9621 N   0  0  0  0  0  0  0  0  0  0  0  0
   42.4417   34.6788   47.5360 N   0  0  0  0  0  0  0  0  0  0  0  0
   43.0614   34.0924   48.1330 H   0  0  0  0  0  0  0  0  0  0  0  0
   39.2537   34.4542   48.3697 H   0  0  0  0  0  0  0  0  0  0  0  0
   41.6629   32.1825   46.8019 H   0  0  0  0  0  0  0  0  0  0  0  0
   42.9842   35.4736   47.1009 H   0  0  0  0  0  0  0  0  0  0  0  0
  2  1  2  0
  3  2  1  0
  4  3  2  0
  4  5  1  0
  5  6  2  0
  6  1  1  0
  7  3  1  0
  8  7  2  0
  9  8  1  0
  1 10  1  0
  2 11  1  0
  5 12  1  0
  7 13  1  0
  8 14  1  0
  9 15  1  0
  9 16  1  0
 17 18  2  3
 18 19  1  0
 18 20  1  0
 20 21  1  0
 17 22  1  0
 19 23  1  0
 20 24  1  0
  9 19  1  0
M  ISO  6  10  14  11  14  12  14  15   8  16   8  21   5
M  END
>  <DihAtoms>  (1) 
7,8,18,17

>  <DihDeg>  (1) 
68.1300240236348

$$$$
