
 OpenBabel03272506463D

 41 43  0  0  1  0  0  0  0  0999 V2000
   32.2480   28.3150   47.4530 C   0  0  2  0  0  0  0  0  0  0  0  0
   33.4500   28.3150   48.3520 C   0  0  1  0  0  0  0  0  0  0  0  0
   33.9770   27.0580   48.3510 O   0  0  0  0  0  0  0  0  0  0  0  0
   33.3960   26.3150   47.3280 C   0  0  0  0  0  0  0  0  0  0  0  0
   32.7380   27.2900   46.3870 C   0  0  1  0  0  0  0  0  0  0  0  0
   31.3160   27.9800   47.8950 H   0  0  0  0  0  0  0  0  0  0  0  0
   33.2300   28.7120   49.3690 H   0  0  0  0  0  0  0  0  0  0  0  0
   34.2690   25.8420   46.7910 H   0  0  0  0  0  0  0  0  0  0  0  0
   32.7560   25.5840   47.7960 H   0  0  0  0  0  0  0  0  0  0  0  0
   33.4570   27.8250   45.7760 H   0  0  0  0  0  0  0  0  0  0  0  0
   32.0810   29.5740   46.8440 O   0  0  0  0  0  0  0  0  0  0  0  0
   32.8890   29.7500   46.3230 H   0  0  0  0  0  0  0  0  0  0  0  0
   34.6920   29.4440   47.6070 S   0  0  0  0  0  0  0  0  0  0  0  0
   37.2740   29.2740   50.6040 C   0  0  0  0  0  0  0  0  0  0  0  0
   37.6760   30.5810   50.8160 C   0  0  0  0  0  0  0  0  0  0  0  0
   37.1230   31.5730   49.9900 C   0  0  0  0  0  0  0  0  0  0  0  0
   36.2350   31.1980   49.0420 N   0  0  0  0  0  0  0  0  0  0  0  0
   35.8690   29.9140   48.8680 C   0  0  0  0  0  0  0  0  0  0  0  0
   36.3820   28.9250   49.6470 N   0  0  0  0  0  0  0  0  0  0  0  0
   37.6320   28.4150   51.1820 H   0  0  0  0  0  0  0  0  0  0  0  0
   38.3900   30.7530   51.6000 H   0  0  0  0  0  0  0  0  0  0  0  0
   37.4330   32.5960   50.1540 H   0  0  0  0  0  0  0  0  0  0  0  0
   31.6820   26.6750   45.7640 O   0  0  0  0  0  0  0  0  0  0  0  0
   30.6610   28.4830   43.6810 Cl  0  0  0  0  0  0  0  0  0  0  0  0
   29.8050   27.7930   45.0410 C   0  0  0  0  0  0  0  0  0  0  0  0
   30.3920   26.9480   45.9550 C   0  0  0  0  0  0  0  0  0  0  0  0
   29.5970   26.4490   46.9900 C   0  0  0  0  0  0  0  0  0  0  0  0
   28.2710   26.7950   47.0870 C   0  0  0  0  0  0  0  0  0  0  0  0
   27.6720   27.6390   46.1800 C   0  0  0  0  0  0  0  0  0  0  0  0
   28.4450   28.1430   45.1480 C   0  0  0  0  0  0  0  0  0  0  0  0
   29.9790   25.7790   47.7410 H   0  0  0  0  0  0  0  0  0  0  0  0
   27.6710   26.4050   47.8890 H   0  0  0  0  0  0  0  0  0  0  0  0
   26.6380   27.8710   46.3020 H   0  0  0  0  0  0  0  0  0  0  0  0
   28.4360   31.0600   45.0010 N   0  0  0  0  0  0  0  0  0  0  0  0
   27.5050   30.3370   44.4250 C   0  0  0  0  0  0  0  0  0  0  0  0
   27.8710   29.0100   44.1550 N   0  0  0  0  0  0  0  0  0  0  0  0
   26.2150   30.8630   44.0730 N   0  0  0  0  0  0  0  0  0  0  0  0
   25.5310   31.2620   43.4220 H   0  0  0  0  0  0  0  0  0  0  0  0
   28.3220   32.0500   45.2650 H   0  0  0  0  0  0  0  0  0  0  0  0
   27.6890   28.6770   43.1740 H   0  0  0  0  0  0  0  0  0  0  0  0
   25.4200   30.9560   44.7690 H   0  0  0  0  0  0  0  0  0  0  0  0
  1  6  1  1  0  0  0
  1  2  1  0  0  0  0
  2  7  1  1  0  0  0
  3  2  1  0  0  0  0
  4  9  1  0  0  0  0
  4  3  1  0  0  0  0
  5 10  1  6  0  0  0
  5  4  1  0  0  0  0
  5  1  1  0  0  0  0
  8  4  1  0  0  0  0
 11  1  1  0  0  0  0
 12 11  1  0  0  0  0
 13  2  1  0  0  0  0
 13 18  1  0  0  0  0
 14 15  1  0  0  0  0
 14 20  1  0  0  0  0
 15 21  1  0  0  0  0
 16 22  1  0  0  0  0
 16 15  2  0  0  0  0
 17 16  1  0  0  0  0
 18 17  2  0  0  0  0
 18 19  1  0  0  0  0
 19 14  2  0  0  0  0
 23 26  1  0  0  0  0
 23  5  1  0  0  0  0
 24 25  1  0  0  0  0
 25 30  2  0  0  0  0
 25 26  1  0  0  0  0
 26 27  2  0  0  0  0
 27 28  1  0  0  0  0
 27 31  1  0  0  0  0
 28 32  1  0  0  0  0
 29 33  1  0  0  0  0
 29 28  2  0  0  0  0
 30 29  1  0  0  0  0
 34 39  1  0  0  0  0
 35 34  2  0  0  0  0
 36 35  1  0  0  0  0
 36 30  1  0  0  0  0
 37 35  1  0  0  0  0
 37 41  1  0  0  0  0
 38 37  1  0  0  0  0
 40 36  1  0  0  0  0
M  END
>  <minimizedAffinity>
-4.72601557

>  <minimizedRMSD>
0.812320054

$$$$
