
 OpenBabel03272506463D

 41 43  0  0  1  0  0  0  0  0999 V2000
   32.2380   28.2810   47.4640 C   0  0  2  0  0  0  0  0  0  0  0  0
   33.4480   28.2780   48.3530 C   0  0  1  0  0  0  0  0  0  0  0  0
   33.9820   27.0250   48.3320 O   0  0  0  0  0  0  0  0  0  0  0  0
   33.3970   26.2910   47.3050 C   0  0  0  0  0  0  0  0  0  0  0  0
   32.7260   27.2730   46.3810 C   0  0  1  0  0  0  0  0  0  0  0  0
   31.3120   27.9350   47.9090 H   0  0  0  0  0  0  0  0  0  0  0  0
   33.2330   28.6610   49.3760 H   0  0  0  0  0  0  0  0  0  0  0  0
   34.2690   25.8290   46.7550 H   0  0  0  0  0  0  0  0  0  0  0  0
   32.7650   25.5500   47.7690 H   0  0  0  0  0  0  0  0  0  0  0  0
   33.4360   27.8200   45.7710 H   0  0  0  0  0  0  0  0  0  0  0  0
   32.0580   29.5470   46.8720 O   0  0  0  0  0  0  0  0  0  0  0  0
   32.8610   29.7340   46.3470 H   0  0  0  0  0  0  0  0  0  0  0  0
   34.6760   29.4240   47.6120 S   0  0  0  0  0  0  0  0  0  0  0  0
   37.2410   29.2700   50.6250 C   0  0  0  0  0  0  0  0  0  0  0  0
   37.6530   30.5760   50.8240 C   0  0  0  0  0  0  0  0  0  0  0  0
   37.1120   31.5630   49.9820 C   0  0  0  0  0  0  0  0  0  0  0  0
   36.2260   31.1830   49.0340 N   0  0  0  0  0  0  0  0  0  0  0  0
   35.8510   29.9000   48.8740 C   0  0  0  0  0  0  0  0  0  0  0  0
   36.3510   28.9170   49.6680 N   0  0  0  0  0  0  0  0  0  0  0  0
   37.5880   28.4150   51.2150 H   0  0  0  0  0  0  0  0  0  0  0  0
   38.3630   30.7520   51.6090 H   0  0  0  0  0  0  0  0  0  0  0  0
   37.4290   32.5850   50.1350 H   0  0  0  0  0  0  0  0  0  0  0  0
   31.6680   26.6590   45.7600 O   0  0  0  0  0  0  0  0  0  0  0  0
   30.6550   28.4740   43.6800 Cl  0  0  0  0  0  0  0  0  0  0  0  0
   29.7950   27.7850   45.0370 C   0  0  0  0  0  0  0  0  0  0  0  0
   30.3790   26.9360   45.9500 C   0  0  0  0  0  0  0  0  0  0  0  0
   29.5810   26.4370   46.9820 C   0  0  0  0  0  0  0  0  0  0  0  0
   28.2560   26.7860   47.0780 C   0  0  0  0  0  0  0  0  0  0  0  0
   27.6610   27.6350   46.1730 C   0  0  0  0  0  0  0  0  0  0  0  0
   28.4370   28.1390   45.1430 C   0  0  0  0  0  0  0  0  0  0  0  0
   29.9590   25.7640   47.7330 H   0  0  0  0  0  0  0  0  0  0  0  0
   27.6540   26.3970   47.8790 H   0  0  0  0  0  0  0  0  0  0  0  0
   26.6280   27.8690   46.2940 H   0  0  0  0  0  0  0  0  0  0  0  0
   28.4320   31.0560   45.0050 N   0  0  0  0  0  0  0  0  0  0  0  0
   27.5030   30.3360   44.4240 C   0  0  0  0  0  0  0  0  0  0  0  0
   27.8670   29.0090   44.1510 N   0  0  0  0  0  0  0  0  0  0  0  0
   26.2140   30.8660   44.0700 N   0  0  0  0  0  0  0  0  0  0  0  0
   25.5320   31.2660   43.4170 H   0  0  0  0  0  0  0  0  0  0  0  0
   28.3180   32.0460   45.2720 H   0  0  0  0  0  0  0  0  0  0  0  0
   27.6880   28.6790   43.1690 H   0  0  0  0  0  0  0  0  0  0  0  0
   25.4160   30.9580   44.7620 H   0  0  0  0  0  0  0  0  0  0  0  0
  1  6  1  1  0  0  0
  1  2  1  0  0  0  0
  2  7  1  1  0  0  0
  3  2  1  0  0  0  0
  4  9  1  0  0  0  0
  4  3  1  0  0  0  0
  5 10  1  6  0  0  0
  5  4  1  0  0  0  0
  5  1  1  0  0  0  0
  8  4  1  0  0  0  0
 11  1  1  0  0  0  0
 12 11  1  0  0  0  0
 13  2  1  0  0  0  0
 13 18  1  0  0  0  0
 14 15  1  0  0  0  0
 14 20  1  0  0  0  0
 15 21  1  0  0  0  0
 16 22  1  0  0  0  0
 16 15  2  0  0  0  0
 17 16  1  0  0  0  0
 18 17  2  0  0  0  0
 18 19  1  0  0  0  0
 19 14  2  0  0  0  0
 23 26  1  0  0  0  0
 23  5  1  0  0  0  0
 24 25  1  0  0  0  0
 25 30  2  0  0  0  0
 25 26  1  0  0  0  0
 26 27  2  0  0  0  0
 27 28  1  0  0  0  0
 27 31  1  0  0  0  0
 28 32  1  0  0  0  0
 29 33  1  0  0  0  0
 29 28  2  0  0  0  0
 30 29  1  0  0  0  0
 34 39  1  0  0  0  0
 35 34  2  0  0  0  0
 36 35  1  0  0  0  0
 36 30  1  0  0  0  0
 37 35  1  0  0  0  0
 37 41  1  0  0  0  0
 38 37  1  0  0  0  0
 40 36  1  0  0  0  0
M  END
>  <minimizedAffinity>
-4.72924566

>  <minimizedRMSD>
0.993916392

$$$$
