
 OpenBabel03262521013D

 36 37  0  0  1  0  0  0  0  0999 V2000
   38.2030   30.6160   46.1170 S   0  0  0  0  0  0  0  0  0  0  0  0
   39.5290   32.9860   46.2860 N   0  0  0  0  0  0  0  0  0  0  0  0
   38.2620   32.4370   45.9150 C   0  0  1  0  0  0  0  0  0  0  0  0
   37.9900   32.6970   44.4560 C   0  0  0  0  0  0  0  0  0  0  0  0
   39.0650   32.0740   43.6980 N   0  0  0  0  0  0  0  0  0  0  0  0
   40.2480   32.8920   43.9990 C   0  0  0  0  0  0  0  0  0  0  0  0
   40.6070   32.5710   45.4440 C   0  0  2  0  0  0  0  0  0  0  0  0
   39.7130   33.0400   47.2850 H   0  0  0  0  0  0  0  0  0  0  0  0
   37.4640   32.8940   46.5200 H   0  0  0  0  0  0  0  0  0  0  0  0
   37.0580   32.1590   44.1520 H   0  0  0  0  0  0  0  0  0  0  0  0
   37.9510   33.7710   44.1880 H   0  0  0  0  0  0  0  0  0  0  0  0
   38.8580   32.0230   42.6920 H   0  0  0  0  0  0  0  0  0  0  0  0
   39.9020   33.9450   43.9240 H   0  0  0  0  0  0  0  0  0  0  0  0
   41.0900   32.6580   43.3470 H   0  0  0  0  0  0  0  0  0  0  0  0
   41.4950   33.1710   45.7350 H   0  0  0  0  0  0  0  0  0  0  0  0
   40.9270   31.1600   45.5430 N   0  0  0  0  0  0  0  0  0  0  0  0
   40.9370   30.8200   46.5210 H   0  0  0  0  0  0  0  0  0  0  0  0
   40.4400   30.5590   44.8690 H   0  0  0  0  0  0  0  0  0  0  0  0
   37.6820   30.3000   50.1200 C   0  0  0  0  0  0  0  0  0  0  0  0
   38.2140   30.6860   48.9100 C   0  0  0  0  0  0  0  0  0  0  0  0
   37.6430   30.2170   47.7530 C   0  0  0  0  0  0  0  0  0  0  0  0
   36.5460   29.3680   47.8660 N   0  0  0  0  0  0  0  0  0  0  0  0
   36.0820   29.0350   49.0680 C   0  0  0  0  0  0  0  0  0  0  0  0
   36.6340   29.4880   50.2000 N   0  0  0  0  0  0  0  0  0  0  0  0
   38.1320   30.6690   51.0550 H   0  0  0  0  0  0  0  0  0  0  0  0
   39.0600   31.3410   48.8270 H   0  0  0  0  0  0  0  0  0  0  0  0
   34.9260   28.1380   49.1500 C   0  0  0  0  0  0  0  0  0  0  0  0
   34.8310   27.0740   48.5080 O   0  0  0  0  0  0  0  0  0  0  0  0
   34.2450   30.7810   49.7460 N   0  0  0  0  0  0  0  0  0  0  0  0
   33.5210   29.8770   50.3160 C   0  0  0  0  0  0  0  0  0  0  0  0
   33.8500   28.5310   50.0250 N   0  0  0  0  0  0  0  0  0  0  0  0
   32.4430   30.1600   51.1920 N   0  0  0  0  0  0  0  0  0  0  0  0
   32.0930   29.4370   51.8300 H   0  0  0  0  0  0  0  0  0  0  0  0
   33.9890   31.7770   49.9710 H   0  0  0  0  0  0  0  0  0  0  0  0
   33.2750   27.7840   50.4790 H   0  0  0  0  0  0  0  0  0  0  0  0
   32.0480   31.1050   51.1500 H   0  0  0  0  0  0  0  0  0  0  0  0
  1 21  1  0  0  0  0
  2  8  1  0  0  0  0
  3  1  1  0  0  0  0
  3  2  1  0  0  0  0
  3  9  1  1  0  0  0
  4  3  1  0  0  0  0
  5  6  1  0  0  0  0
  5  4  1  0  0  0  0
  6  7  1  0  0  0  0
  7 16  1  0  0  0  0
  7 15  1  1  0  0  0
  7  2  1  0  0  0  0
 10  4  1  0  0  0  0
 11  4  1  0  0  0  0
 12  5  1  0  0  0  0
 13  6  1  0  0  0  0
 14  6  1  0  0  0  0
 16 17  1  0  0  0  0
 18 16  1  0  0  0  0
 19 24  1  0  0  0  0
 19 25  1  0  0  0  0
 20 19  2  0  0  0  0
 21 22  2  0  0  0  0
 21 20  1  0  0  0  0
 22 23  1  0  0  0  0
 23 27  1  0  0  0  0
 23 24  2  0  0  0  0
 26 20  1  0  0  0  0
 27 31  1  0  0  0  0
 28 27  2  0  0  0  0
 29 34  1  0  0  0  0
 29 30  2  0  0  0  0
 30 32  1  0  0  0  0
 31 30  1  0  0  0  0
 31 35  1  0  0  0  0
 32 33  1  0  0  0  0
 36 32  1  0  0  0  0
M  END
>  <minimizedAffinity>
-3.25462246

>  <minimizedRMSD>
1.04027212

$$$$
