
 OpenBabel03272502173D

 32 33  0  0  1  0  0  0  0  0999 V2000
   36.1050   29.2070   49.4410 S   0  0  0  0  0  0  0  0  0  0  0  0
   36.9550   30.6650   48.9020 C   0  0  0  0  0  0  0  0  0  0  0  0
   36.9650   31.6930   49.8590 C   0  0  0  0  0  0  0  0  0  0  0  0
   37.5980   32.8890   49.5580 C   0  0  0  0  0  0  0  0  0  0  0  0
   38.1880   33.0020   48.3270 N   0  0  0  0  0  0  0  0  0  0  0  0
   38.1650   31.9990   47.4250 C   0  0  0  0  0  0  0  0  0  0  0  0
   37.5560   30.8520   47.7140 N   0  0  0  0  0  0  0  0  0  0  0  0
   36.5020   31.6220   50.8400 H   0  0  0  0  0  0  0  0  0  0  0  0
   37.6290   33.7050   50.2660 H   0  0  0  0  0  0  0  0  0  0  0  0
   40.3860   33.7100   46.9730 N   0  0  0  0  0  0  0  0  0  0  0  0
   39.7080   33.2660   45.9770 C   0  0  0  0  0  0  0  0  0  0  0  0
   38.8000   32.1870   46.1640 N   0  0  0  0  0  0  0  0  0  0  0  0
   39.8510   33.8380   44.6820 N   0  0  0  0  0  0  0  0  0  0  0  0
   39.9480   34.3310   43.7780 H   0  0  0  0  0  0  0  0  0  0  0  0
   41.0540   34.5000   46.8490 H   0  0  0  0  0  0  0  0  0  0  0  0
   38.6080   31.5400   45.3680 H   0  0  0  0  0  0  0  0  0  0  0  0
   39.9650   33.2260   43.8400 H   0  0  0  0  0  0  0  0  0  0  0  0
   33.7110   28.0330   49.0500 N   0  0  0  0  0  0  0  0  0  0  0  0
   34.3070   29.3410   49.1470 C   0  0  2  0  0  0  0  0  0  0  0  0
   34.0920   30.0560   47.8260 C   0  0  0  0  0  0  0  0  0  0  0  0
   33.0770   29.4330   47.0670 O   0  0  0  0  0  0  0  0  0  0  0  0
   33.6320   28.2030   46.6710 C   0  0  0  0  0  0  0  0  0  0  0  0
   34.1730   27.4190   47.8270 C   0  0  2  0  0  0  0  0  0  0  0  0
   32.6840   28.1630   48.9490 H   0  0  0  0  0  0  0  0  0  0  0  0
   33.9190   29.9360   50.0040 H   0  0  0  0  0  0  0  0  0  0  0  0
   34.9980   30.0310   47.1920 H   0  0  0  0  0  0  0  0  0  0  0  0
   33.7800   31.1030   47.9960 H   0  0  0  0  0  0  0  0  0  0  0  0
   32.7800   27.6280   46.2290 H   0  0  0  0  0  0  0  0  0  0  0  0
   34.4410   28.3430   45.9370 H   0  0  0  0  0  0  0  0  0  0  0  0
   35.2740   27.3160   47.8200 H   0  0  0  0  0  0  0  0  0  0  0  0
   33.6640   26.1020   47.8040 O   0  0  0  0  0  0  0  0  0  0  0  0
   33.5020   25.8080   48.7350 H   0  0  0  0  0  0  0  0  0  0  0  0
  2  1  1  0  0  0  0
  2  3  1  0  0  0  0
  3  8  1  0  0  0  0
  4  3  2  0  0  0  0
  4  9  1  0  0  0  0
  5  4  1  0  0  0  0
  6  7  1  0  0  0  0
  6  5  2  0  0  0  0
  7  2  2  0  0  0  0
 11 12  1  0  0  0  0
 11 10  2  0  0  0  0
 12  6  1  0  0  0  0
 13 11  1  0  0  0  0
 14 13  1  0  0  0  0
 15 10  1  0  0  0  0
 16 12  1  0  0  0  0
 17 13  1  0  0  0  0
 18 19  1  0  0  0  0
 19  1  1  0  0  0  0
 19 25  1  1  0  0  0
 20 27  1  0  0  0  0
 20 19  1  0  0  0  0
 21 20  1  0  0  0  0
 22 21  1  0  0  0  0
 22 23  1  0  0  0  0
 23 30  1  6  0  0  0
 23 18  1  0  0  0  0
 24 18  1  0  0  0  0
 26 20  1  0  0  0  0
 28 22  1  0  0  0  0
 29 22  1  0  0  0  0
 31 23  1  0  0  0  0
 31 32  1  0  0  0  0
M  END
>  <minimizedAffinity>
-4.95671892

>  <minimizedRMSD>
0.792171538

$$$$
