REMARK  Name = 
REMARK  5 active torsions:
REMARK  status: ('A' for Active; 'I' for Inactive)
REMARK    1  A    between atoms: C_1  and  C_2
REMARK    2  A    between atoms: C_1  and  O_5
REMARK    3  A    between atoms: C_2  and  C_3
REMARK    4  A    between atoms: C_3  and  S_4
REMARK    5  A    between atoms: O_5  and  C_6
REMARK                            x       y       z     vdW  Elec       q    Type
REMARK                         _______ _______ _______ _____ _____    ______ ____
ROOT
ATOM      1  C   UNL     1      38.508  32.351  46.335  0.00  0.00    +0.000 A 
ATOM      2  C   UNL     1      39.811  32.808  46.239  0.00  0.00    +0.000 A 
ATOM      3  C   UNL     1      40.337  33.138  44.974  0.00  0.00    +0.000 A 
ATOM      4  N   UNL     1      39.496  32.979  43.893  0.00  0.00    +0.000 NA
ATOM      5  C   UNL     1      38.229  32.529  44.037  0.00  0.00    +0.000 A 
ATOM      6  N   UNL     1      37.766  32.229  45.227  0.00  0.00    +0.000 NA
ATOM      7  H   UNL     1      40.519  32.955  47.039  0.00  0.00    +0.000 HD
ATOM      8  H   UNL     1      41.351  33.500  44.844  0.00  0.00    +0.000 HD
ATOM      9  N   UNL     1      35.595  33.455  43.788  0.00  0.00    +0.000 NA
ATOM     10  C   UNL     1      36.201  33.111  42.714  0.00  0.00    +0.000 C 
ATOM     11  N   UNL     1      37.420  32.391  42.864  0.00  0.00    +0.000 N 
ATOM     12  N   UNL     1      35.797  33.365  41.372  0.00  0.00    +0.000 N 
ATOM     13  H   UNL     1      35.533  34.194  40.793  0.00  0.00    +0.000 HD
ATOM     14  H   UNL     1      34.713  33.973  43.874  0.00  0.00    +0.000 HD
ATOM     15  H   UNL     1      37.742  31.741  42.100  0.00  0.00    +0.000 HD
ATOM     16  H   UNL     1      35.672  32.668  40.607  0.00  0.00    +0.000 HD
ENDROOT
BRANCH   1  17
ATOM     17  O   UNL     1      38.154  32.077  47.634  0.00  0.00    +0.000 OA
BRANCH  17  18
ATOM     18  C   UNL     1      37.174  31.134  47.842  0.00  0.00    +0.000 C 
ATOM     19  H   UNL     1      36.283  31.686  48.262  0.00  0.00    +0.000 HD
ATOM     20  H   UNL     1      36.776  30.638  46.925  0.00  0.00    +0.000 HD
BRANCH  18  21
ATOM     21  C   UNL     1      37.825  30.355  48.729  0.00  0.00    +0.000 C 
ATOM     22  H   UNL     1      38.790  29.908  48.363  0.00  0.00    +0.000 HD
ATOM     23  H   UNL     1      37.236  29.401  48.912  0.00  0.00    +0.000 HD
BRANCH  21  24
ATOM     24  C   UNL     1      38.126  30.925  50.075  0.00  0.00    +0.000 C 
ATOM     25  H   UNL     1      37.804  32.007  50.068  0.00  0.00    +0.000 HD
ATOM     26  H   UNL     1      39.197  30.931  50.337  0.00  0.00    +0.000 HD
BRANCH  24  27
ATOM     27  S   UNL     1      37.259  30.073  51.399  0.00  0.00    +0.000 S 
ATOM     28  H   UNL     1      37.312  30.808  52.574  0.00  0.00    +0.000 HD
ENDBRANCH  24  27
ENDBRANCH  21  24
ENDBRANCH  18  21
ENDBRANCH  17  18
ENDBRANCH   1  17
TORSDOF 5
