
 OpenBabel03272502173D

 32 33  0  0  1  0  0  0  0  0999 V2000
   36.1680   29.3390   49.2100 S   0  0  0  0  0  0  0  0  0  0  0  0
   37.0750   30.8130   48.8270 C   0  0  0  0  0  0  0  0  0  0  0  0
   37.2140   31.6840   49.9210 C   0  0  0  0  0  0  0  0  0  0  0  0
   37.9040   32.8740   49.7520 C   0  0  0  0  0  0  0  0  0  0  0  0
   38.4190   33.1380   48.5100 N   0  0  0  0  0  0  0  0  0  0  0  0
   38.2710   32.2840   47.4750 C   0  0  0  0  0  0  0  0  0  0  0  0
   37.6080   31.1420   47.6380 N   0  0  0  0  0  0  0  0  0  0  0  0
   36.8120   31.4910   50.9130 H   0  0  0  0  0  0  0  0  0  0  0  0
   38.0340   33.5720   50.5670 H   0  0  0  0  0  0  0  0  0  0  0  0
   40.2730   30.7770   46.1380 N   0  0  0  0  0  0  0  0  0  0  0  0
   40.0180   31.9770   45.7600 C   0  0  0  0  0  0  0  0  0  0  0  0
   38.8330   32.6250   46.2120 N   0  0  0  0  0  0  0  0  0  0  0  0
   40.9050   32.6760   44.8940 N   0  0  0  0  0  0  0  0  0  0  0  0
   41.6130   33.1560   44.3140 H   0  0  0  0  0  0  0  0  0  0  0  0
   41.1360   30.2920   45.8160 H   0  0  0  0  0  0  0  0  0  0  0  0
   38.3850   33.3470   45.6050 H   0  0  0  0  0  0  0  0  0  0  0  0
   40.5350   33.1960   44.0650 H   0  0  0  0  0  0  0  0  0  0  0  0
   33.6950   28.3040   48.9410 N   0  0  0  0  0  0  0  0  0  0  0  0
   34.3770   29.5730   48.9330 C   0  0  2  0  0  0  0  0  0  0  0  0
   34.1840   30.2040   47.5670 C   0  0  0  0  0  0  0  0  0  0  0  0
   33.1160   29.5980   46.8700 O   0  0  0  0  0  0  0  0  0  0  0  0
   33.5810   28.3080   46.5570 C   0  0  0  0  0  0  0  0  0  0  0  0
   34.0910   27.5740   47.7590 C   0  0  2  0  0  0  0  0  0  0  0  0
   32.6770   28.4960   48.8450 H   0  0  0  0  0  0  0  0  0  0  0  0
   34.0460   30.2530   49.7500 H   0  0  0  0  0  0  0  0  0  0  0  0
   35.0750   30.0720   46.9230 H   0  0  0  0  0  0  0  0  0  0  0  0
   33.9460   31.2790   47.6640 H   0  0  0  0  0  0  0  0  0  0  0  0
   32.6840   27.7610   46.1700 H   0  0  0  0  0  0  0  0  0  0  0  0
   34.3830   28.3400   45.8030 H   0  0  0  0  0  0  0  0  0  0  0  0
   35.1820   27.3970   47.7430 H   0  0  0  0  0  0  0  0  0  0  0  0
   33.4960   26.2960   47.8390 O   0  0  0  0  0  0  0  0  0  0  0  0
   33.3340   26.0810   48.7920 H   0  0  0  0  0  0  0  0  0  0  0  0
  2  1  1  0  0  0  0
  2  3  1  0  0  0  0
  3  8  1  0  0  0  0
  4  3  2  0  0  0  0
  4  9  1  0  0  0  0
  5  4  1  0  0  0  0
  6  7  1  0  0  0  0
  6  5  2  0  0  0  0
  7  2  2  0  0  0  0
 11 10  2  0  0  0  0
 11 12  1  0  0  0  0
 12  6  1  0  0  0  0
 13 11  1  0  0  0  0
 14 13  1  0  0  0  0
 15 10  1  0  0  0  0
 16 12  1  0  0  0  0
 17 13  1  0  0  0  0
 19 18  1  0  0  0  0
 19  1  1  0  0  0  0
 19 25  1  1  0  0  0
 20 27  1  0  0  0  0
 20 19  1  0  0  0  0
 21 20  1  0  0  0  0
 22 21  1  0  0  0  0
 22 23  1  0  0  0  0
 23 30  1  6  0  0  0
 23 31  1  0  0  0  0
 23 18  1  0  0  0  0
 24 18  1  0  0  0  0
 26 20  1  0  0  0  0
 28 22  1  0  0  0  0
 29 22  1  0  0  0  0
 31 32  1  0  0  0  0
M  END
>  <minimizedAffinity>
-5.60536766

>  <minimizedRMSD>
0.84699893

$$$$
