
     RDKit          3D

 28 28  0  0  0  0  0  0  0  0999 V2000
   37.1744   31.1340   47.8423 C   0  0  0  0  0  0  0  0  0  0  0  0
   37.8252   30.3547   48.7292 C   0  0  0  0  0  0  0  0  0  0  0  0
   38.1260   30.9248   50.0746 C   0  0  0  0  0  0  0  0  0  0  0  0
   37.2594   30.0728   51.3991 S   0  0  0  0  0  0  0  0  0  0  0  0
   38.1541   32.0765   47.6337 O   0  0  0  0  0  0  0  0  0  0  0  0
   38.5080   32.3514   46.3353 C   0  0  0  0  0  0  0  0  0  0  0  0
   39.8109   32.8082   46.2385 C   0  0  0  0  0  0  0  0  0  0  0  0
   40.3372   33.1380   44.9744 C   0  0  0  0  0  0  0  0  0  0  0  0
   39.4963   32.9789   43.8929 N   0  0  0  0  0  0  0  0  0  0  0  0
   38.2286   32.5285   44.0370 C   0  0  0  0  0  0  0  0  0  0  0  0
   37.7659   32.2293   45.2268 N   0  0  0  0  0  0  0  0  0  0  0  0
   36.2827   31.6861   48.2620 H   0  0  0  0  0  0  0  0  0  0  0  0
   36.7755   30.6377   46.9253 H   0  0  0  0  0  0  0  0  0  0  0  0
   38.7900   29.9083   48.3632 H   0  0  0  0  0  0  0  0  0  0  0  0
   37.2364   29.4014   48.9118 H   0  0  0  0  0  0  0  0  0  0  0  0
   37.8039   32.0071   50.0677 H   0  0  0  0  0  0  0  0  0  0  0  0
   39.1965   30.9313   50.3367 H   0  0  0  0  0  0  0  0  0  0  0  0
   37.3120   30.8079   52.5739 H   0  0  0  0  0  0  0  0  0  0  0  0
   40.5193   32.9554   47.0387 H   0  0  0  0  0  0  0  0  0  0  0  0
   41.3507   33.4998   44.8438 H   0  0  0  0  0  0  0  0  0  0  0  0
   35.5947   33.4548   43.7882 N   0  0  0  0  0  0  0  0  0  0  0  0
   36.2007   33.1111   42.7142 C   0  0  0  0  0  0  0  0  0  0  0  0
   37.4197   32.3912   42.8636 N   0  0  0  0  0  0  0  0  0  0  0  0
   35.7972   33.3654   41.3719 N   0  0  0  0  0  0  0  0  0  0  0  0
   35.5334   34.1940   40.7926 H   0  0  0  0  0  0  0  0  0  0  0  0
   34.7134   33.9728   43.8736 H   0  0  0  0  0  0  0  0  0  0  0  0
   37.7423   31.7410   42.1003 H   0  0  0  0  0  0  0  0  0  0  0  0
   35.6723   32.6683   40.6068 H   0  0  0  0  0  0  0  0  0  0  0  0
  1  2  1  0
  2  3  1  0
  3  4  1  0
  5  1  1  0
  6  5  1  0
  7  6  2  0
  8  7  1  0
  9 10  1  0
  9  8  2  0
 10 11  2  0
 11  6  1  0
  1 12  1  0
  1 13  1  0
  2 14  1  0
  2 15  1  0
  3 16  1  0
  3 17  1  0
  4 18  1  0
  7 19  1  0
  8 20  1  0
 21 22  2  3
 22 23  1  0
 22 24  1  0
 24 25  1  0
 21 26  1  0
 23 27  1  0
 24 28  1  0
 10 23  1  0
M  ISO  8  12   8  13   8  14   8  15   8  16   8  17   8  18  11  19  14
M  ISO  2  20  14  25   5
M  END
>  <DihAtoms>  (1) 
8,9,22,21

>  <DihDeg>  (1) 
-0.0003159085550959409

$$$$
