
 OpenBabel03272502173D

 32 33  0  0  1  0  0  0  0  0999 V2000
   36.1850   29.2230   49.5540 S   0  0  0  0  0  0  0  0  0  0  0  0
   37.1610   30.5920   48.9910 C   0  0  0  0  0  0  0  0  0  0  0  0
   37.0480   31.7310   49.8040 C   0  0  0  0  0  0  0  0  0  0  0  0
   37.7630   32.8710   49.4700 C   0  0  0  0  0  0  0  0  0  0  0  0
   38.5500   32.8210   48.3500 N   0  0  0  0  0  0  0  0  0  0  0  0
   38.6400   31.7140   47.5850 C   0  0  0  0  0  0  0  0  0  0  0  0
   37.9540   30.6200   47.9060 N   0  0  0  0  0  0  0  0  0  0  0  0
   36.4290   31.7890   50.6960 H   0  0  0  0  0  0  0  0  0  0  0  0
   37.7050   33.7690   50.0700 H   0  0  0  0  0  0  0  0  0  0  0  0
   40.1290   33.9690   46.7100 N   0  0  0  0  0  0  0  0  0  0  0  0
   39.9520   32.9730   45.9180 C   0  0  0  0  0  0  0  0  0  0  0  0
   39.4790   31.7350   46.4340 N   0  0  0  0  0  0  0  0  0  0  0  0
   40.2210   33.0900   44.5260 N   0  0  0  0  0  0  0  0  0  0  0  0
   40.3730   33.2470   43.5150 H   0  0  0  0  0  0  0  0  0  0  0  0
   40.4740   34.8810   46.3450 H   0  0  0  0  0  0  0  0  0  0  0  0
   39.7550   30.8470   45.9590 H   0  0  0  0  0  0  0  0  0  0  0  0
   40.7690   32.3500   44.0280 H   0  0  0  0  0  0  0  0  0  0  0  0
   33.7300   28.2170   49.0860 N   0  0  0  0  0  0  0  0  0  0  0  0
   34.4130   29.4810   49.1950 C   0  0  2  0  0  0  0  0  0  0  0  0
   34.2960   30.1960   47.8620 C   0  0  0  0  0  0  0  0  0  0  0  0
   33.2660   29.6390   47.0710 O   0  0  0  0  0  0  0  0  0  0  0  0
   33.7470   28.3690   46.7050 C   0  0  0  0  0  0  0  0  0  0  0  0
   34.1890   27.5600   47.8850 C   0  0  2  0  0  0  0  0  0  0  0  0
   32.7190   28.4190   48.9480 H   0  0  0  0  0  0  0  0  0  0  0  0
   34.0380   30.1110   50.0330 H   0  0  0  0  0  0  0  0  0  0  0  0
   35.2200   30.1010   47.2610 H   0  0  0  0  0  0  0  0  0  0  0  0
   34.0530   31.2640   48.0120 H   0  0  0  0  0  0  0  0  0  0  0  0
   32.8720   27.8510   46.2370 H   0  0  0  0  0  0  0  0  0  0  0  0
   34.5890   28.4440   45.9990 H   0  0  0  0  0  0  0  0  0  0  0  0
   35.2800   27.3800   47.9180 H   0  0  0  0  0  0  0  0  0  0  0  0
   33.5900   26.2820   47.8540 O   0  0  0  0  0  0  0  0  0  0  0  0
   33.3760   26.0100   48.7810 H   0  0  0  0  0  0  0  0  0  0  0  0
  2  1  1  0  0  0  0
  2  3  1  0  0  0  0
  3  8  1  0  0  0  0
  4  3  2  0  0  0  0
  4  9  1  0  0  0  0
  5  4  1  0  0  0  0
  6  7  1  0  0  0  0
  6  5  2  0  0  0  0
  7  2  2  0  0  0  0
 11 12  1  0  0  0  0
 11 10  2  0  0  0  0
 12  6  1  0  0  0  0
 13 11  1  0  0  0  0
 14 13  1  0  0  0  0
 15 10  1  0  0  0  0
 16 12  1  0  0  0  0
 17 13  1  0  0  0  0
 18 19  1  0  0  0  0
 19  1  1  0  0  0  0
 19 25  1  1  0  0  0
 20 27  1  0  0  0  0
 20 19  1  0  0  0  0
 21 20  1  0  0  0  0
 22 21  1  0  0  0  0
 22 23  1  0  0  0  0
 23 30  1  1  0  0  0
 23 18  1  0  0  0  0
 24 18  1  0  0  0  0
 26 20  1  0  0  0  0
 28 22  1  0  0  0  0
 29 22  1  0  0  0  0
 31 23  1  0  0  0  0
 31 32  1  0  0  0  0
M  END
>  <minimizedAffinity>
-5.73409271

>  <minimizedRMSD>
0.384879768

$$$$
