
 OpenBabel03272502173D

 32 33  0  0  1  0  0  0  0  0999 V2000
   36.0700   29.4250   49.5890 S   0  0  0  0  0  0  0  0  0  0  0  0
   37.1980   30.6660   49.0150 C   0  0  0  0  0  0  0  0  0  0  0  0
   37.1140   31.8720   49.7300 C   0  0  0  0  0  0  0  0  0  0  0  0
   37.9450   32.9250   49.3790 C   0  0  0  0  0  0  0  0  0  0  0  0
   38.8130   32.7270   48.3380 N   0  0  0  0  0  0  0  0  0  0  0  0
   38.8750   31.5580   47.6670 C   0  0  0  0  0  0  0  0  0  0  0  0
   38.0770   30.5490   48.0040 N   0  0  0  0  0  0  0  0  0  0  0  0
   36.4310   32.0480   50.5580 H   0  0  0  0  0  0  0  0  0  0  0  0
   37.9120   33.8690   49.9040 H   0  0  0  0  0  0  0  0  0  0  0  0
   38.8540   33.1330   45.3020 N   0  0  0  0  0  0  0  0  0  0  0  0
   39.5440   32.0500   45.3430 C   0  0  0  0  0  0  0  0  0  0  0  0
   39.8030   31.4240   46.5950 N   0  0  0  0  0  0  0  0  0  0  0  0
   40.0560   31.4640   44.1530 N   0  0  0  0  0  0  0  0  0  0  0  0
   40.3520   31.0490   43.2530 H   0  0  0  0  0  0  0  0  0  0  0  0
   38.6560   33.6010   44.3940 H   0  0  0  0  0  0  0  0  0  0  0  0
   40.6790   30.8680   46.7140 H   0  0  0  0  0  0  0  0  0  0  0  0
   41.0510   31.1430   44.1060 H   0  0  0  0  0  0  0  0  0  0  0  0
   33.5410   28.6260   49.1130 N   0  0  0  0  0  0  0  0  0  0  0  0
   34.3530   29.8160   49.1040 C   0  0  2  0  0  0  0  0  0  0  0  0
   34.3690   30.3650   47.6900 C   0  0  0  0  0  0  0  0  0  0  0  0
   33.3190   29.8210   46.9180 O   0  0  0  0  0  0  0  0  0  0  0  0
   33.6740   28.4720   46.7360 C   0  0  0  0  0  0  0  0  0  0  0  0
   33.9760   27.7780   48.0280 C   0  0  2  0  0  0  0  0  0  0  0  0
   32.5650   28.9110   48.8960 H   0  0  0  0  0  0  0  0  0  0  0  0
   34.0140   30.5820   49.8380 H   0  0  0  0  0  0  0  0  0  0  0  0
   35.3020   30.1000   47.1560 H   0  0  0  0  0  0  0  0  0  0  0  0
   34.2380   31.4620   47.6960 H   0  0  0  0  0  0  0  0  0  0  0  0
   32.7680   27.9920   46.2870 H   0  0  0  0  0  0  0  0  0  0  0  0
   34.5470   28.3700   46.0730 H   0  0  0  0  0  0  0  0  0  0  0  0
   35.0390   27.4920   48.1420 H   0  0  0  0  0  0  0  0  0  0  0  0
   33.2430   26.5740   48.1190 O   0  0  0  0  0  0  0  0  0  0  0  0
   32.9620   26.4450   49.0600 H   0  0  0  0  0  0  0  0  0  0  0  0
  2  1  1  0  0  0  0
  2  3  1  0  0  0  0
  3  8  1  0  0  0  0
  4  3  2  0  0  0  0
  4  9  1  0  0  0  0
  5  4  1  0  0  0  0
  6  7  1  0  0  0  0
  6  5  2  0  0  0  0
  7  2  2  0  0  0  0
 10 11  2  0  0  0  0
 11 12  1  0  0  0  0
 12 16  1  0  0  0  0
 12  6  1  0  0  0  0
 13 11  1  0  0  0  0
 14 13  1  0  0  0  0
 15 10  1  0  0  0  0
 17 13  1  0  0  0  0
 19 18  1  0  0  0  0
 19  1  1  0  0  0  0
 19 25  1  1  0  0  0
 20 27  1  0  0  0  0
 20 19  1  0  0  0  0
 21 20  1  0  0  0  0
 22 21  1  0  0  0  0
 22 23  1  0  0  0  0
 23 31  1  0  0  0  0
 23 30  1  1  0  0  0
 23 18  1  0  0  0  0
 24 18  1  0  0  0  0
 26 20  1  0  0  0  0
 28 22  1  0  0  0  0
 29 22  1  0  0  0  0
 31 32  1  0  0  0  0
M  END
>  <minimizedAffinity>
-5.67621469

>  <minimizedRMSD>
0.28137815

$$$$
