
 OpenBabel03272508403D

 41 43  0  0  1  0  0  0  0  0999 V2000
   32.6260   30.8980   44.1730 N   0  0  0  0  0  0  0  0  0  0  0  0
   33.0600   30.6330   45.5430 C   0  0  0  0  0  0  0  0  0  0  0  0
   34.3150   29.8910   45.6500 C   0  0  2  0  0  0  0  0  0  0  0  0
   34.3870   28.7550   44.6880 N   0  0  0  0  0  0  0  0  0  0  0  0
   34.1310   29.3040   43.3440 C   0  0  0  0  0  0  0  0  0  0  0  0
   32.6730   29.7040   43.4050 C   0  0  0  0  0  0  0  0  0  0  0  0
   32.2300   29.9110   45.8610 H   0  0  0  0  0  0  0  0  0  0  0  0
   33.0590   31.5600   46.1100 H   0  0  0  0  0  0  0  0  0  0  0  0
   35.2230   30.4390   45.3440 H   0  0  0  0  0  0  0  0  0  0  0  0
   33.7080   28.0100   44.9440 H   0  0  0  0  0  0  0  0  0  0  0  0
   34.2300   28.4480   42.6480 H   0  0  0  0  0  0  0  0  0  0  0  0
   34.8240   30.1270   43.1840 H   0  0  0  0  0  0  0  0  0  0  0  0
   32.1230   28.8690   43.9000 H   0  0  0  0  0  0  0  0  0  0  0  0
   32.2290   29.8530   42.4160 H   0  0  0  0  0  0  0  0  0  0  0  0
   36.9560   30.4300   46.9030 Cl  0  0  0  0  0  0  0  0  0  0  0  0
   35.6350   29.5750   47.7090 C   0  0  0  0  0  0  0  0  0  0  0  0
   34.4840   29.3760   46.9970 C   0  0  0  0  0  0  0  0  0  0  0  0
   33.3510   28.7140   47.5000 C   0  0  0  0  0  0  0  0  0  0  0  0
   33.4670   28.2480   48.8160 C   0  0  0  0  0  0  0  0  0  0  0  0
   34.6460   28.4480   49.5500 C   0  0  0  0  0  0  0  0  0  0  0  0
   35.7010   29.1040   48.9890 C   0  0  0  0  0  0  0  0  0  0  0  0
   32.3740   28.4450   47.1800 H   0  0  0  0  0  0  0  0  0  0  0  0
   32.7180   27.7160   49.3890 H   0  0  0  0  0  0  0  0  0  0  0  0
   34.7400   28.0790   50.5740 H   0  0  0  0  0  0  0  0  0  0  0  0
   36.5560   31.5220   50.3280 N   0  0  0  0  0  0  0  0  0  0  0  0
   37.0900   30.3830   50.6460 C   0  0  0  0  0  0  0  0  0  0  0  0
   36.9540   29.3590   49.6390 N   0  0  0  0  0  0  0  0  0  0  0  0
   37.7770   30.0810   51.8650 N   0  0  0  0  0  0  0  0  0  0  0  0
   37.7360   30.0080   52.8920 H   0  0  0  0  0  0  0  0  0  0  0  0
   36.6210   32.2910   51.0050 H   0  0  0  0  0  0  0  0  0  0  0  0
   37.8260   28.8170   49.4250 H   0  0  0  0  0  0  0  0  0  0  0  0
   38.7610   29.8140   51.5860 H   0  0  0  0  0  0  0  0  0  0  0  0
   32.2130   32.1800   43.7370 C   0  0  0  0  0  0  0  0  0  0  0  0
   32.2140   32.5430   42.3890 C   0  0  0  0  0  0  0  0  0  0  0  0
   31.7880   33.8200   42.0450 C   0  0  0  0  0  0  0  0  0  0  0  0
   31.3830   34.6710   43.0630 N   0  0  0  0  0  0  0  0  0  0  0  0
   31.4010   34.2680   44.3530 C   0  0  0  0  0  0  0  0  0  0  0  0
   31.8040   33.0550   44.6960 N   0  0  0  0  0  0  0  0  0  0  0  0
   32.5530   31.7890   41.7030 H   0  0  0  0  0  0  0  0  0  0  0  0
   31.7930   34.0900   41.0100 H   0  0  0  0  0  0  0  0  0  0  0  0
   31.0650   35.0130   45.0420 H   0  0  0  0  0  0  0  0  0  0  0  0
  1  2  1  0  0  0  0
  2  3  1  0  0  0  0
  2  7  1  0  0  0  0
  2  8  1  0  0  0  0
  3  9  1  6  0  0  0
  3 17  1  0  0  0  0
  4 10  1  0  0  0  0
  4  3  1  0  0  0  0
  5  6  1  0  0  0  0
  5  4  1  0  0  0  0
  6 13  1  0  0  0  0
  6  1  1  0  0  0  0
 11  5  1  0  0  0  0
 12  5  1  0  0  0  0
 14  6  1  0  0  0  0
 15 16  1  0  0  0  0
 16 21  1  0  0  0  0
 17 18  1  0  0  0  0
 17 16  2  0  0  0  0
 18 19  2  0  0  0  0
 19 23  1  0  0  0  0
 19 20  1  0  0  0  0
 20 24  1  0  0  0  0
 21 20  2  0  0  0  0
 21 27  1  0  0  0  0
 22 18  1  0  0  0  0
 25 26  2  0  0  0  0
 25 30  1  0  0  0  0
 26 28  1  0  0  0  0
 27 26  1  0  0  0  0
 28 29  1  0  0  0  0
 31 27  1  0  0  0  0
 32 28  1  0  0  0  0
 33  1  1  0  0  0  0
 33 38  1  0  0  0  0
 34 33  2  0  0  0  0
 35 34  1  0  0  0  0
 35 36  2  0  0  0  0
 36 37  1  0  0  0  0
 37 38  2  0  0  0  0
 37 41  1  0  0  0  0
 39 34  1  0  0  0  0
 40 35  1  0  0  0  0
M  END
>  <minimizedAffinity>
-5.27871704

>  <minimizedRMSD>
3.3539474

$$$$
