
 OpenBabel03272502063D

 38 40  0  0  0  0  0  0  0  0999 V2000
   34.3730   30.2800   47.7200 F   0  0  0  0  0  0  0  0  0  0  0  0
   34.7130   29.8740   46.4540 C   0  0  0  0  0  0  0  0  0  0  0  0
   33.8090   29.2360   45.6290 C   0  0  0  0  0  0  0  0  0  0  0  0
   34.2150   28.8700   44.3660 C   0  0  0  0  0  0  0  0  0  0  0  0
   35.5180   29.1390   43.9270 C   0  0  0  0  0  0  0  0  0  0  0  0
   36.3700   29.7800   44.8050 C   0  0  0  0  0  0  0  0  0  0  0  0
   36.0160   30.1530   46.0460 C   0  0  0  0  0  0  0  0  0  0  0  0
   33.4860   28.3780   43.7540 H   0  0  0  0  0  0  0  0  0  0  0  0
   35.8010   28.8410   42.9350 H   0  0  0  0  0  0  0  0  0  0  0  0
   37.3520   29.9500   44.3940 H   0  0  0  0  0  0  0  0  0  0  0  0
   32.3650   27.9350   47.0520 C   0  0  0  0  0  0  0  0  0  0  0  0
   32.5100   29.0190   46.1950 C   0  0  0  0  0  0  0  0  0  0  0  0
   31.3940   29.8100   45.9570 C   0  0  0  0  0  0  0  0  0  0  0  0
   30.2180   29.5100   46.5520 N   0  0  0  0  0  0  0  0  0  0  0  0
   30.1000   28.4640   47.3710 C   0  0  0  0  0  0  0  0  0  0  0  0
   31.1560   27.6930   47.6140 N   0  0  0  0  0  0  0  0  0  0  0  0
   33.2010   27.2740   47.2810 H   0  0  0  0  0  0  0  0  0  0  0  0
   31.5290   30.6560   45.2810 H   0  0  0  0  0  0  0  0  0  0  0  0
   29.4600   29.0200   50.0590 N   0  0  0  0  0  0  0  0  0  0  0  0
   28.5050   28.7510   49.2420 C   0  0  0  0  0  0  0  0  0  0  0  0
   28.8440   28.1820   47.9790 N   0  0  0  0  0  0  0  0  0  0  0  0
   27.1370   29.0050   49.5630 N   0  0  0  0  0  0  0  0  0  0  0  0
   26.2440   29.5110   49.6190 H   0  0  0  0  0  0  0  0  0  0  0  0
   29.2100   29.4360   50.9800 H   0  0  0  0  0  0  0  0  0  0  0  0
   28.1570   27.5480   47.4930 H   0  0  0  0  0  0  0  0  0  0  0  0
   26.7960   29.9580   49.2410 H   0  0  0  0  0  0  0  0  0  0  0  0
   37.8730   32.3470   44.8040 Br  0  0  0  0  0  0  0  0  0  0  0  0
   37.8440   31.8190   46.6350 C   0  0  0  0  0  0  0  0  0  0  0  0
   36.9620   30.8140   46.9280 C   0  0  0  0  0  0  0  0  0  0  0  0
   36.9130   30.3460   48.2530 C   0  0  0  0  0  0  0  0  0  0  0  0
   37.7180   30.8770   49.2080 C   0  0  0  0  0  0  0  0  0  0  0  0
   38.5900   31.8940   48.8460 C   0  0  0  0  0  0  0  0  0  0  0  0
   38.6620   32.3810   47.5420 C   0  0  0  0  0  0  0  0  0  0  0  0
   36.2460   29.5550   48.5700 H   0  0  0  0  0  0  0  0  0  0  0  0
   37.7040   30.5380   50.2350 H   0  0  0  0  0  0  0  0  0  0  0  0
   39.2480   32.3430   49.5820 H   0  0  0  0  0  0  0  0  0  0  0  0
   39.4860   33.3740   47.1100 O   0  0  0  0  0  0  0  0  0  0  0  0
   39.0580   34.2010   46.6920 H   0  0  0  0  0  0  0  0  0  0  0  0
  2  1  1  0  0  0  0
  3 12  1  0  0  0  0
  3  2  2  0  0  0  0
  4  3  1  0  0  0  0
  5  4  2  0  0  0  0
  5  6  1  0  0  0  0
  6  7  2  0  0  0  0
  7  2  1  0  0  0  0
  7 29  1  0  0  0  0
  8  4  1  0  0  0  0
  9  5  1  0  0  0  0
 10  6  1  0  0  0  0
 11 17  1  0  0  0  0
 11 16  1  0  0  0  0
 12 11  2  0  0  0  0
 13 12  1  0  0  0  0
 13 14  2  0  0  0  0
 14 15  1  0  0  0  0
 15 16  2  0  0  0  0
 15 21  1  0  0  0  0
 18 13  1  0  0  0  0
 19 24  1  0  0  0  0
 20 22  1  0  0  0  0
 20 19  2  0  0  0  0
 21 20  1  0  0  0  0
 22 23  1  0  0  0  0
 25 21  1  0  0  0  0
 26 22  1  0  0  0  0
 27 28  1  0  0  0  0
 28 29  2  0  0  0  0
 28 33  1  0  0  0  0
 29 30  1  0  0  0  0
 30 34  1  0  0  0  0
 30 31  2  0  0  0  0
 31 35  1  0  0  0  0
 32 31  1  0  0  0  0
 32 36  1  0  0  0  0
 33 32  2  0  0  0  0
 37 33  1  0  0  0  0
 38 37  1  0  0  0  0
M  END
>  <minimizedAffinity>
-6.89351511

>  <minimizedRMSD>
0.420024842

$$$$
