
 OpenBabel03262520333D

 22 22  0  0  0  0  0  0  0  0999 V2000
   38.0460   26.8650   35.5480 C   0  0  0  0  0  3  0  0  0  0  0  0
   37.8540   25.6030   35.7490 C   0  0  0  0  0  3  0  0  0  0  0  0
   37.4450   27.9160   32.1000 C   0  0  0  0  0  0  0  0  0  0  0  0
   36.3210   28.7720   32.2500 C   0  0  0  0  0  0  0  0  0  0  0  0
   35.7980   28.9520   33.5290 C   0  0  0  0  0  0  0  0  0  0  0  0
   36.4090   28.2840   34.5740 N   0  0  0  0  0  0  0  0  0  0  0  0
   37.4660   27.4900   34.3760 C   0  0  0  0  0  0  0  0  0  0  0  0
   37.9770   27.3070   33.1660 N   0  0  0  0  0  0  0  0  0  0  0  0
   37.8120   27.8170   31.0730 H   0  0  0  0  0  0  0  0  0  0  0  0
   35.8280   29.2990   31.4670 H   0  0  0  0  0  0  0  0  0  0  0  0
   34.9580   29.5660   33.7940 H   0  0  0  0  0  0  0  0  0  0  0  0
   38.2500   24.7210   36.8590 C   0  0  0  0  0  0  0  0  0  0  0  0
   38.8540   25.3420   37.5650 H   0  0  0  0  0  0  0  0  0  0  0  0
   37.2840   24.4260   37.3750 H   0  0  0  0  0  0  0  0  0  0  0  0
   38.8580   22.8210   38.7830 N   0  0  0  0  0  0  0  0  0  0  0  0
   39.3910   22.8580   37.6230 C   0  0  0  0  0  0  0  0  0  0  0  0
   39.0410   23.6010   36.4550 N   0  0  0  0  0  0  0  0  0  0  0  0
   40.4200   21.9190   37.9120 N   0  0  0  0  0  0  0  0  0  0  0  0
   40.2740   20.9080   37.6420 H   0  0  0  0  0  0  0  0  0  0  0  0
   38.0260   23.3570   39.1040 H   0  0  0  0  0  0  0  0  0  0  0  0
   39.4560   23.1270   35.6280 H   0  0  0  0  0  0  0  0  0  0  0  0
   41.3510   22.1140   38.3880 H   0  0  0  0  0  0  0  0  0  0  0  0
  1  2  2  0  0  0  0
  2 12  1  0  0  0  0
  3  4  2  0  0  0  0
  3  8  1  0  0  0  0
  4  5  1  0  0  0  0
  5 11  1  0  0  0  0
  5  6  2  0  0  0  0
  7  6  1  0  0  0  0
  7  1  1  0  0  0  0
  8  7  2  0  0  0  0
  9  3  1  0  0  0  0
 10  4  1  0  0  0  0
 12 14  1  0  0  0  0
 12 13  1  0  0  0  0
 15 20  1  0  0  0  0
 16 18  1  0  0  0  0
 16 15  2  0  0  0  0
 17 12  1  0  0  0  0
 17 16  1  0  0  0  0
 18 22  1  0  0  0  0
 19 18  1  0  0  0  0
 21 17  1  0  0  0  0
M  END
>  <minimizedAffinity>
-4.54668951

$$$$

 OpenBabel03262520333D

 22 22  0  0  0  0  0  0  0  0999 V2000
   37.5420   26.5550   35.3290 C   0  0  0  0  0  3  0  0  0  0  0  0
   37.9240   25.3300   35.4770 C   0  0  0  0  0  3  0  0  0  0  0  0
   35.9860   28.5580   32.6990 C   0  0  0  0  0  0  0  0  0  0  0  0
   35.9270   27.6300   31.6250 C   0  0  0  0  0  0  0  0  0  0  0  0
   36.4330   26.3490   31.8340 C   0  0  0  0  0  0  0  0  0  0  0  0
   36.9630   26.0620   33.0790 N   0  0  0  0  0  0  0  0  0  0  0  0
   36.9930   26.9750   34.0560 C   0  0  0  0  0  0  0  0  0  0  0  0
   36.5150   28.1980   33.8740 N   0  0  0  0  0  0  0  0  0  0  0  0
   35.5690   29.5460   32.4740 H   0  0  0  0  0  0  0  0  0  0  0  0
   35.5260   27.8190   30.6560 H   0  0  0  0  0  0  0  0  0  0  0  0
   36.4560   25.5470   31.1200 H   0  0  0  0  0  0  0  0  0  0  0  0
   38.4480   24.6060   36.6480 C   0  0  0  0  0  0  0  0  0  0  0  0
   39.1370   25.3080   37.1790 H   0  0  0  0  0  0  0  0  0  0  0  0
   37.5510   24.4090   37.3120 H   0  0  0  0  0  0  0  0  0  0  0  0
   39.0610   22.8600   38.7110 N   0  0  0  0  0  0  0  0  0  0  0  0
   39.5470   22.7720   37.5330 C   0  0  0  0  0  0  0  0  0  0  0  0
   39.1790   23.4230   36.3170 N   0  0  0  0  0  0  0  0  0  0  0  0
   40.5500   21.8210   37.8680 N   0  0  0  0  0  0  0  0  0  0  0  0
   40.3550   20.7970   37.6960 H   0  0  0  0  0  0  0  0  0  0  0  0
   38.2630   23.4560   39.0130 H   0  0  0  0  0  0  0  0  0  0  0  0
   39.5420   22.8610   35.5220 H   0  0  0  0  0  0  0  0  0  0  0  0
   41.5060   22.0180   38.2900 H   0  0  0  0  0  0  0  0  0  0  0  0
  1  2  2  0  0  0  0
  2 12  1  0  0  0  0
  3  8  1  0  0  0  0
  4  5  1  0  0  0  0
  4  3  2  0  0  0  0
  5  6  2  0  0  0  0
  6  7  1  0  0  0  0
  7  1  1  0  0  0  0
  8  7  2  0  0  0  0
  9  3  1  0  0  0  0
 10  4  1  0  0  0  0
 11  5  1  0  0  0  0
 12 13  1  0  0  0  0
 12 14  1  0  0  0  0
 15 20  1  0  0  0  0
 16 18  1  0  0  0  0
 16 15  2  0  0  0  0
 17 12  1  0  0  0  0
 17 16  1  0  0  0  0
 18 22  1  0  0  0  0
 19 18  1  0  0  0  0
 21 17  1  0  0  0  0
M  END
>  <minimizedAffinity>
-4.39219856

$$$$

 OpenBabel03262520333D

 22 22  0  0  0  0  0  0  0  0999 V2000
   38.4020   24.6440   33.5800 C   0  0  0  0  0  3  0  0  0  0  0  0
   38.1470   24.3660   34.8150 C   0  0  0  0  0  3  0  0  0  0  0  0
   35.8710   26.3230   31.5470 C   0  0  0  0  0  0  0  0  0  0  0  0
   35.1720   25.2200   30.9860 C   0  0  0  0  0  0  0  0  0  0  0  0
   35.5990   23.9350   31.3150 C   0  0  0  0  0  0  0  0  0  0  0  0
   36.6790   23.8160   32.1700 N   0  0  0  0  0  0  0  0  0  0  0  0
   37.3010   24.8880   32.6700 C   0  0  0  0  0  0  0  0  0  0  0  0
   36.9080   26.1180   32.3670 N   0  0  0  0  0  0  0  0  0  0  0  0
   35.4870   27.3060   31.2540 H   0  0  0  0  0  0  0  0  0  0  0  0
   34.3380   25.2790   30.3260 H   0  0  0  0  0  0  0  0  0  0  0  0
   35.1700   23.0130   30.9710 H   0  0  0  0  0  0  0  0  0  0  0  0
   39.0360   24.1410   35.9670 C   0  0  0  0  0  0  0  0  0  0  0  0
   39.7790   24.9760   35.9700 H   0  0  0  0  0  0  0  0  0  0  0  0
   38.3790   24.2410   36.8850 H   0  0  0  0  0  0  0  0  0  0  0  0
   39.3510   22.7400   38.3380 N   0  0  0  0  0  0  0  0  0  0  0  0
   39.9580   22.4520   37.2520 C   0  0  0  0  0  0  0  0  0  0  0  0
   39.7510   22.9040   35.9140 N   0  0  0  0  0  0  0  0  0  0  0  0
   40.8810   21.5450   37.8450 N   0  0  0  0  0  0  0  0  0  0  0  0
   40.6640   20.5110   37.8170 H   0  0  0  0  0  0  0  0  0  0  0  0
   38.5500   23.3950   38.4490 H   0  0  0  0  0  0  0  0  0  0  0  0
   40.1750   22.2120   35.2640 H   0  0  0  0  0  0  0  0  0  0  0  0
   41.7920   21.7870   38.3360 H   0  0  0  0  0  0  0  0  0  0  0  0
  1  2  2  0  0  0  0
  2 12  1  0  0  0  0
  3  8  1  0  0  0  0
  4  5  1  0  0  0  0
  4  3  2  0  0  0  0
  5  6  2  0  0  0  0
  6  7  1  0  0  0  0
  7  1  1  0  0  0  0
  8  7  2  0  0  0  0
  9  3  1  0  0  0  0
 10  4  1  0  0  0  0
 11  5  1  0  0  0  0
 12 13  1  0  0  0  0
 12 14  1  0  0  0  0
 15 20  1  0  0  0  0
 16 18  1  0  0  0  0
 16 15  2  0  0  0  0
 17 12  1  0  0  0  0
 17 16  1  0  0  0  0
 18 22  1  0  0  0  0
 19 18  1  0  0  0  0
 21 17  1  0  0  0  0
M  END
>  <minimizedAffinity>
-4.31501198

$$$$

 OpenBabel03262520333D

 22 22  0  0  0  0  0  0  0  0999 V2000
   37.6250   21.9050   34.6950 C   0  0  0  0  0  3  0  0  0  0  0  0
   38.6450   22.6770   34.5120 C   0  0  0  0  0  3  0  0  0  0  0  0
   35.0220   20.3990   32.6200 C   0  0  0  0  0  0  0  0  0  0  0  0
   35.5040   20.6680   31.3100 C   0  0  0  0  0  0  0  0  0  0  0  0
   36.7020   21.3680   31.1820 C   0  0  0  0  0  0  0  0  0  0  0  0
   37.3470   21.7570   32.3410 N   0  0  0  0  0  0  0  0  0  0  0  0
   36.8490   21.4770   33.5500 C   0  0  0  0  0  0  0  0  0  0  0  0
   35.7110   20.8110   33.6910 N   0  0  0  0  0  0  0  0  0  0  0  0
   34.0790   19.8420   32.6560 H   0  0  0  0  0  0  0  0  0  0  0  0
   35.0320   20.3830   30.3990 H   0  0  0  0  0  0  0  0  0  0  0  0
   37.1860   21.6410   30.2630 H   0  0  0  0  0  0  0  0  0  0  0  0
   39.6450   23.2120   35.4520 C   0  0  0  0  0  0  0  0  0  0  0  0
   40.2740   22.3480   35.7790 H   0  0  0  0  0  0  0  0  0  0  0  0
   40.2900   23.9170   34.8430 H   0  0  0  0  0  0  0  0  0  0  0  0
   40.2960   22.1220   37.9150 N   0  0  0  0  0  0  0  0  0  0  0  0
   39.3860   23.0000   37.7420 C   0  0  0  0  0  0  0  0  0  0  0  0
   39.0790   23.8210   36.6140 N   0  0  0  0  0  0  0  0  0  0  0  0
   38.8150   22.8670   39.0380 N   0  0  0  0  0  0  0  0  0  0  0  0
   39.1080   23.5450   39.7930 H   0  0  0  0  0  0  0  0  0  0  0  0
   41.0200   21.8290   37.2260 H   0  0  0  0  0  0  0  0  0  0  0  0
   38.5280   24.6390   36.9440 H   0  0  0  0  0  0  0  0  0  0  0  0
   38.1070   22.1400   39.3550 H   0  0  0  0  0  0  0  0  0  0  0  0
  2  1  2  0  0  0  0
  2 12  1  0  0  0  0
  3  9  1  0  0  0  0
  3  8  1  0  0  0  0
  4  3  2  0  0  0  0
  5  4  1  0  0  0  0
  5  6  2  0  0  0  0
  6  7  1  0  0  0  0
  7  8  2  0  0  0  0
  7  1  1  0  0  0  0
 10  4  1  0  0  0  0
 11  5  1  0  0  0  0
 12 13  1  0  0  0  0
 12 17  1  0  0  0  0
 14 12  1  0  0  0  0
 16 15  2  0  0  0  0
 16 18  1  0  0  0  0
 17 21  1  0  0  0  0
 17 16  1  0  0  0  0
 18 22  1  0  0  0  0
 18 19  1  0  0  0  0
 20 15  1  0  0  0  0
M  END
>  <minimizedAffinity>
-4.12534523

$$$$

 OpenBabel03262520333D

 22 22  0  0  0  0  0  0  0  0999 V2000
   38.1560   23.3930   34.5220 C   0  0  0  0  0  3  0  0  0  0  0  0
   38.0080   24.5150   33.9010 C   0  0  0  0  0  3  0  0  0  0  0  0
   39.8270   22.7850   37.7150 C   0  0  0  0  0  0  0  0  0  0  0  0
   38.9590   23.4440   38.6260 C   0  0  0  0  0  0  0  0  0  0  0  0
   37.8330   24.0870   38.1140 C   0  0  0  0  0  0  0  0  0  0  0  0
   37.6330   24.0400   36.7470 N   0  0  0  0  0  0  0  0  0  0  0  0
   38.4820   23.4040   35.9340 C   0  0  0  0  0  0  0  0  0  0  0  0
   39.5580   22.7870   36.4040 N   0  0  0  0  0  0  0  0  0  0  0  0
   40.6910   22.2960   38.1770 H   0  0  0  0  0  0  0  0  0  0  0  0
   39.0860   23.4990   39.6820 H   0  0  0  0  0  0  0  0  0  0  0  0
   37.0930   24.6220   38.6780 H   0  0  0  0  0  0  0  0  0  0  0  0
   37.6180   24.8190   32.5140 C   0  0  0  0  0  0  0  0  0  0  0  0
   38.4520   24.4650   31.8600 H   0  0  0  0  0  0  0  0  0  0  0  0
   36.7030   24.1830   32.3070 H   0  0  0  0  0  0  0  0  0  0  0  0
   35.7240   25.5080   30.6110 N   0  0  0  0  0  0  0  0  0  0  0  0
   36.5450   26.3350   31.1330 C   0  0  0  0  0  0  0  0  0  0  0  0
   37.4100   26.2110   32.2630 N   0  0  0  0  0  0  0  0  0  0  0  0
   36.2890   27.3870   30.2100 N   0  0  0  0  0  0  0  0  0  0  0  0
   35.6000   28.1400   30.4790 H   0  0  0  0  0  0  0  0  0  0  0  0
   35.5260   24.5390   30.9340 H   0  0  0  0  0  0  0  0  0  0  0  0
   37.6520   27.1650   32.5970 H   0  0  0  0  0  0  0  0  0  0  0  0
   36.7170   27.5110   29.2450 H   0  0  0  0  0  0  0  0  0  0  0  0
  1  7  1  0  0  0  0
  2  1  2  0  0  0  0
  3  9  1  0  0  0  0
  3  4  1  0  0  0  0
  4 10  1  0  0  0  0
  5  4  2  0  0  0  0
  5 11  1  0  0  0  0
  6  5  1  0  0  0  0
  7  8  1  0  0  0  0
  7  6  2  0  0  0  0
  8  3  2  0  0  0  0
 12  2  1  0  0  0  0
 13 12  1  0  0  0  0
 14 12  1  0  0  0  0
 15 20  1  0  0  0  0
 15 16  2  0  0  0  0
 16 17  1  0  0  0  0
 17 12  1  0  0  0  0
 17 21  1  0  0  0  0
 18 19  1  0  0  0  0
 18 16  1  0  0  0  0
 22 18  1  0  0  0  0
M  END
>  <minimizedAffinity>
-4.00470066

$$$$

 OpenBabel03262520333D

 22 22  0  0  0  0  0  0  0  0999 V2000
   38.6610   23.8810   34.4430 C   0  0  0  0  0  3  0  0  0  0  0  0
   37.8100   24.6980   33.9200 C   0  0  0  0  0  3  0  0  0  0  0  0
   37.8710   24.1780   37.9990 C   0  0  0  0  0  0  0  0  0  0  0  0
   38.9190   23.4240   38.5930 C   0  0  0  0  0  0  0  0  0  0  0  0
   39.8580   22.8280   37.7520 C   0  0  0  0  0  0  0  0  0  0  0  0
   39.7080   23.0100   36.3900 N   0  0  0  0  0  0  0  0  0  0  0  0
   38.7020   23.7300   35.8840 C   0  0  0  0  0  0  0  0  0  0  0  0
   37.8000   24.3040   36.6690 N   0  0  0  0  0  0  0  0  0  0  0  0
   37.1680   24.6240   38.7110 H   0  0  0  0  0  0  0  0  0  0  0  0
   39.0610   23.2650   39.6360 H   0  0  0  0  0  0  0  0  0  0  0  0
   40.6990   22.2330   38.0560 H   0  0  0  0  0  0  0  0  0  0  0  0
   37.4920   25.0090   32.5160 C   0  0  0  0  0  0  0  0  0  0  0  0
   38.3450   24.6290   31.9010 H   0  0  0  0  0  0  0  0  0  0  0  0
   36.5700   24.3980   32.2690 H   0  0  0  0  0  0  0  0  0  0  0  0
   35.7330   25.7430   30.5040 N   0  0  0  0  0  0  0  0  0  0  0  0
   36.5430   26.5500   31.0740 C   0  0  0  0  0  0  0  0  0  0  0  0
   37.3350   26.4050   32.2530 N   0  0  0  0  0  0  0  0  0  0  0  0
   36.3690   27.6060   30.1370 N   0  0  0  0  0  0  0  0  0  0  0  0
   35.6840   28.3780   30.3640 H   0  0  0  0  0  0  0  0  0  0  0  0
   35.4910   24.7800   30.8140 H   0  0  0  0  0  0  0  0  0  0  0  0
   37.5810   27.3530   32.6010 H   0  0  0  0  0  0  0  0  0  0  0  0
   36.8570   27.7180   29.1990 H   0  0  0  0  0  0  0  0  0  0  0  0
  1  7  1  0  0  0  0
  2  1  2  0  0  0  0
  3  4  1  0  0  0  0
  3  9  1  0  0  0  0
  4 10  1  0  0  0  0
  5 11  1  0  0  0  0
  5  4  2  0  0  0  0
  6  5  1  0  0  0  0
  7  6  2  0  0  0  0
  7  8  1  0  0  0  0
  8  3  2  0  0  0  0
 12  2  1  0  0  0  0
 13 12  1  0  0  0  0
 14 12  1  0  0  0  0
 15 20  1  0  0  0  0
 15 16  2  0  0  0  0
 16 17  1  0  0  0  0
 17 12  1  0  0  0  0
 17 21  1  0  0  0  0
 18 19  1  0  0  0  0
 18 16  1  0  0  0  0
 22 18  1  0  0  0  0
M  END
>  <minimizedAffinity>
-3.97879076

$$$$

 OpenBabel03262520333D

 22 22  0  0  0  0  0  0  0  0999 V2000
   38.7560   22.3540   34.6160 C   0  0  0  0  0  3  0  0  0  0  0  0
   38.8370   22.3400   35.9050 C   0  0  0  0  0  3  0  0  0  0  0  0
   36.8120   20.5490   32.1020 C   0  0  0  0  0  0  0  0  0  0  0  0
   35.6410   20.2090   32.8310 C   0  0  0  0  0  0  0  0  0  0  0  0
   35.5600   20.6000   34.1670 C   0  0  0  0  0  0  0  0  0  0  0  0
   36.6300   21.2980   34.6970 N   0  0  0  0  0  0  0  0  0  0  0  0
   37.7090   21.5920   33.9650 C   0  0  0  0  0  0  0  0  0  0  0  0
   37.8020   21.2280   32.6940 N   0  0  0  0  0  0  0  0  0  0  0  0
   36.8140   20.2180   31.0580 H   0  0  0  0  0  0  0  0  0  0  0  0
   34.8010   19.6740   32.4520 H   0  0  0  0  0  0  0  0  0  0  0  0
   34.7420   20.4160   34.8370 H   0  0  0  0  0  0  0  0  0  0  0  0
   39.7300   23.0510   36.8340 C   0  0  0  0  0  0  0  0  0  0  0  0
   40.6420   23.3330   36.2530 H   0  0  0  0  0  0  0  0  0  0  0  0
   39.1790   23.9990   37.1230 H   0  0  0  0  0  0  0  0  0  0  0  0
   42.2330   21.8670   36.7290 N   0  0  0  0  0  0  0  0  0  0  0  0
   41.3570   21.6060   37.6210 C   0  0  0  0  0  0  0  0  0  0  0  0
   40.1380   22.2690   37.9590 N   0  0  0  0  0  0  0  0  0  0  0  0
   42.0200   20.4580   38.1360 N   0  0  0  0  0  0  0  0  0  0  0  0
   42.6320   20.5660   38.9910 H   0  0  0  0  0  0  0  0  0  0  0  0
   42.2150   22.6540   36.0490 H   0  0  0  0  0  0  0  0  0  0  0  0
   39.8790   22.0030   38.9290 H   0  0  0  0  0  0  0  0  0  0  0  0
   41.9790   19.4670   37.7520 H   0  0  0  0  0  0  0  0  0  0  0  0
  1  2  2  0  0  0  0
  2 12  1  0  0  0  0
  3  8  2  0  0  0  0
  3  4  1  0  0  0  0
  4  5  2  0  0  0  0
  5  6  1  0  0  0  0
  5 11  1  0  0  0  0
  7  1  1  0  0  0  0
  7  6  2  0  0  0  0
  8  7  1  0  0  0  0
  9  3  1  0  0  0  0
 10  4  1  0  0  0  0
 12 14  1  0  0  0  0
 12 17  1  0  0  0  0
 13 12  1  0  0  0  0
 15 16  2  0  0  0  0
 16 17  1  0  0  0  0
 16 18  1  0  0  0  0
 17 21  1  0  0  0  0
 18 19  1  0  0  0  0
 20 15  1  0  0  0  0
 22 18  1  0  0  0  0
M  END
>  <minimizedAffinity>
-3.96274924

$$$$

 OpenBabel03262520333D

 22 22  0  0  0  0  0  0  0  0999 V2000
   37.4140   26.0910   34.1460 C   0  0  0  0  0  3  0  0  0  0  0  0
   37.8810   25.9840   35.3460 C   0  0  0  0  0  3  0  0  0  0  0  0
   35.7760   29.3570   34.0970 C   0  0  0  0  0  0  0  0  0  0  0  0
   35.9040   29.7250   32.7300 C   0  0  0  0  0  0  0  0  0  0  0  0
   36.5590   28.8440   31.8710 C   0  0  0  0  0  0  0  0  0  0  0  0
   37.0430   27.6650   32.4060 N   0  0  0  0  0  0  0  0  0  0  0  0
   36.8950   27.3680   33.7010 C   0  0  0  0  0  0  0  0  0  0  0  0
   36.2750   28.1940   34.5330 N   0  0  0  0  0  0  0  0  0  0  0  0
   35.2500   30.0880   34.7200 H   0  0  0  0  0  0  0  0  0  0  0  0
   35.5430   30.6240   32.2880 H   0  0  0  0  0  0  0  0  0  0  0  0
   36.7280   28.9860   30.8200 H   0  0  0  0  0  0  0  0  0  0  0  0
   38.5240   24.8600   36.0460 C   0  0  0  0  0  0  0  0  0  0  0  0
   38.2090   23.9270   35.5150 H   0  0  0  0  0  0  0  0  0  0  0  0
   39.6380   25.0020   35.8950 H   0  0  0  0  0  0  0  0  0  0  0  0
   39.4080   22.6280   37.4300 N   0  0  0  0  0  0  0  0  0  0  0  0
   38.5420   23.4500   37.8810 C   0  0  0  0  0  0  0  0  0  0  0  0
   38.1480   24.7430   37.4200 N   0  0  0  0  0  0  0  0  0  0  0  0
   38.1300   22.6350   38.9720 N   0  0  0  0  0  0  0  0  0  0  0  0
   38.5590   22.8060   39.9220 H   0  0  0  0  0  0  0  0  0  0  0  0
   40.0190   22.7600   36.5980 H   0  0  0  0  0  0  0  0  0  0  0  0
   37.6970   25.2490   38.2080 H   0  0  0  0  0  0  0  0  0  0  0  0
   37.4220   21.8420   38.9490 H   0  0  0  0  0  0  0  0  0  0  0  0
  1  2  2  0  0  0  0
  2 12  1  0  0  0  0
  3  8  1  0  0  0  0
  3  9  1  0  0  0  0
  4  3  2  0  0  0  0
  5  6  2  0  0  0  0
  5  4  1  0  0  0  0
  6  7  1  0  0  0  0
  7  1  1  0  0  0  0
  7  8  2  0  0  0  0
 10  4  1  0  0  0  0
 11  5  1  0  0  0  0
 12 17  1  0  0  0  0
 13 12  1  0  0  0  0
 14 12  1  0  0  0  0
 15 16  2  0  0  0  0
 16 18  1  0  0  0  0
 17 16  1  0  0  0  0
 17 21  1  0  0  0  0
 18 19  1  0  0  0  0
 20 15  1  0  0  0  0
 22 18  1  0  0  0  0
M  END
>  <minimizedAffinity>
-3.95582843

$$$$

 OpenBabel03262520333D

 22 22  0  0  0  0  0  0  0  0999 V2000
   38.5940   21.9930   34.4490 C   0  0  0  0  0  3  0  0  0  0  0  0
   37.3990   21.8010   33.9990 C   0  0  0  0  0  3  0  0  0  0  0  0
   40.0570   22.6990   37.7220 C   0  0  0  0  0  0  0  0  0  0  0  0
   38.9620   23.2900   38.4080 C   0  0  0  0  0  0  0  0  0  0  0  0
   37.7580   23.4380   37.7210 C   0  0  0  0  0  0  0  0  0  0  0  0
   37.7080   22.9970   36.4110 N   0  0  0  0  0  0  0  0  0  0  0  0
   38.7700   22.4480   35.8130 C   0  0  0  0  0  0  0  0  0  0  0  0
   39.9230   22.2990   36.4520 N   0  0  0  0  0  0  0  0  0  0  0  0
   40.9740   22.6070   38.3160 H   0  0  0  0  0  0  0  0  0  0  0  0
   38.9690   23.6390   39.4140 H   0  0  0  0  0  0  0  0  0  0  0  0
   36.8510   23.8630   38.1070 H   0  0  0  0  0  0  0  0  0  0  0  0
   36.9140   21.2890   32.7060 C   0  0  0  0  0  0  0  0  0  0  0  0
   37.2140   22.0350   31.9300 H   0  0  0  0  0  0  0  0  0  0  0  0
   37.4870   20.3280   32.5230 H   0  0  0  0  0  0  0  0  0  0  0  0
   35.9300   18.6990   32.6080 N   0  0  0  0  0  0  0  0  0  0  0  0
   35.2180   19.7410   32.4130 C   0  0  0  0  0  0  0  0  0  0  0  0
   35.4950   21.1230   32.6450 N   0  0  0  0  0  0  0  0  0  0  0  0
   34.0890   19.0440   31.8990 N   0  0  0  0  0  0  0  0  0  0  0  0
   33.2940   18.8140   32.5570 H   0  0  0  0  0  0  0  0  0  0  0  0
   36.8950   18.6680   32.9940 H   0  0  0  0  0  0  0  0  0  0  0  0
   34.5910   21.6320   32.7070 H   0  0  0  0  0  0  0  0  0  0  0  0
   33.9410   18.7090   30.9020 H   0  0  0  0  0  0  0  0  0  0  0  0
  1  7  1  0  0  0  0
  2  1  2  0  0  0  0
  3  9  1  0  0  0  0
  3  4  1  0  0  0  0
  4 10  1  0  0  0  0
  5 11  1  0  0  0  0
  5  4  2  0  0  0  0
  6  5  1  0  0  0  0
  7  6  2  0  0  0  0
  7  8  1  0  0  0  0
  8  3  2  0  0  0  0
 12  2  1  0  0  0  0
 13 12  1  0  0  0  0
 14 12  1  0  0  0  0
 15 20  1  0  0  0  0
 16 15  2  0  0  0  0
 16 17  1  0  0  0  0
 17 12  1  0  0  0  0
 17 21  1  0  0  0  0
 18 16  1  0  0  0  0
 18 19  1  0  0  0  0
 22 18  1  0  0  0  0
M  END
>  <minimizedAffinity>
-3.93777609

$$$$
