
 OpenBabel03272505373D

 30 31  0  0  0  0  0  0  0  0999 V2000
   36.4450   30.4930   46.5780 C   0  0  0  0  0  0  0  0  0  0  0  0
   35.1530   29.9820   46.5060 C   0  0  0  0  0  0  0  0  0  0  0  0
   34.5460   29.6880   45.3220 C   0  0  0  0  0  0  0  0  0  0  0  0
   35.2060   29.8900   44.1110 C   0  0  0  0  0  0  0  0  0  0  0  0
   36.4780   30.3920   44.1670 C   0  0  0  0  0  0  0  0  0  0  0  0
   37.0950   30.6900   45.3720 C   0  0  0  0  0  0  0  0  0  0  0  0
   34.6550   29.8320   47.4780 H   0  0  0  0  0  0  0  0  0  0  0  0
   33.5450   29.3000   45.4210 H   0  0  0  0  0  0  0  0  0  0  0  0
   34.6410   29.6280   43.2300 H   0  0  0  0  0  0  0  0  0  0  0  0
   36.8610   30.5070   43.1750 H   0  0  0  0  0  0  0  0  0  0  0  0
   37.4220   30.2920   50.0960 C   0  0  0  0  0  0  0  0  0  0  0  0
   38.2110   31.4320   50.2610 C   0  0  0  0  0  0  0  0  0  0  0  0
   38.3940   32.2610   49.1550 C   0  0  0  0  0  0  0  0  0  0  0  0
   37.7940   31.9000   47.9980 N   0  0  0  0  0  0  0  0  0  0  0  0
   37.0430   30.8000   47.8630 C   0  0  0  0  0  0  0  0  0  0  0  0
   36.8640   30.0020   48.9210 N   0  0  0  0  0  0  0  0  0  0  0  0
   38.6470   31.6330   51.2290 H   0  0  0  0  0  0  0  0  0  0  0  0
   39.0010   33.1410   49.2780 H   0  0  0  0  0  0  0  0  0  0  0  0
   37.2220   29.4090   51.2990 C   0  0  0  0  0  0  0  0  0  0  0  0
   35.8490   29.1650   51.4660 F   0  0  0  0  0  0  0  0  0  0  0  0
   37.9190   28.2710   51.1130 F   0  0  0  0  0  0  0  0  0  0  0  0
   37.6260   30.1120   52.4150 F   0  0  0  0  0  0  0  0  0  0  0  0
   38.1440   33.0370   43.9500 N   0  0  0  0  0  0  0  0  0  0  0  0
   38.7740   32.5240   44.9660 C   0  0  0  0  0  0  0  0  0  0  0  0
   38.4170   31.1900   45.3120 N   0  0  0  0  0  0  0  0  0  0  0  0
   39.7740   33.3000   45.6670 N   0  0  0  0  0  0  0  0  0  0  0  0
   39.3460   34.2230   45.9260 H   0  0  0  0  0  0  0  0  0  0  0  0
   38.3680   33.9910   43.6680 H   0  0  0  0  0  0  0  0  0  0  0  0
   39.3130   30.6960   45.5020 H   0  0  0  0  0  0  0  0  0  0  0  0
   40.7430   33.0870   45.9130 H   0  0  0  0  0  0  0  0  0  0  0  0
  1 15  1  0  0  0  0
  2  1  1  0  0  0  0
  2  7  1  0  0  0  0
  3  8  1  0  0  0  0
  3  2  2  0  0  0  0
  4  5  2  0  0  0  0
  4  3  1  0  0  0  0
  5  6  1  0  0  0  0
  6  1  2  0  0  0  0
  9  4  1  0  0  0  0
 10  5  1  0  0  0  0
 11 12  1  0  0  0  0
 11 19  1  0  0  0  0
 12 17  1  0  0  0  0
 13 18  1  0  0  0  0
 13 12  2  0  0  0  0
 14 13  1  0  0  0  0
 15 14  2  0  0  0  0
 15 16  1  0  0  0  0
 16 11  2  0  0  0  0
 19 20  1  0  0  0  0
 19 22  1  0  0  0  0
 21 19  1  0  0  0  0
 23 24  2  0  0  0  0
 24 25  1  0  0  0  0
 24 26  1  0  0  0  0
 25  6  1  0  0  0  0
 25 29  1  0  0  0  0
 26 30  1  0  0  0  0
 26 27  1  0  0  0  0
 28 23  1  0  0  0  0
M  END
>  <minimizedAffinity>
-6.35627747

>  <minimizedRMSD>
0.171841279

$$$$
