REMARK  Name = 
REMARK  3 active torsions:
REMARK  status: ('A' for Active; 'I' for Inactive)
REMARK    1  A    between atoms: N_1  and  C_7
REMARK    2  A    between atoms: C_3  and  C_15
REMARK    3  A    between atoms: C_19  and  N_36
REMARK                            x       y       z     vdW  Elec       q    Type
REMARK                         _______ _______ _______ _____ _____    ______ ____
ROOT
ATOM      1  N   UNL     1      34.626  30.049  45.662  0.00  0.00    +0.000 N 
ATOM      2  C   UNL     1      35.029  30.072  47.066  0.00  0.00    +0.000 C 
ATOM      3  C   UNL     1      36.265  30.806  47.331  0.00  0.00    +0.000 C 
ATOM      4  N   UNL     1      37.328  30.509  46.329  0.00  0.00    +0.000 NA
ATOM      5  C   UNL     1      36.755  30.767  44.996  0.00  0.00    +0.000 C 
ATOM      6  C   UNL     1      35.724  29.671  44.843  0.00  0.00    +0.000 C 
ATOM      7  H   UNL     1      35.276  28.963  47.203  0.00  0.00    +0.000 HD
ATOM      8  H   UNL     1      34.194  30.402  47.678  0.00  0.00    +0.000 HD
ATOM      9  H   UNL     1      36.208  31.902  47.208  0.00  0.00    +0.000 HD
ATOM     10  H   UNL     1      37.667  29.531  46.429  0.00  0.00    +0.000 HD
ATOM     11  H   UNL     1      37.576  30.578  44.276  0.00  0.00    +0.000 HD
ATOM     12  H   UNL     1      36.351  31.778  44.998  0.00  0.00    +0.000 HD
ATOM     13  H   UNL     1      36.196  28.723  45.194  0.00  0.00    +0.000 HD
ATOM     14  H   UNL     1      35.410  29.521  43.806  0.00  0.00    +0.000 HD
ENDROOT
BRANCH   3  17
ATOM     15 CL   UNL     1      38.248  32.722  48.442  0.00  0.00    +0.000 Cl
ATOM     16  C   UNL     1      37.661  31.295  49.305  0.00  0.00    +0.000 A 
ATOM     17  C   UNL     1      36.768  30.487  48.656  0.00  0.00    +0.000 A 
ATOM     18  C   UNL     1      36.214  29.320  49.209  0.00  0.00    +0.000 A 
ATOM     19  C   UNL     1      36.644  29.013  50.507  0.00  0.00    +0.000 A 
ATOM     20  C   UNL     1      37.561  29.837  51.176  0.00  0.00    +0.000 A 
ATOM     21  C   UNL     1      38.049  30.955  50.569  0.00  0.00    +0.000 A 
ATOM     22  H   UNL     1      35.528  28.555  48.940  0.00  0.00    +0.000 HD
ATOM     23  H   UNL     1      36.344  28.166  51.111  0.00  0.00    +0.000 HD
ATOM     24  H   UNL     1      37.902  29.594  52.185  0.00  0.00    +0.000 HD
BRANCH  21  27
ATOM     25  N   UNL     1      39.417  30.724  53.109  0.00  0.00    +0.000 NA
ATOM     26  C   UNL     1      39.935  31.439  52.158  0.00  0.00    +0.000 C 
ATOM     27  N   UNL     1      38.993  31.865  51.152  0.00  0.00    +0.000 N 
ATOM     28  N   UNL     1      41.309  31.822  52.039  0.00  0.00    +0.000 N 
ATOM     29  H   UNL     1      42.290  31.523  51.942  0.00  0.00    +0.000 HD
ATOM     30  H   UNL     1      40.037  30.390  53.855  0.00  0.00    +0.000 HD
ATOM     31  H   UNL     1      39.053  32.876  50.876  0.00  0.00    +0.000 HD
ATOM     32  H   UNL     1      41.320  32.879  52.059  0.00  0.00    +0.000 HD
ENDBRANCH  21  27
ENDBRANCH   3  17
BRANCH   1  33
ATOM     33  C   UNL     1      33.309  30.354  45.240  0.00  0.00    +0.000 A 
ATOM     34  C   UNL     1      33.050  31.062  44.065  0.00  0.00    +0.000 A 
ATOM     35  C   UNL     1      31.728  31.315  43.720  0.00  0.00    +0.000 A 
ATOM     36  N   UNL     1      30.731  30.849  44.564  0.00  0.00    +0.000 NA
ATOM     37  C   UNL     1      31.038  30.167  45.690  0.00  0.00    +0.000 A 
ATOM     38  N   UNL     1      32.292  29.918  46.032  0.00  0.00    +0.000 NA
ATOM     39  H   UNL     1      33.914  31.366  43.503  0.00  0.00    +0.000 HD
ATOM     40  H   UNL     1      31.539  31.859  42.818  0.00  0.00    +0.000 HD
ATOM     41  H   UNL     1      30.183  29.861  46.255  0.00  0.00    +0.000 HD
ENDBRANCH   1  33
TORSDOF 3
