
 OpenBabel03272505393D

 30 31  0  0  0  0  0  0  0  0999 V2000
   38.0010   24.1240   33.6240 C   0  0  0  0  0  0  0  0  0  0  0  0
   37.3330   23.2220   32.8030 C   0  0  0  0  0  0  0  0  0  0  0  0
   36.6650   23.6080   31.6800 C   0  0  0  0  0  0  0  0  0  0  0  0
   36.6230   24.9480   31.3000 C   0  0  0  0  0  0  0  0  0  0  0  0
   37.2770   25.8470   32.0980 C   0  0  0  0  0  0  0  0  0  0  0  0
   37.9560   25.4530   33.2400 C   0  0  0  0  0  0  0  0  0  0  0  0
   37.3820   22.1690   33.1280 H   0  0  0  0  0  0  0  0  0  0  0  0
   36.1950   22.8000   31.1430 H   0  0  0  0  0  0  0  0  0  0  0  0
   36.0690   25.1530   30.3960 H   0  0  0  0  0  0  0  0  0  0  0  0
   37.1570   26.8320   31.7000 H   0  0  0  0  0  0  0  0  0  0  0  0
   38.8460   23.4920   37.1250 C   0  0  0  0  0  0  0  0  0  0  0  0
   40.0280   22.7550   37.0280 C   0  0  0  0  0  0  0  0  0  0  0  0
   40.5220   22.4870   35.7520 C   0  0  0  0  0  0  0  0  0  0  0  0
   39.8210   22.9600   34.6980 N   0  0  0  0  0  0  0  0  0  0  0  0
   38.6880   23.6640   34.8160 C   0  0  0  0  0  0  0  0  0  0  0  0
   38.2090   23.9240   36.0370 N   0  0  0  0  0  0  0  0  0  0  0  0
   40.5150   22.4220   37.9330 H   0  0  0  0  0  0  0  0  0  0  0  0
   41.4330   21.9190   35.6730 H   0  0  0  0  0  0  0  0  0  0  0  0
   38.3250   23.7860   38.5070 C   0  0  0  0  0  0  0  0  0  0  0  0
   37.9180   25.1280   38.5690 F   0  0  0  0  0  0  0  0  0  0  0  0
   37.3120   22.9370   38.7700 F   0  0  0  0  0  0  0  0  0  0  0  0
   39.3750   23.6610   39.3930 F   0  0  0  0  0  0  0  0  0  0  0  0
   36.8120   27.7080   34.7350 N   0  0  0  0  0  0  0  0  0  0  0  0
   38.0020   27.2560   34.9990 C   0  0  0  0  0  0  0  0  0  0  0  0
   38.6080   26.4650   33.9830 N   0  0  0  0  0  0  0  0  0  0  0  0
   38.6320   27.5710   36.2630 N   0  0  0  0  0  0  0  0  0  0  0  0
   37.9650   27.3190   37.0310 H   0  0  0  0  0  0  0  0  0  0  0  0
   36.3390   28.2800   35.4350 H   0  0  0  0  0  0  0  0  0  0  0  0
   39.5950   26.7900   33.9200 H   0  0  0  0  0  0  0  0  0  0  0  0
   39.5500   27.9660   36.4780 H   0  0  0  0  0  0  0  0  0  0  0  0
  1 15  1  0  0  0  0
  2  7  1  0  0  0  0
  2  1  2  0  0  0  0
  3  2  1  0  0  0  0
  4  3  2  0  0  0  0
  4  5  1  0  0  0  0
  5  6  2  0  0  0  0
  6  1  1  0  0  0  0
  6 25  1  0  0  0  0
  8  3  1  0  0  0  0
  9  4  1  0  0  0  0
 10  5  1  0  0  0  0
 11 19  1  0  0  0  0
 12 11  1  0  0  0  0
 12 17  1  0  0  0  0
 13 12  2  0  0  0  0
 14 15  2  0  0  0  0
 14 13  1  0  0  0  0
 15 16  1  0  0  0  0
 16 11  2  0  0  0  0
 18 13  1  0  0  0  0
 19 20  1  0  0  0  0
 19 21  1  0  0  0  0
 19 22  1  0  0  0  0
 23 24  2  0  0  0  0
 23 28  1  0  0  0  0
 24 26  1  0  0  0  0
 25 24  1  0  0  0  0
 26 30  1  0  0  0  0
 26 27  1  0  0  0  0
 29 25  1  0  0  0  0
M  END
>  <minimizedAffinity>
-5.84725761

$$$$

 OpenBabel03272505393D

 30 31  0  0  0  0  0  0  0  0999 V2000
   38.2560   24.7900   34.3250 C   0  0  0  0  0  0  0  0  0  0  0  0
   38.4940   25.9530   33.5990 C   0  0  0  0  0  0  0  0  0  0  0  0
   38.6490   27.1700   34.1940 C   0  0  0  0  0  0  0  0  0  0  0  0
   38.5730   27.3020   35.5800 C   0  0  0  0  0  0  0  0  0  0  0  0
   38.3390   26.1660   36.3060 C   0  0  0  0  0  0  0  0  0  0  0  0
   38.1830   24.9300   35.7000 C   0  0  0  0  0  0  0  0  0  0  0  0
   38.5490   25.8200   32.5060 H   0  0  0  0  0  0  0  0  0  0  0  0
   38.8280   27.9810   33.5060 H   0  0  0  0  0  0  0  0  0  0  0  0
   38.7070   28.3060   35.9540 H   0  0  0  0  0  0  0  0  0  0  0  0
   38.2950   26.4100   37.3460 H   0  0  0  0  0  0  0  0  0  0  0  0
   36.8850   22.1190   32.2380 C   0  0  0  0  0  0  0  0  0  0  0  0
   37.8340   21.1050   32.3750 C   0  0  0  0  0  0  0  0  0  0  0  0
   38.9370   21.3540   33.1900 C   0  0  0  0  0  0  0  0  0  0  0  0
   39.0100   22.5620   33.7910 N   0  0  0  0  0  0  0  0  0  0  0  0
   38.0880   23.5210   33.6440 C   0  0  0  0  0  0  0  0  0  0  0  0
   37.0270   23.2880   32.8630 N   0  0  0  0  0  0  0  0  0  0  0  0
   37.6840   20.1720   31.8520 H   0  0  0  0  0  0  0  0  0  0  0  0
   39.6710   20.5740   33.2980 H   0  0  0  0  0  0  0  0  0  0  0  0
   35.6920   21.8380   31.3640 C   0  0  0  0  0  0  0  0  0  0  0  0
   34.6450   21.3460   32.1600 F   0  0  0  0  0  0  0  0  0  0  0  0
   35.3520   22.9760   30.7270 F   0  0  0  0  0  0  0  0  0  0  0  0
   36.0290   20.8180   30.4990 F   0  0  0  0  0  0  0  0  0  0  0  0
   40.1030   22.9920   36.7900 N   0  0  0  0  0  0  0  0  0  0  0  0
   38.9500   23.1930   37.3570 C   0  0  0  0  0  0  0  0  0  0  0  0
   37.9600   23.8200   36.5490 N   0  0  0  0  0  0  0  0  0  0  0  0
   38.7340   22.7810   38.7270 N   0  0  0  0  0  0  0  0  0  0  0  0
   39.5060   23.1820   39.3130 H   0  0  0  0  0  0  0  0  0  0  0  0
   40.8430   22.5460   37.3320 H   0  0  0  0  0  0  0  0  0  0  0  0
   37.0770   23.2970   36.7240 H   0  0  0  0  0  0  0  0  0  0  0  0
   38.0010   22.2090   39.1510 H   0  0  0  0  0  0  0  0  0  0  0  0
  1  6  1  0  0  0  0
  2  3  1  0  0  0  0
  2  1  2  0  0  0  0
  3  4  2  0  0  0  0
  4  9  1  0  0  0  0
  4  5  1  0  0  0  0
  5 10  1  0  0  0  0
  6  5  2  0  0  0  0
  6 25  1  0  0  0  0
  7  2  1  0  0  0  0
  8  3  1  0  0  0  0
 11 12  2  0  0  0  0
 11 16  1  0  0  0  0
 12 13  1  0  0  0  0
 13 18  1  0  0  0  0
 13 14  2  0  0  0  0
 15 14  1  0  0  0  0
 15  1  1  0  0  0  0
 16 15  2  0  0  0  0
 17 12  1  0  0  0  0
 19 20  1  0  0  0  0
 19 11  1  0  0  0  0
 21 19  1  0  0  0  0
 22 19  1  0  0  0  0
 23 28  1  0  0  0  0
 23 24  2  0  0  0  0
 24 26  1  0  0  0  0
 25 29  1  0  0  0  0
 25 24  1  0  0  0  0
 26 30  1  0  0  0  0
 26 27  1  0  0  0  0
M  END
>  <minimizedAffinity>
-5.61316204

$$$$

 OpenBabel03272505393D

 30 31  0  0  0  0  0  0  0  0999 V2000
   36.9560   21.7270   33.7490 C   0  0  0  0  0  0  0  0  0  0  0  0
   36.2280   20.5910   34.0870 C   0  0  0  0  0  0  0  0  0  0  0  0
   35.2440   20.0880   33.2910 C   0  0  0  0  0  0  0  0  0  0  0  0
   34.9180   20.7020   32.0820 C   0  0  0  0  0  0  0  0  0  0  0  0
   35.6270   21.8200   31.7370 C   0  0  0  0  0  0  0  0  0  0  0  0
   36.6280   22.3310   32.5470 C   0  0  0  0  0  0  0  0  0  0  0  0
   36.5060   20.1260   35.0480 H   0  0  0  0  0  0  0  0  0  0  0  0
   34.7660   19.2030   33.6810 H   0  0  0  0  0  0  0  0  0  0  0  0
   34.1250   20.2280   31.5250 H   0  0  0  0  0  0  0  0  0  0  0  0
   35.2720   22.1930   30.8000 H   0  0  0  0  0  0  0  0  0  0  0  0
   38.6540   23.0920   36.6870 C   0  0  0  0  0  0  0  0  0  0  0  0
   39.9840   23.1600   36.2690 C   0  0  0  0  0  0  0  0  0  0  0  0
   40.2800   22.7360   34.9740 C   0  0  0  0  0  0  0  0  0  0  0  0
   39.2560   22.2880   34.2140 N   0  0  0  0  0  0  0  0  0  0  0  0
   37.9880   22.2310   34.6370 C   0  0  0  0  0  0  0  0  0  0  0  0
   37.6970   22.6360   35.8770 N   0  0  0  0  0  0  0  0  0  0  0  0
   40.7310   23.5340   36.9530 H   0  0  0  0  0  0  0  0  0  0  0  0
   41.3040   22.7860   34.6480 H   0  0  0  0  0  0  0  0  0  0  0  0
   38.3420   23.5620   38.0830 C   0  0  0  0  0  0  0  0  0  0  0  0
   38.0720   24.9400   38.0540 F   0  0  0  0  0  0  0  0  0  0  0  0
   37.2960   22.8510   38.5480 F   0  0  0  0  0  0  0  0  0  0  0  0
   39.4790   23.4080   38.8470 F   0  0  0  0  0  0  0  0  0  0  0  0
   39.0830   22.5440   30.9490 N   0  0  0  0  0  0  0  0  0  0  0  0
   38.2210   23.5160   30.9960 C   0  0  0  0  0  0  0  0  0  0  0  0
   37.3050   23.4840   32.0850 N   0  0  0  0  0  0  0  0  0  0  0  0
   38.2360   24.5470   29.9810 N   0  0  0  0  0  0  0  0  0  0  0  0
   38.2130   24.0810   29.0420 H   0  0  0  0  0  0  0  0  0  0  0  0
   39.7590   22.5260   30.1850 H   0  0  0  0  0  0  0  0  0  0  0  0
   37.2530   24.4610   32.4410 H   0  0  0  0  0  0  0  0  0  0  0  0
   38.2630   25.5660   30.0570 H   0  0  0  0  0  0  0  0  0  0  0  0
  1  2  1  0  0  0  0
  1 15  1  0  0  0  0
  2  7  1  0  0  0  0
  3  8  1  0  0  0  0
  3  2  2  0  0  0  0
  4  3  1  0  0  0  0
  5  4  2  0  0  0  0
  5  6  1  0  0  0  0
  6  1  2  0  0  0  0
  9  4  1  0  0  0  0
 10  5  1  0  0  0  0
 11 19  1  0  0  0  0
 12 11  1  0  0  0  0
 12 17  1  0  0  0  0
 13 12  2  0  0  0  0
 14 15  2  0  0  0  0
 14 13  1  0  0  0  0
 15 16  1  0  0  0  0
 16 11  2  0  0  0  0
 18 13  1  0  0  0  0
 19 21  1  0  0  0  0
 19 22  1  0  0  0  0
 20 19  1  0  0  0  0
 23 24  2  0  0  0  0
 24 25  1  0  0  0  0
 25 29  1  0  0  0  0
 25  6  1  0  0  0  0
 26 30  1  0  0  0  0
 26 24  1  0  0  0  0
 27 26  1  0  0  0  0
 28 23  1  0  0  0  0
M  END
>  <minimizedAffinity>
-5.52771425

$$$$

 OpenBabel03272505393D

 30 31  0  0  0  0  0  0  0  0999 V2000
   37.6500   26.5750   34.2520 C   0  0  0  0  0  0  0  0  0  0  0  0
   36.9800   27.5890   34.9290 C   0  0  0  0  0  0  0  0  0  0  0  0
   36.2840   28.5660   34.2820 C   0  0  0  0  0  0  0  0  0  0  0  0
   36.2130   28.5910   32.8900 C   0  0  0  0  0  0  0  0  0  0  0  0
   36.8670   27.5980   32.2120 C   0  0  0  0  0  0  0  0  0  0  0  0
   37.5740   26.6050   32.8700 C   0  0  0  0  0  0  0  0  0  0  0  0
   37.0530   27.5460   36.0280 H   0  0  0  0  0  0  0  0  0  0  0  0
   35.8160   29.2850   34.9360 H   0  0  0  0  0  0  0  0  0  0  0  0
   35.6390   29.4040   32.4740 H   0  0  0  0  0  0  0  0  0  0  0  0
   36.7400   27.7410   31.1600 H   0  0  0  0  0  0  0  0  0  0  0  0
   38.5990   24.1230   36.7940 C   0  0  0  0  0  0  0  0  0  0  0  0
   39.8220   23.6470   36.3190 C   0  0  0  0  0  0  0  0  0  0  0  0
   40.3080   24.1810   35.1270 C   0  0  0  0  0  0  0  0  0  0  0  0
   39.5580   25.1230   34.5130 N   0  0  0  0  0  0  0  0  0  0  0  0
   38.3870   25.5640   34.9870 C   0  0  0  0  0  0  0  0  0  0  0  0
   37.9160   25.0560   36.1300 N   0  0  0  0  0  0  0  0  0  0  0  0
   40.3460   22.8910   36.8850 H   0  0  0  0  0  0  0  0  0  0  0  0
   41.2510   23.8170   34.7580 H   0  0  0  0  0  0  0  0  0  0  0  0
   38.0870   23.5480   38.0880 C   0  0  0  0  0  0  0  0  0  0  0  0
   37.0030   22.6980   37.8160 F   0  0  0  0  0  0  0  0  0  0  0  0
   39.1000   22.8990   38.6960 F   0  0  0  0  0  0  0  0  0  0  0  0
   37.5830   24.5850   38.8440 F   0  0  0  0  0  0  0  0  0  0  0  0
   36.4930   24.0860   31.8170 N   0  0  0  0  0  0  0  0  0  0  0  0
   37.5200   24.6630   31.2660 C   0  0  0  0  0  0  0  0  0  0  0  0
   38.2000   25.6210   32.0690 N   0  0  0  0  0  0  0  0  0  0  0  0
   37.9110   24.3140   29.9180 N   0  0  0  0  0  0  0  0  0  0  0  0
   37.0660   24.4010   29.3010 H   0  0  0  0  0  0  0  0  0  0  0  0
   35.9750   23.3920   31.2770 H   0  0  0  0  0  0  0  0  0  0  0  0
   39.2160   25.4370   31.9330 H   0  0  0  0  0  0  0  0  0  0  0  0
   38.8120   24.0250   29.5310 H   0  0  0  0  0  0  0  0  0  0  0  0
  1  2  1  0  0  0  0
  1 15  1  0  0  0  0
  2  7  1  0  0  0  0
  3  2  2  0  0  0  0
  3  8  1  0  0  0  0
  4  3  1  0  0  0  0
  5  6  1  0  0  0  0
  5  4  2  0  0  0  0
  6  1  2  0  0  0  0
  9  4  1  0  0  0  0
 10  5  1  0  0  0  0
 11 19  1  0  0  0  0
 12 11  1  0  0  0  0
 12 17  1  0  0  0  0
 13 12  2  0  0  0  0
 14 15  2  0  0  0  0
 14 13  1  0  0  0  0
 15 16  1  0  0  0  0
 16 11  2  0  0  0  0
 18 13  1  0  0  0  0
 19 21  1  0  0  0  0
 19 22  1  0  0  0  0
 20 19  1  0  0  0  0
 24 23  2  0  0  0  0
 24 25  1  0  0  0  0
 25  6  1  0  0  0  0
 26 24  1  0  0  0  0
 27 26  1  0  0  0  0
 28 23  1  0  0  0  0
 29 25  1  0  0  0  0
 30 26  1  0  0  0  0
M  END
>  <minimizedAffinity>
-5.52392006

$$$$

 OpenBabel03272505393D

 30 31  0  0  0  0  0  0  0  0999 V2000
   38.5100   23.1110   36.2380 C   0  0  0  0  0  0  0  0  0  0  0  0
   37.7560   24.2560   36.4730 C   0  0  0  0  0  0  0  0  0  0  0  0
   37.7370   24.8860   37.6810 C   0  0  0  0  0  0  0  0  0  0  0  0
   38.4850   24.4010   38.7520 C   0  0  0  0  0  0  0  0  0  0  0  0
   39.2330   23.2750   38.5350 C   0  0  0  0  0  0  0  0  0  0  0  0
   39.2510   22.6350   37.3060 C   0  0  0  0  0  0  0  0  0  0  0  0
   37.1730   24.6170   35.6090 H   0  0  0  0  0  0  0  0  0  0  0  0
   37.1070   25.7610   37.7150 H   0  0  0  0  0  0  0  0  0  0  0  0
   38.4030   24.9700   39.6650 H   0  0  0  0  0  0  0  0  0  0  0  0
   39.7450   23.0080   39.4340 H   0  0  0  0  0  0  0  0  0  0  0  0
   37.3530   21.3570   33.2450 C   0  0  0  0  0  0  0  0  0  0  0  0
   38.5090   21.2830   32.4670 C   0  0  0  0  0  0  0  0  0  0  0  0
   39.6780   21.8370   32.9860 C   0  0  0  0  0  0  0  0  0  0  0  0
   39.6090   22.4090   34.2090 N   0  0  0  0  0  0  0  0  0  0  0  0
   38.4870   22.4690   34.9370 C   0  0  0  0  0  0  0  0  0  0  0  0
   37.3630   21.9390   34.4450 N   0  0  0  0  0  0  0  0  0  0  0  0
   38.4610   20.8040   31.5000 H   0  0  0  0  0  0  0  0  0  0  0  0
   40.5710   21.7820   32.3880 H   0  0  0  0  0  0  0  0  0  0  0  0
   36.0980   20.7460   32.6810 C   0  0  0  0  0  0  0  0  0  0  0  0
   36.3990   20.1240   31.4590 F   0  0  0  0  0  0  0  0  0  0  0  0
   35.6040   19.8750   33.5840 F   0  0  0  0  0  0  0  0  0  0  0  0
   35.2210   21.7690   32.3870 F   0  0  0  0  0  0  0  0  0  0  0  0
   42.0750   22.4220   36.5230 N   0  0  0  0  0  0  0  0  0  0  0  0
   41.4930   21.4890   37.2170 C   0  0  0  0  0  0  0  0  0  0  0  0
   40.0700   21.4870   37.1910 N   0  0  0  0  0  0  0  0  0  0  0  0
   42.2900   20.5290   37.9510 N   0  0  0  0  0  0  0  0  0  0  0  0
   42.9710   21.0600   38.5470 H   0  0  0  0  0  0  0  0  0  0  0  0
   43.0940   22.4620   36.5140 H   0  0  0  0  0  0  0  0  0  0  0  0
   39.7890   20.4910   37.0740 H   0  0  0  0  0  0  0  0  0  0  0  0
   42.2730   19.5070   37.9620 H   0  0  0  0  0  0  0  0  0  0  0  0
  1  2  2  0  0  0  0
  1  6  1  0  0  0  0
  2  3  1  0  0  0  0
  3  8  1  0  0  0  0
  3  4  2  0  0  0  0
  4  9  1  0  0  0  0
  5  4  1  0  0  0  0
  5 10  1  0  0  0  0
  6  5  2  0  0  0  0
  7  2  1  0  0  0  0
 11 16  1  0  0  0  0
 12 13  1  0  0  0  0
 12 11  2  0  0  0  0
 13 14  2  0  0  0  0
 14 15  1  0  0  0  0
 15  1  1  0  0  0  0
 16 15  2  0  0  0  0
 17 12  1  0  0  0  0
 18 13  1  0  0  0  0
 19 11  1  0  0  0  0
 19 21  1  0  0  0  0
 20 19  1  0  0  0  0
 22 19  1  0  0  0  0
 23 24  2  0  0  0  0
 24 26  1  0  0  0  0
 25 24  1  0  0  0  0
 25  6  1  0  0  0  0
 26 30  1  0  0  0  0
 26 27  1  0  0  0  0
 28 23  1  0  0  0  0
 29 25  1  0  0  0  0
M  END
>  <minimizedAffinity>
-5.35915613

$$$$

 OpenBabel03272505393D

 30 31  0  0  0  0  0  0  0  0999 V2000
   38.1570   25.3770   33.6690 C   0  0  0  0  0  0  0  0  0  0  0  0
   37.0460   25.1850   32.8540 C   0  0  0  0  0  0  0  0  0  0  0  0
   36.6580   26.0950   31.9180 C   0  0  0  0  0  0  0  0  0  0  0  0
   37.3700   27.2790   31.7330 C   0  0  0  0  0  0  0  0  0  0  0  0
   38.4660   27.4800   32.5280 C   0  0  0  0  0  0  0  0  0  0  0  0
   38.8600   26.5540   33.4800 C   0  0  0  0  0  0  0  0  0  0  0  0
   36.5000   24.2410   33.0220 H   0  0  0  0  0  0  0  0  0  0  0  0
   35.7780   25.8120   31.3600 H   0  0  0  0  0  0  0  0  0  0  0  0
   36.9830   27.9340   30.9680 H   0  0  0  0  0  0  0  0  0  0  0  0
   38.9110   28.4230   32.2910 H   0  0  0  0  0  0  0  0  0  0  0  0
   38.5840   23.6390   36.8580 C   0  0  0  0  0  0  0  0  0  0  0  0
   39.2280   22.4590   36.4810 C   0  0  0  0  0  0  0  0  0  0  0  0
   39.5100   22.2780   35.1270 C   0  0  0  0  0  0  0  0  0  0  0  0
   39.1400   23.2590   34.2750 N   0  0  0  0  0  0  0  0  0  0  0  0
   38.5220   24.3820   34.6600 C   0  0  0  0  0  0  0  0  0  0  0  0
   38.2490   24.5620   35.9560 N   0  0  0  0  0  0  0  0  0  0  0  0
   39.4830   21.7350   37.2400 H   0  0  0  0  0  0  0  0  0  0  0  0
   40.0060   21.3690   34.8330 H   0  0  0  0  0  0  0  0  0  0  0  0
   38.2930   23.8310   38.3230 C   0  0  0  0  0  0  0  0  0  0  0  0
   39.4330   23.4880   39.0670 F   0  0  0  0  0  0  0  0  0  0  0  0
   37.9260   25.1120   38.5200 F   0  0  0  0  0  0  0  0  0  0  0  0
   37.3130   22.9290   38.6830 F   0  0  0  0  0  0  0  0  0  0  0  0
   41.5510   25.3840   33.3370 N   0  0  0  0  0  0  0  0  0  0  0  0
   41.3530   26.5650   33.8440 C   0  0  0  0  0  0  0  0  0  0  0  0
   40.0170   26.8590   34.2350 N   0  0  0  0  0  0  0  0  0  0  0  0
   42.4590   27.4860   33.9870 N   0  0  0  0  0  0  0  0  0  0  0  0
   42.9420   27.5620   33.0590 H   0  0  0  0  0  0  0  0  0  0  0  0
   42.4940   25.1310   33.0420 H   0  0  0  0  0  0  0  0  0  0  0  0
   40.0880   27.3300   35.1610 H   0  0  0  0  0  0  0  0  0  0  0  0
   42.7930   28.0180   34.7940 H   0  0  0  0  0  0  0  0  0  0  0  0
  1 15  1  0  0  0  0
  2  7  1  0  0  0  0
  2  1  2  0  0  0  0
  3  2  1  0  0  0  0
  4  3  2  0  0  0  0
  4  5  1  0  0  0  0
  5  6  2  0  0  0  0
  6  1  1  0  0  0  0
  6 25  1  0  0  0  0
  8  3  1  0  0  0  0
  9  4  1  0  0  0  0
 10  5  1  0  0  0  0
 11 19  1  0  0  0  0
 12 11  1  0  0  0  0
 12 17  1  0  0  0  0
 13 12  2  0  0  0  0
 14 15  2  0  0  0  0
 14 13  1  0  0  0  0
 15 16  1  0  0  0  0
 16 11  2  0  0  0  0
 18 13  1  0  0  0  0
 19 21  1  0  0  0  0
 19 22  1  0  0  0  0
 19 20  1  0  0  0  0
 23 24  2  0  0  0  0
 24 26  1  0  0  0  0
 24 25  1  0  0  0  0
 25 29  1  0  0  0  0
 26 30  1  0  0  0  0
 27 26  1  0  0  0  0
 28 23  1  0  0  0  0
M  END
>  <minimizedAffinity>
-5.34183168

$$$$

 OpenBabel03272505393D

 30 31  0  0  0  0  0  0  0  0999 V2000
   36.4450   28.2720   33.4150 C   0  0  0  0  0  0  0  0  0  0  0  0
   35.5950   28.8890   34.3270 C   0  0  0  0  0  0  0  0  0  0  0  0
   35.0580   30.1230   34.1090 C   0  0  0  0  0  0  0  0  0  0  0  0
   35.3430   30.8310   32.9430 C   0  0  0  0  0  0  0  0  0  0  0  0
   36.1780   30.2350   32.0370 C   0  0  0  0  0  0  0  0  0  0  0  0
   36.7240   28.9810   32.2590 C   0  0  0  0  0  0  0  0  0  0  0  0
   35.3860   28.3080   35.2400 H   0  0  0  0  0  0  0  0  0  0  0  0
   34.4170   30.4740   34.9030 H   0  0  0  0  0  0  0  0  0  0  0  0
   34.8700   31.7980   32.8650 H   0  0  0  0  0  0  0  0  0  0  0  0
   36.3200   30.8850   31.2000 H   0  0  0  0  0  0  0  0  0  0  0  0
   37.7790   25.3730   35.2000 C   0  0  0  0  0  0  0  0  0  0  0  0
   38.0380   24.4690   34.1680 C   0  0  0  0  0  0  0  0  0  0  0  0
   37.7520   24.8730   32.8650 C   0  0  0  0  0  0  0  0  0  0  0  0
   37.2420   26.1130   32.6930 N   0  0  0  0  0  0  0  0  0  0  0  0
   37.0010   26.9620   33.6990 C   0  0  0  0  0  0  0  0  0  0  0  0
   37.2740   26.5810   34.9510 N   0  0  0  0  0  0  0  0  0  0  0  0
   38.4480   23.5000   34.4100 H   0  0  0  0  0  0  0  0  0  0  0  0
   37.9500   24.1790   32.0670 H   0  0  0  0  0  0  0  0  0  0  0  0
   38.1020   24.9320   36.6030 C   0  0  0  0  0  0  0  0  0  0  0  0
   38.3350   26.0660   37.3990 F   0  0  0  0  0  0  0  0  0  0  0  0
   37.0740   24.1930   37.0650 F   0  0  0  0  0  0  0  0  0  0  0  0
   39.2910   24.2350   36.5680 F   0  0  0  0  0  0  0  0  0  0  0  0
   36.0660   27.1890   30.0260 N   0  0  0  0  0  0  0  0  0  0  0  0
   37.1180   27.9520   29.9930 C   0  0  0  0  0  0  0  0  0  0  0  0
   37.5630   28.4550   31.2480 N   0  0  0  0  0  0  0  0  0  0  0  0
   37.7660   28.2380   28.7320 N   0  0  0  0  0  0  0  0  0  0  0  0
   37.0380   28.5880   28.0630 H   0  0  0  0  0  0  0  0  0  0  0  0
   35.7120   26.8070   29.1490 H   0  0  0  0  0  0  0  0  0  0  0  0
   38.5990   28.3520   31.2460 H   0  0  0  0  0  0  0  0  0  0  0  0
   38.7430   28.1520   28.4410 H   0  0  0  0  0  0  0  0  0  0  0  0
  1 15  1  0  0  0  0
  1  2  1  0  0  0  0
  2  7  1  0  0  0  0
  3  2  2  0  0  0  0
  3  8  1  0  0  0  0
  4  3  1  0  0  0  0
  5  6  1  0  0  0  0
  5  4  2  0  0  0  0
  6  1  2  0  0  0  0
  9  4  1  0  0  0  0
 10  5  1  0  0  0  0
 11 19  1  0  0  0  0
 12 17  1  0  0  0  0
 12 11  2  0  0  0  0
 13 12  1  0  0  0  0
 14 13  2  0  0  0  0
 14 15  1  0  0  0  0
 15 16  2  0  0  0  0
 16 11  1  0  0  0  0
 18 13  1  0  0  0  0
 19 21  1  0  0  0  0
 19 20  1  0  0  0  0
 22 19  1  0  0  0  0
 24 23  2  0  0  0  0
 24 25  1  0  0  0  0
 25  6  1  0  0  0  0
 26 24  1  0  0  0  0
 27 26  1  0  0  0  0
 28 23  1  0  0  0  0
 29 25  1  0  0  0  0
 30 26  1  0  0  0  0
M  END
>  <minimizedAffinity>
-5.33011007

$$$$

 OpenBabel03272505393D

 30 31  0  0  0  0  0  0  0  0999 V2000
   41.3710   23.2420   35.6110 C   0  0  0  0  0  0  0  0  0  0  0  0
   42.7590   23.2010   35.5250 C   0  0  0  0  0  0  0  0  0  0  0  0
   43.5030   22.2450   36.1500 C   0  0  0  0  0  0  0  0  0  0  0  0
   42.8950   21.2520   36.9150 C   0  0  0  0  0  0  0  0  0  0  0  0
   41.5290   21.2810   37.0070 C   0  0  0  0  0  0  0  0  0  0  0  0
   40.7730   22.2520   36.3720 C   0  0  0  0  0  0  0  0  0  0  0  0
   43.2140   23.9980   34.9140 H   0  0  0  0  0  0  0  0  0  0  0  0
   44.5670   22.3380   35.9940 H   0  0  0  0  0  0  0  0  0  0  0  0
   43.5700   20.5420   37.3690 H   0  0  0  0  0  0  0  0  0  0  0  0
   41.1960   20.4750   37.6270 H   0  0  0  0  0  0  0  0  0  0  0  0
   39.0670   26.0080   34.9680 C   0  0  0  0  0  0  0  0  0  0  0  0
   39.2540   26.2540   33.6070 C   0  0  0  0  0  0  0  0  0  0  0  0
   40.1730   25.4580   32.9240 C   0  0  0  0  0  0  0  0  0  0  0  0
   40.8200   24.5040   33.6300 N   0  0  0  0  0  0  0  0  0  0  0  0
   40.6240   24.2880   34.9370 C   0  0  0  0  0  0  0  0  0  0  0  0
   39.7440   25.0470   35.5970 N   0  0  0  0  0  0  0  0  0  0  0  0
   38.6880   27.0420   33.1330 H   0  0  0  0  0  0  0  0  0  0  0  0
   40.3200   25.6440   31.8750 H   0  0  0  0  0  0  0  0  0  0  0  0
   38.0650   26.8660   35.6950 C   0  0  0  0  0  0  0  0  0  0  0  0
   38.1920   26.6490   37.0770 F   0  0  0  0  0  0  0  0  0  0  0  0
   38.2850   28.1530   35.3620 F   0  0  0  0  0  0  0  0  0  0  0  0
   36.8030   26.4300   35.3510 F   0  0  0  0  0  0  0  0  0  0  0  0
   39.1090   22.8900   38.7070 N   0  0  0  0  0  0  0  0  0  0  0  0
   38.6120   22.8790   37.5060 C   0  0  0  0  0  0  0  0  0  0  0  0
   39.3690   22.1780   36.5250 N   0  0  0  0  0  0  0  0  0  0  0  0
   37.3590   23.5490   37.2340 N   0  0  0  0  0  0  0  0  0  0  0  0
   37.4310   24.5320   37.5930 H   0  0  0  0  0  0  0  0  0  0  0  0
   38.6000   23.3810   39.4420 H   0  0  0  0  0  0  0  0  0  0  0  0
   38.6790   21.6270   35.9730 H   0  0  0  0  0  0  0  0  0  0  0  0
   36.5030   23.2190   36.7830 H   0  0  0  0  0  0  0  0  0  0  0  0
  1  6  1  0  0  0  0
  2  1  2  0  0  0  0
  2  3  1  0  0  0  0
  3  4  2  0  0  0  0
  4  5  1  0  0  0  0
  4  9  1  0  0  0  0
  5 10  1  0  0  0  0
  6 25  1  0  0  0  0
  6  5  2  0  0  0  0
  7  2  1  0  0  0  0
  8  3  1  0  0  0  0
 11 16  1  0  0  0  0
 11 19  1  0  0  0  0
 12 11  2  0  0  0  0
 13 12  1  0  0  0  0
 13 14  2  0  0  0  0
 14 15  1  0  0  0  0
 15 16  2  0  0  0  0
 15  1  1  0  0  0  0
 17 12  1  0  0  0  0
 18 13  1  0  0  0  0
 19 20  1  0  0  0  0
 21 19  1  0  0  0  0
 22 19  1  0  0  0  0
 23 28  1  0  0  0  0
 24 23  2  0  0  0  0
 25 24  1  0  0  0  0
 26 24  1  0  0  0  0
 26 27  1  0  0  0  0
 29 25  1  0  0  0  0
 30 26  1  0  0  0  0
M  END
>  <minimizedAffinity>
-5.32519722

$$$$

 OpenBabel03272505393D

 30 31  0  0  0  0  0  0  0  0999 V2000
   38.8260   23.0360   34.2440 C   0  0  0  0  0  0  0  0  0  0  0  0
   39.8240   22.9190   33.2810 C   0  0  0  0  0  0  0  0  0  0  0  0
   40.9310   23.7140   33.2730 C   0  0  0  0  0  0  0  0  0  0  0  0
   41.1140   24.6950   34.2460 C   0  0  0  0  0  0  0  0  0  0  0  0
   40.1400   24.8200   35.2000 C   0  0  0  0  0  0  0  0  0  0  0  0
   39.0150   24.0120   35.2080 C   0  0  0  0  0  0  0  0  0  0  0  0
   39.6540   22.1360   32.5240 H   0  0  0  0  0  0  0  0  0  0  0  0
   41.6180   23.5090   32.4670 H   0  0  0  0  0  0  0  0  0  0  0  0
   42.0210   25.2710   34.1530 H   0  0  0  0  0  0  0  0  0  0  0  0
   40.3990   25.6100   35.8730 H   0  0  0  0  0  0  0  0  0  0  0  0
   35.9820   21.0910   33.0210 C   0  0  0  0  0  0  0  0  0  0  0  0
   35.4690   20.5270   34.1910 C   0  0  0  0  0  0  0  0  0  0  0  0
   36.1110   20.8290   35.3920 C   0  0  0  0  0  0  0  0  0  0  0  0
   37.1860   21.6460   35.3370 N   0  0  0  0  0  0  0  0  0  0  0  0
   37.6600   22.1730   34.2030 C   0  0  0  0  0  0  0  0  0  0  0  0
   37.0490   21.8890   33.0480 N   0  0  0  0  0  0  0  0  0  0  0  0
   34.6030   19.8850   34.1290 H   0  0  0  0  0  0  0  0  0  0  0  0
   35.7190   20.3960   36.2960 H   0  0  0  0  0  0  0  0  0  0  0  0
   35.2760   20.7680   31.7310 C   0  0  0  0  0  0  0  0  0  0  0  0
   35.1980   21.9300   30.9460 F   0  0  0  0  0  0  0  0  0  0  0  0
   35.9530   19.7830   31.1090 F   0  0  0  0  0  0  0  0  0  0  0  0
   33.9760   20.4200   32.0320 F   0  0  0  0  0  0  0  0  0  0  0  0
   38.8030   22.6910   37.8230 N   0  0  0  0  0  0  0  0  0  0  0  0
   38.2770   23.8620   37.6120 C   0  0  0  0  0  0  0  0  0  0  0  0
   38.0800   24.2200   36.2490 N   0  0  0  0  0  0  0  0  0  0  0  0
   37.9260   24.7100   38.7300 N   0  0  0  0  0  0  0  0  0  0  0  0
   38.7660   24.7910   39.3530 H   0  0  0  0  0  0  0  0  0  0  0  0
   38.9630   22.3930   38.7850 H   0  0  0  0  0  0  0  0  0  0  0  0
   37.1330   24.6500   36.2020 H   0  0  0  0  0  0  0  0  0  0  0  0
   37.0550   25.1900   38.9640 H   0  0  0  0  0  0  0  0  0  0  0  0
  1  6  1  0  0  0  0
  2  1  2  0  0  0  0
  3  2  1  0  0  0  0
  3  4  2  0  0  0  0
  4  5  1  0  0  0  0
  5  6  2  0  0  0  0
  5 10  1  0  0  0  0
  6 25  1  0  0  0  0
  7  2  1  0  0  0  0
  8  3  1  0  0  0  0
  9  4  1  0  0  0  0
 11 16  2  0  0  0  0
 11 12  1  0  0  0  0
 12 13  2  0  0  0  0
 13 18  1  0  0  0  0
 14 13  1  0  0  0  0
 15  1  1  0  0  0  0
 15 14  2  0  0  0  0
 16 15  1  0  0  0  0
 17 12  1  0  0  0  0
 19 22  1  0  0  0  0
 19 11  1  0  0  0  0
 20 19  1  0  0  0  0
 21 19  1  0  0  0  0
 23 28  1  0  0  0  0
 24 23  2  0  0  0  0
 24 26  1  0  0  0  0
 25 24  1  0  0  0  0
 26 30  1  0  0  0  0
 26 27  1  0  0  0  0
 29 25  1  0  0  0  0
M  END
>  <minimizedAffinity>
-5.26095533

$$$$
