
     RDKit          3D

 18 18  0  0  0  0  0  0  0  0999 V2000
   37.3158   30.0112   51.1664 C   0  0  0  0  0  0  0  0  0  0  0  0
   37.9830   30.9310   50.3557 C   0  0  0  0  0  0  0  0  0  0  0  0
   37.2644   31.3648   49.2580 C   0  0  0  0  0  0  0  0  0  0  0  0
   36.0037   30.9150   49.0067 N   0  0  0  0  0  0  0  0  0  0  0  0
   35.3919   30.0226   49.8176 C   0  0  0  0  0  0  0  0  0  0  0  0
   36.0751   29.6013   50.8740 N   0  0  0  0  0  0  0  0  0  0  0  0
   38.0602   29.5981   52.2537 O   0  0  0  0  0  0  0  0  0  0  0  0
   37.6420   32.0764   48.5435 H   0  0  0  0  0  0  0  0  0  0  0  0
   34.4009   29.6220   49.6852 H   0  0  0  0  0  0  0  0  0  0  0  0
   37.7957   28.8557   52.8963 H   0  0  0  0  0  0  0  0  0  0  0  0
   40.1671   31.4668   48.5160 N   0  0  0  0  0  0  0  0  0  0  0  0
   40.1422   32.0589   49.6878 C   0  0  0  0  0  0  0  0  0  0  0  0
   39.2938   31.4068   50.6207 N   0  0  0  0  0  0  0  0  0  0  0  0
   40.8410   33.2415   50.1359 N   0  0  0  0  0  0  0  0  0  0  0  0
   41.2366   33.1831   51.1034 H   0  0  0  0  0  0  0  0  0  0  0  0
   40.7875   31.9382   47.8232 H   0  0  0  0  0  0  0  0  0  0  0  0
   39.6502   31.2553   51.6147 H   0  0  0  0  0  0  0  0  0  0  0  0
   40.8353   33.9948   49.3840 H   0  0  0  0  0  0  0  0  0  0  0  0
  1  7  1  0
  2  1  2  0
  3  2  1  0
  4  3  2  0
  4  5  1  0
  5  6  2  0
  6  1  1  0
  3  8  1  0
  5  9  1  0
  7 10  1  0
 11 12  2  3
 12 13  1  0
 12 14  1  0
 14 15  1  0
 11 16  1  0
 13 17  1  0
 14 18  1  0
  2 13  1  0
M  ISO  4   8  14   9  14  10   3  15   5
M  END
>  <DihAtoms>  (1) 
0,1,12,11

>  <DihDeg>  (1) 
178.05862989052724

$$$$
