
 OpenBabel03272507373D

 18 18  0  0  0  0  0  0  0  0999 V2000
   38.7760   23.3060   37.7610 C   0  0  0  0  0  0  0  0  0  0  0  0
   39.4940   22.7300   36.7120 C   0  0  0  0  0  0  0  0  0  0  0  0
   39.3930   23.3970   35.5050 C   0  0  0  0  0  0  0  0  0  0  0  0
   38.6440   24.5260   35.3750 N   0  0  0  0  0  0  0  0  0  0  0  0
   37.9630   25.0530   36.4170 C   0  0  0  0  0  0  0  0  0  0  0  0
   38.0550   24.4190   37.5790 N   0  0  0  0  0  0  0  0  0  0  0  0
   39.8920   23.0770   34.6070 H   0  0  0  0  0  0  0  0  0  0  0  0
   37.3520   25.9400   36.3910 H   0  0  0  0  0  0  0  0  0  0  0  0
   42.3840   22.4280   36.7120 N   0  0  0  0  0  0  0  0  0  0  0  0
   41.6330   21.5130   37.2810 C   0  0  0  0  0  0  0  0  0  0  0  0
   40.2820   21.5570   36.8490 N   0  0  0  0  0  0  0  0  0  0  0  0
   41.9900   20.5030   38.2520 N   0  0  0  0  0  0  0  0  0  0  0  0
   41.5640   19.5610   38.0880 H   0  0  0  0  0  0  0  0  0  0  0  0
   43.3790   22.4030   37.0220 H   0  0  0  0  0  0  0  0  0  0  0  0
   39.7940   20.6400   36.6050 H   0  0  0  0  0  0  0  0  0  0  0  0
   42.6460   20.9000   38.9900 H   0  0  0  0  0  0  0  0  0  0  0  0
   38.8990   22.6170   38.9520 O   0  0  0  0  0  0  0  0  0  0  0  0
   38.3710   22.8120   39.7980 H   0  0  0  0  0  0  0  0  0  0  0  0
  1 17  1  0  0  0  0
  2 11  1  0  0  0  0
  2  1  2  0  0  0  0
  3  2  1  0  0  0  0
  4  3  2  0  0  0  0
  4  5  1  0  0  0  0
  5  6  2  0  0  0  0
  6  1  1  0  0  0  0
  7  3  1  0  0  0  0
  8  5  1  0  0  0  0
  9 14  1  0  0  0  0
  9 10  2  0  0  0  0
 10 12  1  0  0  0  0
 11 10  1  0  0  0  0
 12 16  1  0  0  0  0
 13 12  1  0  0  0  0
 15 11  1  0  0  0  0
 17 18  1  0  0  0  0
M  END
>  <minimizedAffinity>
-4.44163609

$$$$

 OpenBabel03272507373D

 18 18  0  0  0  0  0  0  0  0999 V2000
   36.2810   21.0600   35.6090 C   0  0  0  0  0  0  0  0  0  0  0  0
   37.4750   21.7500   35.3960 C   0  0  0  0  0  0  0  0  0  0  0  0
   37.7570   22.0270   34.0710 C   0  0  0  0  0  0  0  0  0  0  0  0
   36.9180   21.6460   33.0690 N   0  0  0  0  0  0  0  0  0  0  0  0
   35.7680   20.9800   33.3180 C   0  0  0  0  0  0  0  0  0  0  0  0
   35.4900   20.7090   34.5860 N   0  0  0  0  0  0  0  0  0  0  0  0
   38.6380   22.5550   33.7490 H   0  0  0  0  0  0  0  0  0  0  0  0
   35.0570   20.6460   32.5800 H   0  0  0  0  0  0  0  0  0  0  0  0
   37.5940   24.2690   36.8390 N   0  0  0  0  0  0  0  0  0  0  0  0
   38.0860   23.1810   37.3860 C   0  0  0  0  0  0  0  0  0  0  0  0
   38.3470   22.1540   36.4410 N   0  0  0  0  0  0  0  0  0  0  0  0
   38.3860   22.9030   38.7720 N   0  0  0  0  0  0  0  0  0  0  0  0
   39.2840   22.3910   38.9370 H   0  0  0  0  0  0  0  0  0  0  0  0
   37.3990   25.0300   37.5250 H   0  0  0  0  0  0  0  0  0  0  0  0
   39.2700   21.6240   36.5060 H   0  0  0  0  0  0  0  0  0  0  0  0
   37.6210   23.2780   39.4100 H   0  0  0  0  0  0  0  0  0  0  0  0
   36.0280   20.8000   36.9420 O   0  0  0  0  0  0  0  0  0  0  0  0
   35.2720   20.2180   37.2910 H   0  0  0  0  0  0  0  0  0  0  0  0
  1 17  1  0  0  0  0
  2  1  1  0  0  0  0
  2 11  1  0  0  0  0
  3  2  2  0  0  0  0
  4  5  2  0  0  0  0
  4  3  1  0  0  0  0
  5  6  1  0  0  0  0
  6  1  2  0  0  0  0
  7  3  1  0  0  0  0
  8  5  1  0  0  0  0
  9 10  2  0  0  0  0
  9 14  1  0  0  0  0
 10 12  1  0  0  0  0
 11 15  1  0  0  0  0
 11 10  1  0  0  0  0
 12 13  1  0  0  0  0
 12 16  1  0  0  0  0
 17 18  1  0  0  0  0
M  END
>  <minimizedAffinity>
-4.09762239

$$$$

 OpenBabel03272507373D

 18 18  0  0  0  0  0  0  0  0999 V2000
   39.2310   23.5160   35.9440 C   0  0  0  0  0  0  0  0  0  0  0  0
   39.5120   22.7270   37.0600 C   0  0  0  0  0  0  0  0  0  0  0  0
   38.9550   23.1760   38.2420 C   0  0  0  0  0  0  0  0  0  0  0  0
   38.1950   24.3040   38.2900 N   0  0  0  0  0  0  0  0  0  0  0  0
   37.9450   25.0410   37.1850 C   0  0  0  0  0  0  0  0  0  0  0  0
   38.4760   24.6180   36.0450 N   0  0  0  0  0  0  0  0  0  0  0  0
   39.0780   22.6730   39.1860 H   0  0  0  0  0  0  0  0  0  0  0  0
   37.3560   25.9420   37.1440 H   0  0  0  0  0  0  0  0  0  0  0  0
   42.3760   22.4220   36.6770 N   0  0  0  0  0  0  0  0  0  0  0  0
   41.6920   21.4680   37.2660 C   0  0  0  0  0  0  0  0  0  0  0  0
   40.2980   21.5460   37.0100 N   0  0  0  0  0  0  0  0  0  0  0  0
   42.1560   20.3880   38.1070 N   0  0  0  0  0  0  0  0  0  0  0  0
   41.7030   19.4620   37.9280 H   0  0  0  0  0  0  0  0  0  0  0  0
   43.4020   22.3730   36.8580 H   0  0  0  0  0  0  0  0  0  0  0  0
   39.7740   20.6510   36.7610 H   0  0  0  0  0  0  0  0  0  0  0  0
   42.9020   20.7280   38.7850 H   0  0  0  0  0  0  0  0  0  0  0  0
   39.8000   23.0410   34.7780 O   0  0  0  0  0  0  0  0  0  0  0  0
   39.8040   23.5290   33.8870 H   0  0  0  0  0  0  0  0  0  0  0  0
  1  6  2  0  0  0  0
  1  2  1  0  0  0  0
  2  3  2  0  0  0  0
  3  4  1  0  0  0  0
  3  7  1  0  0  0  0
  5  4  2  0  0  0  0
  6  5  1  0  0  0  0
  8  5  1  0  0  0  0
  9 14  1  0  0  0  0
  9 10  2  0  0  0  0
 10 12  1  0  0  0  0
 11  2  1  0  0  0  0
 11 10  1  0  0  0  0
 12 16  1  0  0  0  0
 13 12  1  0  0  0  0
 15 11  1  0  0  0  0
 17  1  1  0  0  0  0
 18 17  1  0  0  0  0
M  END
>  <minimizedAffinity>
-3.89410019

$$$$

 OpenBabel03272507373D

 18 18  0  0  0  0  0  0  0  0999 V2000
   39.3920   24.0250   35.7980 C   0  0  0  0  0  0  0  0  0  0  0  0
   38.3150   24.7010   36.3730 C   0  0  0  0  0  0  0  0  0  0  0  0
   38.0490   24.3560   37.6850 C   0  0  0  0  0  0  0  0  0  0  0  0
   38.7930   23.4260   38.3440 N   0  0  0  0  0  0  0  0  0  0  0  0
   39.8300   22.7930   37.7500 C   0  0  0  0  0  0  0  0  0  0  0  0
   40.0920   23.1180   36.4910 N   0  0  0  0  0  0  0  0  0  0  0  0
   37.2540   24.7930   38.2640 H   0  0  0  0  0  0  0  0  0  0  0  0
   40.4620   22.0490   38.2040 H   0  0  0  0  0  0  0  0  0  0  0  0
   38.6110   27.5910   36.3170 N   0  0  0  0  0  0  0  0  0  0  0  0
   37.9800   26.9810   35.3400 C   0  0  0  0  0  0  0  0  0  0  0  0
   37.5430   25.6770   35.6900 N   0  0  0  0  0  0  0  0  0  0  0  0
   37.6820   27.4480   34.0050 N   0  0  0  0  0  0  0  0  0  0  0  0
   36.7230   27.2120   33.6570 H   0  0  0  0  0  0  0  0  0  0  0  0
   38.9360   28.5510   36.0710 H   0  0  0  0  0  0  0  0  0  0  0  0
   36.5540   25.3810   35.4230 H   0  0  0  0  0  0  0  0  0  0  0  0
   38.5120   27.9690   33.5900 H   0  0  0  0  0  0  0  0  0  0  0  0
   39.6330   24.3920   34.4880 O   0  0  0  0  0  0  0  0  0  0  0  0
   40.2970   23.9400   33.8660 H   0  0  0  0  0  0  0  0  0  0  0  0
  1  2  2  0  0  0  0
  1  6  1  0  0  0  0
  2  3  1  0  0  0  0
  3  7  1  0  0  0  0
  3  4  2  0  0  0  0
  5  8  1  0  0  0  0
  5  4  1  0  0  0  0
  6  5  2  0  0  0  0
 10 11  1  0  0  0  0
 10  9  2  0  0  0  0
 11  2  1  0  0  0  0
 12 10  1  0  0  0  0
 13 12  1  0  0  0  0
 14  9  1  0  0  0  0
 15 11  1  0  0  0  0
 16 12  1  0  0  0  0
 17  1  1  0  0  0  0
 18 17  1  0  0  0  0
M  END
>  <minimizedAffinity>
-3.79593754

$$$$

 OpenBabel03272507373D

 18 18  0  0  0  0  0  0  0  0999 V2000
   37.2570   21.8880   35.3310 C   0  0  0  0  0  0  0  0  0  0  0  0
   37.9220   22.8600   36.0800 C   0  0  0  0  0  0  0  0  0  0  0  0
   38.5710   23.8240   35.3320 C   0  0  0  0  0  0  0  0  0  0  0  0
   38.5500   23.8060   33.9710 N   0  0  0  0  0  0  0  0  0  0  0  0
   37.8920   22.8460   33.2820 C   0  0  0  0  0  0  0  0  0  0  0  0
   37.2670   21.9160   33.9920 N   0  0  0  0  0  0  0  0  0  0  0  0
   39.1230   24.6400   35.7650 H   0  0  0  0  0  0  0  0  0  0  0  0
   37.8310   22.7650   32.2100 H   0  0  0  0  0  0  0  0  0  0  0  0
   40.0740   22.2070   37.9200 N   0  0  0  0  0  0  0  0  0  0  0  0
   39.0970   22.9930   38.3110 C   0  0  0  0  0  0  0  0  0  0  0  0
   37.9380   22.8850   37.4990 N   0  0  0  0  0  0  0  0  0  0  0  0
   39.0490   23.9170   39.4220 N   0  0  0  0  0  0  0  0  0  0  0  0
   38.1510   23.9170   39.9590 H   0  0  0  0  0  0  0  0  0  0  0  0
   40.9310   22.2790   38.5100 H   0  0  0  0  0  0  0  0  0  0  0  0
   36.9860   22.8200   37.9750 H   0  0  0  0  0  0  0  0  0  0  0  0
   39.9630   24.4550   39.5090 H   0  0  0  0  0  0  0  0  0  0  0  0
   36.6190   20.9400   36.1070 O   0  0  0  0  0  0  0  0  0  0  0  0
   36.1760   20.0960   35.7540 H   0  0  0  0  0  0  0  0  0  0  0  0
  1  2  1  0  0  0  0
  1 17  1  0  0  0  0
  2 11  1  0  0  0  0
  3  7  1  0  0  0  0
  3  2  2  0  0  0  0
  4  3  1  0  0  0  0
  5  4  2  0  0  0  0
  5  6  1  0  0  0  0
  6  1  2  0  0  0  0
  8  5  1  0  0  0  0
  9 10  2  0  0  0  0
  9 14  1  0  0  0  0
 10 12  1  0  0  0  0
 11 15  1  0  0  0  0
 11 10  1  0  0  0  0
 12 16  1  0  0  0  0
 12 13  1  0  0  0  0
 18 17  1  0  0  0  0
M  END
>  <minimizedAffinity>
-3.70645785

$$$$

 OpenBabel03272507373D

 18 18  0  0  0  0  0  0  0  0999 V2000
   41.7700   22.0280   36.9880 C   0  0  0  0  0  0  0  0  0  0  0  0
   40.6860   22.6600   36.3770 C   0  0  0  0  0  0  0  0  0  0  0  0
   41.0250   23.6350   35.4580 C   0  0  0  0  0  0  0  0  0  0  0  0
   42.3240   23.9370   35.1850 N   0  0  0  0  0  0  0  0  0  0  0  0
   43.3470   23.3000   35.7980 C   0  0  0  0  0  0  0  0  0  0  0  0
   43.0300   22.3640   36.6830 N   0  0  0  0  0  0  0  0  0  0  0  0
   40.3010   24.2060   34.9030 H   0  0  0  0  0  0  0  0  0  0  0  0
   44.3960   23.4840   35.6360 H   0  0  0  0  0  0  0  0  0  0  0  0
   39.1390   23.0890   38.8000 N   0  0  0  0  0  0  0  0  0  0  0  0
   38.5230   22.9520   37.6480 C   0  0  0  0  0  0  0  0  0  0  0  0
   39.3310   22.3400   36.6550 N   0  0  0  0  0  0  0  0  0  0  0  0
   37.1780   23.3280   37.2750 N   0  0  0  0  0  0  0  0  0  0  0  0
   36.6710   22.6290   36.6840 H   0  0  0  0  0  0  0  0  0  0  0  0
   38.5530   23.5380   39.5370 H   0  0  0  0  0  0  0  0  0  0  0  0
   38.9030   21.5730   36.0490 H   0  0  0  0  0  0  0  0  0  0  0  0
   36.9240   24.2800   37.6760 H   0  0  0  0  0  0  0  0  0  0  0  0
   41.3980   21.0600   37.9000 O   0  0  0  0  0  0  0  0  0  0  0  0
   42.0330   20.5680   38.5230 H   0  0  0  0  0  0  0  0  0  0  0  0
  1 17  1  0  0  0  0
  2 11  1  0  0  0  0
  2  1  2  0  0  0  0
  3  2  1  0  0  0  0
  4  3  2  0  0  0  0
  4  5  1  0  0  0  0
  5  6  2  0  0  0  0
  6  1  1  0  0  0  0
  7  3  1  0  0  0  0
  8  5  1  0  0  0  0
  9 14  1  0  0  0  0
 10  9  2  0  0  0  0
 11 10  1  0  0  0  0
 12 10  1  0  0  0  0
 12 16  1  0  0  0  0
 13 12  1  0  0  0  0
 15 11  1  0  0  0  0
 17 18  1  0  0  0  0
M  END
>  <minimizedAffinity>
-3.62892985

$$$$

 OpenBabel03272507373D

 18 18  0  0  0  0  0  0  0  0999 V2000
   38.5410   23.9970   37.2940 C   0  0  0  0  0  0  0  0  0  0  0  0
   38.3590   24.5920   36.0450 C   0  0  0  0  0  0  0  0  0  0  0  0
   39.1210   24.0490   35.0270 C   0  0  0  0  0  0  0  0  0  0  0  0
   39.9770   23.0150   35.2510 N   0  0  0  0  0  0  0  0  0  0  0  0
   40.1240   22.4650   36.4770 C   0  0  0  0  0  0  0  0  0  0  0  0
   39.3960   22.9800   37.4600 N   0  0  0  0  0  0  0  0  0  0  0  0
   39.0880   24.3980   34.0090 H   0  0  0  0  0  0  0  0  0  0  0  0
   40.7790   21.6480   36.7310 H   0  0  0  0  0  0  0  0  0  0  0  0
   38.8070   27.4570   36.2290 N   0  0  0  0  0  0  0  0  0  0  0  0
   37.8300   26.9970   35.4810 C   0  0  0  0  0  0  0  0  0  0  0  0
   37.4610   25.6660   35.8080 N   0  0  0  0  0  0  0  0  0  0  0  0
   37.1070   27.6450   34.4110 N   0  0  0  0  0  0  0  0  0  0  0  0
   36.0740   27.4770   34.4080 H   0  0  0  0  0  0  0  0  0  0  0  0
   39.0850   28.4350   35.9970 H   0  0  0  0  0  0  0  0  0  0  0  0
   36.4240   25.4280   35.8840 H   0  0  0  0  0  0  0  0  0  0  0  0
   37.7670   28.2010   33.7890 H   0  0  0  0  0  0  0  0  0  0  0  0
   37.7650   24.5600   38.2880 O   0  0  0  0  0  0  0  0  0  0  0  0
   37.8330   24.3420   39.2780 H   0  0  0  0  0  0  0  0  0  0  0  0
  1  6  1  0  0  0  0
  1 17  1  0  0  0  0
  2  1  2  0  0  0  0
  3  4  2  0  0  0  0
  3  2  1  0  0  0  0
  4  5  1  0  0  0  0
  5  8  1  0  0  0  0
  5  6  2  0  0  0  0
  7  3  1  0  0  0  0
 10 11  1  0  0  0  0
 10  9  2  0  0  0  0
 11 15  1  0  0  0  0
 11  2  1  0  0  0  0
 12 10  1  0  0  0  0
 13 12  1  0  0  0  0
 14  9  1  0  0  0  0
 16 12  1  0  0  0  0
 17 18  1  0  0  0  0
M  END
>  <minimizedAffinity>
-3.55782437

$$$$

 OpenBabel03272507373D

 18 18  0  0  0  0  0  0  0  0999 V2000
   38.1790   24.7110   34.6040 C   0  0  0  0  0  0  0  0  0  0  0  0
   38.0840   24.9290   35.9790 C   0  0  0  0  0  0  0  0  0  0  0  0
   38.3710   26.2190   36.3830 C   0  0  0  0  0  0  0  0  0  0  0  0
   38.7180   27.1860   35.4900 N   0  0  0  0  0  0  0  0  0  0  0  0
   38.7980   26.9340   34.1640 C   0  0  0  0  0  0  0  0  0  0  0  0
   38.5240   25.6980   33.7680 N   0  0  0  0  0  0  0  0  0  0  0  0
   38.3370   26.5420   37.4090 H   0  0  0  0  0  0  0  0  0  0  0  0
   39.0660   27.6440   33.3990 H   0  0  0  0  0  0  0  0  0  0  0  0
   39.4930   22.5080   36.7500 N   0  0  0  0  0  0  0  0  0  0  0  0
   38.6050   23.0320   37.5630 C   0  0  0  0  0  0  0  0  0  0  0  0
   37.7140   23.9240   36.9110 N   0  0  0  0  0  0  0  0  0  0  0  0
   38.4210   22.8240   38.9810 N   0  0  0  0  0  0  0  0  0  0  0  0
   37.4250   22.7330   39.2910 H   0  0  0  0  0  0  0  0  0  0  0  0
   40.1530   21.8500   37.2190 H   0  0  0  0  0  0  0  0  0  0  0  0
   36.6720   23.8540   37.1290 H   0  0  0  0  0  0  0  0  0  0  0  0
   39.3580   22.7970   39.4860 H   0  0  0  0  0  0  0  0  0  0  0  0
   37.8850   23.4140   34.2330 O   0  0  0  0  0  0  0  0  0  0  0  0
   38.0030   23.0310   33.2990 H   0  0  0  0  0  0  0  0  0  0  0  0
  1  2  1  0  0  0  0
  2  3  2  0  0  0  0
  2 11  1  0  0  0  0
  3  7  1  0  0  0  0
  4  3  1  0  0  0  0
  5  4  2  0  0  0  0
  6  5  1  0  0  0  0
  6  1  2  0  0  0  0
  8  5  1  0  0  0  0
  9 14  1  0  0  0  0
  9 10  2  0  0  0  0
 10 12  1  0  0  0  0
 11 15  1  0  0  0  0
 11 10  1  0  0  0  0
 12 13  1  0  0  0  0
 12 16  1  0  0  0  0
 17  1  1  0  0  0  0
 18 17  1  0  0  0  0
M  END
>  <minimizedAffinity>
-3.53809524

$$$$

 OpenBabel03272507373D

 18 18  0  0  0  0  0  0  0  0999 V2000
   37.9310   26.8480   35.4500 C   0  0  0  0  0  0  0  0  0  0  0  0
   38.2730   25.5560   35.0510 C   0  0  0  0  0  0  0  0  0  0  0  0
   37.8200   25.1980   33.7950 C   0  0  0  0  0  0  0  0  0  0  0  0
   37.0960   26.0580   33.0260 N   0  0  0  0  0  0  0  0  0  0  0  0
   36.7850   27.3030   33.4500 C   0  0  0  0  0  0  0  0  0  0  0  0
   37.2160   27.6550   34.6550 N   0  0  0  0  0  0  0  0  0  0  0  0
   38.0080   24.2380   33.3470 H   0  0  0  0  0  0  0  0  0  0  0  0
   36.2180   28.0360   32.9010 H   0  0  0  0  0  0  0  0  0  0  0  0
   37.5140   24.1100   37.4540 N   0  0  0  0  0  0  0  0  0  0  0  0
   38.5060   23.6700   36.7140 C   0  0  0  0  0  0  0  0  0  0  0  0
   39.0350   24.6620   35.8480 N   0  0  0  0  0  0  0  0  0  0  0  0
   39.1080   22.3570   36.6710 N   0  0  0  0  0  0  0  0  0  0  0  0
   40.1530   22.3510   36.6040 H   0  0  0  0  0  0  0  0  0  0  0  0
   37.1180   23.3890   38.0940 H   0  0  0  0  0  0  0  0  0  0  0  0
   40.0940   24.7590   35.7700 H   0  0  0  0  0  0  0  0  0  0  0  0
   38.3660   21.5960   36.7160 H   0  0  0  0  0  0  0  0  0  0  0  0
   38.3990   27.1760   36.7080 O   0  0  0  0  0  0  0  0  0  0  0  0
   38.1640   28.0220   37.2180 H   0  0  0  0  0  0  0  0  0  0  0  0
  1 17  1  0  0  0  0
  2  1  1  0  0  0  0
  2 11  1  0  0  0  0
  3  2  2  0  0  0  0
  4  5  2  0  0  0  0
  4  3  1  0  0  0  0
  5  6  1  0  0  0  0
  6  1  2  0  0  0  0
  7  3  1  0  0  0  0
  8  5  1  0  0  0  0
  9 14  1  0  0  0  0
 10  9  2  0  0  0  0
 11 10  1  0  0  0  0
 12 10  1  0  0  0  0
 12 16  1  0  0  0  0
 13 12  1  0  0  0  0
 15 11  1  0  0  0  0
 17 18  1  0  0  0  0
M  END
>  <minimizedAffinity>
-3.52499843

$$$$
