REMARK  Name = 
REMARK  2 active torsions:
REMARK  status: ('A' for Active; 'I' for Inactive)
REMARK    1  A    between atoms: C_1  and  C_16
REMARK    2  A    between atoms: C_3  and  C_4
REMARK                            x       y       z     vdW  Elec       q    Type
REMARK                         _______ _______ _______ _____ _____    ______ ____
ROOT
ATOM      1  C   UNL     1      37.551  32.063  48.502  0.00  0.00    +0.000 C 
ATOM      2  C   UNL     1      38.782  32.803  48.833  0.00  0.00    +0.000 C 
ATOM      3  C   UNL     1      38.930  31.640  47.919  0.00  0.00    +0.000 C 
ATOM      4  H   UNL     1      36.907  32.406  47.711  0.00  0.00    +0.000 HD
ATOM      5  H   UNL     1      39.163  32.630  49.885  0.00  0.00    +0.000 HD
ATOM      6  H   UNL     1      38.703  33.852  48.618  0.00  0.00    +0.000 HD
ATOM      7  H   UNL     1      39.055  30.581  48.077  0.00  0.00    +0.000 HD
ENDROOT
BRANCH   3   8
ATOM      8  C   UNL     1      39.295  32.099  46.552  0.00  0.00    +0.000 A 
ATOM      9  C   UNL     1      39.748  33.424  46.584  0.00  0.00    +0.000 A 
ATOM     10  C   UNL     1      40.219  34.042  45.445  0.00  0.00    +0.000 A 
ATOM     11  C   UNL     1      40.260  33.359  44.224  0.00  0.00    +0.000 A 
ATOM     12  C   UNL     1      39.811  32.058  44.219  0.00  0.00    +0.000 A 
ATOM     13  C   UNL     1      39.777  31.273  43.090  0.00  0.00    +0.000 A 
ATOM     14  C   UNL     1      39.312  29.971  43.078  0.00  0.00    +0.000 A 
ATOM     15  C   UNL     1      38.855  29.407  44.245  0.00  0.00    +0.000 A 
ATOM     16  C   UNL     1      38.882  30.179  45.385  0.00  0.00    +0.000 A 
ATOM     17  C   UNL     1      39.350  31.470  45.359  0.00  0.00    +0.000 A 
ATOM     18  H   UNL     1      39.869  34.195  47.315  0.00  0.00    +0.000 HD
ATOM     19  H   UNL     1      40.598  35.039  45.295  0.00  0.00    +0.000 HD
ATOM     20  H   UNL     1      40.595  33.693  43.251  0.00  0.00    +0.000 HD
ATOM     21  H   UNL     1      40.131  31.680  42.139  0.00  0.00    +0.000 HD
ATOM     22  H   UNL     1      39.300  29.382  42.163  0.00  0.00    +0.000 HD
ATOM     23  H   UNL     1      38.485  28.405  44.297  0.00  0.00    +0.000 HD
ATOM     24  H   UNL     1      38.512  29.713  46.316  0.00  0.00    +0.000 HD
ENDBRANCH   3   8
BRANCH   1  27
ATOM     25  C   UNL     1      35.278  29.590  50.206  0.00  0.00    +0.000 A 
ATOM     26  C   UNL     1      35.785  30.513  49.236  0.00  0.00    +0.000 A 
ATOM     27  C   UNL     1      37.011  31.099  49.481  0.00  0.00    +0.000 A 
ATOM     28  N   UNL     1      37.666  30.756  50.647  0.00  0.00    +0.000 NA
ATOM     29  C   UNL     1      37.165  29.891  51.529  0.00  0.00    +0.000 A 
ATOM     30  N   UNL     1      35.973  29.295  51.333  0.00  0.00    +0.000 NA
ATOM     31  H   UNL     1      34.326  29.136  50.014  0.00  0.00    +0.000 HD
ATOM     32  H   UNL     1      35.192  30.711  48.357  0.00  0.00    +0.000 HD
ATOM     33  N   UNL     1      39.908  30.449  51.977  0.00  0.00    +0.000 NA
ATOM     34  C   UNL     1      39.150  30.153  53.005  0.00  0.00    +0.000 C 
ATOM     35  N   UNL     1      37.893  29.572  52.722  0.00  0.00    +0.000 N 
ATOM     36  N   UNL     1      39.523  30.382  54.379  0.00  0.00    +0.000 N 
ATOM     37  H   UNL     1      39.467  29.649  55.121  0.00  0.00    +0.000 HD
ATOM     38  H   UNL     1      40.838  30.881  52.242  0.00  0.00    +0.000 HD
ATOM     39  H   UNL     1      37.479  28.885  53.408  0.00  0.00    +0.000 HD
ATOM     40  H   UNL     1      39.853  31.366  54.542  0.00  0.00    +0.000 HD
ENDBRANCH   1  27
TORSDOF 2
