REMARK  Name = 
REMARK  2 active torsions:
REMARK  status: ('A' for Active; 'I' for Inactive)
REMARK    1  A    between atoms: C_1  and  O_7
REMARK    2  A    between atoms: C_2  and  N_13
REMARK                            x       y       z     vdW  Elec       q    Type
REMARK                         _______ _______ _______ _____ _____    ______ ____
ROOT
ATOM      1  C   UNL     1      37.316  30.011  51.166  0.00  0.00    +0.000 A 
ATOM      2  C   UNL     1      37.983  30.931  50.356  0.00  0.00    +0.000 A 
ATOM      3  C   UNL     1      37.264  31.365  49.258  0.00  0.00    +0.000 A 
ATOM      4  N   UNL     1      36.004  30.915  49.007  0.00  0.00    +0.000 NA
ATOM      5  C   UNL     1      35.392  30.023  49.818  0.00  0.00    +0.000 A 
ATOM      6  N   UNL     1      36.075  29.601  50.874  0.00  0.00    +0.000 NA
ATOM      7  H   UNL     1      37.642  32.076  48.544  0.00  0.00    +0.000 HD
ATOM      8  H   UNL     1      34.401  29.622  49.685  0.00  0.00    +0.000 HD
ENDROOT
BRANCH   2  11
ATOM      9  N   UNL     1      39.522  32.981  48.988  0.00  0.00    +0.000 NA
ATOM     10  C   UNL     1      39.810  32.670  50.231  0.00  0.00    +0.000 C 
ATOM     11  N   UNL     1      39.294  31.407  50.621  0.00  0.00    +0.000 N 
ATOM     12  N   UNL     1      40.559  33.417  51.216  0.00  0.00    +0.000 N 
ATOM     13  H   UNL     1      41.218  32.848  51.797  0.00  0.00    +0.000 HD
ATOM     14  H   UNL     1      39.897  33.908  48.692  0.00  0.00    +0.000 HD
ATOM     15  H   UNL     1      39.927  30.743  51.166  0.00  0.00    +0.000 HD
ATOM     16  H   UNL     1      40.306  34.450  51.183  0.00  0.00    +0.000 HD
ENDBRANCH   2  11
BRANCH   1  17
ATOM     17  O   UNL     1      38.060  29.598  52.254  0.00  0.00    +0.000 OA
ATOM     18  H   UNL     1      37.796  28.856  52.896  0.00  0.00    +0.000 HD
ENDBRANCH   1  17
TORSDOF 2
