REMARK  Name = 
REMARK  7 active torsions:
REMARK  status: ('A' for Active; 'I' for Inactive)
REMARK    1  A    between atoms: C_2  and  O_7
REMARK    2  A    between atoms: C_5  and  S_15
REMARK    3  A    between atoms: O_7  and  C_8
REMARK    4  A    between atoms: C_12  and  C_14
REMARK    5  A    between atoms: S_15  and  C_16
REMARK    6  A    between atoms: C_16  and  C_19
REMARK    7  A    between atoms: C_23  and  N_39
REMARK                            x       y       z     vdW  Elec       q    Type
REMARK                         _______ _______ _______ _____ _____    ______ ____
ROOT
ATOM      1  C   UNL     1      39.596  33.377  47.107  0.00  0.00    +0.000 A 
ATOM      2  C   UNL     1      39.539  32.520  46.015  0.00  0.00    +0.000 A 
ATOM      3  C   UNL     1      39.018  31.271  46.226  0.00  0.00    +0.000 A 
ATOM      4  N   UNL     1      38.595  30.951  47.482  0.00  0.00    +0.000 NA
ATOM      5  C   UNL     1      38.666  31.784  48.480  0.00  0.00    +0.000 A 
ATOM      6  N   UNL     1      39.178  33.054  48.333  0.00  0.00    +0.000 NA
ATOM      7  H   UNL     1      39.992  34.377  47.024  0.00  0.00    +0.000 HD
ATOM      8  H   UNL     1      38.941  30.553  45.408  0.00  0.00    +0.000 HD
ENDROOT
BRANCH   2   9
ATOM      9  O   UNL     1      39.997  32.967  44.816  0.00  0.00    +0.000 OA
BRANCH   9  10
ATOM     10  C   UNL     1      40.099  32.085  43.749  0.00  0.00    +0.000 A 
ATOM     11  C   UNL     1      40.718  30.851  43.726  0.00  0.00    +0.000 A 
ATOM     12  C   UNL     1      40.713  30.130  42.588  0.00  0.00    +0.000 A 
ATOM     13  C   UNL     1      40.094  30.642  41.480  0.00  0.00    +0.000 A 
ATOM     14  C   UNL     1      39.472  31.888  41.511  0.00  0.00    +0.000 A 
ATOM     15  N   UNL     1      39.490  32.595  42.670  0.00  0.00    +0.000 NA
ATOM     16  H   UNL     1      41.183  30.543  44.654  0.00  0.00    +0.000 HD
ATOM     17  H   UNL     1      41.198  29.175  42.587  0.00  0.00    +0.000 HD
ATOM     18  H   UNL     1      40.095  30.054  40.562  0.00  0.00    +0.000 HD
BRANCH  14  19
ATOM     19  C   UNL     1      38.797  32.434  40.270  0.00  0.00    +0.000 C 
ATOM     20  H   UNL     1      39.490  33.171  39.816  0.00  0.00    +0.000 HD
ATOM     21  H   UNL     1      38.499  31.613  39.615  0.00  0.00    +0.000 HD
ATOM     22  H   UNL     1      37.917  33.002  40.619  0.00  0.00    +0.000 HD
ENDBRANCH  14  19
ENDBRANCH   9  10
ENDBRANCH   2   9
BRANCH   5  23
ATOM     23  S   UNL     1      38.029  31.076  50.020  0.00  0.00    +0.000 S 
BRANCH  23  24
ATOM     24  C   UNL     1      36.262  31.493  50.017  0.00  0.00    +0.000 C 
ATOM     25  H   UNL     1      35.961  31.588  51.063  0.00  0.00    +0.000 HD
ATOM     26  H   UNL     1      36.052  32.460  49.524  0.00  0.00    +0.000 HD
BRANCH  24  29
ATOM     27  F   UNL     1      35.584  29.278  51.491  0.00  0.00    +0.000 F 
ATOM     28  C   UNL     1      35.268  29.307  50.148  0.00  0.00    +0.000 A 
ATOM     29  C   UNL     1      35.557  30.367  49.312  0.00  0.00    +0.000 A 
ATOM     30  C   UNL     1      35.221  30.349  47.994  0.00  0.00    +0.000 A 
ATOM     31  C   UNL     1      34.564  29.245  47.436  0.00  0.00    +0.000 A 
ATOM     32  C   UNL     1      34.270  28.177  48.267  0.00  0.00    +0.000 A 
ATOM     33  C   UNL     1      34.612  28.202  49.596  0.00  0.00    +0.000 A 
ATOM     34  H   UNL     1      35.509  31.247  47.459  0.00  0.00    +0.000 HD
ATOM     35  H   UNL     1      34.329  29.304  46.378  0.00  0.00    +0.000 HD
ATOM     36  H   UNL     1      33.771  27.383  47.782  0.00  0.00    +0.000 HD
BRANCH  33  39
ATOM     37  N   UNL     1      33.691  28.220  52.357  0.00  0.00    +0.000 NA
ATOM     38  C   UNL     1      34.286  27.163  51.853  0.00  0.00    +0.000 C 
ATOM     39  N   UNL     1      34.303  27.107  50.452  0.00  0.00    +0.000 N 
ATOM     40  N   UNL     1      34.882  26.123  52.637  0.00  0.00    +0.000 N 
ATOM     41  H   UNL     1      35.745  25.799  53.168  0.00  0.00    +0.000 HD
ATOM     42  H   UNL     1      33.688  28.244  53.395  0.00  0.00    +0.000 HD
ATOM     43  H   UNL     1      34.068  26.161  50.019  0.00  0.00    +0.000 HD
ATOM     44  H   UNL     1      34.092  25.419  52.662  0.00  0.00    +0.000 HD
ENDBRANCH  33  39
ENDBRANCH  24  29
ENDBRANCH  23  24
ENDBRANCH   5  23
TORSDOF 7
