
 OpenBabel03272509333D

 40 43  0  0  1  0  0  0  0  0999 V2000
   37.3780   31.7490   47.6670 C   0  0  1  0  0  0  0  0  0  0  0  0
   38.7400   32.1210   48.0890 C   0  0  0  0  0  0  0  0  0  0  0  0
   38.6300   31.0490   47.0650 C   0  0  2  0  0  0  0  0  0  0  0  0
   36.8720   32.3160   46.9040 H   0  0  0  0  0  0  0  0  0  0  0  0
   39.0240   31.7600   49.1240 H   0  0  0  0  0  0  0  0  0  0  0  0
   38.9340   33.1710   47.9790 H   0  0  0  0  0  0  0  0  0  0  0  0
   38.4810   29.9830   47.1180 H   0  0  0  0  0  0  0  0  0  0  0  0
   39.1520   31.5260   45.7570 C   0  0  0  0  0  0  0  0  0  0  0  0
   39.5560   32.8640   45.8490 C   0  0  0  0  0  0  0  0  0  0  0  0
   40.1500   33.5030   44.7800 C   0  0  0  0  0  0  0  0  0  0  0  0
   40.3670   32.8290   43.5730 C   0  0  0  0  0  0  0  0  0  0  0  0
   39.9630   31.5150   43.5090 C   0  0  0  0  0  0  0  0  0  0  0  0
   40.0970   30.7350   42.3830 C   0  0  0  0  0  0  0  0  0  0  0  0
   39.6780   29.4200   42.3100 C   0  0  0  0  0  0  0  0  0  0  0  0
   39.0930   28.8360   43.4080 C   0  0  0  0  0  0  0  0  0  0  0  0
   38.9510   29.6020   44.5430 C   0  0  0  0  0  0  0  0  0  0  0  0
   39.3780   30.9060   44.5790 C   0  0  0  0  0  0  0  0  0  0  0  0
   39.5590   33.6350   46.5910 H   0  0  0  0  0  0  0  0  0  0  0  0
   40.5140   34.5120   44.6820 H   0  0  0  0  0  0  0  0  0  0  0  0
   40.8130   33.1780   42.6520 H   0  0  0  0  0  0  0  0  0  0  0  0
   40.5570   31.1580   41.4860 H   0  0  0  0  0  0  0  0  0  0  0  0
   39.8010   28.8360   41.3990 H   0  0  0  0  0  0  0  0  0  0  0  0
   38.7510   27.8230   43.4100 H   0  0  0  0  0  0  0  0  0  0  0  0
   38.4800   29.1190   45.4180 H   0  0  0  0  0  0  0  0  0  0  0  0
   34.6380   29.4840   48.9090 C   0  0  0  0  0  0  0  0  0  0  0  0
   35.4030   30.3290   48.0430 C   0  0  0  0  0  0  0  0  0  0  0  0
   36.5760   30.8660   48.5360 C   0  0  0  0  0  0  0  0  0  0  0  0
   36.9320   30.5520   49.8320 N   0  0  0  0  0  0  0  0  0  0  0  0
   36.1950   29.7600   50.6120 C   0  0  0  0  0  0  0  0  0  0  0  0
   35.0440   29.2140   50.1750 N   0  0  0  0  0  0  0  0  0  0  0  0
   33.7270   29.0680   48.5250 H   0  0  0  0  0  0  0  0  0  0  0  0
   35.0350   30.5100   47.0460 H   0  0  0  0  0  0  0  0  0  0  0  0
   38.2800   27.9750   51.3220 N   0  0  0  0  0  0  0  0  0  0  0  0
   37.8500   28.8290   52.2190 C   0  0  0  0  0  0  0  0  0  0  0  0
   36.6180   29.4680   51.9500 N   0  0  0  0  0  0  0  0  0  0  0  0
   38.5500   29.1440   53.4400 N   0  0  0  0  0  0  0  0  0  0  0  0
   38.1020   29.1250   54.3840 H   0  0  0  0  0  0  0  0  0  0  0  0
   39.2050   27.5240   51.5710 H   0  0  0  0  0  0  0  0  0  0  0  0
   35.9920   29.7370   52.7560 H   0  0  0  0  0  0  0  0  0  0  0  0
   39.5560   29.3940   53.2680 H   0  0  0  0  0  0  0  0  0  0  0  0
  1  4  1  6  0  0  0
  1  2  1  0  0  0  0
  1 27  1  0  0  0  0
  2  5  1  0  0  0  0
  3  7  1  1  0  0  0
  3  1  1  0  0  0  0
  3  2  1  0  0  0  0
  6  2  1  0  0  0  0
  8  9  1  0  0  0  0
  8  3  1  0  0  0  0
  9 18  1  0  0  0  0
 10  9  2  0  0  0  0
 11 10  1  0  0  0  0
 12 11  2  0  0  0  0
 12 17  1  0  0  0  0
 13 12  1  0  0  0  0
 14 13  2  0  0  0  0
 14 15  1  0  0  0  0
 15 23  1  0  0  0  0
 15 16  2  0  0  0  0
 16 17  1  0  0  0  0
 16 24  1  0  0  0  0
 17  8  2  0  0  0  0
 19 10  1  0  0  0  0
 20 11  1  0  0  0  0
 21 13  1  0  0  0  0
 22 14  1  0  0  0  0
 25 30  1  0  0  0  0
 26 27  1  0  0  0  0
 26 25  2  0  0  0  0
 27 28  2  0  0  0  0
 28 29  1  0  0  0  0
 29 35  1  0  0  0  0
 30 29  2  0  0  0  0
 31 25  1  0  0  0  0
 32 26  1  0  0  0  0
 33 38  1  0  0  0  0
 33 34  2  0  0  0  0
 34 36  1  0  0  0  0
 35 34  1  0  0  0  0
 35 39  1  0  0  0  0
 36 37  1  0  0  0  0
 40 36  1  0  0  0  0
M  END
>  <minimizedAffinity>
-5.47150278

>  <minimizedRMSD>
1.15327239

$$$$
