
 OpenBabel03262522253D

 44 46  0  0  0  0  0  0  0  0999 V2000
   39.0230   32.7680   48.0010 C   0  0  0  0  0  0  0  0  0  0  0  0
   39.2630   32.1270   46.7920 C   0  0  0  0  0  0  0  0  0  0  0  0
   38.7200   30.8810   46.6250 C   0  0  0  0  0  0  0  0  0  0  0  0
   37.9870   30.3530   47.6470 N   0  0  0  0  0  0  0  0  0  0  0  0
   37.7850   30.9870   48.7660 C   0  0  0  0  0  0  0  0  0  0  0  0
   38.3030   32.2420   48.9950 N   0  0  0  0  0  0  0  0  0  0  0  0
   39.4150   33.7510   48.2110 H   0  0  0  0  0  0  0  0  0  0  0  0
   38.8680   30.3270   45.6970 H   0  0  0  0  0  0  0  0  0  0  0  0
   40.0130   32.7680   45.8570 O   0  0  0  0  0  0  0  0  0  0  0  0
   40.0560   32.2780   44.5590 C   0  0  0  0  0  0  0  0  0  0  0  0
   40.6500   31.1150   44.1110 C   0  0  0  0  0  0  0  0  0  0  0  0
   40.5860   30.8010   42.8030 C   0  0  0  0  0  0  0  0  0  0  0  0
   39.9330   31.6470   41.9480 C   0  0  0  0  0  0  0  0  0  0  0  0
   39.3360   32.8190   42.4070 C   0  0  0  0  0  0  0  0  0  0  0  0
   39.4140   33.1120   43.7310 N   0  0  0  0  0  0  0  0  0  0  0  0
   41.1460   30.5210   44.8690 H   0  0  0  0  0  0  0  0  0  0  0  0
   41.0530   29.8950   42.4720 H   0  0  0  0  0  0  0  0  0  0  0  0
   39.8860   31.3870   40.8900 H   0  0  0  0  0  0  0  0  0  0  0  0
   38.6220   33.7400   41.4400 C   0  0  0  0  0  0  0  0  0  0  0  0
   39.3100   34.5810   41.2190 H   0  0  0  0  0  0  0  0  0  0  0  0
   38.2830   33.1770   40.5690 H   0  0  0  0  0  0  0  0  0  0  0  0
   37.7680   34.1690   41.9920 H   0  0  0  0  0  0  0  0  0  0  0  0
   36.7760   30.0340   49.9290 S   0  0  0  0  0  0  0  0  0  0  0  0
   35.0830   30.6330   49.6620 C   0  0  0  0  0  0  0  0  0  0  0  0
   34.5610   30.5310   50.6160 H   0  0  0  0  0  0  0  0  0  0  0  0
   35.0480   31.7010   49.3780 H   0  0  0  0  0  0  0  0  0  0  0  0
   33.0600   28.9130   50.3580 F   0  0  0  0  0  0  0  0  0  0  0  0
   33.4840   28.9460   49.0450 C   0  0  0  0  0  0  0  0  0  0  0  0
   34.4900   29.7710   48.5820 C   0  0  0  0  0  0  0  0  0  0  0  0
   34.8700   29.7690   47.2760 C   0  0  0  0  0  0  0  0  0  0  0  0
   34.2490   28.9220   46.3490 C   0  0  0  0  0  0  0  0  0  0  0  0
   33.2400   28.0910   46.8040 C   0  0  0  0  0  0  0  0  0  0  0  0
   32.8610   28.0980   48.1240 C   0  0  0  0  0  0  0  0  0  0  0  0
   35.6700   30.4670   47.0540 H   0  0  0  0  0  0  0  0  0  0  0  0
   34.6070   28.9770   45.3260 H   0  0  0  0  0  0  0  0  0  0  0  0
   32.8130   27.4850   46.0530 H   0  0  0  0  0  0  0  0  0  0  0  0
   29.9770   28.4730   47.9940 N   0  0  0  0  0  0  0  0  0  0  0  0
   30.5120   27.6670   48.8830 C   0  0  0  0  0  0  0  0  0  0  0  0
   31.8180   27.2490   48.5910 N   0  0  0  0  0  0  0  0  0  0  0  0
   29.8470   27.2230   50.0710 N   0  0  0  0  0  0  0  0  0  0  0  0
   29.6000   27.4430   51.0820 H   0  0  0  0  0  0  0  0  0  0  0  0
   29.0110   28.7720   48.2280 H   0  0  0  0  0  0  0  0  0  0  0  0
   32.0220   26.2130   48.7420 H   0  0  0  0  0  0  0  0  0  0  0  0
   29.4680   26.2890   49.7470 H   0  0  0  0  0  0  0  0  0  0  0  0
  1  7  1  0  0  0  0
  1  6  1  0  0  0  0
  2  1  2  0  0  0  0
  3  2  1  0  0  0  0
  3  4  2  0  0  0  0
  4  5  1  0  0  0  0
  5  6  2  0  0  0  0
  5 23  1  0  0  0  0
  8  3  1  0  0  0  0
  9  2  1  0  0  0  0
 10  9  1  0  0  0  0
 11 10  1  0  0  0  0
 11 16  1  0  0  0  0
 12 11  2  0  0  0  0
 13 14  2  0  0  0  0
 13 12  1  0  0  0  0
 14 15  1  0  0  0  0
 15 10  2  0  0  0  0
 17 12  1  0  0  0  0
 18 13  1  0  0  0  0
 19 22  1  0  0  0  0
 19 14  1  0  0  0  0
 20 19  1  0  0  0  0
 21 19  1  0  0  0  0
 24 23  1  0  0  0  0
 24 25  1  0  0  0  0
 26 24  1  0  0  0  0
 28 27  1  0  0  0  0
 29 28  1  0  0  0  0
 29 24  1  0  0  0  0
 30 29  2  0  0  0  0
 31 32  2  0  0  0  0
 31 30  1  0  0  0  0
 32 33  1  0  0  0  0
 33 39  1  0  0  0  0
 33 28  2  0  0  0  0
 34 30  1  0  0  0  0
 35 31  1  0  0  0  0
 36 32  1  0  0  0  0
 37 42  1  0  0  0  0
 37 38  2  0  0  0  0
 38 40  1  0  0  0  0
 39 43  1  0  0  0  0
 39 38  1  0  0  0  0
 40 41  1  0  0  0  0
 44 40  1  0  0  0  0
M  END
>  <minimizedAffinity>
-6.21588373

>  <minimizedRMSD>
2.32486224

$$$$
