
 OpenBabel03272509333D

 40 43  0  0  1  0  0  0  0  0999 V2000
   37.4290   31.9450   48.3060 C   0  0  1  0  0  0  0  0  0  0  0  0
   38.7400   32.5920   48.4950 C   0  0  0  0  0  0  0  0  0  0  0  0
   38.6540   31.5630   47.4250 C   0  0  2  0  0  0  0  0  0  0  0  0
   36.6730   32.4150   47.7010 H   0  0  0  0  0  0  0  0  0  0  0  0
   39.2940   32.2620   49.4260 H   0  0  0  0  0  0  0  0  0  0  0  0
   38.6830   33.6620   48.4380 H   0  0  0  0  0  0  0  0  0  0  0  0
   38.7450   30.4890   47.4170 H   0  0  0  0  0  0  0  0  0  0  0  0
   38.7910   32.1970   46.0860 C   0  0  0  0  0  0  0  0  0  0  0  0
   39.8930   33.0620   46.0640 C   0  0  0  0  0  0  0  0  0  0  0  0
   40.2680   33.7040   44.9030 C   0  0  0  0  0  0  0  0  0  0  0  0
   39.5590   33.5060   43.7120 C   0  0  0  0  0  0  0  0  0  0  0  0
   38.4820   32.6500   43.7600 C   0  0  0  0  0  0  0  0  0  0  0  0
   37.6850   32.3750   42.6740 C   0  0  0  0  0  0  0  0  0  0  0  0
   36.5930   31.5280   42.7220 C   0  0  0  0  0  0  0  0  0  0  0  0
   36.2670   30.9150   43.9080 C   0  0  0  0  0  0  0  0  0  0  0  0
   37.0550   31.1790   45.0060 C   0  0  0  0  0  0  0  0  0  0  0  0
   38.1320   32.0270   44.9210 C   0  0  0  0  0  0  0  0  0  0  0  0
   40.6330   33.4090   46.7530 H   0  0  0  0  0  0  0  0  0  0  0  0
   41.0760   34.3910   44.7130 H   0  0  0  0  0  0  0  0  0  0  0  0
   39.7200   33.9270   42.7290 H   0  0  0  0  0  0  0  0  0  0  0  0
   37.9080   32.8400   41.7100 H   0  0  0  0  0  0  0  0  0  0  0  0
   35.9860   31.3360   41.8400 H   0  0  0  0  0  0  0  0  0  0  0  0
   35.4350   30.2490   44.0050 H   0  0  0  0  0  0  0  0  0  0  0  0
   36.7810   30.6790   45.9520 H   0  0  0  0  0  0  0  0  0  0  0  0
   35.3280   29.7420   50.5240 C   0  0  0  0  0  0  0  0  0  0  0  0
   35.6970   30.7850   49.6150 C   0  0  0  0  0  0  0  0  0  0  0  0
   37.0210   30.8710   49.2330 C   0  0  0  0  0  0  0  0  0  0  0  0
   37.9020   29.9450   49.7550 N   0  0  0  0  0  0  0  0  0  0  0  0
   37.5240   28.9850   50.6000 C   0  0  0  0  0  0  0  0  0  0  0  0
   36.2440   28.8620   51.0010 N   0  0  0  0  0  0  0  0  0  0  0  0
   34.3000   29.6770   50.8190 H   0  0  0  0  0  0  0  0  0  0  0  0
   34.9280   31.4570   49.2660 H   0  0  0  0  0  0  0  0  0  0  0  0
   38.6150   29.0100   53.2160 N   0  0  0  0  0  0  0  0  0  0  0  0
   38.7420   27.9250   52.4920 C   0  0  0  0  0  0  0  0  0  0  0  0
   38.4850   28.0500   51.1070 N   0  0  0  0  0  0  0  0  0  0  0  0
   39.1230   26.6380   53.0210 N   0  0  0  0  0  0  0  0  0  0  0  0
   39.8910   26.0540   52.6180 H   0  0  0  0  0  0  0  0  0  0  0  0
   38.8180   28.8640   54.2450 H   0  0  0  0  0  0  0  0  0  0  0  0
   39.0140   27.4390   50.4290 H   0  0  0  0  0  0  0  0  0  0  0  0
   38.5410   26.3610   53.8500 H   0  0  0  0  0  0  0  0  0  0  0  0
  1  4  1  6  0  0  0
  1  2  1  0  0  0  0
  1 27  1  0  0  0  0
  2  5  1  0  0  0  0
  3  7  1  1  0  0  0
  3  1  1  0  0  0  0
  3  2  1  0  0  0  0
  6  2  1  0  0  0  0
  8  3  1  0  0  0  0
  9  8  1  0  0  0  0
  9 18  1  0  0  0  0
 10  9  2  0  0  0  0
 11 12  2  0  0  0  0
 11 10  1  0  0  0  0
 12 17  1  0  0  0  0
 13 14  2  0  0  0  0
 13 12  1  0  0  0  0
 14 15  1  0  0  0  0
 15 23  1  0  0  0  0
 15 16  2  0  0  0  0
 16 24  1  0  0  0  0
 17 16  1  0  0  0  0
 17  8  2  0  0  0  0
 19 10  1  0  0  0  0
 20 11  1  0  0  0  0
 21 13  1  0  0  0  0
 22 14  1  0  0  0  0
 25 31  1  0  0  0  0
 25 30  1  0  0  0  0
 26 25  2  0  0  0  0
 27 26  1  0  0  0  0
 27 28  2  0  0  0  0
 28 29  1  0  0  0  0
 29 30  2  0  0  0  0
 29 35  1  0  0  0  0
 32 26  1  0  0  0  0
 33 38  1  0  0  0  0
 34 36  1  0  0  0  0
 34 33  2  0  0  0  0
 35 34  1  0  0  0  0
 36 40  1  0  0  0  0
 37 36  1  0  0  0  0
 39 35  1  0  0  0  0
M  END
>  <minimizedAffinity>
-5.56317949

>  <minimizedRMSD>
1.7868948

$$$$
