
 OpenBabel03272502073D

 40 43  0  0  0  0  0  0  0  0999 V2000
   34.1110   30.4240   47.7300 F   0  0  0  0  0  0  0  0  0  0  0  0
   34.5370   29.9670   46.5080 C   0  0  0  0  0  0  0  0  0  0  0  0
   33.6770   29.3630   45.6040 C   0  0  0  0  0  0  0  0  0  0  0  0
   34.1750   28.9470   44.3910 C   0  0  0  0  0  0  0  0  0  0  0  0
   35.5240   29.1290   44.0700 C   0  0  0  0  0  0  0  0  0  0  0  0
   36.3280   29.7370   45.0170 C   0  0  0  0  0  0  0  0  0  0  0  0
   35.8850   30.1580   46.2150 C   0  0  0  0  0  0  0  0  0  0  0  0
   33.4710   28.4880   43.7320 H   0  0  0  0  0  0  0  0  0  0  0  0
   35.8720   28.7870   43.1050 H   0  0  0  0  0  0  0  0  0  0  0  0
   37.3540   29.8400   44.6920 H   0  0  0  0  0  0  0  0  0  0  0  0
   32.0620   28.2890   47.0350 C   0  0  0  0  0  0  0  0  0  0  0  0
   32.3170   29.2350   46.0530 C   0  0  0  0  0  0  0  0  0  0  0  0
   31.2530   29.9930   45.5880 C   0  0  0  0  0  0  0  0  0  0  0  0
   30.0070   29.8010   46.0950 N   0  0  0  0  0  0  0  0  0  0  0  0
   29.8030   28.8790   47.0430 C   0  0  0  0  0  0  0  0  0  0  0  0
   30.7970   28.1370   47.5070 N   0  0  0  0  0  0  0  0  0  0  0  0
   32.8380   27.6560   47.4500 H   0  0  0  0  0  0  0  0  0  0  0  0
   31.4690   30.7310   44.8170 H   0  0  0  0  0  0  0  0  0  0  0  0
   28.4790   28.7020   47.5560 N   0  0  0  0  0  0  0  0  0  0  0  0
   28.3030   27.5910   48.2940 C   0  0  0  0  0  3  0  0  0  0  0  0
   27.0210   27.3830   48.8120 C   0  0  0  0  0  3  0  0  0  0  0  0
   26.0720   28.3580   48.5010 C   0  0  0  0  0  0  0  0  0  0  0  0
   24.7400   28.2280   48.9890 N   0  0  0  0  0  0  0  0  0  0  0  0
   26.3320   29.4400   47.7550 N   0  0  0  0  0  0  0  0  0  0  0  0
   27.5480   29.6300   47.2670 C   0  0  0  0  0  0  0  0  0  0  0  0
   27.8870   30.6140   46.5590 O   0  0  0  0  0  0  0  0  0  0  0  0
   24.0310   28.2230   49.7530 H   0  0  0  0  0  0  0  0  0  0  0  0
   24.0670   28.0270   48.2030 H   0  0  0  0  0  0  0  0  0  0  0  0
   37.9140   32.2860   45.1340 Br  0  0  0  0  0  0  0  0  0  0  0  0
   37.7270   31.7490   46.9530 C   0  0  0  0  0  0  0  0  0  0  0  0
   36.7870   30.7760   47.1660 C   0  0  0  0  0  0  0  0  0  0  0  0
   36.6260   30.2970   48.4760 C   0  0  0  0  0  0  0  0  0  0  0  0
   37.3820   30.7880   49.4970 C   0  0  0  0  0  0  0  0  0  0  0  0
   38.3110   31.7710   49.2180 C   0  0  0  0  0  0  0  0  0  0  0  0
   38.4970   32.2720   47.9190 C   0  0  0  0  0  0  0  0  0  0  0  0
   35.9130   29.5300   48.7420 H   0  0  0  0  0  0  0  0  0  0  0  0
   37.2870   30.4430   50.5160 H   0  0  0  0  0  0  0  0  0  0  0  0
   38.9340   32.1910   49.9960 H   0  0  0  0  0  0  0  0  0  0  0  0
   39.3860   33.2380   47.5610 O   0  0  0  0  0  0  0  0  0  0  0  0
   39.1220   34.2130   47.6690 H   0  0  0  0  0  0  0  0  0  0  0  0
  2  1  1  0  0  0  0
  3 12  1  0  0  0  0
  3  2  2  0  0  0  0
  4  3  1  0  0  0  0
  5  4  2  0  0  0  0
  5  6  1  0  0  0  0
  6  7  2  0  0  0  0
  7  2  1  0  0  0  0
  7 31  1  0  0  0  0
  8  4  1  0  0  0  0
  9  5  1  0  0  0  0
 10  6  1  0  0  0  0
 11 17  1  0  0  0  0
 11 16  1  0  0  0  0
 12 11  2  0  0  0  0
 13 12  1  0  0  0  0
 13 14  2  0  0  0  0
 14 15  1  0  0  0  0
 15 16  2  0  0  0  0
 15 19  1  0  0  0  0
 18 13  1  0  0  0  0
 19 20  1  0  0  0  0
 20 21  2  0  0  0  0
 22 21  1  0  0  0  0
 22 23  1  0  0  0  0
 23 27  1  0  0  0  0
 24 22  2  0  0  0  0
 25 19  1  0  0  0  0
 25 24  1  0  0  0  0
 26 25  2  0  0  0  0
 28 23  1  0  0  0  0
 29 30  1  0  0  0  0
 30 31  2  0  0  0  0
 30 35  1  0  0  0  0
 31 32  1  0  0  0  0
 32 36  1  0  0  0  0
 32 33  2  0  0  0  0
 33 37  1  0  0  0  0
 34 33  1  0  0  0  0
 34 38  1  0  0  0  0
 35 34  2  0  0  0  0
 39 40  1  0  0  0  0
 39 35  1  0  0  0  0
M  END
>  <minimizedAffinity>
-8.09679222

>  <minimizedRMSD>
0.261131853

$$$$
