
 OpenBabel03272504333D

 41 44  0  0  0  0  0  0  0  0999 V2000
   35.3120   29.5920   47.6950 C   0  0  0  0  0  0  0  0  0  0  0  0
   35.5320   30.0560   46.4010 C   0  0  0  0  0  0  0  0  0  0  0  0
   34.5320   29.9800   45.4570 C   0  0  0  0  0  0  0  0  0  0  0  0
   33.3370   29.4390   45.8450 N   0  0  0  0  0  0  0  0  0  0  0  0
   33.1520   28.9970   47.1070 C   0  0  0  0  0  0  0  0  0  0  0  0
   34.1310   29.0690   48.0380 N   0  0  0  0  0  0  0  0  0  0  0  0
   36.4970   30.4750   46.1500 H   0  0  0  0  0  0  0  0  0  0  0  0
   34.6720   30.3330   44.4370 H   0  0  0  0  0  0  0  0  0  0  0  0
   31.8570   28.4250   47.4860 C   0  0  0  0  0  0  0  0  0  0  0  0
   31.7150   27.6940   48.6300 C   0  0  0  0  0  0  0  0  0  0  0  0
   30.5080   27.1360   49.0270 C   0  0  0  0  0  0  0  0  0  0  0  0
   29.4670   27.3650   48.1980 N   0  0  0  0  0  0  0  0  0  0  0  0
   29.5950   28.0790   47.0740 C   0  0  0  0  0  0  0  0  0  0  0  0
   30.7860   28.6130   46.7090 N   0  0  0  0  0  0  0  0  0  0  0  0
   32.5530   27.5140   49.2900 H   0  0  0  0  0  0  0  0  0  0  0  0
   30.4020   26.5590   49.9340 H   0  0  0  0  0  0  0  0  0  0  0  0
   28.5480   28.3650   46.1500 N   0  0  0  0  0  0  0  0  0  0  0  0
   28.8600   29.2140   45.1550 C   0  0  0  0  0  3  0  0  0  0  0  0
   27.8430   29.4860   44.2620 C   0  0  0  0  0  3  0  0  0  0  0  0
   26.6220   28.8750   44.4660 C   0  0  0  0  0  0  0  0  0  0  0  0
   25.5360   29.1140   43.5820 N   0  0  0  0  0  0  0  0  0  0  0  0
   26.3850   28.0230   45.5040 N   0  0  0  0  0  0  0  0  0  0  0  0
   27.3720   27.7540   46.3770 C   0  0  0  0  0  0  0  0  0  0  0  0
   27.2310   26.9770   47.3620 O   0  0  0  0  0  0  0  0  0  0  0  0
   24.7120   29.6360   43.2090 H   0  0  0  0  0  0  0  0  0  0  0  0
   25.0920   30.0190   43.9180 H   0  0  0  0  0  0  0  0  0  0  0  0
   36.3140   29.6460   48.7180 N   0  0  0  0  0  0  0  0  0  0  0  0
   36.2230   28.8700   49.9350 C   0  0  0  0  0  0  0  0  0  0  0  0
   36.5520   29.6230   51.1920 C   0  0  0  0  0  0  0  0  0  0  0  0
   37.4670   30.6880   51.0890 N   0  0  0  0  0  0  0  0  0  0  0  0
   37.3490   31.4370   49.8420 C   0  0  0  0  0  0  0  0  0  0  0  0
   37.4980   30.4180   48.7240 C   0  0  0  0  0  0  0  0  0  0  0  0
   35.2200   28.4030   50.0570 H   0  0  0  0  0  0  0  0  0  0  0  0
   36.9520   28.0140   49.8310 H   0  0  0  0  0  0  0  0  0  0  0  0
   36.9320   28.8690   51.9170 H   0  0  0  0  0  0  0  0  0  0  0  0
   35.5960   29.9870   51.6510 H   0  0  0  0  0  0  0  0  0  0  0  0
   37.2440   31.3950   51.8550 H   0  0  0  0  0  0  0  0  0  0  0  0
   36.3510   31.9170   49.8510 H   0  0  0  0  0  0  0  0  0  0  0  0
   38.1500   32.1960   49.8150 H   0  0  0  0  0  0  0  0  0  0  0  0
   37.6200   30.9770   47.7870 H   0  0  0  0  0  0  0  0  0  0  0  0
   38.4240   29.8420   48.9410 H   0  0  0  0  0  0  0  0  0  0  0  0
  1  6  1  0  0  0  0
  1 27  1  0  0  0  0
  2  1  2  0  0  0  0
  3  4  2  0  0  0  0
  3  2  1  0  0  0  0
  4  5  1  0  0  0  0
  5  9  1  0  0  0  0
  5  6  2  0  0  0  0
  7  2  1  0  0  0  0
  8  3  1  0  0  0  0
  9 10  1  0  0  0  0
 10 11  2  0  0  0  0
 10 15  1  0  0  0  0
 11 16  1  0  0  0  0
 12 11  1  0  0  0  0
 13 12  2  0  0  0  0
 14 13  1  0  0  0  0
 14  9  2  0  0  0  0
 17 23  1  0  0  0  0
 17 13  1  0  0  0  0
 18 17  1  0  0  0  0
 19 20  1  0  0  0  0
 19 18  2  0  0  0  0
 20 22  2  0  0  0  0
 21 26  1  0  0  0  0
 21 20  1  0  0  0  0
 22 23  1  0  0  0  0
 23 24  2  0  0  0  0
 25 21  1  0  0  0  0
 27 32  1  0  0  0  0
 27 28  1  0  0  0  0
 28 33  1  0  0  0  0
 28 29  1  0  0  0  0
 29 36  1  0  0  0  0
 29 35  1  0  0  0  0
 30 29  1  0  0  0  0
 30 37  1  0  0  0  0
 31 38  1  0  0  0  0
 31 30  1  0  0  0  0
 32 41  1  0  0  0  0
 32 31  1  0  0  0  0
 34 28  1  0  0  0  0
 39 31  1  0  0  0  0
 40 32  1  0  0  0  0
M  END
>  <minimizedAffinity>
-5.82765007

>  <minimizedRMSD>
0.496195376

$$$$
