
 OpenBabel03272501393D

 46 50  0  0  1  0  0  0  0  0999 V2000
   37.7690   30.9200   50.6550 C   0  0  0  0  0  0  0  0  0  0  0  0
   38.4790   31.5750   49.6740 C   0  0  0  0  0  0  0  0  0  0  0  0
   38.1340   31.5030   48.3160 C   0  0  0  0  0  0  0  0  0  0  0  0
   37.0920   30.7830   48.0060 N   0  0  0  0  0  0  0  0  0  0  0  0
   36.3910   30.1350   48.9910 C   0  0  0  0  0  0  0  0  0  0  0  0
   36.7200   30.2020   50.2740 N   0  0  0  0  0  0  0  0  0  0  0  0
   38.0410   30.9820   51.6890 H   0  0  0  0  0  0  0  0  0  0  0  0
   39.3390   32.1600   50.0360 H   0  0  0  0  0  0  0  0  0  0  0  0
   35.2050   29.3470   48.6620 C   0  0  0  0  0  0  0  0  0  0  0  0
   34.7760   28.1250   49.1060 C   0  0  0  0  0  0  0  0  0  0  0  0
   33.6210   27.5990   48.6700 C   0  0  0  0  0  0  0  0  0  0  0  0
   32.9080   28.3790   47.7480 C   0  0  0  0  0  0  0  0  0  0  0  0
   33.9500   29.8840   47.5340 S   0  0  0  0  0  0  0  0  0  0  0  0
   35.4210   27.6180   49.8220 H   0  0  0  0  0  0  0  0  0  0  0  0
   33.1880   26.6680   48.9390 H   0  0  0  0  0  0  0  0  0  0  0  0
   31.6870   28.1840   47.0740 N   0  0  0  0  0  0  0  0  0  0  0  0
   31.7780   28.2590   45.7220 C   0  0  0  0  0  0  0  0  0  0  0  0
   30.6310   28.0810   44.9570 C   0  0  0  0  0  0  0  0  0  0  0  0
   29.4340   27.8320   45.6300 C   0  0  0  0  0  0  0  0  0  0  0  0
   28.2380   27.6460   44.8550 N   0  0  0  0  0  0  0  0  0  0  0  0
   29.3870   27.7650   46.9810 N   0  0  0  0  0  0  0  0  0  0  0  0
   30.5210   27.9430   47.7060 C   0  0  0  0  0  0  0  0  0  0  0  0
   30.5040   27.8850   48.9780 O   0  0  0  0  0  0  0  0  0  0  0  0
   27.9480   28.6400   44.6200 H   0  0  0  0  0  0  0  0  0  0  0  0
   27.6790   26.8160   44.5240 H   0  0  0  0  0  0  0  0  0  0  0  0
   39.0470   32.1610   47.4220 C   0  0  1  0  0  0  0  0  0  0  0  0
   40.0420   31.8460   47.9380 H   0  0  0  0  0  0  0  0  0  0  0  0
   39.1290   31.6000   46.0160 C   0  0  2  0  0  0  0  0  0  0  0  0
   40.5900   31.2250   45.7760 C   0  0  0  0  0  0  0  0  0  0  0  0
   39.8890   32.2830   45.0000 C   0  0  1  0  0  0  0  0  0  0  0  0
   38.3670   30.8430   45.7840 H   0  0  0  0  0  0  0  0  0  0  0  0
   40.7310   30.2280   45.3260 H   0  0  0  0  0  0  0  0  0  0  0  0
   41.4210   31.5790   46.3810 H   0  0  0  0  0  0  0  0  0  0  0  0
   40.0430   33.3640   45.1990 H   0  0  0  0  0  0  0  0  0  0  0  0
   39.8250   32.0090   43.5570 C   0  0  0  0  0  0  0  0  0  0  0  0
   39.1170   32.8860   42.7740 C   0  0  0  0  0  0  0  0  0  0  0  0
   39.0930   32.6270   41.4280 C   0  0  0  0  0  0  0  0  0  0  0  0
   39.7350   31.5480   40.8480 C   0  0  0  0  0  0  0  0  0  0  0  0
   40.4400   30.6830   41.6740 C   0  0  0  0  0  0  0  0  0  0  0  0
   40.4690   30.9300   42.9960 N   0  0  0  0  0  0  0  0  0  0  0  0
   38.6020   33.7350   43.1500 H   0  0  0  0  0  0  0  0  0  0  0  0
   38.5400   33.2990   40.7570 H   0  0  0  0  0  0  0  0  0  0  0  0
   39.6970   31.3730   39.7960 H   0  0  0  0  0  0  0  0  0  0  0  0
   40.9700   29.8180   41.3090 H   0  0  0  0  0  0  0  0  0  0  0  0
   39.2840   33.4400   47.4880 O   0  0  0  0  0  0  0  0  0  0  0  0
   39.0620   33.8840   48.3340 H   0  0  0  0  0  0  0  0  0  0  0  0
  1  7  1  0  0  0  0
  2  8  1  0  0  0  0
  2  1  2  0  0  0  0
  3  2  1  0  0  0  0
  4  3  2  0  0  0  0
  4  5  1  0  0  0  0
  5  6  2  0  0  0  0
  6  1  1  0  0  0  0
  9  5  1  0  0  0  0
  9 10  2  0  0  0  0
 10 14  1  0  0  0  0
 11 15  1  0  0  0  0
 11 10  1  0  0  0  0
 12 11  2  0  0  0  0
 13 12  1  0  0  0  0
 13  9  1  0  0  0  0
 16 22  1  0  0  0  0
 16 12  1  0  0  0  0
 17 16  1  0  0  0  0
 18 19  1  0  0  0  0
 18 17  2  0  0  0  0
 19 21  2  0  0  0  0
 20 19  1  0  0  0  0
 21 22  1  0  0  0  0
 22 23  2  0  0  0  0
 24 20  1  0  0  0  0
 25 20  1  0  0  0  0
 26 45  1  0  0  0  0
 26 27  1  1  0  0  0
 26  3  1  0  0  0  0
 28 31  1  6  0  0  0
 28 26  1  0  0  0  0
 29 28  1  0  0  0  0
 29 33  1  0  0  0  0
 30 34  1  1  0  0  0
 30 29  1  0  0  0  0
 30 28  1  0  0  0  0
 32 29  1  0  0  0  0
 35 30  1  0  0  0  0
 36 41  1  0  0  0  0
 36 35  2  0  0  0  0
 37 36  1  0  0  0  0
 38 37  2  0  0  0  0
 38 39  1  0  0  0  0
 39 40  2  0  0  0  0
 40 35  1  0  0  0  0
 42 37  1  0  0  0  0
 43 38  1  0  0  0  0
 44 39  1  0  0  0  0
 45 46  1  0  0  0  0
M  END
>  <minimizedAffinity>
-6.9318552

>  <minimizedRMSD>
0.444857717

$$$$
