
 OpenBabel03272508073D

 36 39  0  0  0  0  0  0  0  0999 V2000
   35.7840   28.7110   33.5380 C   0  0  0  0  0  0  0  0  0  0  0  0
   36.2180   28.4650   32.2520 C   0  0  0  0  0  0  0  0  0  0  0  0
   37.2810   27.5820   32.2460 C   0  0  0  0  0  0  0  0  0  0  0  0
   37.4580   27.3180   33.5610 N   0  0  0  0  0  0  0  0  0  0  0  0
   36.5900   27.9720   34.3150 N   0  0  0  0  0  0  0  0  0  0  0  0
   35.7940   28.8980   31.3430 H   0  0  0  0  0  0  0  0  0  0  0  0
   37.8730   27.1620   31.4440 H   0  0  0  0  0  0  0  0  0  0  0  0
   34.6940   29.5810   33.9280 C   0  0  0  0  0  0  0  0  0  0  0  0
   34.8100   30.3300   35.1170 C   0  0  0  0  0  0  0  0  0  0  0  0
   33.7540   31.1600   35.4750 C   0  0  0  0  0  0  0  0  0  0  0  0
   32.6660   31.2030   34.6510 N   0  0  0  0  0  0  0  0  0  0  0  0
   32.5730   30.4760   33.5120 C   0  0  0  0  0  0  0  0  0  0  0  0
   33.5990   29.6680   33.1650 N   0  0  0  0  0  0  0  0  0  0  0  0
   35.7190   30.2300   35.7120 H   0  0  0  0  0  0  0  0  0  0  0  0
   31.6870   30.5430   32.8890 H   0  0  0  0  0  0  0  0  0  0  0  0
   33.8530   31.9590   36.7230 C   0  0  0  0  0  0  0  0  0  0  0  0
   32.9720   31.3850   37.6060 F   0  0  0  0  0  0  0  0  0  0  0  0
   35.1220   31.9310   37.2800 F   0  0  0  0  0  0  0  0  0  0  0  0
   33.4560   33.2820   36.5190 F   0  0  0  0  0  0  0  0  0  0  0  0
   38.4530   26.4300   34.1800 C   0  0  0  0  0  0  0  0  0  0  0  0
   39.7110   26.9020   34.5860 C   0  0  0  0  0  0  0  0  0  0  0  0
   40.5860   26.0570   35.1460 C   0  0  0  0  0  0  0  0  0  0  0  0
   40.2280   24.6890   35.3240 C   0  0  0  0  0  0  0  0  0  0  0  0
   38.5100   24.6690   34.6220 S   0  0  0  0  0  0  0  0  0  0  0  0
   40.0140   27.9400   34.4650 H   0  0  0  0  0  0  0  0  0  0  0  0
   41.5840   26.2240   35.5180 H   0  0  0  0  0  0  0  0  0  0  0  0
   40.8120   23.5610   35.8320 N   0  0  0  0  0  0  0  0  0  0  0  0
   41.8620   22.9700   35.2850 C   0  0  0  0  0  3  0  0  0  0  0  0
   42.3820   21.8230   35.8800 C   0  0  0  0  0  3  0  0  0  0  0  0
   41.7980   21.3230   37.0270 C   0  0  0  0  0  0  0  0  0  0  0  0
   42.2430   20.1560   37.7280 N   0  0  0  0  0  0  0  0  0  0  0  0
   40.7180   21.9530   37.5690 N   0  0  0  0  0  0  0  0  0  0  0  0
   40.2290   23.0730   36.9650 C   0  0  0  0  0  0  0  0  0  0  0  0
   39.2330   23.5950   37.5250 O   0  0  0  0  0  0  0  0  0  0  0  0
   41.5360   19.5210   38.1670 H   0  0  0  0  0  0  0  0  0  0  0  0
   43.2840   20.1010   37.6980 H   0  0  0  0  0  0  0  0  0  0  0  0
  1  8  1  0  0  0  0
  1  5  2  0  0  0  0
  2  1  1  0  0  0  0
  3  2  2  0  0  0  0
  3  4  1  0  0  0  0
  4 20  1  0  0  0  0
  4  5  1  0  0  0  0
  6  2  1  0  0  0  0
  7  3  1  0  0  0  0
  8  9  1  0  0  0  0
  9 10  2  0  0  0  0
  9 14  1  0  0  0  0
 10 16  1  0  0  0  0
 11 10  1  0  0  0  0
 12 11  2  0  0  0  0
 13 12  1  0  0  0  0
 13  8  2  0  0  0  0
 15 12  1  0  0  0  0
 16 18  1  0  0  0  0
 16 17  1  0  0  0  0
 19 16  1  0  0  0  0
 20 21  2  0  0  0  0
 20 24  1  0  0  0  0
 21 22  1  0  0  0  0
 22 23  2  0  0  0  0
 22 26  1  0  0  0  0
 23 27  1  0  0  0  0
 24 23  1  0  0  0  0
 25 21  1  0  0  0  0
 27 33  1  0  0  0  0
 28 27  1  0  0  0  0
 28 29  2  0  0  0  0
 29 30  1  0  0  0  0
 30 32  2  0  0  0  0
 30 31  1  0  0  0  0
 31 35  1  0  0  0  0
 33 34  2  0  0  0  0
 33 32  1  0  0  0  0
 36 31  1  0  0  0  0
M  END
>  <minimizedAffinity>
-6.45271206

$$$$

 OpenBabel03272508073D

 36 39  0  0  0  0  0  0  0  0999 V2000
   34.7420   29.4360   32.3830 C   0  0  0  0  0  0  0  0  0  0  0  0
   35.7140   29.4520   31.4050 C   0  0  0  0  0  0  0  0  0  0  0  0
   36.8130   28.7060   31.7840 C   0  0  0  0  0  0  0  0  0  0  0  0
   36.4600   28.2530   33.0090 N   0  0  0  0  0  0  0  0  0  0  0  0
   35.2570   28.6760   33.3610 N   0  0  0  0  0  0  0  0  0  0  0  0
   35.6460   29.9770   30.4490 H   0  0  0  0  0  0  0  0  0  0  0  0
   37.7510   28.4900   31.2900 H   0  0  0  0  0  0  0  0  0  0  0  0
   33.4580   30.1040   32.3340 C   0  0  0  0  0  0  0  0  0  0  0  0
   32.4760   29.7700   33.2900 C   0  0  0  0  0  0  0  0  0  0  0  0
   31.2500   30.4220   33.2270 C   0  0  0  0  0  0  0  0  0  0  0  0
   31.0690   31.3510   32.2420 N   0  0  0  0  0  0  0  0  0  0  0  0
   32.0250   31.6580   31.3320 C   0  0  0  0  0  0  0  0  0  0  0  0
   33.2150   31.0240   31.3940 N   0  0  0  0  0  0  0  0  0  0  0  0
   32.7130   29.0140   34.0410 H   0  0  0  0  0  0  0  0  0  0  0  0
   31.8330   32.4040   30.5680 H   0  0  0  0  0  0  0  0  0  0  0  0
   30.2010   30.0880   34.2230 C   0  0  0  0  0  0  0  0  0  0  0  0
   29.0060   30.4200   33.6350 F   0  0  0  0  0  0  0  0  0  0  0  0
   30.1770   28.7390   34.5460 F   0  0  0  0  0  0  0  0  0  0  0  0
   30.3340   30.8490   35.3850 F   0  0  0  0  0  0  0  0  0  0  0  0
   37.2360   27.3940   33.9150 C   0  0  0  0  0  0  0  0  0  0  0  0
   37.6460   27.8380   35.1820 C   0  0  0  0  0  0  0  0  0  0  0  0
   38.3520   27.0200   35.9740 C   0  0  0  0  0  0  0  0  0  0  0  0
   38.6760   25.7090   35.5200 C   0  0  0  0  0  0  0  0  0  0  0  0
   37.8910   25.7010   33.8380 S   0  0  0  0  0  0  0  0  0  0  0  0
   37.4150   28.8330   35.5560 H   0  0  0  0  0  0  0  0  0  0  0  0
   38.7510   27.1730   36.9630 H   0  0  0  0  0  0  0  0  0  0  0  0
   39.3480   24.6200   36.0070 N   0  0  0  0  0  0  0  0  0  0  0  0
   40.5450   24.2510   35.5840 C   0  0  0  0  0  3  0  0  0  0  0  0
   41.1460   23.1250   36.1440 C   0  0  0  0  0  3  0  0  0  0  0  0
   40.4840   22.4160   37.1270 C   0  0  0  0  0  0  0  0  0  0  0  0
   40.9980   21.2470   37.7760 N   0  0  0  0  0  0  0  0  0  0  0  0
   39.2510   22.8200   37.5430 N   0  0  0  0  0  0  0  0  0  0  0  0
   38.6880   23.9250   36.9780 C   0  0  0  0  0  0  0  0  0  0  0  0
   37.5500   24.2320   37.4150 O   0  0  0  0  0  0  0  0  0  0  0  0
   40.3420   20.4720   38.0310 H   0  0  0  0  0  0  0  0  0  0  0  0
   42.0280   21.3420   37.9110 H   0  0  0  0  0  0  0  0  0  0  0  0
  1  5  2  0  0  0  0
  2  3  2  0  0  0  0
  2  1  1  0  0  0  0
  3  4  1  0  0  0  0
  4  5  1  0  0  0  0
  4 20  1  0  0  0  0
  6  2  1  0  0  0  0
  7  3  1  0  0  0  0
  8  1  1  0  0  0  0
  8  9  1  0  0  0  0
  9 14  1  0  0  0  0
 10  9  2  0  0  0  0
 10 16  1  0  0  0  0
 11 10  1  0  0  0  0
 12 13  1  0  0  0  0
 12 11  2  0  0  0  0
 13  8  2  0  0  0  0
 15 12  1  0  0  0  0
 16 18  1  0  0  0  0
 16 19  1  0  0  0  0
 17 16  1  0  0  0  0
 20 21  2  0  0  0  0
 21 25  1  0  0  0  0
 21 22  1  0  0  0  0
 22 26  1  0  0  0  0
 23 22  2  0  0  0  0
 23 27  1  0  0  0  0
 24 20  1  0  0  0  0
 24 23  1  0  0  0  0
 27 33  1  0  0  0  0
 28 27  1  0  0  0  0
 28 29  2  0  0  0  0
 29 30  1  0  0  0  0
 30 32  2  0  0  0  0
 30 31  1  0  0  0  0
 31 36  1  0  0  0  0
 31 35  1  0  0  0  0
 33 34  2  0  0  0  0
 33 32  1  0  0  0  0
M  END
>  <minimizedAffinity>
-6.42477894

$$$$

 OpenBabel03272508073D

 36 39  0  0  0  0  0  0  0  0999 V2000
   37.5200   24.0640   31.2110 C   0  0  0  0  0  0  0  0  0  0  0  0
   38.4690   24.8160   30.5480 C   0  0  0  0  0  0  0  0  0  0  0  0
   38.3420   26.1570   30.8550 C   0  0  0  0  0  0  0  0  0  0  0  0
   37.2960   26.1720   31.7110 N   0  0  0  0  0  0  0  0  0  0  0  0
   36.8150   24.9570   31.9210 N   0  0  0  0  0  0  0  0  0  0  0  0
   39.2290   24.4260   29.8690 H   0  0  0  0  0  0  0  0  0  0  0  0
   38.8940   27.0310   30.5350 H   0  0  0  0  0  0  0  0  0  0  0  0
   37.3510   22.6280   31.1330 C   0  0  0  0  0  0  0  0  0  0  0  0
   36.3070   22.0230   31.8640 C   0  0  0  0  0  0  0  0  0  0  0  0
   36.1590   20.6440   31.7760 C   0  0  0  0  0  0  0  0  0  0  0  0
   37.0340   19.9550   30.9850 N   0  0  0  0  0  0  0  0  0  0  0  0
   38.0310   20.5550   30.2910 C   0  0  0  0  0  0  0  0  0  0  0  0
   38.1740   21.8950   30.3770 N   0  0  0  0  0  0  0  0  0  0  0  0
   35.6560   22.6560   32.4690 H   0  0  0  0  0  0  0  0  0  0  0  0
   38.7010   19.9640   29.6760 H   0  0  0  0  0  0  0  0  0  0  0  0
   35.0670   19.9830   32.5360 C   0  0  0  0  0  0  0  0  0  0  0  0
   35.0990   20.5330   33.7940 F   0  0  0  0  0  0  0  0  0  0  0  0
   33.8150   20.2110   31.9840 F   0  0  0  0  0  0  0  0  0  0  0  0
   35.2860   18.6100   32.6600 F   0  0  0  0  0  0  0  0  0  0  0  0
   36.6930   27.3320   32.3850 C   0  0  0  0  0  0  0  0  0  0  0  0
   36.0290   28.3380   31.6660 C   0  0  0  0  0  0  0  0  0  0  0  0
   35.4950   29.3770   32.3220 C   0  0  0  0  0  0  0  0  0  0  0  0
   35.6060   29.4460   33.7410 C   0  0  0  0  0  0  0  0  0  0  0  0
   36.5510   27.8910   34.1080 S   0  0  0  0  0  0  0  0  0  0  0  0
   35.9270   28.3150   30.5830 H   0  0  0  0  0  0  0  0  0  0  0  0
   34.9550   30.2350   31.9570 H   0  0  0  0  0  0  0  0  0  0  0  0
   35.2140   30.3020   34.7340 N   0  0  0  0  0  0  0  0  0  0  0  0
   36.0370   31.1320   35.3530 C   0  0  0  0  0  3  0  0  0  0  0  0
   35.5380   31.9640   36.3530 C   0  0  0  0  0  3  0  0  0  0  0  0
   34.1980   31.9090   36.6810 C   0  0  0  0  0  0  0  0  0  0  0  0
   33.5710   32.7120   37.6880 N   0  0  0  0  0  0  0  0  0  0  0  0
   33.3730   31.0440   36.0270 N   0  0  0  0  0  0  0  0  0  0  0  0
   33.8890   30.2420   35.0530 C   0  0  0  0  0  0  0  0  0  0  0  0
   33.0640   29.4730   34.4980 O   0  0  0  0  0  0  0  0  0  0  0  0
   32.8110   32.2970   38.2760 H   0  0  0  0  0  0  0  0  0  0  0  0
   33.9930   33.6670   37.6910 H   0  0  0  0  0  0  0  0  0  0  0  0
  1  5  2  0  0  0  0
  2  3  2  0  0  0  0
  2  1  1  0  0  0  0
  3  4  1  0  0  0  0
  4  5  1  0  0  0  0
  4 20  1  0  0  0  0
  6  2  1  0  0  0  0
  7  3  1  0  0  0  0
  8  1  1  0  0  0  0
  8  9  1  0  0  0  0
  9 14  1  0  0  0  0
 10  9  2  0  0  0  0
 10 16  1  0  0  0  0
 11 10  1  0  0  0  0
 12 13  1  0  0  0  0
 12 11  2  0  0  0  0
 13  8  2  0  0  0  0
 15 12  1  0  0  0  0
 16 19  1  0  0  0  0
 16 17  1  0  0  0  0
 18 16  1  0  0  0  0
 20 24  1  0  0  0  0
 21 22  1  0  0  0  0
 21 20  2  0  0  0  0
 22 23  2  0  0  0  0
 23 24  1  0  0  0  0
 23 27  1  0  0  0  0
 25 21  1  0  0  0  0
 26 22  1  0  0  0  0
 27 33  1  0  0  0  0
 27 28  1  0  0  0  0
 28 29  2  0  0  0  0
 29 30  1  0  0  0  0
 30 31  1  0  0  0  0
 31 36  1  0  0  0  0
 31 35  1  0  0  0  0
 32 30  2  0  0  0  0
 33 32  1  0  0  0  0
 34 33  2  0  0  0  0
M  END
>  <minimizedAffinity>
-6.36352015

$$$$

 OpenBabel03272508073D

 36 39  0  0  0  0  0  0  0  0999 V2000
   37.3300   26.5560   34.3310 C   0  0  0  0  0  0  0  0  0  0  0  0
   37.3150   26.9270   33.0030 C   0  0  0  0  0  0  0  0  0  0  0  0
   36.6480   28.1250   32.8290 C   0  0  0  0  0  0  0  0  0  0  0  0
   36.2730   28.4450   34.0880 N   0  0  0  0  0  0  0  0  0  0  0  0
   36.6670   27.5350   34.9650 N   0  0  0  0  0  0  0  0  0  0  0  0
   37.7640   26.3670   32.1800 H   0  0  0  0  0  0  0  0  0  0  0  0
   36.4370   28.7190   31.9500 H   0  0  0  0  0  0  0  0  0  0  0  0
   37.9370   25.3640   34.8860 C   0  0  0  0  0  0  0  0  0  0  0  0
   37.8520   25.1370   36.2760 C   0  0  0  0  0  0  0  0  0  0  0  0
   38.4390   23.9870   36.7900 C   0  0  0  0  0  0  0  0  0  0  0  0
   39.0640   23.1430   35.9170 N   0  0  0  0  0  0  0  0  0  0  0  0
   39.1350   23.3780   34.5850 C   0  0  0  0  0  0  0  0  0  0  0  0
   38.5640   24.4950   34.0860 N   0  0  0  0  0  0  0  0  0  0  0  0
   37.3310   25.8700   36.8940 H   0  0  0  0  0  0  0  0  0  0  0  0
   39.6420   22.6760   33.9310 H   0  0  0  0  0  0  0  0  0  0  0  0
   38.3630   23.7270   38.2500 C   0  0  0  0  0  0  0  0  0  0  0  0
   39.5800   23.1970   38.6010 F   0  0  0  0  0  0  0  0  0  0  0  0
   38.1500   24.8790   38.9910 F   0  0  0  0  0  0  0  0  0  0  0  0
   37.3800   22.7830   38.5520 F   0  0  0  0  0  0  0  0  0  0  0  0
   35.5260   29.6290   34.5380 C   0  0  0  0  0  0  0  0  0  0  0  0
   36.1270   30.6260   35.3220 C   0  0  0  0  0  0  0  0  0  0  0  0
   35.4070   31.6870   35.7090 C   0  0  0  0  0  0  0  0  0  0  0  0
   34.0400   31.7910   35.3180 C   0  0  0  0  0  0  0  0  0  0  0  0
   33.8250   30.2330   34.3310 S   0  0  0  0  0  0  0  0  0  0  0  0
   37.1670   30.5760   35.6360 H   0  0  0  0  0  0  0  0  0  0  0  0
   35.6810   32.5440   36.3020 H   0  0  0  0  0  0  0  0  0  0  0  0
   33.0120   32.6760   35.4990 N   0  0  0  0  0  0  0  0  0  0  0  0
   32.7910   33.7120   34.7070 C   0  0  0  0  0  3  0  0  0  0  0  0
   31.7160   34.5570   34.9770 C   0  0  0  0  0  3  0  0  0  0  0  0
   30.9030   34.3000   36.0630 C   0  0  0  0  0  0  0  0  0  0  0  0
   29.7720   35.0940   36.4410 N   0  0  0  0  0  0  0  0  0  0  0  0
   31.1540   33.2260   36.8620 N   0  0  0  0  0  0  0  0  0  0  0  0
   32.2130   32.4170   36.5740 C   0  0  0  0  0  0  0  0  0  0  0  0
   32.3780   31.4480   37.3580 O   0  0  0  0  0  0  0  0  0  0  0  0
   29.5640   35.2400   37.4560 H   0  0  0  0  0  0  0  0  0  0  0  0
   29.2810   35.4380   35.5860 H   0  0  0  0  0  0  0  0  0  0  0  0
  1  8  1  0  0  0  0
  1  5  2  0  0  0  0
  2  1  1  0  0  0  0
  3  2  2  0  0  0  0
  3  4  1  0  0  0  0
  4 20  1  0  0  0  0
  4  5  1  0  0  0  0
  6  2  1  0  0  0  0
  7  3  1  0  0  0  0
  8  9  1  0  0  0  0
  9 10  2  0  0  0  0
  9 14  1  0  0  0  0
 10 16  1  0  0  0  0
 11 10  1  0  0  0  0
 12 11  2  0  0  0  0
 13 12  1  0  0  0  0
 13  8  2  0  0  0  0
 15 12  1  0  0  0  0
 16 19  1  0  0  0  0
 16 17  1  0  0  0  0
 16 18  1  0  0  0  0
 20 21  2  0  0  0  0
 21 25  1  0  0  0  0
 21 22  1  0  0  0  0
 22 26  1  0  0  0  0
 23 27  1  0  0  0  0
 23 22  2  0  0  0  0
 24 20  1  0  0  0  0
 24 23  1  0  0  0  0
 27 33  1  0  0  0  0
 28 29  2  0  0  0  0
 28 27  1  0  0  0  0
 29 30  1  0  0  0  0
 30 31  1  0  0  0  0
 30 32  2  0  0  0  0
 31 35  1  0  0  0  0
 33 32  1  0  0  0  0
 33 34  2  0  0  0  0
 36 31  1  0  0  0  0
M  END
>  <minimizedAffinity>
-6.29983902

$$$$

 OpenBabel03272508073D

 36 39  0  0  0  0  0  0  0  0999 V2000
   36.0650   29.6350   31.9900 C   0  0  0  0  0  0  0  0  0  0  0  0
   36.4540   29.5610   30.6690 C   0  0  0  0  0  0  0  0  0  0  0  0
   36.6700   28.2500   30.2870 C   0  0  0  0  0  0  0  0  0  0  0  0
   36.3980   27.5600   31.4180 N   0  0  0  0  0  0  0  0  0  0  0  0
   36.0460   28.3620   32.4100 N   0  0  0  0  0  0  0  0  0  0  0  0
   36.5800   30.4100   29.9940 H   0  0  0  0  0  0  0  0  0  0  0  0
   36.9770   27.8070   29.3490 H   0  0  0  0  0  0  0  0  0  0  0  0
   35.7530   30.8400   32.7300 C   0  0  0  0  0  0  0  0  0  0  0  0
   35.1860   30.7250   34.0170 C   0  0  0  0  0  0  0  0  0  0  0  0
   34.8940   31.8920   34.7120 C   0  0  0  0  0  0  0  0  0  0  0  0
   35.1760   33.0840   34.1090 N   0  0  0  0  0  0  0  0  0  0  0  0
   35.7220   33.1750   32.8720 C   0  0  0  0  0  0  0  0  0  0  0  0
   36.0050   32.0400   32.1960 N   0  0  0  0  0  0  0  0  0  0  0  0
   34.9960   29.7280   34.4170 H   0  0  0  0  0  0  0  0  0  0  0  0
   35.9280   34.1460   32.4340 H   0  0  0  0  0  0  0  0  0  0  0  0
   34.2960   31.7960   36.0680 C   0  0  0  0  0  0  0  0  0  0  0  0
   35.3520   31.6530   36.9340 F   0  0  0  0  0  0  0  0  0  0  0  0
   33.5830   32.9320   36.4220 F   0  0  0  0  0  0  0  0  0  0  0  0
   33.4820   30.6690   36.1920 F   0  0  0  0  0  0  0  0  0  0  0  0
   36.4510   26.1060   31.6260 C   0  0  0  0  0  0  0  0  0  0  0  0
   37.3830   25.5190   32.4960 C   0  0  0  0  0  0  0  0  0  0  0  0
   37.3940   24.1890   32.6540 C   0  0  0  0  0  0  0  0  0  0  0  0
   36.4590   23.3870   31.9380 C   0  0  0  0  0  0  0  0  0  0  0  0
   35.5240   24.6790   30.9880 S   0  0  0  0  0  0  0  0  0  0  0  0
   38.1100   26.1030   33.0560 H   0  0  0  0  0  0  0  0  0  0  0  0
   38.0200   23.5600   33.2650 H   0  0  0  0  0  0  0  0  0  0  0  0
   36.1590   22.0560   31.8300 N   0  0  0  0  0  0  0  0  0  0  0  0
   35.1450   21.4810   32.4550 C   0  0  0  0  0  3  0  0  0  0  0  0
   34.9240   20.1160   32.2790 C   0  0  0  0  0  3  0  0  0  0  0  0
   35.7640   19.3890   31.4590 C   0  0  0  0  0  0  0  0  0  0  0  0
   35.6370   17.9860   31.2010 N   0  0  0  0  0  0  0  0  0  0  0  0
   36.8000   20.0080   30.8280 N   0  0  0  0  0  0  0  0  0  0  0  0
   36.9930   21.3440   31.0180 C   0  0  0  0  0  0  0  0  0  0  0  0
   37.9700   21.8390   30.4020 O   0  0  0  0  0  0  0  0  0  0  0  0
   36.5010   17.4040   31.0960 H   0  0  0  0  0  0  0  0  0  0  0  0
   34.6280   17.7260   31.1500 H   0  0  0  0  0  0  0  0  0  0  0  0
  1  5  2  0  0  0  0
  1  8  1  0  0  0  0
  2  1  1  0  0  0  0
  3  2  2  0  0  0  0
  3  4  1  0  0  0  0
  4 20  1  0  0  0  0
  4  5  1  0  0  0  0
  6  2  1  0  0  0  0
  7  3  1  0  0  0  0
  8  9  1  0  0  0  0
  9 14  1  0  0  0  0
  9 10  2  0  0  0  0
 10 16  1  0  0  0  0
 11 10  1  0  0  0  0
 12 11  2  0  0  0  0
 13  8  2  0  0  0  0
 13 12  1  0  0  0  0
 15 12  1  0  0  0  0
 16 19  1  0  0  0  0
 16 18  1  0  0  0  0
 16 17  1  0  0  0  0
 20 21  2  0  0  0  0
 21 22  1  0  0  0  0
 21 25  1  0  0  0  0
 22 26  1  0  0  0  0
 23 22  2  0  0  0  0
 24 20  1  0  0  0  0
 24 23  1  0  0  0  0
 27 23  1  0  0  0  0
 27 28  1  0  0  0  0
 29 28  2  0  0  0  0
 30 29  1  0  0  0  0
 31 30  1  0  0  0  0
 32 33  1  0  0  0  0
 32 30  2  0  0  0  0
 33 27  1  0  0  0  0
 34 33  2  0  0  0  0
 35 31  1  0  0  0  0
 36 31  1  0  0  0  0
M  END
>  <minimizedAffinity>
-6.00074387

$$$$

 OpenBabel03272508073D

 36 39  0  0  0  0  0  0  0  0999 V2000
   37.6530   25.4180   33.8480 C   0  0  0  0  0  0  0  0  0  0  0  0
   37.5670   25.3210   32.4750 C   0  0  0  0  0  0  0  0  0  0  0  0
   37.0260   26.4690   31.9290 C   0  0  0  0  0  0  0  0  0  0  0  0
   36.7980   27.2400   33.0160 N   0  0  0  0  0  0  0  0  0  0  0  0
   37.1600   26.6330   34.1340 N   0  0  0  0  0  0  0  0  0  0  0  0
   37.8790   24.4620   31.8770 H   0  0  0  0  0  0  0  0  0  0  0  0
   36.8100   26.7570   30.9080 H   0  0  0  0  0  0  0  0  0  0  0  0
   38.1670   24.4110   34.7530 C   0  0  0  0  0  0  0  0  0  0  0  0
   37.9940   24.5880   36.1420 C   0  0  0  0  0  0  0  0  0  0  0  0
   38.4930   23.6110   36.9950 C   0  0  0  0  0  0  0  0  0  0  0  0
   39.1210   22.5340   36.4360 N   0  0  0  0  0  0  0  0  0  0  0  0
   39.2770   22.3810   35.0990 C   0  0  0  0  0  0  0  0  0  0  0  0
   38.7920   23.3320   34.2710 N   0  0  0  0  0  0  0  0  0  0  0  0
   37.4780   25.4820   36.4950 H   0  0  0  0  0  0  0  0  0  0  0  0
   39.7840   21.5070   34.7030 H   0  0  0  0  0  0  0  0  0  0  0  0
   38.3240   23.7740   38.4610 C   0  0  0  0  0  0  0  0  0  0  0  0
   37.3430   22.8860   38.8270 F   0  0  0  0  0  0  0  0  0  0  0  0
   39.4780   23.4790   39.1710 F   0  0  0  0  0  0  0  0  0  0  0  0
   37.8840   25.0580   38.7870 F   0  0  0  0  0  0  0  0  0  0  0  0
   36.2290   28.5950   33.0620 C   0  0  0  0  0  0  0  0  0  0  0  0
   36.3030   29.4640   31.9610 C   0  0  0  0  0  0  0  0  0  0  0  0
   35.7700   30.6890   32.0490 C   0  0  0  0  0  0  0  0  0  0  0  0
   35.1340   31.0960   33.2580 C   0  0  0  0  0  0  0  0  0  0  0  0
   35.3430   29.5780   34.3070 S   0  0  0  0  0  0  0  0  0  0  0  0
   36.7810   29.1830   31.0250 H   0  0  0  0  0  0  0  0  0  0  0  0
   35.7250   31.4890   31.3270 H   0  0  0  0  0  0  0  0  0  0  0  0
   34.4970   32.2130   33.7260 N   0  0  0  0  0  0  0  0  0  0  0  0
   33.2020   32.4340   33.5740 C   0  0  0  0  0  3  0  0  0  0  0  0
   32.6480   33.6040   34.0880 C   0  0  0  0  0  3  0  0  0  0  0  0
   33.4550   34.5110   34.7450 C   0  0  0  0  0  0  0  0  0  0  0  0
   33.0020   35.7450   35.3150 N   0  0  0  0  0  0  0  0  0  0  0  0
   34.7860   34.2570   34.8870 N   0  0  0  0  0  0  0  0  0  0  0  0
   35.3010   33.1040   34.3740 C   0  0  0  0  0  0  0  0  0  0  0  0
   36.5360   32.9440   34.5450 O   0  0  0  0  0  0  0  0  0  0  0  0
   33.6200   36.5880   35.2690 H   0  0  0  0  0  0  0  0  0  0  0  0
   32.0510   35.6160   35.7240 H   0  0  0  0  0  0  0  0  0  0  0  0
  1  5  2  0  0  0  0
  1  8  1  0  0  0  0
  2  1  1  0  0  0  0
  3  2  2  0  0  0  0
  3  4  1  0  0  0  0
  4 20  1  0  0  0  0
  4  5  1  0  0  0  0
  6  2  1  0  0  0  0
  7  3  1  0  0  0  0
  8  9  1  0  0  0  0
  9 14  1  0  0  0  0
  9 10  2  0  0  0  0
 10 16  1  0  0  0  0
 11 10  1  0  0  0  0
 12 11  2  0  0  0  0
 13  8  2  0  0  0  0
 13 12  1  0  0  0  0
 15 12  1  0  0  0  0
 16 19  1  0  0  0  0
 16 17  1  0  0  0  0
 16 18  1  0  0  0  0
 20 24  1  0  0  0  0
 21 22  1  0  0  0  0
 21 20  2  0  0  0  0
 22 23  2  0  0  0  0
 23 27  1  0  0  0  0
 23 24  1  0  0  0  0
 25 21  1  0  0  0  0
 26 22  1  0  0  0  0
 27 33  1  0  0  0  0
 28 27  1  0  0  0  0
 28 29  2  0  0  0  0
 29 30  1  0  0  0  0
 30 32  2  0  0  0  0
 30 31  1  0  0  0  0
 31 36  1  0  0  0  0
 33 34  2  0  0  0  0
 33 32  1  0  0  0  0
 35 31  1  0  0  0  0
M  END
>  <minimizedAffinity>
-5.99628735

$$$$

 OpenBabel03272508073D

 36 39  0  0  0  0  0  0  0  0999 V2000
   38.0720   24.9560   34.9150 C   0  0  0  0  0  0  0  0  0  0  0  0
   38.1550   24.5310   33.6060 C   0  0  0  0  0  0  0  0  0  0  0  0
   37.5850   25.4520   32.7470 C   0  0  0  0  0  0  0  0  0  0  0  0
   37.1660   26.4250   33.5870 N   0  0  0  0  0  0  0  0  0  0  0  0
   37.4470   26.1410   34.8480 N   0  0  0  0  0  0  0  0  0  0  0  0
   38.6070   23.5960   33.2670 H   0  0  0  0  0  0  0  0  0  0  0  0
   37.4640   25.4660   31.6720 H   0  0  0  0  0  0  0  0  0  0  0  0
   38.5630   24.2530   36.0820 C   0  0  0  0  0  0  0  0  0  0  0  0
   39.7450   23.4900   35.9740 C   0  0  0  0  0  0  0  0  0  0  0  0
   40.2010   22.8230   37.1040 C   0  0  0  0  0  0  0  0  0  0  0  0
   39.4770   22.9460   38.2560 N   0  0  0  0  0  0  0  0  0  0  0  0
   38.3440   23.6840   38.3400 C   0  0  0  0  0  0  0  0  0  0  0  0
   37.9010   24.3320   37.2410 N   0  0  0  0  0  0  0  0  0  0  0  0
   40.2550   23.4510   35.0110 H   0  0  0  0  0  0  0  0  0  0  0  0
   37.8030   23.7510   39.2790 H   0  0  0  0  0  0  0  0  0  0  0  0
   41.4430   22.0140   37.0160 C   0  0  0  0  0  0  0  0  0  0  0  0
   42.4790   22.9140   37.0330 F   0  0  0  0  0  0  0  0  0  0  0  0
   41.5940   21.1430   38.0840 F   0  0  0  0  0  0  0  0  0  0  0  0
   41.5090   21.3050   35.8150 F   0  0  0  0  0  0  0  0  0  0  0  0
   36.4810   27.6810   33.2480 C   0  0  0  0  0  0  0  0  0  0  0  0
   36.1470   28.6270   34.2300 C   0  0  0  0  0  0  0  0  0  0  0  0
   35.5230   29.7580   33.8750 C   0  0  0  0  0  0  0  0  0  0  0  0
   35.2060   29.9860   32.5040 C   0  0  0  0  0  0  0  0  0  0  0  0
   35.8700   28.4420   31.7150 S   0  0  0  0  0  0  0  0  0  0  0  0
   36.3760   28.4830   35.2840 H   0  0  0  0  0  0  0  0  0  0  0  0
   35.1890   30.5920   34.4690 H   0  0  0  0  0  0  0  0  0  0  0  0
   34.6010   30.9680   31.7680 N   0  0  0  0  0  0  0  0  0  0  0  0
   33.2970   31.0250   31.5540 C   0  0  0  0  0  3  0  0  0  0  0  0
   32.7790   32.0670   30.7890 C   0  0  0  0  0  3  0  0  0  0  0  0
   33.6300   33.0200   30.2670 C   0  0  0  0  0  0  0  0  0  0  0  0
   33.2170   34.1350   29.4690 N   0  0  0  0  0  0  0  0  0  0  0  0
   34.9700   32.9370   30.5040 N   0  0  0  0  0  0  0  0  0  0  0  0
   35.4490   31.9060   31.2560 C   0  0  0  0  0  0  0  0  0  0  0  0
   36.6940   31.9000   31.4280 O   0  0  0  0  0  0  0  0  0  0  0  0
   33.8250   34.4540   28.6790 H   0  0  0  0  0  0  0  0  0  0  0  0
   32.3010   34.4960   29.8140 H   0  0  0  0  0  0  0  0  0  0  0  0
  1  8  1  0  0  0  0
  2  1  1  0  0  0  0
  3  4  1  0  0  0  0
  3  2  2  0  0  0  0
  4  5  1  0  0  0  0
  5  1  2  0  0  0  0
  6  2  1  0  0  0  0
  7  3  1  0  0  0  0
  8 13  1  0  0  0  0
  9  8  2  0  0  0  0
  9 10  1  0  0  0  0
 10 11  2  0  0  0  0
 11 12  1  0  0  0  0
 12 15  1  0  0  0  0
 13 12  2  0  0  0  0
 14  9  1  0  0  0  0
 16 17  1  0  0  0  0
 16 10  1  0  0  0  0
 16 18  1  0  0  0  0
 19 16  1  0  0  0  0
 20  4  1  0  0  0  0
 20 21  2  0  0  0  0
 21 25  1  0  0  0  0
 22 21  1  0  0  0  0
 22 26  1  0  0  0  0
 23 22  2  0  0  0  0
 24 23  1  0  0  0  0
 24 20  1  0  0  0  0
 27 23  1  0  0  0  0
 28 27  1  0  0  0  0
 29 28  2  0  0  0  0
 30 32  2  0  0  0  0
 30 29  1  0  0  0  0
 31 36  1  0  0  0  0
 31 30  1  0  0  0  0
 32 33  1  0  0  0  0
 33 34  2  0  0  0  0
 33 27  1  0  0  0  0
 35 31  1  0  0  0  0
M  END
>  <minimizedAffinity>
-5.96708918

$$$$

 OpenBabel03272508073D

 36 39  0  0  0  0  0  0  0  0999 V2000
   38.0430   25.7950   33.9050 C   0  0  0  0  0  0  0  0  0  0  0  0
   38.8390   26.2380   32.8690 C   0  0  0  0  0  0  0  0  0  0  0  0
   38.3190   27.3840   32.2980 C   0  0  0  0  0  0  0  0  0  0  0  0
   37.1990   27.6000   33.0250 N   0  0  0  0  0  0  0  0  0  0  0  0
   37.0350   26.6780   33.9600 N   0  0  0  0  0  0  0  0  0  0  0  0
   39.7620   25.7650   32.5280 H   0  0  0  0  0  0  0  0  0  0  0  0
   38.6570   28.0070   31.4810 H   0  0  0  0  0  0  0  0  0  0  0  0
   38.2750   24.6280   34.7300 C   0  0  0  0  0  0  0  0  0  0  0  0
   38.1580   24.7480   36.1310 C   0  0  0  0  0  0  0  0  0  0  0  0
   38.3830   23.6180   36.9080 C   0  0  0  0  0  0  0  0  0  0  0  0
   38.7020   22.4550   36.2670 N   0  0  0  0  0  0  0  0  0  0  0  0
   38.8090   22.3590   34.9200 C   0  0  0  0  0  0  0  0  0  0  0  0
   38.5910   23.4580   34.1660 N   0  0  0  0  0  0  0  0  0  0  0  0
   37.8980   25.7200   36.5530 H   0  0  0  0  0  0  0  0  0  0  0  0
   39.0650   21.4110   34.4570 H   0  0  0  0  0  0  0  0  0  0  0  0
   38.2670   23.7190   38.3850 C   0  0  0  0  0  0  0  0  0  0  0  0
   39.4970   23.3690   38.8830 F   0  0  0  0  0  0  0  0  0  0  0  0
   37.9620   25.0020   38.8120 F   0  0  0  0  0  0  0  0  0  0  0  0
   37.3270   22.8180   38.8880 F   0  0  0  0  0  0  0  0  0  0  0  0
   36.2230   28.6900   32.8820 C   0  0  0  0  0  0  0  0  0  0  0  0
   35.9770   29.3010   31.6430 C   0  0  0  0  0  0  0  0  0  0  0  0
   35.0780   30.2910   31.5600 C   0  0  0  0  0  0  0  0  0  0  0  0
   34.3820   30.7090   32.7310 C   0  0  0  0  0  0  0  0  0  0  0  0
   35.1050   29.5730   34.0090 S   0  0  0  0  0  0  0  0  0  0  0  0
   36.4910   29.0050   30.7310 H   0  0  0  0  0  0  0  0  0  0  0  0
   34.7530   30.8760   30.7160 H   0  0  0  0  0  0  0  0  0  0  0  0
   33.4310   31.6400   33.0510 N   0  0  0  0  0  0  0  0  0  0  0  0
   33.7130   32.8850   33.3980 C   0  0  0  0  0  3  0  0  0  0  0  0
   32.6710   33.7570   33.7060 C   0  0  0  0  0  3  0  0  0  0  0  0
   31.3660   33.3100   33.6430 C   0  0  0  0  0  0  0  0  0  0  0  0
   30.2150   34.1110   33.9340 N   0  0  0  0  0  0  0  0  0  0  0  0
   31.1050   32.0230   33.2810 N   0  0  0  0  0  0  0  0  0  0  0  0
   32.1440   31.1920   32.9860 C   0  0  0  0  0  0  0  0  0  0  0  0
   31.8200   30.0210   32.6620 O   0  0  0  0  0  0  0  0  0  0  0  0
   29.3950   33.6750   34.4170 H   0  0  0  0  0  0  0  0  0  0  0  0
   30.3690   35.0870   33.5990 H   0  0  0  0  0  0  0  0  0  0  0  0
  1  5  2  0  0  0  0
  1  8  1  0  0  0  0
  2  1  1  0  0  0  0
  3  2  2  0  0  0  0
  3  4  1  0  0  0  0
  4  5  1  0  0  0  0
  6  2  1  0  0  0  0
  7  3  1  0  0  0  0
  8  9  1  0  0  0  0
  9 14  1  0  0  0  0
  9 10  2  0  0  0  0
 10 16  1  0  0  0  0
 11 10  1  0  0  0  0
 12 11  2  0  0  0  0
 13  8  2  0  0  0  0
 13 12  1  0  0  0  0
 15 12  1  0  0  0  0
 16 18  1  0  0  0  0
 16 17  1  0  0  0  0
 16 19  1  0  0  0  0
 20  4  1  0  0  0  0
 20 24  1  0  0  0  0
 21 20  2  0  0  0  0
 22 21  1  0  0  0  0
 22 23  2  0  0  0  0
 23 27  1  0  0  0  0
 23 24  1  0  0  0  0
 25 21  1  0  0  0  0
 26 22  1  0  0  0  0
 27 28  1  0  0  0  0
 28 29  2  0  0  0  0
 30 29  1  0  0  0  0
 30 31  1  0  0  0  0
 31 35  1  0  0  0  0
 32 30  2  0  0  0  0
 33 27  1  0  0  0  0
 33 32  1  0  0  0  0
 34 33  2  0  0  0  0
 36 31  1  0  0  0  0
M  END
>  <minimizedAffinity>
-5.95622301

$$$$

 OpenBabel03272508073D

 36 39  0  0  0  0  0  0  0  0999 V2000
   38.1780   25.7630   33.8650 C   0  0  0  0  0  0  0  0  0  0  0  0
   39.0240   26.2280   32.8800 C   0  0  0  0  0  0  0  0  0  0  0  0
   38.5080   27.3600   32.2760 C   0  0  0  0  0  0  0  0  0  0  0  0
   37.3400   27.5440   32.9320 N   0  0  0  0  0  0  0  0  0  0  0  0
   37.1440   26.6180   33.8570 N   0  0  0  0  0  0  0  0  0  0  0  0
   39.9790   25.7810   32.5970 H   0  0  0  0  0  0  0  0  0  0  0  0
   38.8780   27.9920   31.4800 H   0  0  0  0  0  0  0  0  0  0  0  0
   38.3910   24.6030   34.7060 C   0  0  0  0  0  0  0  0  0  0  0  0
   38.2360   24.7330   36.1020 C   0  0  0  0  0  0  0  0  0  0  0  0
   38.4430   23.6090   36.8920 C   0  0  0  0  0  0  0  0  0  0  0  0
   38.7830   22.4420   36.2690 N   0  0  0  0  0  0  0  0  0  0  0  0
   38.9270   22.3370   34.9260 C   0  0  0  0  0  0  0  0  0  0  0  0
   38.7260   23.4300   34.1580 N   0  0  0  0  0  0  0  0  0  0  0  0
   37.9610   25.7070   36.5090 H   0  0  0  0  0  0  0  0  0  0  0  0
   39.1990   21.3870   34.4770 H   0  0  0  0  0  0  0  0  0  0  0  0
   38.2850   23.7200   38.3650 C   0  0  0  0  0  0  0  0  0  0  0  0
   39.5080   23.3970   38.8980 F   0  0  0  0  0  0  0  0  0  0  0  0
   37.9480   25.0020   38.7730 F   0  0  0  0  0  0  0  0  0  0  0  0
   37.3490   22.8070   38.8510 F   0  0  0  0  0  0  0  0  0  0  0  0
   36.3440   28.6060   32.7280 C   0  0  0  0  0  0  0  0  0  0  0  0
   35.5320   29.0670   33.7770 C   0  0  0  0  0  0  0  0  0  0  0  0
   34.6380   30.0360   33.5450 C   0  0  0  0  0  0  0  0  0  0  0  0
   34.5230   30.5890   32.2360 C   0  0  0  0  0  0  0  0  0  0  0  0
   35.8080   29.6150   31.3160 S   0  0  0  0  0  0  0  0  0  0  0  0
   35.5960   28.6650   34.7860 H   0  0  0  0  0  0  0  0  0  0  0  0
   33.9360   30.5170   34.2060 H   0  0  0  0  0  0  0  0  0  0  0  0
   33.7680   31.5490   31.6190 N   0  0  0  0  0  0  0  0  0  0  0  0
   32.5930   31.3110   31.0620 C   0  0  0  0  0  3  0  0  0  0  0  0
   31.9020   32.3580   30.4570 C   0  0  0  0  0  3  0  0  0  0  0  0
   32.4530   33.6240   30.4480 C   0  0  0  0  0  0  0  0  0  0  0  0
   31.8400   34.7770   29.8600 N   0  0  0  0  0  0  0  0  0  0  0  0
   33.6660   33.8410   31.0300 N   0  0  0  0  0  0  0  0  0  0  0  0
   34.3190   32.7970   31.6140 C   0  0  0  0  0  0  0  0  0  0  0  0
   35.4320   33.0790   32.1270 O   0  0  0  0  0  0  0  0  0  0  0  0
   32.4390   35.4880   29.3790 H   0  0  0  0  0  0  0  0  0  0  0  0
   30.8070   34.7410   30.0060 H   0  0  0  0  0  0  0  0  0  0  0  0
  1  8  1  0  0  0  0
  2  1  1  0  0  0  0
  3  2  2  0  0  0  0
  3  4  1  0  0  0  0
  4  5  1  0  0  0  0
  5  1  2  0  0  0  0
  6  2  1  0  0  0  0
  7  3  1  0  0  0  0
  8  9  1  0  0  0  0
  9 14  1  0  0  0  0
  9 10  2  0  0  0  0
 10 16  1  0  0  0  0
 11 10  1  0  0  0  0
 12 11  2  0  0  0  0
 13  8  2  0  0  0  0
 13 12  1  0  0  0  0
 15 12  1  0  0  0  0
 16 18  1  0  0  0  0
 16 19  1  0  0  0  0
 16 17  1  0  0  0  0
 20  4  1  0  0  0  0
 20 21  2  0  0  0  0
 21 25  1  0  0  0  0
 22 21  1  0  0  0  0
 22 26  1  0  0  0  0
 23 22  2  0  0  0  0
 24 23  1  0  0  0  0
 24 20  1  0  0  0  0
 27 23  1  0  0  0  0
 28 27  1  0  0  0  0
 29 28  2  0  0  0  0
 30 29  1  0  0  0  0
 30 32  2  0  0  0  0
 31 36  1  0  0  0  0
 31 30  1  0  0  0  0
 32 33  1  0  0  0  0
 33 27  1  0  0  0  0
 33 34  2  0  0  0  0
 35 31  1  0  0  0  0
M  END
>  <minimizedAffinity>
-5.88391495

$$$$
