REMARK  Name = 
REMARK  3 active torsions:
REMARK  status: ('A' for Active; 'I' for Inactive)
REMARK    1  A    between atoms: C_3  and  C_17
REMARK    2  A    between atoms: C_7  and  C_10
REMARK    3  A    between atoms: C_14  and  O_15
REMARK                            x       y       z     vdW  Elec       q    Type
REMARK                         _______ _______ _______ _____ _____    ______ ____
ROOT
ATOM      1  F   UNL     1      34.325  30.462  47.602  0.00  0.00    +0.000 F 
ATOM      2  C   UNL     1      34.743  29.989  46.383  0.00  0.00    +0.000 A 
ATOM      3  C   UNL     1      33.880  29.365  45.496  0.00  0.00    +0.000 A 
ATOM      4  C   UNL     1      34.369  28.934  44.285  0.00  0.00    +0.000 A 
ATOM      5  C   UNL     1      35.714  29.121  43.949  0.00  0.00    +0.000 A 
ATOM      6  C   UNL     1      36.522  29.750  44.879  0.00  0.00    +0.000 A 
ATOM      7  C   UNL     1      36.087  30.186  46.074  0.00  0.00    +0.000 A 
ATOM      8  H   UNL     1      33.663  28.460  43.640  0.00  0.00    +0.000 HD
ATOM      9  H   UNL     1      36.056  28.767  42.986  0.00  0.00    +0.000 HD
ATOM     10  H   UNL     1      37.544  29.855  44.543  0.00  0.00    +0.000 HD
ENDROOT
BRANCH   3  12
ATOM     11  C   UNL     1      32.258  28.202  46.848  0.00  0.00    +0.000 A 
ATOM     12  C   UNL     1      32.525  29.234  45.960  0.00  0.00    +0.000 A 
ATOM     13  C   UNL     1      31.477  30.067  45.597  0.00  0.00    +0.000 A 
ATOM     14  N   UNL     1      30.236  29.862  46.109  0.00  0.00    +0.000 NA
ATOM     15  C   UNL     1      30.020  28.856  46.964  0.00  0.00    +0.000 A 
ATOM     16  N   UNL     1      30.998  28.042  47.330  0.00  0.00    +0.000 NA
ATOM     17  H   UNL     1      33.021  27.507  47.180  0.00  0.00    +0.000 HD
ATOM     18  H   UNL     1      31.703  30.871  44.899  0.00  0.00    +0.000 HD
ATOM     19  N   UNL     1      28.701  28.669  47.486  0.00  0.00    +0.000 N 
ATOM     20  C   UNL     1      28.653  28.175  48.737  0.00  0.00    +0.000 A 
ATOM     21  C   UNL     1      27.380  27.978  49.281  0.00  0.00    +0.000 A 
ATOM     22  C   UNL     1      26.305  28.318  48.459  0.00  0.00    +0.000 A 
ATOM     23  N   UNL     1      24.973  28.150  48.932  0.00  0.00    +0.000 N 
ATOM     24  N   UNL     1      26.442  28.807  47.218  0.00  0.00    +0.000 NA
ATOM     25  C   UNL     1      27.650  28.991  46.709  0.00  0.00    +0.000 A 
ATOM     26  O   UNL     1      27.877  29.443  45.556  0.00  0.00    +0.000 OA
ATOM     27  H   UNL     1      24.173  28.399  49.554  0.00  0.00    +0.000 HD
ATOM     28  H   UNL     1      24.482  27.375  48.416  0.00  0.00    +0.000 HD
ENDBRANCH   3  12
BRANCH   7  31
ATOM     29 BR   UNL     1      37.982  32.423  44.971  0.00  0.00    +0.000 Br
ATOM     30  C   UNL     1      37.882  31.843  46.783  0.00  0.00    +0.000 A 
ATOM     31  C   UNL     1      36.993  30.825  47.007  0.00  0.00    +0.000 A 
ATOM     32  C   UNL     1      36.899  30.314  48.312  0.00  0.00    +0.000 A 
ATOM     33  C   UNL     1      37.667  30.819  49.317  0.00  0.00    +0.000 A 
ATOM     34  C   UNL     1      38.542  31.847  49.027  0.00  0.00    +0.000 A 
ATOM     35  C   UNL     1      38.661  32.381  47.734  0.00  0.00    +0.000 A 
ATOM     36  H   UNL     1      36.229  29.511  48.585  0.00  0.00    +0.000 HD
ATOM     37  H   UNL     1      37.622  30.450  50.331  0.00  0.00    +0.000 HD
ATOM     38  H   UNL     1      39.172  32.280  49.793  0.00  0.00    +0.000 HD
BRANCH  35  39
ATOM     39  O   UNL     1      39.493  33.392  47.366  0.00  0.00    +0.000 OA
ATOM     40  H   UNL     1      39.191  34.352  47.503  0.00  0.00    +0.000 HD
ENDBRANCH  35  39
ENDBRANCH   7  31
TORSDOF 3
