
 OpenBabel03272506273D

 43 46  0  0  0  0  0  0  0  0999 V2000
   33.8940   28.7320   45.9060 C   0  0  0  0  0  0  0  0  0  0  0  0
   34.0850   28.2570   44.6180 C   0  0  0  0  0  0  0  0  0  0  0  0
   35.0730   28.7130   43.7470 C   0  0  0  0  0  0  0  0  0  0  0  0
   35.9390   29.7310   44.2030 C   0  0  0  0  0  0  0  0  0  0  0  0
   35.7320   30.1900   45.4870 C   0  0  0  0  0  0  0  0  0  0  0  0
   34.7630   29.7340   46.3300 C   0  0  0  0  0  0  0  0  0  0  0  0
   33.4250   27.4630   44.2330 H   0  0  0  0  0  0  0  0  0  0  0  0
   35.1210   28.2590   42.7600 H   0  0  0  0  0  0  0  0  0  0  0  0
   36.6510   30.0000   43.4560 H   0  0  0  0  0  0  0  0  0  0  0  0
   36.4630   30.9410   45.6290 H   0  0  0  0  0  0  0  0  0  0  0  0
   33.1470   27.0100   47.4270 C   0  0  0  0  0  0  0  0  0  0  0  0
   32.8230   28.1440   46.6580 C   0  0  0  0  0  0  0  0  0  0  0  0
   31.5030   28.6070   46.6820 C   0  0  0  0  0  0  0  0  0  0  0  0
   30.5950   27.9400   47.4450 N   0  0  0  0  0  0  0  0  0  0  0  0
   30.9280   26.8450   48.1830 C   0  0  0  0  0  0  0  0  0  0  0  0
   32.2080   26.3830   48.1700 N   0  0  0  0  0  0  0  0  0  0  0  0
   34.1560   26.6310   47.4290 H   0  0  0  0  0  0  0  0  0  0  0  0
   30.1820   26.3380   48.7790 H   0  0  0  0  0  0  0  0  0  0  0  0
   31.0210   29.7850   45.9210 C   0  0  0  0  0  0  0  0  0  0  0  0
   29.6670   30.0230   46.2350 F   0  0  0  0  0  0  0  0  0  0  0  0
   31.7090   30.9290   46.1010 F   0  0  0  0  0  0  0  0  0  0  0  0
   30.9920   29.4890   44.5570 F   0  0  0  0  0  0  0  0  0  0  0  0
   34.5220   30.3310   47.9610 S   0  0  0  0  0  0  0  0  0  0  0  0
   35.7410   28.0490   49.6820 Cl  0  0  0  0  0  0  0  0  0  0  0  0
   36.5340   29.6020   49.5680 C   0  0  0  0  0  0  0  0  0  0  0  0
   36.0300   30.6650   48.8280 C   0  0  0  0  0  0  0  0  0  0  0  0
   36.6900   31.8570   48.7890 C   0  0  0  0  0  0  0  0  0  0  0  0
   37.8660   32.0000   49.4880 C   0  0  0  0  0  0  0  0  0  0  0  0
   38.3810   30.9420   50.2340 C   0  0  0  0  0  0  0  0  0  0  0  0
   37.7230   29.7220   50.2880 C   0  0  0  0  0  0  0  0  0  0  0  0
   36.3700   32.7310   48.2870 H   0  0  0  0  0  0  0  0  0  0  0  0
   38.4590   32.9050   49.5150 H   0  0  0  0  0  0  0  0  0  0  0  0
   39.2990   31.0490   50.7820 H   0  0  0  0  0  0  0  0  0  0  0  0
   38.2510   28.6390   51.0550 N   0  0  0  0  0  0  0  0  0  0  0  0
   38.8150   27.5820   50.4360 C   0  0  0  0  0  3  0  0  0  0  0  0
   39.2870   26.6030   51.2880 C   0  0  0  0  0  3  0  0  0  0  0  0
   39.2050   26.6670   52.6670 C   0  0  0  0  0  0  0  0  0  0  0  0
   39.7030   25.6370   53.5130 N   0  0  0  0  0  0  0  0  0  0  0  0
   38.6200   27.7740   53.1780 N   0  0  0  0  0  0  0  0  0  0  0  0
   38.1370   28.7710   52.3900 C   0  0  0  0  0  0  0  0  0  0  0  0
   37.6160   29.7480   52.9630 O   0  0  0  0  0  0  0  0  0  0  0  0
   40.6290   26.0910   53.7170 H   0  0  0  0  0  0  0  0  0  0  0  0
   39.3620   24.7370   53.8590 H   0  0  0  0  0  0  0  0  0  0  0  0
  1  6  1  0  0  0  0
  1 12  1  0  0  0  0
  2  1  2  0  0  0  0
  3  4  2  0  0  0  0
  3  2  1  0  0  0  0
  4  5  1  0  0  0  0
  5 10  1  0  0  0  0
  5  6  2  0  0  0  0
  6 23  1  0  0  0  0
  7  2  1  0  0  0  0
  8  3  1  0  0  0  0
  9  4  1  0  0  0  0
 11 17  1  0  0  0  0
 11 16  1  0  0  0  0
 12 13  1  0  0  0  0
 12 11  2  0  0  0  0
 13 14  2  0  0  0  0
 14 15  1  0  0  0  0
 15 18  1  0  0  0  0
 16 15  2  0  0  0  0
 19 21  1  0  0  0  0
 19 20  1  0  0  0  0
 19 13  1  0  0  0  0
 22 19  1  0  0  0  0
 23 26  1  0  0  0  0
 25 24  1  0  0  0  0
 25 30  1  0  0  0  0
 26 25  2  0  0  0  0
 27 26  1  0  0  0  0
 27 28  2  0  0  0  0
 28 32  1  0  0  0  0
 28 29  1  0  0  0  0
 29 30  2  0  0  0  0
 29 33  1  0  0  0  0
 30 34  1  0  0  0  0
 31 27  1  0  0  0  0
 34 40  1  0  0  0  0
 35 34  1  0  0  0  0
 35 36  2  0  0  0  0
 36 37  1  0  0  0  0
 37 39  2  0  0  0  0
 37 38  1  0  0  0  0
 38 42  1  0  0  0  0
 38 43  1  0  0  0  0
 40 41  2  0  0  0  0
 40 39  1  0  0  0  0
M  END
>  <minimizedAffinity>
-0.850982368

>  <minimizedRMSD>
1.52398527

$$$$
