
 OpenBabel03272504333D

 41 44  0  0  0  0  0  0  0  0999 V2000
   35.1100   29.5330   47.6850 C   0  0  0  0  0  0  0  0  0  0  0  0
   35.3040   30.0420   46.4040 C   0  0  0  0  0  0  0  0  0  0  0  0
   34.2960   29.9730   45.4690 C   0  0  0  0  0  0  0  0  0  0  0  0
   33.1180   29.3920   45.8510 N   0  0  0  0  0  0  0  0  0  0  0  0
   32.9570   28.9070   47.1000 C   0  0  0  0  0  0  0  0  0  0  0  0
   33.9450   28.9710   48.0230 N   0  0  0  0  0  0  0  0  0  0  0  0
   36.2570   30.4900   46.1570 H   0  0  0  0  0  0  0  0  0  0  0  0
   34.4170   30.3620   44.4590 H   0  0  0  0  0  0  0  0  0  0  0  0
   31.6800   28.2940   47.4740 C   0  0  0  0  0  0  0  0  0  0  0  0
   31.5470   27.5890   48.6370 C   0  0  0  0  0  0  0  0  0  0  0  0
   30.3570   26.9940   49.0290 C   0  0  0  0  0  0  0  0  0  0  0  0
   29.3220   27.1570   48.1770 N   0  0  0  0  0  0  0  0  0  0  0  0
   29.4420   27.8440   47.0350 C   0  0  0  0  0  0  0  0  0  0  0  0
   30.6160   28.4160   46.6750 N   0  0  0  0  0  0  0  0  0  0  0  0
   32.3800   27.4630   49.3150 H   0  0  0  0  0  0  0  0  0  0  0  0
   30.2580   26.4390   49.9500 H   0  0  0  0  0  0  0  0  0  0  0  0
   28.4000   28.0610   46.0860 N   0  0  0  0  0  0  0  0  0  0  0  0
   28.7990   28.3260   44.8300 C   0  0  0  0  0  3  0  0  0  0  0  0
   27.7860   28.5340   43.9130 C   0  0  0  0  0  3  0  0  0  0  0  0
   26.4830   28.4530   44.3600 C   0  0  0  0  0  0  0  0  0  0  0  0
   25.3970   28.6560   43.4670 N   0  0  0  0  0  0  0  0  0  0  0  0
   26.1610   28.1780   45.6580 N   0  0  0  0  0  0  0  0  0  0  0  0
   27.1420   27.9750   46.5540 C   0  0  0  0  0  0  0  0  0  0  0  0
   26.9240   27.7170   47.7700 O   0  0  0  0  0  0  0  0  0  0  0  0
   24.7080   29.2200   42.9230 H   0  0  0  0  0  0  0  0  0  0  0  0
   25.2690   29.7090   43.4140 H   0  0  0  0  0  0  0  0  0  0  0  0
   36.1220   29.5760   48.6990 N   0  0  0  0  0  0  0  0  0  0  0  0
   36.0230   28.8200   49.9260 C   0  0  0  0  0  0  0  0  0  0  0  0
   36.3810   29.5810   51.1710 C   0  0  0  0  0  0  0  0  0  0  0  0
   37.3180   30.6230   51.0460 N   0  0  0  0  0  0  0  0  0  0  0  0
   37.2070   31.3580   49.7900 C   0  0  0  0  0  0  0  0  0  0  0  0
   37.3230   30.3210   48.6840 C   0  0  0  0  0  0  0  0  0  0  0  0
   35.0110   28.3770   50.0630 H   0  0  0  0  0  0  0  0  0  0  0  0
   36.7310   27.9450   49.8280 H   0  0  0  0  0  0  0  0  0  0  0  0
   36.7490   28.8290   51.9030 H   0  0  0  0  0  0  0  0  0  0  0  0
   35.4370   29.9730   51.6320 H   0  0  0  0  0  0  0  0  0  0  0  0
   37.1180   31.3450   51.8030 H   0  0  0  0  0  0  0  0  0  0  0  0
   36.2210   31.8610   49.8000 H   0  0  0  0  0  0  0  0  0  0  0  0
   38.0250   32.0980   49.7460 H   0  0  0  0  0  0  0  0  0  0  0  0
   37.4500   30.8650   47.7390 H   0  0  0  0  0  0  0  0  0  0  0  0
   38.2370   29.7270   48.9010 H   0  0  0  0  0  0  0  0  0  0  0  0
  1  6  1  0  0  0  0
  1 27  1  0  0  0  0
  2  1  2  0  0  0  0
  3  4  2  0  0  0  0
  3  2  1  0  0  0  0
  4  5  1  0  0  0  0
  5  9  1  0  0  0  0
  5  6  2  0  0  0  0
  7  2  1  0  0  0  0
  8  3  1  0  0  0  0
  9 10  1  0  0  0  0
 10 11  2  0  0  0  0
 10 15  1  0  0  0  0
 11 16  1  0  0  0  0
 12 11  1  0  0  0  0
 13 12  2  0  0  0  0
 14 13  1  0  0  0  0
 14  9  2  0  0  0  0
 17 23  1  0  0  0  0
 17 13  1  0  0  0  0
 18 17  1  0  0  0  0
 19 20  1  0  0  0  0
 19 18  2  0  0  0  0
 20 22  2  0  0  0  0
 21 20  1  0  0  0  0
 22 23  1  0  0  0  0
 23 24  2  0  0  0  0
 25 21  1  0  0  0  0
 26 21  1  0  0  0  0
 27 28  1  0  0  0  0
 28 33  1  0  0  0  0
 28 29  1  0  0  0  0
 29 36  1  0  0  0  0
 29 35  1  0  0  0  0
 30 29  1  0  0  0  0
 30 37  1  0  0  0  0
 31 38  1  0  0  0  0
 31 30  1  0  0  0  0
 32 27  1  0  0  0  0
 32 41  1  0  0  0  0
 32 31  1  0  0  0  0
 34 28  1  0  0  0  0
 39 31  1  0  0  0  0
 40 32  1  0  0  0  0
M  END
>  <minimizedAffinity>
-5.96653652

>  <minimizedRMSD>
0.60719651

$$$$
