
 OpenBabel03272504333D

 41 44  0  0  0  0  0  0  0  0999 V2000
   35.3210   29.5920   47.7170 C   0  0  0  0  0  0  0  0  0  0  0  0
   35.5490   30.0760   46.4310 C   0  0  0  0  0  0  0  0  0  0  0  0
   34.5570   30.0100   45.4780 C   0  0  0  0  0  0  0  0  0  0  0  0
   33.3610   29.4570   45.8480 N   0  0  0  0  0  0  0  0  0  0  0  0
   33.1680   28.9960   47.1020 C   0  0  0  0  0  0  0  0  0  0  0  0
   34.1390   29.0580   48.0420 N   0  0  0  0  0  0  0  0  0  0  0  0
   36.5140   30.5030   46.1950 H   0  0  0  0  0  0  0  0  0  0  0  0
   34.7040   30.3790   44.4650 H   0  0  0  0  0  0  0  0  0  0  0  0
   31.8730   28.4130   47.4610 C   0  0  0  0  0  0  0  0  0  0  0  0
   31.7350   27.6250   48.5690 C   0  0  0  0  0  0  0  0  0  0  0  0
   30.5280   27.0550   48.9470 C   0  0  0  0  0  0  0  0  0  0  0  0
   29.4820   27.3300   48.1380 N   0  0  0  0  0  0  0  0  0  0  0  0
   29.6060   28.0990   47.0500 C   0  0  0  0  0  0  0  0  0  0  0  0
   30.7970   28.6450   46.7040 N   0  0  0  0  0  0  0  0  0  0  0  0
   32.5770   27.4090   49.2130 H   0  0  0  0  0  0  0  0  0  0  0  0
   30.4250   26.4340   49.8240 H   0  0  0  0  0  0  0  0  0  0  0  0
   28.5540   28.4360   46.1500 N   0  0  0  0  0  0  0  0  0  0  0  0
   27.4940   27.6100   46.1520 C   0  0  0  0  0  3  0  0  0  0  0  0
   26.4760   27.9400   45.2780 C   0  0  0  0  0  3  0  0  0  0  0  0
   26.6360   29.0670   44.4960 C   0  0  0  0  0  0  0  0  0  0  0  0
   25.6260   29.4610   43.5790 N   0  0  0  0  0  0  0  0  0  0  0  0
   27.7490   29.8560   44.5540 N   0  0  0  0  0  0  0  0  0  0  0  0
   28.7410   29.5390   45.4020 C   0  0  0  0  0  0  0  0  0  0  0  0
   29.7990   30.2190   45.5120 O   0  0  0  0  0  0  0  0  0  0  0  0
   25.1090   29.4450   42.6720 H   0  0  0  0  0  0  0  0  0  0  0  0
   25.7980   28.8820   42.7050 H   0  0  0  0  0  0  0  0  0  0  0  0
   36.3150   29.6350   48.7490 N   0  0  0  0  0  0  0  0  0  0  0  0
   36.2000   28.8670   49.9680 C   0  0  0  0  0  0  0  0  0  0  0  0
   36.5300   29.6200   51.2240 C   0  0  0  0  0  0  0  0  0  0  0  0
   37.4620   30.6700   51.1250 N   0  0  0  0  0  0  0  0  0  0  0  0
   37.3670   31.4150   49.8740 C   0  0  0  0  0  0  0  0  0  0  0  0
   37.5100   30.3880   48.7620 C   0  0  0  0  0  0  0  0  0  0  0  0
   35.1890   28.4150   50.0820 H   0  0  0  0  0  0  0  0  0  0  0  0
   36.9160   27.9980   49.8740 H   0  0  0  0  0  0  0  0  0  0  0  0
   36.8910   28.8640   51.9560 H   0  0  0  0  0  0  0  0  0  0  0  0
   35.5750   30.0010   51.6730 H   0  0  0  0  0  0  0  0  0  0  0  0
   37.2430   31.3840   51.8850 H   0  0  0  0  0  0  0  0  0  0  0  0
   36.3770   31.9100   49.8710 H   0  0  0  0  0  0  0  0  0  0  0  0
   38.1800   32.1610   49.8510 H   0  0  0  0  0  0  0  0  0  0  0  0
   37.6490   30.9410   47.8230 H   0  0  0  0  0  0  0  0  0  0  0  0
   38.4240   29.7990   48.9890 H   0  0  0  0  0  0  0  0  0  0  0  0
  1  6  1  0  0  0  0
  1 27  1  0  0  0  0
  2  1  2  0  0  0  0
  3  4  2  0  0  0  0
  3  2  1  0  0  0  0
  4  5  1  0  0  0  0
  5  9  1  0  0  0  0
  5  6  2  0  0  0  0
  7  2  1  0  0  0  0
  8  3  1  0  0  0  0
  9 10  1  0  0  0  0
 10 11  2  0  0  0  0
 10 15  1  0  0  0  0
 11 16  1  0  0  0  0
 12 11  1  0  0  0  0
 13 12  2  0  0  0  0
 14 13  1  0  0  0  0
 14  9  2  0  0  0  0
 17 18  1  0  0  0  0
 17 13  1  0  0  0  0
 19 18  2  0  0  0  0
 20 22  2  0  0  0  0
 20 19  1  0  0  0  0
 21 20  1  0  0  0  0
 22 23  1  0  0  0  0
 23 24  2  0  0  0  0
 23 17  1  0  0  0  0
 25 21  1  0  0  0  0
 26 21  1  0  0  0  0
 27 32  1  0  0  0  0
 27 28  1  0  0  0  0
 28 33  1  0  0  0  0
 28 29  1  0  0  0  0
 29 36  1  0  0  0  0
 29 35  1  0  0  0  0
 30 29  1  0  0  0  0
 30 37  1  0  0  0  0
 31 30  1  0  0  0  0
 32 41  1  0  0  0  0
 32 31  1  0  0  0  0
 34 28  1  0  0  0  0
 38 31  1  0  0  0  0
 39 31  1  0  0  0  0
 40 32  1  0  0  0  0
M  END
>  <minimizedAffinity>
-5.79148769

>  <minimizedRMSD>
0.474366277

$$$$
