
 OpenBabel03272504333D

 41 44  0  0  0  0  0  0  0  0999 V2000
   35.1730   29.5500   47.6740 C   0  0  0  0  0  0  0  0  0  0  0  0
   35.3860   30.0310   46.3850 C   0  0  0  0  0  0  0  0  0  0  0  0
   34.3850   29.9590   45.4420 C   0  0  0  0  0  0  0  0  0  0  0  0
   33.1960   29.4020   45.8260 N   0  0  0  0  0  0  0  0  0  0  0  0
   33.0170   28.9440   47.0830 C   0  0  0  0  0  0  0  0  0  0  0  0
   33.9970   29.0120   48.0130 N   0  0  0  0  0  0  0  0  0  0  0  0
   36.3470   30.4610   46.1380 H   0  0  0  0  0  0  0  0  0  0  0  0
   34.5210   30.3250   44.4260 H   0  0  0  0  0  0  0  0  0  0  0  0
   31.7280   28.3560   47.4560 C   0  0  0  0  0  0  0  0  0  0  0  0
   31.5870   27.6330   48.6060 C   0  0  0  0  0  0  0  0  0  0  0  0
   30.3860   27.0610   48.9990 C   0  0  0  0  0  0  0  0  0  0  0  0
   29.3480   27.2670   48.1600 N   0  0  0  0  0  0  0  0  0  0  0  0
   29.4750   27.9730   47.0300 C   0  0  0  0  0  0  0  0  0  0  0  0
   30.6600   28.5210   46.6700 N   0  0  0  0  0  0  0  0  0  0  0  0
   32.4230   27.4720   49.2750 H   0  0  0  0  0  0  0  0  0  0  0  0
   30.2810   26.4910   49.9100 H   0  0  0  0  0  0  0  0  0  0  0  0
   28.4310   28.2350   46.0960 N   0  0  0  0  0  0  0  0  0  0  0  0
   28.8090   28.8130   44.9420 C   0  0  0  0  0  3  0  0  0  0  0  0
   27.7940   29.0630   44.0390 C   0  0  0  0  0  3  0  0  0  0  0  0
   26.5090   28.7060   44.3950 C   0  0  0  0  0  0  0  0  0  0  0  0
   25.4220   28.9360   43.5100 N   0  0  0  0  0  0  0  0  0  0  0  0
   26.2070   28.1210   45.5910 N   0  0  0  0  0  0  0  0  0  0  0  0
   27.1900   27.8740   46.4730 C   0  0  0  0  0  0  0  0  0  0  0  0
   26.9920   27.3370   47.5980 O   0  0  0  0  0  0  0  0  0  0  0  0
   24.6660   29.4990   43.0610 H   0  0  0  0  0  0  0  0  0  0  0  0
   25.1380   29.9470   43.6700 H   0  0  0  0  0  0  0  0  0  0  0  0
   36.1770   29.6000   48.6960 N   0  0  0  0  0  0  0  0  0  0  0  0
   36.0750   28.8370   49.9200 C   0  0  0  0  0  0  0  0  0  0  0  0
   36.4170   29.5970   51.1700 C   0  0  0  0  0  0  0  0  0  0  0  0
   37.3460   30.6490   51.0560 N   0  0  0  0  0  0  0  0  0  0  0  0
   37.2370   31.3870   49.8020 C   0  0  0  0  0  0  0  0  0  0  0  0
   37.3710   30.3550   48.6940 C   0  0  0  0  0  0  0  0  0  0  0  0
   35.0670   28.3850   50.0470 H   0  0  0  0  0  0  0  0  0  0  0  0
   36.7920   27.9700   49.8240 H   0  0  0  0  0  0  0  0  0  0  0  0
   36.7860   28.8460   51.9020 H   0  0  0  0  0  0  0  0  0  0  0  0
   35.4660   29.9790   51.6260 H   0  0  0  0  0  0  0  0  0  0  0  0
   37.1330   31.3660   51.8150 H   0  0  0  0  0  0  0  0  0  0  0  0
   36.2460   31.8810   49.8070 H   0  0  0  0  0  0  0  0  0  0  0  0
   38.0480   32.1350   49.7670 H   0  0  0  0  0  0  0  0  0  0  0  0
   37.5000   30.9040   47.7510 H   0  0  0  0  0  0  0  0  0  0  0  0
   38.2890   29.7690   48.9150 H   0  0  0  0  0  0  0  0  0  0  0  0
  1  6  1  0  0  0  0
  1 27  1  0  0  0  0
  2  1  2  0  0  0  0
  3  4  2  0  0  0  0
  3  2  1  0  0  0  0
  4  5  1  0  0  0  0
  5  9  1  0  0  0  0
  5  6  2  0  0  0  0
  7  2  1  0  0  0  0
  8  3  1  0  0  0  0
  9 10  1  0  0  0  0
 10 11  2  0  0  0  0
 10 15  1  0  0  0  0
 11 16  1  0  0  0  0
 12 11  1  0  0  0  0
 13 12  2  0  0  0  0
 14 13  1  0  0  0  0
 14  9  2  0  0  0  0
 17 23  1  0  0  0  0
 17 13  1  0  0  0  0
 18 17  1  0  0  0  0
 19 20  1  0  0  0  0
 19 18  2  0  0  0  0
 20 22  2  0  0  0  0
 21 26  1  0  0  0  0
 21 20  1  0  0  0  0
 22 23  1  0  0  0  0
 23 24  2  0  0  0  0
 25 21  1  0  0  0  0
 27 28  1  0  0  0  0
 28 33  1  0  0  0  0
 28 29  1  0  0  0  0
 29 36  1  0  0  0  0
 29 35  1  0  0  0  0
 30 29  1  0  0  0  0
 30 37  1  0  0  0  0
 31 38  1  0  0  0  0
 31 30  1  0  0  0  0
 32 27  1  0  0  0  0
 32 41  1  0  0  0  0
 32 31  1  0  0  0  0
 34 28  1  0  0  0  0
 39 31  1  0  0  0  0
 40 32  1  0  0  0  0
M  END
>  <minimizedAffinity>
-5.98113775

>  <minimizedRMSD>
0.518754721

$$$$
