
 OpenBabel03272504333D

 41 44  0  0  0  0  0  0  0  0999 V2000
   35.0030   29.5260   47.6270 C   0  0  0  0  0  0  0  0  0  0  0  0
   35.1720   30.0610   46.3530 C   0  0  0  0  0  0  0  0  0  0  0  0
   34.1550   29.9870   45.4280 C   0  0  0  0  0  0  0  0  0  0  0  0
   32.9940   29.3750   45.8140 N   0  0  0  0  0  0  0  0  0  0  0  0
   32.8580   28.8650   47.0560 C   0  0  0  0  0  0  0  0  0  0  0  0
   33.8540   28.9350   47.9680 N   0  0  0  0  0  0  0  0  0  0  0  0
   36.1120   30.5340   46.1030 H   0  0  0  0  0  0  0  0  0  0  0  0
   34.2560   30.3950   44.4240 H   0  0  0  0  0  0  0  0  0  0  0  0
   31.5980   28.2190   47.4330 C   0  0  0  0  0  0  0  0  0  0  0  0
   31.4950   27.4860   48.5810 C   0  0  0  0  0  0  0  0  0  0  0  0
   30.3230   26.8590   48.9770 C   0  0  0  0  0  0  0  0  0  0  0  0
   29.2730   27.0200   48.1420 N   0  0  0  0  0  0  0  0  0  0  0  0
   29.3630   27.7350   47.0150 C   0  0  0  0  0  0  0  0  0  0  0  0
   30.5210   28.3370   46.6520 N   0  0  0  0  0  0  0  0  0  0  0  0
   32.3400   27.3610   49.2450 H   0  0  0  0  0  0  0  0  0  0  0  0
   30.2470   26.2820   49.8860 H   0  0  0  0  0  0  0  0  0  0  0  0
   28.3040   27.9520   46.0850 N   0  0  0  0  0  0  0  0  0  0  0  0
   27.8740   26.8630   45.4230 C   0  0  0  0  0  3  0  0  0  0  0  0
   26.8480   27.0790   44.5230 C   0  0  0  0  0  3  0  0  0  0  0  0
   26.3650   28.3650   44.3880 C   0  0  0  0  0  0  0  0  0  0  0  0
   25.3100   28.6510   43.4810 N   0  0  0  0  0  0  0  0  0  0  0  0
   26.8580   29.4190   45.1020 N   0  0  0  0  0  0  0  0  0  0  0  0
   27.8570   29.2160   45.9770 C   0  0  0  0  0  0  0  0  0  0  0  0
   28.3660   30.1400   46.6720 O   0  0  0  0  0  0  0  0  0  0  0  0
   24.8910   28.8700   42.5510 H   0  0  0  0  0  0  0  0  0  0  0  0
   25.7770   28.7720   42.5350 H   0  0  0  0  0  0  0  0  0  0  0  0
   36.0260   29.5740   48.6300 N   0  0  0  0  0  0  0  0  0  0  0  0
   35.9420   28.8190   49.8600 C   0  0  0  0  0  0  0  0  0  0  0  0
   36.3110   29.5840   51.0990 C   0  0  0  0  0  0  0  0  0  0  0  0
   37.2450   30.6280   50.9620 N   0  0  0  0  0  0  0  0  0  0  0  0
   37.1180   31.3610   49.7060 C   0  0  0  0  0  0  0  0  0  0  0  0
   37.2240   30.3220   48.6010 C   0  0  0  0  0  0  0  0  0  0  0  0
   34.9330   28.3740   50.0070 H   0  0  0  0  0  0  0  0  0  0  0  0
   36.6510   27.9460   49.7550 H   0  0  0  0  0  0  0  0  0  0  0  0
   36.6890   28.8340   51.8280 H   0  0  0  0  0  0  0  0  0  0  0  0
   35.3710   29.9740   51.5700 H   0  0  0  0  0  0  0  0  0  0  0  0
   37.0510   31.3510   51.7210 H   0  0  0  0  0  0  0  0  0  0  0  0
   36.1310   31.8610   49.7260 H   0  0  0  0  0  0  0  0  0  0  0  0
   37.9340   32.1030   49.6530 H   0  0  0  0  0  0  0  0  0  0  0  0
   37.3400   30.8640   47.6540 H   0  0  0  0  0  0  0  0  0  0  0  0
   38.1420   29.7310   48.8090 H   0  0  0  0  0  0  0  0  0  0  0  0
  1  6  1  0  0  0  0
  1 27  1  0  0  0  0
  2  1  2  0  0  0  0
  3  4  2  0  0  0  0
  3  2  1  0  0  0  0
  4  5  1  0  0  0  0
  5  9  1  0  0  0  0
  5  6  2  0  0  0  0
  7  2  1  0  0  0  0
  8  3  1  0  0  0  0
  9 10  1  0  0  0  0
 10 11  2  0  0  0  0
 10 15  1  0  0  0  0
 11 16  1  0  0  0  0
 12 11  1  0  0  0  0
 13 12  2  0  0  0  0
 14 13  1  0  0  0  0
 14  9  2  0  0  0  0
 17 13  1  0  0  0  0
 18 17  1  0  0  0  0
 19 18  2  0  0  0  0
 20 19  1  0  0  0  0
 20 22  2  0  0  0  0
 21 20  1  0  0  0  0
 22 23  1  0  0  0  0
 23 17  1  0  0  0  0
 23 24  2  0  0  0  0
 25 21  1  0  0  0  0
 26 21  1  0  0  0  0
 27 28  1  0  0  0  0
 28 33  1  0  0  0  0
 28 29  1  0  0  0  0
 29 36  1  0  0  0  0
 29 35  1  0  0  0  0
 30 29  1  0  0  0  0
 30 37  1  0  0  0  0
 31 38  1  0  0  0  0
 31 30  1  0  0  0  0
 32 27  1  0  0  0  0
 32 41  1  0  0  0  0
 32 31  1  0  0  0  0
 34 28  1  0  0  0  0
 39 31  1  0  0  0  0
 40 32  1  0  0  0  0
M  END
>  <minimizedAffinity>
-5.69886303

>  <minimizedRMSD>
0.64888376

$$$$
