
 OpenBabel03272502063D

 40 43  0  0  0  0  0  0  0  0999 V2000
   34.1900   30.4300   47.6940 F   0  0  0  0  0  0  0  0  0  0  0  0
   34.5980   29.9530   46.4730 C   0  0  0  0  0  0  0  0  0  0  0  0
   33.7250   29.3420   45.5880 C   0  0  0  0  0  0  0  0  0  0  0  0
   34.2040   28.9060   44.3750 C   0  0  0  0  0  0  0  0  0  0  0  0
   35.5500   29.0770   44.0340 C   0  0  0  0  0  0  0  0  0  0  0  0
   36.3690   29.6940   44.9630 C   0  0  0  0  0  0  0  0  0  0  0  0
   35.9440   30.1340   46.1600 C   0  0  0  0  0  0  0  0  0  0  0  0
   33.4900   28.4420   43.7320 H   0  0  0  0  0  0  0  0  0  0  0  0
   35.8840   28.7200   43.0700 H   0  0  0  0  0  0  0  0  0  0  0  0
   37.3910   29.7870   44.6230 H   0  0  0  0  0  0  0  0  0  0  0  0
   32.0670   28.1320   46.8530 C   0  0  0  0  0  0  0  0  0  0  0  0
   32.3700   29.2270   46.0570 C   0  0  0  0  0  0  0  0  0  0  0  0
   31.3550   30.1320   45.7830 C   0  0  0  0  0  0  0  0  0  0  0  0
   30.1110   29.9350   46.2910 N   0  0  0  0  0  0  0  0  0  0  0  0
   29.8600   28.8670   47.0560 C   0  0  0  0  0  0  0  0  0  0  0  0
   30.8060   27.9830   47.3360 N   0  0  0  0  0  0  0  0  0  0  0  0
   32.8020   27.3790   47.1120 H   0  0  0  0  0  0  0  0  0  0  0  0
   31.6090   30.9850   45.1560 H   0  0  0  0  0  0  0  0  0  0  0  0
   28.5390   28.6900   47.5770 N   0  0  0  0  0  0  0  0  0  0  0  0
   27.5810   28.5350   46.6450 C   0  0  0  0  0  3  0  0  0  0  0  0
   26.2760   28.3580   47.1140 C   0  0  0  0  0  3  0  0  0  0  0  0
   26.1220   28.3640   48.5020 C   0  0  0  0  0  0  0  0  0  0  0  0
   24.8260   28.1910   49.0680 N   0  0  0  0  0  0  0  0  0  0  0  0
   27.1350   28.5260   49.3640 N   0  0  0  0  0  0  0  0  0  0  0  0
   28.3680   28.6920   48.9110 C   0  0  0  0  0  0  0  0  0  0  0  0
   29.3800   28.8510   49.6430 O   0  0  0  0  0  0  0  0  0  0  0  0
   23.9810   27.6210   49.2880 H   0  0  0  0  0  0  0  0  0  0  0  0
   24.4900   29.0790   49.5230 H   0  0  0  0  0  0  0  0  0  0  0  0
   37.8920   32.3190   45.0450 Br  0  0  0  0  0  0  0  0  0  0  0  0
   37.7730   31.7560   46.8610 C   0  0  0  0  0  0  0  0  0  0  0  0
   36.8610   30.7600   47.0900 C   0  0  0  0  0  0  0  0  0  0  0  0
   36.7510   30.2630   48.3990 C   0  0  0  0  0  0  0  0  0  0  0  0
   37.5270   30.7590   49.4030 C   0  0  0  0  0  0  0  0  0  0  0  0
   38.4260   31.7640   49.1070 C   0  0  0  0  0  0  0  0  0  0  0  0
   38.5610   32.2850   47.8100 C   0  0  0  0  0  0  0  0  0  0  0  0
   36.0620   29.4770   48.6770 H   0  0  0  0  0  0  0  0  0  0  0  0
   37.4700   30.3990   50.4200 H   0  0  0  0  0  0  0  0  0  0  0  0
   39.0630   32.1890   49.8720 H   0  0  0  0  0  0  0  0  0  0  0  0
   39.4170   33.2740   47.4370 O   0  0  0  0  0  0  0  0  0  0  0  0
   39.1360   34.2410   47.5650 H   0  0  0  0  0  0  0  0  0  0  0  0
  2  1  1  0  0  0  0
  3 12  1  0  0  0  0
  3  2  2  0  0  0  0
  4  3  1  0  0  0  0
  5  4  2  0  0  0  0
  5  6  1  0  0  0  0
  6  7  2  0  0  0  0
  7  2  1  0  0  0  0
  7 31  1  0  0  0  0
  8  4  1  0  0  0  0
  9  5  1  0  0  0  0
 10  6  1  0  0  0  0
 11 17  1  0  0  0  0
 11 16  1  0  0  0  0
 12 11  2  0  0  0  0
 13 12  1  0  0  0  0
 13 14  2  0  0  0  0
 14 15  1  0  0  0  0
 15 16  2  0  0  0  0
 15 19  1  0  0  0  0
 18 13  1  0  0  0  0
 19 25  1  0  0  0  0
 20 21  2  0  0  0  0
 20 19  1  0  0  0  0
 21 22  1  0  0  0  0
 22 23  1  0  0  0  0
 22 24  2  0  0  0  0
 23 27  1  0  0  0  0
 23 28  1  0  0  0  0
 25 24  1  0  0  0  0
 25 26  2  0  0  0  0
 29 30  1  0  0  0  0
 30 31  2  0  0  0  0
 30 35  1  0  0  0  0
 31 32  1  0  0  0  0
 32 36  1  0  0  0  0
 32 33  2  0  0  0  0
 33 37  1  0  0  0  0
 34 33  1  0  0  0  0
 34 38  1  0  0  0  0
 35 34  2  0  0  0  0
 39 40  1  0  0  0  0
 39 35  1  0  0  0  0
M  END
>  <minimizedAffinity>
-7.95292854

>  <minimizedRMSD>
0.192876905

$$$$
