
 OpenBabel03272508053D

 36 39  0  0  0  0  0  0  0  0999 V2000
   38.8940   30.8830   45.7860 C   0  0  0  0  0  0  0  0  0  0  0  0
   40.0890   31.5200   46.0490 C   0  0  0  0  0  0  0  0  0  0  0  0
   40.9290   31.4710   44.9530 C   0  0  0  0  0  0  0  0  0  0  0  0
   40.1970   30.7900   44.0430 N   0  0  0  0  0  0  0  0  0  0  0  0
   39.0130   30.4460   44.5240 N   0  0  0  0  0  0  0  0  0  0  0  0
   40.3580   32.0070   46.9880 H   0  0  0  0  0  0  0  0  0  0  0  0
   41.9280   31.8530   44.7840 H   0  0  0  0  0  0  0  0  0  0  0  0
   37.7770   30.7380   46.6960 C   0  0  0  0  0  0  0  0  0  0  0  0
   37.9860   30.9520   48.0740 C   0  0  0  0  0  0  0  0  0  0  0  0
   36.9020   30.8090   48.9330 C   0  0  0  0  0  0  0  0  0  0  0  0
   35.6960   30.4690   48.3890 N   0  0  0  0  0  0  0  0  0  0  0  0
   35.5150   30.2670   47.0620 C   0  0  0  0  0  0  0  0  0  0  0  0
   36.5690   30.4060   46.2280 N   0  0  0  0  0  0  0  0  0  0  0  0
   38.9870   31.2210   48.4160 H   0  0  0  0  0  0  0  0  0  0  0  0
   34.5360   29.9990   46.6770 H   0  0  0  0  0  0  0  0  0  0  0  0
   37.0970   31.0300   50.3880 C   0  0  0  0  0  0  0  0  0  0  0  0
   36.5890   32.2780   50.6500 F   0  0  0  0  0  0  0  0  0  0  0  0
   36.4210   30.1030   51.1670 F   0  0  0  0  0  0  0  0  0  0  0  0
   38.4510   31.0370   50.7290 F   0  0  0  0  0  0  0  0  0  0  0  0
   40.5700   30.4270   42.6680 C   0  0  0  0  0  0  0  0  0  0  0  0
   40.1550   31.1910   41.5660 C   0  0  0  0  0  0  0  0  0  0  0  0
   40.5180   30.8230   40.3310 C   0  0  0  0  0  0  0  0  0  0  0  0
   41.3230   29.6610   40.1510 C   0  0  0  0  0  0  0  0  0  0  0  0
   41.5430   29.0960   41.9060 S   0  0  0  0  0  0  0  0  0  0  0  0
   39.5410   32.0830   41.6700 H   0  0  0  0  0  0  0  0  0  0  0  0
   40.3050   31.2700   39.3730 H   0  0  0  0  0  0  0  0  0  0  0  0
   41.8800   28.9830   39.1010 N   0  0  0  0  0  0  0  0  0  0  0  0
   41.3900   27.8530   38.6150 C   0  0  0  0  0  3  0  0  0  0  0  0
   42.0330   27.2410   37.5420 C   0  0  0  0  0  3  0  0  0  0  0  0
   43.1650   27.8180   37.0040 C   0  0  0  0  0  0  0  0  0  0  0  0
   43.9100   27.2830   35.9030 N   0  0  0  0  0  0  0  0  0  0  0  0
   43.6470   28.9810   37.5230 N   0  0  0  0  0  0  0  0  0  0  0  0
   42.9990   29.5590   38.5740 C   0  0  0  0  0  0  0  0  0  0  0  0
   43.5070   30.6290   38.9960 O   0  0  0  0  0  0  0  0  0  0  0  0
   44.9530   27.3700   35.8990 H   0  0  0  0  0  0  0  0  0  0  0  0
   43.2580   26.8510   35.2130 H   0  0  0  0  0  0  0  0  0  0  0  0
  1  2  1  0  0  0  0
  1  8  1  0  0  0  0
  2  6  1  0  0  0  0
  3  2  2  0  0  0  0
  4  5  1  0  0  0  0
  4  3  1  0  0  0  0
  5  1  2  0  0  0  0
  7  3  1  0  0  0  0
  8  9  1  0  0  0  0
  9 14  1  0  0  0  0
  9 10  2  0  0  0  0
 10 16  1  0  0  0  0
 11 10  1  0  0  0  0
 12 11  2  0  0  0  0
 13  8  2  0  0  0  0
 13 12  1  0  0  0  0
 15 12  1  0  0  0  0
 16 17  1  0  0  0  0
 16 19  1  0  0  0  0
 16 18  1  0  0  0  0
 20  4  1  0  0  0  0
 21 25  1  0  0  0  0
 21 20  2  0  0  0  0
 22 21  1  0  0  0  0
 23 22  2  0  0  0  0
 23 24  1  0  0  0  0
 24 20  1  0  0  0  0
 26 22  1  0  0  0  0
 27 23  1  0  0  0  0
 28 27  1  0  0  0  0
 29 28  2  0  0  0  0
 30 32  2  0  0  0  0
 30 29  1  0  0  0  0
 31 30  1  0  0  0  0
 32 33  1  0  0  0  0
 33 34  2  0  0  0  0
 33 27  1  0  0  0  0
 35 31  1  0  0  0  0
 36 31  1  0  0  0  0
M  END
>  <minimizedAffinity>
-6.54454422

>  <minimizedRMSD>
0.242850065

$$$$
