
 OpenBabel03272504323D

 41 44  0  0  0  0  0  0  0  0999 V2000
   34.9580   29.5420   47.5570 C   0  0  0  0  0  0  0  0  0  0  0  0
   35.0920   29.9370   46.2280 C   0  0  0  0  0  0  0  0  0  0  0  0
   34.0520   29.7610   45.3430 C   0  0  0  0  0  0  0  0  0  0  0  0
   32.9050   29.1900   45.8230 N   0  0  0  0  0  0  0  0  0  0  0  0
   32.8030   28.8160   47.1160 C   0  0  0  0  0  0  0  0  0  0  0  0
   33.8220   28.9870   47.9890 N   0  0  0  0  0  0  0  0  0  0  0  0
   36.0220   30.3840   45.9040 H   0  0  0  0  0  0  0  0  0  0  0  0
   34.1250   30.0580   44.2990 H   0  0  0  0  0  0  0  0  0  0  0  0
   31.5580   28.2100   47.5930 C   0  0  0  0  0  0  0  0  0  0  0  0
   31.4780   27.6380   48.8310 C   0  0  0  0  0  0  0  0  0  0  0  0
   30.3190   27.0550   49.3220 C   0  0  0  0  0  0  0  0  0  0  0  0
   29.2580   27.0880   48.4870 N   0  0  0  0  0  0  0  0  0  0  0  0
   29.3250   27.6450   47.2720 C   0  0  0  0  0  0  0  0  0  0  0  0
   30.4700   28.2080   46.8160 N   0  0  0  0  0  0  0  0  0  0  0  0
   32.3320   27.6160   49.4950 H   0  0  0  0  0  0  0  0  0  0  0  0
   30.2620   26.6050   50.3020 H   0  0  0  0  0  0  0  0  0  0  0  0
   28.2530   27.7200   46.3360 N   0  0  0  0  0  0  0  0  0  0  0  0
   28.5140   27.2370   45.1080 C   0  0  0  0  0  3  0  0  0  0  0  0
   27.4720   27.3110   44.2050 C   0  0  0  0  0  3  0  0  0  0  0  0
   26.2810   27.8620   44.6330 C   0  0  0  0  0  0  0  0  0  0  0  0
   25.1720   27.9660   43.7520 N   0  0  0  0  0  0  0  0  0  0  0  0
   26.0970   28.3320   45.9010 N   0  0  0  0  0  0  0  0  0  0  0  0
   27.1070   28.2620   46.7850 C   0  0  0  0  0  0  0  0  0  0  0  0
   27.0150   28.6750   47.9750 O   0  0  0  0  0  0  0  0  0  0  0  0
   24.5930   28.4050   43.0020 H   0  0  0  0  0  0  0  0  0  0  0  0
   25.3360   28.8580   43.1960 H   0  0  0  0  0  0  0  0  0  0  0  0
   36.0060   29.7010   48.5220 N   0  0  0  0  0  0  0  0  0  0  0  0
   36.1240   28.8510   49.6850 C   0  0  0  0  0  0  0  0  0  0  0  0
   36.4120   29.5730   50.9700 C   0  0  0  0  0  0  0  0  0  0  0  0
   37.1320   30.7800   50.8890 N   0  0  0  0  0  0  0  0  0  0  0  0
   36.8100   31.5710   49.7060 C   0  0  0  0  0  0  0  0  0  0  0  0
   37.0460   30.6580   48.5130 C   0  0  0  0  0  0  0  0  0  0  0  0
   35.2220   28.2170   49.8310 H   0  0  0  0  0  0  0  0  0  0  0  0
   36.9740   28.1360   49.4800 H   0  0  0  0  0  0  0  0  0  0  0  0
   36.9580   28.8520   51.6180 H   0  0  0  0  0  0  0  0  0  0  0  0
   35.4430   29.7450   51.5070 H   0  0  0  0  0  0  0  0  0  0  0  0
   36.8500   31.3930   51.7130 H   0  0  0  0  0  0  0  0  0  0  0  0
   35.7500   31.8760   49.8050 H   0  0  0  0  0  0  0  0  0  0  0  0
   37.4730   32.4530   49.6860 H   0  0  0  0  0  0  0  0  0  0  0  0
   37.0120   31.2840   47.6120 H   0  0  0  0  0  0  0  0  0  0  0  0
   38.0650   30.2330   48.6360 H   0  0  0  0  0  0  0  0  0  0  0  0
  1  6  1  0  0  0  0
  1 27  1  0  0  0  0
  2  1  2  0  0  0  0
  3  4  2  0  0  0  0
  3  2  1  0  0  0  0
  4  5  1  0  0  0  0
  5  9  1  0  0  0  0
  5  6  2  0  0  0  0
  7  2  1  0  0  0  0
  8  3  1  0  0  0  0
  9 10  1  0  0  0  0
 10 11  2  0  0  0  0
 10 15  1  0  0  0  0
 11 16  1  0  0  0  0
 12 11  1  0  0  0  0
 13 12  2  0  0  0  0
 14 13  1  0  0  0  0
 14  9  2  0  0  0  0
 17 23  1  0  0  0  0
 17 13  1  0  0  0  0
 18 17  1  0  0  0  0
 19 20  1  0  0  0  0
 19 18  2  0  0  0  0
 20 22  2  0  0  0  0
 21 20  1  0  0  0  0
 22 23  1  0  0  0  0
 23 24  2  0  0  0  0
 25 21  1  0  0  0  0
 26 21  1  0  0  0  0
 27 28  1  0  0  0  0
 28 33  1  0  0  0  0
 28 29  1  0  0  0  0
 29 36  1  0  0  0  0
 29 35  1  0  0  0  0
 30 29  1  0  0  0  0
 30 37  1  0  0  0  0
 31 38  1  0  0  0  0
 31 30  1  0  0  0  0
 32 27  1  0  0  0  0
 32 41  1  0  0  0  0
 32 31  1  0  0  0  0
 34 28  1  0  0  0  0
 39 31  1  0  0  0  0
 40 32  1  0  0  0  0
M  END
>  <minimizedAffinity>
-5.96354055

>  <minimizedRMSD>
0.771678329

$$$$
