
 OpenBabel03272504323D

 41 44  0  0  0  0  0  0  0  0999 V2000
   35.3620   29.6120   47.7080 C   0  0  0  0  0  0  0  0  0  0  0  0
   35.5880   30.0770   46.4150 C   0  0  0  0  0  0  0  0  0  0  0  0
   34.5920   30.0010   45.4660 C   0  0  0  0  0  0  0  0  0  0  0  0
   33.3960   29.4570   45.8480 N   0  0  0  0  0  0  0  0  0  0  0  0
   33.2060   29.0150   47.1090 C   0  0  0  0  0  0  0  0  0  0  0  0
   34.1800   29.0870   48.0450 N   0  0  0  0  0  0  0  0  0  0  0  0
   36.5530   30.4970   46.1700 H   0  0  0  0  0  0  0  0  0  0  0  0
   34.7370   30.3550   44.4470 H   0  0  0  0  0  0  0  0  0  0  0  0
   31.9100   28.4410   47.4810 C   0  0  0  0  0  0  0  0  0  0  0  0
   31.7700   27.6800   48.6060 C   0  0  0  0  0  0  0  0  0  0  0  0
   30.5620   27.1190   48.9960 C   0  0  0  0  0  0  0  0  0  0  0  0
   29.5170   27.3770   48.1800 N   0  0  0  0  0  0  0  0  0  0  0  0
   29.6430   28.1210   47.0750 C   0  0  0  0  0  0  0  0  0  0  0  0
   30.8340   28.6570   46.7170 N   0  0  0  0  0  0  0  0  0  0  0  0
   32.6110   27.4770   49.2550 H   0  0  0  0  0  0  0  0  0  0  0  0
   30.4580   26.5180   49.8870 H   0  0  0  0  0  0  0  0  0  0  0  0
   28.5910   28.4390   46.1670 N   0  0  0  0  0  0  0  0  0  0  0  0
   28.7890   29.5250   45.3990 C   0  0  0  0  0  3  0  0  0  0  0  0
   27.7670   29.8270   44.5190 C   0  0  0  0  0  3  0  0  0  0  0  0
   26.6580   29.0050   44.5070 C   0  0  0  0  0  0  0  0  0  0  0  0
   25.5760   29.2620   43.6250 N   0  0  0  0  0  0  0  0  0  0  0  0
   26.5350   27.9170   45.3230 N   0  0  0  0  0  0  0  0  0  0  0  0
   27.5260   27.6180   46.1810 C   0  0  0  0  0  0  0  0  0  0  0  0
   27.4850   26.6300   46.9660 O   0  0  0  0  0  0  0  0  0  0  0  0
   24.6900   29.7200   43.3190 H   0  0  0  0  0  0  0  0  0  0  0  0
   24.9780   29.9900   44.1180 H   0  0  0  0  0  0  0  0  0  0  0  0
   36.3590   29.6660   48.7360 N   0  0  0  0  0  0  0  0  0  0  0  0
   36.2710   28.8760   49.9440 C   0  0  0  0  0  0  0  0  0  0  0  0
   36.5870   29.6190   51.2100 C   0  0  0  0  0  0  0  0  0  0  0  0
   37.4900   30.6950   51.1230 N   0  0  0  0  0  0  0  0  0  0  0  0
   37.3690   31.4560   49.8840 C   0  0  0  0  0  0  0  0  0  0  0  0
   37.5340   30.4510   48.7560 C   0  0  0  0  0  0  0  0  0  0  0  0
   35.2740   28.3960   50.0560 H   0  0  0  0  0  0  0  0  0  0  0  0
   37.0100   28.0290   49.8340 H   0  0  0  0  0  0  0  0  0  0  0  0
   36.9720   28.8610   51.9290 H   0  0  0  0  0  0  0  0  0  0  0  0
   35.6250   29.9670   51.6690 H   0  0  0  0  0  0  0  0  0  0  0  0
   37.2550   31.3910   51.8950 H   0  0  0  0  0  0  0  0  0  0  0  0
   36.3650   31.9240   49.8930 H   0  0  0  0  0  0  0  0  0  0  0  0
   38.1610   32.2250   49.8690 H   0  0  0  0  0  0  0  0  0  0  0  0
   37.6540   31.0220   47.8250 H   0  0  0  0  0  0  0  0  0  0  0  0
   38.4650   29.8840   48.9700 H   0  0  0  0  0  0  0  0  0  0  0  0
  1  6  1  0  0  0  0
  1 27  1  0  0  0  0
  2  1  2  0  0  0  0
  3  4  2  0  0  0  0
  3  2  1  0  0  0  0
  4  5  1  0  0  0  0
  5  9  1  0  0  0  0
  5  6  2  0  0  0  0
  7  2  1  0  0  0  0
  8  3  1  0  0  0  0
  9 10  1  0  0  0  0
 10 11  2  0  0  0  0
 10 15  1  0  0  0  0
 11 16  1  0  0  0  0
 12 11  1  0  0  0  0
 13 12  2  0  0  0  0
 14 13  1  0  0  0  0
 14  9  2  0  0  0  0
 17 23  1  0  0  0  0
 17 13  1  0  0  0  0
 18 17  1  0  0  0  0
 19 18  2  0  0  0  0
 20 19  1  0  0  0  0
 20 22  2  0  0  0  0
 21 26  1  0  0  0  0
 21 20  1  0  0  0  0
 22 23  1  0  0  0  0
 23 24  2  0  0  0  0
 25 21  1  0  0  0  0
 27 32  1  0  0  0  0
 27 28  1  0  0  0  0
 28 33  1  0  0  0  0
 28 29  1  0  0  0  0
 29 36  1  0  0  0  0
 29 35  1  0  0  0  0
 30 29  1  0  0  0  0
 30 37  1  0  0  0  0
 31 38  1  0  0  0  0
 31 30  1  0  0  0  0
 32 41  1  0  0  0  0
 32 31  1  0  0  0  0
 34 28  1  0  0  0  0
 39 31  1  0  0  0  0
 40 32  1  0  0  0  0
M  END
>  <minimizedAffinity>
-5.70717478

>  <minimizedRMSD>
0.48590064

$$$$
