REMARK  Name = 
REMARK  4 active torsions:
REMARK  status: ('A' for Active; 'I' for Inactive)
REMARK    1  A    between atoms: C_1  and  C_6
REMARK    2  A    between atoms: N_4  and  C_16
REMARK    3  A    between atoms: C_8  and  C_12
REMARK    4  A    between atoms: C_19  and  N_27
REMARK                            x       y       z     vdW  Elec       q    Type
REMARK                         _______ _______ _______ _____ _____    ______ ____
ROOT
ATOM      1  C   UNL     1      38.906  30.881  45.763  0.00  0.00    +0.000 A 
ATOM      2  C   UNL     1      40.108  31.506  46.022  0.00  0.00    +0.000 A 
ATOM      3  C   UNL     1      40.943  31.452  44.922  0.00  0.00    +0.000 A 
ATOM      4  N   UNL     1      40.200  30.780  44.014  0.00  0.00    +0.000 N 
ATOM      5  N   UNL     1      39.015  30.446  44.499  0.00  0.00    +0.000 NA
ATOM      6  H   UNL     1      40.386  31.987  46.962  0.00  0.00    +0.000 HD
ATOM      7  H   UNL     1      41.944  31.825  44.750  0.00  0.00    +0.000 HD
ENDROOT
BRANCH   1   8
ATOM      8  C   UNL     1      37.792  30.743  46.678  0.00  0.00    +0.000 A 
ATOM      9  C   UNL     1      38.006  30.968  48.054  0.00  0.00    +0.000 A 
ATOM     10  C   UNL     1      36.925  30.832  48.917  0.00  0.00    +0.000 A 
ATOM     11  N   UNL     1      35.717  30.489  48.380  0.00  0.00    +0.000 NA
ATOM     12  C   UNL     1      35.531  30.277  47.055  0.00  0.00    +0.000 A 
ATOM     13  N   UNL     1      36.582  30.409  46.217  0.00  0.00    +0.000 NA
ATOM     14  H   UNL     1      39.008  31.239  48.390  0.00  0.00    +0.000 HD
ATOM     15  H   UNL     1      34.551  30.006  46.676  0.00  0.00    +0.000 HD
BRANCH  10  16
ATOM     16  C   UNL     1      37.125  31.064  50.370  0.00  0.00    +0.000 C 
ATOM     17  F   UNL     1      36.602  32.307  50.627  0.00  0.00    +0.000 F 
ATOM     18  F   UNL     1      36.465  30.133  51.158  0.00  0.00    +0.000 F 
ATOM     19  F   UNL     1      38.480  31.090  50.704  0.00  0.00    +0.000 F 
ENDBRANCH  10  16
ENDBRANCH   1   8
BRANCH   4  20
ATOM     20  C   UNL     1      40.563  30.418  42.636  0.00  0.00    +0.000 A 
ATOM     21  C   UNL     1      40.182  31.210  41.541  0.00  0.00    +0.000 A 
ATOM     22  C   UNL     1      40.535  30.841  40.303  0.00  0.00    +0.000 A 
ATOM     23  C   UNL     1      41.294  29.650  40.113  0.00  0.00    +0.000 A 
ATOM     24  S   UNL     1      41.486  29.058  41.862  0.00  0.00    +0.000 S 
ATOM     25  H   UNL     1      39.603  32.124  41.653  0.00  0.00    +0.000 HD
ATOM     26  H   UNL     1      40.343  31.306  39.350  0.00  0.00    +0.000 HD
BRANCH  23  27
ATOM     27  N   UNL     1      41.828  28.962  39.057  0.00  0.00    +0.000 N 
ATOM     28  C   UNL     1      42.848  28.127  39.167  0.00  0.00    +0.000 A 
ATOM     29  C   UNL     1      43.318  27.475  38.030  0.00  0.00    +0.000 A 
ATOM     30  C   UNL     1      42.714  27.709  36.810  0.00  0.00    +0.000 A 
ATOM     31  N   UNL     1      43.107  27.099  35.575  0.00  0.00    +0.000 N 
ATOM     32  N   UNL     1      41.665  28.574  36.726  0.00  0.00    +0.000 NA
ATOM     33  C   UNL     1      41.227  29.198  37.856  0.00  0.00    +0.000 A 
ATOM     34  O   UNL     1      40.255  29.980  37.694  0.00  0.00    +0.000 OA
ATOM     35  H   UNL     1      43.065  27.658  34.691  0.00  0.00    +0.000 HD
ATOM     36  H   UNL     1      43.400  26.112  35.746  0.00  0.00    +0.000 HD
ENDBRANCH  23  27
ENDBRANCH   4  20
TORSDOF 4
