
 OpenBabel03272504333D

 41 44  0  0  0  0  0  0  0  0999 V2000
   35.0600   29.5930   47.5690 C   0  0  0  0  0  0  0  0  0  0  0  0
   35.2120   30.0190   46.2530 C   0  0  0  0  0  0  0  0  0  0  0  0
   34.1860   29.8610   45.3480 C   0  0  0  0  0  0  0  0  0  0  0  0
   33.0330   29.2760   45.7980 N   0  0  0  0  0  0  0  0  0  0  0  0
   32.9130   28.8730   47.0800 C   0  0  0  0  0  0  0  0  0  0  0  0
   33.9190   29.0260   47.9720 N   0  0  0  0  0  0  0  0  0  0  0  0
   36.1460   30.4750   45.9530 H   0  0  0  0  0  0  0  0  0  0  0  0
   34.2740   30.1830   44.3120 H   0  0  0  0  0  0  0  0  0  0  0  0
   31.6630   28.2530   47.5240 C   0  0  0  0  0  0  0  0  0  0  0  0
   31.5760   27.6220   48.7330 C   0  0  0  0  0  0  0  0  0  0  0  0
   30.4120   27.0240   49.1930 C   0  0  0  0  0  0  0  0  0  0  0  0
   29.3530   27.1040   48.3580 N   0  0  0  0  0  0  0  0  0  0  0  0
   29.4270   27.7190   47.1720 C   0  0  0  0  0  0  0  0  0  0  0  0
   30.5770   28.2960   46.7460 N   0  0  0  0  0  0  0  0  0  0  0  0
   32.4280   27.5610   49.3970 H   0  0  0  0  0  0  0  0  0  0  0  0
   30.3490   26.5270   50.1500 H   0  0  0  0  0  0  0  0  0  0  0  0
   28.3580   27.8470   46.2380 N   0  0  0  0  0  0  0  0  0  0  0  0
   28.6950   27.7260   44.9420 C   0  0  0  0  0  3  0  0  0  0  0  0
   27.6560   27.8480   44.0400 C   0  0  0  0  0  3  0  0  0  0  0  0
   26.3900   28.0810   44.5390 C   0  0  0  0  0  0  0  0  0  0  0  0
   25.2800   28.2170   43.6650 N   0  0  0  0  0  0  0  0  0  0  0  0
   26.1300   28.1930   45.8750 N   0  0  0  0  0  0  0  0  0  0  0  0
   27.1380   28.0730   46.7570 C   0  0  0  0  0  0  0  0  0  0  0  0
   26.9780   28.1640   48.0060 O   0  0  0  0  0  0  0  0  0  0  0  0
   24.6370   28.7260   43.0190 H   0  0  0  0  0  0  0  0  0  0  0  0
   25.2950   29.2300   43.3470 H   0  0  0  0  0  0  0  0  0  0  0  0
   36.0930   29.7330   48.5540 N   0  0  0  0  0  0  0  0  0  0  0  0
   36.1780   28.8760   49.7150 C   0  0  0  0  0  0  0  0  0  0  0  0
   36.4530   29.5880   51.0080 C   0  0  0  0  0  0  0  0  0  0  0  0
   37.1930   30.7840   50.9450 N   0  0  0  0  0  0  0  0  0  0  0  0
   36.9030   31.5850   49.7600 C   0  0  0  0  0  0  0  0  0  0  0  0
   37.1460   30.6740   48.5680 C   0  0  0  0  0  0  0  0  0  0  0  0
   35.2630   28.2550   49.8420 H   0  0  0  0  0  0  0  0  0  0  0  0
   37.0200   28.1490   49.5220 H   0  0  0  0  0  0  0  0  0  0  0  0
   36.9760   28.8560   51.6630 H   0  0  0  0  0  0  0  0  0  0  0  0
   35.4770   29.7720   51.5290 H   0  0  0  0  0  0  0  0  0  0  0  0
   36.9050   31.3980   51.7670 H   0  0  0  0  0  0  0  0  0  0  0  0
   35.8470   31.9060   49.8420 H   0  0  0  0  0  0  0  0  0  0  0  0
   37.5800   32.4570   49.7550 H   0  0  0  0  0  0  0  0  0  0  0  0
   37.1380   31.3040   47.6680 H   0  0  0  0  0  0  0  0  0  0  0  0
   38.1570   30.2330   48.7060 H   0  0  0  0  0  0  0  0  0  0  0  0
  1  6  1  0  0  0  0
  1 27  1  0  0  0  0
  2  1  2  0  0  0  0
  3  4  2  0  0  0  0
  3  2  1  0  0  0  0
  4  5  1  0  0  0  0
  5  9  1  0  0  0  0
  5  6  2  0  0  0  0
  7  2  1  0  0  0  0
  8  3  1  0  0  0  0
  9 10  1  0  0  0  0
 10 11  2  0  0  0  0
 10 15  1  0  0  0  0
 11 16  1  0  0  0  0
 12 11  1  0  0  0  0
 13 12  2  0  0  0  0
 14 13  1  0  0  0  0
 14  9  2  0  0  0  0
 17 23  1  0  0  0  0
 17 13  1  0  0  0  0
 18 17  1  0  0  0  0
 19 20  1  0  0  0  0
 19 18  2  0  0  0  0
 20 22  2  0  0  0  0
 21 20  1  0  0  0  0
 22 23  1  0  0  0  0
 23 24  2  0  0  0  0
 25 21  1  0  0  0  0
 26 21  1  0  0  0  0
 27 32  1  0  0  0  0
 27 28  1  0  0  0  0
 28 33  1  0  0  0  0
 28 29  1  0  0  0  0
 29 36  1  0  0  0  0
 29 35  1  0  0  0  0
 30 29  1  0  0  0  0
 30 37  1  0  0  0  0
 31 38  1  0  0  0  0
 31 30  1  0  0  0  0
 32 41  1  0  0  0  0
 32 31  1  0  0  0  0
 34 28  1  0  0  0  0
 39 31  1  0  0  0  0
 40 32  1  0  0  0  0
M  END
>  <minimizedAffinity>
-5.94872808

>  <minimizedRMSD>
0.67724514

$$$$
