REMARK  Name = 
REMARK  2 active torsions:
REMARK  status: ('A' for Active; 'I' for Inactive)
REMARK    1  A    between atoms: C_5  and  C_7
REMARK    2  A    between atoms: C_12  and  C_20
REMARK                            x       y       z     vdW  Elec       q    Type
REMARK                         _______ _______ _______ _____ _____    ______ ____
ROOT
ATOM      1  C   UNL     1      36.090  30.141  48.598  0.00  0.00    +0.000 A 
ATOM      2  C   UNL     1      35.287  29.951  47.513  0.00  0.00    +0.000 A 
ATOM      3  C   UNL     1      34.307  28.975  47.507  0.00  0.00    +0.000 A 
ATOM      4  C   UNL     1      34.154  28.191  48.623  0.00  0.00    +0.000 A 
ATOM      5  C   UNL     1      34.959  28.359  49.753  0.00  0.00    +0.000 A 
ATOM      6  C   UNL     1      35.930  29.346  49.722  0.00  0.00    +0.000 A 
ATOM      7  H   UNL     1      35.402  30.569  46.621  0.00  0.00    +0.000 HD
ATOM      8  H   UNL     1      33.654  28.792  46.675  0.00  0.00    +0.000 HD
ATOM      9  H   UNL     1      33.424  27.396  48.741  0.00  0.00    +0.000 HD
ATOM     10  H   UNL     1      34.870  27.758  50.659  0.00  0.00    +0.000 HD
ENDROOT
BRANCH   1  15
ATOM     11  C   UNL     1      38.012  33.101  49.490  0.00  0.00    +0.000 A 
ATOM     12  C   UNL     1      38.977  33.205  48.468  0.00  0.00    +0.000 A 
ATOM     13  C   UNL     1      38.945  32.222  47.460  0.00  0.00    +0.000 A 
ATOM     14  N   UNL     1      38.007  31.245  47.522  0.00  0.00    +0.000 NA
ATOM     15  C   UNL     1      37.096  31.184  48.527  0.00  0.00    +0.000 A 
ATOM     16  N   UNL     1      37.121  32.117  49.491  0.00  0.00    +0.000 NA
ATOM     17  H   UNL     1      37.955  33.808  50.310  0.00  0.00    +0.000 HD
ATOM     18  H   UNL     1      39.685  34.018  48.502  0.00  0.00    +0.000 HD
ATOM     19  H   UNL     1      39.679  32.289  46.669  0.00  0.00    +0.000 HD
ENDBRANCH   1  15
BRANCH   6  20
ATOM     20  C   UNL     1      36.777  29.531  50.893  0.00  0.00    +0.000 C 
ATOM     21  H   UNL     1      37.691  30.102  50.863  0.00  0.00    +0.000 HD
ATOM     22  O   UNL     1      36.508  29.041  52.021  0.00  0.00    +0.000 OA
ENDBRANCH   6  20
TORSDOF 2
