
 OpenBabel03262522253D

 39 41  0  0  0  0  0  0  0  0999 V2000
   38.7000   32.8250   48.3480 C   0  0  0  0  0  0  0  0  0  0  0  0
   39.0160   32.1760   47.1580 C   0  0  0  0  0  0  0  0  0  0  0  0
   38.5260   30.9000   46.9920 C   0  0  0  0  0  0  0  0  0  0  0  0
   37.7720   30.3580   47.9900 N   0  0  0  0  0  0  0  0  0  0  0  0
   37.5020   31.0030   49.0890 C   0  0  0  0  0  0  0  0  0  0  0  0
   37.9610   32.2860   49.3230 N   0  0  0  0  0  0  0  0  0  0  0  0
   39.0510   33.8410   48.5580 H   0  0  0  0  0  0  0  0  0  0  0  0
   38.7320   30.3410   46.0790 H   0  0  0  0  0  0  0  0  0  0  0  0
   39.7740   32.8260   46.2460 O   0  0  0  0  0  0  0  0  0  0  0  0
   39.9360   32.2990   44.9750 C   0  0  0  0  0  0  0  0  0  0  0  0
   40.6520   31.1730   44.6200 C   0  0  0  0  0  0  0  0  0  0  0  0
   40.7010   30.8030   43.3240 C   0  0  0  0  0  0  0  0  0  0  0  0
   40.0360   31.5580   42.3930 C   0  0  0  0  0  0  0  0  0  0  0  0
   39.3200   32.6880   42.7620 C   0  0  0  0  0  0  0  0  0  0  0  0
   39.2830   33.0440   44.0750 N   0  0  0  0  0  0  0  0  0  0  0  0
   41.1470   30.6470   45.4260 H   0  0  0  0  0  0  0  0  0  0  0  0
   41.2550   29.9240   43.0250 H   0  0  0  0  0  0  0  0  0  0  0  0
   40.0590   31.2800   41.3360 H   0  0  0  0  0  0  0  0  0  0  0  0
   38.6000   33.5040   41.7090 C   0  0  0  0  0  0  0  0  0  0  0  0
   38.0500   34.2970   42.2290 H   0  0  0  0  0  0  0  0  0  0  0  0
   39.3840   33.9480   41.0800 H   0  0  0  0  0  0  0  0  0  0  0  0
   37.9780   32.8450   41.0730 H   0  0  0  0  0  0  0  0  0  0  0  0
   36.4880   30.0320   50.2280 S   0  0  0  0  0  0  0  0  0  0  0  0
   34.7720   30.4760   49.8070 C   0  0  0  0  0  0  0  0  0  0  0  0
   34.1260   30.1220   50.6370 H   0  0  0  0  0  0  0  0  0  0  0  0
   34.6600   31.5760   49.6830 H   0  0  0  0  0  0  0  0  0  0  0  0
   34.3850   27.7540   49.8400 F   0  0  0  0  0  0  0  0  0  0  0  0
   34.2820   28.4280   48.6510 C   0  0  0  0  0  0  0  0  0  0  0  0
   34.4560   29.7970   48.5140 C   0  0  0  0  0  0  0  0  0  0  0  0
   34.3430   30.4170   47.3070 C   0  0  0  0  0  0  0  0  0  0  0  0
   34.0410   29.6750   46.1530 C   0  0  0  0  0  0  0  0  0  0  0  0
   33.8630   28.3030   46.2710 C   0  0  0  0  0  0  0  0  0  0  0  0
   33.9850   27.7020   47.5090 C   0  0  0  0  0  0  0  0  0  0  0  0
   34.4960   31.4910   47.3070 H   0  0  0  0  0  0  0  0  0  0  0  0
   33.9590   30.2080   45.2140 H   0  0  0  0  0  0  0  0  0  0  0  0
   33.6310   27.7170   45.3960 H   0  0  0  0  0  0  0  0  0  0  0  0
   33.7930   26.2580   47.6050 C   0  0  0  0  0  0  0  0  0  0  0  0
   33.2880   25.8290   48.4700 H   0  0  0  0  0  0  0  0  0  0  0  0
   34.1990   25.4800   46.7020 O   0  0  0  0  0  0  0  0  0  0  0  0
  1  7  1  0  0  0  0
  1  6  1  0  0  0  0
  2  1  2  0  0  0  0
  3  2  1  0  0  0  0
  3  4  2  0  0  0  0
  4  5  1  0  0  0  0
  5  6  2  0  0  0  0
  5 23  1  0  0  0  0
  8  3  1  0  0  0  0
  9  2  1  0  0  0  0
 10  9  1  0  0  0  0
 11 10  1  0  0  0  0
 11 16  1  0  0  0  0
 12 11  2  0  0  0  0
 13 14  2  0  0  0  0
 13 12  1  0  0  0  0
 14 15  1  0  0  0  0
 15 10  2  0  0  0  0
 17 12  1  0  0  0  0
 18 13  1  0  0  0  0
 19 20  1  0  0  0  0
 19 14  1  0  0  0  0
 21 19  1  0  0  0  0
 22 19  1  0  0  0  0
 24 23  1  0  0  0  0
 24 25  1  0  0  0  0
 26 24  1  0  0  0  0
 28 27  1  0  0  0  0
 29 28  1  0  0  0  0
 29 24  1  0  0  0  0
 30 29  2  0  0  0  0
 31 32  2  0  0  0  0
 31 30  1  0  0  0  0
 32 33  1  0  0  0  0
 33 37  1  0  0  0  0
 33 28  2  0  0  0  0
 34 30  1  0  0  0  0
 35 31  1  0  0  0  0
 36 32  1  0  0  0  0
 37 38  1  0  0  0  0
 39 37  2  0  0  0  0
M  END
>  <minimizedAffinity>
-5.93782377

>  <minimizedRMSD>
1.83339179

$$$$
