
 OpenBabel03272505133D

 33 35  0  0  0  0  0  0  0  0999 V2000
   38.3250   22.3200   33.3290 Cl  0  0  0  0  0  0  0  0  0  0  0  0
   37.2850   23.5030   32.5930 C   0  0  0  0  0  0  0  0  0  0  0  0
   36.2570   23.0520   31.7920 C   0  0  0  0  0  0  0  0  0  0  0  0
   35.4290   23.9850   31.2070 C   0  0  0  0  0  0  0  0  0  0  0  0
   35.6370   25.3190   31.4240 C   0  0  0  0  0  0  0  0  0  0  0  0
   36.6910   25.7110   32.2420 C   0  0  0  0  0  0  0  0  0  0  0  0
   37.5530   24.8470   32.8570 C   0  0  0  0  0  0  0  0  0  0  0  0
   34.6290   23.6000   30.5820 H   0  0  0  0  0  0  0  0  0  0  0  0
   34.9940   26.0550   30.9680 H   0  0  0  0  0  0  0  0  0  0  0  0
   36.8290   26.7770   32.3940 H   0  0  0  0  0  0  0  0  0  0  0  0
   34.9730   19.6690   32.2480 C   0  0  0  0  0  0  0  0  0  0  0  0
   35.6540   18.8960   31.2900 C   0  0  0  0  0  0  0  0  0  0  0  0
   36.5740   19.5750   30.4770 C   0  0  0  0  0  0  0  0  0  0  0  0
   36.7550   20.9110   30.6530 N   0  0  0  0  0  0  0  0  0  0  0  0
   36.0720   21.5980   31.5880 C   0  0  0  0  0  0  0  0  0  0  0  0
   35.1960   20.9770   32.3690 N   0  0  0  0  0  0  0  0  0  0  0  0
   34.2820   19.0950   32.8410 H   0  0  0  0  0  0  0  0  0  0  0  0
   35.5760   17.8540   31.0850 H   0  0  0  0  0  0  0  0  0  0  0  0
   37.2000   19.1810   29.6860 H   0  0  0  0  0  0  0  0  0  0  0  0
   38.9000   25.3380   33.9010 S   0  0  0  0  0  0  0  0  0  0  0  0
   41.3120   23.5680   34.8540 Cl  0  0  0  0  0  0  0  0  0  0  0  0
   39.9000   23.8240   35.8640 C   0  0  0  0  0  0  0  0  0  0  0  0
   38.7910   24.5900   35.5230 C   0  0  0  0  0  0  0  0  0  0  0  0
   37.7440   24.7150   36.4020 C   0  0  0  0  0  0  0  0  0  0  0  0
   37.7780   24.0910   37.6200 C   0  0  0  0  0  0  0  0  0  0  0  0
   38.8530   23.3180   38.0140 C   0  0  0  0  0  0  0  0  0  0  0  0
   39.9000   23.2020   37.1140 C   0  0  0  0  0  0  0  0  0  0  0  0
   36.9270   25.3300   36.0460 H   0  0  0  0  0  0  0  0  0  0  0  0
   36.9390   24.2210   38.2660 H   0  0  0  0  0  0  0  0  0  0  0  0
   38.9050   22.8110   38.9760 H   0  0  0  0  0  0  0  0  0  0  0  0
   41.0410   22.3870   37.5210 C   0  0  0  0  0  0  0  0  0  0  0  0
   41.8230   22.8090   38.1630 H   0  0  0  0  0  0  0  0  0  0  0  0
   41.1870   21.2060   37.1730 O   0  0  0  0  0  0  0  0  0  0  0  0
  2  7  1  0  0  0  0
  2  1  1  0  0  0  0
  3  2  2  0  0  0  0
  4  5  2  0  0  0  0
  4  3  1  0  0  0  0
  5  6  1  0  0  0  0
  6 10  1  0  0  0  0
  6  7  2  0  0  0  0
  7 20  1  0  0  0  0
  8  4  1  0  0  0  0
  9  5  1  0  0  0  0
 11 16  1  0  0  0  0
 11 17  1  0  0  0  0
 12 11  2  0  0  0  0
 13 14  2  0  0  0  0
 13 12  1  0  0  0  0
 14 15  1  0  0  0  0
 15  3  1  0  0  0  0
 15 16  2  0  0  0  0
 18 12  1  0  0  0  0
 19 13  1  0  0  0  0
 20 23  1  0  0  0  0
 21 22  1  0  0  0  0
 22 27  1  0  0  0  0
 23 22  2  0  0  0  0
 23 24  1  0  0  0  0
 24 25  2  0  0  0  0
 25 26  1  0  0  0  0
 25 29  1  0  0  0  0
 26 30  1  0  0  0  0
 27 31  1  0  0  0  0
 27 26  2  0  0  0  0
 28 24  1  0  0  0  0
 31 32  1  0  0  0  0
 33 31  2  0  0  0  0
M  END
>  <minimizedAffinity>
-5.6469593

$$$$

 OpenBabel03272505133D

 33 35  0  0  0  0  0  0  0  0999 V2000
   37.2410   25.5730   31.9840 Cl  0  0  0  0  0  0  0  0  0  0  0  0
   37.7410   26.0560   33.5780 C   0  0  0  0  0  0  0  0  0  0  0  0
   37.4160   27.3270   34.0000 C   0  0  0  0  0  0  0  0  0  0  0  0
   37.8090   27.7160   35.2620 C   0  0  0  0  0  0  0  0  0  0  0  0
   38.5030   26.8500   36.0620 C   0  0  0  0  0  0  0  0  0  0  0  0
   38.8010   25.5810   35.5780 C   0  0  0  0  0  0  0  0  0  0  0  0
   38.4450   25.1230   34.3400 C   0  0  0  0  0  0  0  0  0  0  0  0
   37.5390   28.7220   35.5670 H   0  0  0  0  0  0  0  0  0  0  0  0
   38.8150   27.1470   37.0500 H   0  0  0  0  0  0  0  0  0  0  0  0
   39.3520   24.9170   36.2370 H   0  0  0  0  0  0  0  0  0  0  0  0
   34.7260   29.4500   32.7510 C   0  0  0  0  0  0  0  0  0  0  0  0
   35.1800   29.9030   31.4990 C   0  0  0  0  0  0  0  0  0  0  0  0
   36.4460   29.4550   31.0930 C   0  0  0  0  0  0  0  0  0  0  0  0
   37.1500   28.6280   31.9090 N   0  0  0  0  0  0  0  0  0  0  0  0
   36.6620   28.2280   33.0990 C   0  0  0  0  0  0  0  0  0  0  0  0
   35.4670   28.6390   33.5050 N   0  0  0  0  0  0  0  0  0  0  0  0
   33.7510   29.8260   33.0090 H   0  0  0  0  0  0  0  0  0  0  0  0
   34.6990   30.5460   30.8000 H   0  0  0  0  0  0  0  0  0  0  0  0
   36.9820   29.6760   30.1780 H   0  0  0  0  0  0  0  0  0  0  0  0
   38.8210   23.5060   33.7160 S   0  0  0  0  0  0  0  0  0  0  0  0
   37.1870   22.2170   31.3650 Cl  0  0  0  0  0  0  0  0  0  0  0  0
   36.8790   21.7980   33.0420 C   0  0  0  0  0  0  0  0  0  0  0  0
   37.5520   22.3180   34.1400 C   0  0  0  0  0  0  0  0  0  0  0  0
   37.2190   21.9100   35.4080 C   0  0  0  0  0  0  0  0  0  0  0  0
   36.2250   20.9900   35.6050 C   0  0  0  0  0  0  0  0  0  0  0  0
   35.5220   20.4390   34.5520 C   0  0  0  0  0  0  0  0  0  0  0  0
   35.8700   20.8620   33.2800 C   0  0  0  0  0  0  0  0  0  0  0  0
   37.7990   22.3720   36.1980 H   0  0  0  0  0  0  0  0  0  0  0  0
   36.0050   20.7070   36.6100 H   0  0  0  0  0  0  0  0  0  0  0  0
   34.7260   19.7060   34.6820 H   0  0  0  0  0  0  0  0  0  0  0  0
   35.1330   20.2850   32.1600 C   0  0  0  0  0  0  0  0  0  0  0  0
   34.8590   20.9050   31.2990 H   0  0  0  0  0  0  0  0  0  0  0  0
   34.7840   19.0960   32.1210 O   0  0  0  0  0  0  0  0  0  0  0  0
  1  2  1  0  0  0  0
  2  3  2  0  0  0  0
  2  7  1  0  0  0  0
  3  4  1  0  0  0  0
  4  8  1  0  0  0  0
  4  5  2  0  0  0  0
  5  9  1  0  0  0  0
  6  5  1  0  0  0  0
  6 10  1  0  0  0  0
  7  6  2  0  0  0  0
 11 17  1  0  0  0  0
 11 16  1  0  0  0  0
 12 11  2  0  0  0  0
 13 12  1  0  0  0  0
 13 14  2  0  0  0  0
 14 15  1  0  0  0  0
 15 16  2  0  0  0  0
 15  3  1  0  0  0  0
 18 12  1  0  0  0  0
 19 13  1  0  0  0  0
 20 23  1  0  0  0  0
 20  7  1  0  0  0  0
 21 22  1  0  0  0  0
 22 27  2  0  0  0  0
 22 23  1  0  0  0  0
 23 24  2  0  0  0  0
 24 25  1  0  0  0  0
 24 28  1  0  0  0  0
 25 29  1  0  0  0  0
 26 30  1  0  0  0  0
 26 25  2  0  0  0  0
 27 26  1  0  0  0  0
 31 27  1  0  0  0  0
 32 31  1  0  0  0  0
 33 31  2  0  0  0  0
M  END
>  <minimizedAffinity>
-5.54272366

$$$$

 OpenBabel03272505133D

 33 35  0  0  0  0  0  0  0  0999 V2000
   39.0110   21.5560   32.9250 Cl  0  0  0  0  0  0  0  0  0  0  0  0
   37.8290   22.7360   32.4410 C   0  0  0  0  0  0  0  0  0  0  0  0
   36.6790   22.2880   31.8300 C   0  0  0  0  0  0  0  0  0  0  0  0
   35.7380   23.2180   31.4440 C   0  0  0  0  0  0  0  0  0  0  0  0
   35.9580   24.5490   31.6700 C   0  0  0  0  0  0  0  0  0  0  0  0
   37.1390   24.9390   32.2910 C   0  0  0  0  0  0  0  0  0  0  0  0
   38.1170   24.0770   32.7020 C   0  0  0  0  0  0  0  0  0  0  0  0
   34.8430   22.8340   30.9660 H   0  0  0  0  0  0  0  0  0  0  0  0
   35.2270   25.2830   31.3700 H   0  0  0  0  0  0  0  0  0  0  0  0
   37.2840   26.0020   32.4560 H   0  0  0  0  0  0  0  0  0  0  0  0
   35.6920   18.8320   32.4550 C   0  0  0  0  0  0  0  0  0  0  0  0
   36.0810   18.1340   31.2960 C   0  0  0  0  0  0  0  0  0  0  0  0
   36.6960   18.8900   30.2870 C   0  0  0  0  0  0  0  0  0  0  0  0
   36.8800   20.2240   30.4760 N   0  0  0  0  0  0  0  0  0  0  0  0
   36.4860   20.8370   31.6080 C   0  0  0  0  0  0  0  0  0  0  0  0
   35.9010   20.1420   32.5780 N   0  0  0  0  0  0  0  0  0  0  0  0
   35.2270   18.2010   33.1920 H   0  0  0  0  0  0  0  0  0  0  0  0
   35.9770   17.1000   31.0660 H   0  0  0  0  0  0  0  0  0  0  0  0
   37.0700   18.5610   29.3260 H   0  0  0  0  0  0  0  0  0  0  0  0
   39.6260   24.5670   33.4940 S   0  0  0  0  0  0  0  0  0  0  0  0
   37.5450   25.2730   35.7360 Cl  0  0  0  0  0  0  0  0  0  0  0  0
   38.8620   24.1490   36.0210 C   0  0  0  0  0  0  0  0  0  0  0  0
   39.8250   23.7800   35.0890 C   0  0  0  0  0  0  0  0  0  0  0  0
   40.8100   22.8880   35.4330 C   0  0  0  0  0  0  0  0  0  0  0  0
   40.8560   22.3520   36.6910 C   0  0  0  0  0  0  0  0  0  0  0  0
   39.9270   22.6800   37.6590 C   0  0  0  0  0  0  0  0  0  0  0  0
   38.9400   23.5820   37.2950 C   0  0  0  0  0  0  0  0  0  0  0  0
   41.5130   22.6640   34.6400 H   0  0  0  0  0  0  0  0  0  0  0  0
   41.6420   21.6640   36.9070 H   0  0  0  0  0  0  0  0  0  0  0  0
   39.9420   22.2690   38.6670 H   0  0  0  0  0  0  0  0  0  0  0  0
   37.9530   23.9360   38.3100 C   0  0  0  0  0  0  0  0  0  0  0  0
   37.0720   23.3040   38.4710 H   0  0  0  0  0  0  0  0  0  0  0  0
   38.0510   24.9430   39.0270 O   0  0  0  0  0  0  0  0  0  0  0  0
  2  7  1  0  0  0  0
  2  1  1  0  0  0  0
  3  2  2  0  0  0  0
  4  5  2  0  0  0  0
  4  3  1  0  0  0  0
  5  6  1  0  0  0  0
  6 10  1  0  0  0  0
  6  7  2  0  0  0  0
  7 20  1  0  0  0  0
  8  4  1  0  0  0  0
  9  5  1  0  0  0  0
 11 16  1  0  0  0  0
 11 17  1  0  0  0  0
 12 11  2  0  0  0  0
 13 14  2  0  0  0  0
 13 12  1  0  0  0  0
 14 15  1  0  0  0  0
 15  3  1  0  0  0  0
 15 16  2  0  0  0  0
 18 12  1  0  0  0  0
 19 13  1  0  0  0  0
 20 23  1  0  0  0  0
 21 22  1  0  0  0  0
 22 27  1  0  0  0  0
 23 24  1  0  0  0  0
 23 22  2  0  0  0  0
 24 25  2  0  0  0  0
 25 29  1  0  0  0  0
 25 26  1  0  0  0  0
 26 30  1  0  0  0  0
 27 26  2  0  0  0  0
 27 31  1  0  0  0  0
 28 24  1  0  0  0  0
 31 32  1  0  0  0  0
 31 33  2  0  0  0  0
M  END
>  <minimizedAffinity>
-5.42039824

$$$$

 OpenBabel03272505133D

 33 35  0  0  0  0  0  0  0  0999 V2000
   36.5700   27.4170   34.5880 Cl  0  0  0  0  0  0  0  0  0  0  0  0
   36.9390   27.9020   32.9590 C   0  0  0  0  0  0  0  0  0  0  0  0
   38.1340   27.4850   32.4150 C   0  0  0  0  0  0  0  0  0  0  0  0
   38.4320   27.8660   31.1250 C   0  0  0  0  0  0  0  0  0  0  0  0
   37.5530   28.6380   30.4170 C   0  0  0  0  0  0  0  0  0  0  0  0
   36.3620   29.0270   31.0220 C   0  0  0  0  0  0  0  0  0  0  0  0
   35.9970   28.6890   32.2950 C   0  0  0  0  0  0  0  0  0  0  0  0
   39.3810   27.5230   30.7230 H   0  0  0  0  0  0  0  0  0  0  0  0
   37.7790   28.9410   29.4070 H   0  0  0  0  0  0  0  0  0  0  0  0
   35.6860   29.6400   30.4340 H   0  0  0  0  0  0  0  0  0  0  0  0
   39.6940   24.5110   33.8380 C   0  0  0  0  0  0  0  0  0  0  0  0
   40.7100   25.0060   34.6760 C   0  0  0  0  0  0  0  0  0  0  0  0
   40.8440   26.4010   34.7400 C   0  0  0  0  0  0  0  0  0  0  0  0
   40.0080   27.1820   34.0060 N   0  0  0  0  0  0  0  0  0  0  0  0
   39.0540   26.6490   33.2200 C   0  0  0  0  0  0  0  0  0  0  0  0
   38.9060   25.3320   33.1440 N   0  0  0  0  0  0  0  0  0  0  0  0
   39.6390   23.4360   33.8300 H   0  0  0  0  0  0  0  0  0  0  0  0
   41.4040   24.4730   35.2820 H   0  0  0  0  0  0  0  0  0  0  0  0
   41.5490   26.9890   35.3130 H   0  0  0  0  0  0  0  0  0  0  0  0
   34.4820   29.1810   33.0740 S   0  0  0  0  0  0  0  0  0  0  0  0
   32.0880   29.7460   35.0260 Cl  0  0  0  0  0  0  0  0  0  0  0  0
   33.6590   30.4970   35.2500 C   0  0  0  0  0  0  0  0  0  0  0  0
   34.7690   30.3050   34.4370 C   0  0  0  0  0  0  0  0  0  0  0  0
   35.9470   30.9520   34.7160 C   0  0  0  0  0  0  0  0  0  0  0  0
   36.0430   31.7910   35.7930 C   0  0  0  0  0  0  0  0  0  0  0  0
   34.9740   32.0210   36.6370 C   0  0  0  0  0  0  0  0  0  0  0  0
   33.7930   31.3600   36.3400 C   0  0  0  0  0  0  0  0  0  0  0  0
   36.7540   30.7380   34.0260 H   0  0  0  0  0  0  0  0  0  0  0  0
   36.9810   32.2680   35.9660 H   0  0  0  0  0  0  0  0  0  0  0  0
   35.0240   32.6830   37.5000 H   0  0  0  0  0  0  0  0  0  0  0  0
   32.6560   31.5960   37.2250 C   0  0  0  0  0  0  0  0  0  0  0  0
   32.4560   30.9190   38.0630 H   0  0  0  0  0  0  0  0  0  0  0  0
   31.8750   32.5480   37.0830 O   0  0  0  0  0  0  0  0  0  0  0  0
  2  1  1  0  0  0  0
  3  2  1  0  0  0  0
  3 15  1  0  0  0  0
  4  3  2  0  0  0  0
  5  6  2  0  0  0  0
  5  4  1  0  0  0  0
  6  7  1  0  0  0  0
  7  2  2  0  0  0  0
  7 20  1  0  0  0  0
  8  4  1  0  0  0  0
  9  5  1  0  0  0  0
 10  6  1  0  0  0  0
 11 12  1  0  0  0  0
 12 13  2  0  0  0  0
 12 18  1  0  0  0  0
 13 19  1  0  0  0  0
 14 13  1  0  0  0  0
 15 14  2  0  0  0  0
 16 15  1  0  0  0  0
 16 11  2  0  0  0  0
 17 11  1  0  0  0  0
 20 23  1  0  0  0  0
 21 22  1  0  0  0  0
 22 27  1  0  0  0  0
 23 24  1  0  0  0  0
 23 22  2  0  0  0  0
 24 25  2  0  0  0  0
 25 29  1  0  0  0  0
 25 26  1  0  0  0  0
 26 30  1  0  0  0  0
 27 26  2  0  0  0  0
 27 31  1  0  0  0  0
 28 24  1  0  0  0  0
 31 32  1  0  0  0  0
 33 31  2  0  0  0  0
M  END
>  <minimizedAffinity>
-5.36026764

$$$$

 OpenBabel03272505133D

 33 35  0  0  0  0  0  0  0  0999 V2000
   36.0960   27.4500   31.0740 Cl  0  0  0  0  0  0  0  0  0  0  0  0
   36.8370   27.3190   32.6420 C   0  0  0  0  0  0  0  0  0  0  0  0
   37.8220   26.3710   32.8140 C   0  0  0  0  0  0  0  0  0  0  0  0
   38.4140   26.2620   34.0540 C   0  0  0  0  0  0  0  0  0  0  0  0
   38.0210   27.0810   35.0760 C   0  0  0  0  0  0  0  0  0  0  0  0
   37.0200   28.0180   34.8390 C   0  0  0  0  0  0  0  0  0  0  0  0
   36.3880   28.1860   33.6390 C   0  0  0  0  0  0  0  0  0  0  0  0
   39.1860   25.5070   34.1590 H   0  0  0  0  0  0  0  0  0  0  0  0
   38.4780   27.0020   36.0490 H   0  0  0  0  0  0  0  0  0  0  0  0
   36.7310   28.6530   35.6700 H   0  0  0  0  0  0  0  0  0  0  0  0
   37.8720   23.5180   30.5420 C   0  0  0  0  0  0  0  0  0  0  0  0
   38.8690   23.8290   29.5990 C   0  0  0  0  0  0  0  0  0  0  0  0
   39.5290   25.0550   29.7680 C   0  0  0  0  0  0  0  0  0  0  0  0
   39.1790   25.8600   30.8070 N   0  0  0  0  0  0  0  0  0  0  0  0
   38.2150   25.5070   31.6770 C   0  0  0  0  0  0  0  0  0  0  0  0
   37.5760   24.3510   31.5390 N   0  0  0  0  0  0  0  0  0  0  0  0
   37.4020   22.5670   30.3620 H   0  0  0  0  0  0  0  0  0  0  0  0
   39.2050   23.2640   28.7620 H   0  0  0  0  0  0  0  0  0  0  0  0
   40.3190   25.4890   29.1670 H   0  0  0  0  0  0  0  0  0  0  0  0
   35.1120   29.3780   33.3290 S   0  0  0  0  0  0  0  0  0  0  0  0
   32.2700   29.3020   34.6630 Cl  0  0  0  0  0  0  0  0  0  0  0  0
   33.5490   30.3380   35.2730 C   0  0  0  0  0  0  0  0  0  0  0  0
   34.8310   30.4340   34.7460 C   0  0  0  0  0  0  0  0  0  0  0  0
   35.7470   31.2850   35.3130 C   0  0  0  0  0  0  0  0  0  0  0  0
   35.4110   32.0450   36.4010 C   0  0  0  0  0  0  0  0  0  0  0  0
   34.1530   31.9920   36.9680 C   0  0  0  0  0  0  0  0  0  0  0  0
   33.2410   31.1290   36.3820 C   0  0  0  0  0  0  0  0  0  0  0  0
   36.7170   31.2900   34.8330 H   0  0  0  0  0  0  0  0  0  0  0  0
   36.1600   32.6900   36.8040 H   0  0  0  0  0  0  0  0  0  0  0  0
   33.8600   32.5870   37.8330 H   0  0  0  0  0  0  0  0  0  0  0  0
   31.9080   31.0650   36.9740 C   0  0  0  0  0  0  0  0  0  0  0  0
   31.6410   30.2450   37.6510 H   0  0  0  0  0  0  0  0  0  0  0  0
   31.0280   31.9090   36.7500 O   0  0  0  0  0  0  0  0  0  0  0  0
  1  2  1  0  0  0  0
  2  3  2  0  0  0  0
  2  7  1  0  0  0  0
  3  4  1  0  0  0  0
  4  8  1  0  0  0  0
  4  5  2  0  0  0  0
  5  9  1  0  0  0  0
  6  5  1  0  0  0  0
  6 10  1  0  0  0  0
  7  6  2  0  0  0  0
 11 16  1  0  0  0  0
 12 13  1  0  0  0  0
 12 11  2  0  0  0  0
 13 14  2  0  0  0  0
 14 15  1  0  0  0  0
 15  3  1  0  0  0  0
 16 15  2  0  0  0  0
 17 11  1  0  0  0  0
 18 12  1  0  0  0  0
 19 13  1  0  0  0  0
 20  7  1  0  0  0  0
 20 23  1  0  0  0  0
 21 22  1  0  0  0  0
 22 27  1  0  0  0  0
 23 22  2  0  0  0  0
 23 24  1  0  0  0  0
 24 25  2  0  0  0  0
 25 29  1  0  0  0  0
 25 26  1  0  0  0  0
 26 30  1  0  0  0  0
 27 26  2  0  0  0  0
 27 31  1  0  0  0  0
 28 24  1  0  0  0  0
 31 32  1  0  0  0  0
 33 31  2  0  0  0  0
M  END
>  <minimizedAffinity>
-5.35534096

$$$$

 OpenBabel03272505133D

 33 35  0  0  0  0  0  0  0  0999 V2000
   38.4670   27.1320   32.8770 Cl  0  0  0  0  0  0  0  0  0  0  0  0
   37.3230   25.9840   32.2460 C   0  0  0  0  0  0  0  0  0  0  0  0
   36.1690   26.4690   31.6710 C   0  0  0  0  0  0  0  0  0  0  0  0
   35.2590   25.5650   31.1690 C   0  0  0  0  0  0  0  0  0  0  0  0
   35.5110   24.2230   31.2480 C   0  0  0  0  0  0  0  0  0  0  0  0
   36.6940   23.7950   31.8400 C   0  0  0  0  0  0  0  0  0  0  0  0
   37.6440   24.6300   32.3590 C   0  0  0  0  0  0  0  0  0  0  0  0
   34.3590   25.9770   30.7230 H   0  0  0  0  0  0  0  0  0  0  0  0
   34.8030   23.5080   30.8580 H   0  0  0  0  0  0  0  0  0  0  0  0
   36.8650   22.7240   31.8870 H   0  0  0  0  0  0  0  0  0  0  0  0
   36.2760   29.8990   30.4350 C   0  0  0  0  0  0  0  0  0  0  0  0
   35.5740   30.6480   31.3970 C   0  0  0  0  0  0  0  0  0  0  0  0
   35.0600   29.9370   32.4910 C   0  0  0  0  0  0  0  0  0  0  0  0
   35.2600   28.5940   32.5620 N   0  0  0  0  0  0  0  0  0  0  0  0
   35.9410   27.9310   31.6090 C   0  0  0  0  0  0  0  0  0  0  0  0
   36.4380   28.5820   30.5640 N   0  0  0  0  0  0  0  0  0  0  0  0
   36.6460   30.4970   29.6210 H   0  0  0  0  0  0  0  0  0  0  0  0
   35.3710   31.6930   31.4210 H   0  0  0  0  0  0  0  0  0  0  0  0
   34.4950   30.3080   33.3370 H   0  0  0  0  0  0  0  0  0  0  0  0
   39.1550   24.0920   33.1150 S   0  0  0  0  0  0  0  0  0  0  0  0
   41.5240   22.7310   34.6630 Cl  0  0  0  0  0  0  0  0  0  0  0  0
   40.0620   23.2480   35.4840 C   0  0  0  0  0  0  0  0  0  0  0  0
   38.9680   23.8560   34.8790 C   0  0  0  0  0  0  0  0  0  0  0  0
   37.8780   24.2160   35.6310 C   0  0  0  0  0  0  0  0  0  0  0  0
   37.8530   23.9820   36.9800 C   0  0  0  0  0  0  0  0  0  0  0  0
   38.9100   23.3820   37.6360 C   0  0  0  0  0  0  0  0  0  0  0  0
   40.0020   23.0250   36.8610 C   0  0  0  0  0  0  0  0  0  0  0  0
   37.0770   24.6830   35.0710 H   0  0  0  0  0  0  0  0  0  0  0  0
   36.9820   24.2820   37.5180 H   0  0  0  0  0  0  0  0  0  0  0  0
   38.9160   23.1840   38.7070 H   0  0  0  0  0  0  0  0  0  0  0  0
   41.1250   22.3890   37.5450 C   0  0  0  0  0  0  0  0  0  0  0  0
   41.8830   22.9990   38.0500 H   0  0  0  0  0  0  0  0  0  0  0  0
   41.2800   21.1600   37.5900 O   0  0  0  0  0  0  0  0  0  0  0  0
  2  7  1  0  0  0  0
  2  1  1  0  0  0  0
  3  2  2  0  0  0  0
  4  5  2  0  0  0  0
  4  3  1  0  0  0  0
  5  6  1  0  0  0  0
  6 10  1  0  0  0  0
  6  7  2  0  0  0  0
  7 20  1  0  0  0  0
  8  4  1  0  0  0  0
  9  5  1  0  0  0  0
 11 16  2  0  0  0  0
 11 12  1  0  0  0  0
 12 18  1  0  0  0  0
 12 13  2  0  0  0  0
 13 14  1  0  0  0  0
 13 19  1  0  0  0  0
 15  3  1  0  0  0  0
 15 14  2  0  0  0  0
 16 15  1  0  0  0  0
 17 11  1  0  0  0  0
 20 23  1  0  0  0  0
 21 22  1  0  0  0  0
 22 27  1  0  0  0  0
 23 22  2  0  0  0  0
 23 24  1  0  0  0  0
 24 25  2  0  0  0  0
 25 29  1  0  0  0  0
 25 26  1  0  0  0  0
 26 30  1  0  0  0  0
 27 31  1  0  0  0  0
 27 26  2  0  0  0  0
 28 24  1  0  0  0  0
 31 33  2  0  0  0  0
 31 32  1  0  0  0  0
M  END
>  <minimizedAffinity>
-5.26924753

$$$$

 OpenBabel03272505133D

 33 35  0  0  0  0  0  0  0  0999 V2000
   35.8910   27.6390   31.1730 Cl  0  0  0  0  0  0  0  0  0  0  0  0
   36.5990   27.5720   32.7600 C   0  0  0  0  0  0  0  0  0  0  0  0
   37.5810   26.6330   32.9920 C   0  0  0  0  0  0  0  0  0  0  0  0
   38.1460   26.5760   34.2470 C   0  0  0  0  0  0  0  0  0  0  0  0
   37.7320   27.4370   35.2260 C   0  0  0  0  0  0  0  0  0  0  0  0
   36.7360   28.3620   34.9300 C   0  0  0  0  0  0  0  0  0  0  0  0
   36.1290   28.4800   33.7110 C   0  0  0  0  0  0  0  0  0  0  0  0
   38.9160   25.8260   34.4000 H   0  0  0  0  0  0  0  0  0  0  0  0
   38.1680   27.3980   36.2110 H   0  0  0  0  0  0  0  0  0  0  0  0
   36.4300   29.0310   35.7280 H   0  0  0  0  0  0  0  0  0  0  0  0
   39.4770   25.3250   30.1640 C   0  0  0  0  0  0  0  0  0  0  0  0
   38.8500   24.1070   29.8470 C   0  0  0  0  0  0  0  0  0  0  0  0
   37.7490   23.7440   30.6370 C   0  0  0  0  0  0  0  0  0  0  0  0
   37.3550   24.5680   31.6440 N   0  0  0  0  0  0  0  0  0  0  0  0
   37.9970   25.7240   31.9000 C   0  0  0  0  0  0  0  0  0  0  0  0
   39.0410   26.0890   31.1660 N   0  0  0  0  0  0  0  0  0  0  0  0
   40.3130   25.5500   29.5250 H   0  0  0  0  0  0  0  0  0  0  0  0
   39.0890   23.4050   29.0820 H   0  0  0  0  0  0  0  0  0  0  0  0
   37.1260   22.8610   30.5690 H   0  0  0  0  0  0  0  0  0  0  0  0
   34.8600   29.6570   33.3260 S   0  0  0  0  0  0  0  0  0  0  0  0
   36.0220   32.1370   34.8620 Cl  0  0  0  0  0  0  0  0  0  0  0  0
   34.5760   31.3060   35.4100 C   0  0  0  0  0  0  0  0  0  0  0  0
   33.9940   30.2050   34.7930 C   0  0  0  0  0  0  0  0  0  0  0  0
   32.8590   29.6410   35.3190 C   0  0  0  0  0  0  0  0  0  0  0  0
   32.2870   30.1530   36.4520 C   0  0  0  0  0  0  0  0  0  0  0  0
   32.8190   31.2460   37.1080 C   0  0  0  0  0  0  0  0  0  0  0  0
   33.9650   31.8030   36.5630 C   0  0  0  0  0  0  0  0  0  0  0  0
   32.4820   28.7880   34.7690 H   0  0  0  0  0  0  0  0  0  0  0  0
   31.4060   29.6780   36.8190 H   0  0  0  0  0  0  0  0  0  0  0  0
   32.3840   31.6730   38.0110 H   0  0  0  0  0  0  0  0  0  0  0  0
   34.5360   32.9580   37.2490 C   0  0  0  0  0  0  0  0  0  0  0  0
   35.6090   33.1690   37.1800 H   0  0  0  0  0  0  0  0  0  0  0  0
   33.8590   33.7430   37.9290 O   0  0  0  0  0  0  0  0  0  0  0  0
  1  2  1  0  0  0  0
  2  3  2  0  0  0  0
  2  7  1  0  0  0  0
  3  4  1  0  0  0  0
  4  8  1  0  0  0  0
  4  5  2  0  0  0  0
  5  9  1  0  0  0  0
  6  5  1  0  0  0  0
  6 10  1  0  0  0  0
  7  6  2  0  0  0  0
 11 16  1  0  0  0  0
 12 11  2  0  0  0  0
 12 13  1  0  0  0  0
 13 14  2  0  0  0  0
 14 15  1  0  0  0  0
 15  3  1  0  0  0  0
 16 15  2  0  0  0  0
 17 11  1  0  0  0  0
 18 12  1  0  0  0  0
 19 13  1  0  0  0  0
 20  7  1  0  0  0  0
 20 23  1  0  0  0  0
 21 22  1  0  0  0  0
 22 27  1  0  0  0  0
 23 24  1  0  0  0  0
 23 22  2  0  0  0  0
 24 25  2  0  0  0  0
 25 29  1  0  0  0  0
 25 26  1  0  0  0  0
 26 30  1  0  0  0  0
 27 26  2  0  0  0  0
 27 31  1  0  0  0  0
 28 24  1  0  0  0  0
 31 33  2  0  0  0  0
 32 31  1  0  0  0  0
M  END
>  <minimizedAffinity>
-5.23739767

$$$$

 OpenBabel03272505133D

 33 35  0  0  0  0  0  0  0  0999 V2000
   36.5830   27.8950   34.5790 Cl  0  0  0  0  0  0  0  0  0  0  0  0
   36.4860   28.7200   33.0520 C   0  0  0  0  0  0  0  0  0  0  0  0
   35.7270   29.8680   32.9840 C   0  0  0  0  0  0  0  0  0  0  0  0
   35.6460   30.5270   31.7760 C   0  0  0  0  0  0  0  0  0  0  0  0
   36.3080   30.0400   30.6840 C   0  0  0  0  0  0  0  0  0  0  0  0
   37.0590   28.8760   30.8160 C   0  0  0  0  0  0  0  0  0  0  0  0
   37.1870   28.1680   31.9780 C   0  0  0  0  0  0  0  0  0  0  0  0
   35.0410   31.4280   31.7540 H   0  0  0  0  0  0  0  0  0  0  0  0
   36.2500   30.5490   29.7350 H   0  0  0  0  0  0  0  0  0  0  0  0
   37.5720   28.5150   29.9310 H   0  0  0  0  0  0  0  0  0  0  0  0
   35.1470   31.6420   36.1180 C   0  0  0  0  0  0  0  0  0  0  0  0
   33.8230   31.3200   36.4710 C   0  0  0  0  0  0  0  0  0  0  0  0
   33.1310   30.4700   35.5960 C   0  0  0  0  0  0  0  0  0  0  0  0
   33.7580   30.0130   34.4800 N   0  0  0  0  0  0  0  0  0  0  0  0
   35.0280   30.3570   34.1940 C   0  0  0  0  0  0  0  0  0  0  0  0
   35.7050   31.1600   35.0070 N   0  0  0  0  0  0  0  0  0  0  0  0
   35.6260   32.2960   36.8250 H   0  0  0  0  0  0  0  0  0  0  0  0
   33.2580   31.6300   37.3180 H   0  0  0  0  0  0  0  0  0  0  0  0
   32.1170   30.0980   35.6720 H   0  0  0  0  0  0  0  0  0  0  0  0
   38.1410   26.6840   32.1550 S   0  0  0  0  0  0  0  0  0  0  0  0
   39.0480   24.0650   33.6310 Cl  0  0  0  0  0  0  0  0  0  0  0  0
   37.6090   24.1070   32.6260 C   0  0  0  0  0  0  0  0  0  0  0  0
   37.1360   25.2190   31.9400 C   0  0  0  0  0  0  0  0  0  0  0  0
   35.9940   25.1260   31.1840 C   0  0  0  0  0  0  0  0  0  0  0  0
   35.3100   23.9440   31.0970 C   0  0  0  0  0  0  0  0  0  0  0  0
   35.7310   22.8070   31.7570 C   0  0  0  0  0  0  0  0  0  0  0  0
   36.8860   22.9180   32.5150 C   0  0  0  0  0  0  0  0  0  0  0  0
   35.7060   26.0440   30.6870 H   0  0  0  0  0  0  0  0  0  0  0  0
   34.4280   23.9260   30.4960 H   0  0  0  0  0  0  0  0  0  0  0  0
   35.2060   21.8540   31.7040 H   0  0  0  0  0  0  0  0  0  0  0  0
   37.3400   21.7210   33.2170 C   0  0  0  0  0  0  0  0  0  0  0  0
   38.1850   21.1390   32.8310 H   0  0  0  0  0  0  0  0  0  0  0  0
   36.8110   21.3060   34.2590 O   0  0  0  0  0  0  0  0  0  0  0  0
  2  1  1  0  0  0  0
  3  2  1  0  0  0  0
  3 15  1  0  0  0  0
  4  3  2  0  0  0  0
  5  6  2  0  0  0  0
  5  4  1  0  0  0  0
  6  7  1  0  0  0  0
  7 20  1  0  0  0  0
  7  2  2  0  0  0  0
  8  4  1  0  0  0  0
  9  5  1  0  0  0  0
 10  6  1  0  0  0  0
 11 12  1  0  0  0  0
 11 17  1  0  0  0  0
 12 18  1  0  0  0  0
 13 19  1  0  0  0  0
 13 12  2  0  0  0  0
 14 13  1  0  0  0  0
 15 14  2  0  0  0  0
 15 16  1  0  0  0  0
 16 11  2  0  0  0  0
 22 21  1  0  0  0  0
 23 20  1  0  0  0  0
 23 22  2  0  0  0  0
 24 23  1  0  0  0  0
 25 24  2  0  0  0  0
 25 26  1  0  0  0  0
 26 27  2  0  0  0  0
 27 22  1  0  0  0  0
 27 31  1  0  0  0  0
 28 24  1  0  0  0  0
 29 25  1  0  0  0  0
 30 26  1  0  0  0  0
 31 33  2  0  0  0  0
 32 31  1  0  0  0  0
M  END
>  <minimizedAffinity>
-5.16433477

$$$$

 OpenBabel03272505133D

 33 35  0  0  0  0  0  0  0  0999 V2000
   38.2540   23.8200   33.4420 Cl  0  0  0  0  0  0  0  0  0  0  0  0
   38.0550   25.3620   34.2190 C   0  0  0  0  0  0  0  0  0  0  0  0
   38.5950   25.5280   35.4760 C   0  0  0  0  0  0  0  0  0  0  0  0
   38.4410   26.7490   36.0970 C   0  0  0  0  0  0  0  0  0  0  0  0
   37.7680   27.7590   35.4670 C   0  0  0  0  0  0  0  0  0  0  0  0
   37.2460   27.5290   34.1980 C   0  0  0  0  0  0  0  0  0  0  0  0
   37.3570   26.3480   33.5190 C   0  0  0  0  0  0  0  0  0  0  0  0
   38.8770   26.8490   37.0860 H   0  0  0  0  0  0  0  0  0  0  0  0
   37.6420   28.7160   35.9460 H   0  0  0  0  0  0  0  0  0  0  0  0
   36.7160   28.3510   33.7250 H   0  0  0  0  0  0  0  0  0  0  0  0
   39.3230   22.8050   37.7910 C   0  0  0  0  0  0  0  0  0  0  0  0
   40.5740   22.3120   37.3800 C   0  0  0  0  0  0  0  0  0  0  0  0
   41.1660   22.9460   36.2780 C   0  0  0  0  0  0  0  0  0  0  0  0
   40.5150   23.9780   35.6780 N   0  0  0  0  0  0  0  0  0  0  0  0
   39.3160   24.4060   36.1170 C   0  0  0  0  0  0  0  0  0  0  0  0
   38.7370   23.8220   37.1590 N   0  0  0  0  0  0  0  0  0  0  0  0
   38.9190   22.2810   38.6400 H   0  0  0  0  0  0  0  0  0  0  0  0
   41.1520   21.5160   37.7880 H   0  0  0  0  0  0  0  0  0  0  0  0
   42.1140   22.7320   35.8000 H   0  0  0  0  0  0  0  0  0  0  0  0
   36.6950   26.0480   31.9020 S   0  0  0  0  0  0  0  0  0  0  0  0
   39.5600   25.4900   30.7440 Cl  0  0  0  0  0  0  0  0  0  0  0  0
   38.6130   26.8780   30.2350 C   0  0  0  0  0  0  0  0  0  0  0  0
   37.3410   27.2000   30.6950 C   0  0  0  0  0  0  0  0  0  0  0  0
   36.7000   28.3170   30.2200 C   0  0  0  0  0  0  0  0  0  0  0  0
   37.3020   29.1240   29.2920 C   0  0  0  0  0  0  0  0  0  0  0  0
   38.5630   28.8540   28.7990 C   0  0  0  0  0  0  0  0  0  0  0  0
   39.1960   27.7240   29.2890 C   0  0  0  0  0  0  0  0  0  0  0  0
   35.7150   28.4840   30.6370 H   0  0  0  0  0  0  0  0  0  0  0  0
   36.7600   29.9790   28.9550 H   0  0  0  0  0  0  0  0  0  0  0  0
   39.0640   29.4800   28.0610 H   0  0  0  0  0  0  0  0  0  0  0  0
   40.5300   27.4300   28.7750 C   0  0  0  0  0  0  0  0  0  0  0  0
   40.9000   26.3980   28.7510 H   0  0  0  0  0  0  0  0  0  0  0  0
   41.2980   28.3050   28.3490 O   0  0  0  0  0  0  0  0  0  0  0  0
  1  2  1  0  0  0  0
  2  3  1  0  0  0  0
  3  4  2  0  0  0  0
  3 15  1  0  0  0  0
  4  8  1  0  0  0  0
  5  9  1  0  0  0  0
  5  4  1  0  0  0  0
  6  5  2  0  0  0  0
  7  6  1  0  0  0  0
  7  2  2  0  0  0  0
 10  6  1  0  0  0  0
 11 17  1  0  0  0  0
 12 18  1  0  0  0  0
 12 11  1  0  0  0  0
 13 12  2  0  0  0  0
 14 15  2  0  0  0  0
 14 13  1  0  0  0  0
 15 16  1  0  0  0  0
 16 11  2  0  0  0  0
 19 13  1  0  0  0  0
 20  7  1  0  0  0  0
 22 23  1  0  0  0  0
 22 21  1  0  0  0  0
 23 20  1  0  0  0  0
 24 28  1  0  0  0  0
 24 23  2  0  0  0  0
 25 24  1  0  0  0  0
 26 27  1  0  0  0  0
 26 25  2  0  0  0  0
 27 22  2  0  0  0  0
 29 25  1  0  0  0  0
 30 26  1  0  0  0  0
 31 27  1  0  0  0  0
 32 31  1  0  0  0  0
 33 31  2  0  0  0  0
M  END
>  <minimizedAffinity>
-5.10084105

$$$$
