
 OpenBabel03272505103D

 33 35  0  0  0  0  0  0  0  0999 V2000
   36.3990   30.9040   45.7010 Cl  0  0  0  0  0  0  0  0  0  0  0  0
   36.6880   30.7650   47.4100 C   0  0  0  0  0  0  0  0  0  0  0  0
   37.9420   31.0860   47.8820 C   0  0  0  0  0  0  0  0  0  0  0  0
   38.1770   30.9790   49.2350 C   0  0  0  0  0  0  0  0  0  0  0  0
   37.1800   30.5630   50.0740 C   0  0  0  0  0  0  0  0  0  0  0  0
   35.9350   30.2530   49.5360 C   0  0  0  0  0  0  0  0  0  0  0  0
   35.6260   30.3350   48.2070 C   0  0  0  0  0  0  0  0  0  0  0  0
   39.1740   31.2390   49.5780 H   0  0  0  0  0  0  0  0  0  0  0  0
   37.3560   30.4750   51.1340 H   0  0  0  0  0  0  0  0  0  0  0  0
   35.1650   29.9250   50.2280 H   0  0  0  0  0  0  0  0  0  0  0  0
   40.2040   33.3110   46.0830 C   0  0  0  0  0  0  0  0  0  0  0  0
   40.9170   32.4680   45.2120 C   0  0  0  0  0  0  0  0  0  0  0  0
   40.5970   31.1030   45.2600 C   0  0  0  0  0  0  0  0  0  0  0  0
   39.6380   30.6770   46.1250 N   0  0  0  0  0  0  0  0  0  0  0  0
   38.9890   31.5330   46.9360 C   0  0  0  0  0  0  0  0  0  0  0  0
   39.2740   32.8300   46.9080 N   0  0  0  0  0  0  0  0  0  0  0  0
   40.4920   34.3450   46.0010 H   0  0  0  0  0  0  0  0  0  0  0  0
   41.6770   32.7130   44.5080 H   0  0  0  0  0  0  0  0  0  0  0  0
   41.0160   30.2870   44.6850 H   0  0  0  0  0  0  0  0  0  0  0  0
   34.0420   29.9410   47.5140 S   0  0  0  0  0  0  0  0  0  0  0  0
   33.7590   29.1900   44.4780 Cl  0  0  0  0  0  0  0  0  0  0  0  0
   33.7900   27.9640   45.7340 C   0  0  0  0  0  0  0  0  0  0  0  0
   33.9120   28.2060   47.0960 C   0  0  0  0  0  0  0  0  0  0  0  0
   33.9240   27.1590   47.9840 C   0  0  0  0  0  0  0  0  0  0  0  0
   33.8160   25.8680   47.5400 C   0  0  0  0  0  0  0  0  0  0  0  0
   33.6930   25.5660   46.1980 C   0  0  0  0  0  0  0  0  0  0  0  0
   33.6830   26.6350   45.3170 C   0  0  0  0  0  0  0  0  0  0  0  0
   34.0220   27.4480   49.0220 H   0  0  0  0  0  0  0  0  0  0  0  0
   33.8310   25.0910   48.2710 H   0  0  0  0  0  0  0  0  0  0  0  0
   33.6060   24.5490   45.8190 H   0  0  0  0  0  0  0  0  0  0  0  0
   33.5530   26.3270   43.8960 C   0  0  0  0  0  0  0  0  0  0  0  0
   32.5680   26.3310   43.4150 H   0  0  0  0  0  0  0  0  0  0  0  0
   34.5210   26.0500   43.1730 O   0  0  0  0  0  0  0  0  0  0  0  0
  1  2  1  0  0  0  0
  2  3  2  0  0  0  0
  2  7  1  0  0  0  0
  3  4  1  0  0  0  0
  4  8  1  0  0  0  0
  4  5  2  0  0  0  0
  5  9  1  0  0  0  0
  6  5  1  0  0  0  0
  6 10  1  0  0  0  0
  7  6  2  0  0  0  0
 11 16  1  0  0  0  0
 12 13  1  0  0  0  0
 12 11  2  0  0  0  0
 13 14  2  0  0  0  0
 14 15  1  0  0  0  0
 15  3  1  0  0  0  0
 16 15  2  0  0  0  0
 17 11  1  0  0  0  0
 18 12  1  0  0  0  0
 19 13  1  0  0  0  0
 20  7  1  0  0  0  0
 21 22  1  0  0  0  0
 22 23  1  0  0  0  0
 23 20  1  0  0  0  0
 23 24  2  0  0  0  0
 24 28  1  0  0  0  0
 25 24  1  0  0  0  0
 25 29  1  0  0  0  0
 26 25  2  0  0  0  0
 27 22  2  0  0  0  0
 27 26  1  0  0  0  0
 30 26  1  0  0  0  0
 31 27  1  0  0  0  0
 32 31  1  0  0  0  0
 33 31  2  0  0  0  0
M  END
>  <minimizedAffinity>
-5.56541681

>  <minimizedRMSD>
0.231996536

$$$$
