
 OpenBabel03272502033D

 32 34  0  0  0  0  0  0  0  0999 V2000
   33.4660   28.9850   49.2970 F   0  0  0  0  0  0  0  0  0  0  0  0
   33.8730   29.0920   48.0010 C   0  0  0  0  0  0  0  0  0  0  0  0
   33.0290   28.7680   46.9610 C   0  0  0  0  0  0  0  0  0  0  0  0
   33.4720   28.9530   45.6420 C   0  0  0  0  0  0  0  0  0  0  0  0
   34.7570   29.4580   45.4020 C   0  0  0  0  0  0  0  0  0  0  0  0
   35.5430   29.7560   46.4920 C   0  0  0  0  0  0  0  0  0  0  0  0
   35.1400   29.5890   47.7800 C   0  0  0  0  0  0  0  0  0  0  0  0
   32.7040   28.6590   44.9180 H   0  0  0  0  0  0  0  0  0  0  0  0
   34.9050   29.5260   44.3480 H   0  0  0  0  0  0  0  0  0  0  0  0
   36.4290   30.0740   46.0370 H   0  0  0  0  0  0  0  0  0  0  0  0
   37.5180   31.5180   47.1660 Br  0  0  0  0  0  0  0  0  0  0  0  0
   37.1010   30.7950   48.8630 C   0  0  0  0  0  0  0  0  0  0  0  0
   36.0290   29.9260   48.8740 C   0  0  0  0  0  0  0  0  0  0  0  0
   35.7030   29.3230   50.0800 C   0  0  0  0  0  0  0  0  0  0  0  0
   36.4130   29.5860   51.2090 C   0  0  0  0  0  0  0  0  0  0  0  0
   37.4690   30.4630   51.1420 C   0  0  0  0  0  0  0  0  0  0  0  0
   37.8350   31.0900   49.9460 C   0  0  0  0  0  0  0  0  0  0  0  0
   34.9950   28.6070   50.4470 H   0  0  0  0  0  0  0  0  0  0  0  0
   36.3350   29.2410   52.2210 H   0  0  0  0  0  0  0  0  0  0  0  0
   38.1380   30.7820   51.9640 H   0  0  0  0  0  0  0  0  0  0  0  0
   38.9490   32.0260   49.8270 C   0  0  0  0  0  0  0  0  0  0  0  0
   39.9640   31.6310   49.7530 H   0  0  0  0  0  0  0  0  0  0  0  0
   38.6820   33.2340   49.8160 O   0  0  0  0  0  0  0  0  0  0  0  0
   31.8100   26.9990   48.0010 C   0  0  0  0  0  0  0  0  0  0  0  0
   31.7560   28.2310   47.3050 C   0  0  0  0  0  0  0  0  0  0  0  0
   30.5210   28.7570   47.0440 C   0  0  0  0  0  0  0  0  0  0  0  0
   29.4060   28.0830   47.4590 N   0  0  0  0  0  0  0  0  0  0  0  0
   29.4930   26.9140   48.1180 C   0  0  0  0  0  0  0  0  0  0  0  0
   30.6840   26.3680   48.3930 N   0  0  0  0  0  0  0  0  0  0  0  0
   32.7240   26.4770   48.2690 H   0  0  0  0  0  0  0  0  0  0  0  0
   30.5040   29.6830   46.5200 H   0  0  0  0  0  0  0  0  0  0  0  0
   28.5350   26.4810   48.3920 H   0  0  0  0  0  0  0  0  0  0  0  0
  2  1  1  0  0  0  0
  3 25  1  0  0  0  0
  3  2  2  0  0  0  0
  4  3  1  0  0  0  0
  5  4  2  0  0  0  0
  5  6  1  0  0  0  0
  6  7  2  0  0  0  0
  7  2  1  0  0  0  0
  7 13  1  0  0  0  0
  8  4  1  0  0  0  0
  9  5  1  0  0  0  0
 10  6  1  0  0  0  0
 11 12  1  0  0  0  0
 12 13  2  0  0  0  0
 12 17  1  0  0  0  0
 13 14  1  0  0  0  0
 14 18  1  0  0  0  0
 14 15  2  0  0  0  0
 15 19  1  0  0  0  0
 16 15  1  0  0  0  0
 16 20  1  0  0  0  0
 17 16  2  0  0  0  0
 21 17  1  0  0  0  0
 22 21  1  0  0  0  0
 23 21  2  0  0  0  0
 24 30  1  0  0  0  0
 24 29  1  0  0  0  0
 25 24  2  0  0  0  0
 26 25  1  0  0  0  0
 26 27  2  0  0  0  0
 27 28  1  0  0  0  0
 28 32  1  0  0  0  0
 28 29  2  0  0  0  0
 31 26  1  0  0  0  0
M  END
>  <minimizedAffinity>
-5.86352777

>  <minimizedRMSD>
3.90619183

$$$$
