
 OpenBabel03272506033D

 40 42  0  0  1  0  0  0  0  0999 V2000
   37.8580   26.3420   33.2120 C   0  0  2  0  0  0  0  0  0  0  0  0
   38.9350   25.5180   33.7490 C   0  0  0  0  0  0  0  0  0  0  0  0
   38.7940   25.2690   35.2800 C   0  0  2  0  0  0  0  0  0  0  0  0
   38.7630   26.4830   36.0580 C   0  0  0  0  0  0  0  0  0  0  0  0
   37.9580   27.6110   35.4090 C   0  0  0  0  0  0  0  0  0  0  0  0
   37.0840   27.0860   34.3110 C   0  0  0  0  0  0  0  0  0  0  0  0
   38.2520   27.1970   32.5850 H   0  0  0  0  0  0  0  0  0  0  0  0
   39.8930   26.1430   33.7210 H   0  0  0  0  0  0  0  0  0  0  0  0
   39.2120   24.5700   33.3540 H   0  0  0  0  0  0  0  0  0  0  0  0
   37.8990   24.6320   35.4270 H   0  0  0  0  0  0  0  0  0  0  0  0
   38.4060   26.2630   37.0850 H   0  0  0  0  0  0  0  0  0  0  0  0
   39.7770   26.9100   36.1930 H   0  0  0  0  0  0  0  0  0  0  0  0
   38.5640   28.4550   35.0850 H   0  0  0  0  0  0  0  0  0  0  0  0
   37.2710   27.9880   36.1930 H   0  0  0  0  0  0  0  0  0  0  0  0
   36.4060   26.3160   34.7460 H   0  0  0  0  0  0  0  0  0  0  0  0
   36.4670   27.8970   33.9260 H   0  0  0  0  0  0  0  0  0  0  0  0
   38.3450   23.0260   37.1500 Cl  0  0  0  0  0  0  0  0  0  0  0  0
   39.9180   23.4050   36.4980 C   0  0  0  0  0  0  0  0  0  0  0  0
   39.9940   24.4400   35.6020 C   0  0  0  0  0  0  0  0  0  0  0  0
   41.2690   24.6510   35.1060 C   0  0  0  0  0  0  0  0  0  0  0  0
   42.3640   23.8950   35.4780 C   0  0  0  0  0  0  0  0  0  0  0  0
   42.2020   22.8590   36.3990 C   0  0  0  0  0  0  0  0  0  0  0  0
   40.9350   22.6090   36.9250 C   0  0  0  0  0  0  0  0  0  0  0  0
   41.4160   25.4460   34.3880 H   0  0  0  0  0  0  0  0  0  0  0  0
   43.3200   24.1360   35.0370 H   0  0  0  0  0  0  0  0  0  0  0  0
   43.0630   22.2720   36.6860 H   0  0  0  0  0  0  0  0  0  0  0  0
   40.7700   21.5560   37.8590 N   0  0  0  0  0  0  0  0  0  0  0  0
   41.0390   20.5730   37.7550 H   0  0  0  0  0  0  0  0  0  0  0  0
   40.3170   21.8490   38.7530 H   0  0  0  0  0  0  0  0  0  0  0  0
   36.8650   25.6560   32.3920 C   0  0  0  0  0  0  0  0  0  0  0  0
   36.0300   26.5030   31.6790 C   0  0  0  0  0  0  0  0  0  0  0  0
   35.0650   25.9490   30.8460 C   0  0  0  0  0  0  0  0  0  0  0  0
   34.9820   24.5550   30.7680 N   0  0  0  0  0  0  0  0  0  0  0  0
   35.8120   23.7700   31.4780 C   0  0  0  0  0  0  0  0  0  0  0  0
   36.7190   24.3490   32.2610 N   0  0  0  0  0  0  0  0  0  0  0  0
   35.8690   27.5640   31.5510 H   0  0  0  0  0  0  0  0  0  0  0  0
   34.3220   26.3630   30.2100 H   0  0  0  0  0  0  0  0  0  0  0  0
   35.7290   22.3160   31.3990 C   0  0  0  0  0  0  0  0  0  0  0  0
   36.2310   21.7690   30.6110 H   0  0  0  0  0  0  0  0  0  0  0  0
   35.0680   21.6590   32.2530 O   0  0  0  0  0  0  0  0  0  0  0  0
  1  7  1  6  0  0  0
  1  2  1  0  0  0  0
  1  6  1  0  0  0  0
  2  3  1  0  0  0  0
  3 10  1  1  0  0  0
  3 19  1  0  0  0  0
  3  4  1  0  0  0  0
  4 12  1  0  0  0  0
  4 11  1  0  0  0  0
  5  4  1  0  0  0  0
  5 14  1  0  0  0  0
  6 15  1  0  0  0  0
  6  5  1  0  0  0  0
  8  2  1  0  0  0  0
  9  2  1  0  0  0  0
 13  5  1  0  0  0  0
 16  6  1  0  0  0  0
 18 23  1  0  0  0  0
 18 17  1  0  0  0  0
 19 18  2  0  0  0  0
 20 21  2  0  0  0  0
 20 19  1  0  0  0  0
 21 22  1  0  0  0  0
 22 26  1  0  0  0  0
 22 23  2  0  0  0  0
 23 27  1  0  0  0  0
 24 20  1  0  0  0  0
 25 21  1  0  0  0  0
 27 29  1  0  0  0  0
 28 27  1  0  0  0  0
 30  1  1  0  0  0  0
 31 30  2  0  0  0  0
 32 31  1  0  0  0  0
 33 32  2  0  0  0  0
 33 34  1  0  0  0  0
 34 35  2  0  0  0  0
 35 30  1  0  0  0  0
 36 31  1  0  0  0  0
 37 32  1  0  0  0  0
 38 34  1  0  0  0  0
 38 40  2  0  0  0  0
 39 38  1  0  0  0  0
M  END
>  <minimizedAffinity>
-6.16945839

$$$$

 OpenBabel03272506033D

 40 42  0  0  1  0  0  0  0  0999 V2000
   36.4720   28.7840   32.8130 C   0  0  2  0  0  0  0  0  0  0  0  0
   35.7090   29.2860   33.9520 C   0  0  0  0  0  0  0  0  0  0  0  0
   34.2740   29.7440   33.5570 C   0  0  2  0  0  0  0  0  0  0  0  0
   34.2590   30.7770   32.5510 C   0  0  0  0  0  0  0  0  0  0  0  0
   35.3070   30.5850   31.4540 C   0  0  0  0  0  0  0  0  0  0  0  0
   35.8510   29.1880   31.4670 C   0  0  0  0  0  0  0  0  0  0  0  0
   37.4970   29.2580   32.7490 H   0  0  0  0  0  0  0  0  0  0  0  0
   36.1740   30.2830   34.2650 H   0  0  0  0  0  0  0  0  0  0  0  0
   35.5720   28.7470   34.8590 H   0  0  0  0  0  0  0  0  0  0  0  0
   33.7100   28.8370   33.2620 H   0  0  0  0  0  0  0  0  0  0  0  0
   33.2370   30.8760   32.1290 H   0  0  0  0  0  0  0  0  0  0  0  0
   34.4880   31.7720   32.9800 H   0  0  0  0  0  0  0  0  0  0  0  0
   36.0970   31.3340   31.4620 H   0  0  0  0  0  0  0  0  0  0  0  0
   34.7680   30.6930   30.4910 H   0  0  0  0  0  0  0  0  0  0  0  0
   35.0000   28.4830   31.3280 H   0  0  0  0  0  0  0  0  0  0  0  0
   36.5330   29.0620   30.6270 H   0  0  0  0  0  0  0  0  0  0  0  0
   35.8370   31.8260   34.9540 Cl  0  0  0  0  0  0  0  0  0  0  0  0
   34.3690   31.1540   35.6130 C   0  0  0  0  0  0  0  0  0  0  0  0
   33.7040   30.2270   34.8500 C   0  0  0  0  0  0  0  0  0  0  0  0
   32.5320   29.7730   35.4280 C   0  0  0  0  0  0  0  0  0  0  0  0
   32.0720   30.2050   36.6570 C   0  0  0  0  0  0  0  0  0  0  0  0
   32.8100   31.1510   37.3720 C   0  0  0  0  0  0  0  0  0  0  0  0
   33.9980   31.6390   36.8280 C   0  0  0  0  0  0  0  0  0  0  0  0
   31.9430   29.0420   34.8900 H   0  0  0  0  0  0  0  0  0  0  0  0
   31.1450   29.7910   37.0270 H   0  0  0  0  0  0  0  0  0  0  0  0
   32.4440   31.4830   38.3330 H   0  0  0  0  0  0  0  0  0  0  0  0
   34.7450   32.5990   37.5530 N   0  0  0  0  0  0  0  0  0  0  0  0
   34.4230   33.4960   37.9290 H   0  0  0  0  0  0  0  0  0  0  0  0
   35.7420   32.3320   37.7070 H   0  0  0  0  0  0  0  0  0  0  0  0
   36.6830   27.3420   32.7600 C   0  0  0  0  0  0  0  0  0  0  0  0
   37.5780   26.8610   33.7030 C   0  0  0  0  0  0  0  0  0  0  0  0
   37.8310   25.4950   33.7550 C   0  0  0  0  0  0  0  0  0  0  0  0
   37.1660   24.6670   32.8460 N   0  0  0  0  0  0  0  0  0  0  0  0
   36.3050   25.1750   31.9450 C   0  0  0  0  0  0  0  0  0  0  0  0
   36.0980   26.4890   31.9370 N   0  0  0  0  0  0  0  0  0  0  0  0
   38.2100   27.2460   34.4910 H   0  0  0  0  0  0  0  0  0  0  0  0
   38.4540   24.8880   34.3640 H   0  0  0  0  0  0  0  0  0  0  0  0
   35.6090   24.3150   30.9950 C   0  0  0  0  0  0  0  0  0  0  0  0
   35.0860   24.7300   30.1430 H   0  0  0  0  0  0  0  0  0  0  0  0
   35.6030   23.0590   31.1440 O   0  0  0  0  0  0  0  0  0  0  0  0
  1  7  1  1  0  0  0
  1  2  1  0  0  0  0
  2  8  1  0  0  0  0
  2  9  1  0  0  0  0
  3 10  1  6  0  0  0
  3  2  1  0  0  0  0
  3 19  1  0  0  0  0
  4 12  1  0  0  0  0
  4  3  1  0  0  0  0
  5 13  1  0  0  0  0
  5  6  1  0  0  0  0
  5  4  1  0  0  0  0
  6  1  1  0  0  0  0
 11  4  1  0  0  0  0
 14  5  1  0  0  0  0
 15  6  1  0  0  0  0
 16  6  1  0  0  0  0
 17 18  1  0  0  0  0
 18 23  1  0  0  0  0
 19 20  1  0  0  0  0
 19 18  2  0  0  0  0
 20 21  2  0  0  0  0
 21 25  1  0  0  0  0
 21 22  1  0  0  0  0
 22 26  1  0  0  0  0
 23 22  2  0  0  0  0
 23 27  1  0  0  0  0
 24 20  1  0  0  0  0
 27 29  1  0  0  0  0
 27 28  1  0  0  0  0
 30  1  1  0  0  0  0
 30 31  1  0  0  0  0
 31 32  2  0  0  0  0
 31 36  1  0  0  0  0
 32 37  1  0  0  0  0
 33 32  1  0  0  0  0
 34 33  2  0  0  0  0
 35 34  1  0  0  0  0
 35 30  2  0  0  0  0
 38 40  2  0  0  0  0
 38 34  1  0  0  0  0
 39 38  1  0  0  0  0
M  END
>  <minimizedAffinity>
-5.88707542

$$$$

 OpenBabel03272506033D

 40 42  0  0  1  0  0  0  0  0999 V2000
   39.4920   25.6600   32.3440 C   0  0  2  0  0  0  0  0  0  0  0  0
   39.7780   24.6970   33.4020 C   0  0  0  0  0  0  0  0  0  0  0  0
   40.0030   25.3760   34.7850 C   0  0  2  0  0  0  0  0  0  0  0  0
   41.0800   26.3360   34.7850 C   0  0  0  0  0  0  0  0  0  0  0  0
   41.1440   27.1890   33.5170 C   0  0  0  0  0  0  0  0  0  0  0  0
   39.8660   27.0970   32.7390 C   0  0  0  0  0  0  0  0  0  0  0  0
   40.1400   25.4920   31.4320 H   0  0  0  0  0  0  0  0  0  0  0  0
   40.8190   24.2670   33.2030 H   0  0  0  0  0  0  0  0  0  0  0  0
   39.1670   23.8540   33.6200 H   0  0  0  0  0  0  0  0  0  0  0  0
   39.0320   25.8070   35.1000 H   0  0  0  0  0  0  0  0  0  0  0  0
   41.0250   26.9620   35.6990 H   0  0  0  0  0  0  0  0  0  0  0  0
   42.0700   25.8420   34.8350 H   0  0  0  0  0  0  0  0  0  0  0  0
   42.0180   26.9940   32.8980 H   0  0  0  0  0  0  0  0  0  0  0  0
   41.2170   28.2410   33.8590 H   0  0  0  0  0  0  0  0  0  0  0  0
   39.0340   27.4310   33.3990 H   0  0  0  0  0  0  0  0  0  0  0  0
   39.9140   27.7760   31.8890 H   0  0  0  0  0  0  0  0  0  0  0  0
   37.9610   24.7980   36.8410 Cl  0  0  0  0  0  0  0  0  0  0  0  0
   39.4460   23.8930   36.7120 C   0  0  0  0  0  0  0  0  0  0  0  0
   40.2960   24.2220   35.6870 C   0  0  0  0  0  0  0  0  0  0  0  0
   41.4310   23.4320   35.6340 C   0  0  0  0  0  0  0  0  0  0  0  0
   41.6900   22.4110   36.5280 C   0  0  0  0  0  0  0  0  0  0  0  0
   40.7730   22.1410   37.5450 C   0  0  0  0  0  0  0  0  0  0  0  0
   39.6140   22.9100   37.6370 C   0  0  0  0  0  0  0  0  0  0  0  0
   42.1530   23.6230   34.8510 H   0  0  0  0  0  0  0  0  0  0  0  0
   42.6050   21.8500   36.4050 H   0  0  0  0  0  0  0  0  0  0  0  0
   40.9830   21.3400   38.2400 H   0  0  0  0  0  0  0  0  0  0  0  0
   38.6830   22.6340   38.6690 N   0  0  0  0  0  0  0  0  0  0  0  0
   38.2360   21.7400   38.8930 H   0  0  0  0  0  0  0  0  0  0  0  0
   38.4430   23.4630   39.2560 H   0  0  0  0  0  0  0  0  0  0  0  0
   38.1150   25.7040   31.8640 C   0  0  0  0  0  0  0  0  0  0  0  0
   37.6800   26.9660   31.4900 C   0  0  0  0  0  0  0  0  0  0  0  0
   36.3900   27.1120   30.9920 C   0  0  0  0  0  0  0  0  0  0  0  0
   35.5880   25.9720   30.8950 N   0  0  0  0  0  0  0  0  0  0  0  0
   36.0490   24.7640   31.2700 C   0  0  0  0  0  0  0  0  0  0  0  0
   37.2900   24.6780   31.7390 N   0  0  0  0  0  0  0  0  0  0  0  0
   38.0600   27.9770   31.4590 H   0  0  0  0  0  0  0  0  0  0  0  0
   35.8300   27.9450   30.6460 H   0  0  0  0  0  0  0  0  0  0  0  0
   35.2150   23.5730   31.1700 C   0  0  0  0  0  0  0  0  0  0  0  0
   34.3530   23.5470   30.5150 H   0  0  0  0  0  0  0  0  0  0  0  0
   35.4800   22.5390   31.8470 O   0  0  0  0  0  0  0  0  0  0  0  0
  1  7  1  6  0  0  0
  1  6  1  0  0  0  0
  1  2  1  0  0  0  0
  2  9  1  0  0  0  0
  2  3  1  0  0  0  0
  3  4  1  0  0  0  0
  3 10  1  1  0  0  0
  3 19  1  0  0  0  0
  4 12  1  0  0  0  0
  4 11  1  0  0  0  0
  5 14  1  0  0  0  0
  5  4  1  0  0  0  0
  6 15  1  0  0  0  0
  6  5  1  0  0  0  0
  8  2  1  0  0  0  0
 13  5  1  0  0  0  0
 16  6  1  0  0  0  0
 18 17  1  0  0  0  0
 18 23  1  0  0  0  0
 19 18  2  0  0  0  0
 20 19  1  0  0  0  0
 20 21  2  0  0  0  0
 21 22  1  0  0  0  0
 22 23  2  0  0  0  0
 22 26  1  0  0  0  0
 23 27  1  0  0  0  0
 24 20  1  0  0  0  0
 25 21  1  0  0  0  0
 27 28  1  0  0  0  0
 27 29  1  0  0  0  0
 30  1  1  0  0  0  0
 31 30  2  0  0  0  0
 32 31  1  0  0  0  0
 33 32  2  0  0  0  0
 33 34  1  0  0  0  0
 34 35  2  0  0  0  0
 35 30  1  0  0  0  0
 36 31  1  0  0  0  0
 37 32  1  0  0  0  0
 38 34  1  0  0  0  0
 38 40  2  0  0  0  0
 39 38  1  0  0  0  0
M  END
>  <minimizedAffinity>
-5.82349205

$$$$

 OpenBabel03272506033D

 40 42  0  0  1  0  0  0  0  0999 V2000
   35.2790   31.6560   36.0810 C   0  0  2  0  0  0  0  0  0  0  0  0
   35.8940   30.6100   35.2710 C   0  0  0  0  0  0  0  0  0  0  0  0
   34.9890   30.1580   34.0880 C   0  0  2  0  0  0  0  0  0  0  0  0
   33.7010   29.6620   34.5080 C   0  0  0  0  0  0  0  0  0  0  0  0
   33.0810   30.4580   35.6580 C   0  0  0  0  0  0  0  0  0  0  0  0
   33.7670   31.7780   35.8330 C   0  0  0  0  0  0  0  0  0  0  0  0
   35.3140   31.4130   37.1850 H   0  0  0  0  0  0  0  0  0  0  0  0
   35.9170   29.6560   35.9020 H   0  0  0  0  0  0  0  0  0  0  0  0
   36.8660   30.6840   34.8450 H   0  0  0  0  0  0  0  0  0  0  0  0
   34.9220   31.0090   33.3820 H   0  0  0  0  0  0  0  0  0  0  0  0
   33.0190   29.6030   33.6360 H   0  0  0  0  0  0  0  0  0  0  0  0
   33.7660   28.6260   34.8930 H   0  0  0  0  0  0  0  0  0  0  0  0
   33.0130   29.9020   36.5920 H   0  0  0  0  0  0  0  0  0  0  0  0
   32.0430   30.6920   35.3450 H   0  0  0  0  0  0  0  0  0  0  0  0
   33.6860   32.3400   34.8750 H   0  0  0  0  0  0  0  0  0  0  0  0
   33.2520   32.3510   36.6030 H   0  0  0  0  0  0  0  0  0  0  0  0
   35.0700   30.2390   31.1360 Cl  0  0  0  0  0  0  0  0  0  0  0  0
   35.8680   28.9960   32.0630 C   0  0  0  0  0  0  0  0  0  0  0  0
   35.8000   29.0900   33.4290 C   0  0  0  0  0  0  0  0  0  0  0  0
   36.4890   28.0870   34.0880 C   0  0  0  0  0  0  0  0  0  0  0  0
   37.1780   27.0820   33.4360 C   0  0  0  0  0  0  0  0  0  0  0  0
   37.1960   27.0570   32.0400 C   0  0  0  0  0  0  0  0  0  0  0  0
   36.5170   28.0490   31.3330 C   0  0  0  0  0  0  0  0  0  0  0  0
   36.4910   28.0890   35.1700 H   0  0  0  0  0  0  0  0  0  0  0  0
   37.6850   26.3410   34.0370 H   0  0  0  0  0  0  0  0  0  0  0  0
   37.7370   26.2680   31.5370 H   0  0  0  0  0  0  0  0  0  0  0  0
   36.5360   28.0230   29.9170 N   0  0  0  0  0  0  0  0  0  0  0  0
   37.3530   27.9910   29.2990 H   0  0  0  0  0  0  0  0  0  0  0  0
   35.5890   28.0410   29.4800 H   0  0  0  0  0  0  0  0  0  0  0  0
   35.8350   32.9970   35.9400 C   0  0  0  0  0  0  0  0  0  0  0  0
   34.9800   34.0150   36.3330 C   0  0  0  0  0  0  0  0  0  0  0  0
   35.4250   35.3310   36.2620 C   0  0  0  0  0  0  0  0  0  0  0  0
   36.7210   35.5640   35.7940 N   0  0  0  0  0  0  0  0  0  0  0  0
   37.5180   34.5470   35.4210 C   0  0  0  0  0  0  0  0  0  0  0  0
   37.0460   33.3060   35.5080 N   0  0  0  0  0  0  0  0  0  0  0  0
   33.9750   34.1270   36.7140 H   0  0  0  0  0  0  0  0  0  0  0  0
   34.9810   36.2670   36.4960 H   0  0  0  0  0  0  0  0  0  0  0  0
   38.8710   34.7870   34.9310 C   0  0  0  0  0  0  0  0  0  0  0  0
   39.0470   35.1250   33.9180 H   0  0  0  0  0  0  0  0  0  0  0  0
   39.8720   34.6070   35.6830 O   0  0  0  0  0  0  0  0  0  0  0  0
  1  7  1  1  0  0  0
  2  8  1  0  0  0  0
  2  1  1  0  0  0  0
  3 10  1  6  0  0  0
  3  4  1  0  0  0  0
  3  2  1  0  0  0  0
  4 12  1  0  0  0  0
  4  5  1  0  0  0  0
  5  6  1  0  0  0  0
  5 13  1  0  0  0  0
  6  1  1  0  0  0  0
  6 16  1  0  0  0  0
  9  2  1  0  0  0  0
 11  4  1  0  0  0  0
 14  5  1  0  0  0  0
 15  6  1  0  0  0  0
 17 18  1  0  0  0  0
 18 19  1  0  0  0  0
 19 20  2  0  0  0  0
 19  3  1  0  0  0  0
 20 24  1  0  0  0  0
 21 25  1  0  0  0  0
 21 20  1  0  0  0  0
 22 21  2  0  0  0  0
 23 22  1  0  0  0  0
 23 18  2  0  0  0  0
 26 22  1  0  0  0  0
 27 23  1  0  0  0  0
 28 27  1  0  0  0  0
 29 27  1  0  0  0  0
 30  1  1  0  0  0  0
 30 31  1  0  0  0  0
 31 36  1  0  0  0  0
 32 31  2  0  0  0  0
 32 37  1  0  0  0  0
 33 32  1  0  0  0  0
 34 35  1  0  0  0  0
 34 33  2  0  0  0  0
 35 30  2  0  0  0  0
 38 34  1  0  0  0  0
 38 40  2  0  0  0  0
 39 38  1  0  0  0  0
M  END
>  <minimizedAffinity>
-5.73001432

$$$$

 OpenBabel03272506033D

 40 42  0  0  1  0  0  0  0  0999 V2000
   40.1130   27.2560   33.6530 C   0  0  2  0  0  0  0  0  0  0  0  0
   39.8800   26.4800   34.8670 C   0  0  0  0  0  0  0  0  0  0  0  0
   39.2000   25.1090   34.5820 C   0  0  2  0  0  0  0  0  0  0  0  0
   37.9310   25.2280   33.9070 C   0  0  0  0  0  0  0  0  0  0  0  0
   37.9060   26.3100   32.8270 C   0  0  0  0  0  0  0  0  0  0  0  0
   39.2950   26.7380   32.4600 C   0  0  0  0  0  0  0  0  0  0  0  0
   39.7360   28.3180   33.7510 H   0  0  0  0  0  0  0  0  0  0  0  0
   39.0570   27.0090   35.4600 H   0  0  0  0  0  0  0  0  0  0  0  0
   40.6350   26.2550   35.5830 H   0  0  0  0  0  0  0  0  0  0  0  0
   39.9340   24.4890   34.0300 H   0  0  0  0  0  0  0  0  0  0  0  0
   37.6260   24.2400   33.5050 H   0  0  0  0  0  0  0  0  0  0  0  0
   37.1210   25.5160   34.6050 H   0  0  0  0  0  0  0  0  0  0  0  0
   37.2650   27.1570   33.0650 H   0  0  0  0  0  0  0  0  0  0  0  0
   37.4860   25.8300   31.9200 H   0  0  0  0  0  0  0  0  0  0  0  0
   39.8520   25.8410   32.1080 H   0  0  0  0  0  0  0  0  0  0  0  0
   39.2450   27.4480   31.6350 H   0  0  0  0  0  0  0  0  0  0  0  0
   41.0810   22.9340   35.2610 Cl  0  0  0  0  0  0  0  0  0  0  0  0
   39.8270   23.4650   36.3510 C   0  0  0  0  0  0  0  0  0  0  0  0
   39.0450   24.5160   35.9440 C   0  0  0  0  0  0  0  0  0  0  0  0
   38.1010   24.8990   36.8810 C   0  0  0  0  0  0  0  0  0  0  0  0
   37.9540   24.2810   38.1080 C   0  0  0  0  0  0  0  0  0  0  0  0
   38.7900   23.2150   38.4450 C   0  0  0  0  0  0  0  0  0  0  0  0
   39.7570   22.7960   37.5330 C   0  0  0  0  0  0  0  0  0  0  0  0
   37.4440   25.7250   36.6410 H   0  0  0  0  0  0  0  0  0  0  0  0
   37.1860   24.6510   38.7730 H   0  0  0  0  0  0  0  0  0  0  0  0
   38.6680   22.7370   39.4070 H   0  0  0  0  0  0  0  0  0  0  0  0
   40.6060   21.7150   37.8760 N   0  0  0  0  0  0  0  0  0  0  0  0
   41.1940   21.6150   38.7090 H   0  0  0  0  0  0  0  0  0  0  0  0
   40.6130   20.9420   37.1740 H   0  0  0  0  0  0  0  0  0  0  0  0
   41.4970   27.3520   33.2020 C   0  0  0  0  0  0  0  0  0  0  0  0
   42.4160   26.7500   34.0470 C   0  0  0  0  0  0  0  0  0  0  0  0
   43.7610   26.7630   33.6950 C   0  0  0  0  0  0  0  0  0  0  0  0
   44.1230   27.3870   32.4980 N   0  0  0  0  0  0  0  0  0  0  0  0
   43.1980   27.9600   31.7060 C   0  0  0  0  0  0  0  0  0  0  0  0
   41.9250   27.9200   32.0880 N   0  0  0  0  0  0  0  0  0  0  0  0
   42.4260   26.2230   34.9910 H   0  0  0  0  0  0  0  0  0  0  0  0
   44.6420   26.3840   34.1530 H   0  0  0  0  0  0  0  0  0  0  0  0
   43.5720   28.6120   30.4560 C   0  0  0  0  0  0  0  0  0  0  0  0
   44.2460   28.1340   29.7560 H   0  0  0  0  0  0  0  0  0  0  0  0
   43.1160   29.7530   30.1600 O   0  0  0  0  0  0  0  0  0  0  0  0
  1  7  1  1  0  0  0
  1  2  1  0  0  0  0
  2  8  1  0  0  0  0
  2  9  1  0  0  0  0
  3 10  1  6  0  0  0
  3  2  1  0  0  0  0
  3 19  1  0  0  0  0
  4  3  1  0  0  0  0
  4 12  1  0  0  0  0
  5 13  1  0  0  0  0
  5  4  1  0  0  0  0
  6  5  1  0  0  0  0
  6  1  1  0  0  0  0
 11  4  1  0  0  0  0
 14  5  1  0  0  0  0
 15  6  1  0  0  0  0
 16  6  1  0  0  0  0
 17 18  1  0  0  0  0
 18 23  1  0  0  0  0
 19 18  2  0  0  0  0
 19 20  1  0  0  0  0
 20 21  2  0  0  0  0
 21 22  1  0  0  0  0
 21 25  1  0  0  0  0
 22 26  1  0  0  0  0
 23 27  1  0  0  0  0
 23 22  2  0  0  0  0
 24 20  1  0  0  0  0
 27 28  1  0  0  0  0
 29 27  1  0  0  0  0
 30  1  1  0  0  0  0
 30 31  1  0  0  0  0
 31 36  1  0  0  0  0
 32 31  2  0  0  0  0
 32 37  1  0  0  0  0
 33 32  1  0  0  0  0
 34 35  1  0  0  0  0
 34 33  2  0  0  0  0
 35 30  2  0  0  0  0
 38 34  1  0  0  0  0
 39 38  1  0  0  0  0
 40 38  2  0  0  0  0
M  END
>  <minimizedAffinity>
-5.66020489

$$$$

 OpenBabel03272506033D

 40 42  0  0  1  0  0  0  0  0999 V2000
   36.5400   28.7580   32.7850 C   0  0  2  0  0  0  0  0  0  0  0  0
   35.8880   29.3550   33.9450 C   0  0  0  0  0  0  0  0  0  0  0  0
   34.3970   29.7160   33.6760 C   0  0  2  0  0  0  0  0  0  0  0  0
   34.2180   30.6310   32.5750 C   0  0  0  0  0  0  0  0  0  0  0  0
   35.1440   30.3550   31.3890 C   0  0  0  0  0  0  0  0  0  0  0  0
   35.7520   28.9890   31.4850 C   0  0  0  0  0  0  0  0  0  0  0  0
   37.5270   29.2580   32.5500 H   0  0  0  0  0  0  0  0  0  0  0  0
   36.3370   30.3970   34.0940 H   0  0  0  0  0  0  0  0  0  0  0  0
   35.8800   28.9160   34.9140 H   0  0  0  0  0  0  0  0  0  0  0  0
   33.8470   28.7630   33.5470 H   0  0  0  0  0  0  0  0  0  0  0  0
   33.1520   30.6460   32.2690 H   0  0  0  0  0  0  0  0  0  0  0  0
   34.4470   31.6740   32.8670 H   0  0  0  0  0  0  0  0  0  0  0  0
   35.8920   31.1280   31.2250 H   0  0  0  0  0  0  0  0  0  0  0  0
   34.4950   30.3370   30.4910 H   0  0  0  0  0  0  0  0  0  0  0  0
   34.9260   28.2440   31.5230 H   0  0  0  0  0  0  0  0  0  0  0  0
   36.3400   28.7950   30.5890 H   0  0  0  0  0  0  0  0  0  0  0  0
   31.7500   28.8500   34.6620 Cl  0  0  0  0  0  0  0  0  0  0  0  0
   32.7220   30.0320   35.4970 C   0  0  0  0  0  0  0  0  0  0  0  0
   33.9550   30.3190   34.9690 C   0  0  0  0  0  0  0  0  0  0  0  0
   34.6750   31.2380   35.7120 C   0  0  0  0  0  0  0  0  0  0  0  0
   34.2000   31.8160   36.8730 C   0  0  0  0  0  0  0  0  0  0  0  0
   32.9320   31.4720   37.3430 C   0  0  0  0  0  0  0  0  0  0  0  0
   32.1700   30.5490   36.6280 C   0  0  0  0  0  0  0  0  0  0  0  0
   35.6620   31.5170   35.3670 H   0  0  0  0  0  0  0  0  0  0  0  0
   34.8370   32.5260   37.3840 H   0  0  0  0  0  0  0  0  0  0  0  0
   32.5680   31.9290   38.2520 H   0  0  0  0  0  0  0  0  0  0  0  0
   30.8830   30.1980   37.1060 N   0  0  0  0  0  0  0  0  0  0  0  0
   30.6300   29.8490   38.0360 H   0  0  0  0  0  0  0  0  0  0  0  0
   30.1220   30.3200   36.4030 H   0  0  0  0  0  0  0  0  0  0  0  0
   36.8130   27.3270   32.8600 C   0  0  0  0  0  0  0  0  0  0  0  0
   37.4810   26.9330   34.0090 C   0  0  0  0  0  0  0  0  0  0  0  0
   37.7660   25.5850   34.1910 C   0  0  0  0  0  0  0  0  0  0  0  0
   37.3640   24.6860   33.1980 N   0  0  0  0  0  0  0  0  0  0  0  0
   36.7180   25.1110   32.0970 C   0  0  0  0  0  0  0  0  0  0  0  0
   36.4690   26.4120   31.9710 N   0  0  0  0  0  0  0  0  0  0  0  0
   37.8960   27.3830   34.9000 H   0  0  0  0  0  0  0  0  0  0  0  0
   38.2530   25.0370   34.9590 H   0  0  0  0  0  0  0  0  0  0  0  0
   36.2970   24.1770   31.0600 C   0  0  0  0  0  0  0  0  0  0  0  0
   36.6740   24.2580   30.0480 H   0  0  0  0  0  0  0  0  0  0  0  0
   35.4820   23.2460   31.3200 O   0  0  0  0  0  0  0  0  0  0  0  0
  1  7  1  6  0  0  0
  1 30  1  0  0  0  0
  1  2  1  0  0  0  0
  2  8  1  0  0  0  0
  2  9  1  0  0  0  0
  3 10  1  6  0  0  0
  3  2  1  0  0  0  0
  3 19  1  0  0  0  0
  4 12  1  0  0  0  0
  4  3  1  0  0  0  0
  5  6  1  0  0  0  0
  5  4  1  0  0  0  0
  6 15  1  0  0  0  0
  6  1  1  0  0  0  0
 11  4  1  0  0  0  0
 13  5  1  0  0  0  0
 14  5  1  0  0  0  0
 16  6  1  0  0  0  0
 17 18  1  0  0  0  0
 18 23  1  0  0  0  0
 19 18  2  0  0  0  0
 19 20  1  0  0  0  0
 20 21  2  0  0  0  0
 21 22  1  0  0  0  0
 21 25  1  0  0  0  0
 22 26  1  0  0  0  0
 23 27  1  0  0  0  0
 23 22  2  0  0  0  0
 24 20  1  0  0  0  0
 27 28  1  0  0  0  0
 29 27  1  0  0  0  0
 30 31  1  0  0  0  0
 31 32  2  0  0  0  0
 31 36  1  0  0  0  0
 32 37  1  0  0  0  0
 33 32  1  0  0  0  0
 34 33  2  0  0  0  0
 35 34  1  0  0  0  0
 35 30  2  0  0  0  0
 38 40  2  0  0  0  0
 38 34  1  0  0  0  0
 39 38  1  0  0  0  0
M  END
>  <minimizedAffinity>
-5.62308836

$$$$

 OpenBabel03272506033D

 40 42  0  0  1  0  0  0  0  0999 V2000
   37.5560   26.8820   33.1240 C   0  0  2  0  0  0  0  0  0  0  0  0
   39.0050   26.7160   33.1780 C   0  0  0  0  0  0  0  0  0  0  0  0
   39.5060   26.2810   34.5870 C   0  0  2  0  0  0  0  0  0  0  0  0
   39.1480   27.2070   35.6330 C   0  0  0  0  0  0  0  0  0  0  0  0
   37.7390   27.7840   35.4900 C   0  0  0  0  0  0  0  0  0  0  0  0
   36.9240   26.9830   34.5200 C   0  0  0  0  0  0  0  0  0  0  0  0
   37.2610   27.8710   32.6620 H   0  0  0  0  0  0  0  0  0  0  0  0
   39.4730   27.7560   33.0950 H   0  0  0  0  0  0  0  0  0  0  0  0
   39.5590   26.1080   32.5030 H   0  0  0  0  0  0  0  0  0  0  0  0
   39.1330   25.2540   34.7650 H   0  0  0  0  0  0  0  0  0  0  0  0
   39.2970   26.7300   36.6240 H   0  0  0  0  0  0  0  0  0  0  0  0
   39.8100   28.0950   35.6400 H   0  0  0  0  0  0  0  0  0  0  0  0
   37.7190   28.8490   35.2620 H   0  0  0  0  0  0  0  0  0  0  0  0
   37.2520   27.6560   36.4770 H   0  0  0  0  0  0  0  0  0  0  0  0
   36.8850   25.9320   34.8860 H   0  0  0  0  0  0  0  0  0  0  0  0
   35.9060   27.3700   34.5020 H   0  0  0  0  0  0  0  0  0  0  0  0
   40.7960   23.8480   35.6560 Cl  0  0  0  0  0  0  0  0  0  0  0  0
   41.7000   25.1400   34.9130 C   0  0  0  0  0  0  0  0  0  0  0  0
   40.9870   26.1980   34.4100 C   0  0  0  0  0  0  0  0  0  0  0  0
   41.7760   27.1610   33.8040 C   0  0  0  0  0  0  0  0  0  0  0  0
   43.1520   27.0700   33.7160 C   0  0  0  0  0  0  0  0  0  0  0  0
   43.8030   25.9600   34.2560 C   0  0  0  0  0  0  0  0  0  0  0  0
   43.0490   24.9640   34.8750 C   0  0  0  0  0  0  0  0  0  0  0  0
   41.2920   28.0280   33.3760 H   0  0  0  0  0  0  0  0  0  0  0  0
   43.6830   27.8740   33.2250 H   0  0  0  0  0  0  0  0  0  0  0  0
   44.8800   25.8970   34.1830 H   0  0  0  0  0  0  0  0  0  0  0  0
   43.7100   23.8370   35.4210 N   0  0  0  0  0  0  0  0  0  0  0  0
   44.3630   23.2010   34.9540 H   0  0  0  0  0  0  0  0  0  0  0  0
   43.4830   23.6570   36.4240 H   0  0  0  0  0  0  0  0  0  0  0  0
   36.8130   25.8540   32.4020 C   0  0  0  0  0  0  0  0  0  0  0  0
   35.8290   26.3480   31.5590 C   0  0  0  0  0  0  0  0  0  0  0  0
   35.0800   25.4520   30.8040 C   0  0  0  0  0  0  0  0  0  0  0  0
   35.3570   24.0880   30.9340 N   0  0  0  0  0  0  0  0  0  0  0  0
   36.3210   23.6510   31.7650 C   0  0  0  0  0  0  0  0  0  0  0  0
   37.0100   24.5490   32.4650 N   0  0  0  0  0  0  0  0  0  0  0  0
   35.4120   27.3020   31.2710 H   0  0  0  0  0  0  0  0  0  0  0  0
   34.2910   25.5660   30.1030 H   0  0  0  0  0  0  0  0  0  0  0  0
   36.6130   22.2290   31.9030 C   0  0  0  0  0  0  0  0  0  0  0  0
   37.2070   21.7060   31.1640 H   0  0  0  0  0  0  0  0  0  0  0  0
   36.1780   21.5730   32.8920 O   0  0  0  0  0  0  0  0  0  0  0  0
  1  7  1  6  0  0  0
  1  2  1  0  0  0  0
  1  6  1  0  0  0  0
  2  3  1  0  0  0  0
  3 10  1  1  0  0  0
  3  4  1  0  0  0  0
  4 12  1  0  0  0  0
  4 11  1  0  0  0  0
  5  4  1  0  0  0  0
  5 14  1  0  0  0  0
  6 15  1  0  0  0  0
  6  5  1  0  0  0  0
  8  2  1  0  0  0  0
  9  2  1  0  0  0  0
 13  5  1  0  0  0  0
 16  6  1  0  0  0  0
 18 17  1  0  0  0  0
 19  3  1  0  0  0  0
 19 18  2  0  0  0  0
 20 19  1  0  0  0  0
 21 20  2  0  0  0  0
 21 22  1  0  0  0  0
 22 23  2  0  0  0  0
 23 18  1  0  0  0  0
 23 27  1  0  0  0  0
 24 20  1  0  0  0  0
 25 21  1  0  0  0  0
 26 22  1  0  0  0  0
 27 29  1  0  0  0  0
 28 27  1  0  0  0  0
 30 35  1  0  0  0  0
 30  1  1  0  0  0  0
 31 30  2  0  0  0  0
 32 33  2  0  0  0  0
 32 31  1  0  0  0  0
 33 34  1  0  0  0  0
 34 38  1  0  0  0  0
 34 35  2  0  0  0  0
 36 31  1  0  0  0  0
 37 32  1  0  0  0  0
 38 40  2  0  0  0  0
 39 38  1  0  0  0  0
M  END
>  <minimizedAffinity>
-5.58025455

$$$$

 OpenBabel03272506033D

 40 42  0  0  1  0  0  0  0  0999 V2000
   38.9360   25.9790   35.3040 C   0  0  2  0  0  0  0  0  0  0  0  0
   38.1980   26.7490   34.3080 C   0  0  0  0  0  0  0  0  0  0  0  0
   38.9150   26.7840   32.9260 C   0  0  2  0  0  0  0  0  0  0  0  0
   40.2460   27.3370   32.9850 C   0  0  0  0  0  0  0  0  0  0  0  0
   41.0360   26.9100   34.2240 C   0  0  0  0  0  0  0  0  0  0  0  0
   40.3960   25.7320   34.8930 C   0  0  0  0  0  0  0  0  0  0  0  0
   39.0600   26.5500   36.2730 H   0  0  0  0  0  0  0  0  0  0  0  0
   38.2590   27.8500   34.6100 H   0  0  0  0  0  0  0  0  0  0  0  0
   37.1750   26.5840   34.0680 H   0  0  0  0  0  0  0  0  0  0  0  0
   38.8860   25.7560   32.5150 H   0  0  0  0  0  0  0  0  0  0  0  0
   40.7930   27.1010   32.0490 H   0  0  0  0  0  0  0  0  0  0  0  0
   40.2290   28.4430   33.0370 H   0  0  0  0  0  0  0  0  0  0  0  0
   41.2350   27.7220   34.9210 H   0  0  0  0  0  0  0  0  0  0  0  0
   42.0190   26.5540   33.8530 H   0  0  0  0  0  0  0  0  0  0  0  0
   40.3400   24.9010   34.1530 H   0  0  0  0  0  0  0  0  0  0  0  0
   41.0240   25.4050   35.7200 H   0  0  0  0  0  0  0  0  0  0  0  0
   39.2520   26.5380   30.0010 Cl  0  0  0  0  0  0  0  0  0  0  0  0
   38.1070   27.6370   30.7250 C   0  0  0  0  0  0  0  0  0  0  0  0
   38.0060   27.6280   32.0930 C   0  0  0  0  0  0  0  0  0  0  0  0
   37.0510   28.5000   32.5840 C   0  0  0  0  0  0  0  0  0  0  0  0
   36.2720   29.3070   31.7770 C   0  0  0  0  0  0  0  0  0  0  0  0
   36.4380   29.2570   30.3920 C   0  0  0  0  0  0  0  0  0  0  0  0
   37.3890   28.3920   29.8520 C   0  0  0  0  0  0  0  0  0  0  0  0
   36.9030   28.5520   33.6540 H   0  0  0  0  0  0  0  0  0  0  0  0
   35.5520   29.9570   32.2530 H   0  0  0  0  0  0  0  0  0  0  0  0
   35.8250   29.8920   29.7670 H   0  0  0  0  0  0  0  0  0  0  0  0
   37.5560   28.3410   28.4460 N   0  0  0  0  0  0  0  0  0  0  0  0
   36.8410   28.1740   27.7310 H   0  0  0  0  0  0  0  0  0  0  0  0
   38.5380   28.4960   28.1300 H   0  0  0  0  0  0  0  0  0  0  0  0
   38.3770   24.6810   35.6630 C   0  0  0  0  0  0  0  0  0  0  0  0
   38.1500   24.5120   37.0210 C   0  0  0  0  0  0  0  0  0  0  0  0
   37.5940   23.3180   37.4660 C   0  0  0  0  0  0  0  0  0  0  0  0
   37.2900   22.3380   36.5160 N   0  0  0  0  0  0  0  0  0  0  0  0
   37.5270   22.5420   35.2080 C   0  0  0  0  0  0  0  0  0  0  0  0
   38.0600   23.7020   34.8330 N   0  0  0  0  0  0  0  0  0  0  0  0
   38.2830   25.0660   37.9390 H   0  0  0  0  0  0  0  0  0  0  0  0
   37.3280   22.9470   38.4250 H   0  0  0  0  0  0  0  0  0  0  0  0
   37.2100   21.5220   34.2150 C   0  0  0  0  0  0  0  0  0  0  0  0
   37.9120   21.2690   33.4300 H   0  0  0  0  0  0  0  0  0  0  0  0
   36.1060   20.9080   34.2480 O   0  0  0  0  0  0  0  0  0  0  0  0
  1 30  1  0  0  0  0
  1  7  1  1  0  0  0
  2  8  1  0  0  0  0
  2  1  1  0  0  0  0
  3 10  1  6  0  0  0
  3  4  1  0  0  0  0
  3  2  1  0  0  0  0
  4 12  1  0  0  0  0
  4  5  1  0  0  0  0
  5  6  1  0  0  0  0
  5 13  1  0  0  0  0
  6  1  1  0  0  0  0
  6 16  1  0  0  0  0
  9  2  1  0  0  0  0
 11  4  1  0  0  0  0
 14  5  1  0  0  0  0
 15  6  1  0  0  0  0
 17 18  1  0  0  0  0
 18 19  1  0  0  0  0
 19 20  2  0  0  0  0
 19  3  1  0  0  0  0
 20 24  1  0  0  0  0
 21 25  1  0  0  0  0
 21 20  1  0  0  0  0
 22 21  2  0  0  0  0
 23 22  1  0  0  0  0
 23 18  2  0  0  0  0
 26 22  1  0  0  0  0
 27 23  1  0  0  0  0
 28 27  1  0  0  0  0
 29 27  1  0  0  0  0
 30 31  1  0  0  0  0
 31 32  2  0  0  0  0
 31 36  1  0  0  0  0
 32 37  1  0  0  0  0
 33 32  1  0  0  0  0
 34 33  2  0  0  0  0
 35 34  1  0  0  0  0
 35 30  2  0  0  0  0
 38 40  2  0  0  0  0
 38 34  1  0  0  0  0
 39 38  1  0  0  0  0
M  END
>  <minimizedAffinity>
-5.56688738

$$$$

 OpenBabel03272506033D

 40 42  0  0  1  0  0  0  0  0999 V2000
   36.8650   28.2000   32.1270 C   0  0  2  0  0  0  0  0  0  0  0  0
   36.3600   28.8830   33.3130 C   0  0  0  0  0  0  0  0  0  0  0  0
   35.1510   29.8130   32.9990 C   0  0  2  0  0  0  0  0  0  0  0  0
   35.4500   30.8310   32.0210 C   0  0  0  0  0  0  0  0  0  0  0  0
   36.3310   30.3400   30.8710 C   0  0  0  0  0  0  0  0  0  0  0  0
   36.3700   28.8430   30.8220 C   0  0  0  0  0  0  0  0  0  0  0  0
   37.9880   28.3020   32.0260 H   0  0  0  0  0  0  0  0  0  0  0  0
   37.1460   29.6510   33.6280 H   0  0  0  0  0  0  0  0  0  0  0  0
   36.0810   28.3860   34.2120 H   0  0  0  0  0  0  0  0  0  0  0  0
   34.3030   29.1630   32.7090 H   0  0  0  0  0  0  0  0  0  0  0  0
   34.5080   31.2850   31.6510 H   0  0  0  0  0  0  0  0  0  0  0  0
   36.0190   31.6720   32.4640 H   0  0  0  0  0  0  0  0  0  0  0  0
   37.3270   30.7780   30.8600 H   0  0  0  0  0  0  0  0  0  0  0  0
   35.8250   30.6620   29.9380 H   0  0  0  0  0  0  0  0  0  0  0  0
   35.3260   28.4720   30.7070 H   0  0  0  0  0  0  0  0  0  0  0  0
   36.9370   28.5270   29.9480 H   0  0  0  0  0  0  0  0  0  0  0  0
   32.3970   29.3680   33.9700 Cl  0  0  0  0  0  0  0  0  0  0  0  0
   33.5640   30.3120   34.8570 C   0  0  0  0  0  0  0  0  0  0  0  0
   34.8260   30.4090   34.3300 C   0  0  0  0  0  0  0  0  0  0  0  0
   35.6990   31.1430   35.1130 C   0  0  0  0  0  0  0  0  0  0  0  0
   35.3380   31.7280   36.3110 C   0  0  0  0  0  0  0  0  0  0  0  0
   34.0300   31.5840   36.7790 C   0  0  0  0  0  0  0  0  0  0  0  0
   33.1150   30.8510   36.0230 C   0  0  0  0  0  0  0  0  0  0  0  0
   36.7190   31.2650   34.7710 H   0  0  0  0  0  0  0  0  0  0  0  0
   36.0900   32.2840   36.8520 H   0  0  0  0  0  0  0  0  0  0  0  0
   33.7550   32.0450   37.7170 H   0  0  0  0  0  0  0  0  0  0  0  0
   31.7890   30.7040   36.4980 N   0  0  0  0  0  0  0  0  0  0  0  0
   31.4810   30.3520   37.4100 H   0  0  0  0  0  0  0  0  0  0  0  0
   31.0590   30.9980   35.8140 H   0  0  0  0  0  0  0  0  0  0  0  0
   36.5740   26.7740   32.0280 C   0  0  0  0  0  0  0  0  0  0  0  0
   35.4960   26.4670   31.2120 C   0  0  0  0  0  0  0  0  0  0  0  0
   35.1510   25.1320   31.0290 C   0  0  0  0  0  0  0  0  0  0  0  0
   35.9120   24.1590   31.6820 N   0  0  0  0  0  0  0  0  0  0  0  0
   36.9510   24.5000   32.4660 C   0  0  0  0  0  0  0  0  0  0  0  0
   37.2400   25.7910   32.6080 N   0  0  0  0  0  0  0  0  0  0  0  0
   34.7600   26.9840   30.6130 H   0  0  0  0  0  0  0  0  0  0  0  0
   34.3910   24.6430   30.4710 H   0  0  0  0  0  0  0  0  0  0  0  0
   37.7480   23.4870   33.1480 C   0  0  0  0  0  0  0  0  0  0  0  0
   38.0620   22.5860   32.6380 H   0  0  0  0  0  0  0  0  0  0  0  0
   38.0930   23.6400   34.3550 O   0  0  0  0  0  0  0  0  0  0  0  0
  1  7  1  1  0  0  0
  1  2  1  0  0  0  0
  2  8  1  0  0  0  0
  2  9  1  0  0  0  0
  3 10  1  6  0  0  0
  3  2  1  0  0  0  0
  3 19  1  0  0  0  0
  4 12  1  0  0  0  0
  4  3  1  0  0  0  0
  5  4  1  0  0  0  0
  6  5  1  0  0  0  0
  6  1  1  0  0  0  0
 11  4  1  0  0  0  0
 13  5  1  0  0  0  0
 14  5  1  0  0  0  0
 15  6  1  0  0  0  0
 16  6  1  0  0  0  0
 17 18  1  0  0  0  0
 18 23  1  0  0  0  0
 19 18  2  0  0  0  0
 19 20  1  0  0  0  0
 20 21  2  0  0  0  0
 21 22  1  0  0  0  0
 21 25  1  0  0  0  0
 22 26  1  0  0  0  0
 23 27  1  0  0  0  0
 23 22  2  0  0  0  0
 24 20  1  0  0  0  0
 27 28  1  0  0  0  0
 29 27  1  0  0  0  0
 30  1  1  0  0  0  0
 30 35  1  0  0  0  0
 31 30  2  0  0  0  0
 32 31  1  0  0  0  0
 32 33  2  0  0  0  0
 33 34  1  0  0  0  0
 34 35  2  0  0  0  0
 34 38  1  0  0  0  0
 36 31  1  0  0  0  0
 37 32  1  0  0  0  0
 38 40  2  0  0  0  0
 39 38  1  0  0  0  0
M  END
>  <minimizedAffinity>
-5.53748989

$$$$
