
 OpenBabel03272509293D

 28 29  0  0  1  0  0  0  0  0999 V2000
   39.1800   25.6170   34.6920 C   0  0  2  0  0  0  0  0  0  0  0  0
   39.1870   26.9610   35.3920 C   0  0  0  0  0  0  0  0  0  0  0  0
   37.8190   27.5650   35.5290 C   0  0  0  0  0  0  0  0  0  0  0  0
   37.0840   27.6650   34.2220 C   0  0  0  0  0  0  0  0  0  0  0  0
   37.2870   26.4780   33.3290 C   0  0  0  0  0  0  0  0  0  0  0  0
   37.8640   25.2910   34.0750 C   0  0  1  0  0  0  0  0  0  0  0  0
   40.0000   25.5630   33.9400 H   0  0  0  0  0  0  0  0  0  0  0  0
   39.7510   27.6590   34.7110 H   0  0  0  0  0  0  0  0  0  0  0  0
   39.6620   26.9650   36.3720 H   0  0  0  0  0  0  0  0  0  0  0  0
   37.2710   26.9550   36.2660 H   0  0  0  0  0  0  0  0  0  0  0  0
   37.9910   28.6010   35.9210 H   0  0  0  0  0  0  0  0  0  0  0  0
   37.2610   28.6410   33.7000 H   0  0  0  0  0  0  0  0  0  0  0  0
   35.9860   27.6960   34.4850 H   0  0  0  0  0  0  0  0  0  0  0  0
   36.3940   26.1780   32.7570 H   0  0  0  0  0  0  0  0  0  0  0  0
   38.0920   26.7710   32.5970 H   0  0  0  0  0  0  0  0  0  0  0  0
   37.1160   24.9320   34.8020 H   0  0  0  0  0  0  0  0  0  0  0  0
   39.5080   24.5390   35.6740 C   0  0  0  0  0  0  0  0  0  0  0  0
   38.5430   24.2710   36.6620 C   0  0  0  0  0  0  0  0  0  0  0  0
   38.8450   23.2760   37.5830 C   0  0  0  0  0  0  0  0  0  0  0  0
   40.0470   22.6040   37.4990 N   0  0  0  0  0  0  0  0  0  0  0  0
   40.9540   22.9020   36.5190 C   0  0  0  0  0  0  0  0  0  0  0  0
   40.6670   23.8600   35.6290 N   0  0  0  0  0  0  0  0  0  0  0  0
   37.5950   24.7590   36.7790 H   0  0  0  0  0  0  0  0  0  0  0  0
   38.1920   22.9800   38.3790 H   0  0  0  0  0  0  0  0  0  0  0  0
   41.8770   22.3440   36.5030 H   0  0  0  0  0  0  0  0  0  0  0  0
   38.0470   24.2220   33.0300 C   0  0  0  0  0  0  0  0  0  0  0  0
   38.7180   24.4450   32.1830 H   0  0  0  0  0  0  0  0  0  0  0  0
   37.4300   23.1630   33.1950 O   0  0  0  0  0  0  0  0  0  0  0  0
  1  7  1  6  0  0  0
  1  2  1  0  0  0  0
  1 17  1  0  0  0  0
  2  3  1  0  0  0  0
  2  9  1  0  0  0  0
  3 11  1  0  0  0  0
  3 10  1  0  0  0  0
  4 13  1  0  0  0  0
  4  3  1  0  0  0  0
  5  6  1  0  0  0  0
  5  4  1  0  0  0  0
  6  1  1  0  0  0  0
  6 16  1  1  0  0  0
  8  2  1  0  0  0  0
 12  4  1  0  0  0  0
 14  5  1  0  0  0  0
 15  5  1  0  0  0  0
 17 18  1  0  0  0  0
 18 23  1  0  0  0  0
 18 19  2  0  0  0  0
 19 24  1  0  0  0  0
 20 19  1  0  0  0  0
 21 20  2  0  0  0  0
 22 17  2  0  0  0  0
 22 21  1  0  0  0  0
 25 21  1  0  0  0  0
 26 28  2  0  0  0  0
 26  6  1  0  0  0  0
 27 26  1  0  0  0  0
M  END
>  <minimizedAffinity>
-4.11191607

$$$$

 OpenBabel03272509293D

 28 29  0  0  1  0  0  0  0  0999 V2000
   37.7720   26.7270   33.2570 C   0  0  2  0  0  0  0  0  0  0  0  0
   38.9260   25.9240   33.8220 C   0  0  0  0  0  0  0  0  0  0  0  0
   38.8360   25.7220   35.3070 C   0  0  0  0  0  0  0  0  0  0  0  0
   38.6750   27.0080   36.0700 C   0  0  0  0  0  0  0  0  0  0  0  0
   37.7690   27.9940   35.3960 C   0  0  0  0  0  0  0  0  0  0  0  0
   36.9260   27.3510   34.3120 C   0  0  1  0  0  0  0  0  0  0  0  0
   38.1440   27.4930   32.5360 H   0  0  0  0  0  0  0  0  0  0  0  0
   39.8450   26.5560   33.6660 H   0  0  0  0  0  0  0  0  0  0  0  0
   39.0820   24.9540   33.3540 H   0  0  0  0  0  0  0  0  0  0  0  0
   37.9980   25.0290   35.4860 H   0  0  0  0  0  0  0  0  0  0  0  0
   39.8100   25.2530   35.6020 H   0  0  0  0  0  0  0  0  0  0  0  0
   39.6560   27.4540   36.3760 H   0  0  0  0  0  0  0  0  0  0  0  0
   38.1890   26.7290   37.0500 H   0  0  0  0  0  0  0  0  0  0  0  0
   37.1340   28.5760   36.0850 H   0  0  0  0  0  0  0  0  0  0  0  0
   38.4400   28.7120   34.8450 H   0  0  0  0  0  0  0  0  0  0  0  0
   36.2220   26.6450   34.7830 H   0  0  0  0  0  0  0  0  0  0  0  0
   36.9000   25.8380   32.4320 C   0  0  0  0  0  0  0  0  0  0  0  0
   37.1330   24.4540   32.5340 C   0  0  0  0  0  0  0  0  0  0  0  0
   36.3320   23.6220   31.7650 C   0  0  0  0  0  0  0  0  0  0  0  0
   35.3600   24.1650   30.9490 N   0  0  0  0  0  0  0  0  0  0  0  0
   35.1720   25.5190   30.8830 C   0  0  0  0  0  0  0  0  0  0  0  0
   35.9430   26.3250   31.6240 N   0  0  0  0  0  0  0  0  0  0  0  0
   37.8720   23.9740   33.1470 H   0  0  0  0  0  0  0  0  0  0  0  0
   36.4120   22.5530   31.7570 H   0  0  0  0  0  0  0  0  0  0  0  0
   34.3990   25.8860   30.2280 H   0  0  0  0  0  0  0  0  0  0  0  0
   36.1250   28.4790   33.7170 C   0  0  0  0  0  0  0  0  0  0  0  0
   36.3810   28.8030   32.6940 H   0  0  0  0  0  0  0  0  0  0  0  0
   35.2310   28.9650   34.4200 O   0  0  0  0  0  0  0  0  0  0  0  0
  1  7  1  6  0  0  0
  1  2  1  0  0  0  0
  1  6  1  0  0  0  0
  2  3  1  0  0  0  0
  3 10  1  0  0  0  0
  3 11  1  0  0  0  0
  3  4  1  0  0  0  0
  4 12  1  0  0  0  0
  4 13  1  0  0  0  0
  5  4  1  0  0  0  0
  5 14  1  0  0  0  0
  6 16  1  1  0  0  0
  6  5  1  0  0  0  0
  8  2  1  0  0  0  0
  9  2  1  0  0  0  0
 15  5  1  0  0  0  0
 17 18  1  0  0  0  0
 17  1  1  0  0  0  0
 18 23  1  0  0  0  0
 19 18  2  0  0  0  0
 20 19  1  0  0  0  0
 21 20  2  0  0  0  0
 21 22  1  0  0  0  0
 22 17  2  0  0  0  0
 24 19  1  0  0  0  0
 25 21  1  0  0  0  0
 26  6  1  0  0  0  0
 26 28  2  0  0  0  0
 27 26  1  0  0  0  0
M  END
>  <minimizedAffinity>
-4.09696436

$$$$

 OpenBabel03272509293D

 28 29  0  0  1  0  0  0  0  0999 V2000
   39.2420   25.4590   34.7140 C   0  0  2  0  0  0  0  0  0  0  0  0
   39.3880   26.8260   35.3520 C   0  0  0  0  0  0  0  0  0  0  0  0
   38.0730   27.4930   35.6310 C   0  0  0  0  0  0  0  0  0  0  0  0
   37.1850   27.5770   34.4200 C   0  0  0  0  0  0  0  0  0  0  0  0
   37.2300   26.3510   33.5590 C   0  0  0  0  0  0  0  0  0  0  0  0
   37.8480   25.1670   34.2770 C   0  0  1  0  0  0  0  0  0  0  0  0
   39.9600   25.3420   33.8700 H   0  0  0  0  0  0  0  0  0  0  0  0
   39.8890   27.4730   34.5790 H   0  0  0  0  0  0  0  0  0  0  0  0
   39.9810   26.8440   36.2650 H   0  0  0  0  0  0  0  0  0  0  0  0
   37.5970   26.9340   36.4530 H   0  0  0  0  0  0  0  0  0  0  0  0
   38.3310   28.5340   35.9550 H   0  0  0  0  0  0  0  0  0  0  0  0
   37.3330   28.5240   33.8410 H   0  0  0  0  0  0  0  0  0  0  0  0
   36.1300   27.6650   34.8140 H   0  0  0  0  0  0  0  0  0  0  0  0
   36.2610   26.0690   33.1140 H   0  0  0  0  0  0  0  0  0  0  0  0
   37.9480   26.5820   32.7220 H   0  0  0  0  0  0  0  0  0  0  0  0
   37.1840   24.8680   35.1050 H   0  0  0  0  0  0  0  0  0  0  0  0
   39.6480   24.4040   35.6920 C   0  0  0  0  0  0  0  0  0  0  0  0
   40.9180   23.8260   35.5040 C   0  0  0  0  0  0  0  0  0  0  0  0
   41.3000   22.8390   36.4030 C   0  0  0  0  0  0  0  0  0  0  0  0
   40.4440   22.4700   37.4220 N   0  0  0  0  0  0  0  0  0  0  0  0
   39.2190   23.0610   37.5620 C   0  0  0  0  0  0  0  0  0  0  0  0
   38.8470   24.0130   36.6970 N   0  0  0  0  0  0  0  0  0  0  0  0
   41.6240   24.0690   34.7330 H   0  0  0  0  0  0  0  0  0  0  0  0
   42.2400   22.3260   36.3660 H   0  0  0  0  0  0  0  0  0  0  0  0
   38.5930   22.7320   38.3760 H   0  0  0  0  0  0  0  0  0  0  0  0
   37.8590   24.0550   33.2630 C   0  0  0  0  0  0  0  0  0  0  0  0
   38.5460   23.2090   33.4380 H   0  0  0  0  0  0  0  0  0  0  0  0
   37.0910   24.1650   32.2990 O   0  0  0  0  0  0  0  0  0  0  0  0
  1  7  1  6  0  0  0
  1  2  1  0  0  0  0
  1 17  1  0  0  0  0
  2  3  1  0  0  0  0
  2  9  1  0  0  0  0
  3 11  1  0  0  0  0
  3 10  1  0  0  0  0
  4 13  1  0  0  0  0
  4  3  1  0  0  0  0
  5  6  1  0  0  0  0
  5  4  1  0  0  0  0
  6  1  1  0  0  0  0
  6 16  1  1  0  0  0
  8  2  1  0  0  0  0
 12  4  1  0  0  0  0
 14  5  1  0  0  0  0
 15  5  1  0  0  0  0
 17 22  1  0  0  0  0
 18 17  2  0  0  0  0
 18 19  1  0  0  0  0
 19 20  2  0  0  0  0
 20 21  1  0  0  0  0
 21 25  1  0  0  0  0
 22 21  2  0  0  0  0
 23 18  1  0  0  0  0
 24 19  1  0  0  0  0
 26 27  1  0  0  0  0
 26  6  1  0  0  0  0
 28 26  2  0  0  0  0
M  END
>  <minimizedAffinity>
-4.08155251

$$$$

 OpenBabel03272509293D

 28 29  0  0  1  0  0  0  0  0999 V2000
   39.4550   24.1210   35.7600 C   0  0  2  0  0  0  0  0  0  0  0  0
   40.8160   23.5830   35.3660 C   0  0  0  0  0  0  0  0  0  0  0  0
   41.0880   22.2080   35.9030 C   0  0  0  0  0  0  0  0  0  0  0  0
   40.9020   22.1080   37.3910 C   0  0  0  0  0  0  0  0  0  0  0  0
   39.7270   22.8870   37.9010 C   0  0  0  0  0  0  0  0  0  0  0  0
   38.7760   23.2850   36.7900 C   0  0  1  0  0  0  0  0  0  0  0  0
   39.5350   25.1810   36.0940 H   0  0  0  0  0  0  0  0  0  0  0  0
   41.5680   24.2510   35.8710 H   0  0  0  0  0  0  0  0  0  0  0  0
   41.0130   23.5770   34.2950 H   0  0  0  0  0  0  0  0  0  0  0  0
   40.4280   21.5140   35.3570 H   0  0  0  0  0  0  0  0  0  0  0  0
   42.1640   22.0040   35.6640 H   0  0  0  0  0  0  0  0  0  0  0  0
   41.8450   22.3150   37.9590 H   0  0  0  0  0  0  0  0  0  0  0  0
   40.6940   21.0190   37.6050 H   0  0  0  0  0  0  0  0  0  0  0  0
   39.1780   22.4000   38.7240 H   0  0  0  0  0  0  0  0  0  0  0  0
   40.1410   23.8630   38.2840 H   0  0  0  0  0  0  0  0  0  0  0  0
   38.3120   22.3740   36.3770 H   0  0  0  0  0  0  0  0  0  0  0  0
   38.5710   24.1790   34.5570 C   0  0  0  0  0  0  0  0  0  0  0  0
   38.2220   22.9480   33.9720 C   0  0  0  0  0  0  0  0  0  0  0  0
   37.4070   22.9930   32.8480 C   0  0  0  0  0  0  0  0  0  0  0  0
   36.9790   24.2110   32.3590 N   0  0  0  0  0  0  0  0  0  0  0  0
   37.3470   25.3810   32.9640 C   0  0  0  0  0  0  0  0  0  0  0  0
   38.1320   25.3420   34.0470 N   0  0  0  0  0  0  0  0  0  0  0  0
   38.5240   21.9730   34.3040 H   0  0  0  0  0  0  0  0  0  0  0  0
   37.0730   22.1250   32.3150 H   0  0  0  0  0  0  0  0  0  0  0  0
   36.9820   26.3020   32.5370 H   0  0  0  0  0  0  0  0  0  0  0  0
   37.6990   24.0910   37.4650 C   0  0  0  0  0  0  0  0  0  0  0  0
   36.7990   24.3370   36.8760 H   0  0  0  0  0  0  0  0  0  0  0  0
   37.8980   24.4230   38.6400 O   0  0  0  0  0  0  0  0  0  0  0  0
  1  7  1  1  0  0  0
  1  6  1  0  0  0  0
  2  1  1  0  0  0  0
  2  8  1  0  0  0  0
  2  3  1  0  0  0  0
  3  4  1  0  0  0  0
  4 13  1  0  0  0  0
  4  5  1  0  0  0  0
  4 12  1  0  0  0  0
  5 15  1  0  0  0  0
  5 14  1  0  0  0  0
  6 16  1  6  0  0  0
  6 26  1  0  0  0  0
  6  5  1  0  0  0  0
  9  2  1  0  0  0  0
 10  3  1  0  0  0  0
 11  3  1  0  0  0  0
 17  1  1  0  0  0  0
 18 23  1  0  0  0  0
 18 17  2  0  0  0  0
 19 18  1  0  0  0  0
 20 19  2  0  0  0  0
 20 21  1  0  0  0  0
 21 22  2  0  0  0  0
 22 17  1  0  0  0  0
 24 19  1  0  0  0  0
 25 21  1  0  0  0  0
 26 28  2  0  0  0  0
 27 26  1  0  0  0  0
M  END
>  <minimizedAffinity>
-4.01601839

$$$$

 OpenBabel03272509293D

 28 29  0  0  1  0  0  0  0  0999 V2000
   38.8250   23.8420   35.4110 C   0  0  2  0  0  0  0  0  0  0  0  0
   38.0980   23.3280   36.6370 C   0  0  0  0  0  0  0  0  0  0  0  0
   38.9520   23.3170   37.8720 C   0  0  0  0  0  0  0  0  0  0  0  0
   40.2470   22.5760   37.6880 C   0  0  0  0  0  0  0  0  0  0  0  0
   40.8790   22.8010   36.3470 C   0  0  0  0  0  0  0  0  0  0  0  0
   40.2900   23.9990   35.6280 C   0  0  1  0  0  0  0  0  0  0  0  0
   38.6170   23.1920   34.5310 H   0  0  0  0  0  0  0  0  0  0  0  0
   37.8700   22.2460   36.4270 H   0  0  0  0  0  0  0  0  0  0  0  0
   37.1680   23.8450   36.8700 H   0  0  0  0  0  0  0  0  0  0  0  0
   39.1160   24.3690   38.1580 H   0  0  0  0  0  0  0  0  0  0  0  0
   38.3440   22.7840   38.6480 H   0  0  0  0  0  0  0  0  0  0  0  0
   40.1660   21.4920   37.9570 H   0  0  0  0  0  0  0  0  0  0  0  0
   40.9560   22.9930   38.4600 H   0  0  0  0  0  0  0  0  0  0  0  0
   41.9800   22.8630   36.3650 H   0  0  0  0  0  0  0  0  0  0  0  0
   40.5880   21.9170   35.7110 H   0  0  0  0  0  0  0  0  0  0  0  0
   40.5560   24.9120   36.1860 H   0  0  0  0  0  0  0  0  0  0  0  0
   38.2720   25.1750   35.0230 C   0  0  0  0  0  0  0  0  0  0  0  0
   38.4850   26.2340   35.9260 C   0  0  0  0  0  0  0  0  0  0  0  0
   37.9670   27.4730   35.5770 C   0  0  0  0  0  0  0  0  0  0  0  0
   37.2800   27.6210   34.3880 N   0  0  0  0  0  0  0  0  0  0  0  0
   37.0990   26.5600   33.5430 C   0  0  0  0  0  0  0  0  0  0  0  0
   37.5970   25.3630   33.8770 N   0  0  0  0  0  0  0  0  0  0  0  0
   39.0070   26.1800   36.8620 H   0  0  0  0  0  0  0  0  0  0  0  0
   38.0640   28.3550   36.1790 H   0  0  0  0  0  0  0  0  0  0  0  0
   36.5550   26.7360   32.6290 H   0  0  0  0  0  0  0  0  0  0  0  0
   40.9960   24.0440   34.2980 C   0  0  0  0  0  0  0  0  0  0  0  0
   40.3750   24.1590   33.3940 H   0  0  0  0  0  0  0  0  0  0  0  0
   42.2290   23.9500   34.3130 O   0  0  0  0  0  0  0  0  0  0  0  0
  1  7  1  6  0  0  0
  1  6  1  0  0  0  0
  1  2  1  0  0  0  0
  2  9  1  0  0  0  0
  2  3  1  0  0  0  0
  3 10  1  0  0  0  0
  3 11  1  0  0  0  0
  4  3  1  0  0  0  0
  4 12  1  0  0  0  0
  4 13  1  0  0  0  0
  5 14  1  0  0  0  0
  5  4  1  0  0  0  0
  6 16  1  1  0  0  0
  6  5  1  0  0  0  0
  8  2  1  0  0  0  0
 15  5  1  0  0  0  0
 17  1  1  0  0  0  0
 17 18  1  0  0  0  0
 18 23  1  0  0  0  0
 19 18  2  0  0  0  0
 19 24  1  0  0  0  0
 20 19  1  0  0  0  0
 21 22  1  0  0  0  0
 21 20  2  0  0  0  0
 22 17  2  0  0  0  0
 25 21  1  0  0  0  0
 26 28  2  0  0  0  0
 26  6  1  0  0  0  0
 27 26  1  0  0  0  0
M  END
>  <minimizedAffinity>
-3.93244362

$$$$

 OpenBabel03272509293D

 28 29  0  0  1  0  0  0  0  0999 V2000
   34.7250   30.5040   34.0830 C   0  0  2  0  0  0  0  0  0  0  0  0
   35.7750   31.4950   34.5430 C   0  0  0  0  0  0  0  0  0  0  0  0
   35.8590   31.6190   36.0360 C   0  0  0  0  0  0  0  0  0  0  0  0
   34.5350   31.9300   36.6790 C   0  0  0  0  0  0  0  0  0  0  0  0
   33.3830   31.2010   36.0560 C   0  0  0  0  0  0  0  0  0  0  0  0
   33.8370   30.0450   35.1870 C   0  0  1  0  0  0  0  0  0  0  0  0
   34.1310   30.9260   33.2390 H   0  0  0  0  0  0  0  0  0  0  0  0
   35.4240   32.5030   34.1820 H   0  0  0  0  0  0  0  0  0  0  0  0
   36.7770   31.3130   34.1580 H   0  0  0  0  0  0  0  0  0  0  0  0
   36.2890   30.6770   36.4130 H   0  0  0  0  0  0  0  0  0  0  0  0
   36.5550   32.4770   36.2230 H   0  0  0  0  0  0  0  0  0  0  0  0
   34.3530   33.0300   36.7820 H   0  0  0  0  0  0  0  0  0  0  0  0
   34.6160   31.5690   37.7450 H   0  0  0  0  0  0  0  0  0  0  0  0
   32.6120   30.8680   36.7710 H   0  0  0  0  0  0  0  0  0  0  0  0
   32.9050   31.9260   35.3370 H   0  0  0  0  0  0  0  0  0  0  0  0
   34.2990   29.2780   35.8300 H   0  0  0  0  0  0  0  0  0  0  0  0
   35.3930   29.3020   33.4980 C   0  0  0  0  0  0  0  0  0  0  0  0
   36.2170   28.5560   34.3610 C   0  0  0  0  0  0  0  0  0  0  0  0
   36.8480   27.4420   33.8240 C   0  0  0  0  0  0  0  0  0  0  0  0
   36.6500   27.1140   32.4980 N   0  0  0  0  0  0  0  0  0  0  0  0
   35.8380   27.8710   31.6980 C   0  0  0  0  0  0  0  0  0  0  0  0
   35.2280   28.9460   32.2130 N   0  0  0  0  0  0  0  0  0  0  0  0
   36.4110   28.7620   35.3970 H   0  0  0  0  0  0  0  0  0  0  0  0
   37.4980   26.7960   34.3790 H   0  0  0  0  0  0  0  0  0  0  0  0
   35.7210   27.5660   30.6710 H   0  0  0  0  0  0  0  0  0  0  0  0
   32.5710   29.4670   34.6100 C   0  0  0  0  0  0  0  0  0  0  0  0
   32.3550   28.4040   34.8160 H   0  0  0  0  0  0  0  0  0  0  0  0
   31.8580   30.2270   33.9450 O   0  0  0  0  0  0  0  0  0  0  0  0
  1  7  1  6  0  0  0
  1  2  1  0  0  0  0
  1  6  1  0  0  0  0
  2  3  1  0  0  0  0
  3 11  1  0  0  0  0
  3 10  1  0  0  0  0
  3  4  1  0  0  0  0
  4 12  1  0  0  0  0
  4 13  1  0  0  0  0
  5  4  1  0  0  0  0
  5 14  1  0  0  0  0
  6 16  1  1  0  0  0
  6  5  1  0  0  0  0
  8  2  1  0  0  0  0
  9  2  1  0  0  0  0
 15  5  1  0  0  0  0
 17  1  1  0  0  0  0
 17 18  1  0  0  0  0
 18 23  1  0  0  0  0
 19 18  2  0  0  0  0
 19 24  1  0  0  0  0
 20 19  1  0  0  0  0
 21 22  1  0  0  0  0
 21 20  2  0  0  0  0
 22 17  2  0  0  0  0
 25 21  1  0  0  0  0
 26 27  1  0  0  0  0
 26  6  1  0  0  0  0
 28 26  2  0  0  0  0
M  END
>  <minimizedAffinity>
-3.89909744

$$$$

 OpenBabel03272509293D

 28 29  0  0  1  0  0  0  0  0999 V2000
   38.1170   25.1550   34.8310 C   0  0  2  0  0  0  0  0  0  0  0  0
   38.0230   24.2400   33.6270 C   0  0  0  0  0  0  0  0  0  0  0  0
   39.1100   24.4740   32.6190 C   0  0  0  0  0  0  0  0  0  0  0  0
   39.2060   25.9070   32.1750 C   0  0  0  0  0  0  0  0  0  0  0  0
   38.9950   26.8920   33.2850 C   0  0  0  0  0  0  0  0  0  0  0  0
   39.1110   26.2490   34.6530 C   0  0  1  0  0  0  0  0  0  0  0  0
   37.1130   25.5640   35.0910 H   0  0  0  0  0  0  0  0  0  0  0  0
   37.0680   24.5210   33.1020 H   0  0  0  0  0  0  0  0  0  0  0  0
   37.9970   23.1760   33.8610 H   0  0  0  0  0  0  0  0  0  0  0  0
   40.0510   24.1190   33.0720 H   0  0  0  0  0  0  0  0  0  0  0  0
   38.8340   23.8450   31.7340 H   0  0  0  0  0  0  0  0  0  0  0  0
   38.5770   26.1230   31.2730 H   0  0  0  0  0  0  0  0  0  0  0  0
   40.2630   26.0480   31.8050 H   0  0  0  0  0  0  0  0  0  0  0  0
   39.6310   27.7920   33.2250 H   0  0  0  0  0  0  0  0  0  0  0  0
   37.9180   27.2180   33.2150 H   0  0  0  0  0  0  0  0  0  0  0  0
   40.1540   25.9220   34.8040 H   0  0  0  0  0  0  0  0  0  0  0  0
   38.5140   24.3620   36.0340 C   0  0  0  0  0  0  0  0  0  0  0  0
   39.7490   23.6910   35.9670 C   0  0  0  0  0  0  0  0  0  0  0  0
   40.1220   22.9450   37.0770 C   0  0  0  0  0  0  0  0  0  0  0  0
   39.2910   22.8910   38.1780 N   0  0  0  0  0  0  0  0  0  0  0  0
   38.0990   23.5610   38.1950 C   0  0  0  0  0  0  0  0  0  0  0  0
   37.7360   24.2810   37.1270 N   0  0  0  0  0  0  0  0  0  0  0  0
   40.4350   23.6930   35.1410 H   0  0  0  0  0  0  0  0  0  0  0  0
   41.0370   22.3920   37.1470 H   0  0  0  0  0  0  0  0  0  0  0  0
   37.4920   23.4820   39.0830 H   0  0  0  0  0  0  0  0  0  0  0  0
   38.8250   27.3570   35.6330 C   0  0  0  0  0  0  0  0  0  0  0  0
   39.6210   27.6220   36.3510 H   0  0  0  0  0  0  0  0  0  0  0  0
   37.7140   27.8960   35.5640 O   0  0  0  0  0  0  0  0  0  0  0  0
  1  7  1  1  0  0  0
  1 17  1  0  0  0  0
  2  9  1  0  0  0  0
  2  1  1  0  0  0  0
  3 10  1  0  0  0  0
  3  2  1  0  0  0  0
  4  3  1  0  0  0  0
  4  5  1  0  0  0  0
  5  6  1  0  0  0  0
  6 16  1  1  0  0  0
  6  1  1  0  0  0  0
  6 26  1  0  0  0  0
  8  2  1  0  0  0  0
 11  3  1  0  0  0  0
 12  4  1  0  0  0  0
 13  4  1  0  0  0  0
 14  5  1  0  0  0  0
 15  5  1  0  0  0  0
 17 22  1  0  0  0  0
 18 17  2  0  0  0  0
 18 19  1  0  0  0  0
 19 24  1  0  0  0  0
 19 20  2  0  0  0  0
 20 21  1  0  0  0  0
 21 25  1  0  0  0  0
 22 21  2  0  0  0  0
 23 18  1  0  0  0  0
 26 27  1  0  0  0  0
 28 26  2  0  0  0  0
M  END
>  <minimizedAffinity>
-3.89690709

$$$$

 OpenBabel03272509293D

 28 29  0  0  1  0  0  0  0  0999 V2000
   36.3140   21.6330   33.5580 C   0  0  2  0  0  0  0  0  0  0  0  0
   35.7140   20.3720   34.1470 C   0  0  0  0  0  0  0  0  0  0  0  0
   35.5290   19.2770   33.1380 C   0  0  0  0  0  0  0  0  0  0  0  0
   34.7430   19.7110   31.9320 C   0  0  0  0  0  0  0  0  0  0  0  0
   35.0720   21.0990   31.4710 C   0  0  0  0  0  0  0  0  0  0  0  0
   36.3680   21.6100   32.0690 C   0  0  1  0  0  0  0  0  0  0  0  0
   35.7700   22.5340   33.9250 H   0  0  0  0  0  0  0  0  0  0  0  0
   34.6730   20.6520   34.4740 H   0  0  0  0  0  0  0  0  0  0  0  0
   36.2530   19.9640   35.0000 H   0  0  0  0  0  0  0  0  0  0  0  0
   36.5350   18.9160   32.8670 H   0  0  0  0  0  0  0  0  0  0  0  0
   34.9510   18.4780   33.6700 H   0  0  0  0  0  0  0  0  0  0  0  0
   33.6420   19.5370   32.0480 H   0  0  0  0  0  0  0  0  0  0  0  0
   35.0390   19.0080   31.0990 H   0  0  0  0  0  0  0  0  0  0  0  0
   35.0730   21.2290   30.3760 H   0  0  0  0  0  0  0  0  0  0  0  0
   34.2760   21.7690   31.9040 H   0  0  0  0  0  0  0  0  0  0  0  0
   37.2030   21.0100   31.6710 H   0  0  0  0  0  0  0  0  0  0  0  0
   37.7070   21.8100   34.0670 C   0  0  0  0  0  0  0  0  0  0  0  0
   37.8420   22.2090   35.4090 C   0  0  0  0  0  0  0  0  0  0  0  0
   39.1340   22.3840   35.8880 C   0  0  0  0  0  0  0  0  0  0  0  0
   40.2110   22.1660   35.0530 N   0  0  0  0  0  0  0  0  0  0  0  0
   40.0280   21.7800   33.7530 C   0  0  0  0  0  0  0  0  0  0  0  0
   38.7840   21.6100   33.2880 N   0  0  0  0  0  0  0  0  0  0  0  0
   37.0460   22.3950   36.1050 H   0  0  0  0  0  0  0  0  0  0  0  0
   39.3660   22.6840   36.8900 H   0  0  0  0  0  0  0  0  0  0  0  0
   40.9070   21.6250   33.1480 H   0  0  0  0  0  0  0  0  0  0  0  0
   36.5140   23.0150   31.5470 C   0  0  0  0  0  0  0  0  0  0  0  0
   37.5000   23.3130   31.1520 H   0  0  0  0  0  0  0  0  0  0  0  0
   35.5130   23.7390   31.5950 O   0  0  0  0  0  0  0  0  0  0  0  0
  1  7  1  1  0  0  0
  1 17  1  0  0  0  0
  1  2  1  0  0  0  0
  2  8  1  0  0  0  0
  2  9  1  0  0  0  0
  3 11  1  0  0  0  0
  3  2  1  0  0  0  0
  4 12  1  0  0  0  0
  4  3  1  0  0  0  0
  5 15  1  0  0  0  0
  5  4  1  0  0  0  0
  5  6  1  0  0  0  0
  6 16  1  6  0  0  0
  6  1  1  0  0  0  0
 10  3  1  0  0  0  0
 13  4  1  0  0  0  0
 14  5  1  0  0  0  0
 17 18  1  0  0  0  0
 18 19  2  0  0  0  0
 18 23  1  0  0  0  0
 19 24  1  0  0  0  0
 20 19  1  0  0  0  0
 21 20  2  0  0  0  0
 22 21  1  0  0  0  0
 22 17  2  0  0  0  0
 25 21  1  0  0  0  0
 26 28  2  0  0  0  0
 26  6  1  0  0  0  0
 27 26  1  0  0  0  0
M  END
>  <minimizedAffinity>
-3.89241314

$$$$

 OpenBabel03272509293D

 28 29  0  0  1  0  0  0  0  0999 V2000
   38.1180   26.8590   32.8570 C   0  0  2  0  0  0  0  0  0  0  0  0
   39.4510   26.7510   32.1450 C   0  0  0  0  0  0  0  0  0  0  0  0
   40.5130   26.0880   32.9730 C   0  0  0  0  0  0  0  0  0  0  0  0
   40.6960   26.7260   34.3220 C   0  0  0  0  0  0  0  0  0  0  0  0
   39.4080   27.1480   34.9630 C   0  0  0  0  0  0  0  0  0  0  0  0
   38.2010   26.5090   34.3030 C   0  0  1  0  0  0  0  0  0  0  0  0
   37.6780   27.8730   32.7150 H   0  0  0  0  0  0  0  0  0  0  0  0
   39.8080   27.8100   32.0010 H   0  0  0  0  0  0  0  0  0  0  0  0
   39.4150   26.2560   31.1760 H   0  0  0  0  0  0  0  0  0  0  0  0
   40.2390   25.0230   33.0540 H   0  0  0  0  0  0  0  0  0  0  0  0
   41.4630   26.2110   32.3910 H   0  0  0  0  0  0  0  0  0  0  0  0
   41.4670   27.5380   34.3150 H   0  0  0  0  0  0  0  0  0  0  0  0
   41.1480   25.9310   34.9830 H   0  0  0  0  0  0  0  0  0  0  0  0
   39.3720   27.0040   36.0560 H   0  0  0  0  0  0  0  0  0  0  0  0
   39.2970   28.2490   34.7500 H   0  0  0  0  0  0  0  0  0  0  0  0
   38.2300   25.4220   34.4900 H   0  0  0  0  0  0  0  0  0  0  0  0
   37.1320   25.9360   32.2170 C   0  0  0  0  0  0  0  0  0  0  0  0
   37.3640   24.5570   32.3740 C   0  0  0  0  0  0  0  0  0  0  0  0
   36.4570   23.6940   31.7750 C   0  0  0  0  0  0  0  0  0  0  0  0
   35.3880   24.2040   31.0650 N   0  0  0  0  0  0  0  0  0  0  0  0
   35.2060   25.5540   30.9410 C   0  0  0  0  0  0  0  0  0  0  0  0
   36.0780   26.3900   31.5170 N   0  0  0  0  0  0  0  0  0  0  0  0
   38.1750   24.1020   32.9100 H   0  0  0  0  0  0  0  0  0  0  0  0
   36.5250   22.6250   31.8240 H   0  0  0  0  0  0  0  0  0  0  0  0
   34.3530   25.8940   30.3750 H   0  0  0  0  0  0  0  0  0  0  0  0
   37.0100   27.0750   35.0300 C   0  0  0  0  0  0  0  0  0  0  0  0
   36.4820   26.4140   35.7380 H   0  0  0  0  0  0  0  0  0  0  0  0
   36.7070   28.2480   34.7830 O   0  0  0  0  0  0  0  0  0  0  0  0
  1  7  1  6  0  0  0
  1  6  1  0  0  0  0
  2  1  1  0  0  0  0
  2  3  1  0  0  0  0
  3 10  1  0  0  0  0
  3  4  1  0  0  0  0
  4  5  1  0  0  0  0
  4 13  1  0  0  0  0
  5 14  1  0  0  0  0
  6 16  1  1  0  0  0
  6  5  1  0  0  0  0
  6 26  1  0  0  0  0
  8  2  1  0  0  0  0
  9  2  1  0  0  0  0
 11  3  1  0  0  0  0
 12  4  1  0  0  0  0
 15  5  1  0  0  0  0
 17 18  1  0  0  0  0
 17  1  1  0  0  0  0
 18 23  1  0  0  0  0
 19 24  1  0  0  0  0
 19 18  2  0  0  0  0
 20 19  1  0  0  0  0
 21 20  2  0  0  0  0
 21 22  1  0  0  0  0
 22 17  2  0  0  0  0
 25 21  1  0  0  0  0
 26 27  1  0  0  0  0
 28 26  2  0  0  0  0
M  END
>  <minimizedAffinity>
-3.83261681

$$$$
