
 OpenBabel03272500333D

 38 40  0  0  1  0  0  0  0  0999 V2000
   38.0020   23.8840   33.6720 Cl  0  0  0  0  0  0  0  0  0  0  0  0
   36.9290   24.6900   32.5560 C   0  0  0  0  0  0  0  0  0  0  0  0
   36.2270   23.8400   31.7450 C   0  0  0  0  0  0  0  0  0  0  0  0
   35.3060   24.4000   30.8680 C   0  0  0  0  0  0  0  0  0  0  0  0
   35.1560   25.7770   30.8700 C   0  0  0  0  0  0  0  0  0  0  0  0
   35.9100   26.5570   31.7280 C   0  0  0  0  0  0  0  0  0  0  0  0
   36.8240   26.0480   32.6020 C   0  0  0  0  0  0  0  0  0  0  0  0
   34.7230   23.7780   30.2020 H   0  0  0  0  0  0  0  0  0  0  0  0
   34.4380   26.2130   30.1870 H   0  0  0  0  0  0  0  0  0  0  0  0
   35.7440   27.6360   31.6810 H   0  0  0  0  0  0  0  0  0  0  0  0
   37.6840   26.8810   33.4790 C   0  0  1  0  0  0  0  0  0  0  0  0
   37.6770   26.3830   34.8420 C   0  0  0  0  0  0  0  0  0  0  0  0
   38.6510   27.3430   35.5420 C   0  0  0  0  0  0  0  0  0  0  0  0
   40.0190   26.8120   35.0990 C   0  0  0  0  0  0  0  0  0  0  0  0
   40.1970   26.8030   33.6460 C   0  0  0  0  0  0  0  0  0  0  0  0
   39.0230   27.1550   32.8290 C   0  0  1  0  0  0  0  0  0  0  0  0
   37.2000   27.8940   33.4040 H   0  0  0  0  0  0  0  0  0  0  0  0
   36.6960   26.5270   35.3430 H   0  0  0  0  0  0  0  0  0  0  0  0
   38.2550   25.5580   35.2180 H   0  0  0  0  0  0  0  0  0  0  0  0
   38.5480   27.2640   36.6270 H   0  0  0  0  0  0  0  0  0  0  0  0
   38.5150   28.3790   35.1630 H   0  0  0  0  0  0  0  0  0  0  0  0
   40.0310   25.7660   35.5260 H   0  0  0  0  0  0  0  0  0  0  0  0
   40.7430   27.3580   35.6970 H   0  0  0  0  0  0  0  0  0  0  0  0
   40.5140   25.7650   33.3260 H   0  0  0  0  0  0  0  0  0  0  0  0
   41.0820   27.4270   33.3610 H   0  0  0  0  0  0  0  0  0  0  0  0
   39.1350   28.2220   32.5590 H   0  0  0  0  0  0  0  0  0  0  0  0
   39.0450   26.4390   31.5170 C   0  0  0  0  0  0  0  0  0  0  0  0
   38.4800   26.2050   30.6320 H   0  0  0  0  0  0  0  0  0  0  0  0
   40.0100   25.8060   31.1110 O   0  0  0  0  0  0  0  0  0  0  0  0
   37.5260   20.4850   31.0930 C   0  0  0  0  0  0  0  0  0  0  0  0
   36.7520   19.6430   31.8830 C   0  0  0  0  0  0  0  0  0  0  0  0
   35.7720   20.2560   32.6570 C   0  0  0  0  0  0  0  0  0  0  0  0
   35.6220   21.6170   32.6050 N   0  0  0  0  0  0  0  0  0  0  0  0
   36.4000   22.3760   31.8210 C   0  0  0  0  0  0  0  0  0  0  0  0
   37.3640   21.8130   31.0560 N   0  0  0  0  0  0  0  0  0  0  0  0
   38.3010   20.0530   30.4730 H   0  0  0  0  0  0  0  0  0  0  0  0
   36.9350   18.5780   31.8650 H   0  0  0  0  0  0  0  0  0  0  0  0
   35.1560   19.6360   33.2800 H   0  0  0  0  0  0  0  0  0  0  0  0
  2  7  1  0  0  0  0
  2  1  1  0  0  0  0
  3 34  1  0  0  0  0
  3  2  2  0  0  0  0
  4  5  2  0  0  0  0
  4  3  1  0  0  0  0
  5  6  1  0  0  0  0
  6  7  2  0  0  0  0
  7 11  1  0  0  0  0
  8  4  1  0  0  0  0
  9  5  1  0  0  0  0
 10  6  1  0  0  0  0
 11 17  1  1  0  0  0
 11 12  1  0  0  0  0
 12 19  1  0  0  0  0
 12 18  1  0  0  0  0
 12 13  1  0  0  0  0
 13 20  1  0  0  0  0
 14 22  1  0  0  0  0
 14 13  1  0  0  0  0
 14 23  1  0  0  0  0
 15 14  1  0  0  0  0
 16 26  1  6  0  0  0
 16 11  1  0  0  0  0
 16 15  1  0  0  0  0
 21 13  1  0  0  0  0
 24 15  1  0  0  0  0
 25 15  1  0  0  0  0
 27 16  1  0  0  0  0
 28 27  1  0  0  0  0
 29 27  2  0  0  0  0
 30 31  1  0  0  0  0
 31 32  2  0  0  0  0
 32 38  1  0  0  0  0
 33 32  1  0  0  0  0
 34 33  2  0  0  0  0
 35 30  2  0  0  0  0
 35 34  1  0  0  0  0
 36 30  1  0  0  0  0
 37 31  1  0  0  0  0
M  END
>  <minimizedAffinity>
-5.37119722

$$$$

 OpenBabel03272500333D

 38 40  0  0  1  0  0  0  0  0999 V2000
   39.3260   24.0520   32.5690 Cl  0  0  0  0  0  0  0  0  0  0  0  0
   39.1420   25.3180   33.7560 C   0  0  0  0  0  0  0  0  0  0  0  0
   37.9560   25.9960   33.6670 C   0  0  0  0  0  0  0  0  0  0  0  0
   37.7060   26.9820   34.6140 C   0  0  0  0  0  0  0  0  0  0  0  0
   38.6670   27.2140   35.5850 C   0  0  0  0  0  0  0  0  0  0  0  0
   39.8370   26.4760   35.5950 C   0  0  0  0  0  0  0  0  0  0  0  0
   40.1210   25.5030   34.6850 C   0  0  0  0  0  0  0  0  0  0  0  0
   36.7870   27.5520   34.5940 H   0  0  0  0  0  0  0  0  0  0  0  0
   38.4710   27.9820   36.3230 H   0  0  0  0  0  0  0  0  0  0  0  0
   40.5530   26.7080   36.3870 H   0  0  0  0  0  0  0  0  0  0  0  0
   41.4010   24.7520   34.6490 C   0  0  1  0  0  0  0  0  0  0  0  0
   42.5320   25.6370   34.8630 C   0  0  0  0  0  0  0  0  0  0  0  0
   43.7170   24.6600   34.8360 C   0  0  0  0  0  0  0  0  0  0  0  0
   43.6490   24.0160   36.2260 C   0  0  0  0  0  0  0  0  0  0  0  0
   42.3780   23.3400   36.4920 C   0  0  0  0  0  0  0  0  0  0  0  0
   41.3180   23.4900   35.4810 C   0  0  1  0  0  0  0  0  0  0  0  0
   41.4020   24.3210   33.6090 H   0  0  0  0  0  0  0  0  0  0  0  0
   42.6930   26.3340   34.0130 H   0  0  0  0  0  0  0  0  0  0  0  0
   42.8810   26.0010   35.8130 H   0  0  0  0  0  0  0  0  0  0  0  0
   44.6560   25.2060   34.7180 H   0  0  0  0  0  0  0  0  0  0  0  0
   43.5610   23.8820   34.0590 H   0  0  0  0  0  0  0  0  0  0  0  0
   43.8040   24.8970   36.9170 H   0  0  0  0  0  0  0  0  0  0  0  0
   44.5630   23.4360   36.3150 H   0  0  0  0  0  0  0  0  0  0  0  0
   41.9550   23.7340   37.4650 H   0  0  0  0  0  0  0  0  0  0  0  0
   42.5570   22.2590   36.7240 H   0  0  0  0  0  0  0  0  0  0  0  0
   41.3520   22.5830   34.8500 H   0  0  0  0  0  0  0  0  0  0  0  0
   39.9630   23.4510   36.1100 C   0  0  0  0  0  0  0  0  0  0  0  0
   38.9160   23.6490   35.9590 H   0  0  0  0  0  0  0  0  0  0  0  0
   39.7630   23.0700   37.2550 O   0  0  0  0  0  0  0  0  0  0  0  0
   35.5500   26.4190   30.9470 C   0  0  0  0  0  0  0  0  0  0  0  0
   35.0450   25.1440   30.7170 C   0  0  0  0  0  0  0  0  0  0  0  0
   35.5570   24.1270   31.5150 C   0  0  0  0  0  0  0  0  0  0  0  0
   36.5050   24.4200   32.4600 N   0  0  0  0  0  0  0  0  0  0  0  0
   36.9520   25.6710   32.6360 C   0  0  0  0  0  0  0  0  0  0  0  0
   36.4760   26.6860   31.8760 N   0  0  0  0  0  0  0  0  0  0  0  0
   35.1810   27.2440   30.3500 H   0  0  0  0  0  0  0  0  0  0  0  0
   34.2970   24.9980   29.9510 H   0  0  0  0  0  0  0  0  0  0  0  0
   35.1900   23.1300   31.3640 H   0  0  0  0  0  0  0  0  0  0  0  0
  1  2  1  0  0  0  0
  2  7  1  0  0  0  0
  3  2  2  0  0  0  0
  3  4  1  0  0  0  0
  4  5  2  0  0  0  0
  5  6  1  0  0  0  0
  5  9  1  0  0  0  0
  6 10  1  0  0  0  0
  7  6  2  0  0  0  0
  8  4  1  0  0  0  0
 11 17  1  6  0  0  0
 11  7  1  0  0  0  0
 11 12  1  0  0  0  0
 11 16  1  0  0  0  0
 12 19  1  0  0  0  0
 13 12  1  0  0  0  0
 13 14  1  0  0  0  0
 14 23  1  0  0  0  0
 14 15  1  0  0  0  0
 14 22  1  0  0  0  0
 15 25  1  0  0  0  0
 15 24  1  0  0  0  0
 16 26  1  6  0  0  0
 16 27  1  0  0  0  0
 16 15  1  0  0  0  0
 18 12  1  0  0  0  0
 20 13  1  0  0  0  0
 21 13  1  0  0  0  0
 27 29  2  0  0  0  0
 28 27  1  0  0  0  0
 30 35  1  0  0  0  0
 31 30  2  0  0  0  0
 31 32  1  0  0  0  0
 32 33  2  0  0  0  0
 33 34  1  0  0  0  0
 34  3  1  0  0  0  0
 35 34  2  0  0  0  0
 36 30  1  0  0  0  0
 37 31  1  0  0  0  0
 38 32  1  0  0  0  0
M  END
>  <minimizedAffinity>
-5.11416626

$$$$

 OpenBabel03272500333D

 38 40  0  0  1  0  0  0  0  0999 V2000
   38.5170   21.1580   32.6450 Cl  0  0  0  0  0  0  0  0  0  0  0  0
   37.4400   22.4770   32.2640 C   0  0  0  0  0  0  0  0  0  0  0  0
   37.8010   23.6720   32.8260 C   0  0  0  0  0  0  0  0  0  0  0  0
   37.0290   24.7860   32.5240 C   0  0  0  0  0  0  0  0  0  0  0  0
   35.9470   24.6200   31.6740 C   0  0  0  0  0  0  0  0  0  0  0  0
   35.6600   23.3710   31.1520 C   0  0  0  0  0  0  0  0  0  0  0  0
   36.3900   22.2540   31.4240 C   0  0  0  0  0  0  0  0  0  0  0  0
   37.2650   25.7560   32.9400 H   0  0  0  0  0  0  0  0  0  0  0  0
   35.3450   25.4890   31.4380 H   0  0  0  0  0  0  0  0  0  0  0  0
   34.7940   23.3080   30.4880 H   0  0  0  0  0  0  0  0  0  0  0  0
   36.0510   20.8990   30.9220 C   0  0  1  0  0  0  0  0  0  0  0  0
   37.2030   20.2670   30.3060 C   0  0  0  0  0  0  0  0  0  0  0  0
   36.6460   18.8900   29.9150 C   0  0  0  0  0  0  0  0  0  0  0  0
   36.6450   18.1390   31.2510 C   0  0  0  0  0  0  0  0  0  0  0  0
   35.8380   18.7920   32.2850 C   0  0  0  0  0  0  0  0  0  0  0  0
   35.2750   20.1120   31.9560 C   0  0  1  0  0  0  0  0  0  0  0  0
   35.2430   21.1140   30.1680 H   0  0  0  0  0  0  0  0  0  0  0  0
   37.4990   20.7570   29.3540 H   0  0  0  0  0  0  0  0  0  0  0  0
   38.0050   19.7710   30.8230 H   0  0  0  0  0  0  0  0  0  0  0  0
   37.3140   18.3980   29.2050 H   0  0  0  0  0  0  0  0  0  0  0  0
   35.6030   18.9850   29.5420 H   0  0  0  0  0  0  0  0  0  0  0  0
   37.7400   18.1210   31.5290 H   0  0  0  0  0  0  0  0  0  0  0  0
   36.4110   17.1090   30.9980 H   0  0  0  0  0  0  0  0  0  0  0  0
   36.4770   18.9330   33.2070 H   0  0  0  0  0  0  0  0  0  0  0  0
   35.0380   18.0960   32.6460 H   0  0  0  0  0  0  0  0  0  0  0  0
   34.2300   19.9400   31.6380 H   0  0  0  0  0  0  0  0  0  0  0  0
   35.1540   20.9650   33.1770 C   0  0  0  0  0  0  0  0  0  0  0  0
   34.8740   21.9350   33.5490 H   0  0  0  0  0  0  0  0  0  0  0  0
   35.4420   20.5770   34.3010 O   0  0  0  0  0  0  0  0  0  0  0  0
   39.9090   23.6500   35.8140 C   0  0  0  0  0  0  0  0  0  0  0  0
   41.1660   24.0410   35.3660 C   0  0  0  0  0  0  0  0  0  0  0  0
   41.2790   24.3060   34.0060 C   0  0  0  0  0  0  0  0  0  0  0  0
   40.1800   24.1740   33.1970 N   0  0  0  0  0  0  0  0  0  0  0  0
   38.9930   23.7940   33.6890 C   0  0  0  0  0  0  0  0  0  0  0  0
   38.8480   23.5270   35.0080 N   0  0  0  0  0  0  0  0  0  0  0  0
   39.7730   23.4330   36.8660 H   0  0  0  0  0  0  0  0  0  0  0  0
   41.9810   24.1210   36.0710 H   0  0  0  0  0  0  0  0  0  0  0  0
   42.2350   24.6100   33.6260 H   0  0  0  0  0  0  0  0  0  0  0  0
  2  1  1  0  0  0  0
  2  3  1  0  0  0  0
  3 34  1  0  0  0  0
  4  3  2  0  0  0  0
  4  8  1  0  0  0  0
  5  4  1  0  0  0  0
  6  7  1  0  0  0  0
  6  5  2  0  0  0  0
  7  2  2  0  0  0  0
  9  5  1  0  0  0  0
 10  6  1  0  0  0  0
 11 17  1  6  0  0  0
 11  7  1  0  0  0  0
 11 16  1  0  0  0  0
 12 19  1  0  0  0  0
 12 11  1  0  0  0  0
 13 12  1  0  0  0  0
 13 14  1  0  0  0  0
 14 22  1  0  0  0  0
 14 15  1  0  0  0  0
 15 25  1  0  0  0  0
 15 24  1  0  0  0  0
 16 26  1  6  0  0  0
 16 15  1  0  0  0  0
 16 27  1  0  0  0  0
 18 12  1  0  0  0  0
 20 13  1  0  0  0  0
 21 13  1  0  0  0  0
 23 14  1  0  0  0  0
 27 28  1  0  0  0  0
 27 29  2  0  0  0  0
 30 36  1  0  0  0  0
 31 30  1  0  0  0  0
 31 37  1  0  0  0  0
 32 31  2  0  0  0  0
 33 34  2  0  0  0  0
 33 32  1  0  0  0  0
 34 35  1  0  0  0  0
 35 30  2  0  0  0  0
 38 32  1  0  0  0  0
M  END
>  <minimizedAffinity>
-4.99651384

$$$$

 OpenBabel03272500333D

 38 40  0  0  1  0  0  0  0  0999 V2000
   39.3940   26.3650   34.9610 Cl  0  0  0  0  0  0  0  0  0  0  0  0
   38.7490   25.1640   33.8700 C   0  0  0  0  0  0  0  0  0  0  0  0
   38.3840   23.9960   34.4810 C   0  0  0  0  0  0  0  0  0  0  0  0
   37.8060   23.0090   33.6910 C   0  0  0  0  0  0  0  0  0  0  0  0
   37.6350   23.2710   32.3400 C   0  0  0  0  0  0  0  0  0  0  0  0
   38.0350   24.4850   31.8120 C   0  0  0  0  0  0  0  0  0  0  0  0
   38.6060   25.4770   32.5510 C   0  0  0  0  0  0  0  0  0  0  0  0
   37.4990   22.0640   34.1170 H   0  0  0  0  0  0  0  0  0  0  0  0
   37.1840   22.5020   31.7250 H   0  0  0  0  0  0  0  0  0  0  0  0
   37.8720   24.6280   30.7410 H   0  0  0  0  0  0  0  0  0  0  0  0
   39.0990   26.7560   31.9810 C   0  0  1  0  0  0  0  0  0  0  0  0
   39.9030   26.5230   30.7950 C   0  0  0  0  0  0  0  0  0  0  0  0
   40.2530   27.9530   30.3560 C   0  0  0  0  0  0  0  0  0  0  0  0
   38.9600   28.4200   29.6810 C   0  0  0  0  0  0  0  0  0  0  0  0
   37.7930   28.3810   30.5660 C   0  0  0  0  0  0  0  0  0  0  0  0
   37.9870   27.7800   31.8960 C   0  0  1  0  0  0  0  0  0  0  0  0
   39.7130   27.1780   32.8240 H   0  0  0  0  0  0  0  0  0  0  0  0
   40.8720   26.0310   31.0290 H   0  0  0  0  0  0  0  0  0  0  0  0
   39.5310   26.3330   29.8050 H   0  0  0  0  0  0  0  0  0  0  0  0
   41.0730   27.9380   29.6350 H   0  0  0  0  0  0  0  0  0  0  0  0
   40.4610   28.5910   31.2420 H   0  0  0  0  0  0  0  0  0  0  0  0
   38.8520   27.6970   28.8190 H   0  0  0  0  0  0  0  0  0  0  0  0
   39.2100   29.3670   29.2110 H   0  0  0  0  0  0  0  0  0  0  0  0
   36.9740   27.7890   30.0590 H   0  0  0  0  0  0  0  0  0  0  0  0
   37.3400   29.4010   30.6520 H   0  0  0  0  0  0  0  0  0  0  0  0
   38.1480   28.6160   32.6010 H   0  0  0  0  0  0  0  0  0  0  0  0
   36.7330   27.1270   32.3800 C   0  0  0  0  0  0  0  0  0  0  0  0
   36.3120   26.4640   33.1160 H   0  0  0  0  0  0  0  0  0  0  0  0
   35.6410   27.2930   31.8540 O   0  0  0  0  0  0  0  0  0  0  0  0
   39.7990   22.8900   37.6660 C   0  0  0  0  0  0  0  0  0  0  0  0
   38.9050   23.3450   38.6300 C   0  0  0  0  0  0  0  0  0  0  0  0
   37.8030   24.0510   38.1610 C   0  0  0  0  0  0  0  0  0  0  0  0
   37.6540   24.2580   36.8140 N   0  0  0  0  0  0  0  0  0  0  0  0
   38.5510   23.7940   35.9330 C   0  0  0  0  0  0  0  0  0  0  0  0
   39.6360   23.1030   36.3550 N   0  0  0  0  0  0  0  0  0  0  0  0
   40.6730   22.3360   37.9830 H   0  0  0  0  0  0  0  0  0  0  0  0
   39.0970   23.1380   39.6730 H   0  0  0  0  0  0  0  0  0  0  0  0
   37.0930   24.4170   38.8770 H   0  0  0  0  0  0  0  0  0  0  0  0
  2  3  1  0  0  0  0
  2  1  1  0  0  0  0
  3 34  1  0  0  0  0
  4  8  1  0  0  0  0
  4  3  2  0  0  0  0
  5  4  1  0  0  0  0
  6  5  2  0  0  0  0
  6  7  1  0  0  0  0
  7  2  2  0  0  0  0
  9  5  1  0  0  0  0
 10  6  1  0  0  0  0
 11  7  1  0  0  0  0
 11 17  1  1  0  0  0
 12 18  1  0  0  0  0
 12 11  1  0  0  0  0
 13 12  1  0  0  0  0
 13 21  1  0  0  0  0
 14 13  1  0  0  0  0
 14 15  1  0  0  0  0
 15 25  1  0  0  0  0
 15 16  1  0  0  0  0
 16 11  1  0  0  0  0
 16 27  1  0  0  0  0
 16 26  1  1  0  0  0
 19 12  1  0  0  0  0
 20 13  1  0  0  0  0
 22 14  1  0  0  0  0
 23 14  1  0  0  0  0
 24 15  1  0  0  0  0
 27 28  1  0  0  0  0
 29 27  2  0  0  0  0
 30 36  1  0  0  0  0
 30 31  1  0  0  0  0
 31 37  1  0  0  0  0
 32 31  2  0  0  0  0
 32 38  1  0  0  0  0
 33 32  1  0  0  0  0
 34 35  1  0  0  0  0
 34 33  2  0  0  0  0
 35 30  2  0  0  0  0
M  END
>  <minimizedAffinity>
-4.97459412

$$$$

 OpenBabel03272500333D

 38 40  0  0  1  0  0  0  0  0999 V2000
   36.3670   27.8600   34.3270 Cl  0  0  0  0  0  0  0  0  0  0  0  0
   36.0970   29.0520   33.0820 C   0  0  0  0  0  0  0  0  0  0  0  0
   36.4470   28.6360   31.8270 C   0  0  0  0  0  0  0  0  0  0  0  0
   36.2090   29.5050   30.7690 C   0  0  0  0  0  0  0  0  0  0  0  0
   35.6320   30.7340   31.0510 C   0  0  0  0  0  0  0  0  0  0  0  0
   35.3100   31.0670   32.3550 C   0  0  0  0  0  0  0  0  0  0  0  0
   35.5290   30.2440   33.4190 C   0  0  0  0  0  0  0  0  0  0  0  0
   36.4660   29.2310   29.7550 H   0  0  0  0  0  0  0  0  0  0  0  0
   35.4460   31.4110   30.2270 H   0  0  0  0  0  0  0  0  0  0  0  0
   34.8580   32.0500   32.5090 H   0  0  0  0  0  0  0  0  0  0  0  0
   35.2480   30.6200   34.8270 C   0  0  1  0  0  0  0  0  0  0  0  0
   35.7610   31.9440   35.1260 C   0  0  0  0  0  0  0  0  0  0  0  0
   35.3220   32.1400   36.5850 C   0  0  0  0  0  0  0  0  0  0  0  0
   33.8360   32.4840   36.4430 C   0  0  0  0  0  0  0  0  0  0  0  0
   33.0600   31.4440   35.7630 C   0  0  0  0  0  0  0  0  0  0  0  0
   33.8130   30.3120   35.1990 C   0  0  1  0  0  0  0  0  0  0  0  0
   35.7930   29.8230   35.4050 H   0  0  0  0  0  0  0  0  0  0  0  0
   36.8720   31.9780   35.1350 H   0  0  0  0  0  0  0  0  0  0  0  0
   35.2870   32.8780   34.8810 H   0  0  0  0  0  0  0  0  0  0  0  0
   35.8630   32.9750   37.0360 H   0  0  0  0  0  0  0  0  0  0  0  0
   35.4300   31.1900   37.1530 H   0  0  0  0  0  0  0  0  0  0  0  0
   33.8570   33.4430   35.8450 H   0  0  0  0  0  0  0  0  0  0  0  0
   33.5180   32.7890   37.4350 H   0  0  0  0  0  0  0  0  0  0  0  0
   32.4940   31.9160   34.9060 H   0  0  0  0  0  0  0  0  0  0  0  0
   32.2350   31.0810   36.4290 H   0  0  0  0  0  0  0  0  0  0  0  0
   33.7500   29.4910   35.9360 H   0  0  0  0  0  0  0  0  0  0  0  0
   33.1370   29.7680   33.9820 C   0  0  0  0  0  0  0  0  0  0  0  0
   33.1350   29.7580   32.9060 H   0  0  0  0  0  0  0  0  0  0  0  0
   32.1790   29.0090   34.0270 O   0  0  0  0  0  0  0  0  0  0  0  0
   36.6540   25.0640   31.0720 C   0  0  0  0  0  0  0  0  0  0  0  0
   38.0080   24.7590   31.1590 C   0  0  0  0  0  0  0  0  0  0  0  0
   38.8560   25.8140   31.4760 C   0  0  0  0  0  0  0  0  0  0  0  0
   38.3340   27.0640   31.6820 N   0  0  0  0  0  0  0  0  0  0  0  0
   37.0170   27.2960   31.5850 C   0  0  0  0  0  0  0  0  0  0  0  0
   36.1630   26.2920   31.2760 N   0  0  0  0  0  0  0  0  0  0  0  0
   35.9550   24.2740   30.8270 H   0  0  0  0  0  0  0  0  0  0  0  0
   38.3380   23.7450   30.9820 H   0  0  0  0  0  0  0  0  0  0  0  0
   39.9080   25.6150   31.5510 H   0  0  0  0  0  0  0  0  0  0  0  0
  2  7  1  0  0  0  0
  2  1  1  0  0  0  0
  3  2  2  0  0  0  0
  4  5  2  0  0  0  0
  4  3  1  0  0  0  0
  5  6  1  0  0  0  0
  6 10  1  0  0  0  0
  6  7  2  0  0  0  0
  7 11  1  0  0  0  0
  8  4  1  0  0  0  0
  9  5  1  0  0  0  0
 11 12  1  0  0  0  0
 11 16  1  0  0  0  0
 11 17  1  1  0  0  0
 12 18  1  0  0  0  0
 12 13  1  0  0  0  0
 13 20  1  0  0  0  0
 13 21  1  0  0  0  0
 14 13  1  0  0  0  0
 14 23  1  0  0  0  0
 15 25  1  0  0  0  0
 15 14  1  0  0  0  0
 16 15  1  0  0  0  0
 16 26  1  1  0  0  0
 19 12  1  0  0  0  0
 22 14  1  0  0  0  0
 24 15  1  0  0  0  0
 27 29  2  0  0  0  0
 27 16  1  0  0  0  0
 28 27  1  0  0  0  0
 30 31  2  0  0  0  0
 30 35  1  0  0  0  0
 31 32  1  0  0  0  0
 32 38  1  0  0  0  0
 32 33  2  0  0  0  0
 34 33  1  0  0  0  0
 34  3  1  0  0  0  0
 35 34  2  0  0  0  0
 36 30  1  0  0  0  0
 37 31  1  0  0  0  0
M  END
>  <minimizedAffinity>
-4.93922806

$$$$

 OpenBabel03272500333D

 38 40  0  0  1  0  0  0  0  0999 V2000
   38.1550   22.6960   34.3270 Cl  0  0  0  0  0  0  0  0  0  0  0  0
   37.1150   23.2370   33.0340 C   0  0  0  0  0  0  0  0  0  0  0  0
   37.1030   24.5950   32.8600 C   0  0  0  0  0  0  0  0  0  0  0  0
   36.3450   25.1030   31.8120 C   0  0  0  0  0  0  0  0  0  0  0  0
   35.6520   24.2080   31.0130 C   0  0  0  0  0  0  0  0  0  0  0  0
   35.7260   22.8500   31.2660 C   0  0  0  0  0  0  0  0  0  0  0  0
   36.4560   22.3110   32.2820 C   0  0  0  0  0  0  0  0  0  0  0  0
   36.2970   26.1670   31.6260 H   0  0  0  0  0  0  0  0  0  0  0  0
   35.0620   24.6050   30.1960 H   0  0  0  0  0  0  0  0  0  0  0  0
   35.1570   22.1980   30.5980 H   0  0  0  0  0  0  0  0  0  0  0  0
   36.4880   20.8620   32.6020 C   0  0  1  0  0  0  0  0  0  0  0  0
   35.1500   20.2990   32.6030 C   0  0  0  0  0  0  0  0  0  0  0  0
   35.4230   18.8160   32.8990 C   0  0  0  0  0  0  0  0  0  0  0  0
   35.9050   18.2890   31.5430 C   0  0  0  0  0  0  0  0  0  0  0  0
   37.0910   18.9830   31.0370 C   0  0  0  0  0  0  0  0  0  0  0  0
   37.5580   20.1500   31.8030 C   0  0  1  0  0  0  0  0  0  0  0  0
   36.9450   20.8490   33.6300 H   0  0  0  0  0  0  0  0  0  0  0  0
   34.5330   20.6690   33.4490 H   0  0  0  0  0  0  0  0  0  0  0  0
   34.5880   19.9990   31.7360 H   0  0  0  0  0  0  0  0  0  0  0  0
   34.5010   18.3120   33.1950 H   0  0  0  0  0  0  0  0  0  0  0  0
   36.2380   18.7140   33.6480 H   0  0  0  0  0  0  0  0  0  0  0  0
   35.0090   18.4590   30.8750 H   0  0  0  0  0  0  0  0  0  0  0  0
   35.9570   17.2110   31.6590 H   0  0  0  0  0  0  0  0  0  0  0  0
   36.8780   19.3490   29.9880 H   0  0  0  0  0  0  0  0  0  0  0  0
   37.9250   18.2530   30.8750 H   0  0  0  0  0  0  0  0  0  0  0  0
   38.3810   19.7950   32.4510 H   0  0  0  0  0  0  0  0  0  0  0  0
   38.2020   21.1590   30.9090 C   0  0  0  0  0  0  0  0  0  0  0  0
   38.5610   22.1720   30.8380 H   0  0  0  0  0  0  0  0  0  0  0  0
   38.5290   20.9250   29.7540 O   0  0  0  0  0  0  0  0  0  0  0  0
   39.9150   26.5700   34.1090 C   0  0  0  0  0  0  0  0  0  0  0  0
   39.4560   27.1340   35.2940 C   0  0  0  0  0  0  0  0  0  0  0  0
   38.1490   26.8270   35.6540 C   0  0  0  0  0  0  0  0  0  0  0  0
   37.3990   26.0090   34.8500 N   0  0  0  0  0  0  0  0  0  0  0  0
   37.8990   25.4940   33.7180 C   0  0  0  0  0  0  0  0  0  0  0  0
   39.1680   25.7730   33.3370 N   0  0  0  0  0  0  0  0  0  0  0  0
   40.9270   26.7800   33.7870 H   0  0  0  0  0  0  0  0  0  0  0  0
   40.1130   27.7690   35.8710 H   0  0  0  0  0  0  0  0  0  0  0  0
   37.7610   27.2460   36.5630 H   0  0  0  0  0  0  0  0  0  0  0  0
  2  1  1  0  0  0  0
  3  2  1  0  0  0  0
  3 34  1  0  0  0  0
  4  3  2  0  0  0  0
  5  6  2  0  0  0  0
  5  4  1  0  0  0  0
  6  7  1  0  0  0  0
  7 11  1  0  0  0  0
  7  2  2  0  0  0  0
  8  4  1  0  0  0  0
  9  5  1  0  0  0  0
 10  6  1  0  0  0  0
 11 12  1  0  0  0  0
 11 17  1  1  0  0  0
 12 13  1  0  0  0  0
 12 18  1  0  0  0  0
 13 20  1  0  0  0  0
 13 21  1  0  0  0  0
 14 23  1  0  0  0  0
 14 13  1  0  0  0  0
 15 14  1  0  0  0  0
 15 16  1  0  0  0  0
 16 26  1  1  0  0  0
 16 11  1  0  0  0  0
 19 12  1  0  0  0  0
 22 14  1  0  0  0  0
 24 15  1  0  0  0  0
 25 15  1  0  0  0  0
 27 16  1  0  0  0  0
 28 27  1  0  0  0  0
 29 27  2  0  0  0  0
 30 31  1  0  0  0  0
 31 32  2  0  0  0  0
 31 37  1  0  0  0  0
 32 38  1  0  0  0  0
 33 32  1  0  0  0  0
 34 33  2  0  0  0  0
 35 34  1  0  0  0  0
 35 30  2  0  0  0  0
 36 30  1  0  0  0  0
M  END
>  <minimizedAffinity>
-4.93384981

$$$$

 OpenBabel03272500333D

 38 40  0  0  1  0  0  0  0  0999 V2000
   36.7840   27.8310   34.6840 Cl  0  0  0  0  0  0  0  0  0  0  0  0
   36.7230   28.3410   33.0160 C   0  0  0  0  0  0  0  0  0  0  0  0
   35.7970   29.3170   32.7660 C   0  0  0  0  0  0  0  0  0  0  0  0
   35.7250   29.8210   31.4730 C   0  0  0  0  0  0  0  0  0  0  0  0
   36.5930   29.3070   30.5220 C   0  0  0  0  0  0  0  0  0  0  0  0
   37.4980   28.3200   30.8700 C   0  0  0  0  0  0  0  0  0  0  0  0
   37.5990   27.7990   32.1240 C   0  0  0  0  0  0  0  0  0  0  0  0
   35.0120   30.5920   31.2150 H   0  0  0  0  0  0  0  0  0  0  0  0
   36.5370   29.7000   29.5150 H   0  0  0  0  0  0  0  0  0  0  0  0
   38.1540   27.9580   30.0740 H   0  0  0  0  0  0  0  0  0  0  0  0
   38.5210   26.6940   32.4900 C   0  0  1  0  0  0  0  0  0  0  0  0
   39.2370   26.9970   33.7160 C   0  0  0  0  0  0  0  0  0  0  0  0
   40.0730   25.7240   33.9240 C   0  0  0  0  0  0  0  0  0  0  0  0
   39.0430   24.7380   34.4850 C   0  0  0  0  0  0  0  0  0  0  0  0
   37.9050   24.5140   33.5910 C   0  0  0  0  0  0  0  0  0  0  0  0
   37.8330   25.3500   32.3820 C   0  0  1  0  0  0  0  0  0  0  0  0
   39.2130   26.6510   31.6040 H   0  0  0  0  0  0  0  0  0  0  0  0
   39.9680   27.8240   33.5880 H   0  0  0  0  0  0  0  0  0  0  0  0
   38.8570   26.8850   34.7160 H   0  0  0  0  0  0  0  0  0  0  0  0
   40.8620   25.9050   34.6570 H   0  0  0  0  0  0  0  0  0  0  0  0
   40.4560   25.3480   32.9510 H   0  0  0  0  0  0  0  0  0  0  0  0
   38.7230   25.2310   35.4500 H   0  0  0  0  0  0  0  0  0  0  0  0
   39.6200   23.8730   34.8000 H   0  0  0  0  0  0  0  0  0  0  0  0
   36.9490   24.6970   34.1690 H   0  0  0  0  0  0  0  0  0  0  0  0
   37.8270   23.4280   33.3300 H   0  0  0  0  0  0  0  0  0  0  0  0
   38.2480   24.7450   31.5540 H   0  0  0  0  0  0  0  0  0  0  0  0
   36.4150   25.5990   31.9820 C   0  0  0  0  0  0  0  0  0  0  0  0
   35.6650   26.3530   31.8150 H   0  0  0  0  0  0  0  0  0  0  0  0
   35.6320   24.7060   31.6860 O   0  0  0  0  0  0  0  0  0  0  0  0
   34.6570   31.3590   35.5770 C   0  0  0  0  0  0  0  0  0  0  0  0
   33.3820   30.8860   35.8670 C   0  0  0  0  0  0  0  0  0  0  0  0
   32.9150   29.8490   35.0670 C   0  0  0  0  0  0  0  0  0  0  0  0
   33.7080   29.3590   34.0630 N   0  0  0  0  0  0  0  0  0  0  0  0
   34.9300   29.8570   33.8320 C   0  0  0  0  0  0  0  0  0  0  0  0
   35.4170   30.8660   34.5910 N   0  0  0  0  0  0  0  0  0  0  0  0
   35.0650   32.1650   36.1740 H   0  0  0  0  0  0  0  0  0  0  0  0
   32.8230   31.3280   36.6790 H   0  0  0  0  0  0  0  0  0  0  0  0
   31.9340   29.4600   35.2630 H   0  0  0  0  0  0  0  0  0  0  0  0
  2  1  1  0  0  0  0
  3  2  1  0  0  0  0
  3 34  1  0  0  0  0
  4  3  2  0  0  0  0
  5  6  2  0  0  0  0
  5  4  1  0  0  0  0
  6  7  1  0  0  0  0
  7 11  1  0  0  0  0
  7  2  2  0  0  0  0
  8  4  1  0  0  0  0
  9  5  1  0  0  0  0
 10  6  1  0  0  0  0
 11 17  1  6  0  0  0
 11 12  1  0  0  0  0
 12 13  1  0  0  0  0
 12 19  1  0  0  0  0
 13 14  1  0  0  0  0
 13 20  1  0  0  0  0
 14 23  1  0  0  0  0
 14 22  1  0  0  0  0
 15 24  1  0  0  0  0
 15 14  1  0  0  0  0
 16 26  1  6  0  0  0
 16 11  1  0  0  0  0
 16 15  1  0  0  0  0
 18 12  1  0  0  0  0
 21 13  1  0  0  0  0
 25 15  1  0  0  0  0
 27 16  1  0  0  0  0
 28 27  1  0  0  0  0
 29 27  2  0  0  0  0
 30 31  1  0  0  0  0
 30 36  1  0  0  0  0
 31 37  1  0  0  0  0
 32 38  1  0  0  0  0
 32 31  2  0  0  0  0
 33 32  1  0  0  0  0
 34 33  2  0  0  0  0
 34 35  1  0  0  0  0
 35 30  2  0  0  0  0
M  END
>  <minimizedAffinity>
-4.89844465

$$$$

 OpenBabel03272500333D

 38 40  0  0  1  0  0  0  0  0999 V2000
   38.7100   22.1640   33.0690 Cl  0  0  0  0  0  0  0  0  0  0  0  0
   37.6560   23.3930   32.4150 C   0  0  0  0  0  0  0  0  0  0  0  0
   36.4560   22.9140   31.9650 C   0  0  0  0  0  0  0  0  0  0  0  0
   35.5350   23.8370   31.4830 C   0  0  0  0  0  0  0  0  0  0  0  0
   35.8880   25.1770   31.4910 C   0  0  0  0  0  0  0  0  0  0  0  0
   37.1260   25.5660   31.9680 C   0  0  0  0  0  0  0  0  0  0  0  0
   38.0570   24.6940   32.4470 C   0  0  0  0  0  0  0  0  0  0  0  0
   34.5700   23.5180   31.1130 H   0  0  0  0  0  0  0  0  0  0  0  0
   35.1690   25.8960   31.1160 H   0  0  0  0  0  0  0  0  0  0  0  0
   37.3430   26.6380   31.9480 H   0  0  0  0  0  0  0  0  0  0  0  0
   39.4130   25.0960   32.9000 C   0  0  1  0  0  0  0  0  0  0  0  0
   40.0210   26.0250   31.9640 C   0  0  0  0  0  0  0  0  0  0  0  0
   41.3630   26.3370   32.6440 C   0  0  0  0  0  0  0  0  0  0  0  0
   40.9590   27.3290   33.7390 C   0  0  0  0  0  0  0  0  0  0  0  0
   39.9720   26.7900   34.6780 C   0  0  0  0  0  0  0  0  0  0  0  0
   39.4120   25.4640   34.3680 C   0  0  1  0  0  0  0  0  0  0  0  0
   39.9620   24.1140   32.9270 H   0  0  0  0  0  0  0  0  0  0  0  0
   40.2750   25.5460   30.9940 H   0  0  0  0  0  0  0  0  0  0  0  0
   39.8300   27.0810   31.9060 H   0  0  0  0  0  0  0  0  0  0  0  0
   42.0450   26.8120   31.9360 H   0  0  0  0  0  0  0  0  0  0  0  0
   41.7840   25.4200   33.1110 H   0  0  0  0  0  0  0  0  0  0  0  0
   40.5390   28.1970   33.1490 H   0  0  0  0  0  0  0  0  0  0  0  0
   41.8940   27.7030   34.1440 H   0  0  0  0  0  0  0  0  0  0  0  0
   39.0980   27.5050   34.7360 H   0  0  0  0  0  0  0  0  0  0  0  0
   40.3780   26.8170   35.7220 H   0  0  0  0  0  0  0  0  0  0  0  0
   39.9790   24.7320   34.9720 H   0  0  0  0  0  0  0  0  0  0  0  0
   38.0080   25.3420   34.8640 C   0  0  0  0  0  0  0  0  0  0  0  0
   36.9690   25.4590   34.6070 H   0  0  0  0  0  0  0  0  0  0  0  0
   37.7230   24.9750   35.9960 O   0  0  0  0  0  0  0  0  0  0  0  0
   35.3330   19.6890   33.2720 C   0  0  0  0  0  0  0  0  0  0  0  0
   35.5110   18.7970   32.2200 C   0  0  0  0  0  0  0  0  0  0  0  0
   36.0200   19.3310   31.0410 C   0  0  0  0  0  0  0  0  0  0  0  0
   36.3130   20.6680   30.9750 N   0  0  0  0  0  0  0  0  0  0  0  0
   36.1210   21.4780   32.0250 C   0  0  0  0  0  0  0  0  0  0  0  0
   35.6260   20.9930   33.1870 N   0  0  0  0  0  0  0  0  0  0  0  0
   34.9390   19.3200   34.2100 H   0  0  0  0  0  0  0  0  0  0  0  0
   35.2540   17.7560   32.3560 H   0  0  0  0  0  0  0  0  0  0  0  0
   36.1700   18.6710   30.2090 H   0  0  0  0  0  0  0  0  0  0  0  0
  2  7  1  0  0  0  0
  2  1  1  0  0  0  0
  3 34  1  0  0  0  0
  3  2  2  0  0  0  0
  4  5  2  0  0  0  0
  4  3  1  0  0  0  0
  5  6  1  0  0  0  0
  6  7  2  0  0  0  0
  7 11  1  0  0  0  0
  8  4  1  0  0  0  0
  9  5  1  0  0  0  0
 10  6  1  0  0  0  0
 11 17  1  6  0  0  0
 11 16  1  0  0  0  0
 12 13  1  0  0  0  0
 12 11  1  0  0  0  0
 13 21  1  0  0  0  0
 13 14  1  0  0  0  0
 14 23  1  0  0  0  0
 14 15  1  0  0  0  0
 15 24  1  0  0  0  0
 15 25  1  0  0  0  0
 16 15  1  0  0  0  0
 16 27  1  0  0  0  0
 16 26  1  1  0  0  0
 18 12  1  0  0  0  0
 19 12  1  0  0  0  0
 20 13  1  0  0  0  0
 22 14  1  0  0  0  0
 27 29  2  0  0  0  0
 28 27  1  0  0  0  0
 30 36  1  0  0  0  0
 31 37  1  0  0  0  0
 31 30  2  0  0  0  0
 32 31  1  0  0  0  0
 33 32  2  0  0  0  0
 33 34  1  0  0  0  0
 34 35  2  0  0  0  0
 35 30  1  0  0  0  0
 38 32  1  0  0  0  0
M  END
>  <minimizedAffinity>
-4.87507486

$$$$

 OpenBabel03272500333D

 38 40  0  0  1  0  0  0  0  0999 V2000
   35.7910   23.8100   31.5090 Cl  0  0  0  0  0  0  0  0  0  0  0  0
   37.2450   23.2610   32.3020 C   0  0  0  0  0  0  0  0  0  0  0  0
   38.0320   24.2720   32.7830 C   0  0  0  0  0  0  0  0  0  0  0  0
   39.1810   23.9180   33.4810 C   0  0  0  0  0  0  0  0  0  0  0  0
   39.4550   22.5690   33.6460 C   0  0  0  0  0  0  0  0  0  0  0  0
   38.5970   21.6180   33.1240 C   0  0  0  0  0  0  0  0  0  0  0  0
   37.4630   21.9230   32.4340 C   0  0  0  0  0  0  0  0  0  0  0  0
   39.8420   24.6730   33.8840 H   0  0  0  0  0  0  0  0  0  0  0  0
   40.3490   22.2940   34.1910 H   0  0  0  0  0  0  0  0  0  0  0  0
   38.8700   20.5720   33.2900 H   0  0  0  0  0  0  0  0  0  0  0  0
   36.5740   20.9090   31.8130 C   0  0  1  0  0  0  0  0  0  0  0  0
   37.3400   19.9350   31.0570 C   0  0  0  0  0  0  0  0  0  0  0  0
   36.2450   18.9790   30.5600 C   0  0  0  0  0  0  0  0  0  0  0  0
   35.9480   18.1360   31.8050 C   0  0  0  0  0  0  0  0  0  0  0  0
   35.5100   18.9310   32.9540 C   0  0  0  0  0  0  0  0  0  0  0  0
   35.5540   20.3960   32.8070 C   0  0  1  0  0  0  0  0  0  0  0  0
   35.9210   21.5350   31.1430 H   0  0  0  0  0  0  0  0  0  0  0  0
   37.8000   20.3720   30.1450 H   0  0  0  0  0  0  0  0  0  0  0  0
   37.8640   19.0890   31.4630 H   0  0  0  0  0  0  0  0  0  0  0  0
   36.6310   18.3450   29.7580 H   0  0  0  0  0  0  0  0  0  0  0  0
   35.3350   19.5470   30.2700 H   0  0  0  0  0  0  0  0  0  0  0  0
   36.9370   17.6270   32.0050 H   0  0  0  0  0  0  0  0  0  0  0  0
   35.2960   17.3390   31.4600 H   0  0  0  0  0  0  0  0  0  0  0  0
   36.1630   18.6750   33.8420 H   0  0  0  0  0  0  0  0  0  0  0  0
   34.4960   18.5950   33.2920 H   0  0  0  0  0  0  0  0  0  0  0  0
   34.5300   20.7180   32.5440 H   0  0  0  0  0  0  0  0  0  0  0  0
   35.8250   21.0610   34.1180 C   0  0  0  0  0  0  0  0  0  0  0  0
   36.2390   21.9330   34.5940 H   0  0  0  0  0  0  0  0  0  0  0  0
   35.5260   20.5690   35.1980 O   0  0  0  0  0  0  0  0  0  0  0  0
   36.7020   27.5980   33.5170 C   0  0  0  0  0  0  0  0  0  0  0  0
   36.9100   28.3300   32.3530 C   0  0  0  0  0  0  0  0  0  0  0  0
   37.5280   27.6560   31.3050 C   0  0  0  0  0  0  0  0  0  0  0  0
   37.8910   26.3440   31.4660 N   0  0  0  0  0  0  0  0  0  0  0  0
   37.6630   25.6910   32.6130 C   0  0  0  0  0  0  0  0  0  0  0  0
   37.0640   26.3170   33.6540 N   0  0  0  0  0  0  0  0  0  0  0  0
   36.2240   28.0810   34.3600 H   0  0  0  0  0  0  0  0  0  0  0  0
   36.5930   29.3620   32.3090 H   0  0  0  0  0  0  0  0  0  0  0  0
   37.7050   28.1900   30.3920 H   0  0  0  0  0  0  0  0  0  0  0  0
  1  2  1  0  0  0  0
  2  7  2  0  0  0  0
  2  3  1  0  0  0  0
  3  4  2  0  0  0  0
  4  5  1  0  0  0  0
  4  8  1  0  0  0  0
  5  9  1  0  0  0  0
  6 10  1  0  0  0  0
  6  5  2  0  0  0  0
  7  6  1  0  0  0  0
 11 17  1  6  0  0  0
 11  7  1  0  0  0  0
 11 16  1  0  0  0  0
 12 19  1  0  0  0  0
 12 11  1  0  0  0  0
 13 12  1  0  0  0  0
 13 14  1  0  0  0  0
 14 22  1  0  0  0  0
 14 15  1  0  0  0  0
 15 25  1  0  0  0  0
 15 24  1  0  0  0  0
 16 26  1  6  0  0  0
 16 15  1  0  0  0  0
 16 27  1  0  0  0  0
 18 12  1  0  0  0  0
 20 13  1  0  0  0  0
 21 13  1  0  0  0  0
 23 14  1  0  0  0  0
 27 28  1  0  0  0  0
 27 29  2  0  0  0  0
 30 35  1  0  0  0  0
 30 36  1  0  0  0  0
 31 30  2  0  0  0  0
 32 33  2  0  0  0  0
 32 31  1  0  0  0  0
 33 34  1  0  0  0  0
 34  3  1  0  0  0  0
 34 35  2  0  0  0  0
 37 31  1  0  0  0  0
 38 32  1  0  0  0  0
M  END
>  <minimizedAffinity>
-4.85342789

$$$$
