
 OpenBabel03272509493D

 27 28  0  0  0  0  0  0  0  0999 V2000
   33.7180   28.5910   48.7000 C   0  0  0  0  0  0  0  0  0  0  0  0
   33.1900   29.5220   48.9840 H   0  0  0  0  0  0  0  0  0  0  0  0
   34.3600   28.8560   47.8170 H   0  0  0  0  0  0  0  0  0  0  0  0
   32.8050   27.4570   48.3470 C   0  0  0  0  0  0  0  0  0  0  0  0
   33.0330   27.0380   47.3270 H   0  0  0  0  0  0  0  0  0  0  0  0
   32.9400   26.6000   49.0430 H   0  0  0  0  0  0  0  0  0  0  0  0
   31.3660   27.8600   48.3520 C   0  0  0  0  0  0  0  0  0  0  0  0
   30.6910   27.7310   49.5380 C   0  0  0  0  0  0  0  0  0  0  0  0
   29.3610   28.0720   49.6650 C   0  0  0  0  0  0  0  0  0  0  0  0
   28.7140   28.5430   48.5840 N   0  0  0  0  0  0  0  0  0  0  0  0
   29.3850   28.6670   47.4200 C   0  0  0  0  0  0  0  0  0  0  0  0
   30.6840   28.3360   47.2930 N   0  0  0  0  0  0  0  0  0  0  0  0
   31.1590   27.3560   50.4480 H   0  0  0  0  0  0  0  0  0  0  0  0
   28.8100   27.9770   50.5920 H   0  0  0  0  0  0  0  0  0  0  0  0
   28.8310   29.0510   46.5710 H   0  0  0  0  0  0  0  0  0  0  0  0
   34.6130   28.2160   49.7380 O   0  0  0  0  0  0  0  0  0  0  0  0
   37.2390   30.1820   51.2730 C   0  0  0  0  0  0  0  0  0  0  0  0
   37.9000   30.6280   50.1100 C   0  0  0  0  0  0  0  0  0  0  0  0
   37.4090   30.2320   48.8800 C   0  0  0  0  0  0  0  0  0  0  0  0
   36.3040   29.4260   48.9010 N   0  0  0  0  0  0  0  0  0  0  0  0
   35.6940   29.0140   50.0060 C   0  0  0  0  0  0  0  0  0  0  0  0
   36.1710   29.4000   51.1980 N   0  0  0  0  0  0  0  0  0  0  0  0
   37.6280   30.4960   52.2450 H   0  0  0  0  0  0  0  0  0  0  0  0
   38.7600   31.2570   50.1270 H   0  0  0  0  0  0  0  0  0  0  0  0
   38.0380   30.6520   47.6170 C   0  0  0  0  0  0  0  0  0  0  0  0
   39.1180   30.5920   47.5770 H   0  0  0  0  0  0  0  0  0  0  0  0
   37.2720   31.0440   46.7010 O   0  0  0  0  0  0  0  0  0  0  0  0
  1  2  1  0  0  0  0
  1 16  1  0  0  0  0
  3  1  1  0  0  0  0
  4  7  1  0  0  0  0
  4  1  1  0  0  0  0
  4  6  1  0  0  0  0
  5  4  1  0  0  0  0
  7  8  1  0  0  0  0
  8  9  2  0  0  0  0
  8 13  1  0  0  0  0
  9 14  1  0  0  0  0
 10  9  1  0  0  0  0
 11 10  2  0  0  0  0
 12 11  1  0  0  0  0
 12  7  2  0  0  0  0
 15 11  1  0  0  0  0
 16 21  1  0  0  0  0
 17 23  1  0  0  0  0
 18 24  1  0  0  0  0
 18 17  2  0  0  0  0
 19 20  2  0  0  0  0
 19 18  1  0  0  0  0
 20 21  1  0  0  0  0
 21 22  2  0  0  0  0
 22 17  1  0  0  0  0
 25 19  1  0  0  0  0
 26 25  1  0  0  0  0
 27 25  2  0  0  0  0
M  END
>  <minimizedAffinity>
-4.67738962

>  <minimizedRMSD>
0.0171315689

$$$$
