
 OpenBabel03272509493D

 27 28  0  0  0  0  0  0  0  0999 V2000
   33.7220   28.5910   48.6990 C   0  0  0  0  0  0  0  0  0  0  0  0
   33.1940   29.5200   48.9880 H   0  0  0  0  0  0  0  0  0  0  0  0
   34.3600   28.8580   47.8150 H   0  0  0  0  0  0  0  0  0  0  0  0
   32.8080   27.4560   48.3480 C   0  0  0  0  0  0  0  0  0  0  0  0
   33.0370   27.0350   47.3290 H   0  0  0  0  0  0  0  0  0  0  0  0
   32.9420   26.6000   49.0450 H   0  0  0  0  0  0  0  0  0  0  0  0
   31.3700   27.8600   48.3510 C   0  0  0  0  0  0  0  0  0  0  0  0
   30.6910   27.7270   49.5350 C   0  0  0  0  0  0  0  0  0  0  0  0
   29.3610   28.0680   49.6600 C   0  0  0  0  0  0  0  0  0  0  0  0
   28.7180   28.5440   48.5790 N   0  0  0  0  0  0  0  0  0  0  0  0
   29.3910   28.6720   47.4170 C   0  0  0  0  0  0  0  0  0  0  0  0
   30.6900   28.3410   47.2920 N   0  0  0  0  0  0  0  0  0  0  0  0
   31.1570   27.3480   50.4440 H   0  0  0  0  0  0  0  0  0  0  0  0
   28.8080   27.9700   50.5850 H   0  0  0  0  0  0  0  0  0  0  0  0
   28.8390   29.0600   46.5680 H   0  0  0  0  0  0  0  0  0  0  0  0
   34.6210   28.2140   49.7340 O   0  0  0  0  0  0  0  0  0  0  0  0
   37.2410   30.1860   51.2700 C   0  0  0  0  0  0  0  0  0  0  0  0
   37.9010   30.6350   50.1080 C   0  0  0  0  0  0  0  0  0  0  0  0
   37.4120   30.2370   48.8770 C   0  0  0  0  0  0  0  0  0  0  0  0
   36.3090   29.4290   48.8980 N   0  0  0  0  0  0  0  0  0  0  0  0
   35.6990   29.0150   50.0030 C   0  0  0  0  0  0  0  0  0  0  0  0
   36.1750   29.4010   51.1950 N   0  0  0  0  0  0  0  0  0  0  0  0
   37.6290   30.5010   52.2420 H   0  0  0  0  0  0  0  0  0  0  0  0
   38.7590   31.2660   50.1250 H   0  0  0  0  0  0  0  0  0  0  0  0
   38.0400   30.6600   47.6150 C   0  0  0  0  0  0  0  0  0  0  0  0
   38.6840   29.9360   47.1350 H   0  0  0  0  0  0  0  0  0  0  0  0
   37.7770   31.8210   47.2070 O   0  0  0  0  0  0  0  0  0  0  0  0
  1  2  1  0  0  0  0
  1 16  1  0  0  0  0
  3  1  1  0  0  0  0
  4  7  1  0  0  0  0
  4  1  1  0  0  0  0
  4  6  1  0  0  0  0
  5  4  1  0  0  0  0
  7  8  1  0  0  0  0
  8  9  2  0  0  0  0
  8 13  1  0  0  0  0
  9 14  1  0  0  0  0
 10  9  1  0  0  0  0
 11 10  2  0  0  0  0
 12 11  1  0  0  0  0
 12  7  2  0  0  0  0
 15 11  1  0  0  0  0
 16 21  1  0  0  0  0
 17 23  1  0  0  0  0
 18 24  1  0  0  0  0
 18 17  2  0  0  0  0
 19 20  2  0  0  0  0
 19 18  1  0  0  0  0
 20 21  1  0  0  0  0
 21 22  2  0  0  0  0
 22 17  1  0  0  0  0
 25 19  1  0  0  0  0
 26 25  1  0  0  0  0
 27 25  2  0  0  0  0
M  END
>  <minimizedAffinity>
-4.70216942

>  <minimizedRMSD>
0.0305013675

$$$$
