
 OpenBabel03272507453D

 27 28  0  0  0  0  0  0  0  0999 V2000
   38.0130   24.9850   33.8030 N   0  0  0  0  0  0  0  0  0  0  0  0
   38.4390   23.6650   34.1180 C   0  0  0  0  0  0  0  0  0  0  0  0
   38.4330   23.2520   35.5310 C   0  0  0  0  0  0  0  0  0  0  0  0
   38.6000   24.2920   36.5630 C   0  0  0  0  0  0  0  0  0  0  0  0
   38.2110   25.6790   36.1130 C   0  0  0  0  0  0  0  0  0  0  0  0
   38.6940   25.9050   34.6850 C   0  0  0  0  0  0  0  0  0  0  0  0
   37.8360   22.9500   33.5020 H   0  0  0  0  0  0  0  0  0  0  0  0
   39.4870   23.5660   33.7120 H   0  0  0  0  0  0  0  0  0  0  0  0
   37.5040   22.6540   35.7130 H   0  0  0  0  0  0  0  0  0  0  0  0
   39.2560   22.4940   35.6820 H   0  0  0  0  0  0  0  0  0  0  0  0
   39.6160   24.3230   37.0060 H   0  0  0  0  0  0  0  0  0  0  0  0
   37.1230   25.8440   36.1350 H   0  0  0  0  0  0  0  0  0  0  0  0
   38.7830   26.4050   36.7250 H   0  0  0  0  0  0  0  0  0  0  0  0
   38.4310   26.9690   34.4360 H   0  0  0  0  0  0  0  0  0  0  0  0
   39.7910   25.8660   34.6110 H   0  0  0  0  0  0  0  0  0  0  0  0
   37.0730   25.3460   32.7870 C   0  0  0  0  0  0  0  0  0  0  0  0
   36.7210   26.6670   32.4690 C   0  0  0  0  0  0  0  0  0  0  0  0
   35.7880   26.8620   31.4520 C   0  0  0  0  0  0  0  0  0  0  0  0
   35.2740   25.7670   30.8310 N   0  0  0  0  0  0  0  0  0  0  0  0
   35.6390   24.5150   31.1680 C   0  0  0  0  0  0  0  0  0  0  0  0
   36.5380   24.3150   32.1480 N   0  0  0  0  0  0  0  0  0  0  0  0
   37.1960   27.4480   33.0300 H   0  0  0  0  0  0  0  0  0  0  0  0
   35.5190   27.8810   31.2090 H   0  0  0  0  0  0  0  0  0  0  0  0
   35.2100   23.6560   30.6530 H   0  0  0  0  0  0  0  0  0  0  0  0
   37.6800   23.9800   37.7160 C   0  0  0  0  0  0  0  0  0  0  0  0
   36.8490   23.2910   37.6270 H   0  0  0  0  0  0  0  0  0  0  0  0
   37.9670   24.5800   38.7610 O   0  0  0  0  0  0  0  0  0  0  0  0
  1  2  1  0  0  0  0
  1  6  1  0  0  0  0
  2  3  1  0  0  0  0
  3 10  1  0  0  0  0
  3  9  1  0  0  0  0
  3  4  1  0  0  0  0
  4 11  1  0  0  0  0
  4 25  1  0  0  0  0
  5 12  1  0  0  0  0
  5  4  1  0  0  0  0
  5 13  1  0  0  0  0
  6  5  1  0  0  0  0
  7  2  1  0  0  0  0
  8  2  1  0  0  0  0
 14  6  1  0  0  0  0
 15  6  1  0  0  0  0
 16  1  1  0  0  0  0
 17 16  1  0  0  0  0
 17 22  1  0  0  0  0
 18 17  2  0  0  0  0
 19 20  2  0  0  0  0
 19 18  1  0  0  0  0
 20 21  1  0  0  0  0
 21 16  2  0  0  0  0
 23 18  1  0  0  0  0
 24 20  1  0  0  0  0
 25 27  2  0  0  0  0
 26 25  1  0  0  0  0
M  END
>  <minimizedAffinity>
-4.05343437

$$$$

 OpenBabel03272507453D

 27 28  0  0  0  0  0  0  0  0999 V2000
   39.0370   24.8560   34.7470 N   0  0  0  0  0  0  0  0  0  0  0  0
   39.8740   25.9290   34.3320 C   0  0  0  0  0  0  0  0  0  0  0  0
   39.2780   26.9990   33.5160 C   0  0  0  0  0  0  0  0  0  0  0  0
   38.1160   26.6680   32.6710 C   0  0  0  0  0  0  0  0  0  0  0  0
   37.3380   25.4600   33.1320 C   0  0  0  0  0  0  0  0  0  0  0  0
   38.3070   24.3780   33.5950 C   0  0  0  0  0  0  0  0  0  0  0  0
   40.3620   26.3600   35.2430 H   0  0  0  0  0  0  0  0  0  0  0  0
   40.7240   25.4610   33.7570 H   0  0  0  0  0  0  0  0  0  0  0  0
   39.0470   27.8620   34.1920 H   0  0  0  0  0  0  0  0  0  0  0  0
   40.0790   27.4160   32.8380 H   0  0  0  0  0  0  0  0  0  0  0  0
   38.3650   26.5530   31.5950 H   0  0  0  0  0  0  0  0  0  0  0  0
   36.6560   25.6860   33.9650 H   0  0  0  0  0  0  0  0  0  0  0  0
   36.8300   25.0270   32.2470 H   0  0  0  0  0  0  0  0  0  0  0  0
   37.6710   23.4900   33.8640 H   0  0  0  0  0  0  0  0  0  0  0  0
   38.9480   24.0220   32.7750 H   0  0  0  0  0  0  0  0  0  0  0  0
   38.9320   24.3360   36.0750 C   0  0  0  0  0  0  0  0  0  0  0  0
   37.9730   24.7480   37.0130 C   0  0  0  0  0  0  0  0  0  0  0  0
   37.9960   24.1480   38.2710 C   0  0  0  0  0  0  0  0  0  0  0  0
   38.9420   23.2020   38.5150 N   0  0  0  0  0  0  0  0  0  0  0  0
   39.8450   22.8340   37.5860 C   0  0  0  0  0  0  0  0  0  0  0  0
   39.8330   23.4080   36.3690 N   0  0  0  0  0  0  0  0  0  0  0  0
   37.2780   25.5030   36.7020 H   0  0  0  0  0  0  0  0  0  0  0  0
   37.2560   24.4680   38.9910 H   0  0  0  0  0  0  0  0  0  0  0  0
   40.5920   22.0730   37.8110 H   0  0  0  0  0  0  0  0  0  0  0  0
   37.1360   27.8130   32.7260 C   0  0  0  0  0  0  0  0  0  0  0  0
   36.8650   28.3880   31.8510 H   0  0  0  0  0  0  0  0  0  0  0  0
   36.6790   28.0240   33.8580 O   0  0  0  0  0  0  0  0  0  0  0  0
  1 16  1  0  0  0  0
  2  1  1  0  0  0  0
  2  7  1  0  0  0  0
  3  9  1  0  0  0  0
  3  2  1  0  0  0  0
  4 25  1  0  0  0  0
  4  5  1  0  0  0  0
  4  3  1  0  0  0  0
  5  6  1  0  0  0  0
  5 12  1  0  0  0  0
  6 14  1  0  0  0  0
  6  1  1  0  0  0  0
  8  2  1  0  0  0  0
 10  3  1  0  0  0  0
 11  4  1  0  0  0  0
 13  5  1  0  0  0  0
 15  6  1  0  0  0  0
 16 21  2  0  0  0  0
 16 17  1  0  0  0  0
 17 18  2  0  0  0  0
 18 19  1  0  0  0  0
 18 23  1  0  0  0  0
 20 24  1  0  0  0  0
 20 19  2  0  0  0  0
 21 20  1  0  0  0  0
 22 17  1  0  0  0  0
 25 27  2  0  0  0  0
 26 25  1  0  0  0  0
M  END
>  <minimizedAffinity>
-3.91260743

$$$$

 OpenBabel03272507453D

 27 28  0  0  0  0  0  0  0  0999 V2000
   38.5210   23.8880   36.0130 N   0  0  0  0  0  0  0  0  0  0  0  0
   38.6920   23.5740   37.3900 C   0  0  0  0  0  0  0  0  0  0  0  0
   39.8950   22.8240   37.7860 C   0  0  0  0  0  0  0  0  0  0  0  0
   40.5180   21.9280   36.7940 C   0  0  0  0  0  0  0  0  0  0  0  0
   40.2080   22.2800   35.3600 C   0  0  0  0  0  0  0  0  0  0  0  0
   38.7440   22.6860   35.2420 C   0  0  0  0  0  0  0  0  0  0  0  0
   38.6170   24.5250   37.9750 H   0  0  0  0  0  0  0  0  0  0  0  0
   37.7790   22.9870   37.6960 H   0  0  0  0  0  0  0  0  0  0  0  0
   40.6420   23.5560   38.1880 H   0  0  0  0  0  0  0  0  0  0  0  0
   39.6410   22.1980   38.6920 H   0  0  0  0  0  0  0  0  0  0  0  0
   40.2980   20.8540   36.9630 H   0  0  0  0  0  0  0  0  0  0  0  0
   40.8240   23.1100   34.9830 H   0  0  0  0  0  0  0  0  0  0  0  0
   40.2950   21.3530   34.7590 H   0  0  0  0  0  0  0  0  0  0  0  0
   38.5630   22.8730   34.1480 H   0  0  0  0  0  0  0  0  0  0  0  0
   38.0650   21.8590   35.4970 H   0  0  0  0  0  0  0  0  0  0  0  0
   38.1840   25.1710   35.4790 C   0  0  0  0  0  0  0  0  0  0  0  0
   38.3310   26.3810   36.1740 C   0  0  0  0  0  0  0  0  0  0  0  0
   37.9600   27.5550   35.5200 C   0  0  0  0  0  0  0  0  0  0  0  0
   37.4780   27.4590   34.2520 N   0  0  0  0  0  0  0  0  0  0  0  0
   37.3530   26.2770   33.6200 C   0  0  0  0  0  0  0  0  0  0  0  0
   37.7080   25.1380   34.2420 N   0  0  0  0  0  0  0  0  0  0  0  0
   38.7230   26.3270   37.1710 H   0  0  0  0  0  0  0  0  0  0  0  0
   38.0740   28.4850   36.0600 H   0  0  0  0  0  0  0  0  0  0  0  0
   36.9640   26.2320   32.6030 H   0  0  0  0  0  0  0  0  0  0  0  0
   42.0170   22.0430   36.9130 C   0  0  0  0  0  0  0  0  0  0  0  0
   42.6470   21.1990   37.1630 H   0  0  0  0  0  0  0  0  0  0  0  0
   42.4480   23.1840   36.6970 O   0  0  0  0  0  0  0  0  0  0  0  0
  1  2  1  0  0  0  0
  2  8  1  0  0  0  0
  2  3  1  0  0  0  0
  2  7  1  0  0  0  0
  3  9  1  0  0  0  0
  3 10  1  0  0  0  0
  4 25  1  0  0  0  0
  4 11  1  0  0  0  0
  4  3  1  0  0  0  0
  5  4  1  0  0  0  0
  6  5  1  0  0  0  0
  6 15  1  0  0  0  0
  6  1  1  0  0  0  0
 12  5  1  0  0  0  0
 13  5  1  0  0  0  0
 14  6  1  0  0  0  0
 16  1  1  0  0  0  0
 16 17  1  0  0  0  0
 17 22  1  0  0  0  0
 18 23  1  0  0  0  0
 18 17  2  0  0  0  0
 19 18  1  0  0  0  0
 20 21  1  0  0  0  0
 20 19  2  0  0  0  0
 21 16  2  0  0  0  0
 24 20  1  0  0  0  0
 25 26  1  0  0  0  0
 27 25  2  0  0  0  0
M  END
>  <minimizedAffinity>
-3.89783931

$$$$

 OpenBabel03272507453D

 27 28  0  0  0  0  0  0  0  0999 V2000
   38.2730   24.0360   33.9540 N   0  0  0  0  0  0  0  0  0  0  0  0
   38.6020   22.7250   34.3980 C   0  0  0  0  0  0  0  0  0  0  0  0
   38.5810   22.4570   35.8460 C   0  0  0  0  0  0  0  0  0  0  0  0
   38.8350   23.5790   36.7680 C   0  0  0  0  0  0  0  0  0  0  0  0
   38.5460   24.9400   36.1830 C   0  0  0  0  0  0  0  0  0  0  0  0
   39.0300   24.9850   34.7380 C   0  0  0  0  0  0  0  0  0  0  0  0
   37.9420   22.0000   33.8590 H   0  0  0  0  0  0  0  0  0  0  0  0
   39.6360   22.5080   34.0020 H   0  0  0  0  0  0  0  0  0  0  0  0
   37.6110   21.9510   36.0900 H   0  0  0  0  0  0  0  0  0  0  0  0
   39.3470   21.6580   36.0700 H   0  0  0  0  0  0  0  0  0  0  0  0
   39.8560   23.5770   37.2020 H   0  0  0  0  0  0  0  0  0  0  0  0
   37.4740   25.1880   36.1910 H   0  0  0  0  0  0  0  0  0  0  0  0
   39.1770   25.6780   36.7170 H   0  0  0  0  0  0  0  0  0  0  0  0
   38.8450   26.0360   34.3840 H   0  0  0  0  0  0  0  0  0  0  0  0
   40.1200   24.8560   34.6650 H   0  0  0  0  0  0  0  0  0  0  0  0
   37.3520   24.3640   32.9100 C   0  0  0  0  0  0  0  0  0  0  0  0
   36.7270   23.4190   32.0810 C   0  0  0  0  0  0  0  0  0  0  0  0
   35.8510   23.8920   31.1050 C   0  0  0  0  0  0  0  0  0  0  0  0
   35.6530   25.2340   31.0140 N   0  0  0  0  0  0  0  0  0  0  0  0
   36.2730   26.1070   31.8300 C   0  0  0  0  0  0  0  0  0  0  0  0
   37.1210   25.6620   32.7750 N   0  0  0  0  0  0  0  0  0  0  0  0
   36.9630   22.3870   32.2510 H   0  0  0  0  0  0  0  0  0  0  0  0
   35.3720   23.1610   30.4680 H   0  0  0  0  0  0  0  0  0  0  0  0
   36.0960   27.1780   31.7330 H   0  0  0  0  0  0  0  0  0  0  0  0
   37.9070   23.4530   37.9490 C   0  0  0  0  0  0  0  0  0  0  0  0
   37.3460   22.5500   38.1540 H   0  0  0  0  0  0  0  0  0  0  0  0
   37.8520   24.4720   38.6520 O   0  0  0  0  0  0  0  0  0  0  0  0
  1  2  1  0  0  0  0
  1  6  1  0  0  0  0
  2  3  1  0  0  0  0
  3 10  1  0  0  0  0
  3  9  1  0  0  0  0
  3  4  1  0  0  0  0
  4 11  1  0  0  0  0
  4 25  1  0  0  0  0
  5 12  1  0  0  0  0
  5 13  1  0  0  0  0
  5  4  1  0  0  0  0
  6  5  1  0  0  0  0
  7  2  1  0  0  0  0
  8  2  1  0  0  0  0
 14  6  1  0  0  0  0
 15  6  1  0  0  0  0
 16  1  1  0  0  0  0
 17 22  1  0  0  0  0
 17 16  2  0  0  0  0
 18 17  1  0  0  0  0
 19 18  2  0  0  0  0
 19 20  1  0  0  0  0
 20 21  2  0  0  0  0
 21 16  1  0  0  0  0
 23 18  1  0  0  0  0
 24 20  1  0  0  0  0
 25 26  1  0  0  0  0
 25 27  2  0  0  0  0
M  END
>  <minimizedAffinity>
-3.89516211

$$$$

 OpenBabel03272507453D

 27 28  0  0  0  0  0  0  0  0999 V2000
   37.9230   26.3550   34.2290 N   0  0  0  0  0  0  0  0  0  0  0  0
   38.2110   25.0000   33.9020 C   0  0  0  0  0  0  0  0  0  0  0  0
   38.2250   24.0110   34.9910 C   0  0  0  0  0  0  0  0  0  0  0  0
   38.5560   24.4750   36.3520 C   0  0  0  0  0  0  0  0  0  0  0  0
   38.3060   25.9450   36.5830 C   0  0  0  0  0  0  0  0  0  0  0  0
   38.7450   26.7340   35.3560 C   0  0  0  0  0  0  0  0  0  0  0  0
   37.5040   24.6800   33.0950 H   0  0  0  0  0  0  0  0  0  0  0  0
   39.2220   25.0050   33.4000 H   0  0  0  0  0  0  0  0  0  0  0  0
   37.2430   23.4710   34.9810 H   0  0  0  0  0  0  0  0  0  0  0  0
   38.9630   23.1990   34.7250 H   0  0  0  0  0  0  0  0  0  0  0  0
   39.5890   24.2250   36.6700 H   0  0  0  0  0  0  0  0  0  0  0  0
   37.2460   26.1710   36.7740 H   0  0  0  0  0  0  0  0  0  0  0  0
   38.9840   26.2790   37.3940 H   0  0  0  0  0  0  0  0  0  0  0  0
   38.5930   27.8180   35.6160 H   0  0  0  0  0  0  0  0  0  0  0  0
   39.8260   26.6430   35.1720 H   0  0  0  0  0  0  0  0  0  0  0  0
   36.9840   27.2000   33.5590 C   0  0  0  0  0  0  0  0  0  0  0  0
   36.3800   28.3250   34.1400 C   0  0  0  0  0  0  0  0  0  0  0  0
   35.4810   29.0540   33.3610 C   0  0  0  0  0  0  0  0  0  0  0  0
   35.2440   28.6330   32.0900 N   0  0  0  0  0  0  0  0  0  0  0  0
   35.8460   27.5460   31.5710 C   0  0  0  0  0  0  0  0  0  0  0  0
   36.7140   26.8350   32.3140 N   0  0  0  0  0  0  0  0  0  0  0  0
   36.6480   28.5570   35.1520 H   0  0  0  0  0  0  0  0  0  0  0  0
   35.0170   29.9200   33.8120 H   0  0  0  0  0  0  0  0  0  0  0  0
   35.6360   27.2330   30.5490 H   0  0  0  0  0  0  0  0  0  0  0  0
   37.6610   23.7630   37.3350 C   0  0  0  0  0  0  0  0  0  0  0  0
   36.9550   23.0010   37.0330 H   0  0  0  0  0  0  0  0  0  0  0  0
   37.8150   24.1320   38.5080 O   0  0  0  0  0  0  0  0  0  0  0  0
  1  6  1  0  0  0  0
  2  1  1  0  0  0  0
  2  3  1  0  0  0  0
  3  4  1  0  0  0  0
  4  5  1  0  0  0  0
  4 11  1  0  0  0  0
  4 25  1  0  0  0  0
  5 12  1  0  0  0  0
  5 13  1  0  0  0  0
  6 14  1  0  0  0  0
  6  5  1  0  0  0  0
  7  2  1  0  0  0  0
  8  2  1  0  0  0  0
  9  3  1  0  0  0  0
 10  3  1  0  0  0  0
 15  6  1  0  0  0  0
 16 17  1  0  0  0  0
 16  1  1  0  0  0  0
 17 22  1  0  0  0  0
 18 23  1  0  0  0  0
 18 17  2  0  0  0  0
 19 18  1  0  0  0  0
 20 19  2  0  0  0  0
 20 21  1  0  0  0  0
 21 16  2  0  0  0  0
 24 20  1  0  0  0  0
 25 27  2  0  0  0  0
 26 25  1  0  0  0  0
M  END
>  <minimizedAffinity>
-3.86674237

$$$$

 OpenBabel03272507453D

 27 28  0  0  0  0  0  0  0  0999 V2000
   38.5210   24.5140   34.4610 N   0  0  0  0  0  0  0  0  0  0  0  0
   37.9830   25.7400   33.9790 C   0  0  0  0  0  0  0  0  0  0  0  0
   37.0170   25.6850   32.8700 C   0  0  0  0  0  0  0  0  0  0  0  0
   37.0990   24.5530   31.9280 C   0  0  0  0  0  0  0  0  0  0  0  0
   37.7670   23.3240   32.4930 C   0  0  0  0  0  0  0  0  0  0  0  0
   38.9730   23.7390   33.3280 C   0  0  0  0  0  0  0  0  0  0  0  0
   37.5460   26.2920   34.8490 H   0  0  0  0  0  0  0  0  0  0  0  0
   38.8660   26.3690   33.6650 H   0  0  0  0  0  0  0  0  0  0  0  0
   35.9880   25.7720   33.3020 H   0  0  0  0  0  0  0  0  0  0  0  0
   37.1190   26.6330   32.2640 H   0  0  0  0  0  0  0  0  0  0  0  0
   37.5700   24.8120   30.9580 H   0  0  0  0  0  0  0  0  0  0  0  0
   37.0960   22.7310   33.1340 H   0  0  0  0  0  0  0  0  0  0  0  0
   38.1920   22.7510   31.6450 H   0  0  0  0  0  0  0  0  0  0  0  0
   39.4590   22.7820   33.6640 H   0  0  0  0  0  0  0  0  0  0  0  0
   39.7400   24.2410   32.7200 H   0  0  0  0  0  0  0  0  0  0  0  0
   38.6040   24.1130   35.8310 C   0  0  0  0  0  0  0  0  0  0  0  0
   37.7250   24.5440   36.8370 C   0  0  0  0  0  0  0  0  0  0  0  0
   37.9330   24.0660   38.1290 C   0  0  0  0  0  0  0  0  0  0  0  0
   38.9710   23.2130   38.3400 N   0  0  0  0  0  0  0  0  0  0  0  0
   39.7910   22.8220   37.3470 C   0  0  0  0  0  0  0  0  0  0  0  0
   39.6010   23.2790   36.0950 N   0  0  0  0  0  0  0  0  0  0  0  0
   36.9440   25.2190   36.5460 H   0  0  0  0  0  0  0  0  0  0  0  0
   37.2540   24.4010   38.9020 H   0  0  0  0  0  0  0  0  0  0  0  0
   40.6150   22.1380   37.5460 H   0  0  0  0  0  0  0  0  0  0  0  0
   35.6990   24.1150   31.5790 C   0  0  0  0  0  0  0  0  0  0  0  0
   34.9270   24.8150   31.2840 H   0  0  0  0  0  0  0  0  0  0  0  0
   35.5230   22.8910   31.6600 O   0  0  0  0  0  0  0  0  0  0  0  0
  1 16  1  0  0  0  0
  2  1  1  0  0  0  0
  2  7  1  0  0  0  0
  3  9  1  0  0  0  0
  3  2  1  0  0  0  0
  4  5  1  0  0  0  0
  4  3  1  0  0  0  0
  5 12  1  0  0  0  0
  5  6  1  0  0  0  0
  6 14  1  0  0  0  0
  6  1  1  0  0  0  0
  8  2  1  0  0  0  0
 10  3  1  0  0  0  0
 11  4  1  0  0  0  0
 13  5  1  0  0  0  0
 15  6  1  0  0  0  0
 16 21  2  0  0  0  0
 16 17  1  0  0  0  0
 17 18  2  0  0  0  0
 18 19  1  0  0  0  0
 18 23  1  0  0  0  0
 20 24  1  0  0  0  0
 20 19  2  0  0  0  0
 21 20  1  0  0  0  0
 22 17  1  0  0  0  0
 25 27  2  0  0  0  0
 25  4  1  0  0  0  0
 26 25  1  0  0  0  0
M  END
>  <minimizedAffinity>
-3.84350133

$$$$

 OpenBabel03272507453D

 27 28  0  0  0  0  0  0  0  0999 V2000
   38.5730   26.4890   34.9110 N   0  0  0  0  0  0  0  0  0  0  0  0
   37.5780   27.4590   35.2170 C   0  0  0  0  0  0  0  0  0  0  0  0
   36.6890   27.9060   34.1330 C   0  0  0  0  0  0  0  0  0  0  0  0
   37.1940   27.8530   32.7480 C   0  0  0  0  0  0  0  0  0  0  0  0
   38.3110   26.8630   32.5340 C   0  0  0  0  0  0  0  0  0  0  0  0
   39.2700   26.9140   33.7180 C   0  0  0  0  0  0  0  0  0  0  0  0
   36.9770   27.0780   36.0810 H   0  0  0  0  0  0  0  0  0  0  0  0
   38.1270   28.3530   35.6320 H   0  0  0  0  0  0  0  0  0  0  0  0
   35.7210   27.3500   34.2270 H   0  0  0  0  0  0  0  0  0  0  0  0
   36.3880   28.9750   34.3400 H   0  0  0  0  0  0  0  0  0  0  0  0
   37.4990   28.8410   32.3460 H   0  0  0  0  0  0  0  0  0  0  0  0
   37.9500   25.8280   32.4320 H   0  0  0  0  0  0  0  0  0  0  0  0
   38.9100   27.2110   31.6680 H   0  0  0  0  0  0  0  0  0  0  0  0
   40.1060   26.2040   33.4680 H   0  0  0  0  0  0  0  0  0  0  0  0
   39.7580   27.8950   33.8100 H   0  0  0  0  0  0  0  0  0  0  0  0
   38.8430   25.2970   35.6540 C   0  0  0  0  0  0  0  0  0  0  0  0
   38.0500   24.8280   36.7120 C   0  0  0  0  0  0  0  0  0  0  0  0
   38.4400   23.6480   37.3420 C   0  0  0  0  0  0  0  0  0  0  0  0
   39.5630   23.0220   36.8970 N   0  0  0  0  0  0  0  0  0  0  0  0
   40.2960   23.5060   35.8770 C   0  0  0  0  0  0  0  0  0  0  0  0
   39.9290   24.6450   35.2620 N   0  0  0  0  0  0  0  0  0  0  0  0
   37.1870   25.4100   36.9710 H   0  0  0  0  0  0  0  0  0  0  0  0
   37.8270   23.2900   38.1580 H   0  0  0  0  0  0  0  0  0  0  0  0
   41.1910   22.9830   35.5420 H   0  0  0  0  0  0  0  0  0  0  0  0
   36.0780   27.3900   31.8450 C   0  0  0  0  0  0  0  0  0  0  0  0
   35.4290   28.0810   31.3220 H   0  0  0  0  0  0  0  0  0  0  0  0
   35.9820   26.1580   31.7620 O   0  0  0  0  0  0  0  0  0  0  0  0
  1  2  1  0  0  0  0
  1 16  1  0  0  0  0
  2  8  1  0  0  0  0
  2  7  1  0  0  0  0
  3  9  1  0  0  0  0
  3 10  1  0  0  0  0
  3  2  1  0  0  0  0
  4  3  1  0  0  0  0
  5  4  1  0  0  0  0
  5  6  1  0  0  0  0
  6 15  1  0  0  0  0
  6  1  1  0  0  0  0
 11  4  1  0  0  0  0
 12  5  1  0  0  0  0
 13  5  1  0  0  0  0
 14  6  1  0  0  0  0
 16 17  1  0  0  0  0
 17 22  1  0  0  0  0
 17 18  2  0  0  0  0
 18 23  1  0  0  0  0
 19 18  1  0  0  0  0
 20 19  2  0  0  0  0
 21 16  2  0  0  0  0
 21 20  1  0  0  0  0
 24 20  1  0  0  0  0
 25  4  1  0  0  0  0
 26 25  1  0  0  0  0
 27 25  2  0  0  0  0
M  END
>  <minimizedAffinity>
-3.80835915

$$$$

 OpenBabel03272507453D

 27 28  0  0  0  0  0  0  0  0999 V2000
   36.7120   23.6420   31.9340 N   0  0  0  0  0  0  0  0  0  0  0  0
   35.8170   22.7890   31.2310 C   0  0  0  0  0  0  0  0  0  0  0  0
   35.3960   21.5370   31.8820 C   0  0  0  0  0  0  0  0  0  0  0  0
   36.3090   20.9180   32.8620 C   0  0  0  0  0  0  0  0  0  0  0  0
   37.2860   21.8800   33.4910 C   0  0  0  0  0  0  0  0  0  0  0  0
   37.8080   22.8410   32.4300 C   0  0  0  0  0  0  0  0  0  0  0  0
   34.9220   23.3930   30.9360 H   0  0  0  0  0  0  0  0  0  0  0  0
   36.3210   22.5410   30.2520 H   0  0  0  0  0  0  0  0  0  0  0  0
   34.3830   21.7030   32.3280 H   0  0  0  0  0  0  0  0  0  0  0  0
   35.1970   20.7690   31.0780 H   0  0  0  0  0  0  0  0  0  0  0  0
   36.8620   20.0420   32.4660 H   0  0  0  0  0  0  0  0  0  0  0  0
   36.8370   22.4760   34.3000 H   0  0  0  0  0  0  0  0  0  0  0  0
   38.1740   21.2980   33.8090 H   0  0  0  0  0  0  0  0  0  0  0  0
   38.5730   23.4840   32.9460 H   0  0  0  0  0  0  0  0  0  0  0  0
   38.3720   22.3190   31.6430 H   0  0  0  0  0  0  0  0  0  0  0  0
   36.5580   25.0520   32.1210 C   0  0  0  0  0  0  0  0  0  0  0  0
   35.8050   25.8840   31.2790 C   0  0  0  0  0  0  0  0  0  0  0  0
   35.7490   27.2420   31.5890 C   0  0  0  0  0  0  0  0  0  0  0  0
   36.4240   27.6790   32.6860 N   0  0  0  0  0  0  0  0  0  0  0  0
   37.1350   26.8470   33.4690 C   0  0  0  0  0  0  0  0  0  0  0  0
   37.1980   25.5340   33.1780 N   0  0  0  0  0  0  0  0  0  0  0  0
   35.3170   25.4210   30.4430 H   0  0  0  0  0  0  0  0  0  0  0  0
   35.1680   27.8800   30.9380 H   0  0  0  0  0  0  0  0  0  0  0  0
   37.6670   27.2260   34.3410 H   0  0  0  0  0  0  0  0  0  0  0  0
   35.4920   20.3800   34.0090 C   0  0  0  0  0  0  0  0  0  0  0  0
   34.7070   19.6470   33.8700 H   0  0  0  0  0  0  0  0  0  0  0  0
   35.8040   20.8530   35.1100 O   0  0  0  0  0  0  0  0  0  0  0  0
  1 16  1  0  0  0  0
  1  6  1  0  0  0  0
  2  3  1  0  0  0  0
  2  1  1  0  0  0  0
  3  9  1  0  0  0  0
  3  4  1  0  0  0  0
  4  5  1  0  0  0  0
  4 25  1  0  0  0  0
  5 13  1  0  0  0  0
  5 12  1  0  0  0  0
  6 14  1  0  0  0  0
  6  5  1  0  0  0  0
  7  2  1  0  0  0  0
  8  2  1  0  0  0  0
 10  3  1  0  0  0  0
 11  4  1  0  0  0  0
 15  6  1  0  0  0  0
 16 21  1  0  0  0  0
 17 18  1  0  0  0  0
 17 16  2  0  0  0  0
 18 19  2  0  0  0  0
 19 20  1  0  0  0  0
 20 24  1  0  0  0  0
 21 20  2  0  0  0  0
 22 17  1  0  0  0  0
 23 18  1  0  0  0  0
 25 27  2  0  0  0  0
 26 25  1  0  0  0  0
M  END
>  <minimizedAffinity>
-3.80579376

$$$$

 OpenBabel03272507453D

 27 28  0  0  0  0  0  0  0  0999 V2000
   39.0900   23.1050   35.7600 N   0  0  0  0  0  0  0  0  0  0  0  0
   38.6690   23.6350   34.5080 C   0  0  0  0  0  0  0  0  0  0  0  0
   38.2420   25.0430   34.4590 C   0  0  0  0  0  0  0  0  0  0  0  0
   37.6850   25.6470   35.6840 C   0  0  0  0  0  0  0  0  0  0  0  0
   38.1110   24.9640   36.9600 C   0  0  0  0  0  0  0  0  0  0  0  0
   38.1030   23.4540   36.7560 C   0  0  0  0  0  0  0  0  0  0  0  0
   39.4810   23.4490   33.7620 H   0  0  0  0  0  0  0  0  0  0  0  0
   37.8160   22.9820   34.1600 H   0  0  0  0  0  0  0  0  0  0  0  0
   39.0970   25.6500   34.0670 H   0  0  0  0  0  0  0  0  0  0  0  0
   37.4630   25.1490   33.6480 H   0  0  0  0  0  0  0  0  0  0  0  0
   36.5800   25.7430   35.6720 H   0  0  0  0  0  0  0  0  0  0  0  0
   39.1200   25.2600   37.2850 H   0  0  0  0  0  0  0  0  0  0  0  0
   37.3270   25.1520   37.7210 H   0  0  0  0  0  0  0  0  0  0  0  0
   38.3660   23.0070   37.7540 H   0  0  0  0  0  0  0  0  0  0  0  0
   37.0940   23.0730   36.5390 H   0  0  0  0  0  0  0  0  0  0  0  0
   40.2840   22.3540   35.9960 C   0  0  0  0  0  0  0  0  0  0  0  0
   40.7390   21.9720   37.2670 C   0  0  0  0  0  0  0  0  0  0  0  0
   41.9240   21.2400   37.3390 C   0  0  0  0  0  0  0  0  0  0  0  0
   42.5660   20.9400   36.1780 N   0  0  0  0  0  0  0  0  0  0  0  0
   42.0940   21.3250   34.9780 C   0  0  0  0  0  0  0  0  0  0  0  0
   40.9520   22.0330   34.8970 N   0  0  0  0  0  0  0  0  0  0  0  0
   40.1450   22.2680   38.1090 H   0  0  0  0  0  0  0  0  0  0  0  0
   42.2720   20.9480   38.3200 H   0  0  0  0  0  0  0  0  0  0  0  0
   42.6310   21.0710   34.0650 H   0  0  0  0  0  0  0  0  0  0  0  0
   38.1990   27.0590   35.8020 C   0  0  0  0  0  0  0  0  0  0  0  0
   37.5510   27.8970   36.0270 H   0  0  0  0  0  0  0  0  0  0  0  0
   39.4200   27.1630   35.6200 O   0  0  0  0  0  0  0  0  0  0  0  0
  1 16  1  0  0  0  0
  1  6  1  0  0  0  0
  2  1  1  0  0  0  0
  3  2  1  0  0  0  0
  3  4  1  0  0  0  0
  4 25  1  0  0  0  0
  4  5  1  0  0  0  0
  5 12  1  0  0  0  0
  5 13  1  0  0  0  0
  6  5  1  0  0  0  0
  6 14  1  0  0  0  0
  7  2  1  0  0  0  0
  8  2  1  0  0  0  0
  9  3  1  0  0  0  0
 10  3  1  0  0  0  0
 11  4  1  0  0  0  0
 15  6  1  0  0  0  0
 16 17  1  0  0  0  0
 17 18  2  0  0  0  0
 17 22  1  0  0  0  0
 18 23  1  0  0  0  0
 19 18  1  0  0  0  0
 20 19  2  0  0  0  0
 21 20  1  0  0  0  0
 21 16  2  0  0  0  0
 24 20  1  0  0  0  0
 25 26  1  0  0  0  0
 27 25  2  0  0  0  0
M  END
>  <minimizedAffinity>
-3.78399229

$$$$
