
 OpenBabel03272507023D

 40 42  0  0  1  0  0  0  0  0999 V2000
   37.9360   26.2170   33.3940 C   0  0  2  0  0  0  0  0  0  0  0  0
   38.6350   25.0920   34.0720 C   0  0  0  0  0  0  0  0  0  0  0  0
   38.2420   24.9550   35.5340 C   0  0  2  0  0  0  0  0  0  0  0  0
   38.4630   26.1940   36.3150 C   0  0  0  0  0  0  0  0  0  0  0  0
   38.1260   27.4570   35.5530 C   0  0  0  0  0  0  0  0  0  0  0  0
   37.2560   27.1590   34.3580 C   0  0  0  0  0  0  0  0  0  0  0  0
   38.6180   26.8860   32.7910 H   0  0  0  0  0  0  0  0  0  0  0  0
   38.5070   24.0840   33.6730 H   0  0  0  0  0  0  0  0  0  0  0  0
   39.7360   25.3810   34.0590 H   0  0  0  0  0  0  0  0  0  0  0  0
   37.1540   24.7260   35.5170 H   0  0  0  0  0  0  0  0  0  0  0  0
   39.4160   26.3510   36.7940 H   0  0  0  0  0  0  0  0  0  0  0  0
   37.7080   26.1760   37.1560 H   0  0  0  0  0  0  0  0  0  0  0  0
   39.1010   27.8210   35.1140 H   0  0  0  0  0  0  0  0  0  0  0  0
   37.7240   28.2660   36.1610 H   0  0  0  0  0  0  0  0  0  0  0  0
   36.3470   26.6600   34.7410 H   0  0  0  0  0  0  0  0  0  0  0  0
   37.0470   28.1000   33.8400 H   0  0  0  0  0  0  0  0  0  0  0  0
   38.9030   23.8630   36.1630 N   0  0  1  0  0  0  0  0  0  0  0  0
   40.3060   23.7610   35.8200 C   0  0  0  0  0  0  0  0  0  0  0  0
   40.6770   22.4870   36.5870 C   0  0  0  0  0  0  0  0  0  0  0  0
   39.9310   22.7110   37.8820 C   0  0  0  0  0  0  0  0  0  0  0  0
   38.8710   23.7740   37.5610 C   0  0  2  0  0  0  0  0  0  0  0  0
   40.4970   23.6020   34.7540 H   0  0  0  0  0  0  0  0  0  0  0  0
   40.9170   24.5910   36.2220 H   0  0  0  0  0  0  0  0  0  0  0  0
   40.3400   21.5970   36.0380 H   0  0  0  0  0  0  0  0  0  0  0  0
   41.7730   22.4970   36.7550 H   0  0  0  0  0  0  0  0  0  0  0  0
   40.5940   23.0270   38.6820 H   0  0  0  0  0  0  0  0  0  0  0  0
   39.4320   21.7450   38.1600 H   0  0  0  0  0  0  0  0  0  0  0  0
   39.2890   24.7290   37.9950 H   0  0  0  0  0  0  0  0  0  0  0  0
   37.6630   23.3770   38.2470 C   0  0  0  0  0  0  0  0  0  0  0  0
   36.6620   23.3380   38.6300 H   0  0  0  0  0  0  0  0  0  0  0  0
   37.3830   22.4260   38.9580 O   0  0  0  0  0  0  0  0  0  0  0  0
   36.9110   25.7590   32.4290 C   0  0  0  0  0  0  0  0  0  0  0  0
   36.8920   24.3800   32.2140 C   0  0  0  0  0  0  0  0  0  0  0  0
   35.9290   23.8890   31.3150 C   0  0  0  0  0  0  0  0  0  0  0  0
   35.0650   24.7810   30.7010 N   0  0  0  0  0  0  0  0  0  0  0  0
   35.1290   26.1190   30.9480 C   0  0  0  0  0  0  0  0  0  0  0  0
   36.0380   26.5690   31.7940 N   0  0  0  0  0  0  0  0  0  0  0  0
   37.4170   23.5010   32.5230 H   0  0  0  0  0  0  0  0  0  0  0  0
   35.7030   22.9080   30.9810 H   0  0  0  0  0  0  0  0  0  0  0  0
   34.4450   26.7950   30.4570 H   0  0  0  0  0  0  0  0  0  0  0  0
  1  7  1  6  0  0  0
  1  2  1  0  0  0  0
  1  6  1  0  0  0  0
  2  3  1  0  0  0  0
  3 10  1  1  0  0  0
  3 17  1  0  0  0  0
  3  4  1  0  0  0  0
  4 11  1  0  0  0  0
  4 12  1  0  0  0  0
  5 14  1  0  0  0  0
  5  4  1  0  0  0  0
  6 15  1  0  0  0  0
  6  5  1  0  0  0  0
  8  2  1  0  0  0  0
  9  2  1  0  0  0  0
 13  5  1  0  0  0  0
 16  6  1  0  0  0  0
 17 18  1  1  0  0  0
 17 21  1  0  0  0  0
 18 23  1  0  0  0  0
 18 19  1  0  0  0  0
 19 25  1  0  0  0  0
 19 20  1  0  0  0  0
 20 27  1  0  0  0  0
 20 26  1  0  0  0  0
 21 20  1  0  0  0  0
 21 28  1  1  0  0  0
 21 29  1  0  0  0  0
 22 18  1  0  0  0  0
 24 19  1  0  0  0  0
 29 30  1  0  0  0  0
 29 31  2  0  0  0  0
 32  1  1  0  0  0  0
 33 32  1  0  0  0  0
 33 38  1  0  0  0  0
 34 33  2  0  0  0  0
 35 36  2  0  0  0  0
 35 34  1  0  0  0  0
 36 37  1  0  0  0  0
 37 32  2  0  0  0  0
 39 34  1  0  0  0  0
 40 36  1  0  0  0  0
M  END
>  <minimizedAffinity>
-5.48330259

$$$$

 OpenBabel03272507023D

 40 42  0  0  1  0  0  0  0  0999 V2000
   38.5560   26.1300   35.1990 C   0  0  2  0  0  0  0  0  0  0  0  0
   37.5170   25.8380   34.1740 C   0  0  0  0  0  0  0  0  0  0  0  0
   38.1130   25.4700   32.8250 C   0  0  2  0  0  0  0  0  0  0  0  0
   39.0320   26.5030   32.2940 C   0  0  0  0  0  0  0  0  0  0  0  0
   39.8960   27.1490   33.3550 C   0  0  0  0  0  0  0  0  0  0  0  0
   39.9340   26.3150   34.6110 C   0  0  0  0  0  0  0  0  0  0  0  0
   38.3750   27.0830   35.7800 H   0  0  0  0  0  0  0  0  0  0  0  0
   36.8040   25.0360   34.3710 H   0  0  0  0  0  0  0  0  0  0  0  0
   36.9670   26.8240   34.0260 H   0  0  0  0  0  0  0  0  0  0  0  0
   38.6870   24.5350   33.0120 H   0  0  0  0  0  0  0  0  0  0  0  0
   38.6350   27.2920   31.6770 H   0  0  0  0  0  0  0  0  0  0  0  0
   39.7740   25.9580   31.6370 H   0  0  0  0  0  0  0  0  0  0  0  0
   39.3580   28.0950   33.6560 H   0  0  0  0  0  0  0  0  0  0  0  0
   40.8930   27.4350   33.0230 H   0  0  0  0  0  0  0  0  0  0  0  0
   40.3190   25.3200   34.3220 H   0  0  0  0  0  0  0  0  0  0  0  0
   40.5630   26.8260   35.3460 H   0  0  0  0  0  0  0  0  0  0  0  0
   37.1090   25.1750   31.8630 N   0  0  1  0  0  0  0  0  0  0  0  0
   36.4890   23.8800   32.0510 C   0  0  0  0  0  0  0  0  0  0  0  0
   35.5400   23.8590   30.8470 C   0  0  0  0  0  0  0  0  0  0  0  0
   35.0230   25.2800   30.8720 C   0  0  0  0  0  0  0  0  0  0  0  0
   36.0360   26.0650   31.7160 C   0  0  2  0  0  0  0  0  0  0  0  0
   37.1800   23.0350   31.9720 H   0  0  0  0  0  0  0  0  0  0  0  0
   35.8750   23.8170   32.9690 H   0  0  0  0  0  0  0  0  0  0  0  0
   36.0920   23.6120   29.9290 H   0  0  0  0  0  0  0  0  0  0  0  0
   34.7260   23.1390   31.0660 H   0  0  0  0  0  0  0  0  0  0  0  0
   34.0200   25.3380   31.2820 H   0  0  0  0  0  0  0  0  0  0  0  0
   35.0270   25.6620   29.8170 H   0  0  0  0  0  0  0  0  0  0  0  0
   35.5300   26.1900   32.7190 H   0  0  0  0  0  0  0  0  0  0  0  0
   36.2210   27.3410   31.0650 C   0  0  0  0  0  0  0  0  0  0  0  0
   36.3260   28.3900   30.8650 H   0  0  0  0  0  0  0  0  0  0  0  0
   36.4050   27.6640   29.9040 O   0  0  0  0  0  0  0  0  0  0  0  0
   38.6560   25.0750   36.2330 C   0  0  0  0  0  0  0  0  0  0  0  0
   39.5590   24.0530   35.9350 C   0  0  0  0  0  0  0  0  0  0  0  0
   39.7030   23.0320   36.8880 C   0  0  0  0  0  0  0  0  0  0  0  0
   38.9560   23.0890   38.0540 N   0  0  0  0  0  0  0  0  0  0  0  0
   38.0870   24.1110   38.2930 C   0  0  0  0  0  0  0  0  0  0  0  0
   37.9600   25.0650   37.3900 N   0  0  0  0  0  0  0  0  0  0  0  0
   40.2250   23.7600   35.1510 H   0  0  0  0  0  0  0  0  0  0  0  0
   40.3070   22.1600   36.9110 H   0  0  0  0  0  0  0  0  0  0  0  0
   37.5150   24.1330   39.2090 H   0  0  0  0  0  0  0  0  0  0  0  0
  1  7  1  1  0  0  0
  1 32  1  0  0  0  0
  2  8  1  0  0  0  0
  2  1  1  0  0  0  0
  3 10  1  1  0  0  0
  3  2  1  0  0  0  0
  4  3  1  0  0  0  0
  4  5  1  0  0  0  0
  5 13  1  0  0  0  0
  5  6  1  0  0  0  0
  6  1  1  0  0  0  0
  6 16  1  0  0  0  0
  9  2  1  0  0  0  0
 11  4  1  0  0  0  0
 12  4  1  0  0  0  0
 14  5  1  0  0  0  0
 15  6  1  0  0  0  0
 17 18  1  1  0  0  0
 17  3  1  0  0  0  0
 18 23  1  0  0  0  0
 19 20  1  0  0  0  0
 19 25  1  0  0  0  0
 19 18  1  0  0  0  0
 20 26  1  0  0  0  0
 20 21  1  0  0  0  0
 21 17  1  0  0  0  0
 21 28  1  1  0  0  0
 22 18  1  0  0  0  0
 24 19  1  0  0  0  0
 27 20  1  0  0  0  0
 29 21  1  0  0  0  0
 30 29  1  0  0  0  0
 31 29  2  0  0  0  0
 32 37  1  0  0  0  0
 33 32  2  0  0  0  0
 33 34  1  0  0  0  0
 34 39  1  0  0  0  0
 34 35  2  0  0  0  0
 35 36  1  0  0  0  0
 36 40  1  0  0  0  0
 37 36  2  0  0  0  0
 38 33  1  0  0  0  0
M  END
>  <minimizedAffinity>
-5.34449291

$$$$

 OpenBabel03272507023D

 40 42  0  0  1  0  0  0  0  0999 V2000
   38.5530   23.7410   32.8600 C   0  0  2  0  0  0  0  0  0  0  0  0
   38.4020   23.5390   34.3270 C   0  0  0  0  0  0  0  0  0  0  0  0
   39.2290   24.5210   35.1410 C   0  0  2  0  0  0  0  0  0  0  0  0
   40.6700   24.4910   34.7990 C   0  0  0  0  0  0  0  0  0  0  0  0
   40.9380   24.3140   33.3210 C   0  0  0  0  0  0  0  0  0  0  0  0
   39.7140   24.6350   32.5010 C   0  0  0  0  0  0  0  0  0  0  0  0
   38.7490   22.7900   32.2820 H   0  0  0  0  0  0  0  0  0  0  0  0
   37.4040   23.6160   34.7630 H   0  0  0  0  0  0  0  0  0  0  0  0
   38.8380   22.5060   34.5260 H   0  0  0  0  0  0  0  0  0  0  0  0
   38.8170   25.5220   34.8850 H   0  0  0  0  0  0  0  0  0  0  0  0
   41.3210   23.8140   35.3290 H   0  0  0  0  0  0  0  0  0  0  0  0
   41.0700   25.5240   35.0250 H   0  0  0  0  0  0  0  0  0  0  0  0
   41.1040   23.2080   33.1680 H   0  0  0  0  0  0  0  0  0  0  0  0
   41.8250   24.8280   32.9510 H   0  0  0  0  0  0  0  0  0  0  0  0
   39.4320   25.6770   32.7420 H   0  0  0  0  0  0  0  0  0  0  0  0
   39.9580   24.4860   31.4440 H   0  0  0  0  0  0  0  0  0  0  0  0
   39.0590   24.3280   36.5390 N   0  0  1  0  0  0  0  0  0  0  0  0
   37.8190   24.8710   37.0530 C   0  0  0  0  0  0  0  0  0  0  0  0
   37.9870   24.5600   38.5440 C   0  0  0  0  0  0  0  0  0  0  0  0
   38.5710   23.1670   38.4770 C   0  0  0  0  0  0  0  0  0  0  0  0
   39.1150   23.0240   37.0490 C   0  0  2  0  0  0  0  0  0  0  0  0
   37.7150   25.9530   36.9250 H   0  0  0  0  0  0  0  0  0  0  0  0
   36.9220   24.3320   36.6910 H   0  0  0  0  0  0  0  0  0  0  0  0
   38.6580   25.2920   39.0150 H   0  0  0  0  0  0  0  0  0  0  0  0
   36.9780   24.5440   39.0050 H   0  0  0  0  0  0  0  0  0  0  0  0
   37.8310   22.4060   38.7080 H   0  0  0  0  0  0  0  0  0  0  0  0
   39.4140   23.1150   39.2150 H   0  0  0  0  0  0  0  0  0  0  0  0
   38.3440   22.3930   36.5150 H   0  0  0  0  0  0  0  0  0  0  0  0
   40.3760   22.3260   37.1520 C   0  0  0  0  0  0  0  0  0  0  0  0
   41.3780   21.9800   36.9890 H   0  0  0  0  0  0  0  0  0  0  0  0
   40.7940   21.4720   37.9160 O   0  0  0  0  0  0  0  0  0  0  0  0
   37.3420   24.3170   32.2320 C   0  0  0  0  0  0  0  0  0  0  0  0
   37.3350   25.7110   32.1560 C   0  0  0  0  0  0  0  0  0  0  0  0
   36.2140   26.3100   31.5570 C   0  0  0  0  0  0  0  0  0  0  0  0
   35.1930   25.5030   31.0810 N   0  0  0  0  0  0  0  0  0  0  0  0
   35.2530   24.1460   31.1810 C   0  0  0  0  0  0  0  0  0  0  0  0
   36.3100   23.5940   31.7470 N   0  0  0  0  0  0  0  0  0  0  0  0
   37.9440   26.5440   32.4360 H   0  0  0  0  0  0  0  0  0  0  0  0
   35.9620   27.3240   31.3750 H   0  0  0  0  0  0  0  0  0  0  0  0
   34.4440   23.5380   30.8030 H   0  0  0  0  0  0  0  0  0  0  0  0
  1  7  1  6  0  0  0
  1  2  1  0  0  0  0
  2  9  1  0  0  0  0
  2  8  1  0  0  0  0
  2  3  1  0  0  0  0
  3 10  1  6  0  0  0
  3 17  1  0  0  0  0
  4 12  1  0  0  0  0
  4  3  1  0  0  0  0
  4 11  1  0  0  0  0
  5  4  1  0  0  0  0
  6 15  1  0  0  0  0
  6  1  1  0  0  0  0
  6  5  1  0  0  0  0
 13  5  1  0  0  0  0
 14  5  1  0  0  0  0
 16  6  1  0  0  0  0
 17 21  1  0  0  0  0
 17 18  1  6  0  0  0
 18 19  1  0  0  0  0
 19 25  1  0  0  0  0
 19 24  1  0  0  0  0
 20 19  1  0  0  0  0
 20 26  1  0  0  0  0
 20 27  1  0  0  0  0
 21 28  1  6  0  0  0
 21 29  1  0  0  0  0
 21 20  1  0  0  0  0
 22 18  1  0  0  0  0
 23 18  1  0  0  0  0
 29 31  2  0  0  0  0
 30 29  1  0  0  0  0
 32  1  1  0  0  0  0
 33 32  1  0  0  0  0
 33 38  1  0  0  0  0
 34 33  2  0  0  0  0
 35 36  2  0  0  0  0
 35 34  1  0  0  0  0
 36 37  1  0  0  0  0
 37 32  2  0  0  0  0
 39 34  1  0  0  0  0
 40 36  1  0  0  0  0
M  END
>  <minimizedAffinity>
-5.11671972

$$$$

 OpenBabel03272507023D

 40 42  0  0  1  0  0  0  0  0999 V2000
   39.6620   25.7940   34.9740 C   0  0  2  0  0  0  0  0  0  0  0  0
   38.8300   25.2340   33.8740 C   0  0  0  0  0  0  0  0  0  0  0  0
   37.9650   26.2870   33.2010 C   0  0  2  0  0  0  0  0  0  0  0  0
   37.0820   27.0070   34.1490 C   0  0  0  0  0  0  0  0  0  0  0  0
   37.7360   27.3000   35.4820 C   0  0  0  0  0  0  0  0  0  0  0  0
   39.2370   27.1810   35.3920 C   0  0  0  0  0  0  0  0  0  0  0  0
   39.6240   25.1950   35.9320 H   0  0  0  0  0  0  0  0  0  0  0  0
   39.3340   24.7400   33.0410 H   0  0  0  0  0  0  0  0  0  0  0  0
   38.1180   24.5090   34.3870 H   0  0  0  0  0  0  0  0  0  0  0  0
   38.6850   27.0080   32.7570 H   0  0  0  0  0  0  0  0  0  0  0  0
   36.0980   26.6160   34.3510 H   0  0  0  0  0  0  0  0  0  0  0  0
   36.9090   28.0310   33.7020 H   0  0  0  0  0  0  0  0  0  0  0  0
   37.4230   26.4610   36.1690 H   0  0  0  0  0  0  0  0  0  0  0  0
   37.4270   28.2330   35.9490 H   0  0  0  0  0  0  0  0  0  0  0  0
   39.5670   27.8910   34.6110 H   0  0  0  0  0  0  0  0  0  0  0  0
   39.6590   27.3950   36.3790 H   0  0  0  0  0  0  0  0  0  0  0  0
   37.1910   25.7400   32.1410 N   0  0  1  0  0  0  0  0  0  0  0  0
   36.6500   24.4300   32.4340 C   0  0  0  0  0  0  0  0  0  0  0  0
   35.9550   24.1220   31.1020 C   0  0  0  0  0  0  0  0  0  0  0  0
   35.3340   25.4650   30.7920 C   0  0  0  0  0  0  0  0  0  0  0  0
   36.1000   26.4760   31.6560 C   0  0  2  0  0  0  0  0  0  0  0  0
   37.4070   23.6640   32.6240 H   0  0  0  0  0  0  0  0  0  0  0  0
   35.8770   24.4420   33.2250 H   0  0  0  0  0  0  0  0  0  0  0  0
   36.6910   23.7990   30.3530 H   0  0  0  0  0  0  0  0  0  0  0  0
   35.1740   23.3600   31.2930 H   0  0  0  0  0  0  0  0  0  0  0  0
   34.2690   25.4760   31.0010 H   0  0  0  0  0  0  0  0  0  0  0  0
   35.5120   25.6800   29.7050 H   0  0  0  0  0  0  0  0  0  0  0  0
   35.4020   26.6970   32.5170 H   0  0  0  0  0  0  0  0  0  0  0  0
   36.3070   27.6500   30.8400 C   0  0  0  0  0  0  0  0  0  0  0  0
   36.4260   28.6600   30.5000 H   0  0  0  0  0  0  0  0  0  0  0  0
   36.5070   27.8090   29.6470 O   0  0  0  0  0  0  0  0  0  0  0  0
   41.1010   25.8590   34.6310 C   0  0  0  0  0  0  0  0  0  0  0  0
   41.4820   27.0120   33.9430 C   0  0  0  0  0  0  0  0  0  0  0  0
   42.8400   27.1310   33.6030 C   0  0  0  0  0  0  0  0  0  0  0  0
   43.7150   26.1180   33.9620 N   0  0  0  0  0  0  0  0  0  0  0  0
   43.2880   25.0130   34.6340 C   0  0  0  0  0  0  0  0  0  0  0  0
   42.0090   24.9120   34.9470 N   0  0  0  0  0  0  0  0  0  0  0  0
   41.0450   27.9040   33.5450 H   0  0  0  0  0  0  0  0  0  0  0  0
   43.3820   27.8870   33.0930 H   0  0  0  0  0  0  0  0  0  0  0  0
   43.9890   24.2360   34.9020 H   0  0  0  0  0  0  0  0  0  0  0  0
  1  6  1  0  0  0  0
  1  7  1  1  0  0  0
  2  9  1  0  0  0  0
  2  1  1  0  0  0  0
  3 10  1  6  0  0  0
  3  2  1  0  0  0  0
  3  4  1  0  0  0  0
  4 11  1  0  0  0  0
  4  5  1  0  0  0  0
  5 14  1  0  0  0  0
  5 13  1  0  0  0  0
  6  5  1  0  0  0  0
  6 16  1  0  0  0  0
  8  2  1  0  0  0  0
 12  4  1  0  0  0  0
 15  6  1  0  0  0  0
 17 18  1  1  0  0  0
 17  3  1  0  0  0  0
 18 22  1  0  0  0  0
 18 23  1  0  0  0  0
 19 25  1  0  0  0  0
 19 18  1  0  0  0  0
 20 26  1  0  0  0  0
 20 19  1  0  0  0  0
 20 21  1  0  0  0  0
 21 17  1  0  0  0  0
 21 28  1  1  0  0  0
 24 19  1  0  0  0  0
 27 20  1  0  0  0  0
 29 21  1  0  0  0  0
 30 29  1  0  0  0  0
 31 29  2  0  0  0  0
 32 37  1  0  0  0  0
 32  1  1  0  0  0  0
 33 32  2  0  0  0  0
 34 33  1  0  0  0  0
 34 35  2  0  0  0  0
 35 36  1  0  0  0  0
 36 40  1  0  0  0  0
 36 37  2  0  0  0  0
 38 33  1  0  0  0  0
 39 34  1  0  0  0  0
M  END
>  <minimizedAffinity>
-5.0969491

$$$$

 OpenBabel03272507023D

 40 42  0  0  1  0  0  0  0  0999 V2000
   36.7070   25.0860   31.2520 C   0  0  2  0  0  0  0  0  0  0  0  0
   35.8630   23.9050   31.5820 C   0  0  0  0  0  0  0  0  0  0  0  0
   36.6860   22.6890   31.9750 C   0  0  2  0  0  0  0  0  0  0  0  0
   37.6740   22.2970   30.9430 C   0  0  0  0  0  0  0  0  0  0  0  0
   38.3360   23.4750   30.2610 C   0  0  0  0  0  0  0  0  0  0  0  0
   38.1640   24.7390   31.0640 C   0  0  0  0  0  0  0  0  0  0  0  0
   36.4200   25.6020   30.2880 H   0  0  0  0  0  0  0  0  0  0  0  0
   35.1330   23.9960   32.3890 H   0  0  0  0  0  0  0  0  0  0  0  0
   35.3380   23.6390   30.6070 H   0  0  0  0  0  0  0  0  0  0  0  0
   37.2270   22.9960   32.8970 H   0  0  0  0  0  0  0  0  0  0  0  0
   37.3820   21.6010   30.1740 H   0  0  0  0  0  0  0  0  0  0  0  0
   38.5230   21.7920   31.4940 H   0  0  0  0  0  0  0  0  0  0  0  0
   37.7460   23.6540   29.3150 H   0  0  0  0  0  0  0  0  0  0  0  0
   39.3730   23.3120   29.9700 H   0  0  0  0  0  0  0  0  0  0  0  0
   38.6020   24.5470   32.0610 H   0  0  0  0  0  0  0  0  0  0  0  0
   38.6520   25.5580   30.5270 H   0  0  0  0  0  0  0  0  0  0  0  0
   35.8660   21.5760   32.3060 N   0  0  1  0  0  0  0  0  0  0  0  0
   35.5950   20.7010   31.1840 C   0  0  0  0  0  0  0  0  0  0  0  0
   34.6640   19.6850   31.8550 C   0  0  0  0  0  0  0  0  0  0  0  0
   35.3620   19.4970   33.1820 C   0  0  0  0  0  0  0  0  0  0  0  0
   36.2800   20.7180   33.3340 C   0  0  2  0  0  0  0  0  0  0  0  0
   35.0610   21.1820   30.3590 H   0  0  0  0  0  0  0  0  0  0  0  0
   36.4900   20.1590   30.8260 H   0  0  0  0  0  0  0  0  0  0  0  0
   33.6500   20.0990   31.9490 H   0  0  0  0  0  0  0  0  0  0  0  0
   34.6930   18.7510   31.2570 H   0  0  0  0  0  0  0  0  0  0  0  0
   35.9170   18.5640   33.2200 H   0  0  0  0  0  0  0  0  0  0  0  0
   34.5770   19.5070   33.9840 H   0  0  0  0  0  0  0  0  0  0  0  0
   37.3110   20.3280   33.0870 H   0  0  0  0  0  0  0  0  0  0  0  0
   36.1990   21.1300   34.7160 C   0  0  0  0  0  0  0  0  0  0  0  0
   36.3440   21.6390   35.6490 H   0  0  0  0  0  0  0  0  0  0  0  0
   35.5510   20.7280   35.6680 O   0  0  0  0  0  0  0  0  0  0  0  0
   36.6360   26.1480   32.2810 C   0  0  0  0  0  0  0  0  0  0  0  0
   36.0000   27.3190   31.8640 C   0  0  0  0  0  0  0  0  0  0  0  0
   35.8940   28.3560   32.8060 C   0  0  0  0  0  0  0  0  0  0  0  0
   36.4150   28.1680   34.0760 N   0  0  0  0  0  0  0  0  0  0  0  0
   37.0260   27.0030   34.4300 C   0  0  0  0  0  0  0  0  0  0  0  0
   37.1200   26.0350   33.5360 N   0  0  0  0  0  0  0  0  0  0  0  0
   35.5390   27.7270   30.9890 H   0  0  0  0  0  0  0  0  0  0  0  0
   35.4680   29.3260   32.7510 H   0  0  0  0  0  0  0  0  0  0  0  0
   37.4240   26.8800   35.4260 H   0  0  0  0  0  0  0  0  0  0  0  0
  1  7  1  6  0  0  0
  1  2  1  0  0  0  0
  1 32  1  0  0  0  0
  2  3  1  0  0  0  0
  2  8  1  0  0  0  0
  3 17  1  0  0  0  0
  3 10  1  1  0  0  0
  4 12  1  0  0  0  0
  4  3  1  0  0  0  0
  5  4  1  0  0  0  0
  5  6  1  0  0  0  0
  6  1  1  0  0  0  0
  6 15  1  0  0  0  0
  9  2  1  0  0  0  0
 11  4  1  0  0  0  0
 13  5  1  0  0  0  0
 14  5  1  0  0  0  0
 16  6  1  0  0  0  0
 17 18  1  6  0  0  0
 17 21  1  0  0  0  0
 18 19  1  0  0  0  0
 19 24  1  0  0  0  0
 19 20  1  0  0  0  0
 20 26  1  0  0  0  0
 20 21  1  0  0  0  0
 20 27  1  0  0  0  0
 21 28  1  6  0  0  0
 21 29  1  0  0  0  0
 22 18  1  0  0  0  0
 23 18  1  0  0  0  0
 25 19  1  0  0  0  0
 29 30  1  0  0  0  0
 29 31  2  0  0  0  0
 32 37  1  0  0  0  0
 33 32  2  0  0  0  0
 33 34  1  0  0  0  0
 34 35  2  0  0  0  0
 35 36  1  0  0  0  0
 36 40  1  0  0  0  0
 37 36  2  0  0  0  0
 38 33  1  0  0  0  0
 39 34  1  0  0  0  0
M  END
>  <minimizedAffinity>
-4.9390769

$$$$

 OpenBabel03272507023D

 40 42  0  0  1  0  0  0  0  0999 V2000
   36.7270   23.5080   31.0160 C   0  0  2  0  0  0  0  0  0  0  0  0
   37.8280   24.1060   31.8190 C   0  0  0  0  0  0  0  0  0  0  0  0
   37.3260   25.1170   32.8380 C   0  0  2  0  0  0  0  0  0  0  0  0
   36.5290   26.2080   32.2320 C   0  0  0  0  0  0  0  0  0  0  0  0
   35.6230   25.7450   31.1110 C   0  0  0  0  0  0  0  0  0  0  0  0
   35.4200   24.2510   31.1540 C   0  0  0  0  0  0  0  0  0  0  0  0
   36.9220   23.4980   29.9030 H   0  0  0  0  0  0  0  0  0  0  0  0
   38.4650   23.4410   32.4050 H   0  0  0  0  0  0  0  0  0  0  0  0
   38.4540   24.6890   31.0680 H   0  0  0  0  0  0  0  0  0  0  0  0
   36.6760   24.5310   33.5250 H   0  0  0  0  0  0  0  0  0  0  0  0
   37.0310   27.1000   31.8930 H   0  0  0  0  0  0  0  0  0  0  0  0
   35.8110   26.5570   33.0320 H   0  0  0  0  0  0  0  0  0  0  0  0
   36.1960   25.9290   30.1560 H   0  0  0  0  0  0  0  0  0  0  0  0
   34.6800   26.2840   31.0320 H   0  0  0  0  0  0  0  0  0  0  0  0
   34.9940   24.0150   32.1460 H   0  0  0  0  0  0  0  0  0  0  0  0
   34.7670   23.9680   30.3230 H   0  0  0  0  0  0  0  0  0  0  0  0
   38.3870   25.6650   33.6110 N   0  0  1  0  0  0  0  0  0  0  0  0
   39.0590   26.7740   32.9670 C   0  0  0  0  0  0  0  0  0  0  0  0
   40.1480   27.0670   34.0050 C   0  0  0  0  0  0  0  0  0  0  0  0
   39.3600   26.9230   35.2870 C   0  0  0  0  0  0  0  0  0  0  0  0
   38.1090   26.1210   34.9060 C   0  0  2  0  0  0  0  0  0  0  0  0
   39.5350   26.5190   32.0150 H   0  0  0  0  0  0  0  0  0  0  0  0
   38.4250   27.6760   32.8740 H   0  0  0  0  0  0  0  0  0  0  0  0
   40.9690   26.3410   33.9140 H   0  0  0  0  0  0  0  0  0  0  0  0
   40.4830   28.1140   33.8620 H   0  0  0  0  0  0  0  0  0  0  0  0
   39.1100   27.8870   35.7190 H   0  0  0  0  0  0  0  0  0  0  0  0
   39.9870   26.3340   36.0080 H   0  0  0  0  0  0  0  0  0  0  0  0
   37.2850   26.8930   34.8490 H   0  0  0  0  0  0  0  0  0  0  0  0
   37.8700   25.1860   35.9820 C   0  0  0  0  0  0  0  0  0  0  0  0
   37.4790   24.6940   36.8510 H   0  0  0  0  0  0  0  0  0  0  0  0
   38.3900   24.1290   36.2960 O   0  0  0  0  0  0  0  0  0  0  0  0
   36.4670   22.0920   31.3630 C   0  0  0  0  0  0  0  0  0  0  0  0
   35.2960   21.8790   32.0930 C   0  0  0  0  0  0  0  0  0  0  0  0
   34.9940   20.5500   32.4380 C   0  0  0  0  0  0  0  0  0  0  0  0
   35.8560   19.5400   32.0440 N   0  0  0  0  0  0  0  0  0  0  0  0
   36.9870   19.8050   31.3320 C   0  0  0  0  0  0  0  0  0  0  0  0
   37.2600   21.0570   31.0140 N   0  0  0  0  0  0  0  0  0  0  0  0
   34.4920   22.4380   32.5220 H   0  0  0  0  0  0  0  0  0  0  0  0
   34.1860   20.1220   32.9750 H   0  0  0  0  0  0  0  0  0  0  0  0
   37.6440   19.0010   31.0370 H   0  0  0  0  0  0  0  0  0  0  0  0
  1  7  1  6  0  0  0
  1  6  1  0  0  0  0
  1 32  1  0  0  0  0
  1  2  1  0  0  0  0
  2  8  1  0  0  0  0
  2  3  1  0  0  0  0
  3 10  1  1  0  0  0
  3 17  1  0  0  0  0
  4  3  1  0  0  0  0
  4 12  1  0  0  0  0
  5  6  1  0  0  0  0
  5  4  1  0  0  0  0
  6 15  1  0  0  0  0
  9  2  1  0  0  0  0
 11  4  1  0  0  0  0
 13  5  1  0  0  0  0
 14  5  1  0  0  0  0
 16  6  1  0  0  0  0
 17 18  1  6  0  0  0
 17 21  1  0  0  0  0
 18 19  1  0  0  0  0
 19 20  1  0  0  0  0
 20 26  1  0  0  0  0
 20 27  1  0  0  0  0
 21 28  1  6  0  0  0
 21 20  1  0  0  0  0
 21 29  1  0  0  0  0
 22 18  1  0  0  0  0
 23 18  1  0  0  0  0
 24 19  1  0  0  0  0
 25 19  1  0  0  0  0
 29 31  2  0  0  0  0
 29 30  1  0  0  0  0
 32 33  1  0  0  0  0
 33 34  2  0  0  0  0
 33 38  1  0  0  0  0
 34 39  1  0  0  0  0
 35 34  1  0  0  0  0
 36 35  2  0  0  0  0
 37 36  1  0  0  0  0
 37 32  2  0  0  0  0
 40 36  1  0  0  0  0
M  END
>  <minimizedAffinity>
-4.93281031

$$$$

 OpenBabel03272507023D

 40 42  0  0  1  0  0  0  0  0999 V2000
   36.6240   23.7280   31.5020 C   0  0  2  0  0  0  0  0  0  0  0  0
   37.5800   24.5060   32.3360 C   0  0  0  0  0  0  0  0  0  0  0  0
   36.9420   25.7340   32.9660 C   0  0  2  0  0  0  0  0  0  0  0  0
   36.3240   26.6430   31.9720 C   0  0  0  0  0  0  0  0  0  0  0  0
   35.6260   25.9190   30.8420 C   0  0  0  0  0  0  0  0  0  0  0  0
   35.3500   24.4800   31.2010 C   0  0  0  0  0  0  0  0  0  0  0  0
   37.0240   23.4460   30.4830 H   0  0  0  0  0  0  0  0  0  0  0  0
   38.0640   24.0050   33.1760 H   0  0  0  0  0  0  0  0  0  0  0  0
   38.3630   24.8880   31.6040 H   0  0  0  0  0  0  0  0  0  0  0  0
   36.1470   25.3320   33.6330 H   0  0  0  0  0  0  0  0  0  0  0  0
   36.9220   27.4250   31.5340 H   0  0  0  0  0  0  0  0  0  0  0  0
   35.4860   27.1760   32.5110 H   0  0  0  0  0  0  0  0  0  0  0  0
   36.3770   25.8650   30.0000 H   0  0  0  0  0  0  0  0  0  0  0  0
   34.7410   26.4210   30.4540 H   0  0  0  0  0  0  0  0  0  0  0  0
   34.7340   24.4930   32.1190 H   0  0  0  0  0  0  0  0  0  0  0  0
   34.8530   24.0020   30.3520 H   0  0  0  0  0  0  0  0  0  0  0  0
   37.8620   26.4550   33.7750 N   0  0  1  0  0  0  0  0  0  0  0  0
   37.6220   26.3110   35.1950 C   0  0  0  0  0  0  0  0  0  0  0  0
   38.7110   27.2380   35.7470 C   0  0  0  0  0  0  0  0  0  0  0  0
   39.8680   26.8820   34.8410 C   0  0  0  0  0  0  0  0  0  0  0  0
   39.2330   26.2050   33.6190 C   0  0  2  0  0  0  0  0  0  0  0  0
   36.6440   26.6770   35.5250 H   0  0  0  0  0  0  0  0  0  0  0  0
   37.8200   25.2900   35.5720 H   0  0  0  0  0  0  0  0  0  0  0  0
   38.3980   28.2880   35.6640 H   0  0  0  0  0  0  0  0  0  0  0  0
   38.9200   26.9330   36.7930 H   0  0  0  0  0  0  0  0  0  0  0  0
   40.5870   26.2360   35.3370 H   0  0  0  0  0  0  0  0  0  0  0  0
   40.3650   27.8400   34.5330 H   0  0  0  0  0  0  0  0  0  0  0  0
   39.4200   25.1030   33.7780 H   0  0  0  0  0  0  0  0  0  0  0  0
   39.9430   26.6910   32.4580 C   0  0  0  0  0  0  0  0  0  0  0  0
   40.6810   26.8580   31.6980 H   0  0  0  0  0  0  0  0  0  0  0  0
   39.6650   27.5030   31.5930 O   0  0  0  0  0  0  0  0  0  0  0  0
   36.2380   22.4390   32.1210 C   0  0  0  0  0  0  0  0  0  0  0  0
   35.3640   21.6660   31.3550 C   0  0  0  0  0  0  0  0  0  0  0  0
   34.9740   20.4260   31.8900 C   0  0  0  0  0  0  0  0  0  0  0  0
   35.4690   20.0420   33.1260 N   0  0  0  0  0  0  0  0  0  0  0  0
   36.3200   20.8370   33.8320 C   0  0  0  0  0  0  0  0  0  0  0  0
   36.6780   22.0000   33.3190 N   0  0  0  0  0  0  0  0  0  0  0  0
   34.8390   21.7120   30.4240 H   0  0  0  0  0  0  0  0  0  0  0  0
   34.3370   19.6620   31.5240 H   0  0  0  0  0  0  0  0  0  0  0  0
   36.6920   20.5160   34.7940 H   0  0  0  0  0  0  0  0  0  0  0  0
  1  7  1  6  0  0  0
  1 32  1  0  0  0  0
  1  2  1  0  0  0  0
  2  3  1  0  0  0  0
  2  8  1  0  0  0  0
  3 10  1  1  0  0  0
  3 17  1  0  0  0  0
  4 12  1  0  0  0  0
  4  3  1  0  0  0  0
  5  6  1  0  0  0  0
  5  4  1  0  0  0  0
  6  1  1  0  0  0  0
  6 15  1  0  0  0  0
  9  2  1  0  0  0  0
 11  4  1  0  0  0  0
 13  5  1  0  0  0  0
 14  5  1  0  0  0  0
 16  6  1  0  0  0  0
 17 18  1  1  0  0  0
 18 22  1  0  0  0  0
 18 23  1  0  0  0  0
 18 19  1  0  0  0  0
 19 25  1  0  0  0  0
 20 26  1  0  0  0  0
 20 19  1  0  0  0  0
 21 17  1  0  0  0  0
 21 28  1  1  0  0  0
 21 20  1  0  0  0  0
 24 19  1  0  0  0  0
 27 20  1  0  0  0  0
 29 21  1  0  0  0  0
 30 29  1  0  0  0  0
 31 29  2  0  0  0  0
 32 37  1  0  0  0  0
 33 34  1  0  0  0  0
 33 32  2  0  0  0  0
 34 35  2  0  0  0  0
 35 36  1  0  0  0  0
 36 40  1  0  0  0  0
 37 36  2  0  0  0  0
 38 33  1  0  0  0  0
 39 34  1  0  0  0  0
M  END
>  <minimizedAffinity>
-4.91478539

$$$$

 OpenBabel03272507023D

 40 42  0  0  1  0  0  0  0  0999 V2000
   35.5690   29.7430   32.8600 C   0  0  2  0  0  0  0  0  0  0  0  0
   35.9410   28.4470   33.4890 C   0  0  0  0  0  0  0  0  0  0  0  0
   37.2370   27.8780   32.9340 C   0  0  2  0  0  0  0  0  0  0  0  0
   37.2140   27.7060   31.4630 C   0  0  0  0  0  0  0  0  0  0  0  0
   36.5020   28.8250   30.7340 C   0  0  0  0  0  0  0  0  0  0  0  0
   36.3590   30.0450   31.6100 C   0  0  0  0  0  0  0  0  0  0  0  0
   34.4910   29.8000   32.5240 H   0  0  0  0  0  0  0  0  0  0  0  0
   36.0860   28.4160   34.5700 H   0  0  0  0  0  0  0  0  0  0  0  0
   35.1150   27.7260   33.1830 H   0  0  0  0  0  0  0  0  0  0  0  0
   38.0150   28.6270   33.2000 H   0  0  0  0  0  0  0  0  0  0  0  0
   36.8630   26.7760   31.0480 H   0  0  0  0  0  0  0  0  0  0  0  0
   38.2870   27.7990   31.1170 H   0  0  0  0  0  0  0  0  0  0  0  0
   35.4440   28.4630   30.5720 H   0  0  0  0  0  0  0  0  0  0  0  0
   36.9130   29.0690   29.7560 H   0  0  0  0  0  0  0  0  0  0  0  0
   37.3800   30.3410   31.9130 H   0  0  0  0  0  0  0  0  0  0  0  0
   35.8340   30.8180   31.0410 H   0  0  0  0  0  0  0  0  0  0  0  0
   37.5890   26.6500   33.5580 N   0  0  1  0  0  0  0  0  0  0  0  0
   37.5020   25.5050   32.6760 C   0  0  0  0  0  0  0  0  0  0  0  0
   37.8690   24.3840   33.6540 C   0  0  0  0  0  0  0  0  0  0  0  0
   39.0020   25.0340   34.4150 C   0  0  0  0  0  0  0  0  0  0  0  0
   38.8500   26.5400   34.1610 C   0  0  2  0  0  0  0  0  0  0  0  0
   36.4990   25.3180   32.2820 H   0  0  0  0  0  0  0  0  0  0  0  0
   38.2590   25.5150   31.8700 H   0  0  0  0  0  0  0  0  0  0  0  0
   37.0070   24.1310   34.2880 H   0  0  0  0  0  0  0  0  0  0  0  0
   38.2350   23.5200   33.0620 H   0  0  0  0  0  0  0  0  0  0  0  0
   39.9710   24.6630   34.0940 H   0  0  0  0  0  0  0  0  0  0  0  0
   38.8510   24.8130   35.5050 H   0  0  0  0  0  0  0  0  0  0  0  0
   39.6410   26.7770   33.3900 H   0  0  0  0  0  0  0  0  0  0  0  0
   39.1290   27.2040   35.4130 C   0  0  0  0  0  0  0  0  0  0  0  0
   39.6080   27.5680   36.3010 H   0  0  0  0  0  0  0  0  0  0  0  0
   38.4590   27.9090   36.1480 O   0  0  0  0  0  0  0  0  0  0  0  0
   35.7360   30.8950   33.7750 C   0  0  0  0  0  0  0  0  0  0  0  0
   35.6940   30.5690   35.1320 C   0  0  0  0  0  0  0  0  0  0  0  0
   35.8610   31.6240   36.0460 C   0  0  0  0  0  0  0  0  0  0  0  0
   36.0550   32.9080   35.5620 N   0  0  0  0  0  0  0  0  0  0  0  0
   36.0870   33.1690   34.2260 C   0  0  0  0  0  0  0  0  0  0  0  0
   35.9280   32.1700   33.3770 N   0  0  0  0  0  0  0  0  0  0  0  0
   35.5550   29.7140   35.7590 H   0  0  0  0  0  0  0  0  0  0  0  0
   35.8720   31.6510   37.1060 H   0  0  0  0  0  0  0  0  0  0  0  0
   36.2380   34.1790   33.8740 H   0  0  0  0  0  0  0  0  0  0  0  0
  1  7  1  6  0  0  0
  1  2  1  0  0  0  0
  1 32  1  0  0  0  0
  2  8  1  0  0  0  0
  3 10  1  1  0  0  0
  3  2  1  0  0  0  0
  3 17  1  0  0  0  0
  4  3  1  0  0  0  0
  5  4  1  0  0  0  0
  5  6  1  0  0  0  0
  6 15  1  0  0  0  0
  6  1  1  0  0  0  0
  9  2  1  0  0  0  0
 11  4  1  0  0  0  0
 12  4  1  0  0  0  0
 13  5  1  0  0  0  0
 14  5  1  0  0  0  0
 16  6  1  0  0  0  0
 17 18  1  6  0  0  0
 17 21  1  0  0  0  0
 18 19  1  0  0  0  0
 19 24  1  0  0  0  0
 19 20  1  0  0  0  0
 20 27  1  0  0  0  0
 21 28  1  6  0  0  0
 21 20  1  0  0  0  0
 21 29  1  0  0  0  0
 22 18  1  0  0  0  0
 23 18  1  0  0  0  0
 25 19  1  0  0  0  0
 26 20  1  0  0  0  0
 29 31  2  0  0  0  0
 29 30  1  0  0  0  0
 32 33  1  0  0  0  0
 33 38  1  0  0  0  0
 33 34  2  0  0  0  0
 34 39  1  0  0  0  0
 35 34  1  0  0  0  0
 36 35  2  0  0  0  0
 37 32  2  0  0  0  0
 37 36  1  0  0  0  0
 40 36  1  0  0  0  0
M  END
>  <minimizedAffinity>
-4.78300524

$$$$

 OpenBabel03272507023D

 40 42  0  0  1  0  0  0  0  0999 V2000
   36.8580   27.9380   32.0700 C   0  0  2  0  0  0  0  0  0  0  0  0
   36.0120   28.6130   33.0920 C   0  0  0  0  0  0  0  0  0  0  0  0
   34.9620   29.5220   32.4760 C   0  0  2  0  0  0  0  0  0  0  0  0
   35.5360   30.5490   31.5760 C   0  0  0  0  0  0  0  0  0  0  0  0
   36.6900   30.0430   30.7380 C   0  0  0  0  0  0  0  0  0  0  0  0
   36.7120   28.5360   30.6920 C   0  0  0  0  0  0  0  0  0  0  0  0
   37.9670   27.9960   32.2780 H   0  0  0  0  0  0  0  0  0  0  0  0
   35.4440   27.9930   33.7890 H   0  0  0  0  0  0  0  0  0  0  0  0
   36.7290   29.2890   33.6640 H   0  0  0  0  0  0  0  0  0  0  0  0
   34.3100   28.8430   31.8820 H   0  0  0  0  0  0  0  0  0  0  0  0
   35.8300   31.5020   31.9870 H   0  0  0  0  0  0  0  0  0  0  0  0
   34.7340   30.7880   30.8170 H   0  0  0  0  0  0  0  0  0  0  0  0
   37.6270   30.3260   31.3010 H   0  0  0  0  0  0  0  0  0  0  0  0
   36.7630   30.4840   29.7450 H   0  0  0  0  0  0  0  0  0  0  0  0
   35.7370   28.2150   30.2800 H   0  0  0  0  0  0  0  0  0  0  0  0
   37.5640   28.2220   30.0810 H   0  0  0  0  0  0  0  0  0  0  0  0
   34.1500   30.1430   33.4640 N   0  0  1  0  0  0  0  0  0  0  0  0
   32.8200   29.5790   33.5610 C   0  0  0  0  0  0  0  0  0  0  0  0
   32.2180   30.4940   34.6330 C   0  0  0  0  0  0  0  0  0  0  0  0
   33.3790   30.6040   35.5940 C   0  0  0  0  0  0  0  0  0  0  0  0
   34.6150   30.1860   34.7860 C   0  0  2  0  0  0  0  0  0  0  0  0
   32.2270   29.6670   32.6450 H   0  0  0  0  0  0  0  0  0  0  0  0
   32.8110   28.5440   33.9520 H   0  0  0  0  0  0  0  0  0  0  0  0
   31.9230   31.4570   34.1930 H   0  0  0  0  0  0  0  0  0  0  0  0
   31.3670   29.9570   35.1010 H   0  0  0  0  0  0  0  0  0  0  0  0
   33.2390   29.9820   36.4730 H   0  0  0  0  0  0  0  0  0  0  0  0
   33.4680   31.6810   35.8990 H   0  0  0  0  0  0  0  0  0  0  0  0
   34.8330   29.1310   35.1280 H   0  0  0  0  0  0  0  0  0  0  0  0
   35.6830   31.0840   35.1630 C   0  0  0  0  0  0  0  0  0  0  0  0
   36.4050   31.8770   35.1760 H   0  0  0  0  0  0  0  0  0  0  0  0
   36.4140   31.1450   36.1370 O   0  0  0  0  0  0  0  0  0  0  0  0
   36.5730   26.4890   31.9550 C   0  0  0  0  0  0  0  0  0  0  0  0
   35.4960   26.1740   31.1250 C   0  0  0  0  0  0  0  0  0  0  0  0
   35.1900   24.8110   30.9690 C   0  0  0  0  0  0  0  0  0  0  0  0
   35.9590   23.8690   31.6340 N   0  0  0  0  0  0  0  0  0  0  0  0
   37.0000   24.2340   32.4320 C   0  0  0  0  0  0  0  0  0  0  0  0
   37.2770   25.5170   32.5710 N   0  0  0  0  0  0  0  0  0  0  0  0
   34.7580   26.6660   30.5270 H   0  0  0  0  0  0  0  0  0  0  0  0
   34.4420   24.3100   30.4090 H   0  0  0  0  0  0  0  0  0  0  0  0
   37.5840   23.4810   32.9410 H   0  0  0  0  0  0  0  0  0  0  0  0
  1  7  1  1  0  0  0
  1  2  1  0  0  0  0
  2  9  1  0  0  0  0
  2  8  1  0  0  0  0
  3 10  1  6  0  0  0
  3  2  1  0  0  0  0
  3 17  1  0  0  0  0
  4 11  1  0  0  0  0
  4  3  1  0  0  0  0
  5 13  1  0  0  0  0
  5  4  1  0  0  0  0
  6  5  1  0  0  0  0
  6  1  1  0  0  0  0
 12  4  1  0  0  0  0
 14  5  1  0  0  0  0
 15  6  1  0  0  0  0
 16  6  1  0  0  0  0
 17 18  1  1  0  0  0
 17 21  1  0  0  0  0
 18 23  1  0  0  0  0
 18 19  1  0  0  0  0
 19 25  1  0  0  0  0
 19 20  1  0  0  0  0
 20 27  1  0  0  0  0
 20 26  1  0  0  0  0
 21 28  1  1  0  0  0
 21 29  1  0  0  0  0
 21 20  1  0  0  0  0
 22 18  1  0  0  0  0
 24 19  1  0  0  0  0
 29 30  1  0  0  0  0
 29 31  2  0  0  0  0
 32  1  1  0  0  0  0
 32 37  1  0  0  0  0
 33 32  2  0  0  0  0
 34 33  1  0  0  0  0
 34 35  2  0  0  0  0
 35 36  1  0  0  0  0
 36 37  2  0  0  0  0
 36 40  1  0  0  0  0
 38 33  1  0  0  0  0
 39 34  1  0  0  0  0
M  END
>  <minimizedAffinity>
-4.76756573

$$$$
