
 OpenBabel03272506223D

 22 23  0  0  0  0  0  0  0  0999 V2000
   40.6260   23.9300   35.2570 C   0  0  0  0  0  0  0  0  0  0  0  0
   39.4400   24.2720   35.9700 C   0  0  0  0  0  0  0  0  0  0  0  0
   39.1340   23.4750   37.0570 C   0  0  0  0  0  0  0  0  0  0  0  0
   39.9220   22.4430   37.4040 N   0  0  0  0  0  0  0  0  0  0  0  0
   41.0480   22.1410   36.7030 C   0  0  0  0  0  0  0  0  0  0  0  0
   41.3940   22.8950   35.6260 N   0  0  0  0  0  0  0  0  0  0  0  0
   40.9200   24.5150   34.3990 H   0  0  0  0  0  0  0  0  0  0  0  0
   41.6010   21.2820   37.0840 H   0  0  0  0  0  0  0  0  0  0  0  0
   38.6940   25.4070   35.4780 C   0  0  0  0  0  0  0  0  0  0  0  0
   37.9620   25.2230   34.3340 C   0  0  0  0  0  0  0  0  0  0  0  0
   37.1920   26.1890   33.7220 C   0  0  0  0  0  0  0  0  0  0  0  0
   37.1430   27.4680   34.3030 C   0  0  0  0  0  0  0  0  0  0  0  0
   37.8880   27.6580   35.4690 C   0  0  0  0  0  0  0  0  0  0  0  0
   38.6470   26.6760   36.0570 C   0  0  0  0  0  0  0  0  0  0  0  0
   37.8880   24.2930   33.7480 H   0  0  0  0  0  0  0  0  0  0  0  0
   36.6100   26.1030   32.8410 H   0  0  0  0  0  0  0  0  0  0  0  0
   36.5820   28.3240   33.9340 H   0  0  0  0  0  0  0  0  0  0  0  0
   37.9210   28.6000   35.9970 H   0  0  0  0  0  0  0  0  0  0  0  0
   39.2210   26.8100   36.9510 H   0  0  0  0  0  0  0  0  0  0  0  0
   37.9590   23.7850   37.8060 C   0  0  0  0  0  0  0  0  0  0  0  0
   36.9600   23.4130   37.6670 H   0  0  0  0  0  0  0  0  0  0  0  0
   37.6960   24.5170   38.7830 O   0  0  0  0  0  0  0  0  0  0  0  0
  1  6  2  0  0  0  0
  1  2  1  0  0  0  0
  2  3  2  0  0  0  0
  3  4  1  0  0  0  0
  3 20  1  0  0  0  0
  5  8  1  0  0  0  0
  5  4  2  0  0  0  0
  6  5  1  0  0  0  0
  7  1  1  0  0  0  0
  9  2  1  0  0  0  0
  9 14  1  0  0  0  0
 10  9  2  0  0  0  0
 11 12  2  0  0  0  0
 11 10  1  0  0  0  0
 12 13  1  0  0  0  0
 13 18  1  0  0  0  0
 13 14  2  0  0  0  0
 14 19  1  0  0  0  0
 15 10  1  0  0  0  0
 16 11  1  0  0  0  0
 17 12  1  0  0  0  0
 20 22  2  0  0  0  0
 21 20  1  0  0  0  0
M  END
>  <minimizedAffinity>
-4.27546167

$$$$

 OpenBabel03272506223D

 22 23  0  0  0  0  0  0  0  0999 V2000
   37.9280   23.5190   33.7280 C   0  0  0  0  0  0  0  0  0  0  0  0
   38.5080   24.4620   34.6260 C   0  0  0  0  0  0  0  0  0  0  0  0
   38.8000   25.7050   34.0960 C   0  0  0  0  0  0  0  0  0  0  0  0
   38.5440   25.9860   32.8060 N   0  0  0  0  0  0  0  0  0  0  0  0
   37.9900   25.0640   31.9730 C   0  0  0  0  0  0  0  0  0  0  0  0
   37.6830   23.8270   32.4470 N   0  0  0  0  0  0  0  0  0  0  0  0
   37.6770   22.5310   34.0820 H   0  0  0  0  0  0  0  0  0  0  0  0
   37.8320   25.4130   30.9530 H   0  0  0  0  0  0  0  0  0  0  0  0
   38.7260   24.0150   35.9830 C   0  0  0  0  0  0  0  0  0  0  0  0
   37.7760   24.3520   36.9100 C   0  0  0  0  0  0  0  0  0  0  0  0
   37.8180   24.0140   38.2460 C   0  0  0  0  0  0  0  0  0  0  0  0
   38.9140   23.2650   38.7090 C   0  0  0  0  0  0  0  0  0  0  0  0
   39.8830   22.9210   37.7650 C   0  0  0  0  0  0  0  0  0  0  0  0
   39.8160   23.2720   36.4390 C   0  0  0  0  0  0  0  0  0  0  0  0
   36.8600   24.9360   36.7250 H   0  0  0  0  0  0  0  0  0  0  0  0
   37.1160   24.2470   39.0040 H   0  0  0  0  0  0  0  0  0  0  0  0
   39.0810   22.9280   39.7300 H   0  0  0  0  0  0  0  0  0  0  0  0
   40.7660   22.3470   38.0130 H   0  0  0  0  0  0  0  0  0  0  0  0
   40.5520   23.0120   35.7060 H   0  0  0  0  0  0  0  0  0  0  0  0
   39.3750   26.6840   34.9600 C   0  0  0  0  0  0  0  0  0  0  0  0
   40.4100   26.9580   35.0650 H   0  0  0  0  0  0  0  0  0  0  0  0
   38.9350   27.4870   35.8090 O   0  0  0  0  0  0  0  0  0  0  0  0
  1  7  1  0  0  0  0
  1  2  1  0  0  0  0
  2  9  1  0  0  0  0
  3  2  2  0  0  0  0
  3 20  1  0  0  0  0
  4  3  1  0  0  0  0
  5  6  1  0  0  0  0
  5  4  2  0  0  0  0
  6  1  2  0  0  0  0
  8  5  1  0  0  0  0
  9 14  2  0  0  0  0
  9 10  1  0  0  0  0
 10 11  2  0  0  0  0
 11 12  1  0  0  0  0
 11 16  1  0  0  0  0
 12 17  1  0  0  0  0
 13 18  1  0  0  0  0
 13 12  2  0  0  0  0
 14 13  1  0  0  0  0
 15 10  1  0  0  0  0
 19 14  1  0  0  0  0
 20 21  1  0  0  0  0
 20 22  2  0  0  0  0
M  END
>  <minimizedAffinity>
-4.187397

$$$$

 OpenBabel03272506223D

 22 23  0  0  0  0  0  0  0  0999 V2000
   35.1460   30.4290   32.2910 C   0  0  0  0  0  0  0  0  0  0  0  0
   35.4850   29.8430   33.5450 C   0  0  0  0  0  0  0  0  0  0  0  0
   36.2080   28.6660   33.4910 C   0  0  0  0  0  0  0  0  0  0  0  0
   36.5590   28.1220   32.3120 N   0  0  0  0  0  0  0  0  0  0  0  0
   36.2200   28.7050   31.1310 C   0  0  0  0  0  0  0  0  0  0  0  0
   35.5100   29.8650   31.1310 N   0  0  0  0  0  0  0  0  0  0  0  0
   34.5820   31.3490   32.2670 H   0  0  0  0  0  0  0  0  0  0  0  0
   36.5630   28.1680   30.2470 H   0  0  0  0  0  0  0  0  0  0  0  0
   35.0370   30.5410   34.7280 C   0  0  0  0  0  0  0  0  0  0  0  0
   33.7250   30.3790   35.0870 C   0  0  0  0  0  0  0  0  0  0  0  0
   33.1240   30.9660   36.1810 C   0  0  0  0  0  0  0  0  0  0  0  0
   33.9050   31.7980   37.0020 C   0  0  0  0  0  0  0  0  0  0  0  0
   35.2420   31.9650   36.6380 C   0  0  0  0  0  0  0  0  0  0  0  0
   35.8140   31.3680   35.5410 C   0  0  0  0  0  0  0  0  0  0  0  0
   32.9730   29.7690   34.5610 H   0  0  0  0  0  0  0  0  0  0  0  0
   32.1190   30.8770   36.5040 H   0  0  0  0  0  0  0  0  0  0  0  0
   33.5690   32.3250   37.8920 H   0  0  0  0  0  0  0  0  0  0  0  0
   35.9300   32.5830   37.1980 H   0  0  0  0  0  0  0  0  0  0  0  0
   36.8380   31.4870   35.2530 H   0  0  0  0  0  0  0  0  0  0  0  0
   36.5770   28.0480   34.7230 C   0  0  0  0  0  0  0  0  0  0  0  0
   35.9370   27.6640   35.4960 H   0  0  0  0  0  0  0  0  0  0  0  0
   37.6550   27.7610   35.2850 O   0  0  0  0  0  0  0  0  0  0  0  0
  1  2  1  0  0  0  0
  2  9  1  0  0  0  0
  3  2  2  0  0  0  0
  3 20  1  0  0  0  0
  4  3  1  0  0  0  0
  5  6  1  0  0  0  0
  5  4  2  0  0  0  0
  6  1  2  0  0  0  0
  7  1  1  0  0  0  0
  8  5  1  0  0  0  0
  9 10  2  0  0  0  0
  9 14  1  0  0  0  0
 10 11  1  0  0  0  0
 11 16  1  0  0  0  0
 11 12  2  0  0  0  0
 12 17  1  0  0  0  0
 13 12  1  0  0  0  0
 13 18  1  0  0  0  0
 14 13  2  0  0  0  0
 15 10  1  0  0  0  0
 19 14  1  0  0  0  0
 20 22  2  0  0  0  0
 20 21  1  0  0  0  0
M  END
>  <minimizedAffinity>
-4.10628557

$$$$

 OpenBabel03272506223D

 22 23  0  0  0  0  0  0  0  0999 V2000
   37.8340   23.6810   33.4930 C   0  0  0  0  0  0  0  0  0  0  0  0
   38.1340   24.5410   34.5890 C   0  0  0  0  0  0  0  0  0  0  0  0
   37.7390   25.8590   34.4540 C   0  0  0  0  0  0  0  0  0  0  0  0
   37.1090   26.2830   33.3450 N   0  0  0  0  0  0  0  0  0  0  0  0
   36.8370   25.4380   32.3140 C   0  0  0  0  0  0  0  0  0  0  0  0
   37.2040   24.1320   32.3990 N   0  0  0  0  0  0  0  0  0  0  0  0
   38.1170   22.6410   33.5380 H   0  0  0  0  0  0  0  0  0  0  0  0
   36.3230   25.9030   31.4720 H   0  0  0  0  0  0  0  0  0  0  0  0
   38.8170   23.9420   35.7130 C   0  0  0  0  0  0  0  0  0  0  0  0
   40.1300   23.5970   35.5320 C   0  0  0  0  0  0  0  0  0  0  0  0
   40.9360   23.0170   36.4890 C   0  0  0  0  0  0  0  0  0  0  0  0
   40.3830   22.7530   37.7540 C   0  0  0  0  0  0  0  0  0  0  0  0
   39.0450   23.1040   37.9400 C   0  0  0  0  0  0  0  0  0  0  0  0
   38.2650   23.6810   36.9680 C   0  0  0  0  0  0  0  0  0  0  0  0
   40.7200   23.7280   34.6100 H   0  0  0  0  0  0  0  0  0  0  0  0
   41.9530   22.7300   36.4040 H   0  0  0  0  0  0  0  0  0  0  0  0
   40.8950   22.3020   38.6010 H   0  0  0  0  0  0  0  0  0  0  0  0
   38.5210   22.9450   38.8730 H   0  0  0  0  0  0  0  0  0  0  0  0
   37.2380   23.9550   37.1000 H   0  0  0  0  0  0  0  0  0  0  0  0
   38.0120   26.7550   35.5310 C   0  0  0  0  0  0  0  0  0  0  0  0
   37.3430   27.1040   36.2970 H   0  0  0  0  0  0  0  0  0  0  0  0
   39.0150   27.3850   35.9290 O   0  0  0  0  0  0  0  0  0  0  0  0
  1  7  1  0  0  0  0
  1  2  1  0  0  0  0
  2  9  1  0  0  0  0
  3  2  2  0  0  0  0
  3 20  1  0  0  0  0
  4  3  1  0  0  0  0
  5  6  1  0  0  0  0
  5  4  2  0  0  0  0
  6  1  2  0  0  0  0
  8  5  1  0  0  0  0
  9 14  1  0  0  0  0
 10  9  2  0  0  0  0
 10 11  1  0  0  0  0
 11 12  2  0  0  0  0
 12 13  1  0  0  0  0
 12 17  1  0  0  0  0
 13 18  1  0  0  0  0
 14 19  1  0  0  0  0
 14 13  2  0  0  0  0
 15 10  1  0  0  0  0
 16 11  1  0  0  0  0
 20 22  2  0  0  0  0
 20 21  1  0  0  0  0
M  END
>  <minimizedAffinity>
-4.07128859

$$$$

 OpenBabel03272506223D

 22 23  0  0  0  0  0  0  0  0999 V2000
   35.3900   24.4220   31.0040 C   0  0  0  0  0  0  0  0  0  0  0  0
   36.2700   23.6060   31.7740 C   0  0  0  0  0  0  0  0  0  0  0  0
   37.1660   24.2760   32.5850 C   0  0  0  0  0  0  0  0  0  0  0  0
   37.1890   25.6190   32.6300 N   0  0  0  0  0  0  0  0  0  0  0  0
   36.3360   26.3710   31.8830 C   0  0  0  0  0  0  0  0  0  0  0  0
   35.4350   25.7600   31.0690 N   0  0  0  0  0  0  0  0  0  0  0  0
   34.6670   23.9570   30.3510 H   0  0  0  0  0  0  0  0  0  0  0  0
   36.4550   27.4480   32.0080 H   0  0  0  0  0  0  0  0  0  0  0  0
   36.1280   22.1760   31.6190 C   0  0  0  0  0  0  0  0  0  0  0  0
   35.1020   21.5740   32.2980 C   0  0  0  0  0  0  0  0  0  0  0  0
   34.8160   20.2260   32.2690 C   0  0  0  0  0  0  0  0  0  0  0  0
   35.6320   19.3890   31.4880 C   0  0  0  0  0  0  0  0  0  0  0  0
   36.6780   20.0000   30.7950 C   0  0  0  0  0  0  0  0  0  0  0  0
   36.9400   21.3480   30.8420 C   0  0  0  0  0  0  0  0  0  0  0  0
   34.3720   22.0730   32.9560 H   0  0  0  0  0  0  0  0  0  0  0  0
   34.0400   19.7090   32.7720 H   0  0  0  0  0  0  0  0  0  0  0  0
   35.5280   18.3120   31.3700 H   0  0  0  0  0  0  0  0  0  0  0  0
   37.3650   19.4510   30.1660 H   0  0  0  0  0  0  0  0  0  0  0  0
   37.7390   21.8280   30.3150 H   0  0  0  0  0  0  0  0  0  0  0  0
   38.0610   23.5000   33.3800 C   0  0  0  0  0  0  0  0  0  0  0  0
   39.0460   23.1480   33.1280 H   0  0  0  0  0  0  0  0  0  0  0  0
   38.0300   23.0040   34.5260 O   0  0  0  0  0  0  0  0  0  0  0  0
  1  6  2  0  0  0  0
  1  2  1  0  0  0  0
  2  3  2  0  0  0  0
  3  4  1  0  0  0  0
  3 20  1  0  0  0  0
  5  8  1  0  0  0  0
  5  4  2  0  0  0  0
  6  5  1  0  0  0  0
  7  1  1  0  0  0  0
  9  2  1  0  0  0  0
  9 10  1  0  0  0  0
 10 15  1  0  0  0  0
 11 10  2  0  0  0  0
 11 16  1  0  0  0  0
 12 11  1  0  0  0  0
 13 14  1  0  0  0  0
 13 12  2  0  0  0  0
 14  9  2  0  0  0  0
 17 12  1  0  0  0  0
 18 13  1  0  0  0  0
 19 14  1  0  0  0  0
 20 22  2  0  0  0  0
 21 20  1  0  0  0  0
M  END
>  <minimizedAffinity>
-4.06793499

$$$$

 OpenBabel03272506223D

 22 23  0  0  0  0  0  0  0  0999 V2000
   38.6440   25.9140   34.4600 C   0  0  0  0  0  0  0  0  0  0  0  0
   38.4800   24.5190   34.6980 C   0  0  0  0  0  0  0  0  0  0  0  0
   38.1040   23.7560   33.6080 C   0  0  0  0  0  0  0  0  0  0  0  0
   37.9100   24.3190   32.4030 N   0  0  0  0  0  0  0  0  0  0  0  0
   38.0740   25.6550   32.2060 C   0  0  0  0  0  0  0  0  0  0  0  0
   38.4440   26.4480   33.2470 N   0  0  0  0  0  0  0  0  0  0  0  0
   38.9370   26.5630   35.2710 H   0  0  0  0  0  0  0  0  0  0  0  0
   37.8870   25.9890   31.1850 H   0  0  0  0  0  0  0  0  0  0  0  0
   38.7220   24.0590   36.0470 C   0  0  0  0  0  0  0  0  0  0  0  0
   37.8300   24.4540   37.0080 C   0  0  0  0  0  0  0  0  0  0  0  0
   37.9020   24.1140   38.3430 C   0  0  0  0  0  0  0  0  0  0  0  0
   38.9660   23.2990   38.7660 C   0  0  0  0  0  0  0  0  0  0  0  0
   39.8760   22.8950   37.7870 C   0  0  0  0  0  0  0  0  0  0  0  0
   39.7800   23.2500   36.4630 C   0  0  0  0  0  0  0  0  0  0  0  0
   36.9450   25.0930   36.8570 H   0  0  0  0  0  0  0  0  0  0  0  0
   37.2440   24.3900   39.1260 H   0  0  0  0  0  0  0  0  0  0  0  0
   39.1510   22.9520   39.7800 H   0  0  0  0  0  0  0  0  0  0  0  0
   40.7300   22.2690   38.0020 H   0  0  0  0  0  0  0  0  0  0  0  0
   40.4710   22.9460   35.7040 H   0  0  0  0  0  0  0  0  0  0  0  0
   37.9350   22.3520   33.7980 C   0  0  0  0  0  0  0  0  0  0  0  0
   38.6380   21.5620   33.6040 H   0  0  0  0  0  0  0  0  0  0  0  0
   37.0150   21.6160   34.2120 O   0  0  0  0  0  0  0  0  0  0  0  0
  1  2  1  0  0  0  0
  1  7  1  0  0  0  0
  2  9  1  0  0  0  0
  3 20  1  0  0  0  0
  3  2  2  0  0  0  0
  4  3  1  0  0  0  0
  5  4  2  0  0  0  0
  5  6  1  0  0  0  0
  6  1  2  0  0  0  0
  8  5  1  0  0  0  0
  9 14  2  0  0  0  0
  9 10  1  0  0  0  0
 10 11  2  0  0  0  0
 11 12  1  0  0  0  0
 11 16  1  0  0  0  0
 12 17  1  0  0  0  0
 13 18  1  0  0  0  0
 13 12  2  0  0  0  0
 14 13  1  0  0  0  0
 15 10  1  0  0  0  0
 19 14  1  0  0  0  0
 20 22  2  0  0  0  0
 21 20  1  0  0  0  0
M  END
>  <minimizedAffinity>
-4.00817919

$$$$

 OpenBabel03272506223D

 22 23  0  0  0  0  0  0  0  0999 V2000
   35.6840   31.4190   35.8370 C   0  0  0  0  0  0  0  0  0  0  0  0
   34.9020   30.5200   35.0550 C   0  0  0  0  0  0  0  0  0  0  0  0
   33.5570   30.4550   35.3680 C   0  0  0  0  0  0  0  0  0  0  0  0
   33.0380   31.2040   36.3550 N   0  0  0  0  0  0  0  0  0  0  0  0
   33.8110   32.0540   37.0850 C   0  0  0  0  0  0  0  0  0  0  0  0
   35.1400   32.1550   36.8160 N   0  0  0  0  0  0  0  0  0  0  0  0
   36.7410   31.5150   35.6400 H   0  0  0  0  0  0  0  0  0  0  0  0
   33.2730   32.6050   37.8560 H   0  0  0  0  0  0  0  0  0  0  0  0
   35.5990   29.7790   34.0280 C   0  0  0  0  0  0  0  0  0  0  0  0
   35.7070   30.3700   32.7980 C   0  0  0  0  0  0  0  0  0  0  0  0
   36.3350   29.8130   31.7030 C   0  0  0  0  0  0  0  0  0  0  0  0
   36.9150   28.5410   31.8450 C   0  0  0  0  0  0  0  0  0  0  0  0
   36.8070   27.9370   33.0990 C   0  0  0  0  0  0  0  0  0  0  0  0
   36.1750   28.5150   34.1730 C   0  0  0  0  0  0  0  0  0  0  0  0
   35.3100   31.3570   32.5090 H   0  0  0  0  0  0  0  0  0  0  0  0
   36.4470   30.2220   30.7330 H   0  0  0  0  0  0  0  0  0  0  0  0
   37.4400   27.9810   31.0740 H   0  0  0  0  0  0  0  0  0  0  0  0
   37.2170   26.9610   33.3180 H   0  0  0  0  0  0  0  0  0  0  0  0
   36.0860   28.0620   35.1390 H   0  0  0  0  0  0  0  0  0  0  0  0
   32.7330   29.5730   34.6060 C   0  0  0  0  0  0  0  0  0  0  0  0
   32.4930   28.5440   34.8040 H   0  0  0  0  0  0  0  0  0  0  0  0
   32.0680   29.6670   33.5530 O   0  0  0  0  0  0  0  0  0  0  0  0
  1  6  1  0  0  0  0
  2  3  1  0  0  0  0
  2  1  2  0  0  0  0
  3  4  2  0  0  0  0
  4  5  1  0  0  0  0
  5  8  1  0  0  0  0
  6  5  2  0  0  0  0
  7  1  1  0  0  0  0
  9 14  1  0  0  0  0
  9  2  1  0  0  0  0
 10  9  2  0  0  0  0
 11 12  2  0  0  0  0
 11 10  1  0  0  0  0
 12 13  1  0  0  0  0
 13 18  1  0  0  0  0
 13 14  2  0  0  0  0
 14 19  1  0  0  0  0
 15 10  1  0  0  0  0
 16 11  1  0  0  0  0
 17 12  1  0  0  0  0
 20 21  1  0  0  0  0
 20  3  1  0  0  0  0
 22 20  2  0  0  0  0
M  END
>  <minimizedAffinity>
-3.99285507

$$$$

 OpenBabel03272506223D

 22 23  0  0  0  0  0  0  0  0999 V2000
   36.3250   28.3250   34.1360 C   0  0  0  0  0  0  0  0  0  0  0  0
   35.5450   29.4400   33.7130 C   0  0  0  0  0  0  0  0  0  0  0  0
   35.4420   29.6260   32.3470 C   0  0  0  0  0  0  0  0  0  0  0  0
   36.0510   28.7920   31.4860 N   0  0  0  0  0  0  0  0  0  0  0  0
   36.7900   27.7360   31.9210 C   0  0  0  0  0  0  0  0  0  0  0  0
   36.9210   27.5090   33.2560 N   0  0  0  0  0  0  0  0  0  0  0  0
   36.4420   28.1260   35.1910 H   0  0  0  0  0  0  0  0  0  0  0  0
   37.2320   27.1350   31.1260 H   0  0  0  0  0  0  0  0  0  0  0  0
   34.9520   30.2490   34.7540 C   0  0  0  0  0  0  0  0  0  0  0  0
   35.7810   31.1160   35.4160 C   0  0  0  0  0  0  0  0  0  0  0  0
   35.3920   31.9610   36.4340 C   0  0  0  0  0  0  0  0  0  0  0  0
   34.0450   31.9450   36.8350 C   0  0  0  0  0  0  0  0  0  0  0  0
   33.1990   31.0620   36.1610 C   0  0  0  0  0  0  0  0  0  0  0  0
   33.6140   30.2300   35.1500 C   0  0  0  0  0  0  0  0  0  0  0  0
   36.8590   31.2570   35.2370 H   0  0  0  0  0  0  0  0  0  0  0  0
   35.9860   32.6480   36.9790 H   0  0  0  0  0  0  0  0  0  0  0  0
   33.5970   32.5520   37.6180 H   0  0  0  0  0  0  0  0  0  0  0  0
   32.1470   30.9690   36.3890 H   0  0  0  0  0  0  0  0  0  0  0  0
   32.9750   29.5500   34.6260 H   0  0  0  0  0  0  0  0  0  0  0  0
   34.6650   30.7260   31.8770 C   0  0  0  0  0  0  0  0  0  0  0  0
   34.9760   31.7410   31.7070 H   0  0  0  0  0  0  0  0  0  0  0  0
   33.4760   30.8900   31.5300 O   0  0  0  0  0  0  0  0  0  0  0  0
  1  7  1  0  0  0  0
  2  1  1  0  0  0  0
  2  9  1  0  0  0  0
  3  2  2  0  0  0  0
  4  5  2  0  0  0  0
  4  3  1  0  0  0  0
  5  6  1  0  0  0  0
  6  1  2  0  0  0  0
  8  5  1  0  0  0  0
  9 14  2  0  0  0  0
  9 10  1  0  0  0  0
 10 11  2  0  0  0  0
 11 12  1  0  0  0  0
 11 16  1  0  0  0  0
 12 17  1  0  0  0  0
 13 18  1  0  0  0  0
 13 12  2  0  0  0  0
 14 13  1  0  0  0  0
 15 10  1  0  0  0  0
 19 14  1  0  0  0  0
 20  3  1  0  0  0  0
 21 20  1  0  0  0  0
 22 20  2  0  0  0  0
M  END
>  <minimizedAffinity>
-3.97333622

$$$$

 OpenBabel03272506223D

 22 23  0  0  0  0  0  0  0  0999 V2000
   37.4770   25.5600   33.9440 C   0  0  0  0  0  0  0  0  0  0  0  0
   38.7140   25.5960   34.6520 C   0  0  0  0  0  0  0  0  0  0  0  0
   39.6830   26.4400   34.1400 C   0  0  0  0  0  0  0  0  0  0  0  0
   39.4510   27.1730   33.0380 N   0  0  0  0  0  0  0  0  0  0  0  0
   38.2600   27.1160   32.3830 C   0  0  0  0  0  0  0  0  0  0  0  0
   37.2740   26.3030   32.8470 N   0  0  0  0  0  0  0  0  0  0  0  0
   36.6810   24.9210   34.2940 H   0  0  0  0  0  0  0  0  0  0  0  0
   38.1960   27.7580   31.5040 H   0  0  0  0  0  0  0  0  0  0  0  0
   38.8160   24.7500   35.8190 C   0  0  0  0  0  0  0  0  0  0  0  0
   38.1040   25.1280   36.9270 C   0  0  0  0  0  0  0  0  0  0  0  0
   38.0820   24.4460   38.1250 C   0  0  0  0  0  0  0  0  0  0  0  0
   38.8440   23.2700   38.2350 C   0  0  0  0  0  0  0  0  0  0  0  0
   39.5700   22.8840   37.1080 C   0  0  0  0  0  0  0  0  0  0  0  0
   39.5740   23.5830   35.9260 C   0  0  0  0  0  0  0  0  0  0  0  0
   37.4600   26.0180   37.0190 H   0  0  0  0  0  0  0  0  0  0  0  0
   37.5530   24.6910   39.0100 H   0  0  0  0  0  0  0  0  0  0  0  0
   38.9240   22.6320   39.1130 H   0  0  0  0  0  0  0  0  0  0  0  0
   40.1890   21.9980   37.0840 H   0  0  0  0  0  0  0  0  0  0  0  0
   40.1260   23.2960   35.0550 H   0  0  0  0  0  0  0  0  0  0  0  0
   40.9340   26.5140   34.8220 C   0  0  0  0  0  0  0  0  0  0  0  0
   41.1410   26.9150   35.7980 H   0  0  0  0  0  0  0  0  0  0  0  0
   42.1080   26.1780   34.5610 O   0  0  0  0  0  0  0  0  0  0  0  0
  1  7  1  0  0  0  0
  1  2  1  0  0  0  0
  2  9  1  0  0  0  0
  3  2  2  0  0  0  0
  3 20  1  0  0  0  0
  4  3  1  0  0  0  0
  5  6  1  0  0  0  0
  5  4  2  0  0  0  0
  6  1  2  0  0  0  0
  8  5  1  0  0  0  0
  9 14  2  0  0  0  0
  9 10  1  0  0  0  0
 10 15  1  0  0  0  0
 10 11  2  0  0  0  0
 11 12  1  0  0  0  0
 11 16  1  0  0  0  0
 12 17  1  0  0  0  0
 13 12  2  0  0  0  0
 14 13  1  0  0  0  0
 18 13  1  0  0  0  0
 19 14  1  0  0  0  0
 20 21  1  0  0  0  0
 22 20  2  0  0  0  0
M  END
>  <minimizedAffinity>
-3.94722342

$$$$
