
 OpenBabel03262521053D

 22 23  0  0  0  0  0  0  0  0999 V2000
   37.9200   23.5740   33.2550 Br  0  0  0  0  0  0  0  0  0  0  0  0
   37.8130   25.2860   34.0620 C   0  0  0  0  0  0  0  0  0  0  0  0
   38.4350   25.3940   35.2830 C   0  0  0  0  0  0  0  0  0  0  0  0
   38.4060   26.6290   35.9530 C   0  0  0  0  0  0  0  0  0  0  0  0
   37.7450   27.7160   35.3600 C   0  0  0  0  0  0  0  0  0  0  0  0
   37.1540   27.5160   34.1450 C   0  0  0  0  0  0  0  0  0  0  0  0
   37.1710   26.3220   33.4750 C   0  0  0  0  0  0  0  0  0  0  0  0
   38.8600   26.8070   36.9020 H   0  0  0  0  0  0  0  0  0  0  0  0
   37.7290   28.6670   35.8910 H   0  0  0  0  0  0  0  0  0  0  0  0
   36.6470   28.3610   33.6970 H   0  0  0  0  0  0  0  0  0  0  0  0
   40.4150   23.8690   35.6580 C   0  0  0  0  0  0  0  0  0  0  0  0
   39.1610   24.3670   36.0300 C   0  0  0  0  0  0  0  0  0  0  0  0
   38.5610   23.8530   37.1910 C   0  0  0  0  0  0  0  0  0  0  0  0
   39.2500   22.8840   37.8920 N   0  0  0  0  0  0  0  0  0  0  0  0
   40.4580   22.4420   37.4850 C   0  0  0  0  0  0  0  0  0  0  0  0
   41.0440   22.9320   36.3680 N   0  0  0  0  0  0  0  0  0  0  0  0
   40.8410   24.3000   34.7490 H   0  0  0  0  0  0  0  0  0  0  0  0
   37.6040   24.1830   37.5390 H   0  0  0  0  0  0  0  0  0  0  0  0
   40.9270   21.6720   38.1080 H   0  0  0  0  0  0  0  0  0  0  0  0
   36.5430   26.1030   32.1780 C   0  0  0  0  0  0  0  0  0  0  0  0
   36.6810   25.2080   31.5690 H   0  0  0  0  0  0  0  0  0  0  0  0
   35.7960   26.9830   31.7180 O   0  0  0  0  0  0  0  0  0  0  0  0
  1  2  1  0  0  0  0
  2  3  1  0  0  0  0
  3  4  2  0  0  0  0
  3 12  1  0  0  0  0
  4  8  1  0  0  0  0
  5  9  1  0  0  0  0
  5  4  1  0  0  0  0
  6  5  2  0  0  0  0
  7  2  2  0  0  0  0
  7  6  1  0  0  0  0
 10  6  1  0  0  0  0
 11 12  2  0  0  0  0
 11 16  1  0  0  0  0
 12 13  1  0  0  0  0
 13 18  1  0  0  0  0
 13 14  2  0  0  0  0
 15 14  1  0  0  0  0
 15 19  1  0  0  0  0
 16 15  2  0  0  0  0
 17 11  1  0  0  0  0
 20  7  1  0  0  0  0
 21 20  1  0  0  0  0
 22 20  2  0  0  0  0
M  END
>  <minimizedAffinity>
-4.41423035

$$$$

 OpenBabel03262521053D

 22 23  0  0  0  0  0  0  0  0999 V2000
   38.0240   23.5490   33.0800 Br  0  0  0  0  0  0  0  0  0  0  0  0
   37.7680   25.2760   33.8180 C   0  0  0  0  0  0  0  0  0  0  0  0
   38.2430   25.4390   35.0980 C   0  0  0  0  0  0  0  0  0  0  0  0
   38.0950   26.6890   35.7230 C   0  0  0  0  0  0  0  0  0  0  0  0
   37.4700   27.7340   35.0260 C   0  0  0  0  0  0  0  0  0  0  0  0
   37.0280   27.4810   33.7580 C   0  0  0  0  0  0  0  0  0  0  0  0
   37.1630   26.2720   33.1310 C   0  0  0  0  0  0  0  0  0  0  0  0
   38.4320   26.9090   36.7110 H   0  0  0  0  0  0  0  0  0  0  0  0
   37.3610   28.6980   35.5220 H   0  0  0  0  0  0  0  0  0  0  0  0
   36.5470   28.2950   33.2310 H   0  0  0  0  0  0  0  0  0  0  0  0
   38.3320   23.8890   37.0920 C   0  0  0  0  0  0  0  0  0  0  0  0
   38.9130   24.4590   35.9530 C   0  0  0  0  0  0  0  0  0  0  0  0
   40.2160   24.0690   35.6080 C   0  0  0  0  0  0  0  0  0  0  0  0
   40.8430   23.1450   36.4180 N   0  0  0  0  0  0  0  0  0  0  0  0
   40.2330   22.6280   37.5050 C   0  0  0  0  0  0  0  0  0  0  0  0
   38.9770   22.9990   37.8450 N   0  0  0  0  0  0  0  0  0  0  0  0
   37.3170   24.2240   37.3200 H   0  0  0  0  0  0  0  0  0  0  0  0
   40.7270   24.4610   34.7520 H   0  0  0  0  0  0  0  0  0  0  0  0
   40.8120   21.9010   38.0860 H   0  0  0  0  0  0  0  0  0  0  0  0
   36.6940   25.9960   31.7790 C   0  0  0  0  0  0  0  0  0  0  0  0
   37.3370   25.9660   30.8980 H   0  0  0  0  0  0  0  0  0  0  0  0
   35.4850   25.7760   31.5960 O   0  0  0  0  0  0  0  0  0  0  0  0
  1  2  1  0  0  0  0
  2  3  1  0  0  0  0
  3  4  2  0  0  0  0
  3 12  1  0  0  0  0
  4  8  1  0  0  0  0
  5  9  1  0  0  0  0
  5  4  1  0  0  0  0
  6  5  2  0  0  0  0
  7  6  1  0  0  0  0
  7  2  2  0  0  0  0
 10  6  1  0  0  0  0
 11 17  1  0  0  0  0
 11 16  1  0  0  0  0
 12 11  2  0  0  0  0
 13 12  1  0  0  0  0
 13 14  2  0  0  0  0
 14 15  1  0  0  0  0
 15 16  2  0  0  0  0
 15 19  1  0  0  0  0
 18 13  1  0  0  0  0
 20  7  1  0  0  0  0
 21 20  1  0  0  0  0
 22 20  2  0  0  0  0
M  END
>  <minimizedAffinity>
-4.27661085

$$$$

 OpenBabel03262521053D

 22 23  0  0  0  0  0  0  0  0999 V2000
   32.3980   29.4300   34.2790 Br  0  0  0  0  0  0  0  0  0  0  0  0
   33.4450   30.5690   35.3740 C   0  0  0  0  0  0  0  0  0  0  0  0
   34.7780   30.6300   35.0440 C   0  0  0  0  0  0  0  0  0  0  0  0
   35.6290   31.4510   35.8040 C   0  0  0  0  0  0  0  0  0  0  0  0
   35.0970   32.1860   36.8740 C   0  0  0  0  0  0  0  0  0  0  0  0
   33.7600   32.0640   37.1290 C   0  0  0  0  0  0  0  0  0  0  0  0
   32.9140   31.2700   36.4020 C   0  0  0  0  0  0  0  0  0  0  0  0
   36.6740   31.5610   35.6230 H   0  0  0  0  0  0  0  0  0  0  0  0
   35.7670   32.8180   37.4560 H   0  0  0  0  0  0  0  0  0  0  0  0
   33.3600   32.6350   37.9580 H   0  0  0  0  0  0  0  0  0  0  0  0
   35.6420   30.4490   32.6760 C   0  0  0  0  0  0  0  0  0  0  0  0
   35.4840   29.9340   33.9680 C   0  0  0  0  0  0  0  0  0  0  0  0
   36.0360   28.6740   34.2520 C   0  0  0  0  0  0  0  0  0  0  0  0
   36.7010   28.0230   33.2350 N   0  0  0  0  0  0  0  0  0  0  0  0
   36.8220   28.5690   32.0060 C   0  0  0  0  0  0  0  0  0  0  0  0
   36.2940   29.7810   31.7240 N   0  0  0  0  0  0  0  0  0  0  0  0
   35.1960   31.4310   32.5040 H   0  0  0  0  0  0  0  0  0  0  0  0
   35.9560   28.2150   35.2160 H   0  0  0  0  0  0  0  0  0  0  0  0
   37.3680   27.9750   31.2640 H   0  0  0  0  0  0  0  0  0  0  0  0
   31.4870   31.1360   36.6690 C   0  0  0  0  0  0  0  0  0  0  0  0
   30.9860   30.1900   36.8810 H   0  0  0  0  0  0  0  0  0  0  0  0
   30.7770   32.1550   36.6590 O   0  0  0  0  0  0  0  0  0  0  0  0
  1  2  1  0  0  0  0
  2  7  1  0  0  0  0
  3  2  2  0  0  0  0
  3  4  1  0  0  0  0
  4  5  2  0  0  0  0
  5  6  1  0  0  0  0
  5  9  1  0  0  0  0
  6 10  1  0  0  0  0
  7 20  1  0  0  0  0
  7  6  2  0  0  0  0
  8  4  1  0  0  0  0
 11 12  1  0  0  0  0
 12 13  2  0  0  0  0
 12  3  1  0  0  0  0
 13 18  1  0  0  0  0
 14 13  1  0  0  0  0
 15 14  2  0  0  0  0
 16 15  1  0  0  0  0
 16 11  2  0  0  0  0
 17 11  1  0  0  0  0
 19 15  1  0  0  0  0
 20 21  1  0  0  0  0
 22 20  2  0  0  0  0
M  END
>  <minimizedAffinity>
-4.23286724

$$$$

 OpenBabel03262521053D

 22 23  0  0  0  0  0  0  0  0999 V2000
   40.8720   24.0080   34.3780 Br  0  0  0  0  0  0  0  0  0  0  0  0
   39.7760   23.8220   35.9140 C   0  0  0  0  0  0  0  0  0  0  0  0
   38.5750   24.4890   35.8560 C   0  0  0  0  0  0  0  0  0  0  0  0
   37.6990   24.4050   36.9520 C   0  0  0  0  0  0  0  0  0  0  0  0
   38.0720   23.6460   38.0720 C   0  0  0  0  0  0  0  0  0  0  0  0
   39.2850   23.0180   38.0410 C   0  0  0  0  0  0  0  0  0  0  0  0
   40.1520   23.0860   36.9840 C   0  0  0  0  0  0  0  0  0  0  0  0
   36.7480   24.8870   36.9980 H   0  0  0  0  0  0  0  0  0  0  0  0
   37.3840   23.5910   38.9150 H   0  0  0  0  0  0  0  0  0  0  0  0
   39.5620   22.4360   38.9110 H   0  0  0  0  0  0  0  0  0  0  0  0
   37.5750   24.8020   33.5560 C   0  0  0  0  0  0  0  0  0  0  0  0
   38.0410   25.3140   34.7730 C   0  0  0  0  0  0  0  0  0  0  0  0
   37.9940   26.7040   34.9690 C   0  0  0  0  0  0  0  0  0  0  0  0
   37.4900   27.4780   33.9440 N   0  0  0  0  0  0  0  0  0  0  0  0
   37.0540   26.9270   32.7910 C   0  0  0  0  0  0  0  0  0  0  0  0
   37.0950   25.5900   32.5940 N   0  0  0  0  0  0  0  0  0  0  0  0
   37.6320   23.7160   33.4510 H   0  0  0  0  0  0  0  0  0  0  0  0
   38.3320   27.1690   35.8710 H   0  0  0  0  0  0  0  0  0  0  0  0
   36.6700   27.6240   32.0370 H   0  0  0  0  0  0  0  0  0  0  0  0
   41.4470   22.4180   36.9450 C   0  0  0  0  0  0  0  0  0  0  0  0
   42.3350   22.8220   36.4560 H   0  0  0  0  0  0  0  0  0  0  0  0
   41.5690   21.3140   37.5020 O   0  0  0  0  0  0  0  0  0  0  0  0
  1  2  1  0  0  0  0
  2  7  1  0  0  0  0
  3  2  2  0  0  0  0
  3  4  1  0  0  0  0
  4  8  1  0  0  0  0
  4  5  2  0  0  0  0
  5  9  1  0  0  0  0
  6  5  1  0  0  0  0
  6 10  1  0  0  0  0
  7  6  2  0  0  0  0
 11 12  1  0  0  0  0
 12 13  2  0  0  0  0
 12  3  1  0  0  0  0
 13 18  1  0  0  0  0
 14 13  1  0  0  0  0
 15 14  2  0  0  0  0
 16 15  1  0  0  0  0
 16 11  2  0  0  0  0
 17 11  1  0  0  0  0
 19 15  1  0  0  0  0
 20  7  1  0  0  0  0
 20 22  2  0  0  0  0
 21 20  1  0  0  0  0
M  END
>  <minimizedAffinity>
-4.22038794

$$$$

 OpenBabel03262521053D

 22 23  0  0  0  0  0  0  0  0999 V2000
   38.5850   27.0710   35.7650 Br  0  0  0  0  0  0  0  0  0  0  0  0
   37.9830   25.9390   34.3690 C   0  0  0  0  0  0  0  0  0  0  0  0
   38.2710   24.6050   34.5350 C   0  0  0  0  0  0  0  0  0  0  0  0
   37.8610   23.6940   33.5470 C   0  0  0  0  0  0  0  0  0  0  0  0
   37.1710   24.1670   32.4210 C   0  0  0  0  0  0  0  0  0  0  0  0
   36.9290   25.5100   32.3390 C   0  0  0  0  0  0  0  0  0  0  0  0
   37.3190   26.4140   33.2900 C   0  0  0  0  0  0  0  0  0  0  0  0
   38.0390   22.6430   33.5900 H   0  0  0  0  0  0  0  0  0  0  0  0
   36.8590   23.4510   31.6620 H   0  0  0  0  0  0  0  0  0  0  0  0
   36.3970   25.8640   31.4660 H   0  0  0  0  0  0  0  0  0  0  0  0
   38.3750   23.6230   36.8610 C   0  0  0  0  0  0  0  0  0  0  0  0
   38.9750   23.9560   35.6410 C   0  0  0  0  0  0  0  0  0  0  0  0
   40.3330   23.6470   35.4640 C   0  0  0  0  0  0  0  0  0  0  0  0
   40.9920   23.0340   36.5090 N   0  0  0  0  0  0  0  0  0  0  0  0
   40.3610   22.7370   37.6650 C   0  0  0  0  0  0  0  0  0  0  0  0
   39.0530   23.0300   37.8440 N   0  0  0  0  0  0  0  0  0  0  0  0
   37.3180   23.8820   36.9520 H   0  0  0  0  0  0  0  0  0  0  0  0
   40.8600   23.8710   34.5590 H   0  0  0  0  0  0  0  0  0  0  0  0
   40.9690   22.2500   38.4360 H   0  0  0  0  0  0  0  0  0  0  0  0
   37.0640   27.8470   33.2080 C   0  0  0  0  0  0  0  0  0  0  0  0
   37.8040   28.5880   32.9010 H   0  0  0  0  0  0  0  0  0  0  0  0
   35.9350   28.2730   33.5040 O   0  0  0  0  0  0  0  0  0  0  0  0
  2  3  1  0  0  0  0
  2  1  1  0  0  0  0
  3 12  1  0  0  0  0
  4  8  1  0  0  0  0
  4  3  2  0  0  0  0
  5  4  1  0  0  0  0
  6  5  2  0  0  0  0
  6  7  1  0  0  0  0
  7  2  2  0  0  0  0
  9  5  1  0  0  0  0
 10  6  1  0  0  0  0
 11 17  1  0  0  0  0
 11 16  1  0  0  0  0
 12 11  2  0  0  0  0
 13 12  1  0  0  0  0
 13 14  2  0  0  0  0
 14 15  1  0  0  0  0
 15 16  2  0  0  0  0
 15 19  1  0  0  0  0
 18 13  1  0  0  0  0
 20  7  1  0  0  0  0
 20 22  2  0  0  0  0
 21 20  1  0  0  0  0
M  END
>  <minimizedAffinity>
-4.08966208

$$$$

 OpenBabel03262521053D

 22 23  0  0  0  0  0  0  0  0999 V2000
   37.4580   24.2510   32.5040 Br  0  0  0  0  0  0  0  0  0  0  0  0
   37.8290   25.2980   34.0410 C   0  0  0  0  0  0  0  0  0  0  0  0
   37.7820   26.6570   33.8450 C   0  0  0  0  0  0  0  0  0  0  0  0
   38.0430   27.5100   34.9310 C   0  0  0  0  0  0  0  0  0  0  0  0
   38.3440   26.9520   36.1840 C   0  0  0  0  0  0  0  0  0  0  0  0
   38.3700   25.5900   36.2850 C   0  0  0  0  0  0  0  0  0  0  0  0
   38.1170   24.7420   35.2400 C   0  0  0  0  0  0  0  0  0  0  0  0
   38.0290   28.5750   34.8750 H   0  0  0  0  0  0  0  0  0  0  0  0
   38.5460   27.6240   37.0180 H   0  0  0  0  0  0  0  0  0  0  0  0
   38.6030   25.1710   37.2560 H   0  0  0  0  0  0  0  0  0  0  0  0
   38.4280   27.6500   31.6120 C   0  0  0  0  0  0  0  0  0  0  0  0
   37.4850   27.3910   32.6150 C   0  0  0  0  0  0  0  0  0  0  0  0
   36.1760   27.8630   32.4310 C   0  0  0  0  0  0  0  0  0  0  0  0
   35.9020   28.5540   31.2690 N   0  0  0  0  0  0  0  0  0  0  0  0
   36.8520   28.7730   30.3360 C   0  0  0  0  0  0  0  0  0  0  0  0
   38.1160   28.3230   30.5050 N   0  0  0  0  0  0  0  0  0  0  0  0
   39.4320   27.2630   31.8000 H   0  0  0  0  0  0  0  0  0  0  0  0
   35.4010   27.7050   33.1520 H   0  0  0  0  0  0  0  0  0  0  0  0
   36.5380   29.3320   29.4470 H   0  0  0  0  0  0  0  0  0  0  0  0
   38.1430   23.2880   35.3430 C   0  0  0  0  0  0  0  0  0  0  0  0
   38.4790   22.6200   34.5490 H   0  0  0  0  0  0  0  0  0  0  0  0
   37.7600   22.7550   36.3980 O   0  0  0  0  0  0  0  0  0  0  0  0
  1  2  1  0  0  0  0
  2  7  1  0  0  0  0
  3  2  2  0  0  0  0
  3  4  1  0  0  0  0
  4  5  2  0  0  0  0
  5  6  1  0  0  0  0
  5  9  1  0  0  0  0
  6 10  1  0  0  0  0
  7 20  1  0  0  0  0
  7  6  2  0  0  0  0
  8  4  1  0  0  0  0
 11 17  1  0  0  0  0
 11 12  1  0  0  0  0
 12  3  1  0  0  0  0
 13 12  2  0  0  0  0
 13 18  1  0  0  0  0
 14 13  1  0  0  0  0
 15 16  1  0  0  0  0
 15 14  2  0  0  0  0
 16 11  2  0  0  0  0
 19 15  1  0  0  0  0
 20 22  2  0  0  0  0
 21 20  1  0  0  0  0
M  END
>  <minimizedAffinity>
-4.04603004

$$$$

 OpenBabel03262521053D

 22 23  0  0  0  0  0  0  0  0999 V2000
   39.4890   26.5560   31.4580 Br  0  0  0  0  0  0  0  0  0  0  0  0
   38.7220   27.0040   33.1330 C   0  0  0  0  0  0  0  0  0  0  0  0
   39.5710   26.8960   34.2090 C   0  0  0  0  0  0  0  0  0  0  0  0
   39.0850   27.2090   35.4900 C   0  0  0  0  0  0  0  0  0  0  0  0
   37.7520   27.6220   35.6370 C   0  0  0  0  0  0  0  0  0  0  0  0
   36.9810   27.6990   34.5120 C   0  0  0  0  0  0  0  0  0  0  0  0
   37.4340   27.4000   33.2550 C   0  0  0  0  0  0  0  0  0  0  0  0
   39.6680   27.1560   36.3820 H   0  0  0  0  0  0  0  0  0  0  0  0
   37.3880   27.8610   36.6360 H   0  0  0  0  0  0  0  0  0  0  0  0
   35.9540   28.0180   34.6370 H   0  0  0  0  0  0  0  0  0  0  0  0
   42.0280   27.2830   33.7630 C   0  0  0  0  0  0  0  0  0  0  0  0
   40.9740   26.4850   34.2260 C   0  0  0  0  0  0  0  0  0  0  0  0
   41.2800   25.2140   34.7380 C   0  0  0  0  0  0  0  0  0  0  0  0
   42.6050   24.8310   34.7520 N   0  0  0  0  0  0  0  0  0  0  0  0
   43.5800   25.6440   34.2920 C   0  0  0  0  0  0  0  0  0  0  0  0
   43.2950   26.8700   33.7970 N   0  0  0  0  0  0  0  0  0  0  0  0
   41.7410   28.2620   33.3750 H   0  0  0  0  0  0  0  0  0  0  0  0
   40.5290   24.5480   35.1100 H   0  0  0  0  0  0  0  0  0  0  0  0
   44.6020   25.2510   34.3450 H   0  0  0  0  0  0  0  0  0  0  0  0
   36.6170   27.4810   32.0510 C   0  0  0  0  0  0  0  0  0  0  0  0
   36.6000   28.3360   31.3730 H   0  0  0  0  0  0  0  0  0  0  0  0
   35.8840   26.5210   31.7580 O   0  0  0  0  0  0  0  0  0  0  0  0
  1  2  1  0  0  0  0
  2  7  2  0  0  0  0
  2  3  1  0  0  0  0
  3 12  1  0  0  0  0
  3  4  2  0  0  0  0
  4  5  1  0  0  0  0
  4  8  1  0  0  0  0
  5  9  1  0  0  0  0
  6 10  1  0  0  0  0
  6  5  2  0  0  0  0
  7  6  1  0  0  0  0
 11 16  2  0  0  0  0
 11 12  1  0  0  0  0
 12 13  2  0  0  0  0
 13 14  1  0  0  0  0
 13 18  1  0  0  0  0
 15 19  1  0  0  0  0
 15 14  2  0  0  0  0
 16 15  1  0  0  0  0
 17 11  1  0  0  0  0
 20  7  1  0  0  0  0
 21 20  1  0  0  0  0
 22 20  2  0  0  0  0
M  END
>  <minimizedAffinity>
-4.04374838

$$$$

 OpenBabel03262521053D

 22 23  0  0  0  0  0  0  0  0999 V2000
   39.8380   26.0280   31.5670 Br  0  0  0  0  0  0  0  0  0  0  0  0
   39.1990   26.4160   33.3090 C   0  0  0  0  0  0  0  0  0  0  0  0
   37.8530   26.2100   33.4950 C   0  0  0  0  0  0  0  0  0  0  0  0
   37.2940   26.4720   34.7570 C   0  0  0  0  0  0  0  0  0  0  0  0
   38.1220   26.9360   35.7910 C   0  0  0  0  0  0  0  0  0  0  0  0
   39.4480   27.1130   35.5150 C   0  0  0  0  0  0  0  0  0  0  0  0
   40.0130   26.8630   34.2930 C   0  0  0  0  0  0  0  0  0  0  0  0
   36.2620   26.3420   34.9950 H   0  0  0  0  0  0  0  0  0  0  0  0
   37.6760   27.1360   36.7650 H   0  0  0  0  0  0  0  0  0  0  0  0
   40.0770   27.4710   36.3200 H   0  0  0  0  0  0  0  0  0  0  0  0
   36.6090   24.3810   32.2720 C   0  0  0  0  0  0  0  0  0  0  0  0
   36.8610   25.7340   32.5300 C   0  0  0  0  0  0  0  0  0  0  0  0
   36.1190   26.6940   31.8240 C   0  0  0  0  0  0  0  0  0  0  0  0
   35.1850   26.2400   30.9160 N   0  0  0  0  0  0  0  0  0  0  0  0
   34.9850   24.9210   30.7080 C   0  0  0  0  0  0  0  0  0  0  0  0
   35.6950   23.9900   31.3840 N   0  0  0  0  0  0  0  0  0  0  0  0
   37.2110   23.6730   32.8450 H   0  0  0  0  0  0  0  0  0  0  0  0
   36.2560   27.7460   31.9670 H   0  0  0  0  0  0  0  0  0  0  0  0
   34.2210   24.6590   29.9670 H   0  0  0  0  0  0  0  0  0  0  0  0
   41.4270   27.0490   33.9930 C   0  0  0  0  0  0  0  0  0  0  0  0
   41.8250   27.8600   33.3810 H   0  0  0  0  0  0  0  0  0  0  0  0
   42.2500   26.2420   34.4560 O   0  0  0  0  0  0  0  0  0  0  0  0
  1  2  1  0  0  0  0
  2  3  2  0  0  0  0
  2  7  1  0  0  0  0
  3  4  1  0  0  0  0
  4  8  1  0  0  0  0
  4  5  2  0  0  0  0
  5  9  1  0  0  0  0
  6  5  1  0  0  0  0
  6 10  1  0  0  0  0
  7  6  2  0  0  0  0
 11 12  1  0  0  0  0
 11 17  1  0  0  0  0
 12  3  1  0  0  0  0
 13 18  1  0  0  0  0
 13 12  2  0  0  0  0
 14 13  1  0  0  0  0
 15 14  2  0  0  0  0
 15 16  1  0  0  0  0
 16 11  2  0  0  0  0
 19 15  1  0  0  0  0
 20  7  1  0  0  0  0
 20 22  2  0  0  0  0
 21 20  1  0  0  0  0
M  END
>  <minimizedAffinity>
-4.03629398

$$$$

 OpenBabel03262521053D

 22 23  0  0  0  0  0  0  0  0999 V2000
   38.1210   22.6170   34.9970 Br  0  0  0  0  0  0  0  0  0  0  0  0
   38.1980   24.4950   35.2390 C   0  0  0  0  0  0  0  0  0  0  0  0
   38.2790   25.2290   34.0800 C   0  0  0  0  0  0  0  0  0  0  0  0
   38.3400   26.6310   34.1660 C   0  0  0  0  0  0  0  0  0  0  0  0
   38.3160   27.2420   35.4300 C   0  0  0  0  0  0  0  0  0  0  0  0
   38.2360   26.4330   36.5280 C   0  0  0  0  0  0  0  0  0  0  0  0
   38.1750   25.0660   36.4660 C   0  0  0  0  0  0  0  0  0  0  0  0
   38.4030   27.2810   33.3240 H   0  0  0  0  0  0  0  0  0  0  0  0
   38.3650   28.3290   35.4830 H   0  0  0  0  0  0  0  0  0  0  0  0
   38.2190   26.9150   37.4970 H   0  0  0  0  0  0  0  0  0  0  0  0
   37.1690   24.4900   31.9330 C   0  0  0  0  0  0  0  0  0  0  0  0
   38.3120   24.7510   32.6980 C   0  0  0  0  0  0  0  0  0  0  0  0
   39.5680   24.5420   32.1060 C   0  0  0  0  0  0  0  0  0  0  0  0
   39.5940   24.0910   30.8030 N   0  0  0  0  0  0  0  0  0  0  0  0
   38.4580   23.8570   30.1130 C   0  0  0  0  0  0  0  0  0  0  0  0
   37.2440   24.0550   30.6750 N   0  0  0  0  0  0  0  0  0  0  0  0
   36.2160   24.6680   32.4370 H   0  0  0  0  0  0  0  0  0  0  0  0
   40.4870   24.7190   32.6270 H   0  0  0  0  0  0  0  0  0  0  0  0
   38.5810   23.5000   29.0840 H   0  0  0  0  0  0  0  0  0  0  0  0
   38.0880   24.1980   37.6330 C   0  0  0  0  0  0  0  0  0  0  0  0
   38.0720   23.1080   37.5910 H   0  0  0  0  0  0  0  0  0  0  0  0
   38.0300   24.7150   38.7610 O   0  0  0  0  0  0  0  0  0  0  0  0
  1  2  1  0  0  0  0
  2  7  1  0  0  0  0
  3  4  1  0  0  0  0
  3  2  2  0  0  0  0
  4  5  2  0  0  0  0
  5  9  1  0  0  0  0
  5  6  1  0  0  0  0
  6 10  1  0  0  0  0
  7  6  2  0  0  0  0
  7 20  1  0  0  0  0
  8  4  1  0  0  0  0
 11 17  1  0  0  0  0
 11 12  1  0  0  0  0
 12  3  1  0  0  0  0
 13 18  1  0  0  0  0
 13 12  2  0  0  0  0
 14 13  1  0  0  0  0
 15 16  1  0  0  0  0
 15 14  2  0  0  0  0
 16 11  2  0  0  0  0
 19 15  1  0  0  0  0
 20 22  2  0  0  0  0
 21 20  1  0  0  0  0
M  END
>  <minimizedAffinity>
-4.01046705

$$$$
