
 OpenBabel03272504303D

 26 27  0  0  0  0  0  0  0  0999 V2000
   37.5310   30.8600   48.3490 N   0  0  0  0  0  0  0  0  0  0  0  0
   37.9770   31.7570   49.4050 C   0  0  0  0  0  0  0  0  0  0  0  0
   38.4660   33.0760   48.9150 C   0  0  0  0  0  0  0  0  0  0  0  0
   39.0710   33.1120   47.6400 N   0  0  0  0  0  0  0  0  0  0  0  0
   38.3800   32.2630   46.6610 C   0  0  0  0  0  0  0  0  0  0  0  0
   38.4350   30.8740   47.2490 C   0  0  0  0  0  0  0  0  0  0  0  0
   37.1150   31.8690   50.0910 H   0  0  0  0  0  0  0  0  0  0  0  0
   38.7900   31.2230   49.9400 H   0  0  0  0  0  0  0  0  0  0  0  0
   37.6210   33.7920   49.0050 H   0  0  0  0  0  0  0  0  0  0  0  0
   39.2260   33.4320   49.6670 H   0  0  0  0  0  0  0  0  0  0  0  0
   39.0080   34.0860   47.2660 H   0  0  0  0  0  0  0  0  0  0  0  0
   37.3480   32.5700   46.4850 H   0  0  0  0  0  0  0  0  0  0  0  0
   38.9550   32.2360   45.7290 H   0  0  0  0  0  0  0  0  0  0  0  0
   38.1520   30.1000   46.5100 H   0  0  0  0  0  0  0  0  0  0  0  0
   39.4880   30.6710   47.5490 H   0  0  0  0  0  0  0  0  0  0  0  0
   36.3310   30.0900   48.4520 C   0  0  0  0  0  0  0  0  0  0  0  0
   36.1090   29.1850   49.5030 C   0  0  0  0  0  0  0  0  0  0  0  0
   34.9020   28.4800   49.5140 C   0  0  0  0  0  0  0  0  0  0  0  0
   33.9990   28.6970   48.5140 N   0  0  0  0  0  0  0  0  0  0  0  0
   34.2690   29.5870   47.5190 C   0  0  0  0  0  0  0  0  0  0  0  0
   35.4090   30.2760   47.4780 N   0  0  0  0  0  0  0  0  0  0  0  0
   36.8650   29.0710   50.2500 H   0  0  0  0  0  0  0  0  0  0  0  0
   34.7000   27.7850   50.2970 H   0  0  0  0  0  0  0  0  0  0  0  0
   33.3090   29.8230   46.4490 C   0  0  0  0  0  0  0  0  0  0  0  0
   33.0280   29.1060   45.6930 H   0  0  0  0  0  0  0  0  0  0  0  0
   32.6960   30.9090   46.2910 O   0  0  0  0  0  0  0  0  0  0  0  0
  1 16  1  0  0  0  0
  1  2  1  0  0  0  0
  2  8  1  0  0  0  0
  2  7  1  0  0  0  0
  3  9  1  0  0  0  0
  3  2  1  0  0  0  0
  3 10  1  0  0  0  0
  4  3  1  0  0  0  0
  5  6  1  0  0  0  0
  5  4  1  0  0  0  0
  6 15  1  0  0  0  0
  6  1  1  0  0  0  0
 11  4  1  0  0  0  0
 12  5  1  0  0  0  0
 13  5  1  0  0  0  0
 14  6  1  0  0  0  0
 16 17  1  0  0  0  0
 17 18  2  0  0  0  0
 17 22  1  0  0  0  0
 18 23  1  0  0  0  0
 19 18  1  0  0  0  0
 20 19  2  0  0  0  0
 21 20  1  0  0  0  0
 21 16  2  0  0  0  0
 24 20  1  0  0  0  0
 25 24  1  0  0  0  0
 26 24  2  0  0  0  0
M  END
>  <minimizedAffinity>
-4.62580538

>  <minimizedRMSD>
3.08464694

$$$$
