
 OpenBabel03272509493D

 27 28  0  0  0  0  0  0  0  0999 V2000
   33.7240   28.5970   48.7120 C   0  0  0  0  0  0  0  0  0  0  0  0
   33.1920   29.5130   49.0340 H   0  0  0  0  0  0  0  0  0  0  0  0
   34.3450   28.8940   47.8240 H   0  0  0  0  0  0  0  0  0  0  0  0
   32.8140   27.4640   48.3460 C   0  0  0  0  0  0  0  0  0  0  0  0
   33.0470   27.0550   47.3220 H   0  0  0  0  0  0  0  0  0  0  0  0
   32.9500   26.6010   49.0330 H   0  0  0  0  0  0  0  0  0  0  0  0
   31.3750   27.8630   48.3490 C   0  0  0  0  0  0  0  0  0  0  0  0
   30.6990   27.7310   49.5350 C   0  0  0  0  0  0  0  0  0  0  0  0
   29.3680   28.0680   49.6610 C   0  0  0  0  0  0  0  0  0  0  0  0
   28.7210   28.5390   48.5800 N   0  0  0  0  0  0  0  0  0  0  0  0
   29.3920   28.6660   47.4170 C   0  0  0  0  0  0  0  0  0  0  0  0
   30.6920   28.3390   47.2910 N   0  0  0  0  0  0  0  0  0  0  0  0
   31.1670   27.3560   50.4440 H   0  0  0  0  0  0  0  0  0  0  0  0
   28.8170   27.9710   50.5870 H   0  0  0  0  0  0  0  0  0  0  0  0
   28.8370   29.0500   46.5680 H   0  0  0  0  0  0  0  0  0  0  0  0
   34.6440   28.2020   49.7200 O   0  0  0  0  0  0  0  0  0  0  0  0
   37.2380   30.1900   51.2800 C   0  0  0  0  0  0  0  0  0  0  0  0
   37.9030   30.6470   50.1240 C   0  0  0  0  0  0  0  0  0  0  0  0
   37.4250   30.2490   48.8880 C   0  0  0  0  0  0  0  0  0  0  0  0
   36.3290   29.4320   48.8990 N   0  0  0  0  0  0  0  0  0  0  0  0
   35.7140   29.0100   49.9990 C   0  0  0  0  0  0  0  0  0  0  0  0
   36.1790   29.3970   51.1950 N   0  0  0  0  0  0  0  0  0  0  0  0
   37.6160   30.5060   52.2560 H   0  0  0  0  0  0  0  0  0  0  0  0
   38.7560   31.2840   50.1480 H   0  0  0  0  0  0  0  0  0  0  0  0
   38.0590   30.6790   47.6320 C   0  0  0  0  0  0  0  0  0  0  0  0
   37.7780   30.1330   46.7410 H   0  0  0  0  0  0  0  0  0  0  0  0
   38.8700   31.6400   47.7010 O   0  0  0  0  0  0  0  0  0  0  0  0
  1  2  1  0  0  0  0
  1 16  1  0  0  0  0
  3  1  1  0  0  0  0
  4  7  1  0  0  0  0
  4  1  1  0  0  0  0
  4  6  1  0  0  0  0
  5  4  1  0  0  0  0
  7  8  1  0  0  0  0
  8  9  2  0  0  0  0
  8 13  1  0  0  0  0
  9 14  1  0  0  0  0
 10  9  1  0  0  0  0
 11 10  2  0  0  0  0
 12 11  1  0  0  0  0
 12  7  2  0  0  0  0
 15 11  1  0  0  0  0
 16 21  1  0  0  0  0
 17 23  1  0  0  0  0
 18 24  1  0  0  0  0
 18 17  2  0  0  0  0
 19 20  2  0  0  0  0
 19 18  1  0  0  0  0
 20 21  1  0  0  0  0
 21 22  2  0  0  0  0
 22 17  1  0  0  0  0
 25 27  2  0  0  0  0
 25 19  1  0  0  0  0
 26 25  1  0  0  0  0
M  END
>  <minimizedAffinity>
-4.73953295

>  <minimizedRMSD>
0.0674949214

$$$$
