
 OpenBabel03262521043D

 22 23  0  0  0  0  0  0  0  0999 V2000
   38.6720   32.4990   48.7790 Br  0  0  0  0  0  0  0  0  0  0  0  0
   38.0670   31.8450   47.1060 C   0  0  0  0  0  0  0  0  0  0  0  0
   37.0600   30.9130   47.1750 C   0  0  0  0  0  0  0  0  0  0  0  0
   36.5500   30.3740   45.9810 C   0  0  0  0  0  0  0  0  0  0  0  0
   37.0810   30.8010   44.7540 C   0  0  0  0  0  0  0  0  0  0  0  0
   38.0820   31.7310   44.7810 C   0  0  0  0  0  0  0  0  0  0  0  0
   38.5920   32.2690   45.9330 C   0  0  0  0  0  0  0  0  0  0  0  0
   35.7710   29.6480   45.9350 H   0  0  0  0  0  0  0  0  0  0  0  0
   36.6780   30.3750   43.8360 H   0  0  0  0  0  0  0  0  0  0  0  0
   38.4840   32.0530   43.8290 H   0  0  0  0  0  0  0  0  0  0  0  0
   37.0470   29.5690   49.3150 C   0  0  0  0  0  0  0  0  0  0  0  0
   36.4020   30.3670   48.3620 C   0  0  0  0  0  0  0  0  0  0  0  0
   35.0440   30.6650   48.5560 C   0  0  0  0  0  0  0  0  0  0  0  0
   34.4290   30.1480   49.6770 N   0  0  0  0  0  0  0  0  0  0  0  0
   35.1020   29.3830   50.5630 C   0  0  0  0  0  0  0  0  0  0  0  0
   36.4100   29.0910   50.3840 N   0  0  0  0  0  0  0  0  0  0  0  0
   38.1020   29.3650   49.1210 H   0  0  0  0  0  0  0  0  0  0  0  0
   34.4840   31.2680   47.8710 H   0  0  0  0  0  0  0  0  0  0  0  0
   34.5270   29.0190   51.4220 H   0  0  0  0  0  0  0  0  0  0  0  0
   39.6590   33.2610   45.9690 C   0  0  0  0  0  0  0  0  0  0  0  0
   40.1650   33.5900   46.8780 H   0  0  0  0  0  0  0  0  0  0  0  0
   40.0320   33.7790   44.9030 O   0  0  0  0  0  0  0  0  0  0  0  0
  2  3  1  0  0  0  0
  2  1  1  0  0  0  0
  3 12  1  0  0  0  0
  4  3  2  0  0  0  0
  5  6  2  0  0  0  0
  5  4  1  0  0  0  0
  6  7  1  0  0  0  0
  7 20  1  0  0  0  0
  7  2  2  0  0  0  0
  8  4  1  0  0  0  0
  9  5  1  0  0  0  0
 10  6  1  0  0  0  0
 11 16  1  0  0  0  0
 12 13  1  0  0  0  0
 12 11  2  0  0  0  0
 13 14  2  0  0  0  0
 14 15  1  0  0  0  0
 15 19  1  0  0  0  0
 16 15  2  0  0  0  0
 17 11  1  0  0  0  0
 18 13  1  0  0  0  0
 20 21  1  0  0  0  0
 22 20  2  0  0  0  0
M  END
>  <minimizedAffinity>
-4.68144989

>  <minimizedRMSD>
1.44650257

$$$$
