
 OpenBabel03262522073D

 34 36  0  0  1  0  0  0  0  0999 V2000
   38.7200   23.2410   36.1390 C   0  0  2  0  0  0  0  0  0  0  0  0
   38.1320   24.4340   36.8090 C   0  0  0  0  0  0  0  0  0  0  0  0
   38.0110   25.5190   35.8380 N   0  0  0  0  0  0  0  0  0  0  0  0
   37.5550   26.5850   34.9820 C   0  0  0  0  0  0  0  0  0  0  0  0
   36.5340   27.2840   34.8830 O   0  0  0  0  0  0  0  0  0  0  0  0
   38.7440   26.6170   34.1810 C   0  0  1  0  0  0  0  0  0  0  0  0
   39.3110   25.7100   35.2720 C   0  0  2  0  0  0  0  0  0  0  0  0
   39.6770   24.0160   34.7600 S   0  0  0  0  0  0  0  0  0  0  0  0
   37.0740   24.1600   37.0880 H   0  0  0  0  0  0  0  0  0  0  0  0
   38.6030   24.7450   37.7450 H   0  0  0  0  0  0  0  0  0  0  0  0
   39.3230   27.5640   34.2270 H   0  0  0  0  0  0  0  0  0  0  0  0
   40.0610   26.1650   35.9360 H   0  0  0  0  0  0  0  0  0  0  0  0
   37.7670   22.1930   35.6870 C   0  0  0  0  0  0  0  0  0  0  0  0
   38.3070   21.2700   35.4750 H   0  0  0  0  0  0  0  0  0  0  0  0
   36.9520   22.1060   36.4060 H   0  0  0  0  0  0  0  0  0  0  0  0
   37.3120   22.5440   34.7160 H   0  0  0  0  0  0  0  0  0  0  0  0
   39.8130   22.6620   37.0630 C   0  0  0  0  0  0  0  0  0  0  0  0
   40.0720   21.6400   36.7630 H   0  0  0  0  0  0  0  0  0  0  0  0
   40.6650   23.3580   37.0600 H   0  0  0  0  0  0  0  0  0  0  0  0
   39.3190   22.6270   38.3640 O   0  0  0  0  0  0  0  0  0  0  0  0
   39.1290   23.5250   38.7060 H   0  0  0  0  0  0  0  0  0  0  0  0
   38.6700   26.0350   32.8340 C   0  0  0  0  0  0  0  0  0  0  0  0
   39.7940   26.0280   32.2320 O   0  0  0  0  0  0  0  0  0  0  0  0
   37.4770   25.5180   32.2380 C   0  0  0  0  0  0  0  0  0  0  0  0
   36.6580   26.3800   31.5480 C   0  0  0  0  0  0  0  0  0  0  0  0
   35.4790   25.8490   30.9650 C   0  0  0  0  0  0  0  0  0  0  0  0
   35.2230   24.5240   31.1190 N   0  0  0  0  0  0  0  0  0  0  0  0
   36.0360   23.7170   31.7920 C   0  0  0  0  0  0  0  0  0  0  0  0
   37.1680   24.2050   32.3560 N   0  0  0  0  0  0  0  0  0  0  0  0
   36.8390   27.4400   31.4100 H   0  0  0  0  0  0  0  0  0  0  0  0
   34.8120   26.4860   30.4180 H   0  0  0  0  0  0  0  0  0  0  0  0
   35.7310   22.2880   31.9400 C   0  0  0  0  0  0  0  0  0  0  0  0
   35.7760   21.8420   32.9250 H   0  0  0  0  0  0  0  0  0  0  0  0
   35.4180   21.5940   30.9120 O   0  0  0  0  0  0  0  0  0  0  0  0
  1 13  1  6  0  0  0
  1  2  1  0  0  0  0
  1 17  1  0  0  0  0
  2  9  1  0  0  0  0
  2 10  1  0  0  0  0
  3  2  1  0  0  0  0
  4  3  1  0  0  0  0
  5  4  2  0  0  0  0
  6 11  1  6  0  0  0
  6  4  1  0  0  0  0
  6  7  1  0  0  0  0
  7  3  1  0  0  0  0
  7 12  1  1  0  0  0
  8  7  1  0  0  0  0
  8  1  1  0  0  0  0
 13 15  1  0  0  0  0
 14 13  1  0  0  0  0
 16 13  1  0  0  0  0
 17 20  1  0  0  0  0
 18 17  1  0  0  0  0
 19 17  1  0  0  0  0
 20 21  1  0  0  0  0
 22  6  1  0  0  0  0
 23 22  2  0  0  0  0
 24 29  1  0  0  0  0
 24 22  1  0  0  0  0
 25 24  2  0  0  0  0
 26 27  2  0  0  0  0
 26 25  1  0  0  0  0
 27 28  1  0  0  0  0
 28 32  1  0  0  0  0
 28 29  2  0  0  0  0
 30 25  1  0  0  0  0
 31 26  1  0  0  0  0
 32 33  1  0  0  0  0
 34 32  2  0  0  0  0
M  END
>  <minimizedAffinity>
-5.26677704

$$$$

 OpenBabel03262522073D

 34 36  0  0  1  0  0  0  0  0999 V2000
   38.2650   25.8730   34.7850 C   0  0  2  0  0  0  0  0  0  0  0  0
   37.2050   26.5650   34.0010 C   0  0  0  0  0  0  0  0  0  0  0  0
   36.8790   25.7620   32.8240 N   0  0  0  0  0  0  0  0  0  0  0  0
   36.2300   24.9940   31.7910 C   0  0  0  0  0  0  0  0  0  0  0  0
   35.0620   24.7760   31.4330 O   0  0  0  0  0  0  0  0  0  0  0  0
   37.4490   24.4920   31.2280 C   0  0  1  0  0  0  0  0  0  0  0  0
   38.1080   25.5340   32.1280 C   0  0  2  0  0  0  0  0  0  0  0  0
   39.1080   24.8710   33.4800 S   0  0  0  0  0  0  0  0  0  0  0  0
   36.2740   26.5580   34.6370 H   0  0  0  0  0  0  0  0  0  0  0  0
   37.3840   27.6170   33.7670 H   0  0  0  0  0  0  0  0  0  0  0  0
   37.6540   24.8040   30.1810 H   0  0  0  0  0  0  0  0  0  0  0  0
   38.5410   26.4080   31.6180 H   0  0  0  0  0  0  0  0  0  0  0  0
   37.8130   25.0710   35.9530 C   0  0  0  0  0  0  0  0  0  0  0  0
   38.6620   24.8490   36.6000 H   0  0  0  0  0  0  0  0  0  0  0  0
   36.9720   25.5700   36.4360 H   0  0  0  0  0  0  0  0  0  0  0  0
   37.4280   24.0860   35.5590 H   0  0  0  0  0  0  0  0  0  0  0  0
   39.3260   26.9200   35.1860 C   0  0  0  0  0  0  0  0  0  0  0  0
   40.2480   26.4290   35.5160 H   0  0  0  0  0  0  0  0  0  0  0  0
   39.4630   27.6070   34.3370 H   0  0  0  0  0  0  0  0  0  0  0  0
   38.8250   27.6750   36.2440 O   0  0  0  0  0  0  0  0  0  0  0  0
   38.0310   28.1850   35.9830 H   0  0  0  0  0  0  0  0  0  0  0  0
   37.7960   23.0910   31.5030 C   0  0  0  0  0  0  0  0  0  0  0  0
   38.9510   22.7690   31.0710 O   0  0  0  0  0  0  0  0  0  0  0  0
   36.9480   22.1640   32.1880 C   0  0  0  0  0  0  0  0  0  0  0  0
   36.0720   21.4030   31.4510 C   0  0  0  0  0  0  0  0  0  0  0  0
   35.2380   20.4910   32.1480 C   0  0  0  0  0  0  0  0  0  0  0  0
   35.3500   20.4190   33.5000 N   0  0  0  0  0  0  0  0  0  0  0  0
   36.2070   21.1690   34.1830 C   0  0  0  0  0  0  0  0  0  0  0  0
   37.0120   22.0460   33.5360 N   0  0  0  0  0  0  0  0  0  0  0  0
   35.9650   21.4410   30.3730 H   0  0  0  0  0  0  0  0  0  0  0  0
   34.5400   19.8780   31.6120 H   0  0  0  0  0  0  0  0  0  0  0  0
   36.3030   21.0670   35.6460 C   0  0  0  0  0  0  0  0  0  0  0  0
   37.2780   21.1210   36.1110 H   0  0  0  0  0  0  0  0  0  0  0  0
   35.2420   20.9170   36.3440 O   0  0  0  0  0  0  0  0  0  0  0  0
  1 17  1  1  0  0  0
  1 13  1  0  0  0  0
  2  9  1  0  0  0  0
  2  1  1  0  0  0  0
  3  2  1  0  0  0  0
  4  3  1  0  0  0  0
  5  4  2  0  0  0  0
  6 11  1  6  0  0  0
  6 22  1  0  0  0  0
  6  4  1  0  0  0  0
  6  7  1  0  0  0  0
  7 12  1  6  0  0  0
  7  3  1  0  0  0  0
  7  8  1  0  0  0  0
  8  1  1  0  0  0  0
 10  2  1  0  0  0  0
 13 15  1  0  0  0  0
 13 14  1  0  0  0  0
 16 13  1  0  0  0  0
 17 18  1  0  0  0  0
 17 20  1  0  0  0  0
 19 17  1  0  0  0  0
 21 20  1  0  0  0  0
 22 24  1  0  0  0  0
 23 22  2  0  0  0  0
 24 29  1  0  0  0  0
 25 26  1  0  0  0  0
 25 24  2  0  0  0  0
 26 27  2  0  0  0  0
 27 28  1  0  0  0  0
 28 32  1  0  0  0  0
 29 28  2  0  0  0  0
 30 25  1  0  0  0  0
 31 26  1  0  0  0  0
 32 33  1  0  0  0  0
 32 34  2  0  0  0  0
M  END
>  <minimizedAffinity>
-5.02782536

$$$$

 OpenBabel03262522073D

 34 36  0  0  1  0  0  0  0  0999 V2000
   38.8900   23.4910   36.0820 C   0  0  2  0  0  0  0  0  0  0  0  0
   39.8680   24.2920   35.2950 C   0  0  0  0  0  0  0  0  0  0  0  0
   39.4470   24.3220   33.8960 N   0  0  0  0  0  0  0  0  0  0  0  0
   39.0520   24.6990   32.5620 C   0  0  0  0  0  0  0  0  0  0  0  0
   39.0530   25.7390   31.8850 O   0  0  0  0  0  0  0  0  0  0  0  0
   38.6020   23.3890   32.1920 C   0  0  1  0  0  0  0  0  0  0  0  0
   39.2940   22.9600   33.4840 C   0  0  2  0  0  0  0  0  0  0  0  0
   38.1980   22.3630   34.7910 S   0  0  0  0  0  0  0  0  0  0  0  0
   39.7820   25.3560   35.6580 H   0  0  0  0  0  0  0  0  0  0  0  0
   40.9220   24.0310   35.4210 H   0  0  0  0  0  0  0  0  0  0  0  0
   39.1620   22.9100   31.3600 H   0  0  0  0  0  0  0  0  0  0  0  0
   40.2270   22.3870   33.3640 H   0  0  0  0  0  0  0  0  0  0  0  0
   37.8530   24.2510   36.8280 C   0  0  0  0  0  0  0  0  0  0  0  0
   37.3830   23.6060   37.5700 H   0  0  0  0  0  0  0  0  0  0  0  0
   38.2840   25.1760   37.2140 H   0  0  0  0  0  0  0  0  0  0  0  0
   37.0520   24.5460   36.0890 H   0  0  0  0  0  0  0  0  0  0  0  0
   39.6830   22.5440   37.0090 C   0  0  0  0  0  0  0  0  0  0  0  0
   39.5650   21.5020   36.6900 H   0  0  0  0  0  0  0  0  0  0  0  0
   40.7270   22.8890   37.0350 H   0  0  0  0  0  0  0  0  0  0  0  0
   39.1800   22.6680   38.3020 O   0  0  0  0  0  0  0  0  0  0  0  0
   39.3170   23.5690   38.6610 H   0  0  0  0  0  0  0  0  0  0  0  0
   37.1510   23.1620   32.1330 C   0  0  0  0  0  0  0  0  0  0  0  0
   36.4720   24.2150   32.3660 O   0  0  0  0  0  0  0  0  0  0  0  0
   36.5380   21.9020   31.8430 C   0  0  0  0  0  0  0  0  0  0  0  0
   35.3930   21.5540   32.5200 C   0  0  0  0  0  0  0  0  0  0  0  0
   34.8010   20.3010   32.2200 C   0  0  0  0  0  0  0  0  0  0  0  0
   35.3940   19.5150   31.2840 N   0  0  0  0  0  0  0  0  0  0  0  0
   36.5000   19.8810   30.6470 C   0  0  0  0  0  0  0  0  0  0  0  0
   37.0810   21.0740   30.9190 N   0  0  0  0  0  0  0  0  0  0  0  0
   34.9010   22.1630   33.2700 H   0  0  0  0  0  0  0  0  0  0  0  0
   33.9070   19.9900   32.7250 H   0  0  0  0  0  0  0  0  0  0  0  0
   37.1160   19.0070   29.6390 C   0  0  0  0  0  0  0  0  0  0  0  0
   37.9850   18.4230   29.9140 H   0  0  0  0  0  0  0  0  0  0  0  0
   36.6220   18.9470   28.4610 O   0  0  0  0  0  0  0  0  0  0  0  0
  1 13  1  1  0  0  0
  1 17  1  0  0  0  0
  2 10  1  0  0  0  0
  2  9  1  0  0  0  0
  2  1  1  0  0  0  0
  3  2  1  0  0  0  0
  4  3  1  0  0  0  0
  5  4  2  0  0  0  0
  6 11  1  6  0  0  0
  6  4  1  0  0  0  0
  6  7  1  0  0  0  0
  7 12  1  6  0  0  0
  7  3  1  0  0  0  0
  7  8  1  0  0  0  0
  8  1  1  0  0  0  0
 13 15  1  0  0  0  0
 13 14  1  0  0  0  0
 16 13  1  0  0  0  0
 17 19  1  0  0  0  0
 17 20  1  0  0  0  0
 18 17  1  0  0  0  0
 20 21  1  0  0  0  0
 22  6  1  0  0  0  0
 22 23  2  0  0  0  0
 24 22  1  0  0  0  0
 24 25  1  0  0  0  0
 25 30  1  0  0  0  0
 26 25  2  0  0  0  0
 26 31  1  0  0  0  0
 27 26  1  0  0  0  0
 28 29  1  0  0  0  0
 28 27  2  0  0  0  0
 29 24  2  0  0  0  0
 32 33  1  0  0  0  0
 32 28  1  0  0  0  0
 34 32  2  0  0  0  0
M  END
>  <minimizedAffinity>
-4.73634148

$$$$

 OpenBabel03262522073D

 34 36  0  0  1  0  0  0  0  0999 V2000
   36.9940   27.0050   31.6240 C   0  0  2  0  0  0  0  0  0  0  0  0
   35.8390   26.1910   31.1540 C   0  0  0  0  0  0  0  0  0  0  0  0
   36.1620   24.7730   31.2970 N   0  0  0  0  0  0  0  0  0  0  0  0
   36.1820   23.3690   31.6230 C   0  0  0  0  0  0  0  0  0  0  0  0
   35.3850   22.5460   32.0990 O   0  0  0  0  0  0  0  0  0  0  0  0
   37.5360   23.1640   31.1990 C   0  0  1  0  0  0  0  0  0  0  0  0
   37.3910   24.5590   30.5950 C   0  0  2  0  0  0  0  0  0  0  0  0
   38.4080   25.8450   31.3560 S   0  0  0  0  0  0  0  0  0  0  0  0
   34.9940   26.3810   31.8760 H   0  0  0  0  0  0  0  0  0  0  0  0
   35.4360   26.4440   30.1700 H   0  0  0  0  0  0  0  0  0  0  0  0
   37.6670   22.4640   30.3460 H   0  0  0  0  0  0  0  0  0  0  0  0
   37.3300   24.6060   29.4970 H   0  0  0  0  0  0  0  0  0  0  0  0
   36.9150   27.5380   33.0100 C   0  0  0  0  0  0  0  0  0  0  0  0
   37.6550   28.3270   33.1450 H   0  0  0  0  0  0  0  0  0  0  0  0
   35.8850   27.8160   33.2360 H   0  0  0  0  0  0  0  0  0  0  0  0
   37.1900   26.6980   33.7120 H   0  0  0  0  0  0  0  0  0  0  0  0
   37.2410   28.1270   30.5930 C   0  0  0  0  0  0  0  0  0  0  0  0
   36.8770   29.0890   30.9720 H   0  0  0  0  0  0  0  0  0  0  0  0
   38.3110   28.1240   30.3350 H   0  0  0  0  0  0  0  0  0  0  0  0
   36.5410   27.8200   29.4280 O   0  0  0  0  0  0  0  0  0  0  0  0
   36.8710   26.9970   29.0120 H   0  0  0  0  0  0  0  0  0  0  0  0
   38.5590   23.0180   32.2430 C   0  0  0  0  0  0  0  0  0  0  0  0
   39.7220   22.7870   31.7730 O   0  0  0  0  0  0  0  0  0  0  0  0
   38.3070   23.1250   33.6470 C   0  0  0  0  0  0  0  0  0  0  0  0
   38.0070   21.9840   34.3520 C   0  0  0  0  0  0  0  0  0  0  0  0
   37.7580   22.1100   35.7420 C   0  0  0  0  0  0  0  0  0  0  0  0
   37.8290   23.3470   36.3010 N   0  0  0  0  0  0  0  0  0  0  0  0
   38.1230   24.4300   35.5920 C   0  0  0  0  0  0  0  0  0  0  0  0
   38.3640   24.3310   34.2620 N   0  0  0  0  0  0  0  0  0  0  0  0
   37.9440   20.9870   33.9310 H   0  0  0  0  0  0  0  0  0  0  0  0
   37.5190   21.2450   36.3300 H   0  0  0  0  0  0  0  0  0  0  0  0
   38.1920   25.7540   36.2260 C   0  0  0  0  0  0  0  0  0  0  0  0
   37.5690   25.9540   37.0880 H   0  0  0  0  0  0  0  0  0  0  0  0
   38.9820   26.6440   35.7580 O   0  0  0  0  0  0  0  0  0  0  0  0
  1 17  1  6  0  0  0
  1 13  1  0  0  0  0
  2  3  1  0  0  0  0
  2  1  1  0  0  0  0
  2  9  1  0  0  0  0
  3  4  1  0  0  0  0
  4  5  2  0  0  0  0
  6 11  1  6  0  0  0
  6  4  1  0  0  0  0
  6 22  1  0  0  0  0
  7 12  1  6  0  0  0
  7  6  1  0  0  0  0
  7  3  1  0  0  0  0
  7  8  1  0  0  0  0
  8  1  1  0  0  0  0
 10  2  1  0  0  0  0
 13 14  1  0  0  0  0
 13 15  1  0  0  0  0
 13 16  1  0  0  0  0
 17 18  1  0  0  0  0
 19 17  1  0  0  0  0
 20 17  1  0  0  0  0
 21 20  1  0  0  0  0
 22 24  1  0  0  0  0
 23 22  2  0  0  0  0
 24 29  2  0  0  0  0
 24 25  1  0  0  0  0
 25 26  2  0  0  0  0
 26 27  1  0  0  0  0
 26 31  1  0  0  0  0
 28 32  1  0  0  0  0
 28 27  2  0  0  0  0
 29 28  1  0  0  0  0
 30 25  1  0  0  0  0
 32 33  1  0  0  0  0
 34 32  2  0  0  0  0
M  END
>  <minimizedAffinity>
-4.70802402

$$$$

 OpenBabel03262522073D

 34 36  0  0  1  0  0  0  0  0999 V2000
   38.8510   23.4250   36.0340 C   0  0  2  0  0  0  0  0  0  0  0  0
   38.4060   24.5800   36.8630 C   0  0  0  0  0  0  0  0  0  0  0  0
   38.5240   25.8070   36.0780 N   0  0  0  0  0  0  0  0  0  0  0  0
   38.2990   27.0530   35.3890 C   0  0  0  0  0  0  0  0  0  0  0  0
   37.4080   27.9150   35.3580 O   0  0  0  0  0  0  0  0  0  0  0  0
   39.5340   27.0140   34.6610 C   0  0  1  0  0  0  0  0  0  0  0  0
   39.8750   25.8690   35.6120 C   0  0  2  0  0  0  0  0  0  0  0  0
   40.0130   24.2370   34.8470 S   0  0  0  0  0  0  0  0  0  0  0  0
   37.3020   24.4420   37.0440 H   0  0  0  0  0  0  0  0  0  0  0  0
   38.8510   24.6610   37.8580 H   0  0  0  0  0  0  0  0  0  0  0  0
   40.2470   27.8350   34.8880 H   0  0  0  0  0  0  0  0  0  0  0  0
   40.6360   26.0870   36.3770 H   0  0  0  0  0  0  0  0  0  0  0  0
   37.7840   22.6290   35.3730 C   0  0  0  0  0  0  0  0  0  0  0  0
   38.1890   21.6740   35.0370 H   0  0  0  0  0  0  0  0  0  0  0  0
   36.9150   22.5660   36.0290 H   0  0  0  0  0  0  0  0  0  0  0  0
   37.4590   23.1950   34.4530 H   0  0  0  0  0  0  0  0  0  0  0  0
   39.7730   22.5400   36.9010 C   0  0  0  0  0  0  0  0  0  0  0  0
   39.7150   21.4930   36.5820 H   0  0  0  0  0  0  0  0  0  0  0  0
   40.7870   22.9640   36.8620 H   0  0  0  0  0  0  0  0  0  0  0  0
   39.3470   22.6220   38.2240 O   0  0  0  0  0  0  0  0  0  0  0  0
   39.4380   23.5300   38.5800 H   0  0  0  0  0  0  0  0  0  0  0  0
   39.4690   26.6660   33.2340 C   0  0  0  0  0  0  0  0  0  0  0  0
   40.6020   26.3410   32.7490 O   0  0  0  0  0  0  0  0  0  0  0  0
   38.2730   26.6790   32.4490 C   0  0  0  0  0  0  0  0  0  0  0  0
   37.5680   25.5080   32.3020 C   0  0  0  0  0  0  0  0  0  0  0  0
   36.3870   25.5390   31.5190 C   0  0  0  0  0  0  0  0  0  0  0  0
   36.0160   26.7200   30.9580 N   0  0  0  0  0  0  0  0  0  0  0  0
   36.7200   27.8350   31.1200 C   0  0  0  0  0  0  0  0  0  0  0  0
   37.8510   27.8250   31.8650 N   0  0  0  0  0  0  0  0  0  0  0  0
   37.8430   24.5540   32.7390 H   0  0  0  0  0  0  0  0  0  0  0  0
   35.8070   24.6480   31.3780 H   0  0  0  0  0  0  0  0  0  0  0  0
   36.2910   29.0960   30.5000 C   0  0  0  0  0  0  0  0  0  0  0  0
   36.3910   29.2130   29.4280 H   0  0  0  0  0  0  0  0  0  0  0  0
   35.8080   30.0310   31.2260 O   0  0  0  0  0  0  0  0  0  0  0  0
  1 13  1  6  0  0  0
  1  2  1  0  0  0  0
  1 17  1  0  0  0  0
  2  9  1  0  0  0  0
  2 10  1  0  0  0  0
  3  2  1  0  0  0  0
  4  3  1  0  0  0  0
  5  4  2  0  0  0  0
  6 11  1  1  0  0  0
  6  4  1  0  0  0  0
  6  7  1  0  0  0  0
  7  3  1  0  0  0  0
  7 12  1  1  0  0  0
  8  7  1  0  0  0  0
  8  1  1  0  0  0  0
 13 15  1  0  0  0  0
 14 13  1  0  0  0  0
 16 13  1  0  0  0  0
 17 20  1  0  0  0  0
 18 17  1  0  0  0  0
 19 17  1  0  0  0  0
 20 21  1  0  0  0  0
 22  6  1  0  0  0  0
 23 22  2  0  0  0  0
 24 22  1  0  0  0  0
 25 24  1  0  0  0  0
 25 30  1  0  0  0  0
 26 25  2  0  0  0  0
 27 28  2  0  0  0  0
 27 26  1  0  0  0  0
 28 29  1  0  0  0  0
 29 24  2  0  0  0  0
 31 26  1  0  0  0  0
 32 28  1  0  0  0  0
 32 34  2  0  0  0  0
 33 32  1  0  0  0  0
M  END
>  <minimizedAffinity>
-4.69686174

$$$$

 OpenBabel03262522073D

 34 36  0  0  1  0  0  0  0  0999 V2000
   38.9920   23.7480   36.4030 C   0  0  2  0  0  0  0  0  0  0  0  0
   40.2140   23.7890   35.5520 C   0  0  0  0  0  0  0  0  0  0  0  0
   39.8440   23.4990   34.1680 N   0  0  0  0  0  0  0  0  0  0  0  0
   39.6410   23.5200   32.7410 C   0  0  0  0  0  0  0  0  0  0  0  0
   40.0700   24.1790   31.7820 O   0  0  0  0  0  0  0  0  0  0  0  0
   38.6920   22.4440   32.7370 C   0  0  1  0  0  0  0  0  0  0  0  0
   39.1450   22.2500   34.1820 C   0  0  2  0  0  0  0  0  0  0  0  0
   37.8990   22.6080   35.4420 S   0  0  0  0  0  0  0  0  0  0  0  0
   40.5720   24.8570   35.5500 H   0  0  0  0  0  0  0  0  0  0  0  0
   41.0670   23.2010   35.9010 H   0  0  0  0  0  0  0  0  0  0  0  0
   39.0080   21.5340   32.1830 H   0  0  0  0  0  0  0  0  0  0  0  0
   39.7600   21.3590   34.3800 H   0  0  0  0  0  0  0  0  0  0  0  0
   38.3580   25.0550   36.7200 C   0  0  0  0  0  0  0  0  0  0  0  0
   37.6630   24.9360   37.5520 H   0  0  0  0  0  0  0  0  0  0  0  0
   39.1300   25.8130   36.8570 H   0  0  0  0  0  0  0  0  0  0  0  0
   37.7500   25.3650   35.8210 H   0  0  0  0  0  0  0  0  0  0  0  0
   39.3240   22.9470   37.6800 C   0  0  0  0  0  0  0  0  0  0  0  0
   39.6030   21.9180   37.4300 H   0  0  0  0  0  0  0  0  0  0  0  0
   40.0970   23.4980   38.2360 H   0  0  0  0  0  0  0  0  0  0  0  0
   38.1890   22.9120   38.4870 O   0  0  0  0  0  0  0  0  0  0  0  0
   37.9310   23.8070   38.7920 H   0  0  0  0  0  0  0  0  0  0  0  0
   37.2770   22.7890   32.5470 C   0  0  0  0  0  0  0  0  0  0  0  0
   36.4970   21.7900   32.6850 O   0  0  0  0  0  0  0  0  0  0  0  0
   36.7950   24.1020   32.2430 C   0  0  0  0  0  0  0  0  0  0  0  0
   35.9470   24.2620   31.1720 C   0  0  0  0  0  0  0  0  0  0  0  0
   35.4820   25.5700   30.8860 C   0  0  0  0  0  0  0  0  0  0  0  0
   35.8960   26.5910   31.6820 N   0  0  0  0  0  0  0  0  0  0  0  0
   36.7150   26.4020   32.7100 C   0  0  0  0  0  0  0  0  0  0  0  0
   37.1710   25.1600   33.0000 N   0  0  0  0  0  0  0  0  0  0  0  0
   35.6030   23.4640   30.5230 H   0  0  0  0  0  0  0  0  0  0  0  0
   34.8200   25.7400   30.0590 H   0  0  0  0  0  0  0  0  0  0  0  0
   37.1440   27.5280   33.5510 C   0  0  0  0  0  0  0  0  0  0  0  0
   38.1690   27.8690   33.4850 H   0  0  0  0  0  0  0  0  0  0  0  0
   36.3080   28.0860   34.3420 O   0  0  0  0  0  0  0  0  0  0  0  0
  1 13  1  1  0  0  0
  1 17  1  0  0  0  0
  2 10  1  0  0  0  0
  2  1  1  0  0  0  0
  3  7  1  0  0  0  0
  3  2  1  0  0  0  0
  4  3  1  0  0  0  0
  5  4  2  0  0  0  0
  6 11  1  6  0  0  0
  6  4  1  0  0  0  0
  6  7  1  0  0  0  0
  7 12  1  1  0  0  0
  7  8  1  0  0  0  0
  8  1  1  0  0  0  0
  9  2  1  0  0  0  0
 13 15  1  0  0  0  0
 13 14  1  0  0  0  0
 16 13  1  0  0  0  0
 17 19  1  0  0  0  0
 17 20  1  0  0  0  0
 18 17  1  0  0  0  0
 20 21  1  0  0  0  0
 22 23  2  0  0  0  0
 22  6  1  0  0  0  0
 24 22  1  0  0  0  0
 24 29  1  0  0  0  0
 25 24  2  0  0  0  0
 26 25  1  0  0  0  0
 26 27  2  0  0  0  0
 27 28  1  0  0  0  0
 28 29  2  0  0  0  0
 28 32  1  0  0  0  0
 30 25  1  0  0  0  0
 31 26  1  0  0  0  0
 32 34  2  0  0  0  0
 33 32  1  0  0  0  0
M  END
>  <minimizedAffinity>
-4.6753788

$$$$

 OpenBabel03262522073D

 34 36  0  0  1  0  0  0  0  0999 V2000
   38.4020   26.5610   34.0290 C   0  0  2  0  0  0  0  0  0  0  0  0
   39.5270   26.6680   33.0590 C   0  0  0  0  0  0  0  0  0  0  0  0
   39.2930   25.7430   31.9510 N   0  0  0  0  0  0  0  0  0  0  0  0
   39.1000   25.1230   30.6640 C   0  0  0  0  0  0  0  0  0  0  0  0
   39.2620   25.4470   29.4770 O   0  0  0  0  0  0  0  0  0  0  0  0
   38.6110   23.8850   31.1960 C   0  0  1  0  0  0  0  0  0  0  0  0
   39.0990   24.4490   32.5290 C   0  0  2  0  0  0  0  0  0  0  0  0
   37.8050   24.8380   33.7290 S   0  0  0  0  0  0  0  0  0  0  0  0
   39.4690   27.6990   32.6080 H   0  0  0  0  0  0  0  0  0  0  0  0
   40.5350   26.5930   33.4750 H   0  0  0  0  0  0  0  0  0  0  0  0
   39.2390   22.9940   30.9830 H   0  0  0  0  0  0  0  0  0  0  0  0
   39.9970   23.9740   32.9540 H   0  0  0  0  0  0  0  0  0  0  0  0
   37.3320   27.5890   33.9250 C   0  0  0  0  0  0  0  0  0  0  0  0
   36.7270   27.5860   34.8310 H   0  0  0  0  0  0  0  0  0  0  0  0
   37.7740   28.5500   33.6570 H   0  0  0  0  0  0  0  0  0  0  0  0
   36.6570   27.2900   33.0720 H   0  0  0  0  0  0  0  0  0  0  0  0
   39.0000   26.5000   35.4510 C   0  0  0  0  0  0  0  0  0  0  0  0
   38.5490   25.6820   36.0250 H   0  0  0  0  0  0  0  0  0  0  0  0
   40.0940   26.4300   35.3580 H   0  0  0  0  0  0  0  0  0  0  0  0
   38.7210   27.7000   36.1000 O   0  0  0  0  0  0  0  0  0  0  0  0
   39.1550   28.4600   35.6610 H   0  0  0  0  0  0  0  0  0  0  0  0
   37.1680   23.6270   31.0970 C   0  0  0  0  0  0  0  0  0  0  0  0
   36.4910   24.6760   30.8370 O   0  0  0  0  0  0  0  0  0  0  0  0
   36.5590   22.3430   31.2650 C   0  0  0  0  0  0  0  0  0  0  0  0
   35.4960   22.2260   32.1280 C   0  0  0  0  0  0  0  0  0  0  0  0
   34.9070   20.9450   32.2830 C   0  0  0  0  0  0  0  0  0  0  0  0
   35.4220   19.9080   31.5730 N   0  0  0  0  0  0  0  0  0  0  0  0
   36.4510   20.0550   30.7460 C   0  0  0  0  0  0  0  0  0  0  0  0
   37.0280   21.2710   30.5840 N   0  0  0  0  0  0  0  0  0  0  0  0
   35.0660   23.0370   32.7050 H   0  0  0  0  0  0  0  0  0  0  0  0
   34.0750   20.8090   32.9460 H   0  0  0  0  0  0  0  0  0  0  0  0
   36.9850   18.9120   29.9920 C   0  0  0  0  0  0  0  0  0  0  0  0
   37.5200   18.1380   30.5260 H   0  0  0  0  0  0  0  0  0  0  0  0
   36.8120   18.8480   28.7270 O   0  0  0  0  0  0  0  0  0  0  0  0
  1 13  1  6  0  0  0
  1 17  1  0  0  0  0
  2 10  1  0  0  0  0
  2  1  1  0  0  0  0
  3  7  1  0  0  0  0
  3  2  1  0  0  0  0
  4  6  1  0  0  0  0
  4  3  1  0  0  0  0
  5  4  2  0  0  0  0
  6 11  1  6  0  0  0
  6  7  1  0  0  0  0
  7 12  1  1  0  0  0
  7  8  1  0  0  0  0
  8  1  1  0  0  0  0
  9  2  1  0  0  0  0
 13 14  1  0  0  0  0
 15 13  1  0  0  0  0
 16 13  1  0  0  0  0
 17 18  1  0  0  0  0
 17 20  1  0  0  0  0
 19 17  1  0  0  0  0
 21 20  1  0  0  0  0
 22  6  1  0  0  0  0
 22 24  1  0  0  0  0
 23 22  2  0  0  0  0
 24 25  1  0  0  0  0
 25 26  2  0  0  0  0
 25 30  1  0  0  0  0
 26 31  1  0  0  0  0
 27 26  1  0  0  0  0
 28 27  2  0  0  0  0
 29 28  1  0  0  0  0
 29 24  2  0  0  0  0
 32 33  1  0  0  0  0
 32 28  1  0  0  0  0
 34 32  2  0  0  0  0
M  END
>  <minimizedAffinity>
-4.46392059

$$$$

 OpenBabel03262522073D

 34 36  0  0  1  0  0  0  0  0999 V2000
   39.3390   25.7870   31.1620 C   0  0  2  0  0  0  0  0  0  0  0  0
   40.7540   25.7210   31.6220 C   0  0  0  0  0  0  0  0  0  0  0  0
   40.7940   25.8950   33.0730 N   0  0  0  0  0  0  0  0  0  0  0  0
   41.0090   25.7610   34.4920 C   0  0  0  0  0  0  0  0  0  0  0  0
   41.7010   25.0450   35.2330 O   0  0  0  0  0  0  0  0  0  0  0  0
   40.0920   26.8020   34.8540 C   0  0  1  0  0  0  0  0  0  0  0  0
   40.1100   27.1180   33.3600 C   0  0  2  0  0  0  0  0  0  0  0  0
   38.5580   26.8160   32.4840 S   0  0  0  0  0  0  0  0  0  0  0  0
   41.1070   24.6680   31.4360 H   0  0  0  0  0  0  0  0  0  0  0  0
   41.4660   26.3600   31.0930 H   0  0  0  0  0  0  0  0  0  0  0  0
   40.5450   27.6780   35.3660 H   0  0  0  0  0  0  0  0  0  0  0  0
   40.6340   28.0410   33.0680 H   0  0  0  0  0  0  0  0  0  0  0  0
   38.6520   24.4880   30.9340 C   0  0  0  0  0  0  0  0  0  0  0  0
   37.7470   24.6470   30.3470 H   0  0  0  0  0  0  0  0  0  0  0  0
   39.3590   23.7680   30.5220 H   0  0  0  0  0  0  0  0  0  0  0  0
   38.3310   24.0930   31.9410 H   0  0  0  0  0  0  0  0  0  0  0  0
   39.2830   26.6910   29.9120 C   0  0  0  0  0  0  0  0  0  0  0  0
   39.9350   27.5640   30.0370 H   0  0  0  0  0  0  0  0  0  0  0  0
   39.5260   26.0740   29.0340 H   0  0  0  0  0  0  0  0  0  0  0  0
   37.9750   27.1380   29.7470 O   0  0  0  0  0  0  0  0  0  0  0  0
   37.3570   26.3980   29.5700 H   0  0  0  0  0  0  0  0  0  0  0  0
   38.7940   26.3990   35.4110 C   0  0  0  0  0  0  0  0  0  0  0  0
   38.0160   27.3860   35.6260 O   0  0  0  0  0  0  0  0  0  0  0  0
   38.4130   25.0480   35.6880 C   0  0  0  0  0  0  0  0  0  0  0  0
   38.2090   24.6750   36.9960 C   0  0  0  0  0  0  0  0  0  0  0  0
   37.8340   23.3320   37.2500 C   0  0  0  0  0  0  0  0  0  0  0  0
   37.6980   22.4880   36.1940 N   0  0  0  0  0  0  0  0  0  0  0  0
   37.9020   22.8800   34.9410 C   0  0  0  0  0  0  0  0  0  0  0  0
   38.2610   24.1600   34.6770 N   0  0  0  0  0  0  0  0  0  0  0  0
   38.3100   25.3290   37.8550 H   0  0  0  0  0  0  0  0  0  0  0  0
   37.6650   22.9990   38.2560 H   0  0  0  0  0  0  0  0  0  0  0  0
   37.7460   21.9430   33.8210 C   0  0  0  0  0  0  0  0  0  0  0  0
   38.5240   21.8910   33.0700 H   0  0  0  0  0  0  0  0  0  0  0  0
   36.7030   21.2060   33.7470 O   0  0  0  0  0  0  0  0  0  0  0  0
  1 17  1  6  0  0  0
  1  2  1  0  0  0  0
  1  8  1  0  0  0  0
  2  3  1  0  0  0  0
  3  7  1  0  0  0  0
  3  4  1  0  0  0  0
  4  6  1  0  0  0  0
  4  5  2  0  0  0  0
  6 11  1  1  0  0  0
  6 22  1  0  0  0  0
  7 12  1  6  0  0  0
  7  6  1  0  0  0  0
  8  7  1  0  0  0  0
  9  2  1  0  0  0  0
 10  2  1  0  0  0  0
 13  1  1  0  0  0  0
 13 16  1  0  0  0  0
 14 13  1  0  0  0  0
 15 13  1  0  0  0  0
 17 18  1  0  0  0  0
 19 17  1  0  0  0  0
 20 17  1  0  0  0  0
 21 20  1  0  0  0  0
 22 23  2  0  0  0  0
 22 24  1  0  0  0  0
 24 25  1  0  0  0  0
 25 26  2  0  0  0  0
 25 30  1  0  0  0  0
 26 31  1  0  0  0  0
 27 26  1  0  0  0  0
 28 27  2  0  0  0  0
 29 28  1  0  0  0  0
 29 24  2  0  0  0  0
 32 28  1  0  0  0  0
 33 32  1  0  0  0  0
 34 32  2  0  0  0  0
M  END
>  <minimizedAffinity>
-4.45880842

$$$$

 OpenBabel03262522073D

 34 36  0  0  1  0  0  0  0  0999 V2000
   35.7280   20.5000   32.6670 C   0  0  2  0  0  0  0  0  0  0  0  0
   36.8940   19.7740   32.0910 C   0  0  0  0  0  0  0  0  0  0  0  0
   37.9540   20.7340   31.7890 N   0  0  0  0  0  0  0  0  0  0  0  0
   39.1920   21.4660   31.6950 C   0  0  0  0  0  0  0  0  0  0  0  0
   40.3820   21.2620   31.9850 O   0  0  0  0  0  0  0  0  0  0  0  0
   38.6000   22.6330   31.1080 C   0  0  1  0  0  0  0  0  0  0  0  0
   37.3750   21.7350   30.9470 C   0  0  2  0  0  0  0  0  0  0  0  0
   35.9420   22.1900   31.9490 S   0  0  0  0  0  0  0  0  0  0  0  0
   37.3050   19.1190   32.9110 H   0  0  0  0  0  0  0  0  0  0  0  0
   36.6800   19.0950   31.2620 H   0  0  0  0  0  0  0  0  0  0  0  0
   38.9480   22.8770   30.0810 H   0  0  0  0  0  0  0  0  0  0  0  0
   37.1400   21.4190   29.9190 H   0  0  0  0  0  0  0  0  0  0  0  0
   35.6050   20.4930   34.1490 C   0  0  0  0  0  0  0  0  0  0  0  0
   34.6000   20.7990   34.4380 H   0  0  0  0  0  0  0  0  0  0  0  0
   35.9330   19.5290   34.5390 H   0  0  0  0  0  0  0  0  0  0  0  0
   36.3180   21.2700   34.5520 H   0  0  0  0  0  0  0  0  0  0  0  0
   34.4490   19.9710   31.9840 C   0  0  0  0  0  0  0  0  0  0  0  0
   33.5570   20.2840   32.5380 H   0  0  0  0  0  0  0  0  0  0  0  0
   34.4620   20.3010   30.9350 H   0  0  0  0  0  0  0  0  0  0  0  0
   34.4960   18.5790   31.9740 O   0  0  0  0  0  0  0  0  0  0  0  0
   35.2440   18.2440   31.4380 H   0  0  0  0  0  0  0  0  0  0  0  0
   38.4260   23.8110   31.9680 C   0  0  0  0  0  0  0  0  0  0  0  0
   37.8240   24.7700   31.3840 O   0  0  0  0  0  0  0  0  0  0  0  0
   38.8710   23.8980   33.3260 C   0  0  0  0  0  0  0  0  0  0  0  0
   40.0990   24.4610   33.5820 C   0  0  0  0  0  0  0  0  0  0  0  0
   40.5240   24.5370   34.9330 C   0  0  0  0  0  0  0  0  0  0  0  0
   39.6990   24.0510   35.8970 N   0  0  0  0  0  0  0  0  0  0  0  0
   38.5180   23.5130   35.6160 C   0  0  0  0  0  0  0  0  0  0  0  0
   38.0940   23.4310   34.3310 N   0  0  0  0  0  0  0  0  0  0  0  0
   40.7750   24.8560   32.8320 H   0  0  0  0  0  0  0  0  0  0  0  0
   41.4750   24.9690   35.1770 H   0  0  0  0  0  0  0  0  0  0  0  0
   37.6490   22.9960   36.6820 C   0  0  0  0  0  0  0  0  0  0  0  0
   37.1070   22.0750   36.5150 H   0  0  0  0  0  0  0  0  0  0  0  0
   37.5460   23.6360   37.7850 O   0  0  0  0  0  0  0  0  0  0  0  0
  1 17  1  6  0  0  0
  1 13  1  0  0  0  0
  2  1  1  0  0  0  0
  2  9  1  0  0  0  0
  3  2  1  0  0  0  0
  4  3  1  0  0  0  0
  4  5  2  0  0  0  0
  6 11  1  6  0  0  0
  6  4  1  0  0  0  0
  6 22  1  0  0  0  0
  7 12  1  6  0  0  0
  7  6  1  0  0  0  0
  7  3  1  0  0  0  0
  7  8  1  0  0  0  0
  8  1  1  0  0  0  0
 10  2  1  0  0  0  0
 13 14  1  0  0  0  0
 13 15  1  0  0  0  0
 13 16  1  0  0  0  0
 17 18  1  0  0  0  0
 19 17  1  0  0  0  0
 20 17  1  0  0  0  0
 21 20  1  0  0  0  0
 22 24  1  0  0  0  0
 23 22  2  0  0  0  0
 24 25  2  0  0  0  0
 24 29  1  0  0  0  0
 25 26  1  0  0  0  0
 26 31  1  0  0  0  0
 26 27  2  0  0  0  0
 28 27  1  0  0  0  0
 28 32  1  0  0  0  0
 29 28  2  0  0  0  0
 30 25  1  0  0  0  0
 32 34  2  0  0  0  0
 33 32  1  0  0  0  0
M  END
>  <minimizedAffinity>
-4.44985485

$$$$
