
 OpenBabel03272510163D

 22 23  0  0  0  0  0  0  0  0999 V2000
   37.2690   29.3420   51.0510 Br  0  0  0  0  0  0  0  0  0  0  0  0
   35.9560   29.3150   49.6750 C   0  0  0  0  0  0  0  0  0  0  0  0
   35.9960   30.2180   48.6330 C   0  0  0  0  0  0  0  0  0  0  0  0
   35.0010   30.1320   47.6690 C   0  0  0  0  0  0  0  0  0  0  0  0
   33.9880   29.1950   47.7050 C   0  0  0  0  0  0  0  0  0  0  0  0
   33.9810   28.3080   48.7620 C   0  0  0  0  0  0  0  0  0  0  0  0
   34.9600   28.3780   49.7280 C   0  0  0  0  0  0  0  0  0  0  0  0
   35.0770   30.8580   46.8790 H   0  0  0  0  0  0  0  0  0  0  0  0
   33.1980   27.5630   48.8150 H   0  0  0  0  0  0  0  0  0  0  0  0
   34.9460   27.6760   50.5550 H   0  0  0  0  0  0  0  0  0  0  0  0
   37.9780   33.1680   49.4360 C   0  0  0  0  0  0  0  0  0  0  0  0
   39.0160   33.1640   48.4700 C   0  0  0  0  0  0  0  0  0  0  0  0
   39.0040   32.1250   47.5490 C   0  0  0  0  0  0  0  0  0  0  0  0
   38.0210   31.1730   47.6080 N   0  0  0  0  0  0  0  0  0  0  0  0
   37.0430   31.2200   48.5570 C   0  0  0  0  0  0  0  0  0  0  0  0
   37.0400   32.2170   49.4540 N   0  0  0  0  0  0  0  0  0  0  0  0
   37.8990   33.9480   50.2090 H   0  0  0  0  0  0  0  0  0  0  0  0
   39.7390   33.9540   48.5050 H   0  0  0  0  0  0  0  0  0  0  0  0
   39.7830   32.0990   46.8020 H   0  0  0  0  0  0  0  0  0  0  0  0
   32.9710   29.1650   46.6500 C   0  0  0  0  0  0  0  0  0  0  0  0
   33.2390   29.6070   45.6980 H   0  0  0  0  0  0  0  0  0  0  0  0
   31.8780   28.6140   46.9860 O   0  0  0  0  0  0  0  0  0  0  0  0
  2  7  1  0  0  0  0
  2  1  1  0  0  0  0
  3  2  2  0  0  0  0
  4  5  2  0  0  0  0
  4  3  1  0  0  0  0
  5  6  1  0  0  0  0
  6  9  1  0  0  0  0
  6  7  2  0  0  0  0
  7 10  1  0  0  0  0
  8  4  1  0  0  0  0
 11 16  1  0  0  0  0
 11 17  1  0  0  0  0
 12 18  1  0  0  0  0
 12 11  2  0  0  0  0
 13 14  2  0  0  0  0
 13 12  1  0  0  0  0
 14 15  1  0  0  0  0
 15  3  1  0  0  0  0
 15 16  2  0  0  0  0
 19 13  1  0  0  0  0
 20 22  2  0  0  0  0
 20  5  1  0  0  0  0
 21 20  1  0  0  0  0
M  END
>  <minimizedAffinity>
-5.44727278

>  <minimizedRMSD>
0.0342481658

$$$$
