
 OpenBabel03272507063D

 33 36  0  0  0  0  0  0  0  0999 V2000
   38.5080   32.5050   48.8390 C   0  0  0  0  0  0  0  0  0  0  0  0
   39.0890   32.6360   47.5720 C   0  0  0  0  0  0  0  0  0  0  0  0
   38.5420   31.8730   46.5420 C   0  0  0  0  0  0  0  0  0  0  0  0
   37.4950   31.0520   46.8130 N   0  0  0  0  0  0  0  0  0  0  0  0
   36.9620   30.9500   48.0450 C   0  0  0  0  0  0  0  0  0  0  0  0
   37.4720   31.6790   49.0580 N   0  0  0  0  0  0  0  0  0  0  0  0
   38.9510   33.1110   49.6300 H   0  0  0  0  0  0  0  0  0  0  0  0
   39.9220   33.2820   47.3320 H   0  0  0  0  0  0  0  0  0  0  0  0
   35.8890   29.1350   49.2970 C   0  0  0  0  0  0  0  0  0  0  0  0
   35.8350   30.0460   48.2580 C   0  0  0  0  0  0  0  0  0  0  0  0
   34.7370   30.0950   47.4440 C   0  0  0  0  0  0  0  0  0  0  0  0
   33.6750   29.2490   47.6370 C   0  0  0  0  0  0  0  0  0  0  0  0
   32.4930   29.1010   46.9810 N   0  0  0  0  0  0  0  0  0  0  0  0
   31.8740   28.0880   47.6660 C   0  0  0  0  0  0  0  0  0  0  0  0
   32.6330   27.6500   48.6730 N   0  0  0  0  0  0  0  0  0  0  0  0
   33.7750   28.3590   48.6860 C   0  0  0  0  0  0  0  0  0  0  0  0
   34.8410   28.2660   49.5270 C   0  0  0  0  0  0  0  0  0  0  0  0
   36.7770   29.1330   49.9140 H   0  0  0  0  0  0  0  0  0  0  0  0
   34.6790   30.7960   46.6330 H   0  0  0  0  0  0  0  0  0  0  0  0
   32.1330   29.6270   46.1540 H   0  0  0  0  0  0  0  0  0  0  0  0
   30.8910   27.6740   47.4400 H   0  0  0  0  0  0  0  0  0  0  0  0
   34.8810   27.5400   50.3510 H   0  0  0  0  0  0  0  0  0  0  0  0
   39.0190   31.8850   45.1680 C   0  0  0  0  0  0  0  0  0  0  0  0
   39.0230   33.0130   44.3710 C   0  0  0  0  0  0  0  0  0  0  0  0
   39.4730   33.0410   43.0650 C   0  0  0  0  0  0  0  0  0  0  0  0
   39.9340   31.8890   42.5490 N   0  0  0  0  0  0  0  0  0  0  0  0
   39.9390   30.7960   43.2950 C   0  0  0  0  0  0  0  0  0  0  0  0
   39.5030   30.7990   44.5420 N   0  0  0  0  0  0  0  0  0  0  0  0
   38.6510   33.9540   44.7830 H   0  0  0  0  0  0  0  0  0  0  0  0
   39.4700   33.9330   42.4560 H   0  0  0  0  0  0  0  0  0  0  0  0
   40.4310   29.5240   42.7750 C   0  0  0  0  0  0  0  0  0  0  0  0
   39.9020   28.5800   42.7630 H   0  0  0  0  0  0  0  0  0  0  0  0
   41.5730   29.3670   42.2590 O   0  0  0  0  0  0  0  0  0  0  0  0
  1  6  1  0  0  0  0
  1  7  1  0  0  0  0
  2  1  2  0  0  0  0
  3  4  2  0  0  0  0
  3  2  1  0  0  0  0
  4  5  1  0  0  0  0
  5 10  1  0  0  0  0
  5  6  2  0  0  0  0
  8  2  1  0  0  0  0
  9 17  1  0  0  0  0
  9 18  1  0  0  0  0
 10  9  2  0  0  0  0
 11 12  2  0  0  0  0
 11 10  1  0  0  0  0
 12 16  1  0  0  0  0
 13 12  1  0  0  0  0
 13 14  1  0  0  0  0
 14 15  2  0  0  0  0
 15 16  1  0  0  0  0
 16 17  2  0  0  0  0
 17 22  1  0  0  0  0
 19 11  1  0  0  0  0
 20 13  1  0  0  0  0
 21 14  1  0  0  0  0
 23  3  1  0  0  0  0
 24 29  1  0  0  0  0
 24 23  2  0  0  0  0
 25 24  1  0  0  0  0
 26 25  2  0  0  0  0
 26 27  1  0  0  0  0
 27 28  2  0  0  0  0
 28 23  1  0  0  0  0
 30 25  1  0  0  0  0
 31 27  1  0  0  0  0
 32 31  1  0  0  0  0
 33 31  2  0  0  0  0
M  END
>  <minimizedAffinity>
-6.62489939

>  <minimizedRMSD>
0.901311576

$$$$
