
 OpenBabel03272506463D

 36 38  0  0  1  0  0  0  0  0999 V2000
   32.1670   28.5300   47.4370 C   0  0  2  0  0  0  0  0  0  0  0  0
   33.4170   28.3440   48.2460 C   0  0  1  0  0  0  0  0  0  0  0  0
   33.8010   27.0420   48.1340 O   0  0  0  0  0  0  0  0  0  0  0  0
   33.0780   26.4370   47.1130 C   0  0  0  0  0  0  0  0  0  0  0  0
   32.4780   27.5370   46.2740 C   0  0  1  0  0  0  0  0  0  0  0  0
   31.2440   28.1920   47.8970 H   0  0  0  0  0  0  0  0  0  0  0  0
   33.3020   28.6070   49.3160 H   0  0  0  0  0  0  0  0  0  0  0  0
   32.3830   25.7550   47.5820 H   0  0  0  0  0  0  0  0  0  0  0  0
   33.7590   25.8040   46.4880 H   0  0  0  0  0  0  0  0  0  0  0  0
   33.2020   28.0300   45.6200 H   0  0  0  0  0  0  0  0  0  0  0  0
   32.1030   29.8390   46.9130 O   0  0  0  0  0  0  0  0  0  0  0  0
   31.5840   30.3460   47.5800 H   0  0  0  0  0  0  0  0  0  0  0  0
   34.7310   29.3830   47.4800 S   0  0  0  0  0  0  0  0  0  0  0  0
   37.1290   29.3000   50.6360 C   0  0  0  0  0  0  0  0  0  0  0  0
   37.6330   30.5990   50.7350 C   0  0  0  0  0  0  0  0  0  0  0  0
   37.2140   31.5420   49.7840 C   0  0  0  0  0  0  0  0  0  0  0  0
   36.3470   31.1420   48.8260 N   0  0  0  0  0  0  0  0  0  0  0  0
   35.8790   29.8770   48.7590 C   0  0  0  0  0  0  0  0  0  0  0  0
   36.2640   28.9390   49.6630 N   0  0  0  0  0  0  0  0  0  0  0  0
   37.4750   28.6000   51.3860 H   0  0  0  0  0  0  0  0  0  0  0  0
   38.3270   30.8900   51.5160 H   0  0  0  0  0  0  0  0  0  0  0  0
   37.5820   32.5560   49.8290 H   0  0  0  0  0  0  0  0  0  0  0  0
   31.3190   27.0810   45.6940 O   0  0  0  0  0  0  0  0  0  0  0  0
   29.8410   29.2220   44.3180 Cl  0  0  0  0  0  0  0  0  0  0  0  0
   29.3050   28.1950   45.6260 C   0  0  0  0  0  0  0  0  0  0  0  0
   30.0890   27.2120   46.1820 C   0  0  0  0  0  0  0  0  0  0  0  0
   29.5390   26.4340   47.2030 C   0  0  0  0  0  0  0  0  0  0  0  0
   28.2480   26.6510   47.6340 C   0  0  0  0  0  0  0  0  0  0  0  0
   27.4510   27.6390   47.0810 C   0  0  0  0  0  0  0  0  0  0  0  0
   28.0050   28.4080   46.0660 C   0  0  0  0  0  0  0  0  0  0  0  0
   30.0700   25.6380   47.6960 H   0  0  0  0  0  0  0  0  0  0  0  0
   27.7560   26.0920   48.4170 H   0  0  0  0  0  0  0  0  0  0  0  0
   26.4460   27.8350   47.3900 H   0  0  0  0  0  0  0  0  0  0  0  0
   27.1810   29.4560   45.4680 C   0  0  0  0  0  0  0  0  0  0  0  0
   27.2790   30.4860   45.7840 H   0  0  0  0  0  0  0  0  0  0  0  0
   26.3400   29.1820   44.5750 O   0  0  0  0  0  0  0  0  0  0  0  0
  1  6  1  1  0  0  0
  1  2  1  0  0  0  0
  2  7  1  1  0  0  0
  3  2  1  0  0  0  0
  4  8  1  0  0  0  0
  4  3  1  0  0  0  0
  5 10  1  6  0  0  0
  5  4  1  0  0  0  0
  5  1  1  0  0  0  0
  9  4  1  0  0  0  0
 11  1  1  0  0  0  0
 11 12  1  0  0  0  0
 13  2  1  0  0  0  0
 13 18  1  0  0  0  0
 14 15  1  0  0  0  0
 14 20  1  0  0  0  0
 15 21  1  0  0  0  0
 16 22  1  0  0  0  0
 16 15  2  0  0  0  0
 17 16  1  0  0  0  0
 18 17  2  0  0  0  0
 18 19  1  0  0  0  0
 19 14  2  0  0  0  0
 23 26  1  0  0  0  0
 23  5  1  0  0  0  0
 24 25  1  0  0  0  0
 25 30  2  0  0  0  0
 25 26  1  0  0  0  0
 26 27  2  0  0  0  0
 27 28  1  0  0  0  0
 27 31  1  0  0  0  0
 28 32  1  0  0  0  0
 29 33  1  0  0  0  0
 29 28  2  0  0  0  0
 30 29  1  0  0  0  0
 34 35  1  0  0  0  0
 34 30  1  0  0  0  0
 36 34  2  0  0  0  0
M  END
>  <minimizedAffinity>
-4.59789038

>  <minimizedRMSD>
0.0808009133

$$$$
