
     RDKit          3D

 36 38  0  0  0  0  0  0  0  0999 V2000
   32.1678   28.5241   47.4239 C   0  0  2  0  0  0  0  0  0  0  0  0
   33.4072   28.3627   48.2539 C   0  0  1  0  0  0  0  0  0  0  0  0
   33.8083   27.0643   48.1643 O   0  0  0  0  0  0  0  0  0  0  0  0
   33.1077   26.4376   47.1386 C   0  0  0  0  0  0  0  0  0  0  0  0
   32.5075   27.5209   46.2780 C   0  0  1  0  0  0  0  0  0  0  0  0
   32.0965   29.8255   46.8843 O   0  0  0  0  0  0  0  0  0  0  0  0
   34.7197   29.4080   47.4954 S   0  0  0  0  0  0  0  0  0  0  0  0
   37.1316   29.2909   50.6399 C   0  0  0  0  0  0  0  0  0  0  0  0
   37.6295   30.5906   50.7558 C   0  0  0  0  0  0  0  0  0  0  0  0
   37.2016   31.5461   49.8197 C   0  0  0  0  0  0  0  0  0  0  0  0
   36.3329   31.1549   48.8603 N   0  0  0  0  0  0  0  0  0  0  0  0
   35.8709   29.8893   48.7770 C   0  0  0  0  0  0  0  0  0  0  0  0
   36.2641   28.9399   49.6657 N   0  0  0  0  0  0  0  0  0  0  0  0
   31.3634   27.0440   45.6864 O   0  0  0  0  0  0  0  0  0  0  0  0
   29.8801   29.1174   44.2145 Cl  0  0  0  0  0  0  0  0  0  0  0  0
   29.3356   28.1268   45.5481 C   0  0  0  0  0  0  0  0  0  0  0  0
   30.1242   27.1740   46.1497 C   0  0  0  0  0  0  0  0  0  0  0  0
   29.5672   26.4229   47.1868 C   0  0  0  0  0  0  0  0  0  0  0  0
   28.2660   26.6372   47.5891 C   0  0  0  0  0  0  0  0  0  0  0  0
   27.4647   27.5937   46.9905 C   0  0  0  0  0  0  0  0  0  0  0  0
   28.0256   28.3372   45.9592 C   0  0  0  0  0  0  0  0  0  0  0  0
   31.2425   28.1805   47.8737 H   0  0  0  0  0  0  0  0  0  0  0  0
   33.2726   28.6372   49.3193 H   0  0  0  0  0  0  0  0  0  0  0  0
   32.4140   25.7540   47.6057 H   0  0  0  0  0  0  0  0  0  0  0  0
   33.8063   25.8057   46.5322 H   0  0  0  0  0  0  0  0  0  0  0  0
   33.2356   28.0152   45.6285 H   0  0  0  0  0  0  0  0  0  0  0  0
   31.5607   30.3339   47.5371 H   0  0  0  0  0  0  0  0  0  0  0  0
   37.4842   28.5824   51.3794 H   0  0  0  0  0  0  0  0  0  0  0  0
   38.3264   30.8736   51.5380 H   0  0  0  0  0  0  0  0  0  0  0  0
   37.5655   32.5611   49.8781 H   0  0  0  0  0  0  0  0  0  0  0  0
   30.1000   25.6522   47.7154 H   0  0  0  0  0  0  0  0  0  0  0  0
   27.7692   26.0966   48.3815 H   0  0  0  0  0  0  0  0  0  0  0  0
   26.4526   27.7867   47.2765 H   0  0  0  0  0  0  0  0  0  0  0  0
   27.1975   29.3533   45.3131 C   0  0  0  0  0  0  0  0  0  0  0  0
   26.5921   30.0301   45.9005 H   0  0  0  0  0  0  0  0  0  0  0  0
   27.1723   29.4608   44.0614 O   0  0  0  0  0  0  0  0  0  0  0  0
  1  2  1  0
  3  2  1  0
  4  3  1  0
  5  4  1  0
  5  1  1  0
  6  1  1  0
  7  2  1  0
  7 12  1  0
  8  9  2  0
 10  9  1  0
 11 10  2  0
 12 11  1  0
 12 13  2  0
 13  8  1  0
 14 17  1  0
 14  5  1  0
 15 16  1  0
 16 21  2  0
 16 17  1  0
 17 18  2  0
 18 19  1  0
 20 19  2  0
 21 20  1  0
  1 22  1  1
  2 23  1  1
  4 24  1  0
  4 25  1  0
  5 26  1  6
  6 27  1  0
  8 28  1  0
  9 29  1  0
 10 30  1  0
 18 31  1  0
 19 32  1  0
 20 33  1  0
 34 35  1  0
 34 36  2  0
 21 34  1  0
M  ISO  8  22  13  23  13  24  13  25  13  26  13  27   3  28  14  29  14
M  ISO  5  30  14  31  14  32  14  33  14  35   6
M  END
>  <DihAtoms>  (1) 
15,20,33,34

>  <DihDeg>  (1) 
-0.0008921169962897489

$$$$
