
 OpenBabel03272506463D

 36 38  0  0  1  0  0  0  0  0999 V2000
   32.1740   28.5730   47.4260 C   0  0  2  0  0  0  0  0  0  0  0  0
   33.4250   28.3530   48.2240 C   0  0  1  0  0  0  0  0  0  0  0  0
   33.7800   27.0430   48.0970 O   0  0  0  0  0  0  0  0  0  0  0  0
   33.0370   26.4640   47.0750 C   0  0  0  0  0  0  0  0  0  0  0  0
   32.4550   27.5850   46.2510 C   0  0  1  0  0  0  0  0  0  0  0  0
   31.2470   28.2500   47.8890 H   0  0  0  0  0  0  0  0  0  0  0  0
   33.3230   28.6070   49.2980 H   0  0  0  0  0  0  0  0  0  0  0  0
   32.3310   25.7930   47.5430 H   0  0  0  0  0  0  0  0  0  0  0  0
   33.7000   25.8230   46.4390 H   0  0  0  0  0  0  0  0  0  0  0  0
   33.1850   28.0690   45.5970 H   0  0  0  0  0  0  0  0  0  0  0  0
   32.1340   29.8880   46.9160 O   0  0  0  0  0  0  0  0  0  0  0  0
   31.6310   30.3990   47.5910 H   0  0  0  0  0  0  0  0  0  0  0  0
   34.7550   29.3700   47.4590 S   0  0  0  0  0  0  0  0  0  0  0  0
   37.1250   29.3050   50.6370 C   0  0  0  0  0  0  0  0  0  0  0  0
   37.6350   30.6030   50.7290 C   0  0  0  0  0  0  0  0  0  0  0  0
   37.2280   31.5390   49.7650 C   0  0  0  0  0  0  0  0  0  0  0  0
   36.3680   31.1340   48.8030 N   0  0  0  0  0  0  0  0  0  0  0  0
   35.8940   29.8710   48.7440 C   0  0  0  0  0  0  0  0  0  0  0  0
   36.2670   28.9390   49.6600 N   0  0  0  0  0  0  0  0  0  0  0  0
   37.4610   28.6100   51.3970 H   0  0  0  0  0  0  0  0  0  0  0  0
   38.3230   30.8970   51.5130 H   0  0  0  0  0  0  0  0  0  0  0  0
   37.6010   32.5520   49.8040 H   0  0  0  0  0  0  0  0  0  0  0  0
   31.2830   27.1590   45.6750 O   0  0  0  0  0  0  0  0  0  0  0  0
   29.7930   29.3740   44.4350 Cl  0  0  0  0  0  0  0  0  0  0  0  0
   29.2760   28.2870   45.7020 C   0  0  0  0  0  0  0  0  0  0  0  0
   30.0640   27.2730   46.1940 C   0  0  0  0  0  0  0  0  0  0  0  0
   29.5280   26.4490   47.1850 C   0  0  0  0  0  0  0  0  0  0  0  0
   28.2470   26.6530   47.6520 C   0  0  0  0  0  0  0  0  0  0  0  0
   27.4460   27.6710   47.1630 C   0  0  0  0  0  0  0  0  0  0  0  0
   27.9860   28.4870   46.1770 C   0  0  0  0  0  0  0  0  0  0  0  0
   30.0630   25.6280   47.6280 H   0  0  0  0  0  0  0  0  0  0  0  0
   27.7670   26.0590   48.4160 H   0  0  0  0  0  0  0  0  0  0  0  0
   26.4490   27.8590   47.5020 H   0  0  0  0  0  0  0  0  0  0  0  0
   27.1570   29.5680   45.6470 C   0  0  0  0  0  0  0  0  0  0  0  0
   26.6410   29.4600   44.7030 H   0  0  0  0  0  0  0  0  0  0  0  0
   27.0270   30.6450   46.2800 O   0  0  0  0  0  0  0  0  0  0  0  0
  1  6  1  1  0  0  0
  1  2  1  0  0  0  0
  2  7  1  1  0  0  0
  3  2  1  0  0  0  0
  4  8  1  0  0  0  0
  4  3  1  0  0  0  0
  5 10  1  6  0  0  0
  5  4  1  0  0  0  0
  5  1  1  0  0  0  0
  9  4  1  0  0  0  0
 11  1  1  0  0  0  0
 11 12  1  0  0  0  0
 13  2  1  0  0  0  0
 13 18  1  0  0  0  0
 14 15  1  0  0  0  0
 14 20  1  0  0  0  0
 15 21  1  0  0  0  0
 16 22  1  0  0  0  0
 16 15  2  0  0  0  0
 17 16  1  0  0  0  0
 18 17  2  0  0  0  0
 18 19  1  0  0  0  0
 19 14  2  0  0  0  0
 23 26  1  0  0  0  0
 23  5  1  0  0  0  0
 24 25  1  0  0  0  0
 25 30  2  0  0  0  0
 25 26  1  0  0  0  0
 26 27  2  0  0  0  0
 27 31  1  0  0  0  0
 27 28  1  0  0  0  0
 28 32  1  0  0  0  0
 29 33  1  0  0  0  0
 29 28  2  0  0  0  0
 30 29  1  0  0  0  0
 34 30  1  0  0  0  0
 34 36  2  0  0  0  0
 35 34  1  0  0  0  0
M  END
>  <minimizedAffinity>
-4.64161921

>  <minimizedRMSD>
0.192800492

$$$$
