REMARK  Name = 
REMARK  6 active torsions:
REMARK  status: ('A' for Active; 'I' for Inactive)
REMARK    1  A    between atoms: C_1  and  O_6
REMARK    2  A    between atoms: C_2  and  S_7
REMARK    3  A    between atoms: C_5  and  O_14
REMARK    4  A    between atoms: S_7  and  C_12
REMARK    5  A    between atoms: O_14  and  C_17
REMARK    6  A    between atoms: C_21  and  C_34
REMARK                            x       y       z     vdW  Elec       q    Type
REMARK                         _______ _______ _______ _____ _____    ______ ____
ROOT
ATOM      1  C   UNL     1      32.168  28.524  47.424  0.00  0.00    +0.000 C 
ATOM      2  C   UNL     1      33.407  28.363  48.254  0.00  0.00    +0.000 C 
ATOM      3  O   UNL     1      33.808  27.064  48.164  0.00  0.00    +0.000 OA
ATOM      4  C   UNL     1      33.108  26.438  47.139  0.00  0.00    +0.000 C 
ATOM      5  C   UNL     1      32.508  27.521  46.278  0.00  0.00    +0.000 C 
ATOM      6  H   UNL     1      31.242  28.180  47.874  0.00  0.00    +0.000 HD
ATOM      7  H   UNL     1      33.273  28.637  49.319  0.00  0.00    +0.000 HD
ATOM      8  H   UNL     1      32.414  25.754  47.606  0.00  0.00    +0.000 HD
ATOM      9  H   UNL     1      33.806  25.806  46.532  0.00  0.00    +0.000 HD
ATOM     10  H   UNL     1      33.236  28.015  45.629  0.00  0.00    +0.000 HD
ENDROOT
BRANCH   1  11
ATOM     11  O   UNL     1      32.096  29.826  46.884  0.00  0.00    +0.000 OA
ATOM     12  H   UNL     1      31.561  30.334  47.537  0.00  0.00    +0.000 HD
ENDBRANCH   1  11
BRANCH   2  13
ATOM     13  S   UNL     1      34.720  29.408  47.495  0.00  0.00    +0.000 S 
BRANCH  13  18
ATOM     14  C   UNL     1      37.132  29.291  50.640  0.00  0.00    +0.000 A 
ATOM     15  C   UNL     1      37.630  30.591  50.756  0.00  0.00    +0.000 A 
ATOM     16  C   UNL     1      37.202  31.546  49.820  0.00  0.00    +0.000 A 
ATOM     17  N   UNL     1      36.333  31.155  48.860  0.00  0.00    +0.000 NA
ATOM     18  C   UNL     1      35.871  29.889  48.777  0.00  0.00    +0.000 A 
ATOM     19  N   UNL     1      36.264  28.940  49.666  0.00  0.00    +0.000 NA
ATOM     20  H   UNL     1      37.484  28.582  51.379  0.00  0.00    +0.000 HD
ATOM     21  H   UNL     1      38.326  30.874  51.538  0.00  0.00    +0.000 HD
ATOM     22  H   UNL     1      37.566  32.561  49.878  0.00  0.00    +0.000 HD
ENDBRANCH  13  18
ENDBRANCH   2  13
BRANCH   5  23
ATOM     23  O   UNL     1      31.363  27.044  45.686  0.00  0.00    +0.000 OA
BRANCH  23  26
ATOM     24 CL   UNL     1      29.880  29.117  44.215  0.00  0.00    +0.000 Cl
ATOM     25  C   UNL     1      29.336  28.127  45.548  0.00  0.00    +0.000 A 
ATOM     26  C   UNL     1      30.124  27.174  46.150  0.00  0.00    +0.000 A 
ATOM     27  C   UNL     1      29.567  26.423  47.187  0.00  0.00    +0.000 A 
ATOM     28  C   UNL     1      28.266  26.637  47.589  0.00  0.00    +0.000 A 
ATOM     29  C   UNL     1      27.465  27.594  46.990  0.00  0.00    +0.000 A 
ATOM     30  C   UNL     1      28.026  28.337  45.959  0.00  0.00    +0.000 A 
ATOM     31  H   UNL     1      30.100  25.652  47.715  0.00  0.00    +0.000 HD
ATOM     32  H   UNL     1      27.769  26.097  48.382  0.00  0.00    +0.000 HD
ATOM     33  H   UNL     1      26.453  27.787  47.276  0.00  0.00    +0.000 HD
BRANCH  30  34
ATOM     34  C   UNL     1      27.198  29.353  45.313  0.00  0.00    +0.000 C 
ATOM     35  H   UNL     1      26.416  29.073  44.620  0.00  0.00    +0.000 HD
ATOM     36  O   UNL     1      27.377  30.574  45.550  0.00  0.00    +0.000 OA
ENDBRANCH  30  34
ENDBRANCH  23  26
ENDBRANCH   5  23
TORSDOF 6
