
 OpenBabel03272506463D

 36 38  0  0  1  0  0  0  0  0999 V2000
   31.9560   28.5480   47.4240 C   0  0  2  0  0  0  0  0  0  0  0  0
   33.1850   28.2040   48.2130 C   0  0  1  0  0  0  0  0  0  0  0  0
   33.4020   26.8640   48.0910 O   0  0  0  0  0  0  0  0  0  0  0  0
   32.5950   26.3590   47.0790 C   0  0  0  0  0  0  0  0  0  0  0  0
   32.1230   27.5300   46.2530 C   0  0  1  0  0  0  0  0  0  0  0  0
   31.0050   28.3240   47.8970 H   0  0  0  0  0  0  0  0  0  0  0  0
   33.1200   28.4730   49.2850 H   0  0  0  0  0  0  0  0  0  0  0  0
   31.8270   25.7670   47.5570 H   0  0  0  0  0  0  0  0  0  0  0  0
   33.1820   25.6500   46.4410 H   0  0  0  0  0  0  0  0  0  0  0  0
   32.8930   27.9320   45.5890 H   0  0  0  0  0  0  0  0  0  0  0  0
   32.0470   29.8570   46.9060 O   0  0  0  0  0  0  0  0  0  0  0  0
   31.6050   30.4210   47.5830 H   0  0  0  0  0  0  0  0  0  0  0  0
   34.6060   29.0750   47.4290 S   0  0  0  0  0  0  0  0  0  0  0  0
   36.9020   29.2710   50.6560 C   0  0  0  0  0  0  0  0  0  0  0  0
   37.3070   30.6070   50.7250 C   0  0  0  0  0  0  0  0  0  0  0  0
   36.8510   31.4850   49.7290 C   0  0  0  0  0  0  0  0  0  0  0  0
   36.0460   30.9910   48.7600 N   0  0  0  0  0  0  0  0  0  0  0  0
   35.6740   29.6940   48.7240 C   0  0  0  0  0  0  0  0  0  0  0  0
   36.0960   28.8160   49.6710 N   0  0  0  0  0  0  0  0  0  0  0  0
   37.2730   28.6240   51.4400 H   0  0  0  0  0  0  0  0  0  0  0  0
   37.9530   30.9730   51.5150 H   0  0  0  0  0  0  0  0  0  0  0  0
   37.1440   32.5240   49.7490 H   0  0  0  0  0  0  0  0  0  0  0  0
   30.9070   27.2240   45.6900 O   0  0  0  0  0  0  0  0  0  0  0  0
   29.4810   29.6010   44.7030 Cl  0  0  0  0  0  0  0  0  0  0  0  0
   28.9610   28.4360   45.8970 C   0  0  0  0  0  0  0  0  0  0  0  0
   29.7180   27.3490   46.2700 C   0  0  0  0  0  0  0  0  0  0  0  0
   29.1820   26.4710   47.2130 C   0  0  0  0  0  0  0  0  0  0  0  0
   27.9320   26.6930   47.7500 C   0  0  0  0  0  0  0  0  0  0  0  0
   27.1630   27.7840   47.3830 C   0  0  0  0  0  0  0  0  0  0  0  0
   27.7030   28.6540   46.4440 C   0  0  0  0  0  0  0  0  0  0  0  0
   29.6930   25.5910   47.5630 H   0  0  0  0  0  0  0  0  0  0  0  0
   27.4540   26.0590   48.4830 H   0  0  0  0  0  0  0  0  0  0  0  0
   26.1910   27.9880   47.7790 H   0  0  0  0  0  0  0  0  0  0  0  0
   26.9080   29.8120   46.0420 C   0  0  0  0  0  0  0  0  0  0  0  0
   26.4260   29.8450   45.0740 H   0  0  0  0  0  0  0  0  0  0  0  0
   26.7680   30.7950   46.8120 O   0  0  0  0  0  0  0  0  0  0  0  0
  1  6  1  1  0  0  0
  1  2  1  0  0  0  0
  2  7  1  1  0  0  0
  3  2  1  0  0  0  0
  4  8  1  0  0  0  0
  4  3  1  0  0  0  0
  5 10  1  6  0  0  0
  5  4  1  0  0  0  0
  5  1  1  0  0  0  0
  9  4  1  0  0  0  0
 11  1  1  0  0  0  0
 11 12  1  0  0  0  0
 13  2  1  0  0  0  0
 13 18  1  0  0  0  0
 14 15  1  0  0  0  0
 14 20  1  0  0  0  0
 15 21  1  0  0  0  0
 16 22  1  0  0  0  0
 16 15  2  0  0  0  0
 17 16  1  0  0  0  0
 18 17  2  0  0  0  0
 18 19  1  0  0  0  0
 19 14  2  0  0  0  0
 23  5  1  0  0  0  0
 23 26  1  0  0  0  0
 24 25  1  0  0  0  0
 25 26  2  0  0  0  0
 25 30  1  0  0  0  0
 26 27  1  0  0  0  0
 27 31  1  0  0  0  0
 27 28  2  0  0  0  0
 28 32  1  0  0  0  0
 29 28  1  0  0  0  0
 29 33  1  0  0  0  0
 30 29  2  0  0  0  0
 34 30  1  0  0  0  0
 34 36  2  0  0  0  0
 35 34  1  0  0  0  0
M  END
>  <minimizedAffinity>
-4.67930555

>  <minimizedRMSD>
0.687816262

$$$$
