
 OpenBabel03272510103D

 22 23  0  0  0  0  0  0  0  0999 V2000
   37.3650   31.2200   48.4900 C   0  0  0  0  0  0  0  0  0  0  0  0
   38.2760   32.1680   48.9060 C   0  0  0  0  0  0  0  0  0  0  0  0
   39.1160   32.8490   48.0510 C   0  0  0  0  0  0  0  0  0  0  0  0
   39.0630   32.5830   46.6950 C   0  0  0  0  0  0  0  0  0  0  0  0
   38.1470   31.6310   46.3030 C   0  0  0  0  0  0  0  0  0  0  0  0
   37.3440   30.9900   47.1680 N   0  0  0  0  0  0  0  0  0  0  0  0
   38.3510   32.4100   49.9590 H   0  0  0  0  0  0  0  0  0  0  0  0
   39.8350   33.5960   48.3630 H   0  0  0  0  0  0  0  0  0  0  0  0
   37.9820   31.3100   45.2810 H   0  0  0  0  0  0  0  0  0  0  0  0
   36.8690   30.0190   50.6570 C   0  0  0  0  0  0  0  0  0  0  0  0
   36.4910   30.5220   49.4140 C   0  0  0  0  0  0  0  0  0  0  0  0
   35.1650   30.3450   49.0170 C   0  0  0  0  0  0  0  0  0  0  0  0
   34.3300   29.6830   49.8910 N   0  0  0  0  0  0  0  0  0  0  0  0
   34.7400   29.2190   51.0740 C   0  0  0  0  0  0  0  0  0  0  0  0
   36.0100   29.3820   51.4650 N   0  0  0  0  0  0  0  0  0  0  0  0
   37.9310   30.2130   50.8680 H   0  0  0  0  0  0  0  0  0  0  0  0
   34.7330   30.6830   48.0810 H   0  0  0  0  0  0  0  0  0  0  0  0
   34.0230   28.7050   51.7130 H   0  0  0  0  0  0  0  0  0  0  0  0
   39.8420   33.1810   45.7070 O   0  0  0  0  0  0  0  0  0  0  0  0
   40.8330   32.4070   45.0910 C   0  0  0  0  0  0  0  0  0  0  0  0
   41.8000   32.3220   45.5610 H   0  0  0  0  0  0  0  0  0  0  0  0
   40.6440   31.7930   43.9930 O   0  0  0  0  0  0  0  0  0  0  0  0
  1  2  1  0  0  0  0
  1 11  1  0  0  0  0
  2  7  1  0  0  0  0
  3  8  1  0  0  0  0
  3  2  2  0  0  0  0
  4  3  1  0  0  0  0
  5  4  2  0  0  0  0
  5  6  1  0  0  0  0
  6  1  2  0  0  0  0
  9  5  1  0  0  0  0
 10 16  1  0  0  0  0
 10 15  1  0  0  0  0
 11 10  2  0  0  0  0
 12 11  1  0  0  0  0
 12 13  2  0  0  0  0
 13 14  1  0  0  0  0
 14 15  2  0  0  0  0
 14 18  1  0  0  0  0
 17 12  1  0  0  0  0
 19  4  1  0  0  0  0
 20 21  1  0  0  0  0
 20 19  1  0  0  0  0
 22 20  2  0  0  0  0
M  END
>  <minimizedAffinity>
-4.69111252

>  <minimizedRMSD>
1.10010707

$$$$
