REMARK  Name = 
REMARK  4 active torsions:
REMARK  status: ('A' for Active; 'I' for Inactive)
REMARK    1  A    between atoms: C_3  and  C_10
REMARK    2  A    between atoms: C_8  and  C_15
REMARK    3  A    between atoms: C_15  and  O_17
REMARK    4  A    between atoms: O_17  and  C_23
REMARK                            x       y       z     vdW  Elec       q    Type
REMARK                         _______ _______ _______ _____ _____    ______ ____
ROOT
ATOM      1 CL   UNL     1      36.810  32.179  50.139  0.00  0.00    +0.000 Cl
ATOM      2  C   UNL     1      37.547  31.916  48.579  0.00  0.00    +0.000 A 
ATOM      3  C   UNL     1      36.969  30.909  47.876  0.00  0.00    +0.000 A 
ATOM      4  C   UNL     1      37.488  30.616  46.604  0.00  0.00    +0.000 A 
ATOM      5  C   UNL     1      38.535  31.310  46.081  0.00  0.00    +0.000 A 
ATOM      6  C   UNL     1      39.096  32.323  46.821  0.00  0.00    +0.000 A 
ATOM      7 CL   UNL     1      40.436  33.245  46.194  0.00  0.00    +0.000 Cl
ATOM      8  C   UNL     1      38.603  32.618  48.054  0.00  0.00    +0.000 A 
ATOM      9  H   UNL     1      37.102  29.839  45.970  0.00  0.00    +0.000 HD
ATOM     10  H   UNL     1      38.965  31.111  45.097  0.00  0.00    +0.000 HD
ENDROOT
BRANCH   3  12
ATOM     11  C   UNL     1      36.020  29.100  49.257  0.00  0.00    +0.000 A 
ATOM     12  C   UNL     1      35.841  30.032  48.232  0.00  0.00    +0.000 A 
ATOM     13  C   UNL     1      34.600  30.073  47.606  0.00  0.00    +0.000 A 
ATOM     14  N   UNL     1      33.644  29.203  48.034  0.00  0.00    +0.000 NA
ATOM     15  C   UNL     1      33.854  28.328  49.017  0.00  0.00    +0.000 A 
ATOM     16  N   UNL     1      35.060  28.276  49.637  0.00  0.00    +0.000 NA
ATOM     17  H   UNL     1      37.001  29.072  49.747  0.00  0.00    +0.000 HD
ATOM     18  H   UNL     1      34.466  30.779  46.830  0.00  0.00    +0.000 HD
ATOM     19  H   UNL     1      33.111  27.631  49.371  0.00  0.00    +0.000 HD
ENDBRANCH   3  12
BRANCH   8  20
ATOM     20  C   UNL     1      39.145  33.687  48.915  0.00  0.00    +0.000 C 
ATOM     21  O   UNL     1      39.256  34.901  48.638  0.00  0.00    +0.000 OA
BRANCH  20  22
ATOM     22  O   UNL     1      39.639  33.517  50.216  0.00  0.00    +0.000 OA
BRANCH  22  23
ATOM     23  C   UNL     1      40.145  34.466  51.041  0.00  0.00    +0.000 C 
ATOM     24  H   UNL     1      40.199  35.513  50.698  0.00  0.00    +0.000 HD
ATOM     25  O   UNL     1      40.533  34.087  52.174  0.00  0.00    +0.000 OA
ENDBRANCH  22  23
ENDBRANCH  20  22
ENDBRANCH   8  20
TORSDOF 4
