
 OpenBabel03272510103D

 22 23  0  0  0  0  0  0  0  0999 V2000
   36.9710   30.9660   47.9500 C   0  0  0  0  0  0  0  0  0  0  0  0
   37.8960   31.6860   48.6770 C   0  0  0  0  0  0  0  0  0  0  0  0
   38.9100   32.4260   48.1060 C   0  0  0  0  0  0  0  0  0  0  0  0
   39.0280   32.4620   46.7290 C   0  0  0  0  0  0  0  0  0  0  0  0
   38.0940   31.7340   46.0230 C   0  0  0  0  0  0  0  0  0  0  0  0
   37.1200   31.0260   46.6180 N   0  0  0  0  0  0  0  0  0  0  0  0
   37.8410   31.6870   49.7580 H   0  0  0  0  0  0  0  0  0  0  0  0
   39.6410   32.9960   48.6630 H   0  0  0  0  0  0  0  0  0  0  0  0
   38.0500   31.6600   44.9430 H   0  0  0  0  0  0  0  0  0  0  0  0
   35.8630   29.8490   49.9280 C   0  0  0  0  0  0  0  0  0  0  0  0
   35.9130   30.1980   48.5800 C   0  0  0  0  0  0  0  0  0  0  0  0
   34.8640   29.7790   47.7600 C   0  0  0  0  0  0  0  0  0  0  0  0
   33.8550   29.0500   48.3530 N   0  0  0  0  0  0  0  0  0  0  0  0
   33.8520   28.7410   49.6520 C   0  0  0  0  0  0  0  0  0  0  0  0
   34.8540   29.1370   50.4480 N   0  0  0  0  0  0  0  0  0  0  0  0
   36.7370   30.2290   50.4780 H   0  0  0  0  0  0  0  0  0  0  0  0
   34.7720   29.9770   46.6980 H   0  0  0  0  0  0  0  0  0  0  0  0
   33.0210   28.1610   50.0520 H   0  0  0  0  0  0  0  0  0  0  0  0
   39.9930   33.1580   46.0030 O   0  0  0  0  0  0  0  0  0  0  0  0
   40.8190   32.4290   45.1390 C   0  0  0  0  0  0  0  0  0  0  0  0
   40.9780   32.7900   44.1350 H   0  0  0  0  0  0  0  0  0  0  0  0
   41.3960   31.3510   45.4870 O   0  0  0  0  0  0  0  0  0  0  0  0
  1 11  1  0  0  0  0
  1  2  1  0  0  0  0
  2  7  1  0  0  0  0
  3  8  1  0  0  0  0
  3  2  2  0  0  0  0
  4  3  1  0  0  0  0
  5  6  1  0  0  0  0
  5  4  2  0  0  0  0
  6  1  2  0  0  0  0
  9  5  1  0  0  0  0
 10 15  1  0  0  0  0
 10 16  1  0  0  0  0
 11 10  2  0  0  0  0
 12 13  2  0  0  0  0
 12 11  1  0  0  0  0
 13 14  1  0  0  0  0
 14 18  1  0  0  0  0
 14 15  2  0  0  0  0
 17 12  1  0  0  0  0
 19  4  1  0  0  0  0
 20 22  2  0  0  0  0
 20 19  1  0  0  0  0
 21 20  1  0  0  0  0
M  END
>  <minimizedAffinity>
-4.72571707

>  <minimizedRMSD>
1.71858573

$$$$
