
 OpenBabel03262520113D

 30 31  0  0  0  0  0  0  0  0999 V2000
   38.0130   23.4740   33.2640 Br  0  0  0  0  0  0  0  0  0  0  0  0
   37.8540   25.2270   34.0420 C   0  0  0  0  0  0  0  0  0  0  0  0
   38.4320   25.4850   35.2660 C   0  0  0  0  0  0  0  0  0  0  0  0
   38.2860   26.7480   35.7740 C   0  0  0  0  0  0  0  0  0  0  0  0
   37.5910   27.7500   35.1100 C   0  0  0  0  0  0  0  0  0  0  0  0
   37.0330   27.4350   33.8880 C   0  0  0  0  0  0  0  0  0  0  0  0
   37.1660   26.1700   33.3570 C   0  0  0  0  0  0  0  0  0  0  0  0
   38.7490   26.9290   36.7390 H   0  0  0  0  0  0  0  0  0  0  0  0
   37.5420   28.6970   35.6030 H   0  0  0  0  0  0  0  0  0  0  0  0
   36.5180   28.2880   33.4700 H   0  0  0  0  0  0  0  0  0  0  0  0
   39.2440   22.9760   37.7900 C   0  0  0  0  0  0  0  0  0  0  0  0
   40.5240   22.5120   37.4170 C   0  0  0  0  0  0  0  0  0  0  0  0
   41.0850   23.0760   36.2950 C   0  0  0  0  0  0  0  0  0  0  0  0
   40.4060   24.0420   35.5970 N   0  0  0  0  0  0  0  0  0  0  0  0
   39.1720   24.4570   35.9970 C   0  0  0  0  0  0  0  0  0  0  0  0
   38.6110   23.9150   37.0910 N   0  0  0  0  0  0  0  0  0  0  0  0
   38.7050   22.6010   38.6600 H   0  0  0  0  0  0  0  0  0  0  0  0
   40.9690   21.7510   38.0350 H   0  0  0  0  0  0  0  0  0  0  0  0
   42.0550   22.7360   35.9970 H   0  0  0  0  0  0  0  0  0  0  0  0
   36.5190   25.9670   32.0340 C   0  0  0  0  0  0  0  0  0  0  0  0
   35.8130   25.0980   32.1450 H   0  0  0  0  0  0  0  0  0  0  0  0
   37.2630   25.6070   31.2940 H   0  0  0  0  0  0  0  0  0  0  0  0
   35.8560   27.1830   31.4920 C   0  0  0  0  0  0  0  0  0  0  0  0
   34.7650   26.8860   31.3570 H   0  0  0  0  0  0  0  0  0  0  0  0
   35.8200   28.0630   32.1170 H   0  0  0  0  0  0  0  0  0  0  0  0
   36.3150   27.4420   30.1420 N   0  0  0  0  0  0  0  0  0  0  0  0
   36.0720   26.8100   29.3460 H   0  0  0  0  0  0  0  0  0  0  0  0
   37.1210   28.5450   29.7600 C   0  0  0  0  0  0  0  0  0  0  0  0
   37.4680   29.2980   30.4560 H   0  0  0  0  0  0  0  0  0  0  0  0
   37.4990   28.7400   28.5910 O   0  0  0  0  0  0  0  0  0  0  0  0
  1  2  1  0  0  0  0
  2  3  1  0  0  0  0
  3  4  2  0  0  0  0
  3 15  1  0  0  0  0
  4  8  1  0  0  0  0
  5  9  1  0  0  0  0
  5  4  1  0  0  0  0
  6  5  2  0  0  0  0
  7  6  1  0  0  0  0
  7  2  2  0  0  0  0
 10  6  1  0  0  0  0
 11 17  1  0  0  0  0
 12 11  1  0  0  0  0
 12 18  1  0  0  0  0
 13 12  2  0  0  0  0
 14 15  2  0  0  0  0
 14 13  1  0  0  0  0
 15 16  1  0  0  0  0
 16 11  2  0  0  0  0
 19 13  1  0  0  0  0
 20 21  1  0  0  0  0
 20  7  1  0  0  0  0
 22 20  1  0  0  0  0
 23 20  1  0  0  0  0
 23 25  1  0  0  0  0
 24 23  1  0  0  0  0
 26 23  1  0  0  0  0
 27 26  1  0  0  0  0
 28 26  1  0  0  0  0
 28 29  1  0  0  0  0
 30 28  2  0  0  0  0
M  END
>  <minimizedAffinity>
-5.02707005

$$$$

 OpenBabel03262520113D

 30 31  0  0  0  0  0  0  0  0999 V2000
   37.2170   24.6130   32.2770 Br  0  0  0  0  0  0  0  0  0  0  0  0
   37.6940   25.5530   33.8880 C   0  0  0  0  0  0  0  0  0  0  0  0
   37.6470   26.9290   33.9130 C   0  0  0  0  0  0  0  0  0  0  0  0
   37.9980   27.5460   35.0840 C   0  0  0  0  0  0  0  0  0  0  0  0
   38.3900   26.8440   36.2160 C   0  0  0  0  0  0  0  0  0  0  0  0
   38.4180   25.4660   36.1330 C   0  0  0  0  0  0  0  0  0  0  0  0
   38.0690   24.8240   34.9640 C   0  0  0  0  0  0  0  0  0  0  0  0
   37.9540   28.6310   35.0830 H   0  0  0  0  0  0  0  0  0  0  0  0
   38.6410   27.4310   37.0720 H   0  0  0  0  0  0  0  0  0  0  0  0
   38.7380   25.0320   37.0680 H   0  0  0  0  0  0  0  0  0  0  0  0
   35.5780   28.9270   31.6660 C   0  0  0  0  0  0  0  0  0  0  0  0
   36.4160   29.1810   30.5580 C   0  0  0  0  0  0  0  0  0  0  0  0
   37.6870   28.6550   30.6080 C   0  0  0  0  0  0  0  0  0  0  0  0
   38.0860   27.9240   31.6980 N   0  0  0  0  0  0  0  0  0  0  0  0
   37.2400   27.7060   32.7420 C   0  0  0  0  0  0  0  0  0  0  0  0
   35.9960   28.2130   32.7080 N   0  0  0  0  0  0  0  0  0  0  0  0
   34.5540   29.2940   31.7340 H   0  0  0  0  0  0  0  0  0  0  0  0
   36.0030   29.7670   29.7550 H   0  0  0  0  0  0  0  0  0  0  0  0
   38.3350   28.8380   29.7780 H   0  0  0  0  0  0  0  0  0  0  0  0
   38.1410   23.3390   35.0130 C   0  0  0  0  0  0  0  0  0  0  0  0
   39.0840   23.0400   34.4760 H   0  0  0  0  0  0  0  0  0  0  0  0
   37.3360   22.8960   34.3930 H   0  0  0  0  0  0  0  0  0  0  0  0
   38.0550   22.7740   36.3850 C   0  0  0  0  0  0  0  0  0  0  0  0
   38.1890   23.6670   37.0780 H   0  0  0  0  0  0  0  0  0  0  0  0
   37.1200   22.3310   36.6950 H   0  0  0  0  0  0  0  0  0  0  0  0
   39.2120   21.9450   36.6570 N   0  0  0  0  0  0  0  0  0  0  0  0
   39.2920   20.9700   36.2880 H   0  0  0  0  0  0  0  0  0  0  0  0
   40.3320   22.3470   37.4300 C   0  0  0  0  0  0  0  0  0  0  0  0
   40.4170   23.3220   37.8910 H   0  0  0  0  0  0  0  0  0  0  0  0
   41.3110   21.6100   37.6440 O   0  0  0  0  0  0  0  0  0  0  0  0
  1  2  1  0  0  0  0
  2  3  2  0  0  0  0
  2  7  1  0  0  0  0
  3  4  1  0  0  0  0
  4  5  2  0  0  0  0
  5  9  1  0  0  0  0
  6  5  1  0  0  0  0
  6 10  1  0  0  0  0
  7 20  1  0  0  0  0
  7  6  2  0  0  0  0
  8  4  1  0  0  0  0
 11 17  1  0  0  0  0
 11 16  1  0  0  0  0
 12 13  1  0  0  0  0
 12 11  2  0  0  0  0
 13 14  2  0  0  0  0
 14 15  1  0  0  0  0
 15  3  1  0  0  0  0
 16 15  2  0  0  0  0
 18 12  1  0  0  0  0
 19 13  1  0  0  0  0
 20 23  1  0  0  0  0
 21 20  1  0  0  0  0
 22 20  1  0  0  0  0
 23 26  1  0  0  0  0
 23 25  1  0  0  0  0
 23 24  1  0  0  0  0
 26 28  1  0  0  0  0
 27 26  1  0  0  0  0
 28 30  2  0  0  0  0
 28 29  1  0  0  0  0
M  END
>  <minimizedAffinity>
-4.89080286

$$$$

 OpenBabel03262520113D

 30 31  0  0  0  0  0  0  0  0999 V2000
   38.2920   22.8820   34.2380 Br  0  0  0  0  0  0  0  0  0  0  0  0
   38.4620   24.6950   34.8630 C   0  0  0  0  0  0  0  0  0  0  0  0
   38.9370   25.6680   34.0120 C   0  0  0  0  0  0  0  0  0  0  0  0
   39.0390   26.9400   34.5090 C   0  0  0  0  0  0  0  0  0  0  0  0
   38.6870   27.2690   35.8110 C   0  0  0  0  0  0  0  0  0  0  0  0
   38.2160   26.2530   36.6190 C   0  0  0  0  0  0  0  0  0  0  0  0
   38.1060   24.9650   36.1400 C   0  0  0  0  0  0  0  0  0  0  0  0
   39.4160   27.6910   33.8220 H   0  0  0  0  0  0  0  0  0  0  0  0
   38.8090   28.2930   36.0890 H   0  0  0  0  0  0  0  0  0  0  0  0
   37.9780   26.6260   37.6040 H   0  0  0  0  0  0  0  0  0  0  0  0
   38.6840   25.1970   30.4010 C   0  0  0  0  0  0  0  0  0  0  0  0
   39.9820   24.8010   30.0120 C   0  0  0  0  0  0  0  0  0  0  0  0
   40.9260   24.7030   31.0090 C   0  0  0  0  0  0  0  0  0  0  0  0
   40.5860   24.9840   32.3070 N   0  0  0  0  0  0  0  0  0  0  0  0
   39.3190   25.3630   32.6330 C   0  0  0  0  0  0  0  0  0  0  0  0
   38.3870   25.4630   31.6710 N   0  0  0  0  0  0  0  0  0  0  0  0
   37.8590   25.3070   29.6970 H   0  0  0  0  0  0  0  0  0  0  0  0
   40.1420   24.6030   28.9660 H   0  0  0  0  0  0  0  0  0  0  0  0
   41.9140   24.4040   30.7320 H   0  0  0  0  0  0  0  0  0  0  0  0
   37.5830   23.9710   37.1140 C   0  0  0  0  0  0  0  0  0  0  0  0
   37.5780   22.9740   36.5920 H   0  0  0  0  0  0  0  0  0  0  0  0
   36.5110   24.1640   37.3210 H   0  0  0  0  0  0  0  0  0  0  0  0
   38.3220   23.9420   38.4040 C   0  0  0  0  0  0  0  0  0  0  0  0
   39.0400   24.8230   38.3500 H   0  0  0  0  0  0  0  0  0  0  0  0
   37.7630   24.1060   39.3140 H   0  0  0  0  0  0  0  0  0  0  0  0
   39.1930   22.7850   38.4550 N   0  0  0  0  0  0  0  0  0  0  0  0
   39.0210   21.9940   39.1160 H   0  0  0  0  0  0  0  0  0  0  0  0
   40.3400   22.5990   37.6420 C   0  0  0  0  0  0  0  0  0  0  0  0
   40.6680   23.3190   36.9030 H   0  0  0  0  0  0  0  0  0  0  0  0
   41.0680   21.5930   37.7090 O   0  0  0  0  0  0  0  0  0  0  0  0
  1  2  1  0  0  0  0
  2  7  1  0  0  0  0
  3  4  1  0  0  0  0
  3  2  2  0  0  0  0
  4  5  2  0  0  0  0
  5  9  1  0  0  0  0
  5  6  1  0  0  0  0
  6 10  1  0  0  0  0
  7  6  2  0  0  0  0
  7 20  1  0  0  0  0
  8  4  1  0  0  0  0
 11 16  1  0  0  0  0
 12 11  2  0  0  0  0
 12 13  1  0  0  0  0
 13 14  2  0  0  0  0
 14 15  1  0  0  0  0
 15  3  1  0  0  0  0
 16 15  2  0  0  0  0
 17 11  1  0  0  0  0
 18 12  1  0  0  0  0
 19 13  1  0  0  0  0
 20 22  1  0  0  0  0
 20 23  1  0  0  0  0
 21 20  1  0  0  0  0
 23 26  1  0  0  0  0
 23 25  1  0  0  0  0
 24 23  1  0  0  0  0
 26 27  1  0  0  0  0
 28 30  2  0  0  0  0
 28 26  1  0  0  0  0
 29 28  1  0  0  0  0
M  END
>  <minimizedAffinity>
-4.8275671

$$$$

 OpenBabel03262520113D

 30 31  0  0  0  0  0  0  0  0999 V2000
   37.1270   24.6730   32.3110 Br  0  0  0  0  0  0  0  0  0  0  0  0
   37.6530   25.5760   33.9270 C   0  0  0  0  0  0  0  0  0  0  0  0
   37.6010   26.9510   33.9880 C   0  0  0  0  0  0  0  0  0  0  0  0
   37.9880   27.5420   35.1610 C   0  0  0  0  0  0  0  0  0  0  0  0
   38.4200   26.8150   36.2620 C   0  0  0  0  0  0  0  0  0  0  0  0
   38.4520   25.4390   36.1450 C   0  0  0  0  0  0  0  0  0  0  0  0
   38.0670   24.8230   34.9730 C   0  0  0  0  0  0  0  0  0  0  0  0
   37.9390   28.6260   35.1870 H   0  0  0  0  0  0  0  0  0  0  0  0
   38.6970   27.3820   37.1240 H   0  0  0  0  0  0  0  0  0  0  0  0
   38.8050   24.9840   37.0580 H   0  0  0  0  0  0  0  0  0  0  0  0
   35.4510   28.9960   31.8620 C   0  0  0  0  0  0  0  0  0  0  0  0
   36.2490   29.2770   30.7320 C   0  0  0  0  0  0  0  0  0  0  0  0
   37.5210   28.7530   30.7240 C   0  0  0  0  0  0  0  0  0  0  0  0
   37.9590   27.9970   31.7820 N   0  0  0  0  0  0  0  0  0  0  0  0
   37.1510   27.7540   32.8500 C   0  0  0  0  0  0  0  0  0  0  0  0
   35.9070   28.2590   32.8720 N   0  0  0  0  0  0  0  0  0  0  0  0
   34.4290   29.3590   31.9740 H   0  0  0  0  0  0  0  0  0  0  0  0
   35.8070   29.8800   29.9570 H   0  0  0  0  0  0  0  0  0  0  0  0
   38.1390   28.9560   29.8760 H   0  0  0  0  0  0  0  0  0  0  0  0
   38.1480   23.3390   34.9830 C   0  0  0  0  0  0  0  0  0  0  0  0
   38.9670   23.0510   34.2660 H   0  0  0  0  0  0  0  0  0  0  0  0
   37.2370   22.9020   34.5260 H   0  0  0  0  0  0  0  0  0  0  0  0
   38.3330   22.7520   36.3360 C   0  0  0  0  0  0  0  0  0  0  0  0
   38.9310   21.7990   36.1620 H   0  0  0  0  0  0  0  0  0  0  0  0
   38.9150   23.3080   37.0560 H   0  0  0  0  0  0  0  0  0  0  0  0
   37.0650   22.2770   36.8520 N   0  0  0  0  0  0  0  0  0  0  0  0
   36.6980   22.5830   37.7820 H   0  0  0  0  0  0  0  0  0  0  0  0
   36.2050   21.3720   36.1780 C   0  0  0  0  0  0  0  0  0  0  0  0
   36.4280   20.9520   35.2060 H   0  0  0  0  0  0  0  0  0  0  0  0
   35.1210   20.9840   36.6490 O   0  0  0  0  0  0  0  0  0  0  0  0
  1  2  1  0  0  0  0
  2  3  2  0  0  0  0
  2  7  1  0  0  0  0
  3  4  1  0  0  0  0
  4  8  1  0  0  0  0
  4  5  2  0  0  0  0
  5  9  1  0  0  0  0
  6  5  1  0  0  0  0
  6 10  1  0  0  0  0
  7 20  1  0  0  0  0
  7  6  2  0  0  0  0
 11 17  1  0  0  0  0
 11 16  1  0  0  0  0
 12 11  2  0  0  0  0
 13 12  1  0  0  0  0
 13 14  2  0  0  0  0
 14 15  1  0  0  0  0
 15 16  2  0  0  0  0
 15  3  1  0  0  0  0
 18 12  1  0  0  0  0
 19 13  1  0  0  0  0
 20 23  1  0  0  0  0
 21 20  1  0  0  0  0
 22 20  1  0  0  0  0
 23 26  1  0  0  0  0
 23 25  1  0  0  0  0
 24 23  1  0  0  0  0
 26 27  1  0  0  0  0
 28 30  2  0  0  0  0
 28 26  1  0  0  0  0
 29 28  1  0  0  0  0
M  END
>  <minimizedAffinity>
-4.74082327

$$$$

 OpenBabel03262520113D

 30 31  0  0  0  0  0  0  0  0999 V2000
   38.2890   26.7910   35.1570 Br  0  0  0  0  0  0  0  0  0  0  0  0
   37.8660   25.3410   33.9640 C   0  0  0  0  0  0  0  0  0  0  0  0
   37.9950   24.0410   34.3980 C   0  0  0  0  0  0  0  0  0  0  0  0
   37.6830   23.0490   33.5070 C   0  0  0  0  0  0  0  0  0  0  0  0
   37.2510   23.3090   32.2130 C   0  0  0  0  0  0  0  0  0  0  0  0
   37.1410   24.6310   31.8320 C   0  0  0  0  0  0  0  0  0  0  0  0
   37.4500   25.6460   32.7120 C   0  0  0  0  0  0  0  0  0  0  0  0
   37.7910   22.0310   33.8700 H   0  0  0  0  0  0  0  0  0  0  0  0
   37.0370   22.4560   31.6070 H   0  0  0  0  0  0  0  0  0  0  0  0
   36.8000   24.7090   30.8100 H   0  0  0  0  0  0  0  0  0  0  0  0
   37.9510   23.6240   38.0240 C   0  0  0  0  0  0  0  0  0  0  0  0
   39.2420   23.1430   38.3320 C   0  0  0  0  0  0  0  0  0  0  0  0
   40.1080   22.9710   37.2780 C   0  0  0  0  0  0  0  0  0  0  0  0
   39.7030   23.2630   36.0000 N   0  0  0  0  0  0  0  0  0  0  0  0
   38.4460   23.7240   35.7530 C   0  0  0  0  0  0  0  0  0  0  0  0
   37.5880   23.8970   36.7720 N   0  0  0  0  0  0  0  0  0  0  0  0
   37.1840   23.7970   38.7790 H   0  0  0  0  0  0  0  0  0  0  0  0
   39.4570   22.9460   39.3680 H   0  0  0  0  0  0  0  0  0  0  0  0
   41.0900   22.6080   37.4930 H   0  0  0  0  0  0  0  0  0  0  0  0
   37.2840   27.0220   32.1740 C   0  0  0  0  0  0  0  0  0  0  0  0
   38.2390   27.2790   31.6350 H   0  0  0  0  0  0  0  0  0  0  0  0
   37.2470   27.7560   33.0040 H   0  0  0  0  0  0  0  0  0  0  0  0
   36.0770   27.1980   31.3250 C   0  0  0  0  0  0  0  0  0  0  0  0
   35.6550   26.1490   31.1960 H   0  0  0  0  0  0  0  0  0  0  0  0
   35.2540   27.7730   31.7230 H   0  0  0  0  0  0  0  0  0  0  0  0
   36.4640   27.5850   29.9820 N   0  0  0  0  0  0  0  0  0  0  0  0
   36.2050   27.0120   29.1470 H   0  0  0  0  0  0  0  0  0  0  0  0
   37.2140   28.7450   29.6580 C   0  0  0  0  0  0  0  0  0  0  0  0
   37.5670   29.4500   30.3990 H   0  0  0  0  0  0  0  0  0  0  0  0
   37.5290   29.0490   28.4950 O   0  0  0  0  0  0  0  0  0  0  0  0
  2  3  1  0  0  0  0
  2  1  1  0  0  0  0
  3 15  1  0  0  0  0
  4  8  1  0  0  0  0
  4  3  2  0  0  0  0
  5  4  1  0  0  0  0
  6  5  2  0  0  0  0
  6  7  1  0  0  0  0
  7  2  2  0  0  0  0
  9  5  1  0  0  0  0
 10  6  1  0  0  0  0
 11 12  1  0  0  0  0
 11 17  1  0  0  0  0
 12 18  1  0  0  0  0
 13 19  1  0  0  0  0
 13 12  2  0  0  0  0
 14 13  1  0  0  0  0
 15 14  2  0  0  0  0
 15 16  1  0  0  0  0
 16 11  2  0  0  0  0
 20  7  1  0  0  0  0
 20 22  1  0  0  0  0
 21 20  1  0  0  0  0
 23 25  1  0  0  0  0
 23 20  1  0  0  0  0
 24 23  1  0  0  0  0
 26 23  1  0  0  0  0
 27 26  1  0  0  0  0
 28 26  1  0  0  0  0
 28 29  1  0  0  0  0
 30 28  2  0  0  0  0
M  END
>  <minimizedAffinity>
-4.69822979

$$$$

 OpenBabel03262520113D

 30 31  0  0  0  0  0  0  0  0999 V2000
   38.4890   24.6760   33.3710 Br  0  0  0  0  0  0  0  0  0  0  0  0
   37.4080   23.0850   33.3020 C   0  0  0  0  0  0  0  0  0  0  0  0
   37.4330   22.1980   34.3560 C   0  0  0  0  0  0  0  0  0  0  0  0
   36.6450   21.0830   34.2540 C   0  0  0  0  0  0  0  0  0  0  0  0
   35.8450   20.8260   33.1490 C   0  0  0  0  0  0  0  0  0  0  0  0
   35.8590   21.7490   32.1230 C   0  0  0  0  0  0  0  0  0  0  0  0
   36.6450   22.8800   32.2040 C   0  0  0  0  0  0  0  0  0  0  0  0
   36.6790   20.3970   35.0950 H   0  0  0  0  0  0  0  0  0  0  0  0
   35.2730   19.9240   33.1800 H   0  0  0  0  0  0  0  0  0  0  0  0
   35.2030   21.4430   31.3220 H   0  0  0  0  0  0  0  0  0  0  0  0
   40.3190   22.1590   36.5900 C   0  0  0  0  0  0  0  0  0  0  0  0
   39.8740   22.8460   37.7410 C   0  0  0  0  0  0  0  0  0  0  0  0
   38.5800   23.3120   37.7240 C   0  0  0  0  0  0  0  0  0  0  0  0
   37.7870   23.1010   36.6250 N   0  0  0  0  0  0  0  0  0  0  0  0
   38.2620   22.4320   35.5380 C   0  0  0  0  0  0  0  0  0  0  0  0
   39.5240   21.9710   35.5390 N   0  0  0  0  0  0  0  0  0  0  0  0
   41.3230   21.7470   36.4940 H   0  0  0  0  0  0  0  0  0  0  0  0
   40.5780   22.9560   38.5480 H   0  0  0  0  0  0  0  0  0  0  0  0
   38.2270   23.8350   38.5870 H   0  0  0  0  0  0  0  0  0  0  0  0
   36.5640   23.7910   31.0310 C   0  0  0  0  0  0  0  0  0  0  0  0
   36.5800   23.1410   30.1120 H   0  0  0  0  0  0  0  0  0  0  0  0
   37.4950   24.3870   30.9460 H   0  0  0  0  0  0  0  0  0  0  0  0
   35.4020   24.7170   31.0640 C   0  0  0  0  0  0  0  0  0  0  0  0
   34.6660   24.2900   30.3080 H   0  0  0  0  0  0  0  0  0  0  0  0
   34.8350   24.7910   31.9800 H   0  0  0  0  0  0  0  0  0  0  0  0
   35.7720   26.0010   30.5010 N   0  0  0  0  0  0  0  0  0  0  0  0
   35.9030   26.1350   29.4730 H   0  0  0  0  0  0  0  0  0  0  0  0
   35.9940   27.1820   31.2560 C   0  0  0  0  0  0  0  0  0  0  0  0
   35.9050   27.2240   32.3330 H   0  0  0  0  0  0  0  0  0  0  0  0
   36.3100   28.2690   30.7420 O   0  0  0  0  0  0  0  0  0  0  0  0
  2  1  1  0  0  0  0
  2  3  1  0  0  0  0
  3 15  1  0  0  0  0
  4  3  2  0  0  0  0
  4  8  1  0  0  0  0
  5  9  1  0  0  0  0
  5  4  1  0  0  0  0
  6  7  1  0  0  0  0
  6  5  2  0  0  0  0
  7  2  2  0  0  0  0
 10  6  1  0  0  0  0
 11 12  1  0  0  0  0
 12 18  1  0  0  0  0
 13 12  2  0  0  0  0
 13 19  1  0  0  0  0
 14 13  1  0  0  0  0
 15 16  1  0  0  0  0
 15 14  2  0  0  0  0
 16 11  2  0  0  0  0
 17 11  1  0  0  0  0
 20 23  1  0  0  0  0
 20  7  1  0  0  0  0
 21 20  1  0  0  0  0
 22 20  1  0  0  0  0
 23 25  1  0  0  0  0
 24 23  1  0  0  0  0
 26 23  1  0  0  0  0
 26 28  1  0  0  0  0
 27 26  1  0  0  0  0
 28 29  1  0  0  0  0
 30 28  2  0  0  0  0
M  END
>  <minimizedAffinity>
-4.67819977

$$$$

 OpenBabel03262520113D

 30 31  0  0  0  0  0  0  0  0999 V2000
   38.1690   27.2490   35.3550 Br  0  0  0  0  0  0  0  0  0  0  0  0
   37.9910   25.5170   34.5330 C   0  0  0  0  0  0  0  0  0  0  0  0
   37.6160   25.4260   33.2100 C   0  0  0  0  0  0  0  0  0  0  0  0
   37.5020   24.1700   32.6770 C   0  0  0  0  0  0  0  0  0  0  0  0
   37.7470   23.0160   33.4100 C   0  0  0  0  0  0  0  0  0  0  0  0
   38.1200   23.1680   34.7310 C   0  0  0  0  0  0  0  0  0  0  0  0
   38.2400   24.4230   35.2890 C   0  0  0  0  0  0  0  0  0  0  0  0
   37.2060   24.1200   31.6340 H   0  0  0  0  0  0  0  0  0  0  0  0
   37.6270   22.0910   32.8900 H   0  0  0  0  0  0  0  0  0  0  0  0
   38.2800   22.2070   35.1970 H   0  0  0  0  0  0  0  0  0  0  0  0
   35.8210   28.2280   31.7100 C   0  0  0  0  0  0  0  0  0  0  0  0
   36.7880   28.8640   30.9010 C   0  0  0  0  0  0  0  0  0  0  0  0
   38.0470   28.3100   30.8880 C   0  0  0  0  0  0  0  0  0  0  0  0
   38.3160   27.1930   31.6370 N   0  0  0  0  0  0  0  0  0  0  0  0
   37.3490   26.6160   32.4030 C   0  0  0  0  0  0  0  0  0  0  0  0
   36.1140   27.1450   32.4270 N   0  0  0  0  0  0  0  0  0  0  0  0
   34.7930   28.5790   31.7970 H   0  0  0  0  0  0  0  0  0  0  0  0
   36.4720   29.7340   30.3520 H   0  0  0  0  0  0  0  0  0  0  0  0
   38.7920   28.7780   30.2800 H   0  0  0  0  0  0  0  0  0  0  0  0
   38.6500   24.4430   36.7180 C   0  0  0  0  0  0  0  0  0  0  0  0
   38.2860   25.4170   37.1490 H   0  0  0  0  0  0  0  0  0  0  0  0
   39.7530   24.5170   36.7990 H   0  0  0  0  0  0  0  0  0  0  0  0
   38.1920   23.2610   37.4960 C   0  0  0  0  0  0  0  0  0  0  0  0
   37.6770   23.6960   38.4130 H   0  0  0  0  0  0  0  0  0  0  0  0
   37.4500   22.6160   37.0500 H   0  0  0  0  0  0  0  0  0  0  0  0
   39.3320   22.5510   38.0410 N   0  0  0  0  0  0  0  0  0  0  0  0
   39.3890   22.2950   39.0530 H   0  0  0  0  0  0  0  0  0  0  0  0
   40.4630   22.1380   37.2910 C   0  0  0  0  0  0  0  0  0  0  0  0
   40.5720   22.3220   36.2310 H   0  0  0  0  0  0  0  0  0  0  0  0
   41.4250   21.5290   37.7900 O   0  0  0  0  0  0  0  0  0  0  0  0
  2  7  1  0  0  0  0
  2  1  1  0  0  0  0
  3  2  2  0  0  0  0
  4  3  1  0  0  0  0
  4  5  2  0  0  0  0
  5  6  1  0  0  0  0
  6 10  1  0  0  0  0
  6  7  2  0  0  0  0
  7 20  1  0  0  0  0
  8  4  1  0  0  0  0
  9  5  1  0  0  0  0
 11 17  1  0  0  0  0
 11 16  1  0  0  0  0
 12 11  2  0  0  0  0
 13 12  1  0  0  0  0
 13 14  2  0  0  0  0
 14 15  1  0  0  0  0
 15 16  2  0  0  0  0
 15  3  1  0  0  0  0
 18 12  1  0  0  0  0
 19 13  1  0  0  0  0
 20 22  1  0  0  0  0
 20 21  1  0  0  0  0
 20 23  1  0  0  0  0
 23 26  1  0  0  0  0
 23 24  1  0  0  0  0
 25 23  1  0  0  0  0
 26 27  1  0  0  0  0
 28 30  2  0  0  0  0
 28 26  1  0  0  0  0
 29 28  1  0  0  0  0
M  END
>  <minimizedAffinity>
-4.60286522

$$$$

 OpenBabel03262520113D

 30 31  0  0  0  0  0  0  0  0999 V2000
   38.7800   27.0740   35.4600 Br  0  0  0  0  0  0  0  0  0  0  0  0
   38.3340   25.7130   34.1740 C   0  0  0  0  0  0  0  0  0  0  0  0
   38.2370   24.3990   34.5770 C   0  0  0  0  0  0  0  0  0  0  0  0
   37.9190   23.4720   33.6210 C   0  0  0  0  0  0  0  0  0  0  0  0
   37.6980   23.8080   32.2920 C   0  0  0  0  0  0  0  0  0  0  0  0
   37.8090   25.1400   31.9450 C   0  0  0  0  0  0  0  0  0  0  0  0
   38.1290   26.0900   32.8910 C   0  0  0  0  0  0  0  0  0  0  0  0
   37.8470   22.4430   33.9600 H   0  0  0  0  0  0  0  0  0  0  0  0
   37.4560   23.0020   31.6350 H   0  0  0  0  0  0  0  0  0  0  0  0
   37.6190   25.2790   30.8910 H   0  0  0  0  0  0  0  0  0  0  0  0
   39.8600   22.9980   37.5310 C   0  0  0  0  0  0  0  0  0  0  0  0
   38.9410   23.2350   38.5760 C   0  0  0  0  0  0  0  0  0  0  0  0
   37.7710   23.8770   38.2400 C   0  0  0  0  0  0  0  0  0  0  0  0
   37.5430   24.2540   36.9410 N   0  0  0  0  0  0  0  0  0  0  0  0
   38.4620   24.0030   35.9680 C   0  0  0  0  0  0  0  0  0  0  0  0
   39.6080   23.3780   36.2800 N   0  0  0  0  0  0  0  0  0  0  0  0
   40.8170   22.4980   37.6820 H   0  0  0  0  0  0  0  0  0  0  0  0
   39.2180   22.8970   39.5600 H   0  0  0  0  0  0  0  0  0  0  0  0
   37.0630   24.0640   39.0180 H   0  0  0  0  0  0  0  0  0  0  0  0
   38.2130   27.4850   32.3830 C   0  0  0  0  0  0  0  0  0  0  0  0
   39.1380   27.5440   31.7430 H   0  0  0  0  0  0  0  0  0  0  0  0
   38.4280   28.1840   33.2160 H   0  0  0  0  0  0  0  0  0  0  0  0
   36.9910   27.9460   31.6740 C   0  0  0  0  0  0  0  0  0  0  0  0
   37.2240   29.0120   31.3510 H   0  0  0  0  0  0  0  0  0  0  0  0
   36.7120   27.4430   30.7590 H   0  0  0  0  0  0  0  0  0  0  0  0
   35.8970   28.0980   32.6130 N   0  0  0  0  0  0  0  0  0  0  0  0
   35.0470   27.4920   32.5720 H   0  0  0  0  0  0  0  0  0  0  0  0
   35.8560   29.0560   33.6580 C   0  0  0  0  0  0  0  0  0  0  0  0
   36.6500   29.7670   33.8450 H   0  0  0  0  0  0  0  0  0  0  0  0
   34.9010   29.1610   34.4480 O   0  0  0  0  0  0  0  0  0  0  0  0
  2  3  1  0  0  0  0
  2  1  1  0  0  0  0
  3 15  1  0  0  0  0
  4  8  1  0  0  0  0
  4  3  2  0  0  0  0
  5  4  1  0  0  0  0
  6  5  2  0  0  0  0
  6  7  1  0  0  0  0
  7  2  2  0  0  0  0
  9  5  1  0  0  0  0
 10  6  1  0  0  0  0
 11 17  1  0  0  0  0
 11 12  1  0  0  0  0
 12 18  1  0  0  0  0
 13 12  2  0  0  0  0
 13 19  1  0  0  0  0
 14 13  1  0  0  0  0
 15 16  1  0  0  0  0
 15 14  2  0  0  0  0
 16 11  2  0  0  0  0
 20  7  1  0  0  0  0
 20 22  1  0  0  0  0
 21 20  1  0  0  0  0
 23 20  1  0  0  0  0
 23 26  1  0  0  0  0
 24 23  1  0  0  0  0
 25 23  1  0  0  0  0
 26 28  1  0  0  0  0
 27 26  1  0  0  0  0
 28 29  1  0  0  0  0
 28 30  2  0  0  0  0
M  END
>  <minimizedAffinity>
-4.48040533

$$$$

 OpenBabel03262520113D

 30 31  0  0  0  0  0  0  0  0999 V2000
   38.4130   26.4530   33.5850 Br  0  0  0  0  0  0  0  0  0  0  0  0
   37.2800   25.2160   32.6420 C   0  0  0  0  0  0  0  0  0  0  0  0
   36.3770   25.6880   31.7150 C   0  0  0  0  0  0  0  0  0  0  0  0
   35.5950   24.7640   31.0750 C   0  0  0  0  0  0  0  0  0  0  0  0
   35.6820   23.4020   31.3270 C   0  0  0  0  0  0  0  0  0  0  0  0
   36.6040   22.9850   32.2670 C   0  0  0  0  0  0  0  0  0  0  0  0
   37.4020   23.8980   32.9230 C   0  0  0  0  0  0  0  0  0  0  0  0
   34.8910   25.1580   30.3480 H   0  0  0  0  0  0  0  0  0  0  0  0
   35.0210   22.7750   30.7680 H   0  0  0  0  0  0  0  0  0  0  0  0
   36.5790   21.9110   32.3790 H   0  0  0  0  0  0  0  0  0  0  0  0
   36.8590   28.9100   30.0680 C   0  0  0  0  0  0  0  0  0  0  0  0
   36.0610   29.8030   30.8160 C   0  0  0  0  0  0  0  0  0  0  0  0
   35.3680   29.2740   31.8800 C   0  0  0  0  0  0  0  0  0  0  0  0
   35.4720   27.9380   32.1720 N   0  0  0  0  0  0  0  0  0  0  0  0
   36.2550   27.1160   31.4200 C   0  0  0  0  0  0  0  0  0  0  0  0
   36.9370   27.6170   30.3780 N   0  0  0  0  0  0  0  0  0  0  0  0
   37.4500   29.2180   29.2060 H   0  0  0  0  0  0  0  0  0  0  0  0
   36.0520   30.8320   30.5020 H   0  0  0  0  0  0  0  0  0  0  0  0
   34.7600   29.9360   32.4580 H   0  0  0  0  0  0  0  0  0  0  0  0
   38.3520   23.3140   33.9070 C   0  0  0  0  0  0  0  0  0  0  0  0
   38.4690   24.0680   34.7350 H   0  0  0  0  0  0  0  0  0  0  0  0
   39.3670   23.2490   33.4670 H   0  0  0  0  0  0  0  0  0  0  0  0
   37.9590   21.9690   34.4030 C   0  0  0  0  0  0  0  0  0  0  0  0
   36.9330   21.7770   33.9480 H   0  0  0  0  0  0  0  0  0  0  0  0
   38.5530   21.1200   34.0970 H   0  0  0  0  0  0  0  0  0  0  0  0
   37.7020   22.0180   35.8290 N   0  0  0  0  0  0  0  0  0  0  0  0
   37.4160   21.1700   36.3680 H   0  0  0  0  0  0  0  0  0  0  0  0
   37.8050   23.1850   36.6300 C   0  0  0  0  0  0  0  0  0  0  0  0
   38.0880   24.1530   36.2370 H   0  0  0  0  0  0  0  0  0  0  0  0
   37.5780   23.1940   37.8520 O   0  0  0  0  0  0  0  0  0  0  0  0
  2  7  1  0  0  0  0
  2  1  1  0  0  0  0
  3  2  2  0  0  0  0
  4  5  2  0  0  0  0
  4  3  1  0  0  0  0
  5  6  1  0  0  0  0
  6 10  1  0  0  0  0
  6  7  2  0  0  0  0
  7 20  1  0  0  0  0
  8  4  1  0  0  0  0
  9  5  1  0  0  0  0
 11 16  2  0  0  0  0
 11 12  1  0  0  0  0
 12 13  2  0  0  0  0
 13 14  1  0  0  0  0
 13 19  1  0  0  0  0
 15  3  1  0  0  0  0
 15 14  2  0  0  0  0
 16 15  1  0  0  0  0
 17 11  1  0  0  0  0
 18 12  1  0  0  0  0
 20 23  1  0  0  0  0
 20 21  1  0  0  0  0
 22 20  1  0  0  0  0
 23 26  1  0  0  0  0
 24 23  1  0  0  0  0
 25 23  1  0  0  0  0
 26 27  1  0  0  0  0
 26 28  1  0  0  0  0
 28 30  2  0  0  0  0
 29 28  1  0  0  0  0
M  END
>  <minimizedAffinity>
-4.44634342

$$$$
