
 OpenBabel03272510103D

 22 23  0  0  0  0  0  0  0  0999 V2000
   37.3160   31.1980   48.3270 C   0  0  0  0  0  0  0  0  0  0  0  0
   38.3250   32.0690   48.6790 C   0  0  0  0  0  0  0  0  0  0  0  0
   39.1130   32.7370   47.7660 C   0  0  0  0  0  0  0  0  0  0  0  0
   38.9000   32.5370   46.4140 C   0  0  0  0  0  0  0  0  0  0  0  0
   37.8870   31.6620   46.0860 C   0  0  0  0  0  0  0  0  0  0  0  0
   37.1410   31.0310   47.0070 N   0  0  0  0  0  0  0  0  0  0  0  0
   38.5280   32.2570   49.7260 H   0  0  0  0  0  0  0  0  0  0  0  0
   39.9080   33.4230   48.0270 H   0  0  0  0  0  0  0  0  0  0  0  0
   37.5950   31.3990   45.0760 H   0  0  0  0  0  0  0  0  0  0  0  0
   36.9480   30.0540   50.5500 C   0  0  0  0  0  0  0  0  0  0  0  0
   36.5010   30.5120   49.3130 C   0  0  0  0  0  0  0  0  0  0  0  0
   35.1610   30.2970   48.9850 C   0  0  0  0  0  0  0  0  0  0  0  0
   34.3820   29.6470   49.9170 N   0  0  0  0  0  0  0  0  0  0  0  0
   34.8580   29.2270   51.0920 C   0  0  0  0  0  0  0  0  0  0  0  0
   36.1420   29.4260   51.4170 N   0  0  0  0  0  0  0  0  0  0  0  0
   38.0150   30.2740   50.7040 H   0  0  0  0  0  0  0  0  0  0  0  0
   34.6790   30.5990   48.0610 H   0  0  0  0  0  0  0  0  0  0  0  0
   34.1830   28.7190   51.7800 H   0  0  0  0  0  0  0  0  0  0  0  0
   39.6070   33.1320   45.3710 O   0  0  0  0  0  0  0  0  0  0  0  0
   40.8060   32.5350   44.9640 C   0  0  0  0  0  0  0  0  0  0  0  0
   41.4520   33.0670   44.2810 H   0  0  0  0  0  0  0  0  0  0  0  0
   41.1720   31.3850   45.3650 O   0  0  0  0  0  0  0  0  0  0  0  0
  1  2  1  0  0  0  0
  1 11  1  0  0  0  0
  2  7  1  0  0  0  0
  3  8  1  0  0  0  0
  3  2  2  0  0  0  0
  4  3  1  0  0  0  0
  5  4  2  0  0  0  0
  5  6  1  0  0  0  0
  6  1  2  0  0  0  0
  9  5  1  0  0  0  0
 10 16  1  0  0  0  0
 10 15  1  0  0  0  0
 11 10  2  0  0  0  0
 12 11  1  0  0  0  0
 12 13  2  0  0  0  0
 13 14  1  0  0  0  0
 14 15  2  0  0  0  0
 14 18  1  0  0  0  0
 17 12  1  0  0  0  0
 19  4  1  0  0  0  0
 20 22  2  0  0  0  0
 20 19  1  0  0  0  0
 21 20  1  0  0  0  0
M  END
>  <minimizedAffinity>
-4.73835945

>  <minimizedRMSD>
1.19320273

$$$$
