
 OpenBabel03272510103D

 22 23  0  0  0  0  0  0  0  0999 V2000
   37.3290   31.2110   48.3220 C   0  0  0  0  0  0  0  0  0  0  0  0
   38.3450   32.0740   48.6750 C   0  0  0  0  0  0  0  0  0  0  0  0
   39.1300   32.7450   47.7620 C   0  0  0  0  0  0  0  0  0  0  0  0
   38.9060   32.5590   46.4100 C   0  0  0  0  0  0  0  0  0  0  0  0
   37.8860   31.6930   46.0810 C   0  0  0  0  0  0  0  0  0  0  0  0
   37.1430   31.0570   47.0020 N   0  0  0  0  0  0  0  0  0  0  0  0
   38.5560   32.2510   49.7220 H   0  0  0  0  0  0  0  0  0  0  0  0
   39.9300   33.4250   48.0230 H   0  0  0  0  0  0  0  0  0  0  0  0
   37.5850   31.4400   45.0710 H   0  0  0  0  0  0  0  0  0  0  0  0
   36.9660   30.0640   50.5440 C   0  0  0  0  0  0  0  0  0  0  0  0
   36.5180   30.5200   49.3080 C   0  0  0  0  0  0  0  0  0  0  0  0
   35.1790   30.2990   48.9790 C   0  0  0  0  0  0  0  0  0  0  0  0
   34.4030   29.6440   49.9120 N   0  0  0  0  0  0  0  0  0  0  0  0
   34.8800   29.2260   51.0860 C   0  0  0  0  0  0  0  0  0  0  0  0
   36.1630   29.4310   51.4110 N   0  0  0  0  0  0  0  0  0  0  0  0
   38.0320   30.2890   50.6980 H   0  0  0  0  0  0  0  0  0  0  0  0
   34.6950   30.5990   48.0560 H   0  0  0  0  0  0  0  0  0  0  0  0
   34.2080   28.7140   51.7730 H   0  0  0  0  0  0  0  0  0  0  0  0
   39.6080   33.1600   45.3680 O   0  0  0  0  0  0  0  0  0  0  0  0
   40.7600   32.5190   44.8940 C   0  0  0  0  0  0  0  0  0  0  0  0
   41.7260   32.8560   45.2370 H   0  0  0  0  0  0  0  0  0  0  0  0
   40.7180   31.5510   44.0710 O   0  0  0  0  0  0  0  0  0  0  0  0
  1  2  1  0  0  0  0
  1 11  1  0  0  0  0
  2  7  1  0  0  0  0
  3  8  1  0  0  0  0
  3  2  2  0  0  0  0
  4  3  1  0  0  0  0
  5  4  2  0  0  0  0
  5  6  1  0  0  0  0
  6  1  2  0  0  0  0
  9  5  1  0  0  0  0
 10 16  1  0  0  0  0
 10 15  1  0  0  0  0
 11 10  2  0  0  0  0
 12 11  1  0  0  0  0
 12 13  2  0  0  0  0
 13 14  1  0  0  0  0
 14 15  2  0  0  0  0
 14 18  1  0  0  0  0
 17 12  1  0  0  0  0
 19  4  1  0  0  0  0
 20 21  1  0  0  0  0
 20 19  1  0  0  0  0
 22 20  2  0  0  0  0
M  END
>  <minimizedAffinity>
-4.67828512

>  <minimizedRMSD>
1.25885963

$$$$
