
 OpenBabel03262522293D

 40 42  0  0  0  0  0  0  0  0999 V2000
   37.5220   25.9020   33.1210 C   0  0  0  0  0  0  0  0  0  0  0  0
   38.1670   26.1110   34.3480 C   0  0  0  0  0  0  0  0  0  0  0  0
   37.7940   27.2250   35.0590 C   0  0  0  0  0  0  0  0  0  0  0  0
   36.8460   28.0450   34.5460 N   0  0  0  0  0  0  0  0  0  0  0  0
   36.2660   27.8160   33.3930 C   0  0  0  0  0  0  0  0  0  0  0  0
   36.5890   26.7170   32.6240 N   0  0  0  0  0  0  0  0  0  0  0  0
   37.7780   25.0360   32.5170 H   0  0  0  0  0  0  0  0  0  0  0  0
   38.2750   27.4190   36.0200 H   0  0  0  0  0  0  0  0  0  0  0  0
   39.0960   25.2110   34.7420 O   0  0  0  0  0  0  0  0  0  0  0  0
   38.9530   24.5810   35.9800 C   0  0  0  0  0  0  0  0  0  0  0  0
   38.0150   24.8350   36.9510 C   0  0  0  0  0  0  0  0  0  0  0  0
   38.0280   24.1260   38.0890 C   0  0  0  0  0  0  0  0  0  0  0  0
   38.9820   23.1590   38.2550 C   0  0  0  0  0  0  0  0  0  0  0  0
   39.9340   22.9050   37.2610 C   0  0  0  0  0  0  0  0  0  0  0  0
   39.8860   23.6400   36.1320 N   0  0  0  0  0  0  0  0  0  0  0  0
   37.3140   25.6360   36.6850 H   0  0  0  0  0  0  0  0  0  0  0  0
   37.2660   24.3490   38.8510 H   0  0  0  0  0  0  0  0  0  0  0  0
   39.0150   22.5650   39.1720 H   0  0  0  0  0  0  0  0  0  0  0  0
   40.9730   21.8330   37.4720 C   0  0  0  0  0  0  0  0  0  0  0  0
   40.9850   21.5870   38.5500 H   0  0  0  0  0  0  0  0  0  0  0  0
   40.7120   20.9690   36.8330 H   0  0  0  0  0  0  0  0  0  0  0  0
   41.9610   22.2240   37.1640 H   0  0  0  0  0  0  0  0  0  0  0  0
   35.0430   29.0770   32.9640 S   0  0  0  0  0  0  0  0  0  0  0  0
   35.6290   30.5860   33.8230 C   0  0  0  0  0  0  0  0  0  0  0  0
   35.5170   31.4540   33.1350 H   0  0  0  0  0  0  0  0  0  0  0  0
   36.6500   30.4460   34.1940 H   0  0  0  0  0  0  0  0  0  0  0  0
   36.2760   32.4750   35.7330 F   0  0  0  0  0  0  0  0  0  0  0  0
   35.0930   31.8040   35.8290 C   0  0  0  0  0  0  0  0  0  0  0  0
   34.6550   30.8370   34.9390 C   0  0  0  0  0  0  0  0  0  0  0  0
   33.4560   30.2040   35.0970 C   0  0  0  0  0  0  0  0  0  0  0  0
   32.6140   30.5120   36.1790 C   0  0  0  0  0  0  0  0  0  0  0  0
   33.0310   31.4790   37.0880 C   0  0  0  0  0  0  0  0  0  0  0  0
   34.2570   32.0970   36.8890 C   0  0  0  0  0  0  0  0  0  0  0  0
   33.2260   29.4700   34.3370 H   0  0  0  0  0  0  0  0  0  0  0  0
   31.6750   29.9790   36.2560 H   0  0  0  0  0  0  0  0  0  0  0  0
   32.3870   31.7190   37.9200 H   0  0  0  0  0  0  0  0  0  0  0  0
   34.5870   33.0520   37.8510 O   0  0  0  0  0  0  0  0  0  0  0  0
   33.9160   34.2820   37.9090 C   0  0  0  0  0  0  0  0  0  0  0  0
   33.3080   34.6400   37.0670 H   0  0  0  0  0  0  0  0  0  0  0  0
   34.0050   35.0080   38.9550 O   0  0  0  0  0  0  0  0  0  0  0  0
  1  2  1  0  0  0  0
  2  9  1  0  0  0  0
  2  3  2  0  0  0  0
  3  8  1  0  0  0  0
  4  3  1  0  0  0  0
  5  4  2  0  0  0  0
  6  1  2  0  0  0  0
  6  5  1  0  0  0  0
  7  1  1  0  0  0  0
  9 10  1  0  0  0  0
 10 15  2  0  0  0  0
 10 11  1  0  0  0  0
 11 12  2  0  0  0  0
 12 13  1  0  0  0  0
 12 17  1  0  0  0  0
 13 18  1  0  0  0  0
 14 19  1  0  0  0  0
 14 13  2  0  0  0  0
 15 14  1  0  0  0  0
 16 11  1  0  0  0  0
 19 20  1  0  0  0  0
 21 19  1  0  0  0  0
 22 19  1  0  0  0  0
 23  5  1  0  0  0  0
 23 24  1  0  0  0  0
 24 26  1  0  0  0  0
 24 29  1  0  0  0  0
 25 24  1  0  0  0  0
 27 28  1  0  0  0  0
 28 33  1  0  0  0  0
 29 30  1  0  0  0  0
 29 28  2  0  0  0  0
 30 31  2  0  0  0  0
 31 35  1  0  0  0  0
 31 32  1  0  0  0  0
 32 36  1  0  0  0  0
 33 32  2  0  0  0  0
 33 37  1  0  0  0  0
 34 30  1  0  0  0  0
 37 38  1  0  0  0  0
 38 40  2  0  0  0  0
 39 38  1  0  0  0  0
M  END
>  <minimizedAffinity>
-5.84465075

$$$$

 OpenBabel03262522293D

 40 42  0  0  0  0  0  0  0  0999 V2000
   37.0320   25.4110   32.9420 C   0  0  0  0  0  0  0  0  0  0  0  0
   38.0620   25.5150   33.8880 C   0  0  0  0  0  0  0  0  0  0  0  0
   38.3680   26.7790   34.3290 C   0  0  0  0  0  0  0  0  0  0  0  0
   37.6760   27.8340   33.8360 N   0  0  0  0  0  0  0  0  0  0  0  0
   36.7190   27.6950   32.9500 C   0  0  0  0  0  0  0  0  0  0  0  0
   36.3560   26.4570   32.4620 N   0  0  0  0  0  0  0  0  0  0  0  0
   36.7480   24.4350   32.5590 H   0  0  0  0  0  0  0  0  0  0  0  0
   39.1650   26.8990   35.0670 H   0  0  0  0  0  0  0  0  0  0  0  0
   38.6700   24.3800   34.2970 O   0  0  0  0  0  0  0  0  0  0  0  0
   38.6730   24.0580   35.6560 C   0  0  0  0  0  0  0  0  0  0  0  0
   37.7880   24.4730   36.6200 C   0  0  0  0  0  0  0  0  0  0  0  0
   37.9450   24.0610   37.8870 C   0  0  0  0  0  0  0  0  0  0  0  0
   38.9890   23.2290   38.1880 C   0  0  0  0  0  0  0  0  0  0  0  0
   39.8860   22.8090   37.1990 C   0  0  0  0  0  0  0  0  0  0  0  0
   39.6940   23.2470   35.9380 N   0  0  0  0  0  0  0  0  0  0  0  0
   37.0010   25.1360   36.2390 H   0  0  0  0  0  0  0  0  0  0  0  0
   37.2220   24.4080   38.6410 H   0  0  0  0  0  0  0  0  0  0  0  0
   39.1390   22.8770   39.2120 H   0  0  0  0  0  0  0  0  0  0  0  0
   41.0280   21.8930   37.5600 C   0  0  0  0  0  0  0  0  0  0  0  0
   41.1380   21.9160   38.6600 H   0  0  0  0  0  0  0  0  0  0  0  0
   40.7990   20.8850   37.1670 H   0  0  0  0  0  0  0  0  0  0  0  0
   41.9530   22.2660   37.0810 H   0  0  0  0  0  0  0  0  0  0  0  0
   35.9740   29.2730   32.4760 S   0  0  0  0  0  0  0  0  0  0  0  0
   34.3810   29.3110   33.3810 C   0  0  0  0  0  0  0  0  0  0  0  0
   34.1990   28.3070   33.8260 H   0  0  0  0  0  0  0  0  0  0  0  0
   33.5730   29.6550   32.7260 H   0  0  0  0  0  0  0  0  0  0  0  0
   32.2080   29.9090   34.9820 F   0  0  0  0  0  0  0  0  0  0  0  0
   33.4250   30.4530   35.2720 C   0  0  0  0  0  0  0  0  0  0  0  0
   34.5860   30.2320   34.5500 C   0  0  0  0  0  0  0  0  0  0  0  0
   35.7720   30.8100   34.9000 C   0  0  0  0  0  0  0  0  0  0  0  0
   35.8590   31.6610   36.0160 C   0  0  0  0  0  0  0  0  0  0  0  0
   34.7070   31.8990   36.7580 C   0  0  0  0  0  0  0  0  0  0  0  0
   33.5230   31.2900   36.3670 C   0  0  0  0  0  0  0  0  0  0  0  0
   36.6060   30.5610   34.2590 H   0  0  0  0  0  0  0  0  0  0  0  0
   36.8250   32.0920   36.2470 H   0  0  0  0  0  0  0  0  0  0  0  0
   34.7700   32.5510   37.6160 H   0  0  0  0  0  0  0  0  0  0  0  0
   32.4240   31.5900   37.1720 O   0  0  0  0  0  0  0  0  0  0  0  0
   31.5070   32.5830   36.8030 C   0  0  0  0  0  0  0  0  0  0  0  0
   30.5930   32.3380   36.2460 H   0  0  0  0  0  0  0  0  0  0  0  0
   31.7270   33.8020   37.1140 O   0  0  0  0  0  0  0  0  0  0  0  0
  1  2  1  0  0  0  0
  2  9  1  0  0  0  0
  2  3  2  0  0  0  0
  3  8  1  0  0  0  0
  4  3  1  0  0  0  0
  5  4  2  0  0  0  0
  6  1  2  0  0  0  0
  6  5  1  0  0  0  0
  7  1  1  0  0  0  0
  9 10  1  0  0  0  0
 10 15  2  0  0  0  0
 10 11  1  0  0  0  0
 11 12  2  0  0  0  0
 12 13  1  0  0  0  0
 12 17  1  0  0  0  0
 13 18  1  0  0  0  0
 14 19  1  0  0  0  0
 14 13  2  0  0  0  0
 15 14  1  0  0  0  0
 16 11  1  0  0  0  0
 19 20  1  0  0  0  0
 21 19  1  0  0  0  0
 22 19  1  0  0  0  0
 23  5  1  0  0  0  0
 23 24  1  0  0  0  0
 24 25  1  0  0  0  0
 24 29  1  0  0  0  0
 26 24  1  0  0  0  0
 27 28  1  0  0  0  0
 28 33  1  0  0  0  0
 29 30  1  0  0  0  0
 29 28  2  0  0  0  0
 30 31  2  0  0  0  0
 31 35  1  0  0  0  0
 31 32  1  0  0  0  0
 32 36  1  0  0  0  0
 33 32  2  0  0  0  0
 33 37  1  0  0  0  0
 34 30  1  0  0  0  0
 38 40  2  0  0  0  0
 38 37  1  0  0  0  0
 39 38  1  0  0  0  0
M  END
>  <minimizedAffinity>
-5.72610569

$$$$

 OpenBabel03262522293D

 40 42  0  0  0  0  0  0  0  0999 V2000
   36.1210   25.1090   31.7050 C   0  0  0  0  0  0  0  0  0  0  0  0
   36.4830   23.8940   31.1060 C   0  0  0  0  0  0  0  0  0  0  0  0
   37.8090   23.7380   30.7830 C   0  0  0  0  0  0  0  0  0  0  0  0
   38.6750   24.7430   31.0550 N   0  0  0  0  0  0  0  0  0  0  0  0
   38.2970   25.8650   31.6170 C   0  0  0  0  0  0  0  0  0  0  0  0
   36.9820   26.0940   31.9680 N   0  0  0  0  0  0  0  0  0  0  0  0
   35.0860   25.2870   31.9810 H   0  0  0  0  0  0  0  0  0  0  0  0
   38.1280   22.8040   30.3150 H   0  0  0  0  0  0  0  0  0  0  0  0
   35.5170   22.9740   30.8920 O   0  0  0  0  0  0  0  0  0  0  0  0
   35.6580   21.6960   31.4370 C   0  0  0  0  0  0  0  0  0  0  0  0
   35.8500   20.5130   30.7670 C   0  0  0  0  0  0  0  0  0  0  0  0
   35.9650   19.3700   31.4590 C   0  0  0  0  0  0  0  0  0  0  0  0
   35.8900   19.4120   32.8240 C   0  0  0  0  0  0  0  0  0  0  0  0
   35.6950   20.6220   33.5000 C   0  0  0  0  0  0  0  0  0  0  0  0
   35.5840   21.7490   32.7670 N   0  0  0  0  0  0  0  0  0  0  0  0
   35.8900   20.6260   29.6760 H   0  0  0  0  0  0  0  0  0  0  0  0
   36.1180   18.4350   30.8980 H   0  0  0  0  0  0  0  0  0  0  0  0
   35.9820   18.4950   33.4130 H   0  0  0  0  0  0  0  0  0  0  0  0
   35.6160   20.6380   35.0060 C   0  0  0  0  0  0  0  0  0  0  0  0
   35.4460   19.5980   35.3410 H   0  0  0  0  0  0  0  0  0  0  0  0
   36.5550   21.0720   35.3960 H   0  0  0  0  0  0  0  0  0  0  0  0
   34.7670   21.2770   35.3130 H   0  0  0  0  0  0  0  0  0  0  0  0
   39.6670   27.0210   31.8570 S   0  0  0  0  0  0  0  0  0  0  0  0
   40.6920   26.2420   33.1610 C   0  0  0  0  0  0  0  0  0  0  0  0
   41.4920   26.9560   33.4600 H   0  0  0  0  0  0  0  0  0  0  0  0
   41.0700   25.2710   32.8260 H   0  0  0  0  0  0  0  0  0  0  0  0
   40.3550   23.7390   34.2850 F   0  0  0  0  0  0  0  0  0  0  0  0
   39.7190   24.8130   34.8360 C   0  0  0  0  0  0  0  0  0  0  0  0
   39.8060   26.1130   34.3680 C   0  0  0  0  0  0  0  0  0  0  0  0
   39.1400   27.1410   34.9710 C   0  0  0  0  0  0  0  0  0  0  0  0
   38.3320   26.9140   36.1000 C   0  0  0  0  0  0  0  0  0  0  0  0
   38.2280   25.6170   36.5890 C   0  0  0  0  0  0  0  0  0  0  0  0
   38.9220   24.6030   35.9450 C   0  0  0  0  0  0  0  0  0  0  0  0
   39.2880   28.1090   34.5140 H   0  0  0  0  0  0  0  0  0  0  0  0
   37.8270   27.7660   36.5370 H   0  0  0  0  0  0  0  0  0  0  0  0
   37.6100   25.4390   37.4560 H   0  0  0  0  0  0  0  0  0  0  0  0
   38.7550   23.3380   36.5090 O   0  0  0  0  0  0  0  0  0  0  0  0
   39.6450   22.8560   37.4790 C   0  0  0  0  0  0  0  0  0  0  0  0
   39.6410   23.2510   38.5040 H   0  0  0  0  0  0  0  0  0  0  0  0
   40.4820   21.9400   37.1780 O   0  0  0  0  0  0  0  0  0  0  0  0
  1  6  1  0  0  0  0
  1  7  1  0  0  0  0
  2  1  2  0  0  0  0
  3  4  2  0  0  0  0
  3  2  1  0  0  0  0
  4  5  1  0  0  0  0
  5 23  1  0  0  0  0
  5  6  2  0  0  0  0
  8  3  1  0  0  0  0
  9  2  1  0  0  0  0
  9 10  1  0  0  0  0
 10 15  1  0  0  0  0
 11 10  2  0  0  0  0
 11 12  1  0  0  0  0
 12 13  2  0  0  0  0
 13 18  1  0  0  0  0
 13 14  1  0  0  0  0
 14 19  1  0  0  0  0
 15 14  2  0  0  0  0
 16 11  1  0  0  0  0
 17 12  1  0  0  0  0
 19 22  1  0  0  0  0
 19 20  1  0  0  0  0
 19 21  1  0  0  0  0
 23 24  1  0  0  0  0
 24 25  1  0  0  0  0
 24 29  1  0  0  0  0
 26 24  1  0  0  0  0
 27 28  1  0  0  0  0
 28 33  1  0  0  0  0
 29 28  2  0  0  0  0
 29 30  1  0  0  0  0
 30 31  2  0  0  0  0
 31 35  1  0  0  0  0
 31 32  1  0  0  0  0
 32 36  1  0  0  0  0
 33 37  1  0  0  0  0
 33 32  2  0  0  0  0
 34 30  1  0  0  0  0
 37 38  1  0  0  0  0
 38 39  1  0  0  0  0
 40 38  2  0  0  0  0
M  END
>  <minimizedAffinity>
-5.59608984

$$$$

 OpenBabel03262522293D

 40 42  0  0  0  0  0  0  0  0999 V2000
   35.5960   28.5830   32.3530 C   0  0  0  0  0  0  0  0  0  0  0  0
   35.6570   29.2870   33.5650 C   0  0  0  0  0  0  0  0  0  0  0  0
   36.3530   28.6910   34.5880 C   0  0  0  0  0  0  0  0  0  0  0  0
   36.9280   27.4830   34.3780 N   0  0  0  0  0  0  0  0  0  0  0  0
   36.8480   26.8570   33.2290 C   0  0  0  0  0  0  0  0  0  0  0  0
   36.1660   27.3930   32.1560 N   0  0  0  0  0  0  0  0  0  0  0  0
   35.0590   29.0070   31.5090 H   0  0  0  0  0  0  0  0  0  0  0  0
   36.4220   29.2100   35.5470 H   0  0  0  0  0  0  0  0  0  0  0  0
   35.0380   30.4860   33.6390 O   0  0  0  0  0  0  0  0  0  0  0  0
   34.6300   30.9670   34.8850 C   0  0  0  0  0  0  0  0  0  0  0  0
   35.3240   31.7930   35.7350 C   0  0  0  0  0  0  0  0  0  0  0  0
   34.7730   32.1580   36.9030 C   0  0  0  0  0  0  0  0  0  0  0  0
   33.5240   31.6960   37.2180 C   0  0  0  0  0  0  0  0  0  0  0  0
   32.8230   30.8560   36.3450 C   0  0  0  0  0  0  0  0  0  0  0  0
   33.4130   30.5120   35.1820 N   0  0  0  0  0  0  0  0  0  0  0  0
   36.3110   32.0860   35.3560 H   0  0  0  0  0  0  0  0  0  0  0  0
   35.3500   32.8200   37.5660 H   0  0  0  0  0  0  0  0  0  0  0  0
   33.0510   31.9790   38.1620 H   0  0  0  0  0  0  0  0  0  0  0  0
   31.4480   30.3620   36.7200 C   0  0  0  0  0  0  0  0  0  0  0  0
   31.3160   30.5350   37.8040 H   0  0  0  0  0  0  0  0  0  0  0  0
   30.7080   30.9010   36.1000 H   0  0  0  0  0  0  0  0  0  0  0  0
   31.3840   29.2800   36.5000 H   0  0  0  0  0  0  0  0  0  0  0  0
   37.7100   25.2670   33.2400 S   0  0  0  0  0  0  0  0  0  0  0  0
   39.2010   25.5690   34.2620 C   0  0  0  0  0  0  0  0  0  0  0  0
   39.2070   26.6350   34.5790 H   0  0  0  0  0  0  0  0  0  0  0  0
   40.1050   25.2640   33.7240 H   0  0  0  0  0  0  0  0  0  0  0  0
   40.5940   23.2000   34.5610 F   0  0  0  0  0  0  0  0  0  0  0  0
   39.7580   23.6160   35.5550 C   0  0  0  0  0  0  0  0  0  0  0  0
   39.0070   24.7800   35.5260 C   0  0  0  0  0  0  0  0  0  0  0  0
   38.1900   25.1350   36.5600 C   0  0  0  0  0  0  0  0  0  0  0  0
   38.0780   24.3240   37.7030 C   0  0  0  0  0  0  0  0  0  0  0  0
   38.8220   23.1500   37.7570 C   0  0  0  0  0  0  0  0  0  0  0  0
   39.6400   22.8280   36.6840 C   0  0  0  0  0  0  0  0  0  0  0  0
   37.6570   26.0650   36.4190 H   0  0  0  0  0  0  0  0  0  0  0  0
   37.4150   24.6540   38.4930 H   0  0  0  0  0  0  0  0  0  0  0  0
   38.7390   22.5260   38.6330 H   0  0  0  0  0  0  0  0  0  0  0  0
   40.3450   21.6340   36.8310 O   0  0  0  0  0  0  0  0  0  0  0  0
   41.5980   21.6070   37.4590 C   0  0  0  0  0  0  0  0  0  0  0  0
   41.6980   21.3460   38.5210 H   0  0  0  0  0  0  0  0  0  0  0  0
   42.6500   21.8890   36.7950 O   0  0  0  0  0  0  0  0  0  0  0  0
  1  2  1  0  0  0  0
  2  9  1  0  0  0  0
  2  3  2  0  0  0  0
  3  8  1  0  0  0  0
  4  3  1  0  0  0  0
  5 23  1  0  0  0  0
  5  4  2  0  0  0  0
  6  1  2  0  0  0  0
  6  5  1  0  0  0  0
  7  1  1  0  0  0  0
  9 10  1  0  0  0  0
 10 15  2  0  0  0  0
 10 11  1  0  0  0  0
 11 12  2  0  0  0  0
 12 13  1  0  0  0  0
 12 17  1  0  0  0  0
 13 18  1  0  0  0  0
 14 19  1  0  0  0  0
 14 13  2  0  0  0  0
 15 14  1  0  0  0  0
 16 11  1  0  0  0  0
 19 20  1  0  0  0  0
 21 19  1  0  0  0  0
 22 19  1  0  0  0  0
 23 24  1  0  0  0  0
 24 25  1  0  0  0  0
 24 29  1  0  0  0  0
 26 24  1  0  0  0  0
 27 28  1  0  0  0  0
 28 33  1  0  0  0  0
 29 28  2  0  0  0  0
 29 30  1  0  0  0  0
 30 31  2  0  0  0  0
 31 32  1  0  0  0  0
 31 35  1  0  0  0  0
 32 36  1  0  0  0  0
 33 37  1  0  0  0  0
 33 32  2  0  0  0  0
 34 30  1  0  0  0  0
 37 38  1  0  0  0  0
 38 39  1  0  0  0  0
 40 38  2  0  0  0  0
M  END
>  <minimizedAffinity>
-5.58019924

$$$$

 OpenBabel03262522293D

 40 42  0  0  0  0  0  0  0  0999 V2000
   36.2100   24.8310   31.9290 C   0  0  0  0  0  0  0  0  0  0  0  0
   36.6350   23.6770   31.2540 C   0  0  0  0  0  0  0  0  0  0  0  0
   37.9800   23.5740   30.9960 C   0  0  0  0  0  0  0  0  0  0  0  0
   38.8050   24.5710   31.3970 N   0  0  0  0  0  0  0  0  0  0  0  0
   38.3680   25.6350   32.0260 C   0  0  0  0  0  0  0  0  0  0  0  0
   37.0310   25.8080   32.3190 N   0  0  0  0  0  0  0  0  0  0  0  0
   35.1570   24.9650   32.1590 H   0  0  0  0  0  0  0  0  0  0  0  0
   38.3470   22.6890   30.4730 H   0  0  0  0  0  0  0  0  0  0  0  0
   35.7040   22.7590   30.9120 O   0  0  0  0  0  0  0  0  0  0  0  0
   35.7310   21.5020   31.5190 C   0  0  0  0  0  0  0  0  0  0  0  0
   35.3800   21.1830   32.8080 C   0  0  0  0  0  0  0  0  0  0  0  0
   35.4690   19.9110   33.2250 C   0  0  0  0  0  0  0  0  0  0  0  0
   35.9080   18.9560   32.3480 C   0  0  0  0  0  0  0  0  0  0  0  0
   36.2630   19.2890   31.0360 C   0  0  0  0  0  0  0  0  0  0  0  0
   36.1590   20.5790   30.6560 N   0  0  0  0  0  0  0  0  0  0  0  0
   35.0470   22.0450   33.3990 H   0  0  0  0  0  0  0  0  0  0  0  0
   35.1830   19.6820   34.2620 H   0  0  0  0  0  0  0  0  0  0  0  0
   35.9890   17.9120   32.6610 H   0  0  0  0  0  0  0  0  0  0  0  0
   36.7430   18.2160   30.0920 C   0  0  0  0  0  0  0  0  0  0  0  0
   37.0100   17.3320   30.7010 H   0  0  0  0  0  0  0  0  0  0  0  0
   35.9380   18.0130   29.3610 H   0  0  0  0  0  0  0  0  0  0  0  0
   37.6360   18.5860   29.5530 H   0  0  0  0  0  0  0  0  0  0  0  0
   39.6940   26.7950   32.4360 S   0  0  0  0  0  0  0  0  0  0  0  0
   39.5200   27.0600   34.2410 C   0  0  0  0  0  0  0  0  0  0  0  0
   38.4490   27.2560   34.4720 H   0  0  0  0  0  0  0  0  0  0  0  0
   40.1960   27.8510   34.5820 H   0  0  0  0  0  0  0  0  0  0  0  0
   37.5370   25.8210   35.7150 F   0  0  0  0  0  0  0  0  0  0  0  0
   38.7570   25.2230   35.5970 C   0  0  0  0  0  0  0  0  0  0  0  0
   39.8290   25.7400   34.8890 C   0  0  0  0  0  0  0  0  0  0  0  0
   41.0240   25.0840   34.8130 C   0  0  0  0  0  0  0  0  0  0  0  0
   41.2130   23.8490   35.4570 C   0  0  0  0  0  0  0  0  0  0  0  0
   40.1510   23.3080   36.1750 C   0  0  0  0  0  0  0  0  0  0  0  0
   38.9550   24.0080   36.2260 C   0  0  0  0  0  0  0  0  0  0  0  0
   41.7830   25.5890   34.2310 H   0  0  0  0  0  0  0  0  0  0  0  0
   42.1810   23.3740   35.3640 H   0  0  0  0  0  0  0  0  0  0  0  0
   40.2920   22.3600   36.6710 H   0  0  0  0  0  0  0  0  0  0  0  0
   37.9510   23.3870   36.9690 O   0  0  0  0  0  0  0  0  0  0  0  0
   37.8940   23.5230   38.3630 C   0  0  0  0  0  0  0  0  0  0  0  0
   37.7470   22.6530   39.0160 H   0  0  0  0  0  0  0  0  0  0  0  0
   38.0130   24.6770   38.8960 O   0  0  0  0  0  0  0  0  0  0  0  0
  1  7  1  0  0  0  0
  1  6  1  0  0  0  0
  2  1  2  0  0  0  0
  3  2  1  0  0  0  0
  3  4  2  0  0  0  0
  4  5  1  0  0  0  0
  5  6  2  0  0  0  0
  5 23  1  0  0  0  0
  8  3  1  0  0  0  0
  9  2  1  0  0  0  0
  9 10  1  0  0  0  0
 10 11  1  0  0  0  0
 11 12  2  0  0  0  0
 11 16  1  0  0  0  0
 12 17  1  0  0  0  0
 13 18  1  0  0  0  0
 13 12  1  0  0  0  0
 14 13  2  0  0  0  0
 15 14  1  0  0  0  0
 15 10  2  0  0  0  0
 19 20  1  0  0  0  0
 19 14  1  0  0  0  0
 21 19  1  0  0  0  0
 22 19  1  0  0  0  0
 23 24  1  0  0  0  0
 24 25  1  0  0  0  0
 24 26  1  0  0  0  0
 24 29  1  0  0  0  0
 28 27  1  0  0  0  0
 28 33  1  0  0  0  0
 29 28  2  0  0  0  0
 30 29  1  0  0  0  0
 30 31  2  0  0  0  0
 31 32  1  0  0  0  0
 32 33  2  0  0  0  0
 32 36  1  0  0  0  0
 33 37  1  0  0  0  0
 34 30  1  0  0  0  0
 35 31  1  0  0  0  0
 37 38  1  0  0  0  0
 38 40  2  0  0  0  0
 38 39  1  0  0  0  0
M  END
>  <minimizedAffinity>
-5.513556

$$$$

 OpenBabel03262522293D

 40 42  0  0  0  0  0  0  0  0999 V2000
   35.4770   25.7150   31.1650 C   0  0  0  0  0  0  0  0  0  0  0  0
   36.8190   26.1110   31.2580 C   0  0  0  0  0  0  0  0  0  0  0  0
   37.7550   25.1080   31.3170 C   0  0  0  0  0  0  0  0  0  0  0  0
   37.3400   23.8190   31.2840 N   0  0  0  0  0  0  0  0  0  0  0  0
   36.0740   23.4890   31.1970 C   0  0  0  0  0  0  0  0  0  0  0  0
   35.0790   24.4420   31.1340 N   0  0  0  0  0  0  0  0  0  0  0  0
   34.6950   26.4670   31.1160 H   0  0  0  0  0  0  0  0  0  0  0  0
   38.8110   25.3790   31.3890 H   0  0  0  0  0  0  0  0  0  0  0  0
   37.0940   27.4340   31.2810 O   0  0  0  0  0  0  0  0  0  0  0  0
   36.5980   28.2170   32.3250 C   0  0  0  0  0  0  0  0  0  0  0  0
   36.6660   27.9630   33.6730 C   0  0  0  0  0  0  0  0  0  0  0  0
   36.1290   28.8330   34.5410 C   0  0  0  0  0  0  0  0  0  0  0  0
   35.5240   29.9620   34.0580 C   0  0  0  0  0  0  0  0  0  0  0  0
   35.4590   30.2140   32.6830 C   0  0  0  0  0  0  0  0  0  0  0  0
   36.0100   29.3140   31.8440 N   0  0  0  0  0  0  0  0  0  0  0  0
   37.1780   27.0240   33.9180 H   0  0  0  0  0  0  0  0  0  0  0  0
   36.1980   28.6060   35.6160 H   0  0  0  0  0  0  0  0  0  0  0  0
   35.0790   30.6890   34.7430 H   0  0  0  0  0  0  0  0  0  0  0  0
   34.7850   31.4650   32.1800 C   0  0  0  0  0  0  0  0  0  0  0  0
   34.1790   31.8740   33.0100 H   0  0  0  0  0  0  0  0  0  0  0  0
   35.5690   32.1620   31.8290 H   0  0  0  0  0  0  0  0  0  0  0  0
   34.1290   31.2020   31.3290 H   0  0  0  0  0  0  0  0  0  0  0  0
   35.8210   21.6990   31.1720 S   0  0  0  0  0  0  0  0  0  0  0  0
   37.2450   21.0270   32.1100 C   0  0  0  0  0  0  0  0  0  0  0  0
   38.1160   21.7060   31.9710 H   0  0  0  0  0  0  0  0  0  0  0  0
   37.4430   19.9900   31.8190 H   0  0  0  0  0  0  0  0  0  0  0  0
   38.9120   22.4730   33.7750 F   0  0  0  0  0  0  0  0  0  0  0  0
   37.7910   21.8900   34.2900 C   0  0  0  0  0  0  0  0  0  0  0  0
   36.8800   21.1420   33.5630 C   0  0  0  0  0  0  0  0  0  0  0  0
   35.7770   20.5880   34.1460 C   0  0  0  0  0  0  0  0  0  0  0  0
   35.5250   20.7540   35.5190 C   0  0  0  0  0  0  0  0  0  0  0  0
   36.4260   21.5000   36.2710 C   0  0  0  0  0  0  0  0  0  0  0  0
   37.5330   22.0470   35.6380 C   0  0  0  0  0  0  0  0  0  0  0  0
   35.1410   20.0280   33.4740 H   0  0  0  0  0  0  0  0  0  0  0  0
   34.6360   20.2920   35.9280 H   0  0  0  0  0  0  0  0  0  0  0  0
   36.2350   21.6310   37.3250 H   0  0  0  0  0  0  0  0  0  0  0  0
   38.3770   22.7770   36.4740 O   0  0  0  0  0  0  0  0  0  0  0  0
   37.9700   24.0040   37.0180 C   0  0  0  0  0  0  0  0  0  0  0  0
   37.8710   24.9010   36.3920 H   0  0  0  0  0  0  0  0  0  0  0  0
   37.7070   24.0930   38.2640 O   0  0  0  0  0  0  0  0  0  0  0  0
  1  2  1  0  0  0  0
  2  9  1  0  0  0  0
  2  3  2  0  0  0  0
  3  8  1  0  0  0  0
  4  3  1  0  0  0  0
  5  4  2  0  0  0  0
  6  1  2  0  0  0  0
  6  5  1  0  0  0  0
  7  1  1  0  0  0  0
  9 10  1  0  0  0  0
 10 11  1  0  0  0  0
 11 16  1  0  0  0  0
 11 12  2  0  0  0  0
 12 17  1  0  0  0  0
 13 12  1  0  0  0  0
 13 18  1  0  0  0  0
 14 13  2  0  0  0  0
 15 10  2  0  0  0  0
 15 14  1  0  0  0  0
 19 14  1  0  0  0  0
 19 20  1  0  0  0  0
 21 19  1  0  0  0  0
 22 19  1  0  0  0  0
 23  5  1  0  0  0  0
 23 24  1  0  0  0  0
 24 29  1  0  0  0  0
 25 24  1  0  0  0  0
 26 24  1  0  0  0  0
 27 28  1  0  0  0  0
 28 33  1  0  0  0  0
 29 30  1  0  0  0  0
 29 28  2  0  0  0  0
 30 31  2  0  0  0  0
 31 35  1  0  0  0  0
 31 32  1  0  0  0  0
 32 36  1  0  0  0  0
 33 32  2  0  0  0  0
 33 37  1  0  0  0  0
 34 30  1  0  0  0  0
 37 38  1  0  0  0  0
 38 40  2  0  0  0  0
 39 38  1  0  0  0  0
M  END
>  <minimizedAffinity>
-5.40529585

$$$$

 OpenBabel03262522293D

 40 42  0  0  0  0  0  0  0  0999 V2000
   34.9300   28.7250   32.3210 C   0  0  0  0  0  0  0  0  0  0  0  0
   34.8310   29.3500   33.5730 C   0  0  0  0  0  0  0  0  0  0  0  0
   35.8350   29.0880   34.4720 C   0  0  0  0  0  0  0  0  0  0  0  0
   36.8430   28.2580   34.1110 N   0  0  0  0  0  0  0  0  0  0  0  0
   36.8990   27.6930   32.9300 C   0  0  0  0  0  0  0  0  0  0  0  0
   35.9270   27.9090   31.9740 N   0  0  0  0  0  0  0  0  0  0  0  0
   34.1640   28.8970   31.5700 H   0  0  0  0  0  0  0  0  0  0  0  0
   35.7910   29.5570   35.4580 H   0  0  0  0  0  0  0  0  0  0  0  0
   33.7710   30.1560   33.8020 O   0  0  0  0  0  0  0  0  0  0  0  0
   33.1160   30.0890   35.0340 C   0  0  0  0  0  0  0  0  0  0  0  0
   33.1010   31.0330   36.0310 C   0  0  0  0  0  0  0  0  0  0  0  0
   32.4130   30.7980   37.1580 C   0  0  0  0  0  0  0  0  0  0  0  0
   31.7370   29.6150   37.2860 C   0  0  0  0  0  0  0  0  0  0  0  0
   31.7570   28.6570   36.2650 C   0  0  0  0  0  0  0  0  0  0  0  0
   32.4610   28.9330   35.1480 N   0  0  0  0  0  0  0  0  0  0  0  0
   33.6850   31.9320   35.7940 H   0  0  0  0  0  0  0  0  0  0  0  0
   32.4170   31.5700   37.9410 H   0  0  0  0  0  0  0  0  0  0  0  0
   31.1670   29.3980   38.1930 H   0  0  0  0  0  0  0  0  0  0  0  0
   31.0030   27.3620   36.4340 C   0  0  0  0  0  0  0  0  0  0  0  0
   30.7620   27.2560   37.5080 H   0  0  0  0  0  0  0  0  0  0  0  0
   30.1060   27.3990   35.7890 H   0  0  0  0  0  0  0  0  0  0  0  0
   31.6490   26.5260   36.1080 H   0  0  0  0  0  0  0  0  0  0  0  0
   38.3550   26.6400   32.7300 S   0  0  0  0  0  0  0  0  0  0  0  0
   39.3930   27.0210   34.1910 C   0  0  0  0  0  0  0  0  0  0  0  0
   38.7610   27.5220   34.9570 H   0  0  0  0  0  0  0  0  0  0  0  0
   40.2740   27.6020   33.8980 H   0  0  0  0  0  0  0  0  0  0  0  0
   37.6050   25.7990   35.9090 F   0  0  0  0  0  0  0  0  0  0  0  0
   38.7930   25.1890   35.6330 C   0  0  0  0  0  0  0  0  0  0  0  0
   39.7700   25.6960   34.7920 C   0  0  0  0  0  0  0  0  0  0  0  0
   40.9380   25.0290   34.5610 C   0  0  0  0  0  0  0  0  0  0  0  0
   41.1960   23.7910   35.1750 C   0  0  0  0  0  0  0  0  0  0  0  0
   40.2310   23.2590   36.0240 C   0  0  0  0  0  0  0  0  0  0  0  0
   39.0580   23.9710   36.2300 C   0  0  0  0  0  0  0  0  0  0  0  0
   41.6210   25.5270   33.8860 H   0  0  0  0  0  0  0  0  0  0  0  0
   42.1390   23.3060   34.9570 H   0  0  0  0  0  0  0  0  0  0  0  0
   40.4250   22.3090   36.4960 H   0  0  0  0  0  0  0  0  0  0  0  0
   38.1530   23.3580   37.0960 O   0  0  0  0  0  0  0  0  0  0  0  0
   38.2310   23.5560   38.4820 C   0  0  0  0  0  0  0  0  0  0  0  0
   38.4880   22.7330   39.1620 H   0  0  0  0  0  0  0  0  0  0  0  0
   38.0010   24.7110   38.9750 O   0  0  0  0  0  0  0  0  0  0  0  0
  1  2  1  0  0  0  0
  2  9  1  0  0  0  0
  2  3  2  0  0  0  0
  3  8  1  0  0  0  0
  4  3  1  0  0  0  0
  5  4  2  0  0  0  0
  6  1  2  0  0  0  0
  6  5  1  0  0  0  0
  7  1  1  0  0  0  0
  9 10  1  0  0  0  0
 10 15  2  0  0  0  0
 10 11  1  0  0  0  0
 11 12  2  0  0  0  0
 12 13  1  0  0  0  0
 12 17  1  0  0  0  0
 13 18  1  0  0  0  0
 14 19  1  0  0  0  0
 14 13  2  0  0  0  0
 15 14  1  0  0  0  0
 16 11  1  0  0  0  0
 19 20  1  0  0  0  0
 21 19  1  0  0  0  0
 22 19  1  0  0  0  0
 23  5  1  0  0  0  0
 23 24  1  0  0  0  0
 24 29  1  0  0  0  0
 24 25  1  0  0  0  0
 26 24  1  0  0  0  0
 28 27  1  0  0  0  0
 28 33  1  0  0  0  0
 29 28  2  0  0  0  0
 30 29  1  0  0  0  0
 30 31  2  0  0  0  0
 31 32  1  0  0  0  0
 32 33  2  0  0  0  0
 32 36  1  0  0  0  0
 33 37  1  0  0  0  0
 34 30  1  0  0  0  0
 35 31  1  0  0  0  0
 37 38  1  0  0  0  0
 38 40  2  0  0  0  0
 38 39  1  0  0  0  0
M  END
>  <minimizedAffinity>
-5.38299751

$$$$

 OpenBabel03262522293D

 40 42  0  0  0  0  0  0  0  0999 V2000
   36.0500   28.4510   33.9560 C   0  0  0  0  0  0  0  0  0  0  0  0
   35.7830   29.4210   32.9800 C   0  0  0  0  0  0  0  0  0  0  0  0
   36.4970   29.3310   31.8110 C   0  0  0  0  0  0  0  0  0  0  0  0
   37.4010   28.3330   31.6670 N   0  0  0  0  0  0  0  0  0  0  0  0
   37.6220   27.4440   32.6050 C   0  0  0  0  0  0  0  0  0  0  0  0
   36.9430   27.4710   33.8050 N   0  0  0  0  0  0  0  0  0  0  0  0
   35.5140   28.4740   34.9010 H   0  0  0  0  0  0  0  0  0  0  0  0
   36.3150   30.0700   31.0270 H   0  0  0  0  0  0  0  0  0  0  0  0
   34.8530   30.3630   33.2530 O   0  0  0  0  0  0  0  0  0  0  0  0
   34.9440   31.0860   34.4450 C   0  0  0  0  0  0  0  0  0  0  0  0
   35.9260   31.9690   34.8200 C   0  0  0  0  0  0  0  0  0  0  0  0
   35.8510   32.5790   36.0130 C   0  0  0  0  0  0  0  0  0  0  0  0
   34.7880   32.3050   36.8300 C   0  0  0  0  0  0  0  0  0  0  0  0
   33.7900   31.4040   36.4400 C   0  0  0  0  0  0  0  0  0  0  0  0
   33.9040   30.8120   35.2330 N   0  0  0  0  0  0  0  0  0  0  0  0
   36.7170   32.0930   34.0690 H   0  0  0  0  0  0  0  0  0  0  0  0
   36.6510   33.2810   36.2900 H   0  0  0  0  0  0  0  0  0  0  0  0
   34.7010   32.7880   37.8070 H   0  0  0  0  0  0  0  0  0  0  0  0
   32.6310   31.1210   37.3620 C   0  0  0  0  0  0  0  0  0  0  0  0
   32.9090   31.4860   38.3680 H   0  0  0  0  0  0  0  0  0  0  0  0
   31.7340   31.6200   36.9510 H   0  0  0  0  0  0  0  0  0  0  0  0
   32.4550   30.0290   37.3920 H   0  0  0  0  0  0  0  0  0  0  0  0
   38.8810   26.2330   32.1350 S   0  0  0  0  0  0  0  0  0  0  0  0
   39.7650   25.8700   33.6980 C   0  0  0  0  0  0  0  0  0  0  0  0
   39.5020   26.6500   34.4470 H   0  0  0  0  0  0  0  0  0  0  0  0
   40.8410   25.7760   33.5190 H   0  0  0  0  0  0  0  0  0  0  0  0
   38.5740   25.9090   36.1920 F   0  0  0  0  0  0  0  0  0  0  0  0
   38.6060   24.7450   35.4830 C   0  0  0  0  0  0  0  0  0  0  0  0
   39.1710   24.5950   34.2270 C   0  0  0  0  0  0  0  0  0  0  0  0
   39.1660   23.3970   33.5740 C   0  0  0  0  0  0  0  0  0  0  0  0
   38.5820   22.2580   34.1580 C   0  0  0  0  0  0  0  0  0  0  0  0
   38.0080   22.3820   35.4190 C   0  0  0  0  0  0  0  0  0  0  0  0
   38.0360   23.6190   36.0460 C   0  0  0  0  0  0  0  0  0  0  0  0
   39.6370   23.4070   32.6010 H   0  0  0  0  0  0  0  0  0  0  0  0
   38.6070   21.3340   33.5960 H   0  0  0  0  0  0  0  0  0  0  0  0
   37.5590   21.5110   35.8700 H   0  0  0  0  0  0  0  0  0  0  0  0
   37.4360   23.6440   37.3050 O   0  0  0  0  0  0  0  0  0  0  0  0
   38.1930   23.4570   38.4700 C   0  0  0  0  0  0  0  0  0  0  0  0
   37.7520   23.5970   39.4660 H   0  0  0  0  0  0  0  0  0  0  0  0
   39.4210   23.1180   38.3850 O   0  0  0  0  0  0  0  0  0  0  0  0
  1  7  1  0  0  0  0
  2  9  1  0  0  0  0
  2  1  2  0  0  0  0
  3  2  1  0  0  0  0
  4  3  2  0  0  0  0
  4  5  1  0  0  0  0
  5  6  2  0  0  0  0
  6  1  1  0  0  0  0
  8  3  1  0  0  0  0
  9 10  1  0  0  0  0
 10 11  2  0  0  0  0
 10 15  1  0  0  0  0
 11 12  1  0  0  0  0
 12 17  1  0  0  0  0
 12 13  2  0  0  0  0
 13 18  1  0  0  0  0
 14 13  1  0  0  0  0
 14 19  1  0  0  0  0
 15 14  2  0  0  0  0
 16 11  1  0  0  0  0
 19 22  1  0  0  0  0
 19 20  1  0  0  0  0
 21 19  1  0  0  0  0
 23  5  1  0  0  0  0
 23 24  1  0  0  0  0
 24 29  1  0  0  0  0
 24 25  1  0  0  0  0
 26 24  1  0  0  0  0
 28 33  1  0  0  0  0
 28 27  1  0  0  0  0
 29 28  2  0  0  0  0
 30 31  2  0  0  0  0
 30 29  1  0  0  0  0
 31 32  1  0  0  0  0
 32 36  1  0  0  0  0
 32 33  2  0  0  0  0
 33 37  1  0  0  0  0
 34 30  1  0  0  0  0
 35 31  1  0  0  0  0
 37 38  1  0  0  0  0
 38 39  1  0  0  0  0
 40 38  2  0  0  0  0
M  END
>  <minimizedAffinity>
-5.37889099

$$$$

 OpenBabel03262522293D

 40 42  0  0  0  0  0  0  0  0999 V2000
   38.7670   27.2690   30.7390 C   0  0  0  0  0  0  0  0  0  0  0  0
   37.4140   26.9210   30.8500 C   0  0  0  0  0  0  0  0  0  0  0  0
   37.1320   25.7310   31.4740 C   0  0  0  0  0  0  0  0  0  0  0  0
   38.1550   24.9730   31.9380 N   0  0  0  0  0  0  0  0  0  0  0  0
   39.4100   25.3340   31.8140 C   0  0  0  0  0  0  0  0  0  0  0  0
   39.7680   26.5150   31.1980 N   0  0  0  0  0  0  0  0  0  0  0  0
   39.0480   28.2000   30.2540 H   0  0  0  0  0  0  0  0  0  0  0  0
   36.0880   25.4280   31.5790 H   0  0  0  0  0  0  0  0  0  0  0  0
   36.4930   27.7710   30.3430 O   0  0  0  0  0  0  0  0  0  0  0  0
   36.3290   29.0280   30.9290 C   0  0  0  0  0  0  0  0  0  0  0  0
   36.5090   30.2580   30.3450 C   0  0  0  0  0  0  0  0  0  0  0  0
   36.3040   31.3710   31.0660 C   0  0  0  0  0  0  0  0  0  0  0  0
   35.9170   31.2520   32.3730 C   0  0  0  0  0  0  0  0  0  0  0  0
   35.7350   29.9940   32.9600 C   0  0  0  0  0  0  0  0  0  0  0  0
   35.9510   28.9000   32.2020 N   0  0  0  0  0  0  0  0  0  0  0  0
   36.8190   30.2050   29.2950 H   0  0  0  0  0  0  0  0  0  0  0  0
   36.4560   32.3440   30.5750 H   0  0  0  0  0  0  0  0  0  0  0  0
   35.7430   32.1420   32.9830 H   0  0  0  0  0  0  0  0  0  0  0  0
   35.3090   29.8940   34.4030 C   0  0  0  0  0  0  0  0  0  0  0  0
   35.4780   30.8820   34.8700 H   0  0  0  0  0  0  0  0  0  0  0  0
   34.2500   29.5770   34.4280 H   0  0  0  0  0  0  0  0  0  0  0  0
   35.9270   29.1280   34.9080 H   0  0  0  0  0  0  0  0  0  0  0  0
   40.5540   24.1280   32.5250 S   0  0  0  0  0  0  0  0  0  0  0  0
   41.3270   25.0130   33.9320 C   0  0  0  0  0  0  0  0  0  0  0  0
   41.8770   25.8970   33.5390 H   0  0  0  0  0  0  0  0  0  0  0  0
   41.9500   24.3320   34.5210 H   0  0  0  0  0  0  0  0  0  0  0  0
   39.7880   23.2760   35.4340 F   0  0  0  0  0  0  0  0  0  0  0  0
   39.5020   24.6090   35.4490 C   0  0  0  0  0  0  0  0  0  0  0  0
   40.1950   25.5780   34.7420 C   0  0  0  0  0  0  0  0  0  0  0  0
   39.8520   26.8980   34.8050 C   0  0  0  0  0  0  0  0  0  0  0  0
   38.7710   27.3260   35.5960 C   0  0  0  0  0  0  0  0  0  0  0  0
   38.0580   26.3730   36.3150 C   0  0  0  0  0  0  0  0  0  0  0  0
   38.4420   25.0430   36.2220 C   0  0  0  0  0  0  0  0  0  0  0  0
   40.4680   27.5570   34.2100 H   0  0  0  0  0  0  0  0  0  0  0  0
   38.5430   28.3840   35.6080 H   0  0  0  0  0  0  0  0  0  0  0  0
   37.2290   26.6980   36.9240 H   0  0  0  0  0  0  0  0  0  0  0  0
   37.6680   24.1630   36.9790 O   0  0  0  0  0  0  0  0  0  0  0  0
   37.9150   23.9760   38.3470 C   0  0  0  0  0  0  0  0  0  0  0  0
   37.2050   24.3270   39.1070 H   0  0  0  0  0  0  0  0  0  0  0  0
   38.9820   23.3890   38.7280 O   0  0  0  0  0  0  0  0  0  0  0  0
  1  2  2  0  0  0  0
  1  6  1  0  0  0  0
  2  3  1  0  0  0  0
  3  8  1  0  0  0  0
  3  4  2  0  0  0  0
  5  4  1  0  0  0  0
  5 23  1  0  0  0  0
  6  5  2  0  0  0  0
  7  1  1  0  0  0  0
  9  2  1  0  0  0  0
  9 10  1  0  0  0  0
 10 15  1  0  0  0  0
 11 10  2  0  0  0  0
 11 12  1  0  0  0  0
 12 13  2  0  0  0  0
 13 14  1  0  0  0  0
 13 18  1  0  0  0  0
 14 19  1  0  0  0  0
 15 14  2  0  0  0  0
 16 11  1  0  0  0  0
 17 12  1  0  0  0  0
 19 21  1  0  0  0  0
 19 20  1  0  0  0  0
 19 22  1  0  0  0  0
 23 24  1  0  0  0  0
 24 26  1  0  0  0  0
 24 29  1  0  0  0  0
 25 24  1  0  0  0  0
 27 28  1  0  0  0  0
 28 33  1  0  0  0  0
 29 30  1  0  0  0  0
 29 28  2  0  0  0  0
 30 31  2  0  0  0  0
 31 35  1  0  0  0  0
 31 32  1  0  0  0  0
 32 36  1  0  0  0  0
 33 32  2  0  0  0  0
 33 37  1  0  0  0  0
 34 30  1  0  0  0  0
 37 38  1  0  0  0  0
 38 40  2  0  0  0  0
 38 39  1  0  0  0  0
M  END
>  <minimizedAffinity>
-5.26690102

$$$$
