
 OpenBabel03272508293D

 32 34  0  0  1  0  0  0  0  0999 V2000
   39.3390   25.2130   34.6740 C   0  0  1  0  0  0  0  0  0  0  0  0
   38.8990   26.5810   34.5300 C   0  0  1  0  0  0  0  0  0  0  0  0
   40.3500   26.3640   34.8120 C   0  0  0  0  0  0  0  0  0  0  0  0
   39.6290   24.4960   33.8860 H   0  0  0  0  0  0  0  0  0  0  0  0
   38.3220   26.9970   35.4060 H   0  0  0  0  0  0  0  0  0  0  0  0
   41.1000   26.4560   34.0120 H   0  0  0  0  0  0  0  0  0  0  0  0
   40.7490   26.5960   35.8200 H   0  0  0  0  0  0  0  0  0  0  0  0
   36.9110   27.0800   33.2300 C   0  0  2  0  0  0  0  0  0  0  0  0
   38.4290   27.1630   33.2360 C   0  0  2  0  0  0  0  0  0  0  0  0
   38.8360   26.4230   32.1670 O   0  0  0  0  0  0  0  0  0  0  0  0
   37.8570   26.3440   31.2300 C   0  0  0  0  0  0  0  0  0  0  0  0
   36.6740   27.1490   31.7180 C   0  0  1  0  0  0  0  0  0  0  0  0
   36.5220   26.1060   33.5460 H   0  0  0  0  0  0  0  0  0  0  0  0
   38.6820   28.2250   33.1050 H   0  0  0  0  0  0  0  0  0  0  0  0
   38.2240   26.8060   30.2780 H   0  0  0  0  0  0  0  0  0  0  0  0
   37.5890   25.2970   30.9730 H   0  0  0  0  0  0  0  0  0  0  0  0
   36.7910   28.1810   31.3460 H   0  0  0  0  0  0  0  0  0  0  0  0
   36.2910   28.1290   33.8860 O   0  0  0  0  0  0  0  0  0  0  0  0
   36.6010   28.1040   34.8180 H   0  0  0  0  0  0  0  0  0  0  0  0
   35.4570   26.6320   31.3670 O   0  0  0  0  0  0  0  0  0  0  0  0
   35.3930   25.3290   30.8560 C   0  0  0  0  0  0  0  0  0  0  0  0
   35.6460   25.1250   29.8290 H   0  0  0  0  0  0  0  0  0  0  0  0
   35.0430   24.3320   31.5530 O   0  0  0  0  0  0  0  0  0  0  0  0
   39.1580   24.4670   35.9860 C   0  0  0  0  0  0  0  0  0  0  0  0
   38.1060   24.8660   36.8140 C   0  0  0  0  0  0  0  0  0  0  0  0
   37.9940   24.1750   38.0010 C   0  0  0  0  0  0  0  0  0  0  0  0
   38.8660   23.1730   38.3210 N   0  0  0  0  0  0  0  0  0  0  0  0
   39.8800   22.8130   37.4870 C   0  0  0  0  0  0  0  0  0  0  0  0
   40.0230   23.4700   36.3090 N   0  0  0  0  0  0  0  0  0  0  0  0
   37.4440   25.6560   36.5270 H   0  0  0  0  0  0  0  0  0  0  0  0
   37.2050   24.4200   38.7000 H   0  0  0  0  0  0  0  0  0  0  0  0
   40.5750   22.0230   37.7320 H   0  0  0  0  0  0  0  0  0  0  0  0
  1  4  1  6  0  0  0
  1  3  1  0  0  0  0
  1 24  1  0  0  0  0
  2  1  1  0  0  0  0
  2  3  1  0  0  0  0
  2  5  1  1  0  0  0
  3  7  1  0  0  0  0
  6  3  1  0  0  0  0
  8  9  1  0  0  0  0
  8 13  1  1  0  0  0
  8 18  1  0  0  0  0
  9 14  1  6  0  0  0
  9  2  1  0  0  0  0
 10  9  1  0  0  0  0
 11 12  1  0  0  0  0
 11 10  1  0  0  0  0
 12 17  1  6  0  0  0
 12  8  1  0  0  0  0
 15 11  1  0  0  0  0
 16 11  1  0  0  0  0
 18 19  1  0  0  0  0
 20 12  1  0  0  0  0
 21 20  1  0  0  0  0
 21 23  2  0  0  0  0
 22 21  1  0  0  0  0
 24 29  2  0  0  0  0
 24 25  1  0  0  0  0
 25 26  2  0  0  0  0
 26 27  1  0  0  0  0
 26 31  1  0  0  0  0
 28 32  1  0  0  0  0
 28 27  2  0  0  0  0
 29 28  1  0  0  0  0
 30 25  1  0  0  0  0
M  END
>  <minimizedAffinity>
-4.57355881

$$$$

 OpenBabel03272508293D

 32 34  0  0  1  0  0  0  0  0999 V2000
   37.3950   26.8190   35.0280 C   0  0  1  0  0  0  0  0  0  0  0  0
   38.7000   26.2060   35.0760 C   0  0  1  0  0  0  0  0  0  0  0  0
   38.5030   27.4400   35.8940 C   0  0  0  0  0  0  0  0  0  0  0  0
   36.4940   26.5720   35.6170 H   0  0  0  0  0  0  0  0  0  0  0  0
   39.3420   26.3630   34.1610 H   0  0  0  0  0  0  0  0  0  0  0  0
   38.3650   27.3790   36.9840 H   0  0  0  0  0  0  0  0  0  0  0  0
   38.9610   28.3930   35.5590 H   0  0  0  0  0  0  0  0  0  0  0  0
   38.4640   23.8120   34.7480 C   0  0  2  0  0  0  0  0  0  0  0  0
   38.9630   24.8780   35.7100 C   0  0  2  0  0  0  0  0  0  0  0  0
   38.2370   24.7050   36.8500 O   0  0  0  0  0  0  0  0  0  0  0  0
   37.7740   23.4320   36.9420 C   0  0  0  0  0  0  0  0  0  0  0  0
   38.2750   22.6610   35.7420 C   0  0  1  0  0  0  0  0  0  0  0  0
   37.4680   24.0180   34.3410 H   0  0  0  0  0  0  0  0  0  0  0  0
   40.0290   24.6670   35.8820 H   0  0  0  0  0  0  0  0  0  0  0  0
   38.1960   22.9550   37.8640 H   0  0  0  0  0  0  0  0  0  0  0  0
   36.6700   23.3820   37.0560 H   0  0  0  0  0  0  0  0  0  0  0  0
   39.2440   22.2090   36.0120 H   0  0  0  0  0  0  0  0  0  0  0  0
   39.3740   23.4810   33.7600 O   0  0  0  0  0  0  0  0  0  0  0  0
   39.5530   24.3020   33.2500 H   0  0  0  0  0  0  0  0  0  0  0  0
   37.4030   21.7180   35.2720 O   0  0  0  0  0  0  0  0  0  0  0  0
   36.3080   21.3500   36.0660 C   0  0  0  0  0  0  0  0  0  0  0  0
   36.2200   21.6960   37.0830 H   0  0  0  0  0  0  0  0  0  0  0  0
   35.3740   20.6050   35.6480 O   0  0  0  0  0  0  0  0  0  0  0  0
   37.0020   27.7350   33.8790 C   0  0  0  0  0  0  0  0  0  0  0  0
   35.9870   28.6650   34.1150 C   0  0  0  0  0  0  0  0  0  0  0  0
   35.6520   29.4590   33.0390 C   0  0  0  0  0  0  0  0  0  0  0  0
   36.2850   29.3230   31.8360 N   0  0  0  0  0  0  0  0  0  0  0  0
   37.2700   28.4030   31.6450 C   0  0  0  0  0  0  0  0  0  0  0  0
   37.6280   27.6040   32.6810 N   0  0  0  0  0  0  0  0  0  0  0  0
   35.5160   28.7400   35.0720 H   0  0  0  0  0  0  0  0  0  0  0  0
   34.8760   30.2060   33.1360 H   0  0  0  0  0  0  0  0  0  0  0  0
   37.7750   28.2880   30.6970 H   0  0  0  0  0  0  0  0  0  0  0  0
  1  2  1  0  0  0  0
  1  4  1  1  0  0  0
  1  3  1  0  0  0  0
  2  5  1  6  0  0  0
  2  9  1  0  0  0  0
  2  3  1  0  0  0  0
  3  6  1  0  0  0  0
  7  3  1  0  0  0  0
  8 13  1  6  0  0  0
  8  9  1  0  0  0  0
  8 12  1  0  0  0  0
  9 14  1  1  0  0  0
  9 10  1  0  0  0  0
 10 11  1  0  0  0  0
 11 16  1  0  0  0  0
 11 15  1  0  0  0  0
 12 17  1  1  0  0  0
 12 11  1  0  0  0  0
 18  8  1  0  0  0  0
 19 18  1  0  0  0  0
 20 12  1  0  0  0  0
 20 21  1  0  0  0  0
 21 22  1  0  0  0  0
 23 21  2  0  0  0  0
 24 25  1  0  0  0  0
 24  1  1  0  0  0  0
 25 30  1  0  0  0  0
 26 31  1  0  0  0  0
 26 25  2  0  0  0  0
 27 26  1  0  0  0  0
 28 27  2  0  0  0  0
 28 29  1  0  0  0  0
 29 24  2  0  0  0  0
 32 28  1  0  0  0  0
M  END
>  <minimizedAffinity>
-4.5354557

$$$$

 OpenBabel03272508293D

 32 34  0  0  1  0  0  0  0  0999 V2000
   37.3330   26.7420   34.9660 C   0  0  1  0  0  0  0  0  0  0  0  0
   38.6520   26.1870   35.1580 C   0  0  1  0  0  0  0  0  0  0  0  0
   38.3210   27.4230   35.9270 C   0  0  0  0  0  0  0  0  0  0  0  0
   36.3880   26.4640   35.4660 H   0  0  0  0  0  0  0  0  0  0  0  0
   39.3760   26.3580   34.3090 H   0  0  0  0  0  0  0  0  0  0  0  0
   38.0750   27.3730   36.9990 H   0  0  0  0  0  0  0  0  0  0  0  0
   38.7690   28.3900   35.6220 H   0  0  0  0  0  0  0  0  0  0  0  0
   38.5860   23.7810   34.8410 C   0  0  2  0  0  0  0  0  0  0  0  0
   38.9040   24.8810   35.8400 C   0  0  2  0  0  0  0  0  0  0  0  0
   38.0520   24.6790   36.8840 O   0  0  0  0  0  0  0  0  0  0  0  0
   37.6510   23.3830   36.9390 C   0  0  0  0  0  0  0  0  0  0  0  0
   38.3370   22.6300   35.8220 C   0  0  1  0  0  0  0  0  0  0  0  0
   37.6400   23.9280   34.3110 H   0  0  0  0  0  0  0  0  0  0  0  0
   39.9500   24.7310   36.1460 H   0  0  0  0  0  0  0  0  0  0  0  0
   37.9800   22.9390   37.9130 H   0  0  0  0  0  0  0  0  0  0  0  0
   36.5460   23.2730   36.9160 H   0  0  0  0  0  0  0  0  0  0  0  0
   39.2890   22.2340   36.2170 H   0  0  0  0  0  0  0  0  0  0  0  0
   39.6290   23.4910   33.9790 O   0  0  0  0  0  0  0  0  0  0  0  0
   39.8250   24.3160   33.4820 H   0  0  0  0  0  0  0  0  0  0  0  0
   37.5820   21.6370   35.2640 O   0  0  0  0  0  0  0  0  0  0  0  0
   36.3190   21.3570   35.8030 C   0  0  0  0  0  0  0  0  0  0  0  0
   36.0290   21.7510   36.7630 H   0  0  0  0  0  0  0  0  0  0  0  0
   35.4600   20.6410   35.2110 O   0  0  0  0  0  0  0  0  0  0  0  0
   37.0210   27.6220   33.7660 C   0  0  0  0  0  0  0  0  0  0  0  0
   37.7830   27.4290   32.6120 C   0  0  0  0  0  0  0  0  0  0  0  0
   37.4790   28.2630   31.5570 C   0  0  0  0  0  0  0  0  0  0  0  0
   36.4950   29.2060   31.6620 N   0  0  0  0  0  0  0  0  0  0  0  0
   35.7740   29.3630   32.8060 C   0  0  0  0  0  0  0  0  0  0  0  0
   36.0440   28.5600   33.8650 N   0  0  0  0  0  0  0  0  0  0  0  0
   38.5450   26.6800   32.5690 H   0  0  0  0  0  0  0  0  0  0  0  0
   38.0200   28.1800   30.6240 H   0  0  0  0  0  0  0  0  0  0  0  0
   34.9940   30.1060   32.8990 H   0  0  0  0  0  0  0  0  0  0  0  0
  1  2  1  0  0  0  0
  1  4  1  1  0  0  0
  1  3  1  0  0  0  0
  2  5  1  6  0  0  0
  2  9  1  0  0  0  0
  2  3  1  0  0  0  0
  3  6  1  0  0  0  0
  7  3  1  0  0  0  0
  8 13  1  6  0  0  0
  8 12  1  0  0  0  0
  8  9  1  0  0  0  0
  9 14  1  1  0  0  0
  9 10  1  0  0  0  0
 10 11  1  0  0  0  0
 11 15  1  0  0  0  0
 12 17  1  1  0  0  0
 12 11  1  0  0  0  0
 16 11  1  0  0  0  0
 18  8  1  0  0  0  0
 19 18  1  0  0  0  0
 20 21  1  0  0  0  0
 20 12  1  0  0  0  0
 21 22  1  0  0  0  0
 23 21  2  0  0  0  0
 24 29  1  0  0  0  0
 24  1  1  0  0  0  0
 25 24  2  0  0  0  0
 26 27  2  0  0  0  0
 26 25  1  0  0  0  0
 27 28  1  0  0  0  0
 28 32  1  0  0  0  0
 28 29  2  0  0  0  0
 30 25  1  0  0  0  0
 31 26  1  0  0  0  0
M  END
>  <minimizedAffinity>
-4.50855875

$$$$

 OpenBabel03272508293D

 32 34  0  0  1  0  0  0  0  0999 V2000
   38.4560   25.4060   34.9520 C   0  0  1  0  0  0  0  0  0  0  0  0
   37.6160   26.5520   35.2040 C   0  0  1  0  0  0  0  0  0  0  0  0
   39.0860   26.7990   35.1180 C   0  0  0  0  0  0  0  0  0  0  0  0
   38.7180   24.9420   33.9840 H   0  0  0  0  0  0  0  0  0  0  0  0
   37.2010   26.6260   36.2510 H   0  0  0  0  0  0  0  0  0  0  0  0
   39.5320   27.2460   34.2170 H   0  0  0  0  0  0  0  0  0  0  0  0
   39.6570   27.0100   36.0460 H   0  0  0  0  0  0  0  0  0  0  0  0
   37.4510   27.3440   32.9150 C   0  0  2  0  0  0  0  0  0  0  0  0
   36.6650   27.1150   34.1960 C   0  0  2  0  0  0  0  0  0  0  0  0
   36.2030   28.3430   34.5620 O   0  0  0  0  0  0  0  0  0  0  0  0
   36.1180   29.1690   33.4880 C   0  0  0  0  0  0  0  0  0  0  0  0
   36.5440   28.3930   32.2630 C   0  0  1  0  0  0  0  0  0  0  0  0
   38.4140   27.8420   33.0730 H   0  0  0  0  0  0  0  0  0  0  0  0
   35.8380   26.4390   33.9360 H   0  0  0  0  0  0  0  0  0  0  0  0
   35.0510   29.4810   33.3510 H   0  0  0  0  0  0  0  0  0  0  0  0
   36.6910   30.1110   33.6230 H   0  0  0  0  0  0  0  0  0  0  0  0
   35.6440   27.9240   31.8310 H   0  0  0  0  0  0  0  0  0  0  0  0
   37.5690   26.2170   32.1230 O   0  0  0  0  0  0  0  0  0  0  0  0
   38.0380   25.5400   32.6580 H   0  0  0  0  0  0  0  0  0  0  0  0
   37.2110   29.1360   31.3290 O   0  0  0  0  0  0  0  0  0  0  0  0
   36.7820   29.0960   29.9950 C   0  0  0  0  0  0  0  0  0  0  0  0
   35.8140   29.4770   29.7140 H   0  0  0  0  0  0  0  0  0  0  0  0
   37.4870   28.6210   29.0580 O   0  0  0  0  0  0  0  0  0  0  0  0
   38.8610   24.4690   36.0790 C   0  0  0  0  0  0  0  0  0  0  0  0
   38.0550   24.4490   37.2190 C   0  0  0  0  0  0  0  0  0  0  0  0
   38.4720   23.6000   38.2220 C   0  0  0  0  0  0  0  0  0  0  0  0
   39.6020   22.8440   38.0840 N   0  0  0  0  0  0  0  0  0  0  0  0
   40.3620   22.8930   36.9560 C   0  0  0  0  0  0  0  0  0  0  0  0
   39.9830   23.7160   35.9470 N   0  0  0  0  0  0  0  0  0  0  0  0
   37.1770   25.0560   37.2890 H   0  0  0  0  0  0  0  0  0  0  0  0
   37.9040   23.5220   39.1390 H   0  0  0  0  0  0  0  0  0  0  0  0
   41.2570   22.2990   36.8380 H   0  0  0  0  0  0  0  0  0  0  0  0
  1  4  1  6  0  0  0
  1  3  1  0  0  0  0
  1  2  1  0  0  0  0
  1 24  1  0  0  0  0
  2  5  1  1  0  0  0
  3  2  1  0  0  0  0
  3  7  1  0  0  0  0
  6  3  1  0  0  0  0
  8 13  1  1  0  0  0
  8  9  1  0  0  0  0
  9 14  1  6  0  0  0
  9 10  1  0  0  0  0
  9  2  1  0  0  0  0
 11 16  1  0  0  0  0
 11 10  1  0  0  0  0
 12 17  1  6  0  0  0
 12  8  1  0  0  0  0
 12 11  1  0  0  0  0
 15 11  1  0  0  0  0
 18 19  1  0  0  0  0
 18  8  1  0  0  0  0
 20 12  1  0  0  0  0
 21 20  1  0  0  0  0
 22 21  1  0  0  0  0
 23 21  2  0  0  0  0
 24 25  1  0  0  0  0
 25 30  1  0  0  0  0
 25 26  2  0  0  0  0
 26 31  1  0  0  0  0
 27 26  1  0  0  0  0
 28 27  2  0  0  0  0
 29 24  2  0  0  0  0
 29 28  1  0  0  0  0
 32 28  1  0  0  0  0
M  END
>  <minimizedAffinity>
-4.4017868

$$$$

 OpenBabel03272508293D

 32 34  0  0  1  0  0  0  0  0999 V2000
   36.1060   28.4040   32.8670 C   0  0  1  0  0  0  0  0  0  0  0  0
   35.8090   27.7950   31.5920 C   0  0  1  0  0  0  0  0  0  0  0  0
   36.5990   29.0610   31.5670 C   0  0  0  0  0  0  0  0  0  0  0  0
   36.9350   28.1800   33.5610 H   0  0  0  0  0  0  0  0  0  0  0  0
   34.7440   27.9140   31.2360 H   0  0  0  0  0  0  0  0  0  0  0  0
   37.6850   29.0460   31.3910 H   0  0  0  0  0  0  0  0  0  0  0  0
   36.1120   30.0010   31.2350 H   0  0  0  0  0  0  0  0  0  0  0  0
   35.2670   25.4740   31.1270 C   0  0  2  0  0  0  0  0  0  0  0  0
   36.3940   26.4940   31.1440 C   0  0  2  0  0  0  0  0  0  0  0  0
   37.3050   26.0120   32.0360 O   0  0  0  0  0  0  0  0  0  0  0  0
   37.1920   24.6650   32.1640 C   0  0  0  0  0  0  0  0  0  0  0  0
   36.1020   24.1930   31.2290 C   0  0  1  0  0  0  0  0  0  0  0  0
   34.6430   25.4930   32.0260 H   0  0  0  0  0  0  0  0  0  0  0  0
   36.8080   26.5170   30.1260 H   0  0  0  0  0  0  0  0  0  0  0  0
   38.1540   24.1860   31.8490 H   0  0  0  0  0  0  0  0  0  0  0  0
   37.0260   24.3450   33.2150 H   0  0  0  0  0  0  0  0  0  0  0  0
   36.5710   23.9480   30.2610 H   0  0  0  0  0  0  0  0  0  0  0  0
   34.5140   25.4940   29.9660 O   0  0  0  0  0  0  0  0  0  0  0  0
   34.1220   26.3920   29.8960 H   0  0  0  0  0  0  0  0  0  0  0  0
   35.3680   23.1410   31.7030 O   0  0  0  0  0  0  0  0  0  0  0  0
   35.6820   21.8450   31.2750 C   0  0  0  0  0  0  0  0  0  0  0  0
   36.5690   21.6550   30.6930 H   0  0  0  0  0  0  0  0  0  0  0  0
   34.9620   20.8380   31.5380 O   0  0  0  0  0  0  0  0  0  0  0  0
   35.0800   29.2710   33.5790 C   0  0  0  0  0  0  0  0  0  0  0  0
   35.5360   30.0890   34.6140 C   0  0  0  0  0  0  0  0  0  0  0  0
   34.5670   30.8410   35.2440 C   0  0  0  0  0  0  0  0  0  0  0  0
   33.2570   30.7700   34.8600 N   0  0  0  0  0  0  0  0  0  0  0  0
   32.8520   29.9580   33.8450 C   0  0  0  0  0  0  0  0  0  0  0  0
   33.7770   29.2040   33.2010 N   0  0  0  0  0  0  0  0  0  0  0  0
   36.5710   30.1160   34.8850 H   0  0  0  0  0  0  0  0  0  0  0  0
   34.8350   31.5030   36.0560 H   0  0  0  0  0  0  0  0  0  0  0  0
   31.8180   29.8950   33.5360 H   0  0  0  0  0  0  0  0  0  0  0  0
  1  4  1  1  0  0  0
  1 24  1  0  0  0  0
  2  5  1  6  0  0  0
  2  1  1  0  0  0  0
  3  2  1  0  0  0  0
  3  1  1  0  0  0  0
  6  3  1  0  0  0  0
  7  3  1  0  0  0  0
  8  9  1  0  0  0  0
  8 12  1  0  0  0  0
  8 13  1  1  0  0  0
  9 14  1  6  0  0  0
  9  2  1  0  0  0  0
  9 10  1  0  0  0  0
 10 11  1  0  0  0  0
 11 16  1  0  0  0  0
 12 17  1  6  0  0  0
 12 20  1  0  0  0  0
 12 11  1  0  0  0  0
 15 11  1  0  0  0  0
 18  8  1  0  0  0  0
 19 18  1  0  0  0  0
 21 23  2  0  0  0  0
 21 20  1  0  0  0  0
 22 21  1  0  0  0  0
 24 25  1  0  0  0  0
 25 30  1  0  0  0  0
 25 26  2  0  0  0  0
 26 31  1  0  0  0  0
 27 26  1  0  0  0  0
 28 27  2  0  0  0  0
 29 24  2  0  0  0  0
 29 28  1  0  0  0  0
 32 28  1  0  0  0  0
M  END
>  <minimizedAffinity>
-4.36303139

$$$$

 OpenBabel03272508293D

 32 34  0  0  1  0  0  0  0  0999 V2000
   37.0980   26.7720   34.7020 C   0  0  1  0  0  0  0  0  0  0  0  0
   38.1990   25.8980   34.3760 C   0  0  1  0  0  0  0  0  0  0  0  0
   38.4700   26.9870   35.3620 C   0  0  0  0  0  0  0  0  0  0  0  0
   36.2960   26.6230   35.4460 H   0  0  0  0  0  0  0  0  0  0  0  0
   38.6700   26.0700   33.3650 H   0  0  0  0  0  0  0  0  0  0  0  0
   38.5350   26.7710   36.4380 H   0  0  0  0  0  0  0  0  0  0  0  0
   39.0720   27.8650   35.0500 H   0  0  0  0  0  0  0  0  0  0  0  0
   38.5420   24.4030   36.2580 C   0  0  2  0  0  0  0  0  0  0  0  0
   38.2490   24.4560   34.7670 C   0  0  2  0  0  0  0  0  0  0  0  0
   39.2860   23.8020   34.1720 O   0  0  0  0  0  0  0  0  0  0  0  0
   39.8660   22.9270   35.0320 C   0  0  0  0  0  0  0  0  0  0  0  0
   39.1100   22.9820   36.3400 C   0  0  1  0  0  0  0  0  0  0  0  0
   39.3550   25.0660   36.5710 H   0  0  0  0  0  0  0  0  0  0  0  0
   37.3010   23.9180   34.6180 H   0  0  0  0  0  0  0  0  0  0  0  0
   39.7710   21.8900   34.6180 H   0  0  0  0  0  0  0  0  0  0  0  0
   40.9550   23.1030   35.1560 H   0  0  0  0  0  0  0  0  0  0  0  0
   38.3040   22.2300   36.2960 H   0  0  0  0  0  0  0  0  0  0  0  0
   37.4180   24.5430   37.0530 O   0  0  0  0  0  0  0  0  0  0  0  0
   37.0280   25.4200   36.8430 H   0  0  0  0  0  0  0  0  0  0  0  0
   39.8900   22.8070   37.4500 O   0  0  0  0  0  0  0  0  0  0  0  0
   41.2130   22.3730   37.2900 C   0  0  0  0  0  0  0  0  0  0  0  0
   41.9590   23.0220   36.8600 H   0  0  0  0  0  0  0  0  0  0  0  0
   41.6070   21.2210   37.6340 O   0  0  0  0  0  0  0  0  0  0  0  0
   36.7250   27.9330   33.7930 C   0  0  0  0  0  0  0  0  0  0  0  0
   35.9300   28.9450   34.3350 C   0  0  0  0  0  0  0  0  0  0  0  0
   35.6010   29.9660   33.4690 C   0  0  0  0  0  0  0  0  0  0  0  0
   36.0350   29.9600   32.1730 N   0  0  0  0  0  0  0  0  0  0  0  0
   36.8090   28.9540   31.6820 C   0  0  0  0  0  0  0  0  0  0  0  0
   37.1540   27.9330   32.5040 N   0  0  0  0  0  0  0  0  0  0  0  0
   35.6100   28.9120   35.3550 H   0  0  0  0  0  0  0  0  0  0  0  0
   34.9890   30.7900   33.8080 H   0  0  0  0  0  0  0  0  0  0  0  0
   37.1560   28.9410   30.6580 H   0  0  0  0  0  0  0  0  0  0  0  0
  1  3  1  0  0  0  0
  1  4  1  1  0  0  0
  2  5  1  6  0  0  0
  2  1  1  0  0  0  0
  2  9  1  0  0  0  0
  2  3  1  0  0  0  0
  3  6  1  0  0  0  0
  7  3  1  0  0  0  0
  8 12  1  0  0  0  0
  8 13  1  1  0  0  0
  8 18  1  0  0  0  0
  9 14  1  6  0  0  0
  9  8  1  0  0  0  0
 10  9  1  0  0  0  0
 10 11  1  0  0  0  0
 11 16  1  0  0  0  0
 11 12  1  0  0  0  0
 12 17  1  6  0  0  0
 12 20  1  0  0  0  0
 15 11  1  0  0  0  0
 19 18  1  0  0  0  0
 21 20  1  0  0  0  0
 21 23  2  0  0  0  0
 22 21  1  0  0  0  0
 24 25  1  0  0  0  0
 24  1  1  0  0  0  0
 25 30  1  0  0  0  0
 26 31  1  0  0  0  0
 26 25  2  0  0  0  0
 27 26  1  0  0  0  0
 28 27  2  0  0  0  0
 28 29  1  0  0  0  0
 29 24  2  0  0  0  0
 32 28  1  0  0  0  0
M  END
>  <minimizedAffinity>
-4.36082172

$$$$

 OpenBabel03272508293D

 32 34  0  0  1  0  0  0  0  0999 V2000
   38.6620   26.3170   34.8160 C   0  0  1  0  0  0  0  0  0  0  0  0
   37.4300   27.0690   34.7800 C   0  0  1  0  0  0  0  0  0  0  0  0
   38.4740   27.5290   35.7450 C   0  0  0  0  0  0  0  0  0  0  0  0
   39.5520   26.4200   34.1710 H   0  0  0  0  0  0  0  0  0  0  0  0
   36.5450   26.5690   35.2700 H   0  0  0  0  0  0  0  0  0  0  0  0
   39.0930   28.4120   35.5280 H   0  0  0  0  0  0  0  0  0  0  0  0
   38.3320   27.3430   36.8290 H   0  0  0  0  0  0  0  0  0  0  0  0
   35.7250   28.6160   34.0110 C   0  0  2  0  0  0  0  0  0  0  0  0
   37.0120   27.9090   33.6170 C   0  0  2  0  0  0  0  0  0  0  0  0
   36.6910   27.1520   32.5300 O   0  0  0  0  0  0  0  0  0  0  0  0
   35.6090   27.6590   31.8880 C   0  0  0  0  0  0  0  0  0  0  0  0
   35.1780   28.9150   32.6100 C   0  0  1  0  0  0  0  0  0  0  0  0
   34.9880   27.9570   34.4820 H   0  0  0  0  0  0  0  0  0  0  0  0
   37.7310   28.6980   33.3530 H   0  0  0  0  0  0  0  0  0  0  0  0
   35.9030   27.9410   30.8440 H   0  0  0  0  0  0  0  0  0  0  0  0
   34.7860   26.9210   31.7800 H   0  0  0  0  0  0  0  0  0  0  0  0
   35.7090   29.7670   32.1520 H   0  0  0  0  0  0  0  0  0  0  0  0
   35.9250   29.7790   34.7330 O   0  0  0  0  0  0  0  0  0  0  0  0
   36.4040   29.5260   35.5520 H   0  0  0  0  0  0  0  0  0  0  0  0
   33.8270   29.1240   32.6230 O   0  0  0  0  0  0  0  0  0  0  0  0
   33.3410   30.4370   32.5550 C   0  0  0  0  0  0  0  0  0  0  0  0
   32.8730   30.8070   31.6570 H   0  0  0  0  0  0  0  0  0  0  0  0
   33.4170   31.2510   33.5210 O   0  0  0  0  0  0  0  0  0  0  0  0
   38.7640   25.0190   35.6020 C   0  0  0  0  0  0  0  0  0  0  0  0
   39.9530   24.2950   35.4950 C   0  0  0  0  0  0  0  0  0  0  0  0
   39.9920   23.1150   36.2080 C   0  0  0  0  0  0  0  0  0  0  0  0
   38.9250   22.7080   36.9590 N   0  0  0  0  0  0  0  0  0  0  0  0
   37.7830   23.4430   37.0370 C   0  0  0  0  0  0  0  0  0  0  0  0
   37.7070   24.6100   36.3500 N   0  0  0  0  0  0  0  0  0  0  0  0
   40.7660   24.6480   34.8960 H   0  0  0  0  0  0  0  0  0  0  0  0
   40.8770   22.4930   36.1820 H   0  0  0  0  0  0  0  0  0  0  0  0
   36.9340   23.1290   37.6280 H   0  0  0  0  0  0  0  0  0  0  0  0
  1  4  1  6  0  0  0
  1 24  1  0  0  0  0
  1  3  1  0  0  0  0
  2  1  1  0  0  0  0
  2  5  1  1  0  0  0
  2  3  1  0  0  0  0
  3  7  1  0  0  0  0
  6  3  1  0  0  0  0
  8 13  1  1  0  0  0
  8 18  1  0  0  0  0
  9 14  1  6  0  0  0
  9  8  1  0  0  0  0
  9  2  1  0  0  0  0
 10  9  1  0  0  0  0
 11 10  1  0  0  0  0
 11 12  1  0  0  0  0
 12 17  1  6  0  0  0
 12 20  1  0  0  0  0
 12  8  1  0  0  0  0
 15 11  1  0  0  0  0
 16 11  1  0  0  0  0
 18 19  1  0  0  0  0
 21 20  1  0  0  0  0
 21 23  2  0  0  0  0
 22 21  1  0  0  0  0
 24 29  1  0  0  0  0
 25 24  2  0  0  0  0
 25 26  1  0  0  0  0
 26 27  2  0  0  0  0
 27 28  1  0  0  0  0
 28 32  1  0  0  0  0
 29 28  2  0  0  0  0
 30 25  1  0  0  0  0
 31 26  1  0  0  0  0
M  END
>  <minimizedAffinity>
-4.22897291

$$$$

 OpenBabel03272508293D

 32 34  0  0  1  0  0  0  0  0999 V2000
   35.9430   23.0860   31.2230 C   0  0  1  0  0  0  0  0  0  0  0  0
   36.6760   24.0290   32.0350 C   0  0  1  0  0  0  0  0  0  0  0  0
   37.3660   23.5050   30.8190 C   0  0  0  0  0  0  0  0  0  0  0  0
   35.2060   23.2890   30.4270 H   0  0  0  0  0  0  0  0  0  0  0  0
   37.0830   23.6180   33.0040 H   0  0  0  0  0  0  0  0  0  0  0  0
   37.4560   24.1210   29.9110 H   0  0  0  0  0  0  0  0  0  0  0  0
   38.1850   22.7660   30.9340 H   0  0  0  0  0  0  0  0  0  0  0  0
   36.1580   26.0270   30.7580 C   0  0  2  0  0  0  0  0  0  0  0  0
   36.3000   25.4700   32.1650 C   0  0  2  0  0  0  0  0  0  0  0  0
   37.2900   26.2040   32.7470 O   0  0  0  0  0  0  0  0  0  0  0  0
   37.4080   27.4180   32.1510 C   0  0  0  0  0  0  0  0  0  0  0  0
   36.3560   27.5150   31.0690 C   0  0  1  0  0  0  0  0  0  0  0  0
   36.9800   25.7520   30.0910 H   0  0  0  0  0  0  0  0  0  0  0  0
   35.3340   25.6370   32.6650 H   0  0  0  0  0  0  0  0  0  0  0  0
   37.2040   28.2180   32.9080 H   0  0  0  0  0  0  0  0  0  0  0  0
   38.4340   27.6150   31.7740 H   0  0  0  0  0  0  0  0  0  0  0  0
   35.4480   27.9500   31.5190 H   0  0  0  0  0  0  0  0  0  0  0  0
   34.9190   25.7930   30.1870 O   0  0  0  0  0  0  0  0  0  0  0  0
   34.8030   24.8180   30.1490 H   0  0  0  0  0  0  0  0  0  0  0  0
   36.7470   28.2200   29.9640 O   0  0  0  0  0  0  0  0  0  0  0  0
   38.0840   28.1480   29.5490 C   0  0  0  0  0  0  0  0  0  0  0  0
   38.8670   27.9040   30.2480 H   0  0  0  0  0  0  0  0  0  0  0  0
   38.4470   28.3590   28.3550 O   0  0  0  0  0  0  0  0  0  0  0  0
   35.8780   21.6140   31.5990 C   0  0  0  0  0  0  0  0  0  0  0  0
   35.6070   21.3030   32.9340 C   0  0  0  0  0  0  0  0  0  0  0  0
   35.5780   19.9570   33.2320 C   0  0  0  0  0  0  0  0  0  0  0  0
   35.8030   19.0150   32.2680 N   0  0  0  0  0  0  0  0  0  0  0  0
   36.0660   19.3590   30.9780 C   0  0  0  0  0  0  0  0  0  0  0  0
   36.1020   20.6740   30.6460 N   0  0  0  0  0  0  0  0  0  0  0  0
   35.4350   22.0710   33.6590 H   0  0  0  0  0  0  0  0  0  0  0  0
   35.3730   19.6290   34.2420 H   0  0  0  0  0  0  0  0  0  0  0  0
   36.2460   18.6210   30.2090 H   0  0  0  0  0  0  0  0  0  0  0  0
  1  4  1  6  0  0  0
  1 24  1  0  0  0  0
  1  2  1  0  0  0  0
  2  9  1  0  0  0  0
  2  5  1  1  0  0  0
  3  7  1  0  0  0  0
  3  1  1  0  0  0  0
  3  2  1  0  0  0  0
  6  3  1  0  0  0  0
  8 13  1  6  0  0  0
  8 12  1  0  0  0  0
  8  9  1  0  0  0  0
  9 14  1  1  0  0  0
  9 10  1  0  0  0  0
 11 10  1  0  0  0  0
 11 15  1  0  0  0  0
 12 17  1  1  0  0  0
 12 11  1  0  0  0  0
 16 11  1  0  0  0  0
 18  8  1  0  0  0  0
 19 18  1  0  0  0  0
 20 12  1  0  0  0  0
 21 20  1  0  0  0  0
 21 22  1  0  0  0  0
 23 21  2  0  0  0  0
 24 25  1  0  0  0  0
 25 26  2  0  0  0  0
 25 30  1  0  0  0  0
 26 31  1  0  0  0  0
 27 26  1  0  0  0  0
 28 27  2  0  0  0  0
 29 28  1  0  0  0  0
 29 24  2  0  0  0  0
 32 28  1  0  0  0  0
M  END
>  <minimizedAffinity>
-4.19771385

$$$$

 OpenBabel03272508293D

 32 34  0  0  1  0  0  0  0  0999 V2000
   38.6180   25.5370   34.7920 C   0  0  1  0  0  0  0  0  0  0  0  0
   37.4120   25.4900   34.0010 C   0  0  1  0  0  0  0  0  0  0  0  0
   37.5360   26.6140   34.9760 C   0  0  0  0  0  0  0  0  0  0  0  0
   39.5990   25.9710   34.5300 H   0  0  0  0  0  0  0  0  0  0  0  0
   36.6640   24.7020   34.3060 H   0  0  0  0  0  0  0  0  0  0  0  0
   37.7930   27.6290   34.6370 H   0  0  0  0  0  0  0  0  0  0  0  0
   36.9300   26.5980   35.9050 H   0  0  0  0  0  0  0  0  0  0  0  0
   37.7130   27.1970   32.3010 C   0  0  2  0  0  0  0  0  0  0  0  0
   37.3850   25.7290   32.5250 C   0  0  2  0  0  0  0  0  0  0  0  0
   36.1390   25.5530   32.0030 O   0  0  0  0  0  0  0  0  0  0  0  0
   35.8730   26.4900   31.0570 C   0  0  0  0  0  0  0  0  0  0  0  0
   37.0920   27.3710   30.9110 C   0  0  1  0  0  0  0  0  0  0  0  0
   37.1610   27.8760   32.9590 H   0  0  0  0  0  0  0  0  0  0  0  0
   38.1360   25.1540   31.9650 H   0  0  0  0  0  0  0  0  0  0  0  0
   35.6930   25.9780   30.0770 H   0  0  0  0  0  0  0  0  0  0  0  0
   34.9470   27.0660   31.2690 H   0  0  0  0  0  0  0  0  0  0  0  0
   37.7370   26.9300   30.1320 H   0  0  0  0  0  0  0  0  0  0  0  0
   39.0690   27.4700   32.2860 O   0  0  0  0  0  0  0  0  0  0  0  0
   39.4240   27.2020   33.1620 H   0  0  0  0  0  0  0  0  0  0  0  0
   36.8120   28.6810   30.6370 O   0  0  0  0  0  0  0  0  0  0  0  0
   36.2000   29.4660   31.6240 C   0  0  0  0  0  0  0  0  0  0  0  0
   36.7240   29.7220   32.5300 H   0  0  0  0  0  0  0  0  0  0  0  0
   35.0220   29.9140   31.5160 O   0  0  0  0  0  0  0  0  0  0  0  0
   38.7700   24.6780   36.0380 C   0  0  0  0  0  0  0  0  0  0  0  0
   39.7340   23.6680   36.0090 C   0  0  0  0  0  0  0  0  0  0  0  0
   39.8230   22.9020   37.1520 C   0  0  0  0  0  0  0  0  0  0  0  0
   39.0090   23.1380   38.2250 N   0  0  0  0  0  0  0  0  0  0  0  0
   38.0800   24.1330   38.2140 C   0  0  0  0  0  0  0  0  0  0  0  0
   37.9640   24.9080   37.1070 N   0  0  0  0  0  0  0  0  0  0  0  0
   40.3520   23.5160   35.1490 H   0  0  0  0  0  0  0  0  0  0  0  0
   40.5440   22.0990   37.2140 H   0  0  0  0  0  0  0  0  0  0  0  0
   37.4320   24.3250   39.0570 H   0  0  0  0  0  0  0  0  0  0  0  0
  1  4  1  6  0  0  0
  1  3  1  0  0  0  0
  1 24  1  0  0  0  0
  2  5  1  1  0  0  0
  2  1  1  0  0  0  0
  2  3  1  0  0  0  0
  3  7  1  0  0  0  0
  6  3  1  0  0  0  0
  8  9  1  0  0  0  0
  8 13  1  1  0  0  0
  9 14  1  6  0  0  0
  9  2  1  0  0  0  0
 10  9  1  0  0  0  0
 11 16  1  0  0  0  0
 11 10  1  0  0  0  0
 12 17  1  6  0  0  0
 12 11  1  0  0  0  0
 12  8  1  0  0  0  0
 15 11  1  0  0  0  0
 18  8  1  0  0  0  0
 18 19  1  0  0  0  0
 20 12  1  0  0  0  0
 20 21  1  0  0  0  0
 21 22  1  0  0  0  0
 23 21  2  0  0  0  0
 24 29  1  0  0  0  0
 25 24  2  0  0  0  0
 25 26  1  0  0  0  0
 26 31  1  0  0  0  0
 26 27  2  0  0  0  0
 28 27  1  0  0  0  0
 28 32  1  0  0  0  0
 29 28  2  0  0  0  0
 30 25  1  0  0  0  0
M  END
>  <minimizedAffinity>
-4.19051218

$$$$
