
 OpenBabel03262522273D

 40 42  0  0  0  0  0  0  0  0999 V2000
   38.7320   32.8600   48.3510 C   0  0  0  0  0  0  0  0  0  0  0  0
   39.0400   32.2000   47.1530 C   0  0  0  0  0  0  0  0  0  0  0  0
   38.5330   30.9330   46.9990 C   0  0  0  0  0  0  0  0  0  0  0  0
   37.7810   30.4000   47.9920 N   0  0  0  0  0  0  0  0  0  0  0  0
   37.5150   31.0500   49.0990 C   0  0  0  0  0  0  0  0  0  0  0  0
   37.9900   32.3260   49.3230 N   0  0  0  0  0  0  0  0  0  0  0  0
   39.1070   33.8640   48.5250 H   0  0  0  0  0  0  0  0  0  0  0  0
   38.7520   30.3880   46.0780 H   0  0  0  0  0  0  0  0  0  0  0  0
   39.8020   32.8480   46.2440 O   0  0  0  0  0  0  0  0  0  0  0  0
   39.9550   32.3020   44.9680 C   0  0  0  0  0  0  0  0  0  0  0  0
   40.6550   31.1750   44.6140 C   0  0  0  0  0  0  0  0  0  0  0  0
   40.6950   30.7950   43.3280 C   0  0  0  0  0  0  0  0  0  0  0  0
   40.0320   31.5450   42.3950 C   0  0  0  0  0  0  0  0  0  0  0  0
   39.3200   32.6930   42.7640 C   0  0  0  0  0  0  0  0  0  0  0  0
   39.3050   33.0400   44.0670 N   0  0  0  0  0  0  0  0  0  0  0  0
   41.1370   30.6720   45.4610 H   0  0  0  0  0  0  0  0  0  0  0  0
   41.2630   29.8880   43.0700 H   0  0  0  0  0  0  0  0  0  0  0  0
   40.0470   31.2580   41.3400 H   0  0  0  0  0  0  0  0  0  0  0  0
   38.6000   33.5000   41.7140 C   0  0  0  0  0  0  0  0  0  0  0  0
   38.9930   33.1910   40.7280 H   0  0  0  0  0  0  0  0  0  0  0  0
   37.5140   33.3200   41.8250 H   0  0  0  0  0  0  0  0  0  0  0  0
   38.8060   34.5740   41.8820 H   0  0  0  0  0  0  0  0  0  0  0  0
   36.4910   30.0930   50.2410 S   0  0  0  0  0  0  0  0  0  0  0  0
   34.7720   30.5460   49.7950 C   0  0  0  0  0  0  0  0  0  0  0  0
   34.7480   31.6240   49.5190 H   0  0  0  0  0  0  0  0  0  0  0  0
   34.0820   30.2830   50.6030 H   0  0  0  0  0  0  0  0  0  0  0  0
   34.4100   27.8090   49.9270 F   0  0  0  0  0  0  0  0  0  0  0  0
   34.3010   28.4430   48.7240 C   0  0  0  0  0  0  0  0  0  0  0  0
   34.4600   29.8040   48.5260 C   0  0  0  0  0  0  0  0  0  0  0  0
   34.3360   30.3710   47.2910 C   0  0  0  0  0  0  0  0  0  0  0  0
   34.0420   29.5860   46.1620 C   0  0  0  0  0  0  0  0  0  0  0  0
   33.8780   28.2150   46.3340 C   0  0  0  0  0  0  0  0  0  0  0  0
   34.0120   27.6820   47.6070 C   0  0  0  0  0  0  0  0  0  0  0  0
   34.4820   31.4420   47.2650 H   0  0  0  0  0  0  0  0  0  0  0  0
   33.9560   30.0880   45.2070 H   0  0  0  0  0  0  0  0  0  0  0  0
   33.6510   27.6100   45.4700 H   0  0  0  0  0  0  0  0  0  0  0  0
   33.8300   26.3010   47.6790 O   0  0  0  0  0  0  0  0  0  0  0  0
   32.5600   25.7300   47.5140 C   0  0  0  0  0  0  0  0  0  0  0  0
   32.3750   24.9600   46.7530 H   0  0  0  0  0  0  0  0  0  0  0  0
   31.5920   26.1040   48.2570 O   0  0  0  0  0  0  0  0  0  0  0  0
  1  7  1  0  0  0  0
  1  6  1  0  0  0  0
  2  1  2  0  0  0  0
  3  2  1  0  0  0  0
  3  4  2  0  0  0  0
  4  5  1  0  0  0  0
  5  6  2  0  0  0  0
  5 23  1  0  0  0  0
  8  3  1  0  0  0  0
  9  2  1  0  0  0  0
 10  9  1  0  0  0  0
 11 10  1  0  0  0  0
 11 16  1  0  0  0  0
 12 11  2  0  0  0  0
 13 14  2  0  0  0  0
 13 12  1  0  0  0  0
 14 15  1  0  0  0  0
 15 10  2  0  0  0  0
 17 12  1  0  0  0  0
 18 13  1  0  0  0  0
 19 21  1  0  0  0  0
 19 22  1  0  0  0  0
 19 14  1  0  0  0  0
 20 19  1  0  0  0  0
 24 23  1  0  0  0  0
 24 26  1  0  0  0  0
 25 24  1  0  0  0  0
 28 27  1  0  0  0  0
 29 28  1  0  0  0  0
 29 24  1  0  0  0  0
 30 29  2  0  0  0  0
 31 32  2  0  0  0  0
 31 30  1  0  0  0  0
 32 33  1  0  0  0  0
 33 37  1  0  0  0  0
 33 28  2  0  0  0  0
 34 30  1  0  0  0  0
 35 31  1  0  0  0  0
 36 32  1  0  0  0  0
 38 37  1  0  0  0  0
 38 40  2  0  0  0  0
 39 38  1  0  0  0  0
M  END
>  <minimizedAffinity>
-5.83112478

>  <minimizedRMSD>
0.190477416

$$$$
