
 OpenBabel03272503463D

 18 18  0  0  0  0  0  0  0  0999 V2000
   35.6290   30.5080   49.7700 C   0  0  0  0  0  0  0  0  0  0  0  0
   35.9790   29.4950   50.6650 C   0  0  0  0  0  0  0  0  0  0  0  0
   37.2770   29.4960   51.1950 C   0  0  0  0  0  0  0  0  0  0  0  0
   38.1320   30.4820   50.8130 N   0  0  0  0  0  0  0  0  0  0  0  0
   37.7520   31.4490   49.9400 C   0  0  0  0  0  0  0  0  0  0  0  0
   36.5070   31.4540   49.4270 N   0  0  0  0  0  0  0  0  0  0  0  0
   35.2170   28.7650   50.8950 H   0  0  0  0  0  0  0  0  0  0  0  0
   37.5340   28.7050   51.8870 H   0  0  0  0  0  0  0  0  0  0  0  0
   38.4680   32.2280   49.6540 H   0  0  0  0  0  0  0  0  0  0  0  0
   34.3920   30.6460   49.1620 O   0  0  0  0  0  0  0  0  0  0  0  0
   35.3340   29.7770   46.7870 O   0  0  0  0  0  0  0  0  0  0  0  0
   34.0680   29.9890   47.6020 P   0  0  2  0  0  0  0  0  0  0  0  0
   33.0890   31.0580   46.7400 O   0  0  0  0  0  0  0  0  0  0  0  0
   33.0490   30.8380   45.7910 H   0  0  0  0  0  0  0  0  0  0  0  0
   33.2580   28.5170   47.8700 O   0  0  0  0  0  0  0  0  0  0  0  0
   34.0190   27.3920   48.1690 C   0  0  0  0  0  0  0  0  0  0  0  0
   34.8220   27.1540   48.8450 H   0  0  0  0  0  0  0  0  0  0  0  0
   33.9020   26.2620   47.6260 O   0  0  0  0  0  0  0  0  0  0  0  0
  1  2  1  0  0  0  0
  2  7  1  0  0  0  0
  2  3  2  0  0  0  0
  3  8  1  0  0  0  0
  4  3  1  0  0  0  0
  5  4  2  0  0  0  0
  6  1  2  0  0  0  0
  6  5  1  0  0  0  0
  9  5  1  0  0  0  0
 10  1  1  0  0  0  0
 12 11  2  6  0  0  0
 12 15  1  0  0  0  0
 12 10  1  0  0  0  0
 13 12  1  0  0  0  0
 14 13  1  0  0  0  0
 15 16  1  0  0  0  0
 16 17  1  0  0  0  0
 18 16  2  0  0  0  0
M  END
>  <minimizedAffinity>
-3.78094411

>  <minimizedRMSD>
0.617200077

$$$$
