
 OpenBabel03272510233D

 26 28  0  0  0  0  0  0  0  0999 V2000
   35.6790   29.9850   46.9090 C   0  0  0  0  0  0  0  0  0  0  0  0
   36.7320   30.5030   47.6690 C   0  0  0  0  0  0  0  0  0  0  0  0
   37.7250   31.2480   47.0750 C   0  0  0  0  0  0  0  0  0  0  0  0
   37.6280   31.4570   45.6960 C   0  0  0  0  0  0  0  0  0  0  0  0
   38.4830   32.1560   44.8970 N   0  0  0  0  0  0  0  0  0  0  0  0
   37.9760   32.0790   43.6520 C   0  0  0  0  0  0  0  0  0  0  0  0
   36.8470   31.3670   43.6350 N   0  0  0  0  0  0  0  0  0  0  0  0
   36.6030   30.9640   44.9010 C   0  0  0  0  0  0  0  0  0  0  0  0
   35.6160   30.2140   45.5320 C   0  0  0  0  0  0  0  0  0  0  0  0
   34.8680   29.3920   47.3120 H   0  0  0  0  0  0  0  0  0  0  0  0
   38.5340   31.6490   47.6500 H   0  0  0  0  0  0  0  0  0  0  0  0
   39.3590   32.6470   45.2200 H   0  0  0  0  0  0  0  0  0  0  0  0
   34.8120   29.8250   44.9200 H   0  0  0  0  0  0  0  0  0  0  0  0
   37.6160   30.2210   51.3080 C   0  0  0  0  0  0  0  0  0  0  0  0
   37.7460   30.5520   49.9620 C   0  0  0  0  0  0  0  0  0  0  0  0
   36.7170   30.2140   49.0920 C   0  0  0  0  0  0  0  0  0  0  0  0
   35.6150   29.5690   49.5970 N   0  0  0  0  0  0  0  0  0  0  0  0
   35.5220   29.2620   50.9180 C   0  0  0  0  0  0  0  0  0  0  0  0
   36.5130   29.5870   51.7560 N   0  0  0  0  0  0  0  0  0  0  0  0
   38.4740   30.5340   51.8780 H   0  0  0  0  0  0  0  0  0  0  0  0
   38.5920   31.0580   49.5220 H   0  0  0  0  0  0  0  0  0  0  0  0
   34.6640   28.7570   51.3240 H   0  0  0  0  0  0  0  0  0  0  0  0
   38.6470   32.7120   42.5870 O   0  0  0  0  0  0  0  0  0  0  0  0
   39.7100   32.0530   41.9430 C   0  0  0  0  0  0  0  0  0  0  0  0
   39.8420   32.4550   40.9410 H   0  0  0  0  0  0  0  0  0  0  0  0
   40.3730   31.1310   42.5200 O   0  0  0  0  0  0  0  0  0  0  0  0
  1 10  1  0  0  0  0
  1  2  1  0  0  0  0
  2 16  1  0  0  0  0
  3 11  1  0  0  0  0
  3  2  2  0  0  0  0
  4  3  1  0  0  0  0
  5 12  1  0  0  0  0
  5  4  1  0  0  0  0
  6  5  1  0  0  0  0
  7  6  2  0  0  0  0
  7  8  1  0  0  0  0
  8  9  1  0  0  0  0
  8  4  2  0  0  0  0
  9  1  2  0  0  0  0
 13  9  1  0  0  0  0
 14 19  1  0  0  0  0
 14 20  1  0  0  0  0
 15 14  2  0  0  0  0
 16 17  2  0  0  0  0
 16 15  1  0  0  0  0
 17 18  1  0  0  0  0
 18 22  1  0  0  0  0
 18 19  2  0  0  0  0
 21 15  1  0  0  0  0
 23  6  1  0  0  0  0
 24 26  2  0  0  0  0
 24 23  1  0  0  0  0
 25 24  1  0  0  0  0
M  END
>  <minimizedAffinity>
-4.72576523

>  <minimizedRMSD>
1.94164312

$$$$
