
 OpenBabel03272509183D

 27 28  0  0  0  0  0  0  0  0999 V2000
   37.9990   31.3450   47.6300 C   0  0  0  0  0  0  0  0  0  0  0  0
   37.0840   31.3050   48.6650 C   0  0  0  0  0  0  0  0  0  0  0  0
   37.1940   32.3490   49.5980 C   0  0  0  0  0  0  0  0  0  0  0  0
   38.1750   33.3400   49.4540 C   0  0  0  0  0  0  0  0  0  0  0  0
   39.0610   33.2960   48.3660 C   0  0  0  0  0  0  0  0  0  0  0  0
   38.9630   32.2810   47.4480 C   0  0  0  0  0  0  0  0  0  0  0  0
   36.5210   32.4010   50.4430 H   0  0  0  0  0  0  0  0  0  0  0  0
   38.2500   34.1370   50.1770 H   0  0  0  0  0  0  0  0  0  0  0  0
   39.8010   34.0850   48.3000 H   0  0  0  0  0  0  0  0  0  0  0  0
   34.9370   30.3280   48.0100 C   0  0  0  0  0  0  0  0  0  0  0  0
   36.0820   30.2890   48.8090 C   0  0  0  0  0  0  0  0  0  0  0  0
   36.2000   29.2440   49.7290 C   0  0  0  0  0  0  0  0  0  0  0  0
   35.1910   28.3310   49.7860 N   0  0  0  0  0  0  0  0  0  0  0  0
   34.1030   28.4010   49.0000 C   0  0  0  0  0  0  0  0  0  0  0  0
   33.9740   29.3980   48.1120 N   0  0  0  0  0  0  0  0  0  0  0  0
   34.8560   31.1450   47.2980 H   0  0  0  0  0  0  0  0  0  0  0  0
   33.3060   27.6680   49.0550 H   0  0  0  0  0  0  0  0  0  0  0  0
   37.3880   29.1550   50.5970 C   0  0  0  0  0  0  0  0  0  0  0  0
   38.3390   29.1790   50.0100 H   0  0  0  0  0  0  0  0  0  0  0  0
   37.4400   30.0210   51.3060 H   0  0  0  0  0  0  0  0  0  0  0  0
   37.3700   28.1920   51.1400 H   0  0  0  0  0  0  0  0  0  0  0  0
   37.9550   30.3340   46.6500 O   0  0  0  0  0  0  0  0  0  0  0  0
   37.1920   30.4050   45.9710 H   0  0  0  0  0  0  0  0  0  0  0  0
   39.8510   32.2640   46.3850 O   0  0  0  0  0  0  0  0  0  0  0  0
   39.5180   32.9260   45.1980 C   0  0  0  0  0  0  0  0  0  0  0  0
   38.7160   32.4230   44.6680 H   0  0  0  0  0  0  0  0  0  0  0  0
   40.1250   33.9820   44.8460 O   0  0  0  0  0  0  0  0  0  0  0  0
  1  2  1  0  0  0  0
  2 11  1  0  0  0  0
  2  3  2  0  0  0  0
  3  7  1  0  0  0  0
  4  3  1  0  0  0  0
  4  8  1  0  0  0  0
  5  4  2  0  0  0  0
  6  1  2  0  0  0  0
  6  5  1  0  0  0  0
  9  5  1  0  0  0  0
 10 15  2  0  0  0  0
 10 11  1  0  0  0  0
 11 12  2  0  0  0  0
 12 13  1  0  0  0  0
 12 18  1  0  0  0  0
 14 17  1  0  0  0  0
 14 13  2  0  0  0  0
 15 14  1  0  0  0  0
 16 10  1  0  0  0  0
 18 21  1  0  0  0  0
 18 20  1  0  0  0  0
 19 18  1  0  0  0  0
 22  1  1  0  0  0  0
 23 22  1  0  0  0  0
 24  6  1  0  0  0  0
 25 24  1  0  0  0  0
 26 25  1  0  0  0  0
 27 25  2  0  0  0  0
M  END
>  <minimizedAffinity>
-5.85205841

>  <minimizedRMSD>
0.182860792

$$$$
