
 OpenBabel03272504213D

 33 34  0  0  1  0  0  0  0  0999 V2000
   35.8880   29.8340   46.9540 O   0  0  0  0  0  0  0  0  0  0  0  0
   35.9620   30.1610   48.4210 P   0  0  2  0  0  0  0  0  0  0  0  0
   36.7530   28.8740   49.2160 O   0  0  0  0  0  0  0  0  0  0  0  0
   37.0840   29.2600   50.0780 H   0  0  0  0  0  0  0  0  0  0  0  0
   34.3940   30.3440   49.0570 O   0  0  0  0  0  0  0  0  0  0  0  0
   34.1280   29.2030   49.7940 C   0  0  0  0  0  0  0  0  0  0  0  0
   33.5720   29.5210   50.7170 H   0  0  0  0  0  0  0  0  0  0  0  0
   35.0540   28.7260   50.1780 H   0  0  0  0  0  0  0  0  0  0  0  0
   33.2680   28.2310   49.0860 C   0  0  0  0  0  0  0  0  0  0  0  0
   33.8950   27.3340   48.2550 C   0  0  0  0  0  0  0  0  0  0  0  0
   33.1360   26.3900   47.5570 C   0  0  0  0  0  0  0  0  0  0  0  0
   31.7870   26.4210   47.7520 N   0  0  0  0  0  0  0  0  0  0  0  0
   31.1890   27.3140   48.5770 C   0  0  0  0  0  0  0  0  0  0  0  0
   31.9330   28.2300   49.2520 N   0  0  0  0  0  0  0  0  0  0  0  0
   34.9450   27.2320   48.0370 H   0  0  0  0  0  0  0  0  0  0  0  0
   33.5420   25.6530   46.8880 H   0  0  0  0  0  0  0  0  0  0  0  0
   30.1230   27.3110   48.7080 H   0  0  0  0  0  0  0  0  0  0  0  0
   36.8460   31.5790   48.6310 O   0  0  0  0  0  0  0  0  0  0  0  0
   38.8630   32.3820   47.8060 C   0  0  2  0  0  0  0  0  0  0  0  0
   38.2050   31.3700   48.7080 C   0  0  1  0  0  0  0  0  0  0  0  0
   38.7140   31.9190   50.0520 C   0  0  0  0  0  0  0  0  0  0  0  0
   38.3950   33.2510   49.9410 O   0  0  0  0  0  0  0  0  0  0  0  0
   38.6540   33.6520   48.6490 C   0  0  0  0  0  0  0  0  0  0  0  0
   39.9410   32.2320   47.7050 H   0  0  0  0  0  0  0  0  0  0  0  0
   38.5310   30.3320   48.5300 H   0  0  0  0  0  0  0  0  0  0  0  0
   39.8240   31.7200   50.0500 H   0  0  0  0  0  0  0  0  0  0  0  0
   38.2230   31.4450   50.9020 H   0  0  0  0  0  0  0  0  0  0  0  0
   39.5120   34.3280   48.5540 H   0  0  0  0  0  0  0  0  0  0  0  0
   37.7270   34.1610   48.2830 H   0  0  0  0  0  0  0  0  0  0  0  0
   38.1440   32.4350   46.6170 O   0  0  0  0  0  0  0  0  0  0  0  0
   38.8330   32.4430   45.4000 C   0  0  0  0  0  0  0  0  0  0  0  0
   38.6030   31.7310   44.6010 H   0  0  0  0  0  0  0  0  0  0  0  0
   39.7440   33.3150   45.2550 O   0  0  0  0  0  0  0  0  0  0  0  0
  2  1  2  6  0  0  0
  2 18  1  0  0  0  0
  2  5  1  0  0  0  0
  2  3  1  0  0  0  0
  3  4  1  0  0  0  0
  5  6  1  0  0  0  0
  6  8  1  0  0  0  0
  6  7  1  0  0  0  0
  9 14  1  0  0  0  0
  9  6  1  0  0  0  0
 10  9  2  0  0  0  0
 11 12  2  0  0  0  0
 11 10  1  0  0  0  0
 12 13  1  0  0  0  0
 13 17  1  0  0  0  0
 13 14  2  0  0  0  0
 15 10  1  0  0  0  0
 16 11  1  0  0  0  0
 18 20  1  0  0  0  0
 19 24  1  6  0  0  0
 19 23  1  0  0  0  0
 19 20  1  0  0  0  0
 20 25  1  6  0  0  0
 20 21  1  0  0  0  0
 21 27  1  0  0  0  0
 22 21  1  0  0  0  0
 23 22  1  0  0  0  0
 26 21  1  0  0  0  0
 28 23  1  0  0  0  0
 29 23  1  0  0  0  0
 30 19  1  0  0  0  0
 31 30  1  0  0  0  0
 32 31  1  0  0  0  0
 33 31  2  0  0  0  0
M  END
>  <minimizedAffinity>
-4.00108337

>  <minimizedRMSD>
0.257207125

$$$$
