REMARK  Name = 
REMARK  3 active torsions:
REMARK  status: ('A' for Active; 'I' for Inactive)
REMARK    1  A    between atoms: C_2  and  C_12
REMARK    2  A    between atoms: C_6  and  O_16
REMARK    3  A    between atoms: O_16  and  C_24
REMARK                            x       y       z     vdW  Elec       q    Type
REMARK                         _______ _______ _______ _____ _____    ______ ____
ROOT
ATOM      1  C   UNL     1      36.856  30.540  46.912  0.00  0.00    +0.000 A 
ATOM      2  C   UNL     1      37.523  31.039  48.035  0.00  0.00    +0.000 A 
ATOM      3  C   UNL     1      38.505  31.994  47.901  0.00  0.00    +0.000 A 
ATOM      4  C   UNL     1      38.796  32.432  46.605  0.00  0.00    +0.000 A 
ATOM      5  N   UNL     1      39.719  33.361  46.227  0.00  0.00    +0.000 N 
ATOM      6  C   UNL     1      39.634  33.446  44.886  0.00  0.00    +0.000 A 
ATOM      7  N   UNL     1      38.704  32.616  44.409  0.00  0.00    +0.000 NA
ATOM      8  C   UNL     1      38.161  31.967  45.462  0.00  0.00    +0.000 A 
ATOM      9  C   UNL     1      37.174  31.002  45.632  0.00  0.00    +0.000 A 
ATOM     10  H   UNL     1      36.076  29.790  46.947  0.00  0.00    +0.000 HD
ATOM     11  H   UNL     1      39.020  32.381  48.755  0.00  0.00    +0.000 HD
ATOM     12  H   UNL     1      40.357  33.890  46.880  0.00  0.00    +0.000 HD
ATOM     13  H   UNL     1      36.673  30.633  44.746  0.00  0.00    +0.000 HD
ENDROOT
BRANCH   2  16
ATOM     14  C   UNL     1      37.397  30.072  51.662  0.00  0.00    +0.000 A 
ATOM     15  C   UNL     1      37.883  30.632  50.483  0.00  0.00    +0.000 A 
ATOM     16  C   UNL     1      37.127  30.501  49.325  0.00  0.00    +0.000 A 
ATOM     17  N   UNL     1      35.934  29.825  49.391  0.00  0.00    +0.000 NA
ATOM     18  C   UNL     1      35.491  29.291  50.560  0.00  0.00    +0.000 A 
ATOM     19  N   UNL     1      36.218  29.417  51.676  0.00  0.00    +0.000 NA
ATOM     20  H   UNL     1      38.069  30.240  52.486  0.00  0.00    +0.000 HD
ATOM     21  H   UNL     1      38.813  31.171  50.384  0.00  0.00    +0.000 HD
ATOM     22  H   UNL     1      34.558  28.760  50.624  0.00  0.00    +0.000 HD
ENDBRANCH   2  16
BRANCH   6  23
ATOM     23  O   UNL     1      40.476  34.336  44.191  0.00  0.00    +0.000 OA
BRANCH  23  24
ATOM     24  C   UNL     1      41.733  33.896  43.738  0.00  0.00    +0.000 C 
ATOM     25  H   UNL     1      41.637  32.918  43.271  0.00  0.00    +0.000 HD
ATOM     26  O   UNL     1      42.783  34.600  43.891  0.00  0.00    +0.000 OA
ENDBRANCH  23  24
ENDBRANCH   6  23
TORSDOF 3
