
 OpenBabel03272510233D

 26 28  0  0  0  0  0  0  0  0999 V2000
   36.0470   30.2620   46.7300 C   0  0  0  0  0  0  0  0  0  0  0  0
   37.1730   30.4010   47.5470 C   0  0  0  0  0  0  0  0  0  0  0  0
   38.3920   30.7480   47.0100 C   0  0  0  0  0  0  0  0  0  0  0  0
   38.4450   30.9520   45.6280 C   0  0  0  0  0  0  0  0  0  0  0  0
   39.5290   31.2980   44.8770 N   0  0  0  0  0  0  0  0  0  0  0  0
   39.0920   31.3780   43.6060 C   0  0  0  0  0  0  0  0  0  0  0  0
   37.7890   31.0970   43.5270 N   0  0  0  0  0  0  0  0  0  0  0  0
   37.3550   30.8270   44.7770 C   0  0  0  0  0  0  0  0  0  0  0  0
   36.1390   30.4740   45.3510 C   0  0  0  0  0  0  0  0  0  0  0  0
   35.0620   29.9920   47.0870 H   0  0  0  0  0  0  0  0  0  0  0  0
   39.2580   30.8560   47.6290 H   0  0  0  0  0  0  0  0  0  0  0  0
   40.5020   31.4640   45.2490 H   0  0  0  0  0  0  0  0  0  0  0  0
   35.2830   30.3740   44.6960 H   0  0  0  0  0  0  0  0  0  0  0  0
   37.6050   30.2530   51.2750 C   0  0  0  0  0  0  0  0  0  0  0  0
   37.8980   30.5380   49.9440 C   0  0  0  0  0  0  0  0  0  0  0  0
   36.9850   30.1610   48.9680 C   0  0  0  0  0  0  0  0  0  0  0  0
   35.8330   29.5230   49.3560 N   0  0  0  0  0  0  0  0  0  0  0  0
   35.5800   29.2610   50.6660 C   0  0  0  0  0  0  0  0  0  0  0  0
   36.4590   29.6250   51.6070 N   0  0  0  0  0  0  0  0  0  0  0  0
   38.3860   30.5940   51.9340 H   0  0  0  0  0  0  0  0  0  0  0  0
   38.7890   31.0370   49.5930 H   0  0  0  0  0  0  0  0  0  0  0  0
   34.6810   28.7630   50.9820 H   0  0  0  0  0  0  0  0  0  0  0  0
   39.9940   31.7210   42.5810 O   0  0  0  0  0  0  0  0  0  0  0  0
   40.6690   30.7070   41.8780 C   0  0  0  0  0  0  0  0  0  0  0  0
   40.6540   30.9240   40.8110 H   0  0  0  0  0  0  0  0  0  0  0  0
   41.1950   29.7140   42.4760 O   0  0  0  0  0  0  0  0  0  0  0  0
  1 10  1  0  0  0  0
  1  2  1  0  0  0  0
  2 16  1  0  0  0  0
  3  2  2  0  0  0  0
  3 11  1  0  0  0  0
  4  3  1  0  0  0  0
  5 12  1  0  0  0  0
  5  4  1  0  0  0  0
  6  5  1  0  0  0  0
  7  6  2  0  0  0  0
  7  8  1  0  0  0  0
  8  9  1  0  0  0  0
  8  4  2  0  0  0  0
  9  1  2  0  0  0  0
 13  9  1  0  0  0  0
 14 19  1  0  0  0  0
 14 20  1  0  0  0  0
 15 14  2  0  0  0  0
 16 17  2  0  0  0  0
 16 15  1  0  0  0  0
 17 18  1  0  0  0  0
 18 22  1  0  0  0  0
 18 19  2  0  0  0  0
 21 15  1  0  0  0  0
 23  6  1  0  0  0  0
 24 26  2  0  0  0  0
 24 23  1  0  0  0  0
 25 24  1  0  0  0  0
M  END
>  <minimizedAffinity>
-4.88938236

>  <minimizedRMSD>
1.89551151

$$$$
