
 OpenBabel03272509453D

 13 13  0  0  0  0  0  0  0  0999 V2000
   37.3990   30.3030   51.3980 C   0  0  0  0  0  0  0  0  0  0  0  0
   38.1190   30.8710   50.3220 C   0  0  0  0  0  0  0  0  0  0  0  0
   37.7760   30.5110   49.0130 C   0  0  0  0  0  0  0  0  0  0  0  0
   36.7480   29.6170   48.8480 N   0  0  0  0  0  0  0  0  0  0  0  0
   36.0810   29.0940   49.9140 C   0  0  0  0  0  0  0  0  0  0  0  0
   36.4140   29.4420   51.1690 N   0  0  0  0  0  0  0  0  0  0  0  0
   37.6980   30.6100   52.3920 H   0  0  0  0  0  0  0  0  0  0  0  0
   38.9330   31.5780   50.4220 H   0  0  0  0  0  0  0  0  0  0  0  0
   38.3040   30.9250   48.1910 H   0  0  0  0  0  0  0  0  0  0  0  0
   35.0880   28.2190   49.5300 O   0  0  0  0  0  0  0  0  0  0  0  0
   33.8000   28.6790   49.3140 C   0  0  0  0  0  0  0  0  0  0  0  0
   33.6210   29.6400   49.8040 H   0  0  0  0  0  0  0  0  0  0  0  0
   33.5870   27.6280   48.6240 O   0  0  0  0  0  0  0  0  0  0  0  0
  1  7  1  0  0  0  0
  2  8  1  0  0  0  0
  2  1  2  0  0  0  0
  3  2  1  0  0  0  0
  4  3  2  0  0  0  0
  4  5  1  0  0  0  0
  5  6  2  0  0  0  0
  6  1  1  0  0  0  0
  9  3  1  0  0  0  0
 10  5  1  0  0  0  0
 11 10  1  0  0  0  0
 11 12  1  0  0  0  0
 13 11  2  0  0  0  0
M  END
>  <minimizedAffinity>
-3.37991071

>  <minimizedRMSD>
0.246375963

$$$$
