
 OpenBabel03272510243D

 26 28  0  0  0  0  0  0  0  0999 V2000
   35.6600   30.0500   46.9530 C   0  0  0  0  0  0  0  0  0  0  0  0
   36.8450   30.3980   47.6090 C   0  0  0  0  0  0  0  0  0  0  0  0
   37.9120   30.9090   46.9060 C   0  0  0  0  0  0  0  0  0  0  0  0
   37.7530   31.0590   45.5250 C   0  0  0  0  0  0  0  0  0  0  0  0
   38.6610   31.5400   44.6290 N   0  0  0  0  0  0  0  0  0  0  0  0
   38.0570   31.4950   43.4270 C   0  0  0  0  0  0  0  0  0  0  0  0
   36.8170   31.0110   43.5290 N   0  0  0  0  0  0  0  0  0  0  0  0
   36.5970   30.7290   44.8310 C   0  0  0  0  0  0  0  0  0  0  0  0
   35.5380   30.2150   45.5710 C   0  0  0  0  0  0  0  0  0  0  0  0
   34.7850   29.6440   47.4450 H   0  0  0  0  0  0  0  0  0  0  0  0
   38.8220   31.1770   47.4010 H   0  0  0  0  0  0  0  0  0  0  0  0
   39.6350   31.8720   44.8640 H   0  0  0  0  0  0  0  0  0  0  0  0
   34.6320   29.9540   45.0380 H   0  0  0  0  0  0  0  0  0  0  0  0
   37.8490   30.3540   51.2280 C   0  0  0  0  0  0  0  0  0  0  0  0
   37.9280   30.6090   49.8610 C   0  0  0  0  0  0  0  0  0  0  0  0
   36.8820   30.1920   49.0470 C   0  0  0  0  0  0  0  0  0  0  0  0
   35.8170   29.5470   49.6230 N   0  0  0  0  0  0  0  0  0  0  0  0
   35.7740   29.3150   50.9620 C   0  0  0  0  0  0  0  0  0  0  0  0
   36.7800   29.7160   51.7470 N   0  0  0  0  0  0  0  0  0  0  0  0
   38.7150   30.7240   51.7500 H   0  0  0  0  0  0  0  0  0  0  0  0
   38.7440   31.1120   49.3650 H   0  0  0  0  0  0  0  0  0  0  0  0
   34.9440   28.8110   51.4240 H   0  0  0  0  0  0  0  0  0  0  0  0
   38.7520   31.9330   42.2830 O   0  0  0  0  0  0  0  0  0  0  0  0
   39.1520   33.2780   42.1820 C   0  0  0  0  0  0  0  0  0  0  0  0
   39.8350   33.5230   42.9920 H   0  0  0  0  0  0  0  0  0  0  0  0
   38.7290   34.0320   41.2460 O   0  0  0  0  0  0  0  0  0  0  0  0
  1 10  1  0  0  0  0
  1  2  1  0  0  0  0
  2 16  1  0  0  0  0
  3 11  1  0  0  0  0
  3  2  2  0  0  0  0
  4  3  1  0  0  0  0
  5 12  1  0  0  0  0
  5  4  1  0  0  0  0
  6  7  2  0  0  0  0
  6  5  1  0  0  0  0
  7  8  1  0  0  0  0
  8  4  2  0  0  0  0
  8  9  1  0  0  0  0
  9  1  2  0  0  0  0
 13  9  1  0  0  0  0
 14 19  1  0  0  0  0
 14 20  1  0  0  0  0
 15 14  2  0  0  0  0
 16 17  2  0  0  0  0
 16 15  1  0  0  0  0
 17 18  1  0  0  0  0
 18 22  1  0  0  0  0
 18 19  2  0  0  0  0
 21 15  1  0  0  0  0
 23  6  1  0  0  0  0
 24 23  1  0  0  0  0
 24 25  1  0  0  0  0
 26 24  2  0  0  0  0
M  END
>  <minimizedAffinity>
-4.66203785

>  <minimizedRMSD>
2.21459484

$$$$
