
 OpenBabel03272505033D

 23 24  0  0  0  0  0  0  0  0999 V2000
   37.8070   23.6780   33.4260 Cl  0  0  0  0  0  0  0  0  0  0  0  0
   37.7920   25.2670   34.1770 C   0  0  0  0  0  0  0  0  0  0  0  0
   38.4330   25.4470   35.3720 C   0  0  0  0  0  0  0  0  0  0  0  0
   38.3800   26.7200   35.9030 C   0  0  0  0  0  0  0  0  0  0  0  0
   37.7040   27.7310   35.2290 C   0  0  0  0  0  0  0  0  0  0  0  0
   37.0780   27.5060   34.0390 C   0  0  0  0  0  0  0  0  0  0  0  0
   37.1230   26.2490   33.5030 C   0  0  0  0  0  0  0  0  0  0  0  0
   38.8670   26.9370   36.8490 H   0  0  0  0  0  0  0  0  0  0  0  0
   37.7030   28.7050   35.7040 H   0  0  0  0  0  0  0  0  0  0  0  0
   36.5670   28.3340   33.5620 H   0  0  0  0  0  0  0  0  0  0  0  0
   40.3770   23.8950   35.6400 C   0  0  0  0  0  0  0  0  0  0  0  0
   39.1460   24.3810   36.0830 C   0  0  0  0  0  0  0  0  0  0  0  0
   38.6060   23.8200   37.2370 C   0  0  0  0  0  0  0  0  0  0  0  0
   39.3190   22.8350   37.8500 N   0  0  0  0  0  0  0  0  0  0  0  0
   40.4900   22.3890   37.4040 C   0  0  0  0  0  0  0  0  0  0  0  0
   41.0230   22.9170   36.2990 N   0  0  0  0  0  0  0  0  0  0  0  0
   40.7900   24.3500   34.7250 H   0  0  0  0  0  0  0  0  0  0  0  0
   37.6610   24.2060   37.5630 H   0  0  0  0  0  0  0  0  0  0  0  0
   41.0040   21.6080   37.9340 H   0  0  0  0  0  0  0  0  0  0  0  0
   36.4800   26.0240   32.2810 O   0  0  0  0  0  0  0  0  0  0  0  0
   35.8990   27.1670   31.7190 C   0  0  0  0  0  0  0  0  0  0  0  0
   35.1250   27.7150   32.2170 H   0  0  0  0  0  0  0  0  0  0  0  0
   36.2760   27.5880   30.5960 O   0  0  0  0  0  0  0  0  0  0  0  0
  1  2  1  0  0  0  0
  2  3  1  0  0  0  0
  3  4  2  0  0  0  0
  3 12  1  0  0  0  0
  4  8  1  0  0  0  0
  5  9  1  0  0  0  0
  5  4  1  0  0  0  0
  6  5  2  0  0  0  0
  7  6  1  0  0  0  0
  7  2  2  0  0  0  0
 10  6  1  0  0  0  0
 11 12  2  0  0  0  0
 11 16  1  0  0  0  0
 12 13  1  0  0  0  0
 13 18  1  0  0  0  0
 13 14  2  0  0  0  0
 15 14  1  0  0  0  0
 15 19  1  0  0  0  0
 16 15  2  0  0  0  0
 17 11  1  0  0  0  0
 20  7  1  0  0  0  0
 21 22  1  0  0  0  0
 21 20  1  0  0  0  0
 23 21  2  0  0  0  0
M  END
>  <minimizedAffinity>
-4.40954065

$$$$

 OpenBabel03272505033D

 23 24  0  0  0  0  0  0  0  0999 V2000
   36.6950   25.2560   32.3950 Cl  0  0  0  0  0  0  0  0  0  0  0  0
   37.3530   25.9700   33.8610 C   0  0  0  0  0  0  0  0  0  0  0  0
   37.2440   27.3200   34.0540 C   0  0  0  0  0  0  0  0  0  0  0  0
   37.7820   27.8110   35.2260 C   0  0  0  0  0  0  0  0  0  0  0  0
   38.3910   26.9480   36.1310 C   0  0  0  0  0  0  0  0  0  0  0  0
   38.4770   25.6080   35.8970 C   0  0  0  0  0  0  0  0  0  0  0  0
   37.9470   25.1100   34.7390 C   0  0  0  0  0  0  0  0  0  0  0  0
   37.7320   28.8730   35.4470 H   0  0  0  0  0  0  0  0  0  0  0  0
   38.7910   27.4030   37.0290 H   0  0  0  0  0  0  0  0  0  0  0  0
   38.9640   24.9870   36.6400 H   0  0  0  0  0  0  0  0  0  0  0  0
   35.3950   28.8690   33.3880 C   0  0  0  0  0  0  0  0  0  0  0  0
   36.6020   28.2310   33.1000 C   0  0  0  0  0  0  0  0  0  0  0  0
   37.1890   28.4850   31.8640 C   0  0  0  0  0  0  0  0  0  0  0  0
   36.5430   29.3400   31.0240 N   0  0  0  0  0  0  0  0  0  0  0  0
   35.3910   29.9350   31.3250 C   0  0  0  0  0  0  0  0  0  0  0  0
   34.8140   29.7020   32.5070 N   0  0  0  0  0  0  0  0  0  0  0  0
   34.9430   28.6560   34.3700 H   0  0  0  0  0  0  0  0  0  0  0  0
   38.1160   27.9870   31.6600 H   0  0  0  0  0  0  0  0  0  0  0  0
   34.9310   30.6000   30.6180 H   0  0  0  0  0  0  0  0  0  0  0  0
   38.0380   23.7340   34.5060 O   0  0  0  0  0  0  0  0  0  0  0  0
   38.0880   22.9550   35.6680 C   0  0  0  0  0  0  0  0  0  0  0  0
   38.6080   23.2780   36.5470 H   0  0  0  0  0  0  0  0  0  0  0  0
   37.5140   21.8370   35.7130 O   0  0  0  0  0  0  0  0  0  0  0  0
  1  2  1  0  0  0  0
  2  3  2  0  0  0  0
  2  7  1  0  0  0  0
  3  4  1  0  0  0  0
  4  8  1  0  0  0  0
  4  5  2  0  0  0  0
  5  9  1  0  0  0  0
  6  5  1  0  0  0  0
  6 10  1  0  0  0  0
  7  6  2  0  0  0  0
 11 17  1  0  0  0  0
 12 11  1  0  0  0  0
 12  3  1  0  0  0  0
 13 12  2  0  0  0  0
 14 15  2  0  0  0  0
 14 13  1  0  0  0  0
 15 16  1  0  0  0  0
 16 11  2  0  0  0  0
 18 13  1  0  0  0  0
 19 15  1  0  0  0  0
 20  7  1  0  0  0  0
 20 21  1  0  0  0  0
 21 23  2  0  0  0  0
 21 22  1  0  0  0  0
M  END
>  <minimizedAffinity>
-4.22824192

$$$$

 OpenBabel03272505033D

 23 24  0  0  0  0  0  0  0  0999 V2000
   35.0160   31.3710   32.0640 Cl  0  0  0  0  0  0  0  0  0  0  0  0
   35.7570   29.8760   32.6160 C   0  0  0  0  0  0  0  0  0  0  0  0
   35.7270   29.5680   33.9490 C   0  0  0  0  0  0  0  0  0  0  0  0
   36.3270   28.3790   34.3110 C   0  0  0  0  0  0  0  0  0  0  0  0
   36.9170   27.5710   33.3450 C   0  0  0  0  0  0  0  0  0  0  0  0
   36.9250   27.9190   32.0260 C   0  0  0  0  0  0  0  0  0  0  0  0
   36.3320   29.0940   31.6560 C   0  0  0  0  0  0  0  0  0  0  0  0
   36.3410   28.0690   35.3520 H   0  0  0  0  0  0  0  0  0  0  0  0
   37.3690   26.6540   33.7000 H   0  0  0  0  0  0  0  0  0  0  0  0
   37.4010   27.2480   31.3200 H   0  0  0  0  0  0  0  0  0  0  0  0
   35.8530   31.2960   35.7540 C   0  0  0  0  0  0  0  0  0  0  0  0
   35.1040   30.4190   34.9690 C   0  0  0  0  0  0  0  0  0  0  0  0
   33.7290   30.3720   35.1820 C   0  0  0  0  0  0  0  0  0  0  0  0
   33.2130   31.1880   36.1430 N   0  0  0  0  0  0  0  0  0  0  0  0
   33.9520   32.0140   36.8780 C   0  0  0  0  0  0  0  0  0  0  0  0
   35.2730   32.0720   36.6870 N   0  0  0  0  0  0  0  0  0  0  0  0
   36.9390   31.3200   35.5730 H   0  0  0  0  0  0  0  0  0  0  0  0
   33.1700   29.6930   34.5690 H   0  0  0  0  0  0  0  0  0  0  0  0
   33.4840   32.6330   37.6220 H   0  0  0  0  0  0  0  0  0  0  0  0
   36.3420   29.4450   30.3020 O   0  0  0  0  0  0  0  0  0  0  0  0
   37.1920   28.6610   29.5110 C   0  0  0  0  0  0  0  0  0  0  0  0
   37.4980   27.6780   29.8070 H   0  0  0  0  0  0  0  0  0  0  0  0
   37.6260   29.0970   28.4140 O   0  0  0  0  0  0  0  0  0  0  0  0
  1  2  1  0  0  0  0
  2  3  1  0  0  0  0
  3  4  2  0  0  0  0
  3 12  1  0  0  0  0
  4  8  1  0  0  0  0
  5  9  1  0  0  0  0
  5  4  1  0  0  0  0
  6  5  2  0  0  0  0
  7  6  1  0  0  0  0
  7  2  2  0  0  0  0
 10  6  1  0  0  0  0
 11 16  1  0  0  0  0
 12 13  1  0  0  0  0
 12 11  2  0  0  0  0
 13 14  2  0  0  0  0
 14 15  1  0  0  0  0
 15 19  1  0  0  0  0
 16 15  2  0  0  0  0
 17 11  1  0  0  0  0
 18 13  1  0  0  0  0
 20  7  1  0  0  0  0
 21 22  1  0  0  0  0
 21 20  1  0  0  0  0
 23 21  2  0  0  0  0
M  END
>  <minimizedAffinity>
-4.18970013

$$$$

 OpenBabel03272505033D

 23 24  0  0  0  0  0  0  0  0999 V2000
   37.2880   24.5580   32.5900 Cl  0  0  0  0  0  0  0  0  0  0  0  0
   37.7010   25.5100   34.0090 C   0  0  0  0  0  0  0  0  0  0  0  0
   37.6750   26.8750   33.9280 C   0  0  0  0  0  0  0  0  0  0  0  0
   38.0100   27.5580   35.0790 C   0  0  0  0  0  0  0  0  0  0  0  0
   38.3490   26.8590   36.2330 C   0  0  0  0  0  0  0  0  0  0  0  0
   38.3620   25.4960   36.2680 C   0  0  0  0  0  0  0  0  0  0  0  0
   38.0320   24.8090   35.1330 C   0  0  0  0  0  0  0  0  0  0  0  0
   38.0100   28.6440   35.0900 H   0  0  0  0  0  0  0  0  0  0  0  0
   38.6000   27.4590   37.0990 H   0  0  0  0  0  0  0  0  0  0  0  0
   38.6350   25.0090   37.1970 H   0  0  0  0  0  0  0  0  0  0  0  0
   38.2190   27.7840   31.6610 C   0  0  0  0  0  0  0  0  0  0  0  0
   37.3170   27.6130   32.7120 C   0  0  0  0  0  0  0  0  0  0  0  0
   36.0490   28.1700   32.5730 C   0  0  0  0  0  0  0  0  0  0  0  0
   35.7790   28.8420   31.4190 N   0  0  0  0  0  0  0  0  0  0  0  0
   36.6610   28.9910   30.4330 C   0  0  0  0  0  0  0  0  0  0  0  0
   37.8820   28.4630   30.5500 N   0  0  0  0  0  0  0  0  0  0  0  0
   39.2190   27.3370   31.7870 H   0  0  0  0  0  0  0  0  0  0  0  0
   35.3690   28.0280   33.3890 H   0  0  0  0  0  0  0  0  0  0  0  0
   36.3870   29.5340   29.5470 H   0  0  0  0  0  0  0  0  0  0  0  0
   38.0470   23.4110   35.1760 O   0  0  0  0  0  0  0  0  0  0  0  0
   38.5770   22.8770   36.3570 C   0  0  0  0  0  0  0  0  0  0  0  0
   38.1840   23.1280   37.3210 H   0  0  0  0  0  0  0  0  0  0  0  0
   39.5450   22.0760   36.3170 O   0  0  0  0  0  0  0  0  0  0  0  0
  1  2  1  0  0  0  0
  2  7  1  0  0  0  0
  3  2  2  0  0  0  0
  3  4  1  0  0  0  0
  4  8  1  0  0  0  0
  4  5  2  0  0  0  0
  5  6  1  0  0  0  0
  5  9  1  0  0  0  0
  6 10  1  0  0  0  0
  7 20  1  0  0  0  0
  7  6  2  0  0  0  0
 11 17  1  0  0  0  0
 11 12  1  0  0  0  0
 12  3  1  0  0  0  0
 13 12  2  0  0  0  0
 13 18  1  0  0  0  0
 14 13  1  0  0  0  0
 15 16  1  0  0  0  0
 15 14  2  0  0  0  0
 16 11  2  0  0  0  0
 19 15  1  0  0  0  0
 20 21  1  0  0  0  0
 21 22  1  0  0  0  0
 23 21  2  0  0  0  0
M  END
>  <minimizedAffinity>
-4.17949867

$$$$

 OpenBabel03272505033D

 23 24  0  0  0  0  0  0  0  0999 V2000
   40.9210   24.5910   34.1590 Cl  0  0  0  0  0  0  0  0  0  0  0  0
   40.2140   23.9860   35.6510 C   0  0  0  0  0  0  0  0  0  0  0  0
   39.0450   24.5330   36.1060 C   0  0  0  0  0  0  0  0  0  0  0  0
   38.5480   24.0100   37.2820 C   0  0  0  0  0  0  0  0  0  0  0  0
   39.2260   22.9870   37.9340 C   0  0  0  0  0  0  0  0  0  0  0  0
   40.3900   22.4720   37.4440 C   0  0  0  0  0  0  0  0  0  0  0  0
   40.8930   22.9820   36.2790 C   0  0  0  0  0  0  0  0  0  0  0  0
   37.6230   24.3950   37.7020 H   0  0  0  0  0  0  0  0  0  0  0  0
   38.7780   22.6240   38.8510 H   0  0  0  0  0  0  0  0  0  0  0  0
   40.8730   21.6750   37.9980 H   0  0  0  0  0  0  0  0  0  0  0  0
   37.6610   25.4020   34.2110 C   0  0  0  0  0  0  0  0  0  0  0  0
   38.3280   25.6120   35.4180 C   0  0  0  0  0  0  0  0  0  0  0  0
   38.2950   26.8940   35.9610 C   0  0  0  0  0  0  0  0  0  0  0  0
   37.6120   27.8510   35.2740 N   0  0  0  0  0  0  0  0  0  0  0  0
   36.9850   27.6220   34.1230 C   0  0  0  0  0  0  0  0  0  0  0  0
   37.0060   26.3980   33.5880 N   0  0  0  0  0  0  0  0  0  0  0  0
   37.6970   24.3820   33.7950 H   0  0  0  0  0  0  0  0  0  0  0  0
   38.8120   27.0370   36.8890 H   0  0  0  0  0  0  0  0  0  0  0  0
   36.4620   28.4210   33.6290 H   0  0  0  0  0  0  0  0  0  0  0  0
   42.0860   22.4490   35.7810 O   0  0  0  0  0  0  0  0  0  0  0  0
   43.2230   22.7920   36.5230 C   0  0  0  0  0  0  0  0  0  0  0  0
   43.8520   22.0520   36.9740 H   0  0  0  0  0  0  0  0  0  0  0  0
   43.5410   23.9980   36.6830 O   0  0  0  0  0  0  0  0  0  0  0  0
  1  2  1  0  0  0  0
  2  3  2  0  0  0  0
  2  7  1  0  0  0  0
  3  4  1  0  0  0  0
  4  8  1  0  0  0  0
  4  5  2  0  0  0  0
  5  9  1  0  0  0  0
  6  5  1  0  0  0  0
  6 10  1  0  0  0  0
  7  6  2  0  0  0  0
 11 12  1  0  0  0  0
 12 13  2  0  0  0  0
 12  3  1  0  0  0  0
 13 18  1  0  0  0  0
 14 13  1  0  0  0  0
 15 14  2  0  0  0  0
 16 15  1  0  0  0  0
 16 11  2  0  0  0  0
 17 11  1  0  0  0  0
 19 15  1  0  0  0  0
 20  7  1  0  0  0  0
 20 21  1  0  0  0  0
 21 23  2  0  0  0  0
 21 22  1  0  0  0  0
M  END
>  <minimizedAffinity>
-4.0976038

$$$$

 OpenBabel03272505033D

 23 24  0  0  0  0  0  0  0  0999 V2000
   36.2820   32.0760   35.4060 Cl  0  0  0  0  0  0  0  0  0  0  0  0
   34.7040   31.4000   35.7870 C   0  0  0  0  0  0  0  0  0  0  0  0
   34.1970   30.4030   34.9990 C   0  0  0  0  0  0  0  0  0  0  0  0
   32.9540   29.9210   35.3550 C   0  0  0  0  0  0  0  0  0  0  0  0
   32.2910   30.4460   36.4590 C   0  0  0  0  0  0  0  0  0  0  0  0
   32.8340   31.4410   37.2160 C   0  0  0  0  0  0  0  0  0  0  0  0
   34.0650   31.9270   36.8730 C   0  0  0  0  0  0  0  0  0  0  0  0
   32.4900   29.1280   34.7760 H   0  0  0  0  0  0  0  0  0  0  0  0
   31.3200   30.0200   36.6800 H   0  0  0  0  0  0  0  0  0  0  0  0
   32.2690   31.8100   38.0640 H   0  0  0  0  0  0  0  0  0  0  0  0
   34.6720   30.3260   32.5430 C   0  0  0  0  0  0  0  0  0  0  0  0
   34.8960   29.8490   33.8350 C   0  0  0  0  0  0  0  0  0  0  0  0
   35.8160   28.8150   33.9920 C   0  0  0  0  0  0  0  0  0  0  0  0
   36.4320   28.3450   32.8720 N   0  0  0  0  0  0  0  0  0  0  0  0
   36.1970   28.8190   31.6510 C   0  0  0  0  0  0  0  0  0  0  0  0
   35.3170   29.8110   31.4820 N   0  0  0  0  0  0  0  0  0  0  0  0
   33.9410   31.1440   32.4360 H   0  0  0  0  0  0  0  0  0  0  0  0
   35.9760   28.4610   34.9910 H   0  0  0  0  0  0  0  0  0  0  0  0
   36.7160   28.4040   30.8060 H   0  0  0  0  0  0  0  0  0  0  0  0
   34.6180   32.9470   37.6540 O   0  0  0  0  0  0  0  0  0  0  0  0
   33.7690   34.0430   37.8540 C   0  0  0  0  0  0  0  0  0  0  0  0
   32.8810   34.1880   37.2720 H   0  0  0  0  0  0  0  0  0  0  0  0
   34.0300   34.9000   38.7360 O   0  0  0  0  0  0  0  0  0  0  0  0
  1  2  1  0  0  0  0
  2  7  1  0  0  0  0
  3  4  1  0  0  0  0
  3  2  2  0  0  0  0
  4  5  2  0  0  0  0
  5  9  1  0  0  0  0
  5  6  1  0  0  0  0
  6 10  1  0  0  0  0
  7  6  2  0  0  0  0
  7 20  1  0  0  0  0
  8  4  1  0  0  0  0
 11 12  1  0  0  0  0
 12 13  2  0  0  0  0
 12  3  1  0  0  0  0
 13 18  1  0  0  0  0
 14 13  1  0  0  0  0
 15 14  2  0  0  0  0
 16 15  1  0  0  0  0
 16 11  2  0  0  0  0
 17 11  1  0  0  0  0
 19 15  1  0  0  0  0
 20 21  1  0  0  0  0
 21 23  2  0  0  0  0
 22 21  1  0  0  0  0
M  END
>  <minimizedAffinity>
-4.07906103

$$$$

 OpenBabel03272505033D

 23 24  0  0  0  0  0  0  0  0999 V2000
   38.3770   24.8990   33.2080 Cl  0  0  0  0  0  0  0  0  0  0  0  0
   37.4360   23.4250   33.0180 C   0  0  0  0  0  0  0  0  0  0  0  0
   37.5370   22.4420   33.9640 C   0  0  0  0  0  0  0  0  0  0  0  0
   36.7710   21.3150   33.7510 C   0  0  0  0  0  0  0  0  0  0  0  0
   35.9570   21.2250   32.6270 C   0  0  0  0  0  0  0  0  0  0  0  0
   35.8880   22.2310   31.7090 C   0  0  0  0  0  0  0  0  0  0  0  0
   36.6430   23.3530   31.9100 C   0  0  0  0  0  0  0  0  0  0  0  0
   36.7990   20.4930   34.4610 H   0  0  0  0  0  0  0  0  0  0  0  0
   35.3830   20.3120   32.5240 H   0  0  0  0  0  0  0  0  0  0  0  0
   35.2350   22.1020   30.8530 H   0  0  0  0  0  0  0  0  0  0  0  0
   37.9100   22.9920   36.3770 C   0  0  0  0  0  0  0  0  0  0  0  0
   38.3950   22.5360   35.1500 C   0  0  0  0  0  0  0  0  0  0  0  0
   39.7350   22.1670   35.0810 C   0  0  0  0  0  0  0  0  0  0  0  0
   40.4780   22.2770   36.2170 N   0  0  0  0  0  0  0  0  0  0  0  0
   39.9890   22.7170   37.3740 C   0  0  0  0  0  0  0  0  0  0  0  0
   38.7050   23.0740   37.4580 N   0  0  0  0  0  0  0  0  0  0  0  0
   36.8470   23.2800   36.4140 H   0  0  0  0  0  0  0  0  0  0  0  0
   40.0910   21.8190   34.1310 H   0  0  0  0  0  0  0  0  0  0  0  0
   40.6280   22.7810   38.2360 H   0  0  0  0  0  0  0  0  0  0  0  0
   36.5670   24.3820   30.9650 O   0  0  0  0  0  0  0  0  0  0  0  0
   35.4980   25.2650   31.1620 C   0  0  0  0  0  0  0  0  0  0  0  0
   35.5030   25.9990   31.9410 H   0  0  0  0  0  0  0  0  0  0  0  0
   34.4870   25.2190   30.4150 O   0  0  0  0  0  0  0  0  0  0  0  0
  2  1  1  0  0  0  0
  2  3  1  0  0  0  0
  3 12  1  0  0  0  0
  4  3  2  0  0  0  0
  4  8  1  0  0  0  0
  5  4  1  0  0  0  0
  6  7  1  0  0  0  0
  6  5  2  0  0  0  0
  7  2  2  0  0  0  0
  9  5  1  0  0  0  0
 10  6  1  0  0  0  0
 11 17  1  0  0  0  0
 11 16  1  0  0  0  0
 12 11  2  0  0  0  0
 13 12  1  0  0  0  0
 13 14  2  0  0  0  0
 14 15  1  0  0  0  0
 15 16  2  0  0  0  0
 15 19  1  0  0  0  0
 18 13  1  0  0  0  0
 20 21  1  0  0  0  0
 20  7  1  0  0  0  0
 21 22  1  0  0  0  0
 23 21  2  0  0  0  0
M  END
>  <minimizedAffinity>
-4.03640604

$$$$

 OpenBabel03272505033D

 23 24  0  0  0  0  0  0  0  0999 V2000
   38.0260   23.3300   33.6810 Cl  0  0  0  0  0  0  0  0  0  0  0  0
   36.9890   24.2810   32.6260 C   0  0  0  0  0  0  0  0  0  0  0  0
   36.1510   23.6370   31.7570 C   0  0  0  0  0  0  0  0  0  0  0  0
   35.3660   24.4460   30.9600 C   0  0  0  0  0  0  0  0  0  0  0  0
   35.4540   25.8290   31.0660 C   0  0  0  0  0  0  0  0  0  0  0  0
   36.3060   26.4280   31.9470 C   0  0  0  0  0  0  0  0  0  0  0  0
   37.0880   25.6380   32.7420 C   0  0  0  0  0  0  0  0  0  0  0  0
   34.6760   24.0040   30.2470 H   0  0  0  0  0  0  0  0  0  0  0  0
   34.8090   26.4010   30.4110 H   0  0  0  0  0  0  0  0  0  0  0  0
   36.3300   27.5120   31.9830 H   0  0  0  0  0  0  0  0  0  0  0  0
   36.9350   21.4420   30.8480 C   0  0  0  0  0  0  0  0  0  0  0  0
   36.0570   22.1780   31.6450 C   0  0  0  0  0  0  0  0  0  0  0  0
   35.0740   21.4790   32.3410 C   0  0  0  0  0  0  0  0  0  0  0  0
   35.0410   20.1260   32.1940 N   0  0  0  0  0  0  0  0  0  0  0  0
   35.8910   19.4490   31.4260 C   0  0  0  0  0  0  0  0  0  0  0  0
   36.8400   20.1040   30.7510 N   0  0  0  0  0  0  0  0  0  0  0  0
   37.7060   22.0100   30.3040 H   0  0  0  0  0  0  0  0  0  0  0  0
   34.4090   22.0610   32.9480 H   0  0  0  0  0  0  0  0  0  0  0  0
   35.8120   18.3800   31.3520 H   0  0  0  0  0  0  0  0  0  0  0  0
   37.9590   26.2580   33.6440 O   0  0  0  0  0  0  0  0  0  0  0  0
   37.3210   26.8680   34.7320 C   0  0  0  0  0  0  0  0  0  0  0  0
   36.2940   26.6790   34.9680 H   0  0  0  0  0  0  0  0  0  0  0  0
   37.9480   27.6670   35.4730 O   0  0  0  0  0  0  0  0  0  0  0  0
  2  7  1  0  0  0  0
  2  1  1  0  0  0  0
  3  2  2  0  0  0  0
  4  5  2  0  0  0  0
  4  3  1  0  0  0  0
  5  6  1  0  0  0  0
  6 10  1  0  0  0  0
  6  7  2  0  0  0  0
  7 20  1  0  0  0  0
  8  4  1  0  0  0  0
  9  5  1  0  0  0  0
 11 12  1  0  0  0  0
 12  3  1  0  0  0  0
 12 13  2  0  0  0  0
 13 18  1  0  0  0  0
 14 13  1  0  0  0  0
 15 14  2  0  0  0  0
 16 11  2  0  0  0  0
 16 15  1  0  0  0  0
 17 11  1  0  0  0  0
 19 15  1  0  0  0  0
 20 21  1  0  0  0  0
 21 22  1  0  0  0  0
 21 23  2  0  0  0  0
M  END
>  <minimizedAffinity>
-4.02847767

$$$$

 OpenBabel03272505033D

 23 24  0  0  0  0  0  0  0  0999 V2000
   40.7900   23.8710   34.0520 Cl  0  0  0  0  0  0  0  0  0  0  0  0
   39.7920   25.0270   34.9240 C   0  0  0  0  0  0  0  0  0  0  0  0
   39.8330   26.3470   34.5670 C   0  0  0  0  0  0  0  0  0  0  0  0
   39.0250   27.1970   35.2940 C   0  0  0  0  0  0  0  0  0  0  0  0
   38.2290   26.6990   36.3200 C   0  0  0  0  0  0  0  0  0  0  0  0
   38.2200   25.3740   36.6410 C   0  0  0  0  0  0  0  0  0  0  0  0
   39.0170   24.5220   35.9280 C   0  0  0  0  0  0  0  0  0  0  0  0
   39.0050   28.2600   35.0660 H   0  0  0  0  0  0  0  0  0  0  0  0
   37.6200   27.4230   36.8460 H   0  0  0  0  0  0  0  0  0  0  0  0
   37.5790   25.0460   37.4510 H   0  0  0  0  0  0  0  0  0  0  0  0
   40.1750   27.0680   32.1960 C   0  0  0  0  0  0  0  0  0  0  0  0
   40.6720   26.8740   33.4850 C   0  0  0  0  0  0  0  0  0  0  0  0
   42.0050   27.1970   33.7210 C   0  0  0  0  0  0  0  0  0  0  0  0
   42.7300   27.6820   32.6740 N   0  0  0  0  0  0  0  0  0  0  0  0
   42.2290   27.8570   31.4530 C   0  0  0  0  0  0  0  0  0  0  0  0
   40.9520   27.5520   31.2100 N   0  0  0  0  0  0  0  0  0  0  0  0
   39.1180   26.8070   32.0260 H   0  0  0  0  0  0  0  0  0  0  0  0
   42.3700   27.0420   34.7170 H   0  0  0  0  0  0  0  0  0  0  0  0
   42.8540   28.2440   30.6690 H   0  0  0  0  0  0  0  0  0  0  0  0
   39.0030   23.1640   36.2620 O   0  0  0  0  0  0  0  0  0  0  0  0
   39.6880   22.8550   37.4430 C   0  0  0  0  0  0  0  0  0  0  0  0
   39.4510   23.3220   38.3770 H   0  0  0  0  0  0  0  0  0  0  0  0
   40.6160   22.0060   37.4390 O   0  0  0  0  0  0  0  0  0  0  0  0
  1  2  1  0  0  0  0
  2  7  1  0  0  0  0
  3  2  2  0  0  0  0
  3  4  1  0  0  0  0
  4  5  2  0  0  0  0
  5  6  1  0  0  0  0
  5  9  1  0  0  0  0
  6 10  1  0  0  0  0
  7 20  1  0  0  0  0
  7  6  2  0  0  0  0
  8  4  1  0  0  0  0
 11 12  1  0  0  0  0
 12 13  2  0  0  0  0
 12  3  1  0  0  0  0
 13 18  1  0  0  0  0
 14 13  1  0  0  0  0
 15 14  2  0  0  0  0
 16 15  1  0  0  0  0
 16 11  2  0  0  0  0
 17 11  1  0  0  0  0
 19 15  1  0  0  0  0
 20 21  1  0  0  0  0
 21 22  1  0  0  0  0
 23 21  2  0  0  0  0
M  END
>  <minimizedAffinity>
-4.0225625

$$$$
