
 OpenBabel03272502243D

 24 25  0  0  0  0  0  0  0  0999 V2000
   37.7550   31.0350   47.4030 C   0  0  0  0  0  0  0  0  0  0  0  0
   37.0030   30.7240   46.2900 C   0  0  0  0  0  0  0  0  0  0  0  0
   37.2930   31.2060   45.0270 C   0  0  0  0  0  0  0  0  0  0  0  0
   38.3660   32.0230   44.8620 N   0  0  0  0  0  0  0  0  0  0  0  0
   39.0690   32.3060   45.9430 C   0  0  0  0  0  0  0  0  0  0  0  0
   38.8040   31.8500   47.1780 N   0  0  0  0  0  0  0  0  0  0  0  0
   36.1350   30.0700   46.3800 H   0  0  0  0  0  0  0  0  0  0  0  0
   36.6600   30.9240   44.1900 H   0  0  0  0  0  0  0  0  0  0  0  0
   37.6090   30.3500   51.0920 C   0  0  0  0  0  0  0  0  0  0  0  0
   38.0730   30.9060   49.8820 C   0  0  0  0  0  0  0  0  0  0  0  0
   37.4070   30.5270   48.7120 C   0  0  0  0  0  0  0  0  0  0  0  0
   36.3790   29.6640   48.8190 N   0  0  0  0  0  0  0  0  0  0  0  0
   35.9550   29.1440   50.0030 C   0  0  0  0  0  0  0  0  0  0  0  0
   36.5960   29.5080   51.1500 N   0  0  0  0  0  0  0  0  0  0  0  0
   38.1570   30.6710   51.9630 H   0  0  0  0  0  0  0  0  0  0  0  0
   38.9040   31.5970   49.8140 H   0  0  0  0  0  0  0  0  0  0  0  0
   34.8800   28.2740   49.8910 O   0  0  0  0  0  0  0  0  0  0  0  0
   33.8230   28.4940   49.0490 C   0  0  0  0  0  0  0  0  0  0  0  0
   33.1810   28.8370   48.2570 H   0  0  0  0  0  0  0  0  0  0  0  0
   32.6490   28.0340   49.0530 O   0  0  0  0  0  0  0  0  0  0  0  0
   40.2470   33.2110   45.7990 C   0  0  0  0  0  0  0  0  0  0  0  0
   40.3670   33.9530   46.9870 F   0  0  0  0  0  0  0  0  0  0  0  0
   41.4060   32.5200   45.5690 F   0  0  0  0  0  0  0  0  0  0  0  0
   40.0770   34.1320   44.8050 F   0  0  0  0  0  0  0  0  0  0  0  0
  1 11  1  0  0  0  0
  2  7  1  0  0  0  0
  2  1  2  0  0  0  0
  3  2  1  0  0  0  0
  4  3  2  0  0  0  0
  4  5  1  0  0  0  0
  5  6  2  0  0  0  0
  6  1  1  0  0  0  0
  8  3  1  0  0  0  0
  9 14  1  0  0  0  0
  9 15  1  0  0  0  0
 10  9  2  0  0  0  0
 11 12  2  0  0  0  0
 11 10  1  0  0  0  0
 12 13  1  0  0  0  0
 13 14  2  0  0  0  0
 16 10  1  0  0  0  0
 17 13  1  0  0  0  0
 18 20  2  0  0  0  0
 18 17  1  0  0  0  0
 19 18  1  0  0  0  0
 21  5  1  0  0  0  0
 21 22  1  0  0  0  0
 23 21  1  0  0  0  0
 24 21  1  0  0  0  0
M  END
>  <minimizedAffinity>
-6.04111767

>  <minimizedRMSD>
0.760524392

$$$$
