
 OpenBabel03272503473D

 18 18  0  0  0  0  0  0  0  0999 V2000
   38.8610   24.4310   36.1820 C   0  0  0  0  0  0  0  0  0  0  0  0
   39.7870   23.4160   36.4290 C   0  0  0  0  0  0  0  0  0  0  0  0
   39.7820   22.8060   37.6920 C   0  0  0  0  0  0  0  0  0  0  0  0
   38.8780   23.2310   38.6140 N   0  0  0  0  0  0  0  0  0  0  0  0
   37.9940   24.2220   38.3320 C   0  0  0  0  0  0  0  0  0  0  0  0
   37.9930   24.8120   37.1220 N   0  0  0  0  0  0  0  0  0  0  0  0
   40.4580   23.1610   35.6210 H   0  0  0  0  0  0  0  0  0  0  0  0
   40.5060   22.0210   37.8690 H   0  0  0  0  0  0  0  0  0  0  0  0
   37.2790   24.5400   39.0990 H   0  0  0  0  0  0  0  0  0  0  0  0
   38.7390   25.1290   34.9910 O   0  0  0  0  0  0  0  0  0  0  0  0
   40.7660   26.8840   34.6910 O   0  0  0  0  0  0  0  0  0  0  0  0
   39.2580   26.7650   34.8400 P   0  0  2  0  0  0  0  0  0  0  0  0
   38.8220   27.6180   36.2280 O   0  0  0  0  0  0  0  0  0  0  0  0
   39.2700   28.4820   36.2860 H   0  0  0  0  0  0  0  0  0  0  0  0
   38.4570   27.3900   33.4760 O   0  0  0  0  0  0  0  0  0  0  0  0
   37.0780   27.5580   33.5430 C   0  0  0  0  0  0  0  0  0  0  0  0
   36.2460   27.4240   32.8740 H   0  0  0  0  0  0  0  0  0  0  0  0
   36.4360   27.9620   34.5480 O   0  0  0  0  0  0  0  0  0  0  0  0
  1  2  2  0  0  0  0
  1  6  1  0  0  0  0
  2  3  1  0  0  0  0
  3  8  1  0  0  0  0
  3  4  2  0  0  0  0
  5  4  1  0  0  0  0
  5  9  1  0  0  0  0
  6  5  2  0  0  0  0
  7  2  1  0  0  0  0
 10  1  1  0  0  0  0
 12 11  2  6  0  0  0
 12 10  1  0  0  0  0
 12 13  1  0  0  0  0
 13 14  1  0  0  0  0
 15 16  1  0  0  0  0
 15 12  1  0  0  0  0
 16 18  2  0  0  0  0
 17 16  1  0  0  0  0
M  END
>  <minimizedAffinity>
-3.92946148

$$$$

 OpenBabel03272503473D

 18 18  0  0  0  0  0  0  0  0999 V2000
   38.1330   24.4730   36.5460 C   0  0  0  0  0  0  0  0  0  0  0  0
   37.9170   24.2670   37.9100 C   0  0  0  0  0  0  0  0  0  0  0  0
   38.7910   23.4140   38.5990 C   0  0  0  0  0  0  0  0  0  0  0  0
   39.8050   22.8290   37.9080 N   0  0  0  0  0  0  0  0  0  0  0  0
   39.9800   23.0570   36.5810 C   0  0  0  0  0  0  0  0  0  0  0  0
   39.1440   23.8750   35.9130 N   0  0  0  0  0  0  0  0  0  0  0  0
   37.0780   24.7840   38.3540 H   0  0  0  0  0  0  0  0  0  0  0  0
   38.6110   23.2640   39.6560 H   0  0  0  0  0  0  0  0  0  0  0  0
   40.8080   22.5690   36.0550 H   0  0  0  0  0  0  0  0  0  0  0  0
   37.3610   25.2830   35.7280 O   0  0  0  0  0  0  0  0  0  0  0  0
   39.0310   27.3950   35.8980 O   0  0  0  0  0  0  0  0  0  0  0  0
   37.9910   26.7210   35.0180 P   0  0  2  0  0  0  0  0  0  0  0  0
   36.7360   27.8240   34.7880 O   0  0  0  0  0  0  0  0  0  0  0  0
   37.0640   28.7200   34.5880 H   0  0  0  0  0  0  0  0  0  0  0  0
   38.6610   26.2550   33.5260 O   0  0  0  0  0  0  0  0  0  0  0  0
   37.8090   26.1260   32.4340 C   0  0  0  0  0  0  0  0  0  0  0  0
   37.9060   26.1790   31.3630 H   0  0  0  0  0  0  0  0  0  0  0  0
   36.5750   25.8860   32.4900 O   0  0  0  0  0  0  0  0  0  0  0  0
  1  2  1  0  0  0  0
  2  7  1  0  0  0  0
  2  3  2  0  0  0  0
  3  8  1  0  0  0  0
  4  3  1  0  0  0  0
  5  4  2  0  0  0  0
  6  1  2  0  0  0  0
  6  5  1  0  0  0  0
  9  5  1  0  0  0  0
 10  1  1  0  0  0  0
 12 10  1  0  0  0  0
 12 11  2  1  0  0  0
 13 12  1  0  0  0  0
 14 13  1  0  0  0  0
 15 12  1  0  0  0  0
 16 18  2  0  0  0  0
 16 15  1  0  0  0  0
 17 16  1  0  0  0  0
M  END
>  <minimizedAffinity>
-3.48746181

$$$$

 OpenBabel03272503473D

 18 18  0  0  0  0  0  0  0  0999 V2000
   38.2790   25.2950   35.4890 C   0  0  0  0  0  0  0  0  0  0  0  0
   37.6910   26.5590   35.5520 C   0  0  0  0  0  0  0  0  0  0  0  0
   37.0560   27.0540   34.4030 C   0  0  0  0  0  0  0  0  0  0  0  0
   37.0420   26.2800   33.2860 N   0  0  0  0  0  0  0  0  0  0  0  0
   37.6270   25.0550   33.2670 C   0  0  0  0  0  0  0  0  0  0  0  0
   38.2390   24.5740   34.3660 N   0  0  0  0  0  0  0  0  0  0  0  0
   37.7640   27.0840   36.4940 H   0  0  0  0  0  0  0  0  0  0  0  0
   36.6040   28.0350   34.4680 H   0  0  0  0  0  0  0  0  0  0  0  0
   37.5970   24.4580   32.3480 H   0  0  0  0  0  0  0  0  0  0  0  0
   38.9430   24.6680   36.5320 O   0  0  0  0  0  0  0  0  0  0  0  0
   37.0200   22.8170   36.9250 O   0  0  0  0  0  0  0  0  0  0  0  0
   38.5090   23.0890   37.0660 P   0  0  2  0  0  0  0  0  0  0  0  0
   38.8960   22.9280   38.7000 O   0  0  0  0  0  0  0  0  0  0  0  0
   38.4850   22.1400   39.1000 H   0  0  0  0  0  0  0  0  0  0  0  0
   39.4220   22.0060   36.1250 O   0  0  0  0  0  0  0  0  0  0  0  0
   40.7760   21.8650   36.4100 C   0  0  0  0  0  0  0  0  0  0  0  0
   41.5890   21.2650   36.0410 H   0  0  0  0  0  0  0  0  0  0  0  0
   41.4120   22.5080   37.2860 O   0  0  0  0  0  0  0  0  0  0  0  0
  1  2  1  0  0  0  0
  1 10  1  0  0  0  0
  2  7  1  0  0  0  0
  3  8  1  0  0  0  0
  3  2  2  0  0  0  0
  4  3  1  0  0  0  0
  5  4  2  0  0  0  0
  5  6  1  0  0  0  0
  6  1  2  0  0  0  0
  9  5  1  0  0  0  0
 10 12  1  0  0  0  0
 12 11  2  6  0  0  0
 12 13  1  0  0  0  0
 13 14  1  0  0  0  0
 15 16  1  0  0  0  0
 15 12  1  0  0  0  0
 16 18  2  0  0  0  0
 17 16  1  0  0  0  0
M  END
>  <minimizedAffinity>
-3.44787002

$$$$

 OpenBabel03272503473D

 18 18  0  0  0  0  0  0  0  0999 V2000
   38.6650   25.3930   35.3990 C   0  0  0  0  0  0  0  0  0  0  0  0
   37.9870   25.2040   34.1940 C   0  0  0  0  0  0  0  0  0  0  0  0
   37.2760   26.2870   33.6560 C   0  0  0  0  0  0  0  0  0  0  0  0
   37.2830   27.4670   34.3320 N   0  0  0  0  0  0  0  0  0  0  0  0
   37.9570   27.6070   35.5020 C   0  0  0  0  0  0  0  0  0  0  0  0
   38.6400   26.5720   36.0240 N   0  0  0  0  0  0  0  0  0  0  0  0
   38.0520   24.2230   33.7470 H   0  0  0  0  0  0  0  0  0  0  0  0
   36.7550   26.1260   32.7210 H   0  0  0  0  0  0  0  0  0  0  0  0
   37.9400   28.5730   36.0200 H   0  0  0  0  0  0  0  0  0  0  0  0
   39.4090   24.4260   36.0580 O   0  0  0  0  0  0  0  0  0  0  0  0
   37.3320   23.5910   37.5660 O   0  0  0  0  0  0  0  0  0  0  0  0
   38.6610   23.1650   36.9620 P   0  0  2  0  0  0  0  0  0  0  0  0
   39.6710   22.7190   38.2380 O   0  0  0  0  0  0  0  0  0  0  0  0
   39.2130   22.1650   38.8950 H   0  0  0  0  0  0  0  0  0  0  0  0
   38.4540   21.8690   35.8810 O   0  0  0  0  0  0  0  0  0  0  0  0
   37.2550   21.7800   35.1800 C   0  0  0  0  0  0  0  0  0  0  0  0
   36.8520   22.2010   34.2760 H   0  0  0  0  0  0  0  0  0  0  0  0
   36.2580   21.0890   35.5160 O   0  0  0  0  0  0  0  0  0  0  0  0
  1  6  1  0  0  0  0
  1 10  1  0  0  0  0
  2  1  2  0  0  0  0
  3  2  1  0  0  0  0
  3  4  2  0  0  0  0
  4  5  1  0  0  0  0
  5  9  1  0  0  0  0
  5  6  2  0  0  0  0
  7  2  1  0  0  0  0
  8  3  1  0  0  0  0
 10 12  1  0  0  0  0
 12 11  2  1  0  0  0
 12 13  1  0  0  0  0
 13 14  1  0  0  0  0
 15 12  1  0  0  0  0
 16 18  2  0  0  0  0
 16 15  1  0  0  0  0
 17 16  1  0  0  0  0
M  END
>  <minimizedAffinity>
-3.44523787

$$$$

 OpenBabel03272503473D

 18 18  0  0  0  0  0  0  0  0999 V2000
   38.8820   25.6170   35.2150 C   0  0  0  0  0  0  0  0  0  0  0  0
   38.6480   26.8300   35.8640 C   0  0  0  0  0  0  0  0  0  0  0  0
   37.6620   27.6820   35.3450 C   0  0  0  0  0  0  0  0  0  0  0  0
   36.9820   27.2860   34.2370 N   0  0  0  0  0  0  0  0  0  0  0  0
   37.2410   26.0970   33.6360 C   0  0  0  0  0  0  0  0  0  0  0  0
   38.1870   25.2750   34.1280 N   0  0  0  0  0  0  0  0  0  0  0  0
   39.2500   27.0390   36.7370 H   0  0  0  0  0  0  0  0  0  0  0  0
   37.4920   28.6190   35.8600 H   0  0  0  0  0  0  0  0  0  0  0  0
   36.6730   25.8100   32.7430 H   0  0  0  0  0  0  0  0  0  0  0  0
   39.8180   24.6710   35.6000 O   0  0  0  0  0  0  0  0  0  0  0  0
   40.1320   22.0080   35.2990 O   0  0  0  0  0  0  0  0  0  0  0  0
   39.3600   23.0740   36.0590 P   0  0  2  0  0  0  0  0  0  0  0  0
   37.7230   22.8460   35.7200 O   0  0  0  0  0  0  0  0  0  0  0  0
   37.4650   21.9080   35.7630 H   0  0  0  0  0  0  0  0  0  0  0  0
   39.6470   22.9640   37.7310 O   0  0  0  0  0  0  0  0  0  0  0  0
   38.6960   23.4910   38.5990 C   0  0  0  0  0  0  0  0  0  0  0  0
   38.5100   23.4600   39.6580 H   0  0  0  0  0  0  0  0  0  0  0  0
   37.7210   24.2150   38.2670 O   0  0  0  0  0  0  0  0  0  0  0  0
  1 10  1  0  0  0  0
  1  2  1  0  0  0  0
  2  7  1  0  0  0  0
  3  8  1  0  0  0  0
  3  2  2  0  0  0  0
  4  3  1  0  0  0  0
  5  6  1  0  0  0  0
  5  4  2  0  0  0  0
  6  1  2  0  0  0  0
  9  5  1  0  0  0  0
 10 12  1  0  0  0  0
 12 11  2  6  0  0  0
 12 15  1  0  0  0  0
 13 14  1  0  0  0  0
 13 12  1  0  0  0  0
 15 16  1  0  0  0  0
 16 17  1  0  0  0  0
 18 16  2  0  0  0  0
M  END
>  <minimizedAffinity>
-3.41874504

$$$$

 OpenBabel03272503473D

 18 18  0  0  0  0  0  0  0  0999 V2000
   38.0740   24.5570   36.6190 C   0  0  0  0  0  0  0  0  0  0  0  0
   37.9730   24.3700   37.9990 C   0  0  0  0  0  0  0  0  0  0  0  0
   38.7880   23.3990   38.5980 C   0  0  0  0  0  0  0  0  0  0  0  0
   39.6360   22.6870   37.8090 N   0  0  0  0  0  0  0  0  0  0  0  0
   39.7030   22.9010   36.4710 C   0  0  0  0  0  0  0  0  0  0  0  0
   38.9240   23.8320   35.8880 N   0  0  0  0  0  0  0  0  0  0  0  0
   37.2630   24.9930   38.5240 H   0  0  0  0  0  0  0  0  0  0  0  0
   38.6980   23.2650   39.6690 H   0  0  0  0  0  0  0  0  0  0  0  0
   40.3980   22.3090   35.8650 H   0  0  0  0  0  0  0  0  0  0  0  0
   37.3410   25.4730   35.8800 O   0  0  0  0  0  0  0  0  0  0  0  0
   37.1790   27.6050   34.2350 O   0  0  0  0  0  0  0  0  0  0  0  0
   38.0720   26.4520   34.6660 P   0  0  2  0  0  0  0  0  0  0  0  0
   38.3710   25.5120   33.2970 O   0  0  0  0  0  0  0  0  0  0  0  0
   38.5860   26.0540   32.5170 H   0  0  0  0  0  0  0  0  0  0  0  0
   39.5290   27.0210   35.3320 O   0  0  0  0  0  0  0  0  0  0  0  0
   40.7070   26.7990   34.6270 C   0  0  0  0  0  0  0  0  0  0  0  0
   41.5300   27.3990   34.2800 H   0  0  0  0  0  0  0  0  0  0  0  0
   41.1010   25.6850   34.1900 O   0  0  0  0  0  0  0  0  0  0  0  0
  1  2  1  0  0  0  0
  2  7  1  0  0  0  0
  2  3  2  0  0  0  0
  3  8  1  0  0  0  0
  4  3  1  0  0  0  0
  5  4  2  0  0  0  0
  6  5  1  0  0  0  0
  6  1  2  0  0  0  0
  9  5  1  0  0  0  0
 10  1  1  0  0  0  0
 12 11  2  6  0  0  0
 12 15  1  0  0  0  0
 12 10  1  0  0  0  0
 13 12  1  0  0  0  0
 14 13  1  0  0  0  0
 16 15  1  0  0  0  0
 17 16  1  0  0  0  0
 18 16  2  0  0  0  0
M  END
>  <minimizedAffinity>
-3.31218266

$$$$

 OpenBabel03272503473D

 18 18  0  0  0  0  0  0  0  0999 V2000
   36.1610   22.0110   32.0350 C   0  0  0  0  0  0  0  0  0  0  0  0
   35.1270   21.2290   32.5510 C   0  0  0  0  0  0  0  0  0  0  0  0
   34.9430   19.9420   32.0250 C   0  0  0  0  0  0  0  0  0  0  0  0
   35.7790   19.5180   31.0410 N   0  0  0  0  0  0  0  0  0  0  0  0
   36.7740   20.3110   30.5680 C   0  0  0  0  0  0  0  0  0  0  0  0
   36.9560   21.5480   31.0680 N   0  0  0  0  0  0  0  0  0  0  0  0
   34.5250   21.6700   33.3320 H   0  0  0  0  0  0  0  0  0  0  0  0
   34.1370   19.3470   32.4350 H   0  0  0  0  0  0  0  0  0  0  0  0
   37.4290   19.9370   29.7730 H   0  0  0  0  0  0  0  0  0  0  0  0
   36.4720   23.2980   32.4460 O   0  0  0  0  0  0  0  0  0  0  0  0
   34.8990   24.6960   30.7570 O   0  0  0  0  0  0  0  0  0  0  0  0
   36.2740   24.6560   31.4040 P   0  0  2  0  0  0  0  0  0  0  0  0
   37.4120   24.5760   30.1620 O   0  0  0  0  0  0  0  0  0  0  0  0
   37.2120   25.1960   29.4370 H   0  0  0  0  0  0  0  0  0  0  0  0
   36.5360   26.0320   32.3690 O   0  0  0  0  0  0  0  0  0  0  0  0
   36.4390   27.2840   31.7710 C   0  0  0  0  0  0  0  0  0  0  0  0
   36.2010   28.2830   32.0930 H   0  0  0  0  0  0  0  0  0  0  0  0
   36.6400   27.5330   30.5530 O   0  0  0  0  0  0  0  0  0  0  0  0
  1 10  1  0  0  0  0
  1  2  1  0  0  0  0
  2  7  1  0  0  0  0
  3  8  1  0  0  0  0
  3  2  2  0  0  0  0
  4  3  1  0  0  0  0
  5  4  2  0  0  0  0
  5  6  1  0  0  0  0
  6  1  2  0  0  0  0
  9  5  1  0  0  0  0
 12 11  2  6  0  0  0
 12 15  1  0  0  0  0
 12 10  1  0  0  0  0
 13 12  1  0  0  0  0
 14 13  1  0  0  0  0
 16 17  1  0  0  0  0
 16 15  1  0  0  0  0
 18 16  2  0  0  0  0
M  END
>  <minimizedAffinity>
-3.27303815

$$$$

 OpenBabel03272503473D

 18 18  0  0  0  0  0  0  0  0999 V2000
   38.2810   27.1340   33.1130 C   0  0  0  0  0  0  0  0  0  0  0  0
   37.3640   27.2880   34.1530 C   0  0  0  0  0  0  0  0  0  0  0  0
   37.8480   27.2880   35.4700 C   0  0  0  0  0  0  0  0  0  0  0  0
   39.1840   27.1410   35.6700 N   0  0  0  0  0  0  0  0  0  0  0  0
   40.0420   26.9940   34.6280 C   0  0  0  0  0  0  0  0  0  0  0  0
   39.5850   26.9920   33.3620 N   0  0  0  0  0  0  0  0  0  0  0  0
   36.3260   27.3970   33.8750 H   0  0  0  0  0  0  0  0  0  0  0  0
   37.1250   27.4090   36.2660 H   0  0  0  0  0  0  0  0  0  0  0  0
   41.1140   26.8770   34.8260 H   0  0  0  0  0  0  0  0  0  0  0  0
   37.9640   27.1120   31.7640 O   0  0  0  0  0  0  0  0  0  0  0  0
   35.2810   27.3520   31.6080 O   0  0  0  0  0  0  0  0  0  0  0  0
   36.5960   27.9520   31.1380 P   0  0  2  0  0  0  0  0  0  0  0  0
   36.6130   27.8670   29.4530 O   0  0  0  0  0  0  0  0  0  0  0  0
   35.7630   28.1400   29.0620 H   0  0  0  0  0  0  0  0  0  0  0  0
   36.7550   29.5630   31.6580 O   0  0  0  0  0  0  0  0  0  0  0  0
   36.8300   30.5630   30.6930 C   0  0  0  0  0  0  0  0  0  0  0  0
   36.7880   30.6090   29.6190 H   0  0  0  0  0  0  0  0  0  0  0  0
   36.9860   31.7920   30.9200 O   0  0  0  0  0  0  0  0  0  0  0  0
  1  6  2  0  0  0  0
  1  2  1  0  0  0  0
  2  3  2  0  0  0  0
  3  4  1  0  0  0  0
  3  8  1  0  0  0  0
  5  9  1  0  0  0  0
  5  4  2  0  0  0  0
  6  5  1  0  0  0  0
  7  2  1  0  0  0  0
 10  1  1  0  0  0  0
 12 11  2  1  0  0  0
 12 15  1  0  0  0  0
 12 10  1  0  0  0  0
 13 12  1  0  0  0  0
 14 13  1  0  0  0  0
 16 18  2  0  0  0  0
 16 15  1  0  0  0  0
 17 16  1  0  0  0  0
M  END
>  <minimizedAffinity>
-3.21511769

$$$$

 OpenBabel03272503473D

 18 18  0  0  0  0  0  0  0  0999 V2000
   37.0910   26.5560   33.4180 C   0  0  0  0  0  0  0  0  0  0  0  0
   37.2230   27.8780   32.9900 C   0  0  0  0  0  0  0  0  0  0  0  0
   37.2890   28.1250   31.6110 C   0  0  0  0  0  0  0  0  0  0  0  0
   37.2210   27.0690   30.7580 N   0  0  0  0  0  0  0  0  0  0  0  0
   37.0920   25.7980   31.2180 C   0  0  0  0  0  0  0  0  0  0  0  0
   37.0290   25.5530   32.5400 N   0  0  0  0  0  0  0  0  0  0  0  0
   37.2670   28.6370   33.7580 H   0  0  0  0  0  0  0  0  0  0  0  0
   37.3920   29.1550   31.2930 H   0  0  0  0  0  0  0  0  0  0  0  0
   37.0410   24.9690   30.5020 H   0  0  0  0  0  0  0  0  0  0  0  0
   37.0130   26.1480   34.7410 O   0  0  0  0  0  0  0  0  0  0  0  0
   38.1900   25.3140   37.0200 O   0  0  0  0  0  0  0  0  0  0  0  0
   38.3860   26.1710   35.7810 P   0  0  2  0  0  0  0  0  0  0  0  0
   38.6630   27.7520   36.3020 O   0  0  0  0  0  0  0  0  0  0  0  0
   39.2890   27.7900   37.0480 H   0  0  0  0  0  0  0  0  0  0  0  0
   39.6930   25.6110   34.8480 O   0  0  0  0  0  0  0  0  0  0  0  0
   39.9920   24.2520   34.8830 C   0  0  0  0  0  0  0  0  0  0  0  0
   39.4950   23.3400   34.6020 H   0  0  0  0  0  0  0  0  0  0  0  0
   41.0620   23.7480   35.3160 O   0  0  0  0  0  0  0  0  0  0  0  0
  1 10  1  0  0  0  0
  2  1  1  0  0  0  0
  2  7  1  0  0  0  0
  3  2  2  0  0  0  0
  4  5  2  0  0  0  0
  4  3  1  0  0  0  0
  5  6  1  0  0  0  0
  6  1  2  0  0  0  0
  8  3  1  0  0  0  0
  9  5  1  0  0  0  0
 10 12  1  0  0  0  0
 12 13  1  0  0  0  0
 12 11  2  1  0  0  0
 13 14  1  0  0  0  0
 15 16  1  0  0  0  0
 15 12  1  0  0  0  0
 16 18  2  0  0  0  0
 17 16  1  0  0  0  0
M  END
>  <minimizedAffinity>
-3.17841887

$$$$
