
 OpenBabel03262521423D

 24 25  0  0  1  0  0  0  0  0999 V2000
   38.7250   31.7580   47.9370 C   0  0  1  0  0  0  0  0  0  0  0  0
   37.9310   30.4510   47.8060 C   0  0  2  0  0  0  0  0  0  0  0  0
   37.0180   30.9350   46.7020 C   0  0  0  0  0  0  0  0  0  0  0  0
   37.8480   31.5560   45.7890 O   0  0  0  0  0  0  0  0  0  0  0  0
   38.9750   31.9900   46.4400 C   0  0  0  0  0  0  0  0  0  0  0  0
   39.6660   31.5280   48.4660 H   0  0  0  0  0  0  0  0  0  0  0  0
   38.6510   29.6870   47.4550 H   0  0  0  0  0  0  0  0  0  0  0  0
   36.3720   31.7280   47.1450 H   0  0  0  0  0  0  0  0  0  0  0  0
   36.4260   30.1090   46.2570 H   0  0  0  0  0  0  0  0  0  0  0  0
   39.1180   33.0950   46.3100 H   0  0  0  0  0  0  0  0  0  0  0  0
   39.8960   31.4560   46.0930 H   0  0  0  0  0  0  0  0  0  0  0  0
   37.2400   30.0970   49.0530 C   0  0  0  0  0  0  0  0  0  0  0  0
   37.9420   30.0910   50.2680 C   0  0  0  0  0  0  0  0  0  0  0  0
   37.2270   29.7240   51.4120 C   0  0  0  0  0  0  0  0  0  0  0  0
   35.9100   29.3960   51.2920 N   0  0  0  0  0  0  0  0  0  0  0  0
   35.2560   29.4130   50.0880 C   0  0  0  0  0  0  0  0  0  0  0  0
   35.9400   29.7670   48.9730 N   0  0  0  0  0  0  0  0  0  0  0  0
   38.9840   30.3540   50.3400 H   0  0  0  0  0  0  0  0  0  0  0  0
   37.6870   29.6920   52.3950 H   0  0  0  0  0  0  0  0  0  0  0  0
   34.2100   29.1440   50.0440 H   0  0  0  0  0  0  0  0  0  0  0  0
   37.9670   32.7960   48.3750 O   0  0  0  0  0  0  0  0  0  0  0  0
   38.4120   33.6880   49.3500 C   0  0  0  0  0  0  0  0  0  0  0  0
   37.6550   33.9490   50.1030 H   0  0  0  0  0  0  0  0  0  0  0  0
   39.5840   34.1820   49.4030 O   0  0  0  0  0  0  0  0  0  0  0  0
  1 21  1  0  0  0  0
  1  6  1  1  0  0  0
  2  7  1  6  0  0  0
  2  1  1  0  0  0  0
  2 12  1  0  0  0  0
  3  8  1  0  0  0  0
  3  2  1  0  0  0  0
  4  5  1  0  0  0  0
  4  3  1  0  0  0  0
  5  1  1  0  0  0  0
  9  3  1  0  0  0  0
 10  5  1  0  0  0  0
 11  5  1  0  0  0  0
 12 13  1  0  0  0  0
 13 18  1  0  0  0  0
 13 14  2  0  0  0  0
 14 19  1  0  0  0  0
 15 14  1  0  0  0  0
 16 15  2  0  0  0  0
 17 12  2  0  0  0  0
 17 16  1  0  0  0  0
 20 16  1  0  0  0  0
 21 22  1  0  0  0  0
 22 24  2  0  0  0  0
 22 23  1  0  0  0  0
M  END
>  <minimizedAffinity>
-4.68959856

>  <minimizedRMSD>
0.801669717

$$$$
