
 OpenBabel03262522203D

 13 13  0  0  0  0  0  0  0  0999 V2000
   39.3180   23.9900   35.8700 C   0  0  0  0  0  0  0  0  0  0  0  0
   38.2410   24.5790   36.5830 C   0  0  0  0  0  0  0  0  0  0  0  0
   38.0550   24.1930   37.9010 C   0  0  0  0  0  0  0  0  0  0  0  0
   38.8980   23.2910   38.4260 N   0  0  0  0  0  0  0  0  0  0  0  0
   39.9100   22.7450   37.7400 C   0  0  0  0  0  0  0  0  0  0  0  0
   40.1420   23.0800   36.4540 N   0  0  0  0  0  0  0  0  0  0  0  0
   39.5460   24.2310   34.8250 H   0  0  0  0  0  0  0  0  0  0  0  0
   37.2230   24.6860   38.3550 H   0  0  0  0  0  0  0  0  0  0  0  0
   40.5430   22.0240   38.2410 H   0  0  0  0  0  0  0  0  0  0  0  0
   37.5220   25.4830   35.8060 O   0  0  0  0  0  0  0  0  0  0  0  0
   38.1450   26.6120   35.2450 C   0  0  0  0  0  0  0  0  0  0  0  0
   38.0290   26.6520   34.1510 H   0  0  0  0  0  0  0  0  0  0  0  0
   38.7450   27.4230   36.0250 O   0  0  0  0  0  0  0  0  0  0  0  0
  1  6  2  0  0  0  0
  1  2  1  0  0  0  0
  2  3  2  0  0  0  0
  3  8  1  0  0  0  0
  3  4  1  0  0  0  0
  5  9  1  0  0  0  0
  5  4  2  0  0  0  0
  6  5  1  0  0  0  0
  7  1  1  0  0  0  0
 10  2  1  0  0  0  0
 11 10  1  0  0  0  0
 11 13  2  0  0  0  0
 12 11  1  0  0  0  0
M  END
>  <minimizedAffinity>
-2.86587858

$$$$

 OpenBabel03262522203D

 13 13  0  0  0  0  0  0  0  0999 V2000
   38.2930   26.3960   36.2650 C   0  0  0  0  0  0  0  0  0  0  0  0
   38.5050   24.9930   36.2230 C   0  0  0  0  0  0  0  0  0  0  0  0
   39.5280   24.5210   35.4170 C   0  0  0  0  0  0  0  0  0  0  0  0
   40.2570   25.4110   34.7260 N   0  0  0  0  0  0  0  0  0  0  0  0
   40.0450   26.7310   34.7770 C   0  0  0  0  0  0  0  0  0  0  0  0
   39.0630   27.2510   35.5440 N   0  0  0  0  0  0  0  0  0  0  0  0
   37.5090   26.8640   36.8730 H   0  0  0  0  0  0  0  0  0  0  0  0
   39.6120   23.4570   35.4480 H   0  0  0  0  0  0  0  0  0  0  0  0
   40.6800   27.3790   34.1870 H   0  0  0  0  0  0  0  0  0  0  0  0
   37.6110   24.2970   37.0330 O   0  0  0  0  0  0  0  0  0  0  0  0
   37.8590   24.1270   38.4060 C   0  0  0  0  0  0  0  0  0  0  0  0
   37.0860   24.5990   39.0310 H   0  0  0  0  0  0  0  0  0  0  0  0
   38.8980   23.4790   38.7590 O   0  0  0  0  0  0  0  0  0  0  0  0
  1  7  1  0  0  0  0
  2  1  1  0  0  0  0
  2 10  1  0  0  0  0
  3  8  1  0  0  0  0
  3  2  2  0  0  0  0
  4  5  2  0  0  0  0
  4  3  1  0  0  0  0
  5  6  1  0  0  0  0
  6  1  2  0  0  0  0
  9  5  1  0  0  0  0
 10 11  1  0  0  0  0
 11 13  2  0  0  0  0
 11 12  1  0  0  0  0
M  END
>  <minimizedAffinity>
-2.85725665

$$$$

 OpenBabel03262522203D

 13 13  0  0  0  0  0  0  0  0999 V2000
   39.7140   23.3310   36.2480 C   0  0  0  0  0  0  0  0  0  0  0  0
   39.7240   22.8800   37.5950 C   0  0  0  0  0  0  0  0  0  0  0  0
   38.7230   23.3420   38.4340 C   0  0  0  0  0  0  0  0  0  0  0  0
   37.8070   24.1830   37.9310 N   0  0  0  0  0  0  0  0  0  0  0  0
   37.8120   24.5990   36.6580 C   0  0  0  0  0  0  0  0  0  0  0  0
   38.7600   24.1840   35.7930 N   0  0  0  0  0  0  0  0  0  0  0  0
   40.4630   23.0210   35.5090 H   0  0  0  0  0  0  0  0  0  0  0  0
   38.8110   22.9520   39.4240 H   0  0  0  0  0  0  0  0  0  0  0  0
   37.0340   25.2790   36.3340 H   0  0  0  0  0  0  0  0  0  0  0  0
   40.7820   22.0140   37.8560 O   0  0  0  0  0  0  0  0  0  0  0  0
   41.5600   21.4850   36.8110 C   0  0  0  0  0  0  0  0  0  0  0  0
   41.3810   22.0010   35.8560 H   0  0  0  0  0  0  0  0  0  0  0  0
   42.3460   20.5160   37.0710 O   0  0  0  0  0  0  0  0  0  0  0  0
  1  2  1  0  0  0  0
  2 10  1  0  0  0  0
  2  3  2  0  0  0  0
  3  8  1  0  0  0  0
  4  3  1  0  0  0  0
  5  4  2  0  0  0  0
  6  1  2  0  0  0  0
  6  5  1  0  0  0  0
  7  1  1  0  0  0  0
  9  5  1  0  0  0  0
 11 13  2  0  0  0  0
 11 10  1  0  0  0  0
 12 11  1  0  0  0  0
M  END
>  <minimizedAffinity>
-2.85334897

$$$$

 OpenBabel03262522203D

 13 13  0  0  0  0  0  0  0  0999 V2000
   37.6930   24.4220   36.9460 C   0  0  0  0  0  0  0  0  0  0  0  0
   38.5940   23.8670   35.9990 C   0  0  0  0  0  0  0  0  0  0  0  0
   39.6170   23.0650   36.4790 C   0  0  0  0  0  0  0  0  0  0  0  0
   39.6970   22.8590   37.8020 N   0  0  0  0  0  0  0  0  0  0  0  0
   38.8390   23.3890   38.6820 C   0  0  0  0  0  0  0  0  0  0  0  0
   37.8230   24.1780   38.2760 N   0  0  0  0  0  0  0  0  0  0  0  0
   36.8530   25.0680   36.6630 H   0  0  0  0  0  0  0  0  0  0  0  0
   40.2430   22.6950   35.6980 H   0  0  0  0  0  0  0  0  0  0  0  0
   38.9770   23.1710   39.7330 H   0  0  0  0  0  0  0  0  0  0  0  0
   38.2860   24.2390   34.6930 O   0  0  0  0  0  0  0  0  0  0  0  0
   38.1080   25.5900   34.3470 C   0  0  0  0  0  0  0  0  0  0  0  0
   38.9020   26.2330   34.7560 H   0  0  0  0  0  0  0  0  0  0  0  0
   37.0990   25.9050   33.6360 O   0  0  0  0  0  0  0  0  0  0  0  0
  1  6  1  0  0  0  0
  2  3  1  0  0  0  0
  2  1  2  0  0  0  0
  3  4  2  0  0  0  0
  4  5  1  0  0  0  0
  5  9  1  0  0  0  0
  6  5  2  0  0  0  0
  7  1  1  0  0  0  0
  8  3  1  0  0  0  0
 10  2  1  0  0  0  0
 11 10  1  0  0  0  0
 11 12  1  0  0  0  0
 13 11  2  0  0  0  0
M  END
>  <minimizedAffinity>
-2.69930863

$$$$

 OpenBabel03262522203D

 13 13  0  0  0  0  0  0  0  0999 V2000
   40.3120   23.6640   35.7920 C   0  0  0  0  0  0  0  0  0  0  0  0
   39.8700   22.8520   36.8690 C   0  0  0  0  0  0  0  0  0  0  0  0
   40.7920   21.9980   37.4520 C   0  0  0  0  0  0  0  0  0  0  0  0
   42.0440   21.9870   36.9690 N   0  0  0  0  0  0  0  0  0  0  0  0
   42.4460   22.7590   35.9520 C   0  0  0  0  0  0  0  0  0  0  0  0
   41.5940   23.6110   35.3440 N   0  0  0  0  0  0  0  0  0  0  0  0
   39.6570   24.3700   35.2670 H   0  0  0  0  0  0  0  0  0  0  0  0
   40.3710   21.4280   38.2500 H   0  0  0  0  0  0  0  0  0  0  0  0
   43.4750   22.6880   35.6240 H   0  0  0  0  0  0  0  0  0  0  0  0
   38.5260   23.0580   37.1710 O   0  0  0  0  0  0  0  0  0  0  0  0
   38.1230   23.4220   38.4680 C   0  0  0  0  0  0  0  0  0  0  0  0
   37.9390   22.5450   39.1090 H   0  0  0  0  0  0  0  0  0  0  0  0
   38.0180   24.6610   38.7460 O   0  0  0  0  0  0  0  0  0  0  0  0
  1  2  1  0  0  0  0
  2 10  1  0  0  0  0
  2  3  2  0  0  0  0
  3  8  1  0  0  0  0
  4  3  1  0  0  0  0
  5  4  2  0  0  0  0
  6  1  2  0  0  0  0
  6  5  1  0  0  0  0
  7  1  1  0  0  0  0
  9  5  1  0  0  0  0
 10 11  1  0  0  0  0
 11 13  2  0  0  0  0
 11 12  1  0  0  0  0
M  END
>  <minimizedAffinity>
-2.6159749

$$$$

 OpenBabel03262522203D

 13 13  0  0  0  0  0  0  0  0999 V2000
   38.3410   23.7000   34.5470 C   0  0  0  0  0  0  0  0  0  0  0  0
   38.2720   24.5890   35.6530 C   0  0  0  0  0  0  0  0  0  0  0  0
   37.7550   25.8540   35.4290 C   0  0  0  0  0  0  0  0  0  0  0  0
   37.3510   26.1670   34.1880 N   0  0  0  0  0  0  0  0  0  0  0  0
   37.4230   25.3180   33.1560 C   0  0  0  0  0  0  0  0  0  0  0  0
   37.9170   24.0720   33.3120 N   0  0  0  0  0  0  0  0  0  0  0  0
   38.7340   22.6790   34.6250 H   0  0  0  0  0  0  0  0  0  0  0  0
   37.7430   26.4510   36.3140 H   0  0  0  0  0  0  0  0  0  0  0  0
   37.0740   25.6520   32.1880 H   0  0  0  0  0  0  0  0  0  0  0  0
   38.7560   24.0150   36.8250 O   0  0  0  0  0  0  0  0  0  0  0  0
   37.9230   23.8390   37.9440 C   0  0  0  0  0  0  0  0  0  0  0  0
   37.3090   22.9290   37.8680 H   0  0  0  0  0  0  0  0  0  0  0  0
   37.9650   24.7090   38.8740 O   0  0  0  0  0  0  0  0  0  0  0  0
  1  7  1  0  0  0  0
  1  2  1  0  0  0  0
  2 10  1  0  0  0  0
  3  2  2  0  0  0  0
  3  8  1  0  0  0  0
  4  3  1  0  0  0  0
  5  6  1  0  0  0  0
  5  4  2  0  0  0  0
  6  1  2  0  0  0  0
  9  5  1  0  0  0  0
 10 11  1  0  0  0  0
 11 13  2  0  0  0  0
 12 11  1  0  0  0  0
M  END
>  <minimizedAffinity>
-2.57285976

$$$$

 OpenBabel03262522203D

 13 13  0  0  0  0  0  0  0  0999 V2000
   40.1710   25.1160   34.9960 C   0  0  0  0  0  0  0  0  0  0  0  0
   39.1910   24.4070   35.7400 C   0  0  0  0  0  0  0  0  0  0  0  0
   38.1800   25.1430   36.3380 C   0  0  0  0  0  0  0  0  0  0  0  0
   38.1850   26.4750   36.1810 N   0  0  0  0  0  0  0  0  0  0  0  0
   39.1160   27.1290   35.4750 C   0  0  0  0  0  0  0  0  0  0  0  0
   40.1250   26.4680   34.8700 N   0  0  0  0  0  0  0  0  0  0  0  0
   41.0070   24.6220   34.4870 H   0  0  0  0  0  0  0  0  0  0  0  0
   37.4930   24.5280   36.8750 H   0  0  0  0  0  0  0  0  0  0  0  0
   39.0440   28.2060   35.3990 H   0  0  0  0  0  0  0  0  0  0  0  0
   39.4200   23.0330   35.7440 O   0  0  0  0  0  0  0  0  0  0  0  0
   40.3710   22.4600   36.6070 C   0  0  0  0  0  0  0  0  0  0  0  0
   41.1670   21.9340   36.0590 H   0  0  0  0  0  0  0  0  0  0  0  0
   40.2140   22.6030   37.8630 O   0  0  0  0  0  0  0  0  0  0  0  0
  1  2  1  0  0  0  0
  2 10  1  0  0  0  0
  2  3  2  0  0  0  0
  3  8  1  0  0  0  0
  4  3  1  0  0  0  0
  5  4  2  0  0  0  0
  6  1  2  0  0  0  0
  6  5  1  0  0  0  0
  7  1  1  0  0  0  0
  9  5  1  0  0  0  0
 10 11  1  0  0  0  0
 11 13  2  0  0  0  0
 12 11  1  0  0  0  0
M  END
>  <minimizedAffinity>
-2.57275867

$$$$

 OpenBabel03262522203D

 13 13  0  0  0  0  0  0  0  0999 V2000
   38.4660   23.8650   36.0710 C   0  0  0  0  0  0  0  0  0  0  0  0
   39.6400   23.1510   36.4270 C   0  0  0  0  0  0  0  0  0  0  0  0
   39.8350   22.8620   37.7680 C   0  0  0  0  0  0  0  0  0  0  0  0
   38.9090   23.2700   38.6490 N   0  0  0  0  0  0  0  0  0  0  0  0
   37.8060   23.9430   38.2970 C   0  0  0  0  0  0  0  0  0  0  0  0
   37.5610   24.2540   37.0070 N   0  0  0  0  0  0  0  0  0  0  0  0
   38.2250   24.1400   35.0370 H   0  0  0  0  0  0  0  0  0  0  0  0
   40.7410   22.3250   37.9410 H   0  0  0  0  0  0  0  0  0  0  0  0
   37.1100   24.2350   39.0720 H   0  0  0  0  0  0  0  0  0  0  0  0
   40.4330   22.8480   35.3230 O   0  0  0  0  0  0  0  0  0  0  0  0
   41.2160   23.8370   34.7000 C   0  0  0  0  0  0  0  0  0  0  0  0
   40.8090   24.1350   33.7220 H   0  0  0  0  0  0  0  0  0  0  0  0
   42.2570   24.2550   35.3050 O   0  0  0  0  0  0  0  0  0  0  0  0
  1  2  2  0  0  0  0
  1  6  1  0  0  0  0
  2  3  1  0  0  0  0
  3  8  1  0  0  0  0
  3  4  2  0  0  0  0
  5  4  1  0  0  0  0
  5  9  1  0  0  0  0
  6  5  2  0  0  0  0
  7  1  1  0  0  0  0
 10  2  1  0  0  0  0
 11 13  2  0  0  0  0
 11 10  1  0  0  0  0
 12 11  1  0  0  0  0
M  END
>  <minimizedAffinity>
-2.50913024

$$$$

 OpenBabel03262522203D

 13 13  0  0  0  0  0  0  0  0999 V2000
   37.7040   21.8960   34.1120 C   0  0  0  0  0  0  0  0  0  0  0  0
   37.4840   21.8990   35.5150 C   0  0  0  0  0  0  0  0  0  0  0  0
   36.3450   21.2680   35.9890 C   0  0  0  0  0  0  0  0  0  0  0  0
   35.5200   20.6920   35.1010 N   0  0  0  0  0  0  0  0  0  0  0  0
   35.7420   20.6970   33.7810 C   0  0  0  0  0  0  0  0  0  0  0  0
   36.8330   21.2960   33.2590 N   0  0  0  0  0  0  0  0  0  0  0  0
   38.5750   22.3690   33.6430 H   0  0  0  0  0  0  0  0  0  0  0  0
   36.2640   21.3210   37.0520 H   0  0  0  0  0  0  0  0  0  0  0  0
   35.0240   20.2090   33.1350 H   0  0  0  0  0  0  0  0  0  0  0  0
   38.4920   22.5650   36.2080 O   0  0  0  0  0  0  0  0  0  0  0  0
   38.1850   23.4850   37.2260 C   0  0  0  0  0  0  0  0  0  0  0  0
   38.4250   23.0940   38.2270 H   0  0  0  0  0  0  0  0  0  0  0  0
   37.6880   24.6110   36.8960 O   0  0  0  0  0  0  0  0  0  0  0  0
  1  2  1  0  0  0  0
  2  3  2  0  0  0  0
  2 10  1  0  0  0  0
  3  8  1  0  0  0  0
  4  3  1  0  0  0  0
  5  4  2  0  0  0  0
  6  5  1  0  0  0  0
  6  1  2  0  0  0  0
  7  1  1  0  0  0  0
  9  5  1  0  0  0  0
 10 11  1  0  0  0  0
 11 12  1  0  0  0  0
 13 11  2  0  0  0  0
M  END
>  <minimizedAffinity>
-2.50660348

$$$$
