
 OpenBabel03272507323D

 30 32  0  0  1  0  0  0  0  0999 V2000
   35.8220   29.1430   49.8080 C   0  0  0  0  0  0  0  0  0  0  0  0
   34.8120   29.6520   50.5850 C   0  0  0  0  0  0  0  0  0  0  0  0
   33.6040   29.1200   50.1060 C   0  0  0  0  0  0  0  0  0  0  0  0
   33.9740   28.3060   49.0510 C   0  0  0  0  0  0  0  0  0  0  0  0
   35.2770   28.3510   48.9140 O   0  0  0  0  0  0  0  0  0  0  0  0
   34.8710   30.3410   51.4250 H   0  0  0  0  0  0  0  0  0  0  0  0
   32.6050   29.3010   50.4760 H   0  0  0  0  0  0  0  0  0  0  0  0
   37.2190   29.4850   50.0270 C   0  0  0  0  0  0  0  0  0  0  0  0
   37.8680   28.8690   50.8930 O   0  0  0  0  0  0  0  0  0  0  0  0
   37.7660   30.5330   49.2110 C   0  0  0  0  0  0  0  0  0  0  0  0
   38.1100   31.7160   49.8480 C   0  0  0  0  0  0  0  0  0  0  0  0
   38.6440   32.7530   49.0820 C   0  0  0  0  0  0  0  0  0  0  0  0
   38.8020   32.5440   47.7290 N   0  0  0  0  0  0  0  0  0  0  0  0
   38.4610   31.3930   47.1510 C   0  0  0  0  0  0  0  0  0  0  0  0
   37.9430   30.3830   47.8800 N   0  0  0  0  0  0  0  0  0  0  0  0
   37.9830   31.8710   50.9110 H   0  0  0  0  0  0  0  0  0  0  0  0
   38.9220   33.6870   49.5520 H   0  0  0  0  0  0  0  0  0  0  0  0
   38.5890   31.2390   46.0840 H   0  0  0  0  0  0  0  0  0  0  0  0
   33.0530   27.5230   48.2280 C   0  0  0  0  0  0  0  0  0  0  0  0
   31.8310   27.4450   48.5810 O   0  0  0  0  0  0  0  0  0  0  0  0
   33.5500   26.8230   46.9970 C   0  0  1  0  0  0  0  0  0  0  0  0
   33.8020   25.2990   47.3120 C   0  0  0  0  0  0  0  0  0  0  0  0
   32.7640   25.7680   46.3590 C   0  0  2  0  0  0  0  0  0  0  0  0
   34.5240   27.2330   46.6140 H   0  0  0  0  0  0  0  0  0  0  0  0
   34.6950   24.8400   46.8910 H   0  0  0  0  0  0  0  0  0  0  0  0
   33.3880   24.9170   48.2640 H   0  0  0  0  0  0  0  0  0  0  0  0
   31.6730   25.7700   46.6240 H   0  0  0  0  0  0  0  0  0  0  0  0
   32.9990   25.4550   44.9220 C   0  0  0  0  0  0  0  0  0  0  0  0
   33.6250   26.0620   44.2430 H   0  0  0  0  0  0  0  0  0  0  0  0
   32.4920   24.4640   44.3800 O   0  0  0  0  0  0  0  0  0  0  0  0
  1  8  1  0  0  0  0
  1  2  2  0  0  0  0
  2  6  1  0  0  0  0
  3  7  1  0  0  0  0
  3  2  1  0  0  0  0
  4  3  2  0  0  0  0
  5  4  1  0  0  0  0
  5  1  1  0  0  0  0
  8  9  2  0  0  0  0
 10 11  1  0  0  0  0
 10  8  1  0  0  0  0
 11 16  1  0  0  0  0
 12 17  1  0  0  0  0
 12 11  2  0  0  0  0
 13 12  1  0  0  0  0
 14 13  2  0  0  0  0
 14 15  1  0  0  0  0
 15 10  2  0  0  0  0
 18 14  1  0  0  0  0
 19 20  2  0  0  0  0
 19  4  1  0  0  0  0
 21 24  1  6  0  0  0
 21 22  1  0  0  0  0
 21 19  1  0  0  0  0
 22 26  1  0  0  0  0
 23 27  1  1  0  0  0
 23 21  1  0  0  0  0
 23 22  1  0  0  0  0
 25 22  1  0  0  0  0
 28 23  1  0  0  0  0
 29 28  1  0  0  0  0
 30 28  2  0  0  0  0
M  END
>  <minimizedAffinity>
-4.74929285

>  <minimizedRMSD>
0.0324161761

$$$$
