
 OpenBabel03272507353D

 30 32  0  0  1  0  0  0  0  0999 V2000
   35.8660   28.6860   33.7800 C   0  0  0  0  0  0  0  0  0  0  0  0
   36.5500   28.3680   32.6350 C   0  0  0  0  0  0  0  0  0  0  0  0
   37.6150   27.5290   33.0010 C   0  0  0  0  0  0  0  0  0  0  0  0
   37.4980   27.3930   34.3720 C   0  0  0  0  0  0  0  0  0  0  0  0
   36.4640   28.0860   34.7830 O   0  0  0  0  0  0  0  0  0  0  0  0
   36.3560   28.6760   31.6100 H   0  0  0  0  0  0  0  0  0  0  0  0
   38.3620   27.0860   32.3590 H   0  0  0  0  0  0  0  0  0  0  0  0
   34.6920   29.5460   33.7720 C   0  0  0  0  0  0  0  0  0  0  0  0
   33.9060   29.4930   32.8070 O   0  0  0  0  0  0  0  0  0  0  0  0
   34.5160   30.4160   34.9010 C   0  0  0  0  0  0  0  0  0  0  0  0
   35.5990   31.2000   35.2690 C   0  0  0  0  0  0  0  0  0  0  0  0
   35.4590   32.0560   36.3630 C   0  0  0  0  0  0  0  0  0  0  0  0
   34.2470   32.0760   37.0190 N   0  0  0  0  0  0  0  0  0  0  0  0
   33.2290   31.3080   36.6360 C   0  0  0  0  0  0  0  0  0  0  0  0
   33.3510   30.4760   35.5820 N   0  0  0  0  0  0  0  0  0  0  0  0
   36.5460   31.1780   34.7470 H   0  0  0  0  0  0  0  0  0  0  0  0
   36.2870   32.6800   36.6730 H   0  0  0  0  0  0  0  0  0  0  0  0
   32.2780   31.3320   37.1620 H   0  0  0  0  0  0  0  0  0  0  0  0
   38.3880   26.5990   35.2180 C   0  0  0  0  0  0  0  0  0  0  0  0
   39.5920   26.9860   35.3760 O   0  0  0  0  0  0  0  0  0  0  0  0
   37.8850   25.3490   35.8790 C   0  0  1  0  0  0  0  0  0  0  0  0
   38.2200   24.0960   34.9820 C   0  0  0  0  0  0  0  0  0  0  0  0
   38.8070   24.3080   36.3290 C   0  0  2  0  0  0  0  0  0  0  0  0
   36.7700   25.3420   36.0300 H   0  0  0  0  0  0  0  0  0  0  0  0
   37.4540   23.3270   34.8870 H   0  0  0  0  0  0  0  0  0  0  0  0
   38.9360   24.2590   34.1560 H   0  0  0  0  0  0  0  0  0  0  0  0
   39.8690   24.6480   36.4670 H   0  0  0  0  0  0  0  0  0  0  0  0
   38.3720   23.3620   37.3940 C   0  0  0  0  0  0  0  0  0  0  0  0
   38.4370   22.2620   37.3210 H   0  0  0  0  0  0  0  0  0  0  0  0
   37.8950   23.7630   38.4660 O   0  0  0  0  0  0  0  0  0  0  0  0
  1  5  1  0  0  0  0
  2  3  1  0  0  0  0
  2  1  2  0  0  0  0
  3  4  2  0  0  0  0
  4  5  1  0  0  0  0
  4 19  1  0  0  0  0
  6  2  1  0  0  0  0
  7  3  1  0  0  0  0
  8  1  1  0  0  0  0
  8 10  1  0  0  0  0
  9  8  2  0  0  0  0
 10 11  2  0  0  0  0
 10 15  1  0  0  0  0
 11 12  1  0  0  0  0
 12 17  1  0  0  0  0
 12 13  2  0  0  0  0
 14 13  1  0  0  0  0
 14 18  1  0  0  0  0
 15 14  2  0  0  0  0
 16 11  1  0  0  0  0
 19 20  2  0  0  0  0
 19 21  1  0  0  0  0
 21 24  1  1  0  0  0
 21 23  1  0  0  0  0
 22 21  1  0  0  0  0
 22 23  1  0  0  0  0
 23 27  1  1  0  0  0
 23 28  1  0  0  0  0
 25 22  1  0  0  0  0
 26 22  1  0  0  0  0
 28 30  2  0  0  0  0
 29 28  1  0  0  0  0
M  END
>  <minimizedAffinity>
-4.88338041

$$$$

 OpenBabel03272507353D

 30 32  0  0  1  0  0  0  0  0999 V2000
   37.9440   25.4640   35.9600 C   0  0  0  0  0  0  0  0  0  0  0  0
   38.5140   26.6440   36.3640 C   0  0  0  0  0  0  0  0  0  0  0  0
   38.1390   27.6310   35.4370 C   0  0  0  0  0  0  0  0  0  0  0  0
   37.3490   26.9650   34.5180 C   0  0  0  0  0  0  0  0  0  0  0  0
   37.2640   25.7030   34.8620 O   0  0  0  0  0  0  0  0  0  0  0  0
   39.1470   26.8430   37.2260 H   0  0  0  0  0  0  0  0  0  0  0  0
   38.4040   28.6780   35.4380 H   0  0  0  0  0  0  0  0  0  0  0  0
   38.1250   24.2210   36.6950 C   0  0  0  0  0  0  0  0  0  0  0  0
   37.2470   23.8580   37.5000 O   0  0  0  0  0  0  0  0  0  0  0  0
   39.3290   23.4830   36.4370 C   0  0  0  0  0  0  0  0  0  0  0  0
   39.8740   22.7730   37.4960 C   0  0  0  0  0  0  0  0  0  0  0  0
   41.0450   22.0450   37.2750 C   0  0  0  0  0  0  0  0  0  0  0  0
   41.5970   22.0710   36.0130 N   0  0  0  0  0  0  0  0  0  0  0  0
   41.0440   22.7660   35.0200 C   0  0  0  0  0  0  0  0  0  0  0  0
   39.9140   23.4730   35.2190 N   0  0  0  0  0  0  0  0  0  0  0  0
   39.4340   22.7570   38.4830 H   0  0  0  0  0  0  0  0  0  0  0  0
   41.4930   21.4810   38.0830 H   0  0  0  0  0  0  0  0  0  0  0  0
   41.4890   22.7800   34.0280 H   0  0  0  0  0  0  0  0  0  0  0  0
   36.7130   27.5800   33.3520 C   0  0  0  0  0  0  0  0  0  0  0  0
   36.5400   26.8740   32.3060 O   0  0  0  0  0  0  0  0  0  0  0  0
   36.2830   29.0170   33.3980 C   0  0  1  0  0  0  0  0  0  0  0  0
   34.7280   29.1180   33.1540 C   0  0  0  0  0  0  0  0  0  0  0  0
   35.3740   29.5010   34.4360 C   0  0  2  0  0  0  0  0  0  0  0  0
   36.7700   29.6530   32.6080 H   0  0  0  0  0  0  0  0  0  0  0  0
   34.3720   29.9250   32.5150 H   0  0  0  0  0  0  0  0  0  0  0  0
   34.1580   28.1730   33.2110 H   0  0  0  0  0  0  0  0  0  0  0  0
   35.3140   28.8490   35.3480 H   0  0  0  0  0  0  0  0  0  0  0  0
   35.3630   30.9510   34.7720 C   0  0  0  0  0  0  0  0  0  0  0  0
   34.7550   31.7110   34.2500 H   0  0  0  0  0  0  0  0  0  0  0  0
   36.0570   31.4130   35.6900 O   0  0  0  0  0  0  0  0  0  0  0  0
  1  2  2  0  0  0  0
  1  8  1  0  0  0  0
  2  6  1  0  0  0  0
  3  7  1  0  0  0  0
  3  2  1  0  0  0  0
  4  5  1  0  0  0  0
  4  3  2  0  0  0  0
  5  1  1  0  0  0  0
  8  9  2  0  0  0  0
 10  8  1  0  0  0  0
 10 11  1  0  0  0  0
 11 16  1  0  0  0  0
 12 11  2  0  0  0  0
 12 17  1  0  0  0  0
 13 12  1  0  0  0  0
 14 15  1  0  0  0  0
 14 13  2  0  0  0  0
 15 10  2  0  0  0  0
 18 14  1  0  0  0  0
 19 21  1  0  0  0  0
 19  4  1  0  0  0  0
 20 19  2  0  0  0  0
 21 24  1  6  0  0  0
 21 23  1  0  0  0  0
 22 26  1  0  0  0  0
 22 21  1  0  0  0  0
 22 23  1  0  0  0  0
 23 28  1  0  0  0  0
 23 27  1  1  0  0  0
 25 22  1  0  0  0  0
 28 30  2  0  0  0  0
 29 28  1  0  0  0  0
M  END
>  <minimizedAffinity>
-4.81677437

$$$$

 OpenBabel03272507353D

 30 32  0  0  1  0  0  0  0  0999 V2000
   36.1120   28.2070   32.4190 C   0  0  0  0  0  0  0  0  0  0  0  0
   36.8110   27.8520   33.5450 C   0  0  0  0  0  0  0  0  0  0  0  0
   36.2670   28.5720   34.6210 C   0  0  0  0  0  0  0  0  0  0  0  0
   35.2540   29.3280   34.0610 C   0  0  0  0  0  0  0  0  0  0  0  0
   35.2000   29.0830   32.7740 O   0  0  0  0  0  0  0  0  0  0  0  0
   37.6380   27.1540   33.6500 H   0  0  0  0  0  0  0  0  0  0  0  0
   36.5680   28.5450   35.6590 H   0  0  0  0  0  0  0  0  0  0  0  0
   36.4110   27.6470   31.1100 C   0  0  0  0  0  0  0  0  0  0  0  0
   36.5300   28.4110   30.1340 O   0  0  0  0  0  0  0  0  0  0  0  0
   36.5490   26.2200   31.0310 C   0  0  0  0  0  0  0  0  0  0  0  0
   35.3950   25.4640   31.1710 C   0  0  0  0  0  0  0  0  0  0  0  0
   35.4980   24.0740   31.0990 C   0  0  0  0  0  0  0  0  0  0  0  0
   36.7450   23.5250   30.8910 N   0  0  0  0  0  0  0  0  0  0  0  0
   37.8330   24.2840   30.7610 C   0  0  0  0  0  0  0  0  0  0  0  0
   37.7470   25.6280   30.8290 N   0  0  0  0  0  0  0  0  0  0  0  0
   34.4200   25.9020   31.3330 H   0  0  0  0  0  0  0  0  0  0  0  0
   34.6140   23.4580   31.2040 H   0  0  0  0  0  0  0  0  0  0  0  0
   38.8110   23.8420   30.5980 H   0  0  0  0  0  0  0  0  0  0  0  0
   34.3850   30.2480   34.7940 C   0  0  0  0  0  0  0  0  0  0  0  0
   33.2470   29.8320   35.1910 O   0  0  0  0  0  0  0  0  0  0  0  0
   34.8310   31.6550   35.0640 C   0  0  1  0  0  0  0  0  0  0  0  0
   35.0560   31.8580   36.6110 C   0  0  0  0  0  0  0  0  0  0  0  0
   36.1560   31.9340   35.6160 C   0  0  2  0  0  0  0  0  0  0  0  0
   34.0800   32.4300   34.7480 H   0  0  0  0  0  0  0  0  0  0  0  0
   34.7140   32.7960   37.0490 H   0  0  0  0  0  0  0  0  0  0  0  0
   35.0810   30.9430   37.2300 H   0  0  0  0  0  0  0  0  0  0  0  0
   36.9010   31.1040   35.4920 H   0  0  0  0  0  0  0  0  0  0  0  0
   36.7620   33.2780   35.4050 C   0  0  0  0  0  0  0  0  0  0  0  0
   37.7350   33.4570   34.9150 H   0  0  0  0  0  0  0  0  0  0  0  0
   36.1940   34.3150   35.7780 O   0  0  0  0  0  0  0  0  0  0  0  0
  1  5  1  0  0  0  0
  1  2  2  0  0  0  0
  2  6  1  0  0  0  0
  2  3  1  0  0  0  0
  3  7  1  0  0  0  0
  4  3  2  0  0  0  0
  4 19  1  0  0  0  0
  5  4  1  0  0  0  0
  8  1  1  0  0  0  0
  9  8  2  0  0  0  0
 10  8  1  0  0  0  0
 10 11  1  0  0  0  0
 11 16  1  0  0  0  0
 12 11  2  0  0  0  0
 12 17  1  0  0  0  0
 13 12  1  0  0  0  0
 14 15  1  0  0  0  0
 14 13  2  0  0  0  0
 15 10  2  0  0  0  0
 18 14  1  0  0  0  0
 19 21  1  0  0  0  0
 19 20  2  0  0  0  0
 21 24  1  6  0  0  0
 21 23  1  0  0  0  0
 21 22  1  0  0  0  0
 22 25  1  0  0  0  0
 22 26  1  0  0  0  0
 23 27  1  1  0  0  0
 23 22  1  0  0  0  0
 28 23  1  0  0  0  0
 28 30  2  0  0  0  0
 29 28  1  0  0  0  0
M  END
>  <minimizedAffinity>
-4.76156473

$$$$

 OpenBabel03272507353D

 30 32  0  0  1  0  0  0  0  0999 V2000
   36.7010   23.8410   31.2870 C   0  0  0  0  0  0  0  0  0  0  0  0
   35.3990   24.1260   30.9620 C   0  0  0  0  0  0  0  0  0  0  0  0
   35.1920   25.4920   31.2170 C   0  0  0  0  0  0  0  0  0  0  0  0
   36.4090   25.9490   31.6880 C   0  0  0  0  0  0  0  0  0  0  0  0
   37.2590   24.9510   31.7120 O   0  0  0  0  0  0  0  0  0  0  0  0
   34.6260   23.4660   30.5760 H   0  0  0  0  0  0  0  0  0  0  0  0
   34.2860   26.0640   31.0780 H   0  0  0  0  0  0  0  0  0  0  0  0
   37.2640   22.5070   31.1450 C   0  0  0  0  0  0  0  0  0  0  0  0
   38.2970   22.3520   30.4670 O   0  0  0  0  0  0  0  0  0  0  0  0
   36.5740   21.4370   31.8100 C   0  0  0  0  0  0  0  0  0  0  0  0
   36.1710   20.3630   31.0300 C   0  0  0  0  0  0  0  0  0  0  0  0
   35.4990   19.3080   31.6480 C   0  0  0  0  0  0  0  0  0  0  0  0
   35.2710   19.3900   33.0050 N   0  0  0  0  0  0  0  0  0  0  0  0
   35.6730   20.4380   33.7220 C   0  0  0  0  0  0  0  0  0  0  0  0
   36.3230   21.4650   33.1370 N   0  0  0  0  0  0  0  0  0  0  0  0
   36.3550   20.3070   29.9650 H   0  0  0  0  0  0  0  0  0  0  0  0
   35.1730   18.4570   31.0640 H   0  0  0  0  0  0  0  0  0  0  0  0
   35.4880   20.4930   34.7910 H   0  0  0  0  0  0  0  0  0  0  0  0
   36.6940   27.3260   32.0890 C   0  0  0  0  0  0  0  0  0  0  0  0
   36.3180   28.2770   31.3280 O   0  0  0  0  0  0  0  0  0  0  0  0
   37.4210   27.6040   33.3720 C   0  0  1  0  0  0  0  0  0  0  0  0
   36.4330   28.2480   34.4190 C   0  0  0  0  0  0  0  0  0  0  0  0
   37.0590   26.9150   34.6090 C   0  0  2  0  0  0  0  0  0  0  0  0
   38.2740   28.3270   33.2540 H   0  0  0  0  0  0  0  0  0  0  0  0
   36.8120   29.0680   35.0270 H   0  0  0  0  0  0  0  0  0  0  0  0
   35.3560   28.2010   34.1740 H   0  0  0  0  0  0  0  0  0  0  0  0
   36.4810   25.9620   34.4650 H   0  0  0  0  0  0  0  0  0  0  0  0
   38.0640   26.8090   35.7030 C   0  0  0  0  0  0  0  0  0  0  0  0
   37.8800   26.3290   36.6800 H   0  0  0  0  0  0  0  0  0  0  0  0
   39.2100   27.2670   35.5810 O   0  0  0  0  0  0  0  0  0  0  0  0
  1  5  1  0  0  0  0
  2  3  1  0  0  0  0
  2  1  2  0  0  0  0
  3  4  2  0  0  0  0
  4  5  1  0  0  0  0
  4 19  1  0  0  0  0
  6  2  1  0  0  0  0
  7  3  1  0  0  0  0
  8  1  1  0  0  0  0
  8 10  1  0  0  0  0
  9  8  2  0  0  0  0
 10 15  1  0  0  0  0
 11 12  1  0  0  0  0
 11 10  2  0  0  0  0
 12 13  2  0  0  0  0
 13 14  1  0  0  0  0
 14 18  1  0  0  0  0
 15 14  2  0  0  0  0
 16 11  1  0  0  0  0
 17 12  1  0  0  0  0
 19 21  1  0  0  0  0
 20 19  2  0  0  0  0
 21 24  1  6  0  0  0
 21 22  1  0  0  0  0
 21 23  1  0  0  0  0
 22 23  1  0  0  0  0
 22 25  1  0  0  0  0
 23 27  1  6  0  0  0
 23 28  1  0  0  0  0
 26 22  1  0  0  0  0
 28 29  1  0  0  0  0
 30 28  2  0  0  0  0
M  END
>  <minimizedAffinity>
-4.76048756

$$$$

 OpenBabel03272507353D

 30 32  0  0  1  0  0  0  0  0999 V2000
   37.9720   25.8470   33.8870 C   0  0  0  0  0  0  0  0  0  0  0  0
   37.4130   26.9060   33.2170 C   0  0  0  0  0  0  0  0  0  0  0  0
   36.6010   26.3780   32.2000 C   0  0  0  0  0  0  0  0  0  0  0  0
   36.7260   25.0070   32.3280 C   0  0  0  0  0  0  0  0  0  0  0  0
   37.5360   24.7430   33.3240 O   0  0  0  0  0  0  0  0  0  0  0  0
   37.5370   27.9720   33.3920 H   0  0  0  0  0  0  0  0  0  0  0  0
   36.0080   26.9190   31.4760 H   0  0  0  0  0  0  0  0  0  0  0  0
   38.8760   26.0280   35.0130 C   0  0  0  0  0  0  0  0  0  0  0  0
   39.4980   27.1010   35.1270 O   0  0  0  0  0  0  0  0  0  0  0  0
   38.9910   24.9330   35.9360 C   0  0  0  0  0  0  0  0  0  0  0  0
   38.0510   24.8640   36.9530 C   0  0  0  0  0  0  0  0  0  0  0  0
   38.1370   23.8110   37.8660 C   0  0  0  0  0  0  0  0  0  0  0  0
   39.1540   22.8950   37.7060 N   0  0  0  0  0  0  0  0  0  0  0  0
   40.0390   22.9950   36.7150 C   0  0  0  0  0  0  0  0  0  0  0  0
   39.9680   24.0070   35.8260 N   0  0  0  0  0  0  0  0  0  0  0  0
   37.2560   25.5870   37.0710 H   0  0  0  0  0  0  0  0  0  0  0  0
   37.4180   23.7300   38.6700 H   0  0  0  0  0  0  0  0  0  0  0  0
   40.8380   22.2670   36.5980 H   0  0  0  0  0  0  0  0  0  0  0  0
   36.0560   24.0180   31.4840 C   0  0  0  0  0  0  0  0  0  0  0  0
   35.0920   24.3970   30.7420 O   0  0  0  0  0  0  0  0  0  0  0  0
   36.4990   22.5840   31.5050 C   0  0  1  0  0  0  0  0  0  0  0  0
   35.5820   21.7540   32.4830 C   0  0  0  0  0  0  0  0  0  0  0  0
   35.6270   21.5170   31.0170 C   0  0  2  0  0  0  0  0  0  0  0  0
   37.5550   22.4490   31.8690 H   0  0  0  0  0  0  0  0  0  0  0  0
   36.0670   21.0180   33.1220 H   0  0  0  0  0  0  0  0  0  0  0  0
   34.6520   22.2460   32.8230 H   0  0  0  0  0  0  0  0  0  0  0  0
   34.8030   21.8590   30.3350 H   0  0  0  0  0  0  0  0  0  0  0  0
   36.2320   20.2300   30.5760 C   0  0  0  0  0  0  0  0  0  0  0  0
   37.0430   20.1400   29.8320 H   0  0  0  0  0  0  0  0  0  0  0  0
   35.8500   19.1410   31.0310 O   0  0  0  0  0  0  0  0  0  0  0  0
  1  8  1  0  0  0  0
  2  6  1  0  0  0  0
  2  1  2  0  0  0  0
  3  4  2  0  0  0  0
  3  2  1  0  0  0  0
  4  5  1  0  0  0  0
  5  1  1  0  0  0  0
  7  3  1  0  0  0  0
  8  9  2  0  0  0  0
  8 10  1  0  0  0  0
 10 11  1  0  0  0  0
 11 16  1  0  0  0  0
 11 12  2  0  0  0  0
 12 17  1  0  0  0  0
 13 12  1  0  0  0  0
 14 13  2  0  0  0  0
 15 10  2  0  0  0  0
 15 14  1  0  0  0  0
 18 14  1  0  0  0  0
 19 21  1  0  0  0  0
 19  4  1  0  0  0  0
 20 19  2  0  0  0  0
 21 24  1  1  0  0  0
 21 22  1  0  0  0  0
 22 26  1  0  0  0  0
 22 25  1  0  0  0  0
 23 27  1  6  0  0  0
 23 21  1  0  0  0  0
 23 22  1  0  0  0  0
 28 23  1  0  0  0  0
 28 30  2  0  0  0  0
 29 28  1  0  0  0  0
M  END
>  <minimizedAffinity>
-4.75744438

$$$$

 OpenBabel03272507353D

 30 32  0  0  1  0  0  0  0  0999 V2000
   37.6440   27.4280   34.4790 C   0  0  0  0  0  0  0  0  0  0  0  0
   37.4250   27.5110   33.1280 C   0  0  0  0  0  0  0  0  0  0  0  0
   36.3360   28.3760   32.9320 C   0  0  0  0  0  0  0  0  0  0  0  0
   35.9640   28.7660   34.2050 C   0  0  0  0  0  0  0  0  0  0  0  0
   36.7550   28.1880   35.0770 O   0  0  0  0  0  0  0  0  0  0  0  0
   37.9570   27.0240   32.3140 H   0  0  0  0  0  0  0  0  0  0  0  0
   35.8840   28.6730   31.9960 H   0  0  0  0  0  0  0  0  0  0  0  0
   38.7080   26.6120   35.0460 C   0  0  0  0  0  0  0  0  0  0  0  0
   39.8280   27.1200   35.2370 O   0  0  0  0  0  0  0  0  0  0  0  0
   38.3850   25.2460   35.3530 C   0  0  0  0  0  0  0  0  0  0  0  0
   38.0470   24.9570   36.6660 C   0  0  0  0  0  0  0  0  0  0  0  0
   37.7280   23.6380   36.9950 C   0  0  0  0  0  0  0  0  0  0  0  0
   37.7670   22.6920   35.9930 N   0  0  0  0  0  0  0  0  0  0  0  0
   38.0970   23.0080   34.7420 C   0  0  0  0  0  0  0  0  0  0  0  0
   38.4070   24.2780   34.4110 N   0  0  0  0  0  0  0  0  0  0  0  0
   38.0180   25.7060   37.4460 H   0  0  0  0  0  0  0  0  0  0  0  0
   37.4600   23.3830   38.0120 H   0  0  0  0  0  0  0  0  0  0  0  0
   38.1250   22.2550   33.9600 H   0  0  0  0  0  0  0  0  0  0  0  0
   34.8660   29.6790   34.5190 C   0  0  0  0  0  0  0  0  0  0  0  0
   33.6910   29.2040   34.6500 O   0  0  0  0  0  0  0  0  0  0  0  0
   35.1280   31.1480   34.6770 C   0  0  1  0  0  0  0  0  0  0  0  0
   34.7410   31.6080   36.1360 C   0  0  0  0  0  0  0  0  0  0  0  0
   36.1330   31.6390   35.6180 C   0  0  2  0  0  0  0  0  0  0  0  0
   34.5270   31.7870   33.9740 H   0  0  0  0  0  0  0  0  0  0  0  0
   34.2270   32.5620   36.2410 H   0  0  0  0  0  0  0  0  0  0  0  0
   34.5610   30.8050   36.8740 H   0  0  0  0  0  0  0  0  0  0  0  0
   36.8990   30.8780   35.9280 H   0  0  0  0  0  0  0  0  0  0  0  0
   36.7280   32.9880   35.4080 C   0  0  0  0  0  0  0  0  0  0  0  0
   37.6440   33.1860   34.8240 H   0  0  0  0  0  0  0  0  0  0  0  0
   36.2150   34.0090   35.8910 O   0  0  0  0  0  0  0  0  0  0  0  0
  1  8  1  0  0  0  0
  1  5  1  0  0  0  0
  2  1  2  0  0  0  0
  3  2  1  0  0  0  0
  3  4  2  0  0  0  0
  4 19  1  0  0  0  0
  4  5  1  0  0  0  0
  6  2  1  0  0  0  0
  7  3  1  0  0  0  0
  8  9  2  0  0  0  0
  8 10  1  0  0  0  0
 10 11  1  0  0  0  0
 11 12  2  0  0  0  0
 11 16  1  0  0  0  0
 12 17  1  0  0  0  0
 13 12  1  0  0  0  0
 14 13  2  0  0  0  0
 15 14  1  0  0  0  0
 15 10  2  0  0  0  0
 18 14  1  0  0  0  0
 19 20  2  0  0  0  0
 19 21  1  0  0  0  0
 21 24  1  6  0  0  0
 21 23  1  0  0  0  0
 21 22  1  0  0  0  0
 22 25  1  0  0  0  0
 22 26  1  0  0  0  0
 23 27  1  1  0  0  0
 23 22  1  0  0  0  0
 28 23  1  0  0  0  0
 28 30  2  0  0  0  0
 29 28  1  0  0  0  0
M  END
>  <minimizedAffinity>
-4.75525188

$$$$

 OpenBabel03272507353D

 30 32  0  0  1  0  0  0  0  0999 V2000
   38.3940   25.3560   33.6550 C   0  0  0  0  0  0  0  0  0  0  0  0
   39.0900   25.3660   32.4730 C   0  0  0  0  0  0  0  0  0  0  0  0
   38.2290   24.8820   31.4750 C   0  0  0  0  0  0  0  0  0  0  0  0
   37.0460   24.6080   32.1350 C   0  0  0  0  0  0  0  0  0  0  0  0
   37.1890   24.8990   33.4060 O   0  0  0  0  0  0  0  0  0  0  0  0
   40.1140   25.6770   32.2800 H   0  0  0  0  0  0  0  0  0  0  0  0
   38.4390   24.7510   30.4230 H   0  0  0  0  0  0  0  0  0  0  0  0
   38.9850   25.7990   34.9090 C   0  0  0  0  0  0  0  0  0  0  0  0
   39.5350   26.9150   34.9620 O   0  0  0  0  0  0  0  0  0  0  0  0
   38.8930   24.8990   36.0240 C   0  0  0  0  0  0  0  0  0  0  0  0
   39.6900   23.7640   35.9880 C   0  0  0  0  0  0  0  0  0  0  0  0
   39.6210   22.8700   37.0580 C   0  0  0  0  0  0  0  0  0  0  0  0
   38.7630   23.1640   38.0960 N   0  0  0  0  0  0  0  0  0  0  0  0
   38.0120   24.2650   38.0950 C   0  0  0  0  0  0  0  0  0  0  0  0
   38.0680   25.1360   37.0680 N   0  0  0  0  0  0  0  0  0  0  0  0
   40.3610   23.5420   35.1700 H   0  0  0  0  0  0  0  0  0  0  0  0
   40.2320   21.9760   37.0580 H   0  0  0  0  0  0  0  0  0  0  0  0
   37.3390   24.4870   38.9180 H   0  0  0  0  0  0  0  0  0  0  0  0
   35.8340   24.0800   31.5090 C   0  0  0  0  0  0  0  0  0  0  0  0
   35.1840   24.8270   30.7070 O   0  0  0  0  0  0  0  0  0  0  0  0
   35.3700   22.6870   31.8180 C   0  0  1  0  0  0  0  0  0  0  0  0
   36.2550   21.6420   31.0340 C   0  0  0  0  0  0  0  0  0  0  0  0
   36.2380   21.7390   32.5160 C   0  0  2  0  0  0  0  0  0  0  0  0
   34.3050   22.4930   31.5120 H   0  0  0  0  0  0  0  0  0  0  0  0
   35.7450   20.7910   30.5840 H   0  0  0  0  0  0  0  0  0  0  0  0
   37.1830   22.0290   30.5750 H   0  0  0  0  0  0  0  0  0  0  0  0
   37.0820   22.2090   33.0890 H   0  0  0  0  0  0  0  0  0  0  0  0
   35.6250   20.5940   33.2440 C   0  0  0  0  0  0  0  0  0  0  0  0
   35.2400   19.6780   32.7620 H   0  0  0  0  0  0  0  0  0  0  0  0
   35.5050   20.5960   34.4790 O   0  0  0  0  0  0  0  0  0  0  0  0
  1  8  1  0  0  0  0
  2  1  2  0  0  0  0
  3  4  2  0  0  0  0
  3  2  1  0  0  0  0
  4  5  1  0  0  0  0
  5  1  1  0  0  0  0
  6  2  1  0  0  0  0
  7  3  1  0  0  0  0
  8  9  2  0  0  0  0
  8 10  1  0  0  0  0
 10 15  1  0  0  0  0
 11 10  2  0  0  0  0
 11 12  1  0  0  0  0
 12 13  2  0  0  0  0
 14 13  1  0  0  0  0
 14 18  1  0  0  0  0
 15 14  2  0  0  0  0
 16 11  1  0  0  0  0
 17 12  1  0  0  0  0
 19 21  1  0  0  0  0
 19  4  1  0  0  0  0
 20 19  2  0  0  0  0
 21 24  1  1  0  0  0
 21 23  1  0  0  0  0
 22 21  1  0  0  0  0
 22 23  1  0  0  0  0
 23 27  1  1  0  0  0
 23 28  1  0  0  0  0
 25 22  1  0  0  0  0
 26 22  1  0  0  0  0
 28 30  2  0  0  0  0
 29 28  1  0  0  0  0
M  END
>  <minimizedAffinity>
-4.71154308

$$$$

 OpenBabel03272507353D

 30 32  0  0  1  0  0  0  0  0999 V2000
   35.9460   28.9030   33.5540 C   0  0  0  0  0  0  0  0  0  0  0  0
   36.5470   28.2850   32.4880 C   0  0  0  0  0  0  0  0  0  0  0  0
   37.4790   27.3690   33.0050 C   0  0  0  0  0  0  0  0  0  0  0  0
   37.3740   27.4990   34.3770 C   0  0  0  0  0  0  0  0  0  0  0  0
   36.4670   28.4060   34.6520 O   0  0  0  0  0  0  0  0  0  0  0  0
   36.3800   28.4310   31.4230 H   0  0  0  0  0  0  0  0  0  0  0  0
   38.1350   26.7080   32.4560 H   0  0  0  0  0  0  0  0  0  0  0  0
   34.9170   29.9190   33.3850 C   0  0  0  0  0  0  0  0  0  0  0  0
   35.2300   31.0300   32.9180 O   0  0  0  0  0  0  0  0  0  0  0  0
   33.5820   29.5630   33.7780 C   0  0  0  0  0  0  0  0  0  0  0  0
   33.2420   29.7570   35.1080 C   0  0  0  0  0  0  0  0  0  0  0  0
   31.9510   29.4210   35.5200 C   0  0  0  0  0  0  0  0  0  0  0  0
   31.0820   28.9110   34.5790 N   0  0  0  0  0  0  0  0  0  0  0  0
   31.4460   28.7380   33.3090 C   0  0  0  0  0  0  0  0  0  0  0  0
   32.6890   29.0590   32.8980 N   0  0  0  0  0  0  0  0  0  0  0  0
   33.9300   30.1580   35.8400 H   0  0  0  0  0  0  0  0  0  0  0  0
   31.6570   29.5620   36.5520 H   0  0  0  0  0  0  0  0  0  0  0  0
   30.7530   28.3360   32.5750 H   0  0  0  0  0  0  0  0  0  0  0  0
   38.1500   26.7400   35.3570 C   0  0  0  0  0  0  0  0  0  0  0  0
   39.2490   27.2280   35.7790 O   0  0  0  0  0  0  0  0  0  0  0  0
   37.6560   25.4100   35.8450 C   0  0  1  0  0  0  0  0  0  0  0  0
   38.3100   24.2520   34.9970 C   0  0  0  0  0  0  0  0  0  0  0  0
   38.5690   24.4400   36.4470 C   0  0  2  0  0  0  0  0  0  0  0  0
   36.5430   25.2840   35.7470 H   0  0  0  0  0  0  0  0  0  0  0  0
   37.6700   23.4190   34.7080 H   0  0  0  0  0  0  0  0  0  0  0  0
   39.1640   24.5330   34.3540 H   0  0  0  0  0  0  0  0  0  0  0  0
   39.5330   24.8740   36.8260 H   0  0  0  0  0  0  0  0  0  0  0  0
   38.0220   23.3940   37.3550 C   0  0  0  0  0  0  0  0  0  0  0  0
   37.4280   22.5240   37.0240 H   0  0  0  0  0  0  0  0  0  0  0  0
   38.2050   23.4340   38.5810 O   0  0  0  0  0  0  0  0  0  0  0  0
  1  5  1  0  0  0  0
  2  3  1  0  0  0  0
  2  1  2  0  0  0  0
  3  4  2  0  0  0  0
  4  5  1  0  0  0  0
  4 19  1  0  0  0  0
  6  2  1  0  0  0  0
  7  3  1  0  0  0  0
  8  1  1  0  0  0  0
  8 10  1  0  0  0  0
  9  8  2  0  0  0  0
 10 11  1  0  0  0  0
 11 12  2  0  0  0  0
 11 16  1  0  0  0  0
 12 17  1  0  0  0  0
 13 12  1  0  0  0  0
 14 13  2  0  0  0  0
 15 14  1  0  0  0  0
 15 10  2  0  0  0  0
 18 14  1  0  0  0  0
 19 20  2  0  0  0  0
 19 21  1  0  0  0  0
 21 24  1  1  0  0  0
 21 23  1  0  0  0  0
 22 21  1  0  0  0  0
 22 23  1  0  0  0  0
 23 27  1  1  0  0  0
 23 28  1  0  0  0  0
 25 22  1  0  0  0  0
 26 22  1  0  0  0  0
 28 30  2  0  0  0  0
 29 28  1  0  0  0  0
M  END
>  <minimizedAffinity>
-4.67882633

$$$$

 OpenBabel03272507353D

 30 32  0  0  1  0  0  0  0  0999 V2000
   36.3830   25.7790   32.1550 C   0  0  0  0  0  0  0  0  0  0  0  0
   36.3510   27.1430   32.0170 C   0  0  0  0  0  0  0  0  0  0  0  0
   37.0000   27.6940   33.1340 C   0  0  0  0  0  0  0  0  0  0  0  0
   37.3910   26.6010   33.8860 C   0  0  0  0  0  0  0  0  0  0  0  0
   37.0090   25.5050   33.2760 O   0  0  0  0  0  0  0  0  0  0  0  0
   35.9200   27.7440   31.2190 H   0  0  0  0  0  0  0  0  0  0  0  0
   37.1620   28.7380   33.3600 H   0  0  0  0  0  0  0  0  0  0  0  0
   35.7980   24.8840   31.1680 C   0  0  0  0  0  0  0  0  0  0  0  0
   34.8010   25.2580   30.5230 O   0  0  0  0  0  0  0  0  0  0  0  0
   36.4240   23.6010   31.0030 C   0  0  0  0  0  0  0  0  0  0  0  0
   35.6420   22.4810   31.2430 C   0  0  0  0  0  0  0  0  0  0  0  0
   36.2230   21.2210   31.0910 C   0  0  0  0  0  0  0  0  0  0  0  0
   37.5450   21.1580   30.7080 N   0  0  0  0  0  0  0  0  0  0  0  0
   38.2650   22.2570   30.4860 C   0  0  0  0  0  0  0  0  0  0  0  0
   37.7160   23.4800   30.6300 N   0  0  0  0  0  0  0  0  0  0  0  0
   34.6050   22.5400   31.5430 H   0  0  0  0  0  0  0  0  0  0  0  0
   35.6370   20.3290   31.2710 H   0  0  0  0  0  0  0  0  0  0  0  0
   39.3070   22.1960   30.1850 H   0  0  0  0  0  0  0  0  0  0  0  0
   38.1150   26.6670   35.1550 C   0  0  0  0  0  0  0  0  0  0  0  0
   38.1650   27.7790   35.7750 O   0  0  0  0  0  0  0  0  0  0  0  0
   38.7880   25.4430   35.7040 C   0  0  1  0  0  0  0  0  0  0  0  0
   38.1320   25.0430   37.0810 C   0  0  0  0  0  0  0  0  0  0  0  0
   38.0560   24.1890   35.8690 C   0  0  2  0  0  0  0  0  0  0  0  0
   39.8850   25.5900   35.9060 H   0  0  0  0  0  0  0  0  0  0  0  0
   38.7980   24.7190   37.8790 H   0  0  0  0  0  0  0  0  0  0  0  0
   37.1760   25.5380   37.3340 H   0  0  0  0  0  0  0  0  0  0  0  0
   37.1180   24.1080   35.2570 H   0  0  0  0  0  0  0  0  0  0  0  0
   38.8130   22.9070   35.9180 C   0  0  0  0  0  0  0  0  0  0  0  0
   39.8020   22.7810   36.3930 H   0  0  0  0  0  0  0  0  0  0  0  0
   38.3660   21.8670   35.4130 O   0  0  0  0  0  0  0  0  0  0  0  0
  1  5  1  0  0  0  0
  2  1  2  0  0  0  0
  2  3  1  0  0  0  0
  3  7  1  0  0  0  0
  3  4  2  0  0  0  0
  4 19  1  0  0  0  0
  5  4  1  0  0  0  0
  6  2  1  0  0  0  0
  8  1  1  0  0  0  0
  9  8  2  0  0  0  0
 10  8  1  0  0  0  0
 10 11  1  0  0  0  0
 11 16  1  0  0  0  0
 12 11  2  0  0  0  0
 12 17  1  0  0  0  0
 13 12  1  0  0  0  0
 14 15  1  0  0  0  0
 14 13  2  0  0  0  0
 15 10  2  0  0  0  0
 18 14  1  0  0  0  0
 19 21  1  0  0  0  0
 19 20  2  0  0  0  0
 21 23  1  0  0  0  0
 21 24  1  6  0  0  0
 21 22  1  0  0  0  0
 22 26  1  0  0  0  0
 22 25  1  0  0  0  0
 23 27  1  6  0  0  0
 23 28  1  0  0  0  0
 23 22  1  0  0  0  0
 28 29  1  0  0  0  0
 30 28  2  0  0  0  0
M  END
>  <minimizedAffinity>
-4.67814445

$$$$
