
 OpenBabel03272505283D

 25 26  0  0  0  0  0  0  0  0999 V2000
   38.9490   24.4040   34.7820 N   0  0  0  0  0  0  0  0  0  0  0  0
   39.9690   23.5400   34.5230 C   0  0  0  0  0  0  0  0  0  0  0  0
   40.5140   22.7390   35.5190 C   0  0  0  0  0  0  0  0  0  0  0  0
   39.9750   22.8520   36.8150 C   0  0  0  0  0  0  0  0  0  0  0  0
   40.4400   22.1470   37.7410 O   0  0  0  0  0  0  0  0  0  0  0  0
   38.9460   23.7290   37.0600 N   0  0  0  0  0  0  0  0  0  0  0  0
   38.5090   24.4410   36.0220 C   0  0  0  0  0  0  0  0  0  0  0  0
   37.5770   25.2230   36.2940 O   0  0  0  0  0  0  0  0  0  0  0  0
   40.3640   23.4740   33.5180 H   0  0  0  0  0  0  0  0  0  0  0  0
   38.3360   27.2570   32.4830 C   0  0  0  0  0  0  0  0  0  0  0  0
   38.8830   26.4680   33.5030 C   0  0  0  0  0  0  0  0  0  0  0  0
   38.3990   25.2140   33.7670 C   0  0  0  0  0  0  0  0  0  0  0  0
   37.3610   24.7380   33.0140 N   0  0  0  0  0  0  0  0  0  0  0  0
   36.8180   25.5010   32.0140 C   0  0  0  0  0  0  0  0  0  0  0  0
   37.3110   26.7510   31.7600 N   0  0  0  0  0  0  0  0  0  0  0  0
   38.6720   28.2500   32.2250 H   0  0  0  0  0  0  0  0  0  0  0  0
   39.6630   26.9820   33.9950 H   0  0  0  0  0  0  0  0  0  0  0  0
   35.9880   25.1010   31.4240 H   0  0  0  0  0  0  0  0  0  0  0  0
   38.3920   23.8370   38.3960 C   0  0  0  0  0  0  0  0  0  0  0  0
   37.8960   25.0810   38.6080 F   0  0  0  0  0  0  0  0  0  0  0  0
   39.3410   23.6220   39.3830 F   0  0  0  0  0  0  0  0  0  0  0  0
   37.3550   22.9210   38.5230 F   0  0  0  0  0  0  0  0  0  0  0  0
   41.5960   21.8150   35.2760 C   0  0  0  0  0  0  0  0  0  0  0  0
   41.3520   20.7790   35.1040 H   0  0  0  0  0  0  0  0  0  0  0  0
   42.7620   22.2840   35.2800 O   0  0  0  0  0  0  0  0  0  0  0  0
  1  7  1  0  0  0  0
  2  1  1  0  0  0  0
  2  3  2  0  0  0  0
  3  4  1  0  0  0  0
  4  6  1  0  0  0  0
  4  5  2  0  0  0  0
  6 19  1  0  0  0  0
  7  8  2  0  0  0  0
  7  6  1  0  0  0  0
  9  2  1  0  0  0  0
 10 11  1  0  0  0  0
 11 12  2  0  0  0  0
 11 17  1  0  0  0  0
 12  1  1  0  0  0  0
 13 12  1  0  0  0  0
 14 13  2  0  0  0  0
 15 14  1  0  0  0  0
 15 10  2  0  0  0  0
 16 10  1  0  0  0  0
 18 14  1  0  0  0  0
 19 22  1  0  0  0  0
 19 20  1  0  0  0  0
 19 21  1  0  0  0  0
 23 25  2  0  0  0  0
 23  3  1  0  0  0  0
 24 23  1  0  0  0  0
M  END
>  <minimizedAffinity>
-5.05548668

$$$$

 OpenBabel03272505283D

 25 26  0  0  0  0  0  0  0  0999 V2000
   38.0300   23.2290   34.3510 N   0  0  0  0  0  0  0  0  0  0  0  0
   38.0340   24.4950   33.8480 C   0  0  0  0  0  0  0  0  0  0  0  0
   38.1080   25.6070   34.6780 C   0  0  0  0  0  0  0  0  0  0  0  0
   38.1770   25.3820   36.0670 C   0  0  0  0  0  0  0  0  0  0  0  0
   38.2440   26.3590   36.8480 O   0  0  0  0  0  0  0  0  0  0  0  0
   38.1710   24.0980   36.5580 N   0  0  0  0  0  0  0  0  0  0  0  0
   38.0970   23.1160   35.6610 C   0  0  0  0  0  0  0  0  0  0  0  0
   38.0940   21.9710   36.1540 O   0  0  0  0  0  0  0  0  0  0  0  0
   37.9810   24.6390   32.7770 H   0  0  0  0  0  0  0  0  0  0  0  0
   36.6960   20.4860   32.2320 C   0  0  0  0  0  0  0  0  0  0  0  0
   36.7540   21.5960   33.0840 C   0  0  0  0  0  0  0  0  0  0  0  0
   37.9560   22.1050   33.5040 C   0  0  0  0  0  0  0  0  0  0  0  0
   39.1090   21.5070   33.0770 N   0  0  0  0  0  0  0  0  0  0  0  0
   39.0630   20.4200   32.2430 C   0  0  0  0  0  0  0  0  0  0  0  0
   37.8580   19.9220   31.8300 N   0  0  0  0  0  0  0  0  0  0  0  0
   35.7840   20.0390   31.8650 H   0  0  0  0  0  0  0  0  0  0  0  0
   35.7830   21.9300   33.3300 H   0  0  0  0  0  0  0  0  0  0  0  0
   39.9970   19.9560   31.9140 H   0  0  0  0  0  0  0  0  0  0  0  0
   38.2470   23.8730   37.9890 C   0  0  0  0  0  0  0  0  0  0  0  0
   37.3050   22.9790   38.3820 F   0  0  0  0  0  0  0  0  0  0  0  0
   38.0180   25.0280   38.7210 F   0  0  0  0  0  0  0  0  0  0  0  0
   39.5000   23.3560   38.2920 F   0  0  0  0  0  0  0  0  0  0  0  0
   38.1140   26.9600   34.1750 C   0  0  0  0  0  0  0  0  0  0  0  0
   39.0580   27.4760   34.1120 H   0  0  0  0  0  0  0  0  0  0  0  0
   37.0060   27.4520   33.8420 O   0  0  0  0  0  0  0  0  0  0  0  0
  1  7  1  0  0  0  0
  2  1  1  0  0  0  0
  2  3  2  0  0  0  0
  3  4  1  0  0  0  0
  4  6  1  0  0  0  0
  4  5  2  0  0  0  0
  6 19  1  0  0  0  0
  7  8  2  0  0  0  0
  7  6  1  0  0  0  0
  9  2  1  0  0  0  0
 10 11  1  0  0  0  0
 11 17  1  0  0  0  0
 11 12  2  0  0  0  0
 12  1  1  0  0  0  0
 13 12  1  0  0  0  0
 14 13  2  0  0  0  0
 15 10  2  0  0  0  0
 15 14  1  0  0  0  0
 16 10  1  0  0  0  0
 18 14  1  0  0  0  0
 19 22  1  0  0  0  0
 19 20  1  0  0  0  0
 19 21  1  0  0  0  0
 23  3  1  0  0  0  0
 24 23  1  0  0  0  0
 25 23  2  0  0  0  0
M  END
>  <minimizedAffinity>
-4.95770216

$$$$

 OpenBabel03272505283D

 25 26  0  0  0  0  0  0  0  0999 V2000
   38.0170   24.3150   34.3980 N   0  0  0  0  0  0  0  0  0  0  0  0
   37.6880   23.4870   33.3670 C   0  0  0  0  0  0  0  0  0  0  0  0
   37.0900   23.9690   32.2100 C   0  0  0  0  0  0  0  0  0  0  0  0
   36.8320   25.3520   32.1360 C   0  0  0  0  0  0  0  0  0  0  0  0
   36.2930   25.8260   31.1090 O   0  0  0  0  0  0  0  0  0  0  0  0
   37.1700   26.1740   33.1850 N   0  0  0  0  0  0  0  0  0  0  0  0
   37.7380   25.5910   34.2390 C   0  0  0  0  0  0  0  0  0  0  0  0
   38.0250   26.3760   35.1650 O   0  0  0  0  0  0  0  0  0  0  0  0
   37.8980   22.4290   33.4510 H   0  0  0  0  0  0  0  0  0  0  0  0
   40.5260   22.9300   36.7610 C   0  0  0  0  0  0  0  0  0  0  0  0
   39.9320   23.4090   35.5860 C   0  0  0  0  0  0  0  0  0  0  0  0
   38.6240   23.8200   35.5700 C   0  0  0  0  0  0  0  0  0  0  0  0
   37.9000   23.7540   36.7280 N   0  0  0  0  0  0  0  0  0  0  0  0
   38.4710   23.2870   37.8820 C   0  0  0  0  0  0  0  0  0  0  0  0
   39.7770   22.8810   37.8860 N   0  0  0  0  0  0  0  0  0  0  0  0
   41.5480   22.5930   36.8400 H   0  0  0  0  0  0  0  0  0  0  0  0
   40.6170   23.3830   34.7840 H   0  0  0  0  0  0  0  0  0  0  0  0
   37.8740   23.2430   38.7970 H   0  0  0  0  0  0  0  0  0  0  0  0
   36.9060   27.5970   33.1010 C   0  0  0  0  0  0  0  0  0  0  0  0
   36.9860   28.1710   34.3270 F   0  0  0  0  0  0  0  0  0  0  0  0
   35.6330   27.8730   32.6230 F   0  0  0  0  0  0  0  0  0  0  0  0
   37.8610   28.1790   32.2770 F   0  0  0  0  0  0  0  0  0  0  0  0
   36.7300   23.1180   31.1010 C   0  0  0  0  0  0  0  0  0  0  0  0
   37.4180   23.0350   30.2770 H   0  0  0  0  0  0  0  0  0  0  0  0
   35.6240   22.5230   31.1720 O   0  0  0  0  0  0  0  0  0  0  0  0
  1 12  1  0  0  0  0
  2  9  1  0  0  0  0
  2  1  1  0  0  0  0
  3  2  2  0  0  0  0
  4  3  1  0  0  0  0
  4  6  1  0  0  0  0
  5  4  2  0  0  0  0
  6  7  1  0  0  0  0
  7  1  1  0  0  0  0
  7  8  2  0  0  0  0
 10 16  1  0  0  0  0
 10 15  1  0  0  0  0
 11 10  2  0  0  0  0
 12 11  1  0  0  0  0
 12 13  2  0  0  0  0
 13 14  1  0  0  0  0
 14 15  2  0  0  0  0
 14 18  1  0  0  0  0
 17 11  1  0  0  0  0
 19  6  1  0  0  0  0
 19 20  1  0  0  0  0
 21 19  1  0  0  0  0
 22 19  1  0  0  0  0
 23 25  2  0  0  0  0
 23  3  1  0  0  0  0
 24 23  1  0  0  0  0
M  END
>  <minimizedAffinity>
-4.82165194

$$$$

 OpenBabel03272505283D

 25 26  0  0  0  0  0  0  0  0999 V2000
   38.1280   23.6040   34.2990 N   0  0  0  0  0  0  0  0  0  0  0  0
   38.2400   24.8470   33.7550 C   0  0  0  0  0  0  0  0  0  0  0  0
   37.6390   25.1670   32.5430 C   0  0  0  0  0  0  0  0  0  0  0  0
   36.9060   24.1560   31.8910 C   0  0  0  0  0  0  0  0  0  0  0  0
   36.3500   24.4050   30.7960 O   0  0  0  0  0  0  0  0  0  0  0  0
   36.8030   22.9070   32.4540 N   0  0  0  0  0  0  0  0  0  0  0  0
   37.4240   22.7240   33.6190 C   0  0  0  0  0  0  0  0  0  0  0  0
   37.3020   21.5750   34.0890 O   0  0  0  0  0  0  0  0  0  0  0  0
   38.8080   25.6040   34.2780 H   0  0  0  0  0  0  0  0  0  0  0  0
   38.8040   23.3350   37.9420 C   0  0  0  0  0  0  0  0  0  0  0  0
   38.1930   23.6680   36.7260 C   0  0  0  0  0  0  0  0  0  0  0  0
   38.7390   23.2850   35.5290 C   0  0  0  0  0  0  0  0  0  0  0  0
   39.9020   22.5660   35.5370 N   0  0  0  0  0  0  0  0  0  0  0  0
   40.5090   22.2340   36.7200 C   0  0  0  0  0  0  0  0  0  0  0  0
   39.9540   22.6220   37.9080 N   0  0  0  0  0  0  0  0  0  0  0  0
   38.4260   23.6040   38.9160 H   0  0  0  0  0  0  0  0  0  0  0  0
   37.3160   24.2320   36.8920 H   0  0  0  0  0  0  0  0  0  0  0  0
   41.4390   21.6590   36.7040 H   0  0  0  0  0  0  0  0  0  0  0  0
   36.0430   21.8720   31.7800 C   0  0  0  0  0  0  0  0  0  0  0  0
   35.3310   22.3970   30.7520 F   0  0  0  0  0  0  0  0  0  0  0  0
   35.1240   21.2580   32.6180 F   0  0  0  0  0  0  0  0  0  0  0  0
   36.9270   20.9300   31.2690 F   0  0  0  0  0  0  0  0  0  0  0  0
   37.7400   26.4750   31.9410 C   0  0  0  0  0  0  0  0  0  0  0  0
   38.3010   26.5730   31.0260 H   0  0  0  0  0  0  0  0  0  0  0  0
   37.1600   27.4230   32.5290 O   0  0  0  0  0  0  0  0  0  0  0  0
  1 12  1  0  0  0  0
  2  9  1  0  0  0  0
  2  1  1  0  0  0  0
  3  2  2  0  0  0  0
  4  6  1  0  0  0  0
  4  3  1  0  0  0  0
  5  4  2  0  0  0  0
  6  7  1  0  0  0  0
  7  8  2  0  0  0  0
  7  1  1  0  0  0  0
 10 16  1  0  0  0  0
 11 17  1  0  0  0  0
 11 10  2  0  0  0  0
 12 13  2  0  0  0  0
 12 11  1  0  0  0  0
 13 14  1  0  0  0  0
 14 15  2  0  0  0  0
 15 10  1  0  0  0  0
 18 14  1  0  0  0  0
 19  6  1  0  0  0  0
 19 21  1  0  0  0  0
 20 19  1  0  0  0  0
 22 19  1  0  0  0  0
 23 25  2  0  0  0  0
 23  3  1  0  0  0  0
 24 23  1  0  0  0  0
M  END
>  <minimizedAffinity>
-4.78234243

$$$$

 OpenBabel03272505283D

 25 26  0  0  0  0  0  0  0  0999 V2000
   38.1090   23.6060   34.3760 N   0  0  0  0  0  0  0  0  0  0  0  0
   38.4290   24.7460   33.7010 C   0  0  0  0  0  0  0  0  0  0  0  0
   37.9960   24.9660   32.4000 C   0  0  0  0  0  0  0  0  0  0  0  0
   37.2120   23.9650   31.7940 C   0  0  0  0  0  0  0  0  0  0  0  0
   36.8030   24.1260   30.6210 O   0  0  0  0  0  0  0  0  0  0  0  0
   36.8980   22.8210   32.4890 N   0  0  0  0  0  0  0  0  0  0  0  0
   37.3720   22.7280   33.7300 C   0  0  0  0  0  0  0  0  0  0  0  0
   37.0620   21.6730   34.3190 O   0  0  0  0  0  0  0  0  0  0  0  0
   39.0320   25.4990   34.1910 H   0  0  0  0  0  0  0  0  0  0  0  0
   40.1800   22.5830   37.2840 C   0  0  0  0  0  0  0  0  0  0  0  0
   39.7480   22.7810   35.9670 C   0  0  0  0  0  0  0  0  0  0  0  0
   38.5500   23.3890   35.6970 C   0  0  0  0  0  0  0  0  0  0  0  0
   37.7720   23.8030   36.7430 N   0  0  0  0  0  0  0  0  0  0  0  0
   38.1850   23.6140   38.0360 C   0  0  0  0  0  0  0  0  0  0  0  0
   39.3830   23.0070   38.2920 N   0  0  0  0  0  0  0  0  0  0  0  0
   41.1110   22.1130   37.5630 H   0  0  0  0  0  0  0  0  0  0  0  0
   40.4530   22.3970   35.2810 H   0  0  0  0  0  0  0  0  0  0  0  0
   37.5480   23.9520   38.8580 H   0  0  0  0  0  0  0  0  0  0  0  0
   36.0860   21.7960   31.8620 C   0  0  0  0  0  0  0  0  0  0  0  0
   35.4460   22.2940   30.7740 F   0  0  0  0  0  0  0  0  0  0  0  0
   35.0980   21.3110   32.7060 F   0  0  0  0  0  0  0  0  0  0  0  0
   36.9140   20.7590   31.4510 F   0  0  0  0  0  0  0  0  0  0  0  0
   38.3190   26.1620   31.6590 C   0  0  0  0  0  0  0  0  0  0  0  0
   38.5210   26.0700   30.6050 H   0  0  0  0  0  0  0  0  0  0  0  0
   38.3440   27.2430   32.3000 O   0  0  0  0  0  0  0  0  0  0  0  0
  1 12  1  0  0  0  0
  2  9  1  0  0  0  0
  2  1  1  0  0  0  0
  3  2  2  0  0  0  0
  4  3  1  0  0  0  0
  4  6  1  0  0  0  0
  5  4  2  0  0  0  0
  6  7  1  0  0  0  0
  7  8  2  0  0  0  0
  7  1  1  0  0  0  0
 10 16  1  0  0  0  0
 10 15  1  0  0  0  0
 11 10  2  0  0  0  0
 12 11  1  0  0  0  0
 12 13  2  0  0  0  0
 13 14  1  0  0  0  0
 14 15  2  0  0  0  0
 14 18  1  0  0  0  0
 17 11  1  0  0  0  0
 19  6  1  0  0  0  0
 19 21  1  0  0  0  0
 20 19  1  0  0  0  0
 22 19  1  0  0  0  0
 23 25  2  0  0  0  0
 23  3  1  0  0  0  0
 24 23  1  0  0  0  0
M  END
>  <minimizedAffinity>
-4.75860739

$$$$

 OpenBabel03272505283D

 25 26  0  0  0  0  0  0  0  0999 V2000
   37.9140   24.8080   34.3700 N   0  0  0  0  0  0  0  0  0  0  0  0
   37.6490   26.1420   34.4290 C   0  0  0  0  0  0  0  0  0  0  0  0
   36.9820   26.7980   33.4020 C   0  0  0  0  0  0  0  0  0  0  0  0
   36.5870   26.0320   32.2870 C   0  0  0  0  0  0  0  0  0  0  0  0
   35.9840   26.5870   31.3390 O   0  0  0  0  0  0  0  0  0  0  0  0
   36.8640   24.6870   32.2420 N   0  0  0  0  0  0  0  0  0  0  0  0
   37.5080   24.1750   33.2900 C   0  0  0  0  0  0  0  0  0  0  0  0
   37.7370   22.9520   33.2030 O   0  0  0  0  0  0  0  0  0  0  0  0
   37.9620   26.7060   35.2980 H   0  0  0  0  0  0  0  0  0  0  0  0
   40.5790   23.1700   36.3730 C   0  0  0  0  0  0  0  0  0  0  0  0
   39.9160   23.8150   35.3210 C   0  0  0  0  0  0  0  0  0  0  0  0
   38.5910   24.1490   35.4160 C   0  0  0  0  0  0  0  0  0  0  0  0
   37.9160   23.8400   36.5650 N   0  0  0  0  0  0  0  0  0  0  0  0
   38.5550   23.2100   37.6010 C   0  0  0  0  0  0  0  0  0  0  0  0
   39.8780   22.8820   37.4940 N   0  0  0  0  0  0  0  0  0  0  0  0
   41.6200   22.8820   36.3610 H   0  0  0  0  0  0  0  0  0  0  0  0
   40.5710   23.9690   34.5060 H   0  0  0  0  0  0  0  0  0  0  0  0
   37.9970   22.9720   38.5100 H   0  0  0  0  0  0  0  0  0  0  0  0
   36.4510   23.9030   31.0940 C   0  0  0  0  0  0  0  0  0  0  0  0
   35.2870   24.3790   30.5850 F   0  0  0  0  0  0  0  0  0  0  0  0
   36.2220   22.5730   31.4140 F   0  0  0  0  0  0  0  0  0  0  0  0
   37.4320   23.9960   30.1150 F   0  0  0  0  0  0  0  0  0  0  0  0
   36.6860   28.2100   33.4360 C   0  0  0  0  0  0  0  0  0  0  0  0
   37.2360   28.8620   32.7780 H   0  0  0  0  0  0  0  0  0  0  0  0
   35.7960   28.5900   34.2390 O   0  0  0  0  0  0  0  0  0  0  0  0
  1  2  1  0  0  0  0
  1 12  1  0  0  0  0
  2  9  1  0  0  0  0
  3 23  1  0  0  0  0
  3  2  2  0  0  0  0
  4  3  1  0  0  0  0
  5  4  2  0  0  0  0
  6  4  1  0  0  0  0
  6  7  1  0  0  0  0
  7  1  1  0  0  0  0
  8  7  2  0  0  0  0
 10 15  1  0  0  0  0
 11 12  1  0  0  0  0
 11 10  2  0  0  0  0
 12 13  2  0  0  0  0
 13 14  1  0  0  0  0
 14 18  1  0  0  0  0
 15 14  2  0  0  0  0
 16 10  1  0  0  0  0
 17 11  1  0  0  0  0
 19 21  1  0  0  0  0
 19  6  1  0  0  0  0
 20 19  1  0  0  0  0
 22 19  1  0  0  0  0
 23 25  2  0  0  0  0
 24 23  1  0  0  0  0
M  END
>  <minimizedAffinity>
-4.74490404

$$$$

 OpenBabel03272505283D

 25 26  0  0  0  0  0  0  0  0999 V2000
   38.0950   23.3180   34.5460 N   0  0  0  0  0  0  0  0  0  0  0  0
   38.0230   23.1970   35.9000 C   0  0  0  0  0  0  0  0  0  0  0  0
   38.0710   24.3080   36.7330 C   0  0  0  0  0  0  0  0  0  0  0  0
   38.2000   25.5730   36.1270 C   0  0  0  0  0  0  0  0  0  0  0  0
   38.2480   26.5990   36.8440 O   0  0  0  0  0  0  0  0  0  0  0  0
   38.2720   25.6780   34.7580 N   0  0  0  0  0  0  0  0  0  0  0  0
   38.2140   24.5390   34.0690 C   0  0  0  0  0  0  0  0  0  0  0  0
   38.2850   24.6850   32.8330 O   0  0  0  0  0  0  0  0  0  0  0  0
   37.9230   22.2130   36.3400 H   0  0  0  0  0  0  0  0  0  0  0  0
   36.8200   20.4900   32.5040 C   0  0  0  0  0  0  0  0  0  0  0  0
   36.8560   21.6060   33.3490 C   0  0  0  0  0  0  0  0  0  0  0  0
   38.0450   22.1870   33.7060 C   0  0  0  0  0  0  0  0  0  0  0  0
   39.2080   21.6550   33.2220 N   0  0  0  0  0  0  0  0  0  0  0  0
   39.1840   20.5620   32.3950 C   0  0  0  0  0  0  0  0  0  0  0  0
   37.9920   19.9930   32.0450 N   0  0  0  0  0  0  0  0  0  0  0  0
   35.9190   19.9880   32.1840 H   0  0  0  0  0  0  0  0  0  0  0  0
   35.8810   21.8840   33.6420 H   0  0  0  0  0  0  0  0  0  0  0  0
   40.1260   20.1520   32.0200 H   0  0  0  0  0  0  0  0  0  0  0  0
   38.4000   26.9830   34.1400 C   0  0  0  0  0  0  0  0  0  0  0  0
   37.5720   27.8770   34.7370 F   0  0  0  0  0  0  0  0  0  0  0  0
   38.0560   26.9700   32.7970 F   0  0  0  0  0  0  0  0  0  0  0  0
   39.7090   27.4230   34.2930 F   0  0  0  0  0  0  0  0  0  0  0  0
   37.9970   24.2130   38.1720 C   0  0  0  0  0  0  0  0  0  0  0  0
   37.3020   24.8520   38.6900 H   0  0  0  0  0  0  0  0  0  0  0  0
   38.7560   23.3810   38.7300 O   0  0  0  0  0  0  0  0  0  0  0  0
  1  2  1  0  0  0  0
  2  9  1  0  0  0  0
  2  3  2  0  0  0  0
  3 23  1  0  0  0  0
  4  3  1  0  0  0  0
  4  5  2  0  0  0  0
  6  4  1  0  0  0  0
  7  1  1  0  0  0  0
  7  6  1  0  0  0  0
  8  7  2  0  0  0  0
 10 11  1  0  0  0  0
 11 17  1  0  0  0  0
 11 12  2  0  0  0  0
 12  1  1  0  0  0  0
 13 12  1  0  0  0  0
 14 13  2  0  0  0  0
 15 14  1  0  0  0  0
 15 10  2  0  0  0  0
 16 10  1  0  0  0  0
 18 14  1  0  0  0  0
 19 22  1  0  0  0  0
 19 20  1  0  0  0  0
 19  6  1  0  0  0  0
 21 19  1  0  0  0  0
 23 24  1  0  0  0  0
 23 25  2  0  0  0  0
M  END
>  <minimizedAffinity>
-4.68616247

$$$$

 OpenBabel03272505283D

 25 26  0  0  0  0  0  0  0  0999 V2000
   36.4170   27.4510   32.4970 N   0  0  0  0  0  0  0  0  0  0  0  0
   37.2350   27.4000   33.5850 C   0  0  0  0  0  0  0  0  0  0  0  0
   37.8180   26.2100   34.0010 C   0  0  0  0  0  0  0  0  0  0  0  0
   37.5340   25.0480   33.2570 C   0  0  0  0  0  0  0  0  0  0  0  0
   38.0410   23.9550   33.6010 O   0  0  0  0  0  0  0  0  0  0  0  0
   36.7070   25.1170   32.1610 N   0  0  0  0  0  0  0  0  0  0  0  0
   36.2090   26.3160   31.8630 C   0  0  0  0  0  0  0  0  0  0  0  0
   35.4650   26.3270   30.8630 O   0  0  0  0  0  0  0  0  0  0  0  0
   37.4360   28.3080   34.1390 H   0  0  0  0  0  0  0  0  0  0  0  0
   35.8370   30.6790   30.7530 C   0  0  0  0  0  0  0  0  0  0  0  0
   36.4390   29.4840   31.1690 C   0  0  0  0  0  0  0  0  0  0  0  0
   35.8290   28.6620   32.0790 C   0  0  0  0  0  0  0  0  0  0  0  0
   34.6110   29.0280   32.5830 N   0  0  0  0  0  0  0  0  0  0  0  0
   34.0130   30.1940   32.1840 C   0  0  0  0  0  0  0  0  0  0  0  0
   34.6320   31.0060   31.2740 N   0  0  0  0  0  0  0  0  0  0  0  0
   36.2640   31.3680   30.0400 H   0  0  0  0  0  0  0  0  0  0  0  0
   37.3750   29.3550   30.6990 H   0  0  0  0  0  0  0  0  0  0  0  0
   33.0400   30.4680   32.5990 H   0  0  0  0  0  0  0  0  0  0  0  0
   36.4230   23.9180   31.3960 C   0  0  0  0  0  0  0  0  0  0  0  0
   35.2020   24.0050   30.8100 F   0  0  0  0  0  0  0  0  0  0  0  0
   36.3960   22.7780   32.1850 F   0  0  0  0  0  0  0  0  0  0  0  0
   37.3820   23.7870   30.4000 F   0  0  0  0  0  0  0  0  0  0  0  0
   38.6880   26.1240   35.1500 C   0  0  0  0  0  0  0  0  0  0  0  0
   38.9300   25.1470   35.5350 H   0  0  0  0  0  0  0  0  0  0  0  0
   39.1100   27.2060   35.6310 O   0  0  0  0  0  0  0  0  0  0  0  0
  1  2  1  0  0  0  0
  2  3  2  0  0  0  0
  2  9  1  0  0  0  0
  3 23  1  0  0  0  0
  4  5  2  0  0  0  0
  4  3  1  0  0  0  0
  6  4  1  0  0  0  0
  7  6  1  0  0  0  0
  7  1  1  0  0  0  0
  8  7  2  0  0  0  0
 10 11  2  0  0  0  0
 10 15  1  0  0  0  0
 11 12  1  0  0  0  0
 12  1  1  0  0  0  0
 12 13  2  0  0  0  0
 14 13  1  0  0  0  0
 14 18  1  0  0  0  0
 15 14  2  0  0  0  0
 16 10  1  0  0  0  0
 17 11  1  0  0  0  0
 19  6  1  0  0  0  0
 19 21  1  0  0  0  0
 20 19  1  0  0  0  0
 22 19  1  0  0  0  0
 23 24  1  0  0  0  0
 23 25  2  0  0  0  0
M  END
>  <minimizedAffinity>
-4.6433816

$$$$

 OpenBabel03272505283D

 25 26  0  0  0  0  0  0  0  0999 V2000
   37.9630   22.8830   34.4160 N   0  0  0  0  0  0  0  0  0  0  0  0
   37.3160   21.7910   33.9240 C   0  0  0  0  0  0  0  0  0  0  0  0
   36.6080   21.8410   32.7300 C   0  0  0  0  0  0  0  0  0  0  0  0
   36.5790   23.0690   32.0400 C   0  0  0  0  0  0  0  0  0  0  0  0
   35.9510   23.1550   30.9590 O   0  0  0  0  0  0  0  0  0  0  0  0
   37.2370   24.1620   32.5500 N   0  0  0  0  0  0  0  0  0  0  0  0
   37.8810   23.9860   33.7030 C   0  0  0  0  0  0  0  0  0  0  0  0
   38.4610   25.0060   34.1260 O   0  0  0  0  0  0  0  0  0  0  0  0
   37.3560   20.8600   34.4740 H   0  0  0  0  0  0  0  0  0  0  0  0
   40.6680   22.3000   36.8940 C   0  0  0  0  0  0  0  0  0  0  0  0
   39.9620   22.3410   35.6850 C   0  0  0  0  0  0  0  0  0  0  0  0
   38.6810   22.8250   35.6280 C   0  0  0  0  0  0  0  0  0  0  0  0
   38.0950   23.2710   36.7800 N   0  0  0  0  0  0  0  0  0  0  0  0
   38.7760   23.2360   37.9680 C   0  0  0  0  0  0  0  0  0  0  0  0
   40.0540   22.7520   38.0120 N   0  0  0  0  0  0  0  0  0  0  0  0
   41.6770   21.9330   37.0070 H   0  0  0  0  0  0  0  0  0  0  0  0
   40.5470   21.9510   34.8980 H   0  0  0  0  0  0  0  0  0  0  0  0
   38.2880   23.5970   38.8780 H   0  0  0  0  0  0  0  0  0  0  0  0
   37.2080   25.4220   31.8330 C   0  0  0  0  0  0  0  0  0  0  0  0
   37.8060   25.2950   30.6220 F   0  0  0  0  0  0  0  0  0  0  0  0
   37.8890   26.4290   32.5000 F   0  0  0  0  0  0  0  0  0  0  0  0
   35.8840   25.7920   31.6340 F   0  0  0  0  0  0  0  0  0  0  0  0
   35.9120   20.7010   32.1830 C   0  0  0  0  0  0  0  0  0  0  0  0
   36.4670   20.0110   31.5700 H   0  0  0  0  0  0  0  0  0  0  0  0
   34.6910   20.5880   32.4610 O   0  0  0  0  0  0  0  0  0  0  0  0
  1 12  1  0  0  0  0
  2  1  1  0  0  0  0
  2  9  1  0  0  0  0
  3  2  2  0  0  0  0
  4  6  1  0  0  0  0
  4  3  1  0  0  0  0
  5  4  2  0  0  0  0
  6  7  1  0  0  0  0
  7  8  2  0  0  0  0
  7  1  1  0  0  0  0
 10 16  1  0  0  0  0
 10 15  1  0  0  0  0
 11 10  2  0  0  0  0
 12 11  1  0  0  0  0
 12 13  2  0  0  0  0
 13 14  1  0  0  0  0
 14 15  2  0  0  0  0
 14 18  1  0  0  0  0
 17 11  1  0  0  0  0
 19 21  1  0  0  0  0
 19  6  1  0  0  0  0
 20 19  1  0  0  0  0
 22 19  1  0  0  0  0
 23 25  2  0  0  0  0
 23  3  1  0  0  0  0
 24 23  1  0  0  0  0
M  END
>  <minimizedAffinity>
-4.60995245

$$$$
