
 OpenBabel03272507323D

 30 32  0  0  1  0  0  0  0  0999 V2000
   35.8250   29.1380   49.8060 C   0  0  0  0  0  0  0  0  0  0  0  0
   34.8090   29.6430   50.5760 C   0  0  0  0  0  0  0  0  0  0  0  0
   33.6060   29.1030   50.0900 C   0  0  0  0  0  0  0  0  0  0  0  0
   33.9870   28.2900   49.0390 C   0  0  0  0  0  0  0  0  0  0  0  0
   35.2910   28.3420   48.9090 O   0  0  0  0  0  0  0  0  0  0  0  0
   34.8590   30.3330   51.4150 H   0  0  0  0  0  0  0  0  0  0  0  0
   32.6040   29.2800   50.4540 H   0  0  0  0  0  0  0  0  0  0  0  0
   37.2200   29.4880   50.0320 C   0  0  0  0  0  0  0  0  0  0  0  0
   37.8660   28.8790   50.9040 O   0  0  0  0  0  0  0  0  0  0  0  0
   37.7670   30.5360   49.2160 C   0  0  0  0  0  0  0  0  0  0  0  0
   38.1060   31.7210   49.8520 C   0  0  0  0  0  0  0  0  0  0  0  0
   38.6400   32.7570   49.0850 C   0  0  0  0  0  0  0  0  0  0  0  0
   38.8020   32.5470   47.7320 N   0  0  0  0  0  0  0  0  0  0  0  0
   38.4640   31.3940   47.1560 C   0  0  0  0  0  0  0  0  0  0  0  0
   37.9470   30.3850   47.8850 N   0  0  0  0  0  0  0  0  0  0  0  0
   37.9760   31.8770   50.9140 H   0  0  0  0  0  0  0  0  0  0  0  0
   38.9150   33.6930   49.5540 H   0  0  0  0  0  0  0  0  0  0  0  0
   38.5960   31.2390   46.0890 H   0  0  0  0  0  0  0  0  0  0  0  0
   33.0750   27.5010   48.2110 C   0  0  0  0  0  0  0  0  0  0  0  0
   31.8500   27.4220   48.5530 O   0  0  0  0  0  0  0  0  0  0  0  0
   33.5840   26.7960   46.9880 C   0  0  1  0  0  0  0  0  0  0  0  0
   33.8130   25.2680   47.3060 C   0  0  0  0  0  0  0  0  0  0  0  0
   32.7970   25.7510   46.3360 C   0  0  2  0  0  0  0  0  0  0  0  0
   34.5700   27.1950   46.6220 H   0  0  0  0  0  0  0  0  0  0  0  0
   34.7080   24.8000   46.9000 H   0  0  0  0  0  0  0  0  0  0  0  0
   33.3790   24.8910   48.2510 H   0  0  0  0  0  0  0  0  0  0  0  0
   31.7020   25.7650   46.5820 H   0  0  0  0  0  0  0  0  0  0  0  0
   33.0530   25.4360   44.9030 C   0  0  0  0  0  0  0  0  0  0  0  0
   33.5920   26.0990   44.2020 H   0  0  0  0  0  0  0  0  0  0  0  0
   32.6650   24.3770   44.3890 O   0  0  0  0  0  0  0  0  0  0  0  0
  1  8  1  0  0  0  0
  1  2  2  0  0  0  0
  2  6  1  0  0  0  0
  3  7  1  0  0  0  0
  3  2  1  0  0  0  0
  4  3  2  0  0  0  0
  5  4  1  0  0  0  0
  5  1  1  0  0  0  0
  8  9  2  0  0  0  0
 10 11  1  0  0  0  0
 10  8  1  0  0  0  0
 11 16  1  0  0  0  0
 12 17  1  0  0  0  0
 12 11  2  0  0  0  0
 13 12  1  0  0  0  0
 14 13  2  0  0  0  0
 14 15  1  0  0  0  0
 15 10  2  0  0  0  0
 18 14  1  0  0  0  0
 19 20  2  0  0  0  0
 19  4  1  0  0  0  0
 21 24  1  6  0  0  0
 21 22  1  0  0  0  0
 21 19  1  0  0  0  0
 22 26  1  0  0  0  0
 23 27  1  1  0  0  0
 23 21  1  0  0  0  0
 23 22  1  0  0  0  0
 25 22  1  0  0  0  0
 28 23  1  0  0  0  0
 29 28  1  0  0  0  0
 30 28  2  0  0  0  0
M  END
>  <minimizedAffinity>
-4.75048494

>  <minimizedRMSD>
0.0182548743

$$$$
