
 OpenBabel03272507323D

 30 32  0  0  1  0  0  0  0  0999 V2000
   35.8430   29.1430   49.8090 C   0  0  0  0  0  0  0  0  0  0  0  0
   34.8130   29.6350   50.5690 C   0  0  0  0  0  0  0  0  0  0  0  0
   33.6220   29.0800   50.0730 C   0  0  0  0  0  0  0  0  0  0  0  0
   34.0230   28.2720   49.0250 C   0  0  0  0  0  0  0  0  0  0  0  0
   35.3270   28.3400   48.9080 O   0  0  0  0  0  0  0  0  0  0  0  0
   34.8470   30.3260   51.4080 H   0  0  0  0  0  0  0  0  0  0  0  0
   32.6150   29.2440   50.4270 H   0  0  0  0  0  0  0  0  0  0  0  0
   37.2310   29.5100   50.0480 C   0  0  0  0  0  0  0  0  0  0  0  0
   37.8730   28.9180   50.9360 O   0  0  0  0  0  0  0  0  0  0  0  0
   37.7770   30.5530   49.2260 C   0  0  0  0  0  0  0  0  0  0  0  0
   38.1140   31.7430   49.8550 C   0  0  0  0  0  0  0  0  0  0  0  0
   38.6470   32.7750   49.0820 C   0  0  0  0  0  0  0  0  0  0  0  0
   38.8120   32.5570   47.7310 N   0  0  0  0  0  0  0  0  0  0  0  0
   38.4770   31.3990   47.1620 C   0  0  0  0  0  0  0  0  0  0  0  0
   37.9600   30.3940   47.8970 N   0  0  0  0  0  0  0  0  0  0  0  0
   37.9820   31.9060   50.9160 H   0  0  0  0  0  0  0  0  0  0  0  0
   38.9190   33.7150   49.5450 H   0  0  0  0  0  0  0  0  0  0  0  0
   38.6100   31.2370   46.0960 H   0  0  0  0  0  0  0  0  0  0  0  0
   33.1290   27.4710   48.1900 C   0  0  0  0  0  0  0  0  0  0  0  0
   31.8920   27.4170   48.4920 O   0  0  0  0  0  0  0  0  0  0  0  0
   33.6700   26.7240   47.0050 C   0  0  1  0  0  0  0  0  0  0  0  0
   33.7900   25.1900   47.3490 C   0  0  0  0  0  0  0  0  0  0  0  0
   32.8640   25.7190   46.3140 C   0  0  2  0  0  0  0  0  0  0  0  0
   34.6970   27.0610   46.6970 H   0  0  0  0  0  0  0  0  0  0  0  0
   34.6790   24.6660   47.0010 H   0  0  0  0  0  0  0  0  0  0  0  0
   33.2780   24.8480   48.2670 H   0  0  0  0  0  0  0  0  0  0  0  0
   31.7580   25.7990   46.4930 H   0  0  0  0  0  0  0  0  0  0  0  0
   33.1880   25.3740   44.9020 C   0  0  0  0  0  0  0  0  0  0  0  0
   32.4370   25.2070   44.1100 H   0  0  0  0  0  0  0  0  0  0  0  0
   34.3580   25.2500   44.5140 O   0  0  0  0  0  0  0  0  0  0  0  0
  1  8  1  0  0  0  0
  1  2  2  0  0  0  0
  2  6  1  0  0  0  0
  3  7  1  0  0  0  0
  3  2  1  0  0  0  0
  4  3  2  0  0  0  0
  5  4  1  0  0  0  0
  5  1  1  0  0  0  0
  8  9  2  0  0  0  0
 10 11  1  0  0  0  0
 10  8  1  0  0  0  0
 11 16  1  0  0  0  0
 12 17  1  0  0  0  0
 12 11  2  0  0  0  0
 13 12  1  0  0  0  0
 14 13  2  0  0  0  0
 14 15  1  0  0  0  0
 15 10  2  0  0  0  0
 18 14  1  0  0  0  0
 19 20  2  0  0  0  0
 19  4  1  0  0  0  0
 21 24  1  6  0  0  0
 21 22  1  0  0  0  0
 21 19  1  0  0  0  0
 22 26  1  0  0  0  0
 23 27  1  1  0  0  0
 23 21  1  0  0  0  0
 23 22  1  0  0  0  0
 25 22  1  0  0  0  0
 28 23  1  0  0  0  0
 29 28  1  0  0  0  0
 30 28  2  0  0  0  0
M  END
>  <minimizedAffinity>
-4.77871323

>  <minimizedRMSD>
0.0908087119

$$$$
