
 OpenBabel03272506083D

 38 40  0  0  0  0  0  0  0  0999 V2000
   32.8950   28.0310   48.0190 C   0  0  0  0  0  0  0  0  0  0  0  0
   32.7610   28.6260   46.7240 C   0  0  0  0  0  0  0  0  0  0  0  0
   31.0150   28.6010   46.5000 S   0  0  0  0  0  0  0  0  0  0  0  0
   30.6610   27.8010   48.1560 C   0  0  0  0  0  0  0  0  0  0  0  0
   31.7700   27.6920   48.5670 N   0  0  0  0  0  0  0  0  0  0  0  0
   29.4070   27.4140   48.7870 N   0  0  0  0  0  0  0  0  0  0  0  0
   28.3410   27.0650   47.9080 C   0  0  0  0  0  0  0  0  0  0  0  0
   27.0040   26.9850   48.5590 C   0  0  0  0  0  0  0  0  0  0  0  0
   26.9920   27.5600   49.8980 N   0  0  0  0  0  0  0  0  0  0  0  0
   28.0070   26.8100   50.6260 C   0  0  0  0  0  0  0  0  0  0  0  0
   29.3260   27.4080   50.2190 C   0  0  0  0  0  0  0  0  0  0  0  0
   33.5780   28.9760   46.1030 H   0  0  0  0  0  0  0  0  0  0  0  0
   28.6020   26.1210   47.3910 H   0  0  0  0  0  0  0  0  0  0  0  0
   28.2630   27.8430   47.1040 H   0  0  0  0  0  0  0  0  0  0  0  0
   26.1920   27.3860   47.9100 H   0  0  0  0  0  0  0  0  0  0  0  0
   26.7510   25.9050   48.6960 H   0  0  0  0  0  0  0  0  0  0  0  0
   27.2750   28.5690   49.7610 H   0  0  0  0  0  0  0  0  0  0  0  0
   27.8040   26.9590   51.7080 H   0  0  0  0  0  0  0  0  0  0  0  0
   27.9270   25.7510   50.3420 H   0  0  0  0  0  0  0  0  0  0  0  0
   29.3800   28.4480   50.6280 H   0  0  0  0  0  0  0  0  0  0  0  0
   30.1920   26.8610   50.6110 H   0  0  0  0  0  0  0  0  0  0  0  0
   34.2620   27.8490   48.6240 C   0  0  0  0  0  0  0  0  0  0  0  0
   34.4660   26.7490   48.7330 H   0  0  0  0  0  0  0  0  0  0  0  0
   35.0400   28.2170   47.9300 H   0  0  0  0  0  0  0  0  0  0  0  0
   34.3750   28.5210   49.9280 C   0  0  0  0  0  0  0  0  0  0  0  0
   33.5810   29.2800   50.0580 H   0  0  0  0  0  0  0  0  0  0  0  0
   34.3790   27.7760   50.7480 H   0  0  0  0  0  0  0  0  0  0  0  0
   37.3920   30.1850   51.2970 C   0  0  0  0  0  0  0  0  0  0  0  0
   38.0540   30.6190   50.1390 C   0  0  0  0  0  0  0  0  0  0  0  0
   37.4550   30.3330   48.9110 C   0  0  0  0  0  0  0  0  0  0  0  0
   36.2750   29.6580   48.8980 N   0  0  0  0  0  0  0  0  0  0  0  0
   35.6820   29.2650   50.0480 C   0  0  0  0  0  0  0  0  0  0  0  0
   36.2320   29.5240   51.2300 N   0  0  0  0  0  0  0  0  0  0  0  0
   37.8310   30.3920   52.2680 H   0  0  0  0  0  0  0  0  0  0  0  0
   39.0020   31.1570   50.2180 H   0  0  0  0  0  0  0  0  0  0  0  0
   38.1120   30.7660   47.6830 C   0  0  0  0  0  0  0  0  0  0  0  0
   38.7850   30.0830   47.1830 H   0  0  0  0  0  0  0  0  0  0  0  0
   37.9060   31.8980   47.2160 O   0  0  0  0  0  0  0  0  0  0  0  0
  1  5  1  0  0  0  0
  1 22  1  0  0  0  0
  2  1  2  0  0  0  0
  3  2  1  0  0  0  0
  3  4  1  0  0  0  0
  4  5  2  0  0  0  0
  4  6  1  0  0  0  0
  6 11  1  0  0  0  0
  7  8  1  0  0  0  0
  7  6  1  0  0  0  0
  8 16  1  0  0  0  0
  8  9  1  0  0  0  0
  9 10  1  0  0  0  0
 10 18  1  0  0  0  0
 11 21  1  0  0  0  0
 11 10  1  0  0  0  0
 11 20  1  0  0  0  0
 12  2  1  0  0  0  0
 13  7  1  0  0  0  0
 14  7  1  0  0  0  0
 15  8  1  0  0  0  0
 17  9  1  0  0  0  0
 19 10  1  0  0  0  0
 22 23  1  0  0  0  0
 22 25  1  0  0  0  0
 24 22  1  0  0  0  0
 25 32  1  0  0  0  0
 25 26  1  0  0  0  0
 25 27  1  0  0  0  0
 28 34  1  0  0  0  0
 29 35  1  0  0  0  0
 29 28  2  0  0  0  0
 30 29  1  0  0  0  0
 31 30  2  0  0  0  0
 31 32  1  0  0  0  0
 32 33  2  0  0  0  0
 33 28  1  0  0  0  0
 36 30  1  0  0  0  0
 37 36  1  0  0  0  0
 38 36  2  0  0  0  0
M  END
>  <minimizedAffinity>
-6.17401505

>  <minimizedRMSD>
1.41772568

$$$$
