
 OpenBabel03272506233D

 25 26  0  0  0  0  0  0  0  0999 V2000
   38.2510   31.1710   47.9690 C   0  0  0  0  0  0  0  0  0  0  0  0
   38.5430   30.3790   46.9020 C   0  0  0  0  0  0  0  0  0  0  0  0
   39.2780   30.7620   45.7950 C   0  0  0  0  0  0  0  0  0  0  0  0
   39.7740   32.0950   45.7630 C   0  0  0  0  0  0  0  0  0  0  0  0
   39.4810   32.9070   46.8460 C   0  0  0  0  0  0  0  0  0  0  0  0
   38.7490   32.4710   47.9110 C   0  0  0  0  0  0  0  0  0  0  0  0
   38.1970   29.3510   46.8580 H   0  0  0  0  0  0  0  0  0  0  0  0
   39.4820   30.0890   44.9680 H   0  0  0  0  0  0  0  0  0  0  0  0
   40.3450   32.4300   44.9260 H   0  0  0  0  0  0  0  0  0  0  0  0
   39.8570   33.9320   46.8320 H   0  0  0  0  0  0  0  0  0  0  0  0
   38.1080   30.4770   50.3000 C   0  0  0  0  0  0  0  0  0  0  0  0
   37.4700   30.6100   49.0300 C   0  0  0  0  0  0  0  0  0  0  0  0
   36.1420   30.1840   48.9360 C   0  0  0  0  0  0  0  0  0  0  0  0
   35.5400   29.6750   50.0410 N   0  0  0  0  0  0  0  0  0  0  0  0
   36.1770   29.5630   51.2390 C   0  0  0  0  0  0  0  0  0  0  0  0
   37.4650   29.9670   51.3590 N   0  0  0  0  0  0  0  0  0  0  0  0
   39.1400   30.8010   50.3950 H   0  0  0  0  0  0  0  0  0  0  0  0
   35.5800   29.1400   52.0370 H   0  0  0  0  0  0  0  0  0  0  0  0
   35.3600   30.2640   47.6790 C   0  0  0  0  0  0  0  0  0  0  0  0
   34.0680   30.7600   47.9730 F   0  0  0  0  0  0  0  0  0  0  0  0
   35.8930   30.9960   46.6730 F   0  0  0  0  0  0  0  0  0  0  0  0
   35.0950   28.9740   47.2060 F   0  0  0  0  0  0  0  0  0  0  0  0
   38.4670   33.3680   49.0210 C   0  0  0  0  0  0  0  0  0  0  0  0
   37.4850   33.6470   49.3170 H   0  0  0  0  0  0  0  0  0  0  0  0
   39.2480   33.9450   49.7900 O   0  0  0  0  0  0  0  0  0  0  0  0
  1 12  1  0  0  0  0
  2  1  2  0  0  0  0
  3  2  1  0  0  0  0
  4  3  2  0  0  0  0
  4  5  1  0  0  0  0
  5  6  2  0  0  0  0
  6  1  1  0  0  0  0
  6 23  1  0  0  0  0
  7  2  1  0  0  0  0
  8  3  1  0  0  0  0
  9  4  1  0  0  0  0
 10  5  1  0  0  0  0
 11 17  1  0  0  0  0
 11 16  1  0  0  0  0
 12 11  2  0  0  0  0
 13 12  1  0  0  0  0
 13 14  2  0  0  0  0
 14 15  1  0  0  0  0
 15 16  2  0  0  0  0
 15 18  1  0  0  0  0
 19 20  1  0  0  0  0
 19 13  1  0  0  0  0
 21 19  1  0  0  0  0
 22 19  1  0  0  0  0
 23 24  1  0  0  0  0
 23 25  2  0  0  0  0
M  END
>  <minimizedAffinity>
-5.83941174

>  <minimizedRMSD>
0.663958073

$$$$
