
 OpenBabel03272509003D

 22 23  0  0  0  0  0  0  0  0999 V2000
   38.2740   31.2740   48.8260 Cl  0  0  0  0  0  0  0  0  0  0  0  0
   37.0740   30.7160   47.7130 C   0  0  0  0  0  0  0  0  0  0  0  0
   37.2910   30.8440   46.3540 C   0  0  0  0  0  0  0  0  0  0  0  0
   36.3690   30.4160   45.4370 C   0  0  0  0  0  0  0  0  0  0  0  0
   35.1780   29.8360   45.8410 C   0  0  0  0  0  0  0  0  0  0  0  0
   34.9270   29.6920   47.2010 C   0  0  0  0  0  0  0  0  0  0  0  0
   33.4710   28.9800   47.8650 Cl  0  0  0  0  0  0  0  0  0  0  0  0
   35.8950   30.1420   48.0980 C   0  0  0  0  0  0  0  0  0  0  0  0
   36.5740   30.5330   44.3920 H   0  0  0  0  0  0  0  0  0  0  0  0
   34.4160   29.4820   45.1560 H   0  0  0  0  0  0  0  0  0  0  0  0
   39.6960   33.2770   45.0320 C   0  0  0  0  0  0  0  0  0  0  0  0
   40.9020   32.5470   44.9930 C   0  0  0  0  0  0  0  0  0  0  0  0
   40.8470   31.2150   45.4310 C   0  0  0  0  0  0  0  0  0  0  0  0
   39.6620   30.7170   45.8580 N   0  0  0  0  0  0  0  0  0  0  0  0
   38.5290   31.4480   45.8810 C   0  0  0  0  0  0  0  0  0  0  0  0
   38.5600   32.7250   45.4660 N   0  0  0  0  0  0  0  0  0  0  0  0
   39.6680   34.3110   44.7080 H   0  0  0  0  0  0  0  0  0  0  0  0
   41.8130   32.9960   44.6440 H   0  0  0  0  0  0  0  0  0  0  0  0
   41.7420   30.6070   45.4240 H   0  0  0  0  0  0  0  0  0  0  0  0
   35.7050   30.0250   49.5530 C   0  0  0  0  0  0  0  0  0  0  0  0
   35.2610   30.7100   50.2610 H   0  0  0  0  0  0  0  0  0  0  0  0
   36.2150   28.8720   49.7600 O   0  0  0  0  0  0  0  0  0  0  0  0
  2  8  1  0  0  0  0
  2  1  1  0  0  0  0
  3  2  2  0  0  0  0
  4  5  2  0  0  0  0
  4  3  1  0  0  0  0
  5  6  1  0  0  0  0
  6  7  1  0  0  0  0
  6  8  2  0  0  0  0
  8 20  1  0  0  0  0
  9  4  1  0  0  0  0
 10  5  1  0  0  0  0
 11 16  1  0  0  0  0
 12 11  2  0  0  0  0
 12 13  1  0  0  0  0
 13 14  2  0  0  0  0
 14 15  1  0  0  0  0
 15  3  1  0  0  0  0
 16 15  2  0  0  0  0
 17 11  1  0  0  0  0
 18 12  1  0  0  0  0
 19 13  1  0  0  0  0
 20 22  2  0  0  0  0
 20 21  1  0  0  0  0
M  END
>  <minimizedAffinity>
-4.96164179

>  <minimizedRMSD>
2.98755646

$$$$
