
 OpenBabel03272509003D

 22 23  0  0  0  0  0  0  0  0999 V2000
   38.1310   30.1710   49.5890 Cl  0  0  0  0  0  0  0  0  0  0  0  0
   36.7910   29.9480   48.5200 C   0  0  0  0  0  0  0  0  0  0  0  0
   36.8600   30.4320   47.2270 C   0  0  0  0  0  0  0  0  0  0  0  0
   35.8230   30.2780   46.3470 C   0  0  0  0  0  0  0  0  0  0  0  0
   34.6590   29.6290   46.7240 C   0  0  0  0  0  0  0  0  0  0  0  0
   34.5550   29.1310   48.0170 C   0  0  0  0  0  0  0  0  0  0  0  0
   33.1490   28.2890   48.6390 Cl  0  0  0  0  0  0  0  0  0  0  0  0
   35.6360   29.3100   48.8780 C   0  0  0  0  0  0  0  0  0  0  0  0
   35.9160   30.6660   45.3530 H   0  0  0  0  0  0  0  0  0  0  0  0
   33.8100   29.4830   46.0650 H   0  0  0  0  0  0  0  0  0  0  0  0
   39.4300   33.0090   46.7740 C   0  0  0  0  0  0  0  0  0  0  0  0
   40.3630   32.3860   45.9200 C   0  0  0  0  0  0  0  0  0  0  0  0
   40.0710   31.0720   45.5200 C   0  0  0  0  0  0  0  0  0  0  0  0
   38.9330   30.4910   45.9680 N   0  0  0  0  0  0  0  0  0  0  0  0
   38.0650   31.1210   46.7860 C   0  0  0  0  0  0  0  0  0  0  0  0
   38.3250   32.3790   47.1810 N   0  0  0  0  0  0  0  0  0  0  0  0
   39.5930   34.0230   47.1200 H   0  0  0  0  0  0  0  0  0  0  0  0
   41.2500   32.8970   45.5970 H   0  0  0  0  0  0  0  0  0  0  0  0
   40.7510   30.5440   44.8650 H   0  0  0  0  0  0  0  0  0  0  0  0
   35.6030   28.8120   50.2630 C   0  0  0  0  0  0  0  0  0  0  0  0
   35.9610   27.8830   50.6850 H   0  0  0  0  0  0  0  0  0  0  0  0
   35.0280   29.7920   50.8490 O   0  0  0  0  0  0  0  0  0  0  0  0
  2  8  1  0  0  0  0
  2  1  1  0  0  0  0
  3  2  2  0  0  0  0
  4  5  2  0  0  0  0
  4  3  1  0  0  0  0
  5  6  1  0  0  0  0
  6  7  1  0  0  0  0
  6  8  2  0  0  0  0
  8 20  1  0  0  0  0
  9  4  1  0  0  0  0
 10  5  1  0  0  0  0
 11 17  1  0  0  0  0
 11 16  1  0  0  0  0
 12 11  2  0  0  0  0
 13 12  1  0  0  0  0
 13 14  2  0  0  0  0
 14 15  1  0  0  0  0
 15 16  2  0  0  0  0
 15  3  1  0  0  0  0
 18 12  1  0  0  0  0
 19 13  1  0  0  0  0
 20 21  1  0  0  0  0
 20 22  2  0  0  0  0
M  END
>  <minimizedAffinity>
-4.75822878

>  <minimizedRMSD>
1.98540521

$$$$
