
     RDKit          3D

 22 23  0  0  0  0  0  0  0  0999 V2000
   37.2239   29.0974   50.5626 Cl  0  0  0  0  0  0  0  0  0  0  0  0
   35.9567   29.1829   49.3903 C   0  0  0  0  0  0  0  0  0  0  0  0
   35.9398   30.2213   48.4776 C   0  0  0  0  0  0  0  0  0  0  0  0
   34.9563   30.3292   47.5319 C   0  0  0  0  0  0  0  0  0  0  0  0
   33.9360   29.3955   47.4551 C   0  0  0  0  0  0  0  0  0  0  0  0
   33.9223   28.3377   48.3582 C   0  0  0  0  0  0  0  0  0  0  0  0
   32.7011   27.0816   48.3862 Cl  0  0  0  0  0  0  0  0  0  0  0  0
   34.9435   28.2686   49.3030 C   0  0  0  0  0  0  0  0  0  0  0  0
   37.9700   33.0971   49.5082 C   0  0  0  0  0  0  0  0  0  0  0  0
   39.0097   33.1130   48.5561 C   0  0  0  0  0  0  0  0  0  0  0  0
   38.9778   32.1135   47.5706 C   0  0  0  0  0  0  0  0  0  0  0  0
   37.9699   31.2096   47.5910 N   0  0  0  0  0  0  0  0  0  0  0  0
   36.9920   31.2271   48.5195 C   0  0  0  0  0  0  0  0  0  0  0  0
   37.0040   32.1755   49.4716 N   0  0  0  0  0  0  0  0  0  0  0  0
   34.9777   31.1485   46.8417 H   0  0  0  0  0  0  0  0  0  0  0  0
   33.1351   29.4358   46.7261 H   0  0  0  0  0  0  0  0  0  0  0  0
   37.9335   33.8395   50.2964 H   0  0  0  0  0  0  0  0  0  0  0  0
   39.7836   33.8564   48.5905 H   0  0  0  0  0  0  0  0  0  0  0  0
   39.7504   32.0774   46.8144 H   0  0  0  0  0  0  0  0  0  0  0  0
   35.0000   27.1810   50.2928 C   0  0  0  0  0  0  0  0  0  0  0  0
   35.6391   26.3110   50.3459 H   0  0  0  0  0  0  0  0  0  0  0  0
   34.0715   27.5463   51.0918 O   0  0  0  0  0  0  0  0  0  0  0  0
  2  1  1  0
  3 13  1  0
  3  2  2  0
  4  3  1  0
  5  4  2  0
  5  6  1  0
  6  7  1  0
  6  8  2  0
  8  2  1  0
 10  9  2  0
 11 12  2  0
 11 10  1  0
 12 13  1  0
 13 14  2  0
 14  9  1  0
  4 15  1  0
  5 16  1  0
  9 17  1  0
 10 18  1  0
 11 19  1  0
 20 21  1  0
 20 22  2  0
  8 20  1  0
M  ISO  6  15  14  16  14  17  14  18  14  19  14  21   6
M  END
>  <DihAtoms>  (1) 
5,7,19,20

>  <DihDeg>  (1) 
90.00011795740618

$$$$
