
 OpenBabel03272509003D

 22 23  0  0  0  0  0  0  0  0999 V2000
   38.8850   32.5210   48.8080 Cl  0  0  0  0  0  0  0  0  0  0  0  0
   37.5480   31.5460   48.3090 C   0  0  0  0  0  0  0  0  0  0  0  0
   37.4460   31.1520   46.9880 C   0  0  0  0  0  0  0  0  0  0  0  0
   36.4040   30.3800   46.5490 C   0  0  0  0  0  0  0  0  0  0  0  0
   35.4090   29.9640   47.4180 C   0  0  0  0  0  0  0  0  0  0  0  0
   35.4800   30.3430   48.7540 C   0  0  0  0  0  0  0  0  0  0  0  0
   34.3000   29.8970   49.9690 Cl  0  0  0  0  0  0  0  0  0  0  0  0
   36.5590   31.1290   49.1550 C   0  0  0  0  0  0  0  0  0  0  0  0
   36.3600   30.0940   45.5170 H   0  0  0  0  0  0  0  0  0  0  0  0
   34.5640   29.3530   47.1200 H   0  0  0  0  0  0  0  0  0  0  0  0
   39.1740   32.9280   44.2850 C   0  0  0  0  0  0  0  0  0  0  0  0
   40.4420   32.3110   44.2540 C   0  0  0  0  0  0  0  0  0  0  0  0
   40.6640   31.2820   45.1830 C   0  0  0  0  0  0  0  0  0  0  0  0
   39.6690   30.9490   46.0380 N   0  0  0  0  0  0  0  0  0  0  0  0
   38.4680   31.5650   46.0380 C   0  0  0  0  0  0  0  0  0  0  0  0
   38.2350   32.5520   45.1570 N   0  0  0  0  0  0  0  0  0  0  0  0
   38.9360   33.7290   43.5950 H   0  0  0  0  0  0  0  0  0  0  0  0
   41.1930   32.6180   43.5520 H   0  0  0  0  0  0  0  0  0  0  0  0
   41.6180   30.7720   45.2050 H   0  0  0  0  0  0  0  0  0  0  0  0
   36.7060   31.5710   50.5520 C   0  0  0  0  0  0  0  0  0  0  0  0
   36.3580   32.4670   51.0450 H   0  0  0  0  0  0  0  0  0  0  0  0
   37.3710   30.5930   51.0360 O   0  0  0  0  0  0  0  0  0  0  0  0
  2  1  1  0  0  0  0
  2  8  1  0  0  0  0
  3  2  2  0  0  0  0
  4  3  1  0  0  0  0
  4  5  2  0  0  0  0
  5  6  1  0  0  0  0
  6  8  2  0  0  0  0
  6  7  1  0  0  0  0
  8 20  1  0  0  0  0
  9  4  1  0  0  0  0
 10  5  1  0  0  0  0
 11 16  1  0  0  0  0
 12 11  2  0  0  0  0
 12 13  1  0  0  0  0
 13 19  1  0  0  0  0
 13 14  2  0  0  0  0
 14 15  1  0  0  0  0
 15  3  1  0  0  0  0
 16 15  2  0  0  0  0
 17 11  1  0  0  0  0
 18 12  1  0  0  0  0
 20 22  2  0  0  0  0
 20 21  1  0  0  0  0
M  END
>  <minimizedAffinity>
-5.40584564

>  <minimizedRMSD>
3.65045452

$$$$
