
 OpenBabel03272507543D

 17 17  0  0  0  0  0  0  0  0999 V2000
   35.4460   29.1380   50.4300 C   0  0  0  0  0  0  0  0  0  0  0  0
   36.2950   30.0580   49.7830 C   0  0  0  0  0  0  0  0  0  0  0  0
   36.1900   30.1690   48.4060 C   0  0  0  0  0  0  0  0  0  0  0  0
   35.2860   29.4000   47.7340 N   0  0  0  0  0  0  0  0  0  0  0  0
   34.4860   28.5230   48.3990 C   0  0  0  0  0  0  0  0  0  0  0  0
   34.5590   28.3870   49.7450 N   0  0  0  0  0  0  0  0  0  0  0  0
   33.6180   27.8190   47.5260 N   0  0  0  0  0  0  0  0  0  0  0  0
   35.4770   29.0020   51.5060 H   0  0  0  0  0  0  0  0  0  0  0  0
   33.6720   26.7730   47.3340 H   0  0  0  0  0  0  0  0  0  0  0  0
   32.8400   28.3080   46.9960 H   0  0  0  0  0  0  0  0  0  0  0  0
   37.2500   30.8600   50.5890 C   0  0  0  0  0  0  0  0  0  0  0  0
   38.5390   30.7420   50.1190 F   0  0  0  0  0  0  0  0  0  0  0  0
   36.8730   32.1870   50.5120 F   0  0  0  0  0  0  0  0  0  0  0  0
   37.2490   30.5040   51.9260 F   0  0  0  0  0  0  0  0  0  0  0  0
   37.0120   31.0690   47.6660 C   0  0  0  0  0  0  0  0  0  0  0  0
   37.5750   31.8590   48.1370 H   0  0  0  0  0  0  0  0  0  0  0  0
   37.3230   31.2490   46.4810 O   0  0  0  0  0  0  0  0  0  0  0  0
  1  8  1  0  0  0  0
  2  1  1  0  0  0  0
  2 11  1  0  0  0  0
  3  2  2  0  0  0  0
  4  5  2  0  0  0  0
  4  3  1  0  0  0  0
  5  6  1  0  0  0  0
  6  1  2  0  0  0  0
  7  5  1  0  0  0  0
  9  7  1  0  0  0  0
 10  7  1  0  0  0  0
 11 14  1  0  0  0  0
 12 11  1  0  0  0  0
 13 11  1  0  0  0  0
 15 16  1  0  0  0  0
 15  3  1  0  0  0  0
 17 15  2  0  0  0  0
M  END
>  <minimizedAffinity>
-4.61087513

>  <minimizedRMSD>
0.438113451

$$$$
