
 OpenBabel03272501263D

 33 35  0  0  1  0  0  0  0  0999 V2000
   34.8600   29.8290   47.4430 C   0  0  0  0  0  0  0  0  0  0  0  0
   35.4270   29.9900   46.1820 C   0  0  0  0  0  0  0  0  0  0  0  0
   36.6180   30.7060   46.3570 C   0  0  0  0  0  0  0  0  0  0  0  0
   36.7200   30.9420   47.6790 N   0  0  0  0  0  0  0  0  0  0  0  0
   35.6710   30.4140   48.2950 N   0  0  0  0  0  0  0  0  0  0  0  0
   35.0480   29.6390   45.2100 H   0  0  0  0  0  0  0  0  0  0  0  0
   37.3280   31.0160   45.5940 H   0  0  0  0  0  0  0  0  0  0  0  0
   38.4450   32.6060   47.5600 N   0  0  0  0  0  0  0  0  0  0  0  0
   39.1200   33.4710   48.5200 C   0  0  0  0  0  0  0  0  0  0  0  0
   38.4880   33.2500   49.8680 C   0  0  0  0  0  0  0  0  0  0  0  0
   37.2020   32.5020   49.4810 C   0  0  0  0  0  0  0  0  0  0  0  0
   37.7390   31.6290   48.3820 C   0  0  1  0  0  0  0  0  0  0  0  0
   39.1210   32.1150   46.9310 H   0  0  0  0  0  0  0  0  0  0  0  0
   38.8740   34.5240   48.2280 H   0  0  0  0  0  0  0  0  0  0  0  0
   40.2180   33.2910   48.5300 H   0  0  0  0  0  0  0  0  0  0  0  0
   38.2160   34.1870   50.3720 H   0  0  0  0  0  0  0  0  0  0  0  0
   39.1020   32.6540   50.5560 H   0  0  0  0  0  0  0  0  0  0  0  0
   36.4310   33.2090   49.1520 H   0  0  0  0  0  0  0  0  0  0  0  0
   36.8840   31.9420   50.3840 H   0  0  0  0  0  0  0  0  0  0  0  0
   38.6460   30.6630   48.9470 N   0  0  0  0  0  0  0  0  0  0  0  0
   38.1080   30.1060   49.6440 H   0  0  0  0  0  0  0  0  0  0  0  0
   39.5230   31.0670   49.3100 H   0  0  0  0  0  0  0  0  0  0  0  0
   33.3150   28.3700   48.7720 C   0  0  0  0  0  0  0  0  0  0  0  0
   33.6040   29.1230   47.6260 C   0  0  0  0  0  0  0  0  0  0  0  0
   32.6250   29.1780   46.6340 C   0  0  0  0  0  0  0  0  0  0  0  0
   31.4630   28.5010   46.8470 N   0  0  0  0  0  0  0  0  0  0  0  0
   31.2200   27.7880   47.9610 C   0  0  0  0  0  0  0  0  0  0  0  0
   32.1630   27.7220   48.9410 N   0  0  0  0  0  0  0  0  0  0  0  0
   34.0780   28.3200   49.5590 H   0  0  0  0  0  0  0  0  0  0  0  0
   32.7520   29.7300   45.7160 H   0  0  0  0  0  0  0  0  0  0  0  0
   29.9410   27.1000   48.0860 C   0  0  0  0  0  0  0  0  0  0  0  0
   29.4010   26.7350   47.2250 H   0  0  0  0  0  0  0  0  0  0  0  0
   29.4930   26.9520   49.2520 O   0  0  0  0  0  0  0  0  0  0  0  0
  1 24  1  0  0  0  0
  1  5  2  0  0  0  0
  2  3  2  0  0  0  0
  2  1  1  0  0  0  0
  3  4  1  0  0  0  0
  4  5  1  0  0  0  0
  4 12  1  0  0  0  0
  6  2  1  0  0  0  0
  7  3  1  0  0  0  0
  8 12  1  0  0  0  0
  8  9  1  0  0  0  0
  9 15  1  0  0  0  0
  9 10  1  0  0  0  0
 10 16  1  0  0  0  0
 10 17  1  0  0  0  0
 11 10  1  0  0  0  0
 11 19  1  0  0  0  0
 12 20  1  1  0  0  0
 12 11  1  0  0  0  0
 13  8  1  0  0  0  0
 14  9  1  0  0  0  0
 18 11  1  0  0  0  0
 20 22  1  0  0  0  0
 20 21  1  0  0  0  0
 23 28  1  0  0  0  0
 23 29  1  0  0  0  0
 24 23  2  0  0  0  0
 25 26  2  0  0  0  0
 25 24  1  0  0  0  0
 26 27  1  0  0  0  0
 27 31  1  0  0  0  0
 27 28  2  0  0  0  0
 30 25  1  0  0  0  0
 31 33  2  0  0  0  0
 32 31  1  0  0  0  0
M  END
>  <minimizedAffinity>
-5.11926889

>  <minimizedRMSD>
0.551918507

$$$$
