
 OpenBabel03272503283D

 27 28  0  0  1  0  0  0  0  0999 V2000
   38.1720   24.6560   34.9540 N   0  0  0  0  0  0  0  0  0  0  0  0
   38.9670   24.8100   36.1280 C   0  0  0  0  0  0  0  0  0  0  0  0
   38.7720   23.4860   36.8540 C   0  0  2  0  0  0  0  0  0  0  0  0
   37.7410   22.7220   36.0410 C   0  0  0  0  0  0  0  0  0  0  0  0
   38.1510   23.2350   34.6630 C   0  0  0  0  0  0  0  0  0  0  0  0
   40.0330   25.0360   35.9240 H   0  0  0  0  0  0  0  0  0  0  0  0
   38.4800   25.5700   36.7810 H   0  0  0  0  0  0  0  0  0  0  0  0
   39.7180   22.8790   36.7710 H   0  0  0  0  0  0  0  0  0  0  0  0
   36.7470   23.1140   36.2980 H   0  0  0  0  0  0  0  0  0  0  0  0
   37.8450   21.6350   36.1210 H   0  0  0  0  0  0  0  0  0  0  0  0
   39.1670   22.8680   34.4690 H   0  0  0  0  0  0  0  0  0  0  0  0
   37.4060   22.9860   33.8830 H   0  0  0  0  0  0  0  0  0  0  0  0
   37.5170   25.6790   34.1960 C   0  0  0  0  0  0  0  0  0  0  0  0
   37.3840   26.9170   34.8090 C   0  0  0  0  0  0  0  0  0  0  0  0
   36.7410   27.9290   34.0710 C   0  0  0  0  0  0  0  0  0  0  0  0
   36.3010   27.6200   32.8190 N   0  0  0  0  0  0  0  0  0  0  0  0
   36.4510   26.4060   32.2610 C   0  0  0  0  0  0  0  0  0  0  0  0
   37.0620   25.4400   32.9590 N   0  0  0  0  0  0  0  0  0  0  0  0
   37.7200   27.1900   35.7930 H   0  0  0  0  0  0  0  0  0  0  0  0
   36.5910   28.9190   34.4620 H   0  0  0  0  0  0  0  0  0  0  0  0
   35.9590   26.1330   30.9160 C   0  0  0  0  0  0  0  0  0  0  0  0
   36.5130   26.5410   30.0600 H   0  0  0  0  0  0  0  0  0  0  0  0
   34.9300   25.4500   30.6950 O   0  0  0  0  0  0  0  0  0  0  0  0
   38.3500   23.6740   38.2870 C   0  0  0  0  0  0  0  0  0  0  0  0
   37.9970   25.0150   38.4070 F   0  0  0  0  0  0  0  0  0  0  0  0
   39.4670   23.4740   39.0740 F   0  0  0  0  0  0  0  0  0  0  0  0
   37.3420   22.8490   38.6740 F   0  0  0  0  0  0  0  0  0  0  0  0
  1  2  1  0  0  0  0
  2  7  1  0  0  0  0
  2  3  1  0  0  0  0
  3  8  1  6  0  0  0
  3 24  1  0  0  0  0
  4 10  1  0  0  0  0
  4  9  1  0  0  0  0
  4  3  1  0  0  0  0
  5  1  1  0  0  0  0
  5  4  1  0  0  0  0
  6  2  1  0  0  0  0
 11  5  1  0  0  0  0
 12  5  1  0  0  0  0
 13 14  1  0  0  0  0
 13  1  1  0  0  0  0
 14 19  1  0  0  0  0
 15 20  1  0  0  0  0
 15 14  2  0  0  0  0
 16 15  1  0  0  0  0
 17 16  2  0  0  0  0
 17 18  1  0  0  0  0
 18 13  2  0  0  0  0
 21 17  1  0  0  0  0
 22 21  1  0  0  0  0
 23 21  2  0  0  0  0
 24 25  1  0  0  0  0
 24 27  1  0  0  0  0
 24 26  1  0  0  0  0
M  END
>  <minimizedAffinity>
-4.92768621

$$$$

 OpenBabel03272503283D

 27 28  0  0  1  0  0  0  0  0999 V2000
   38.3790   22.5910   35.0990 N   0  0  0  0  0  0  0  0  0  0  0  0
   38.0640   23.7530   35.8630 C   0  0  0  0  0  0  0  0  0  0  0  0
   39.0860   23.7130   36.9920 C   0  0  2  0  0  0  0  0  0  0  0  0
   39.8380   22.4040   36.8150 C   0  0  0  0  0  0  0  0  0  0  0  0
   39.7970   22.3530   35.2900 C   0  0  0  0  0  0  0  0  0  0  0  0
   38.1010   24.6980   35.2840 H   0  0  0  0  0  0  0  0  0  0  0  0
   37.0820   23.5870   36.3610 H   0  0  0  0  0  0  0  0  0  0  0  0
   39.8560   24.5170   36.8190 H   0  0  0  0  0  0  0  0  0  0  0  0
   39.2160   21.5970   37.2260 H   0  0  0  0  0  0  0  0  0  0  0  0
   40.8640   22.4390   37.1960 H   0  0  0  0  0  0  0  0  0  0  0  0
   40.3830   23.2050   34.9210 H   0  0  0  0  0  0  0  0  0  0  0  0
   40.1060   21.3660   34.8940 H   0  0  0  0  0  0  0  0  0  0  0  0
   37.4950   21.8020   34.2960 C   0  0  0  0  0  0  0  0  0  0  0  0
   36.4160   21.2220   34.9480 C   0  0  0  0  0  0  0  0  0  0  0  0
   35.5410   20.4440   34.1660 C   0  0  0  0  0  0  0  0  0  0  0  0
   35.8170   20.3190   32.8370 N   0  0  0  0  0  0  0  0  0  0  0  0
   36.8750   20.8980   32.2440 C   0  0  0  0  0  0  0  0  0  0  0  0
   37.7100   21.6400   32.9840 N   0  0  0  0  0  0  0  0  0  0  0  0
   36.1720   21.3020   35.9920 H   0  0  0  0  0  0  0  0  0  0  0  0
   34.6780   19.9550   34.5820 H   0  0  0  0  0  0  0  0  0  0  0  0
   37.1200   20.7290   30.8170 C   0  0  0  0  0  0  0  0  0  0  0  0
   37.9020   21.3350   30.3420 H   0  0  0  0  0  0  0  0  0  0  0  0
   36.4750   19.9200   30.1090 O   0  0  0  0  0  0  0  0  0  0  0  0
   38.4470   23.8310   38.3500 C   0  0  0  0  0  0  0  0  0  0  0  0
   37.3690   22.9510   38.3400 F   0  0  0  0  0  0  0  0  0  0  0  0
   37.9320   25.1070   38.4530 F   0  0  0  0  0  0  0  0  0  0  0  0
   39.2980   23.5760   39.3790 F   0  0  0  0  0  0  0  0  0  0  0  0
  1  5  1  0  0  0  0
  1  2  1  0  0  0  0
  2  7  1  0  0  0  0
  2  3  1  0  0  0  0
  3  8  1  6  0  0  0
  3 24  1  0  0  0  0
  4  3  1  0  0  0  0
  4 10  1  0  0  0  0
  4  9  1  0  0  0  0
  5  4  1  0  0  0  0
  6  2  1  0  0  0  0
 11  5  1  0  0  0  0
 12  5  1  0  0  0  0
 13 14  1  0  0  0  0
 13  1  1  0  0  0  0
 14 19  1  0  0  0  0
 15 20  1  0  0  0  0
 15 14  2  0  0  0  0
 16 15  1  0  0  0  0
 17 16  2  0  0  0  0
 17 18  1  0  0  0  0
 18 13  2  0  0  0  0
 21 17  1  0  0  0  0
 22 21  1  0  0  0  0
 23 21  2  0  0  0  0
 24 26  1  0  0  0  0
 24 27  1  0  0  0  0
 25 24  1  0  0  0  0
M  END
>  <minimizedAffinity>
-4.65260887

$$$$

 OpenBabel03272503283D

 27 28  0  0  1  0  0  0  0  0999 V2000
   38.4870   23.5230   34.3050 N   0  0  0  0  0  0  0  0  0  0  0  0
   38.5860   24.4600   35.3740 C   0  0  0  0  0  0  0  0  0  0  0  0
   39.1850   23.6340   36.5050 C   0  0  2  0  0  0  0  0  0  0  0  0
   39.2580   22.2110   35.9770 C   0  0  0  0  0  0  0  0  0  0  0  0
   39.5450   22.5540   34.5170 C   0  0  0  0  0  0  0  0  0  0  0  0
   39.1890   25.3590   35.1320 H   0  0  0  0  0  0  0  0  0  0  0  0
   37.5550   24.7090   35.7170 H   0  0  0  0  0  0  0  0  0  0  0  0
   40.2570   23.9440   36.6580 H   0  0  0  0  0  0  0  0  0  0  0  0
   38.2560   21.7670   36.0590 H   0  0  0  0  0  0  0  0  0  0  0  0
   40.0640   21.6230   36.4250 H   0  0  0  0  0  0  0  0  0  0  0  0
   40.5260   23.0440   34.4850 H   0  0  0  0  0  0  0  0  0  0  0  0
   39.4380   21.6760   33.8510 H   0  0  0  0  0  0  0  0  0  0  0  0
   37.5450   23.5170   33.2260 C   0  0  0  0  0  0  0  0  0  0  0  0
   37.2760   24.7410   32.6310 C   0  0  0  0  0  0  0  0  0  0  0  0
   36.3500   24.7440   31.5690 C   0  0  0  0  0  0  0  0  0  0  0  0
   35.7920   23.5540   31.2100 N   0  0  0  0  0  0  0  0  0  0  0  0
   36.0810   22.3890   31.8140 C   0  0  0  0  0  0  0  0  0  0  0  0
   36.9620   22.3810   32.8240 N   0  0  0  0  0  0  0  0  0  0  0  0
   37.6980   25.6940   32.8920 H   0  0  0  0  0  0  0  0  0  0  0  0
   36.0770   25.6440   31.0470 H   0  0  0  0  0  0  0  0  0  0  0  0
   35.4530   21.1460   31.3850 C   0  0  0  0  0  0  0  0  0  0  0  0
   35.7950   20.6770   30.4530 H   0  0  0  0  0  0  0  0  0  0  0  0
   34.5370   20.5880   32.0360 O   0  0  0  0  0  0  0  0  0  0  0  0
   38.3850   23.7350   37.7760 C   0  0  0  0  0  0  0  0  0  0  0  0
   38.0520   25.0800   37.9100 F   0  0  0  0  0  0  0  0  0  0  0  0
   39.2310   23.4180   38.8200 F   0  0  0  0  0  0  0  0  0  0  0  0
   37.2850   22.9370   37.7960 F   0  0  0  0  0  0  0  0  0  0  0  0
  1  5  1  0  0  0  0
  1  2  1  0  0  0  0
  2  7  1  0  0  0  0
  2  3  1  0  0  0  0
  3  8  1  1  0  0  0
  3 24  1  0  0  0  0
  4  9  1  0  0  0  0
  4 10  1  0  0  0  0
  4  3  1  0  0  0  0
  5  4  1  0  0  0  0
  6  2  1  0  0  0  0
 11  5  1  0  0  0  0
 12  5  1  0  0  0  0
 13  1  1  0  0  0  0
 14 19  1  0  0  0  0
 14 13  2  0  0  0  0
 15 14  1  0  0  0  0
 16 15  2  0  0  0  0
 16 17  1  0  0  0  0
 17 18  2  0  0  0  0
 18 13  1  0  0  0  0
 20 15  1  0  0  0  0
 21 17  1  0  0  0  0
 21 23  2  0  0  0  0
 22 21  1  0  0  0  0
 24 27  1  0  0  0  0
 24 25  1  0  0  0  0
 24 26  1  0  0  0  0
M  END
>  <minimizedAffinity>
-4.62919664

$$$$

 OpenBabel03272503283D

 27 28  0  0  1  0  0  0  0  0999 V2000
   38.4000   23.9290   36.2520 N   0  0  0  0  0  0  0  0  0  0  0  0
   39.1450   22.8070   35.7830 C   0  0  0  0  0  0  0  0  0  0  0  0
   39.7250   22.2170   37.0620 C   0  0  2  0  0  0  0  0  0  0  0  0
   39.3320   23.1800   38.1700 C   0  0  0  0  0  0  0  0  0  0  0  0
   37.9800   23.6010   37.6000 C   0  0  0  0  0  0  0  0  0  0  0  0
   38.5430   22.0750   35.2070 H   0  0  0  0  0  0  0  0  0  0  0  0
   40.0270   23.1850   35.2170 H   0  0  0  0  0  0  0  0  0  0  0  0
   39.1840   21.2590   37.3030 H   0  0  0  0  0  0  0  0  0  0  0  0
   40.0240   24.0330   38.1400 H   0  0  0  0  0  0  0  0  0  0  0  0
   39.2320   22.6990   39.1480 H   0  0  0  0  0  0  0  0  0  0  0  0
   37.3380   22.7110   37.5960 H   0  0  0  0  0  0  0  0  0  0  0  0
   37.5570   24.4800   38.1250 H   0  0  0  0  0  0  0  0  0  0  0  0
   38.1100   25.1440   35.5530 C   0  0  0  0  0  0  0  0  0  0  0  0
   38.3840   26.3270   36.2260 C   0  0  0  0  0  0  0  0  0  0  0  0
   38.1020   27.5280   35.5450 C   0  0  0  0  0  0  0  0  0  0  0  0
   37.5850   27.4390   34.2870 N   0  0  0  0  0  0  0  0  0  0  0  0
   37.3360   26.2710   33.6710 C   0  0  0  0  0  0  0  0  0  0  0  0
   37.6030   25.1260   34.3140 N   0  0  0  0  0  0  0  0  0  0  0  0
   38.7890   26.4290   37.2150 H   0  0  0  0  0  0  0  0  0  0  0  0
   38.2790   28.4930   35.9850 H   0  0  0  0  0  0  0  0  0  0  0  0
   36.7830   26.2380   32.3230 C   0  0  0  0  0  0  0  0  0  0  0  0
   36.9620   27.0930   31.6590 H   0  0  0  0  0  0  0  0  0  0  0  0
   36.1110   25.2710   31.8880 O   0  0  0  0  0  0  0  0  0  0  0  0
   41.2140   22.0150   36.9780 C   0  0  0  0  0  0  0  0  0  0  0  0
   41.7760   23.2870   37.0590 F   0  0  0  0  0  0  0  0  0  0  0  0
   41.4920   21.5260   35.7170 F   0  0  0  0  0  0  0  0  0  0  0  0
   41.7090   21.1820   37.9310 F   0  0  0  0  0  0  0  0  0  0  0  0
  1  5  1  0  0  0  0
  2  1  1  0  0  0  0
  2  3  1  0  0  0  0
  3  8  1  1  0  0  0
  3  4  1  0  0  0  0
  4 10  1  0  0  0  0
  5 12  1  0  0  0  0
  5  4  1  0  0  0  0
  6  2  1  0  0  0  0
  7  2  1  0  0  0  0
  9  4  1  0  0  0  0
 11  5  1  0  0  0  0
 13 14  1  0  0  0  0
 13  1  1  0  0  0  0
 14 19  1  0  0  0  0
 15 20  1  0  0  0  0
 15 14  2  0  0  0  0
 16 15  1  0  0  0  0
 17 16  2  0  0  0  0
 17 18  1  0  0  0  0
 18 13  2  0  0  0  0
 21 17  1  0  0  0  0
 22 21  1  0  0  0  0
 23 21  2  0  0  0  0
 24 25  1  0  0  0  0
 24  3  1  0  0  0  0
 24 27  1  0  0  0  0
 26 24  1  0  0  0  0
M  END
>  <minimizedAffinity>
-4.60455513

$$$$

 OpenBabel03272503283D

 27 28  0  0  1  0  0  0  0  0999 V2000
   37.6510   22.9050   33.5140 N   0  0  0  0  0  0  0  0  0  0  0  0
   37.5910   21.4910   33.6850 C   0  0  0  0  0  0  0  0  0  0  0  0
   36.6090   21.0520   32.6070 C   0  0  2  0  0  0  0  0  0  0  0  0
   36.0910   22.3350   31.9790 C   0  0  0  0  0  0  0  0  0  0  0  0
   37.3720   23.1550   32.1120 C   0  0  0  0  0  0  0  0  0  0  0  0
   38.5740   20.9850   33.6030 H   0  0  0  0  0  0  0  0  0  0  0  0
   37.0720   21.2780   34.6480 H   0  0  0  0  0  0  0  0  0  0  0  0
   37.1760   20.5320   31.7840 H   0  0  0  0  0  0  0  0  0  0  0  0
   35.3200   22.7510   32.6430 H   0  0  0  0  0  0  0  0  0  0  0  0
   35.7890   22.2150   30.9340 H   0  0  0  0  0  0  0  0  0  0  0  0
   38.1310   22.6760   31.4790 H   0  0  0  0  0  0  0  0  0  0  0  0
   37.2060   24.2300   31.9110 H   0  0  0  0  0  0  0  0  0  0  0  0
   37.9270   23.8990   34.5060 C   0  0  0  0  0  0  0  0  0  0  0  0
   38.2690   25.1620   34.0410 C   0  0  0  0  0  0  0  0  0  0  0  0
   38.5420   26.1460   35.0100 C   0  0  0  0  0  0  0  0  0  0  0  0
   38.4530   25.7880   36.3220 N   0  0  0  0  0  0  0  0  0  0  0  0
   38.1180   24.5520   36.7300 C   0  0  0  0  0  0  0  0  0  0  0  0
   37.8560   23.6120   35.8120 N   0  0  0  0  0  0  0  0  0  0  0  0
   38.3480   25.4740   33.0160 H   0  0  0  0  0  0  0  0  0  0  0  0
   38.8160   27.1520   34.7470 H   0  0  0  0  0  0  0  0  0  0  0  0
   38.0380   24.2270   38.1490 C   0  0  0  0  0  0  0  0  0  0  0  0
   37.2400   24.6830   38.7490 H   0  0  0  0  0  0  0  0  0  0  0  0
   38.8420   23.4460   38.7130 O   0  0  0  0  0  0  0  0  0  0  0  0
   35.5010   20.1920   33.1550 C   0  0  0  0  0  0  0  0  0  0  0  0
   34.3660   20.5190   32.4180 F   0  0  0  0  0  0  0  0  0  0  0  0
   35.2730   20.5950   34.4550 F   0  0  0  0  0  0  0  0  0  0  0  0
   35.7670   18.8600   33.1090 F   0  0  0  0  0  0  0  0  0  0  0  0
  1  2  1  0  0  0  0
  1 13  1  0  0  0  0
  2  7  1  0  0  0  0
  3  8  1  6  0  0  0
  3 24  1  0  0  0  0
  3  2  1  0  0  0  0
  4  5  1  0  0  0  0
  4  3  1  0  0  0  0
  4  9  1  0  0  0  0
  5  1  1  0  0  0  0
  6  2  1  0  0  0  0
 10  4  1  0  0  0  0
 11  5  1  0  0  0  0
 12  5  1  0  0  0  0
 13 18  1  0  0  0  0
 14 13  2  0  0  0  0
 14 15  1  0  0  0  0
 15 16  2  0  0  0  0
 16 17  1  0  0  0  0
 17 21  1  0  0  0  0
 18 17  2  0  0  0  0
 19 14  1  0  0  0  0
 20 15  1  0  0  0  0
 21 23  2  0  0  0  0
 21 22  1  0  0  0  0
 24 26  1  0  0  0  0
 25 24  1  0  0  0  0
 27 24  1  0  0  0  0
M  END
>  <minimizedAffinity>
-4.58206177

$$$$

 OpenBabel03272503283D

 27 28  0  0  1  0  0  0  0  0999 V2000
   38.4670   23.7590   34.2020 N   0  0  0  0  0  0  0  0  0  0  0  0
   38.6130   24.6280   35.3230 C   0  0  0  0  0  0  0  0  0  0  0  0
   39.1420   23.7030   36.4110 C   0  0  2  0  0  0  0  0  0  0  0  0
   39.1280   22.3100   35.8050 C   0  0  0  0  0  0  0  0  0  0  0  0
   39.4560   22.7120   34.3700 C   0  0  0  0  0  0  0  0  0  0  0  0
   39.2770   25.4960   35.1370 H   0  0  0  0  0  0  0  0  0  0  0  0
   37.5970   24.9250   35.6690 H   0  0  0  0  0  0  0  0  0  0  0  0
   40.2300   23.9320   36.5910 H   0  0  0  0  0  0  0  0  0  0  0  0
   38.0980   21.9290   35.8540 H   0  0  0  0  0  0  0  0  0  0  0  0
   39.8880   21.6460   36.2280 H   0  0  0  0  0  0  0  0  0  0  0  0
   40.4680   23.1370   34.3740 H   0  0  0  0  0  0  0  0  0  0  0  0
   39.3010   21.8810   33.6550 H   0  0  0  0  0  0  0  0  0  0  0  0
   37.5400   23.8740   33.1160 C   0  0  0  0  0  0  0  0  0  0  0  0
   37.0360   22.6880   32.6020 C   0  0  0  0  0  0  0  0  0  0  0  0
   36.1240   22.7920   31.5340 C   0  0  0  0  0  0  0  0  0  0  0  0
   35.8080   24.0410   31.0880 N   0  0  0  0  0  0  0  0  0  0  0  0
   36.3200   25.1660   31.6150 C   0  0  0  0  0  0  0  0  0  0  0  0
   37.1870   25.0720   32.6320 N   0  0  0  0  0  0  0  0  0  0  0  0
   37.2660   21.6910   32.9310 H   0  0  0  0  0  0  0  0  0  0  0  0
   35.6800   21.9300   31.0700 H   0  0  0  0  0  0  0  0  0  0  0  0
   35.9440   26.4750   31.0970 C   0  0  0  0  0  0  0  0  0  0  0  0
   36.0490   26.6660   30.0210 H   0  0  0  0  0  0  0  0  0  0  0  0
   35.5050   27.3950   31.8290 O   0  0  0  0  0  0  0  0  0  0  0  0
   38.3340   23.7870   37.6790 C   0  0  0  0  0  0  0  0  0  0  0  0
   39.0820   23.1290   38.6510 F   0  0  0  0  0  0  0  0  0  0  0  0
   37.1820   23.0520   37.4820 F   0  0  0  0  0  0  0  0  0  0  0  0
   38.0290   25.0580   38.0510 F   0  0  0  0  0  0  0  0  0  0  0  0
  1  5  1  0  0  0  0
  1  2  1  0  0  0  0
  2  7  1  0  0  0  0
  2  3  1  0  0  0  0
  3  8  1  1  0  0  0
  3 24  1  0  0  0  0
  4  9  1  0  0  0  0
  4 10  1  0  0  0  0
  4  3  1  0  0  0  0
  5 11  1  0  0  0  0
  5  4  1  0  0  0  0
  6  2  1  0  0  0  0
 12  5  1  0  0  0  0
 13  1  1  0  0  0  0
 14 19  1  0  0  0  0
 14 13  2  0  0  0  0
 15 14  1  0  0  0  0
 16 15  2  0  0  0  0
 16 17  1  0  0  0  0
 17 18  2  0  0  0  0
 18 13  1  0  0  0  0
 20 15  1  0  0  0  0
 21 17  1  0  0  0  0
 21 23  2  0  0  0  0
 22 21  1  0  0  0  0
 24 27  1  0  0  0  0
 24 25  1  0  0  0  0
 26 24  1  0  0  0  0
M  END
>  <minimizedAffinity>
-4.56816339

$$$$

 OpenBabel03272503283D

 27 28  0  0  1  0  0  0  0  0999 V2000
   37.4390   22.3710   33.0330 N   0  0  0  0  0  0  0  0  0  0  0  0
   37.3360   20.9810   32.7340 C   0  0  0  0  0  0  0  0  0  0  0  0
   36.1280   20.9150   31.8080 C   0  0  2  0  0  0  0  0  0  0  0  0
   35.5660   22.3260   31.7700 C   0  0  0  0  0  0  0  0  0  0  0  0
   36.8910   23.0740   31.8890 C   0  0  0  0  0  0  0  0  0  0  0  0
   38.2500   20.5480   32.2790 H   0  0  0  0  0  0  0  0  0  0  0  0
   37.0170   20.4480   33.6590 H   0  0  0  0  0  0  0  0  0  0  0  0
   36.4810   20.7120   30.7580 H   0  0  0  0  0  0  0  0  0  0  0  0
   34.9740   22.4810   32.6820 H   0  0  0  0  0  0  0  0  0  0  0  0
   35.0470   22.5600   30.8350 H   0  0  0  0  0  0  0  0  0  0  0  0
   37.4740   22.8490   30.9860 H   0  0  0  0  0  0  0  0  0  0  0  0
   36.7490   24.1520   32.0970 H   0  0  0  0  0  0  0  0  0  0  0  0
   37.9720   22.9780   34.2160 C   0  0  0  0  0  0  0  0  0  0  0  0
   38.4500   22.1160   35.1940 C   0  0  0  0  0  0  0  0  0  0  0  0
   38.9760   22.7040   36.3600 C   0  0  0  0  0  0  0  0  0  0  0  0
   38.9770   24.0650   36.4410 N   0  0  0  0  0  0  0  0  0  0  0  0
   38.5040   24.8640   35.4690 C   0  0  0  0  0  0  0  0  0  0  0  0
   38.0020   24.3090   34.3580 N   0  0  0  0  0  0  0  0  0  0  0  0
   38.4630   21.0420   35.1590 H   0  0  0  0  0  0  0  0  0  0  0  0
   39.3690   22.1190   37.1720 H   0  0  0  0  0  0  0  0  0  0  0  0
   38.5300   26.3140   35.6120 C   0  0  0  0  0  0  0  0  0  0  0  0
   37.6010   26.8340   35.8790 H   0  0  0  0  0  0  0  0  0  0  0  0
   39.5710   26.9940   35.4430 O   0  0  0  0  0  0  0  0  0  0  0  0
   35.1100   19.9030   32.2640 C   0  0  0  0  0  0  0  0  0  0  0  0
   35.3340   19.7250   33.6260 F   0  0  0  0  0  0  0  0  0  0  0  0
   35.4110   18.7080   31.6410 F   0  0  0  0  0  0  0  0  0  0  0  0
   33.8260   20.2640   32.0050 F   0  0  0  0  0  0  0  0  0  0  0  0
  1 13  1  0  0  0  0
  2  1  1  0  0  0  0
  2  7  1  0  0  0  0
  3  8  1  6  0  0  0
  3 24  1  0  0  0  0
  3  2  1  0  0  0  0
  4  3  1  0  0  0  0
  4  5  1  0  0  0  0
  4  9  1  0  0  0  0
  5 12  1  0  0  0  0
  5  1  1  0  0  0  0
  6  2  1  0  0  0  0
 10  4  1  0  0  0  0
 11  5  1  0  0  0  0
 13 18  2  0  0  0  0
 13 14  1  0  0  0  0
 14 15  2  0  0  0  0
 15 16  1  0  0  0  0
 15 20  1  0  0  0  0
 17 21  1  0  0  0  0
 17 16  2  0  0  0  0
 18 17  1  0  0  0  0
 19 14  1  0  0  0  0
 21 22  1  0  0  0  0
 23 21  2  0  0  0  0
 24 25  1  0  0  0  0
 26 24  1  0  0  0  0
 27 24  1  0  0  0  0
M  END
>  <minimizedAffinity>
-4.53588343

$$$$

 OpenBabel03272503283D

 27 28  0  0  1  0  0  0  0  0999 V2000
   38.4910   23.8150   34.6750 N   0  0  0  0  0  0  0  0  0  0  0  0
   39.3000   24.0420   35.8270 C   0  0  0  0  0  0  0  0  0  0  0  0
   38.7770   23.0180   36.8250 C   0  0  2  0  0  0  0  0  0  0  0  0
   37.5850   22.3620   36.1490 C   0  0  0  0  0  0  0  0  0  0  0  0
   38.1100   22.4170   34.7170 C   0  0  0  0  0  0  0  0  0  0  0  0
   40.3890   23.9430   35.6400 H   0  0  0  0  0  0  0  0  0  0  0  0
   39.0220   25.0310   36.2590 H   0  0  0  0  0  0  0  0  0  0  0  0
   39.5370   22.1940   36.9390 H   0  0  0  0  0  0  0  0  0  0  0  0
   36.7230   23.0360   36.2500 H   0  0  0  0  0  0  0  0  0  0  0  0
   37.4100   21.3330   36.4810 H   0  0  0  0  0  0  0  0  0  0  0  0
   39.0000   21.7750   34.6720 H   0  0  0  0  0  0  0  0  0  0  0  0
   37.3260   22.1810   33.9720 H   0  0  0  0  0  0  0  0  0  0  0  0
   38.1170   24.7590   33.6650 C   0  0  0  0  0  0  0  0  0  0  0  0
   38.4220   24.4190   32.3550 C   0  0  0  0  0  0  0  0  0  0  0  0
   38.0570   25.3420   31.3560 C   0  0  0  0  0  0  0  0  0  0  0  0
   37.4370   26.4910   31.7470 N   0  0  0  0  0  0  0  0  0  0  0  0
   37.1590   26.7810   33.0290 C   0  0  0  0  0  0  0  0  0  0  0  0
   37.5040   25.9060   33.9840 N   0  0  0  0  0  0  0  0  0  0  0  0
   38.9090   23.5240   32.0160 H   0  0  0  0  0  0  0  0  0  0  0  0
   38.2520   25.1670   30.3120 H   0  0  0  0  0  0  0  0  0  0  0  0
   36.4920   28.0260   33.3890 C   0  0  0  0  0  0  0  0  0  0  0  0
   36.1100   28.6700   32.5860 H   0  0  0  0  0  0  0  0  0  0  0  0
   36.3360   28.3940   34.5780 O   0  0  0  0  0  0  0  0  0  0  0  0
   38.4180   23.6370   38.1490 C   0  0  0  0  0  0  0  0  0  0  0  0
   37.2930   22.9510   38.5980 F   0  0  0  0  0  0  0  0  0  0  0  0
   38.0310   24.9390   37.9030 F   0  0  0  0  0  0  0  0  0  0  0  0
   39.4260   23.6050   39.0600 F   0  0  0  0  0  0  0  0  0  0  0  0
  1  5  1  0  0  0  0
  1  2  1  0  0  0  0
  2  7  1  0  0  0  0
  2  3  1  0  0  0  0
  3  8  1  1  0  0  0
  3 24  1  0  0  0  0
  4  9  1  0  0  0  0
  4 10  1  0  0  0  0
  4  3  1  0  0  0  0
  5  4  1  0  0  0  0
  6  2  1  0  0  0  0
 11  5  1  0  0  0  0
 12  5  1  0  0  0  0
 13 18  1  0  0  0  0
 13  1  1  0  0  0  0
 14 13  2  0  0  0  0
 15 16  2  0  0  0  0
 15 14  1  0  0  0  0
 16 17  1  0  0  0  0
 17 21  1  0  0  0  0
 17 18  2  0  0  0  0
 19 14  1  0  0  0  0
 20 15  1  0  0  0  0
 21 23  2  0  0  0  0
 22 21  1  0  0  0  0
 24 25  1  0  0  0  0
 24 27  1  0  0  0  0
 26 24  1  0  0  0  0
M  END
>  <minimizedAffinity>
-4.52410936

$$$$

 OpenBabel03272503283D

 27 28  0  0  1  0  0  0  0  0999 V2000
   38.5380   26.0220   35.2640 N   0  0  0  0  0  0  0  0  0  0  0  0
   38.6800   25.9370   33.8480 C   0  0  0  0  0  0  0  0  0  0  0  0
   37.7610   27.0400   33.3400 C   0  0  2  0  0  0  0  0  0  0  0  0
   37.0620   27.5880   34.5730 C   0  0  0  0  0  0  0  0  0  0  0  0
   38.2160   27.4060   35.5560 C   0  0  0  0  0  0  0  0  0  0  0  0
   39.7240   26.0490   33.4910 H   0  0  0  0  0  0  0  0  0  0  0  0
   38.2050   24.9890   33.5060 H   0  0  0  0  0  0  0  0  0  0  0  0
   38.3890   27.8930   32.9560 H   0  0  0  0  0  0  0  0  0  0  0  0
   36.2460   26.9010   34.8350 H   0  0  0  0  0  0  0  0  0  0  0  0
   36.7720   28.6390   34.4750 H   0  0  0  0  0  0  0  0  0  0  0  0
   39.0300   28.0660   35.2280 H   0  0  0  0  0  0  0  0  0  0  0  0
   37.8980   27.5410   36.6070 H   0  0  0  0  0  0  0  0  0  0  0  0
   38.6810   24.9710   36.2250 C   0  0  0  0  0  0  0  0  0  0  0  0
   37.8910   25.0600   37.3630 C   0  0  0  0  0  0  0  0  0  0  0  0
   38.0240   24.0300   38.3140 C   0  0  0  0  0  0  0  0  0  0  0  0
   38.9120   23.0310   38.0490 N   0  0  0  0  0  0  0  0  0  0  0  0
   39.6590   22.9820   36.9330 C   0  0  0  0  0  0  0  0  0  0  0  0
   39.5350   23.9590   36.0240 N   0  0  0  0  0  0  0  0  0  0  0  0
   37.1840   25.8330   37.6000 H   0  0  0  0  0  0  0  0  0  0  0  0
   37.4560   24.0120   39.2270 H   0  0  0  0  0  0  0  0  0  0  0  0
   40.5930   21.8880   36.7020 C   0  0  0  0  0  0  0  0  0  0  0  0
   40.5870   21.3860   35.7260 H   0  0  0  0  0  0  0  0  0  0  0  0
   41.4060   21.4940   37.5730 O   0  0  0  0  0  0  0  0  0  0  0  0
   36.7900   26.5460   32.3010 C   0  0  0  0  0  0  0  0  0  0  0  0
   36.4740   25.2410   32.6670 F   0  0  0  0  0  0  0  0  0  0  0  0
   37.4690   26.4810   31.1010 F   0  0  0  0  0  0  0  0  0  0  0  0
   35.6790   27.3200   32.1780 F   0  0  0  0  0  0  0  0  0  0  0  0
  1  5  1  0  0  0  0
  1 13  1  0  0  0  0
  2  1  1  0  0  0  0
  3  8  1  6  0  0  0
  3  2  1  0  0  0  0
  3  4  1  0  0  0  0
  4  9  1  0  0  0  0
  4  5  1  0  0  0  0
  5 12  1  0  0  0  0
  6  2  1  0  0  0  0
  7  2  1  0  0  0  0
 10  4  1  0  0  0  0
 11  5  1  0  0  0  0
 13 14  1  0  0  0  0
 14 19  1  0  0  0  0
 14 15  2  0  0  0  0
 15 20  1  0  0  0  0
 16 15  1  0  0  0  0
 17 16  2  0  0  0  0
 18 13  2  0  0  0  0
 18 17  1  0  0  0  0
 21 17  1  0  0  0  0
 21 23  2  0  0  0  0
 22 21  1  0  0  0  0
 24 25  1  0  0  0  0
 24  3  1  0  0  0  0
 26 24  1  0  0  0  0
 27 24  1  0  0  0  0
M  END
>  <minimizedAffinity>
-4.50666189

$$$$
