
 OpenBabel03272507253D

 27 28  0  0  1  0  0  0  0  0999 V2000
   37.0670   30.0700   48.9470 C   0  0  0  0  0  0  0  0  0  0  0  0
   38.0350   30.7190   48.1470 C   0  0  0  0  0  0  0  0  0  0  0  0
   37.6870   31.0190   46.8210 C   0  0  0  0  0  0  0  0  0  0  0  0
   36.4580   30.6760   46.3850 N   0  0  0  0  0  0  0  0  0  0  0  0
   35.5490   30.0530   47.1800 C   0  0  0  0  0  0  0  0  0  0  0  0
   35.8640   29.7570   48.4510 N   0  0  0  0  0  0  0  0  0  0  0  0
   38.5980   31.6610   45.9660 N   0  0  0  0  0  0  0  0  0  0  0  0
   39.6450   32.5860   46.4120 C   0  0  0  0  0  0  0  0  0  0  0  0
   40.2370   33.1860   45.1680 C   0  0  0  0  0  0  0  0  0  0  0  0
   39.1490   32.9690   44.1710 C   0  0  0  0  0  0  0  0  0  0  0  0
   38.7140   31.5650   44.5490 C   0  0  2  0  0  0  0  0  0  0  0  0
   37.2950   29.8200   49.9770 H   0  0  0  0  0  0  0  0  0  0  0  0
   39.0040   30.9740   48.5370 H   0  0  0  0  0  0  0  0  0  0  0  0
   34.6190   29.8580   46.6530 H   0  0  0  0  0  0  0  0  0  0  0  0
   39.2240   33.3410   47.1160 H   0  0  0  0  0  0  0  0  0  0  0  0
   40.4480   31.9960   46.9050 H   0  0  0  0  0  0  0  0  0  0  0  0
   40.3120   34.2970   45.3370 H   0  0  0  0  0  0  0  0  0  0  0  0
   41.1960   32.7740   44.8570 H   0  0  0  0  0  0  0  0  0  0  0  0
   38.3190   33.6640   44.2340 H   0  0  0  0  0  0  0  0  0  0  0  0
   39.5490   32.8990   43.1170 H   0  0  0  0  0  0  0  0  0  0  0  0
   37.5310   31.1190   43.7780 C   0  0  0  0  0  0  0  0  0  0  0  0
   36.5500   32.0850   43.9540 F   0  0  0  0  0  0  0  0  0  0  0  0
   36.9810   29.9320   44.1640 F   0  0  0  0  0  0  0  0  0  0  0  0
   37.8790   31.1730   42.4420 F   0  0  0  0  0  0  0  0  0  0  0  0
   39.8180   30.5900   44.2810 C   0  0  0  0  0  0  0  0  0  0  0  0
   40.5150   29.7750   44.1640 H   0  0  0  0  0  0  0  0  0  0  0  0
   39.4800   29.5020   44.7170 O   0  0  0  0  0  0  0  0  0  0  0  0
  1 12  1  0  0  0  0
  2 13  1  0  0  0  0
  2  1  2  0  0  0  0
  3  2  1  0  0  0  0
  4  3  2  0  0  0  0
  4  5  1  0  0  0  0
  5  6  2  0  0  0  0
  6  1  1  0  0  0  0
  7  8  1  0  0  0  0
  7  3  1  0  0  0  0
  8 16  1  0  0  0  0
  8 15  1  0  0  0  0
  9 17  1  0  0  0  0
  9  8  1  0  0  0  0
 10 19  1  0  0  0  0
 10 11  1  0  0  0  0
 10  9  1  0  0  0  0
 11 25  1  6  0  0  0
 11  7  1  0  0  0  0
 14  5  1  0  0  0  0
 18  9  1  0  0  0  0
 20 10  1  0  0  0  0
 21 22  1  0  0  0  0
 21 23  1  0  0  0  0
 21 11  1  0  0  0  0
 24 21  1  0  0  0  0
 25 27  1  0  0  0  0
 26 25  1  0  0  0  0
M  END
>  <minimizedAffinity>
-4.65850592

>  <minimizedRMSD>
3.15493345

$$$$
