
 OpenBabel03272508553D

 32 34  0  0  1  0  0  0  0  0999 V2000
   37.1140   27.0440   32.0840 C   0  0  2  0  0  0  0  0  0  0  0  0
   36.4380   27.9230   33.0520 C   0  0  0  0  0  0  0  0  0  0  0  0
   37.7860   27.2180   33.3480 C   0  0  1  0  0  0  0  0  0  0  0  0
   36.5730   26.1050   31.8490 H   0  0  0  0  0  0  0  0  0  0  0  0
   36.4560   29.0200   32.9080 H   0  0  0  0  0  0  0  0  0  0  0  0
   35.5440   27.5400   33.5680 H   0  0  0  0  0  0  0  0  0  0  0  0
   38.6150   27.9500   33.4460 H   0  0  0  0  0  0  0  0  0  0  0  0
   37.5270   28.8360   28.8600 C   0  0  0  0  0  0  0  0  0  0  0  0
   38.9200   28.6600   28.6000 C   0  0  0  0  0  0  0  0  0  0  0  0
   39.6940   27.9060   29.5560 C   0  0  0  0  0  0  0  0  0  0  0  0
   39.0730   27.3970   30.6590 N   0  0  0  0  0  0  0  0  0  0  0  0
   37.7420   27.6060   30.8400 C   0  0  0  0  0  0  0  0  0  0  0  0
   36.9480   28.3170   29.9630 N   0  0  0  0  0  0  0  0  0  0  0  0
   37.0000   29.4030   28.1200 H   0  0  0  0  0  0  0  0  0  0  0  0
   39.3900   29.0610   27.7390 H   0  0  0  0  0  0  0  0  0  0  0  0
   40.7490   27.7670   29.3670 H   0  0  0  0  0  0  0  0  0  0  0  0
   38.4740   26.3080   35.5380 C   0  0  0  0  0  0  0  0  0  0  0  0
   39.0440   27.3830   35.8040 O   0  0  0  0  0  0  0  0  0  0  0  0
   37.6730   26.1660   34.3410 N   0  0  0  0  0  0  0  0  0  0  0  0
   37.0430   25.3760   34.1590 H   0  0  0  0  0  0  0  0  0  0  0  0
   38.5880   25.1360   36.4300 C   0  0  0  0  0  0  0  0  0  0  0  0
   37.8200   25.0960   37.5710 C   0  0  0  0  0  0  0  0  0  0  0  0
   37.9460   23.9900   38.3980 C   0  0  0  0  0  0  0  0  0  0  0  0
   38.8280   23.0030   38.0330 C   0  0  0  0  0  0  0  0  0  0  0  0
   39.6060   23.0420   36.8790 C   0  0  0  0  0  0  0  0  0  0  0  0
   39.4430   24.1390   36.1120 N   0  0  0  0  0  0  0  0  0  0  0  0
   37.1260   25.8870   37.8450 H   0  0  0  0  0  0  0  0  0  0  0  0
   37.3510   23.9490   39.2890 H   0  0  0  0  0  0  0  0  0  0  0  0
   38.9400   22.1270   38.6700 H   0  0  0  0  0  0  0  0  0  0  0  0
   40.5280   21.9610   36.5410 C   0  0  0  0  0  0  0  0  0  0  0  0
   40.4780   21.5890   35.5270 H   0  0  0  0  0  0  0  0  0  0  0  0
   41.3090   21.5400   37.4390 O   0  0  0  0  0  0  0  0  0  0  0  0
  1  4  1  6  0  0  0
  1  2  1  0  0  0  0
  1  3  1  0  0  0  0
  2  3  1  0  0  0  0
  2  6  1  0  0  0  0
  3  7  1  1  0  0  0
  3 19  1  0  0  0  0
  5  2  1  0  0  0  0
  8 13  1  0  0  0  0
  9  8  2  0  0  0  0
  9 10  1  0  0  0  0
 10 11  2  0  0  0  0
 11 12  1  0  0  0  0
 12  1  1  0  0  0  0
 13 12  2  0  0  0  0
 14  8  1  0  0  0  0
 15  9  1  0  0  0  0
 16 10  1  0  0  0  0
 17 18  2  0  0  0  0
 17 21  1  0  0  0  0
 19 17  1  0  0  0  0
 20 19  1  0  0  0  0
 21 22  1  0  0  0  0
 22 27  1  0  0  0  0
 22 23  2  0  0  0  0
 23 28  1  0  0  0  0
 24 23  1  0  0  0  0
 24 29  1  0  0  0  0
 25 24  2  0  0  0  0
 26 21  2  0  0  0  0
 26 25  1  0  0  0  0
 30 25  1  0  0  0  0
 30 32  2  0  0  0  0
 31 30  1  0  0  0  0
M  END
>  <minimizedAffinity>
-4.78077555

$$$$

 OpenBabel03272508553D

 32 34  0  0  1  0  0  0  0  0999 V2000
   38.3310   26.4010   32.2050 C   0  0  2  0  0  0  0  0  0  0  0  0
   38.3010   25.1870   31.3730 C   0  0  0  0  0  0  0  0  0  0  0  0
   37.4260   25.3660   32.6400 C   0  0  1  0  0  0  0  0  0  0  0  0
   39.2890   26.5810   32.7340 H   0  0  0  0  0  0  0  0  0  0  0  0
   37.7900   25.2030   30.3920 H   0  0  0  0  0  0  0  0  0  0  0  0
   39.1500   24.4880   31.4410 H   0  0  0  0  0  0  0  0  0  0  0  0
   36.3470   25.4210   32.3830 H   0  0  0  0  0  0  0  0  0  0  0  0
   37.7100   29.3520   30.0430 C   0  0  0  0  0  0  0  0  0  0  0  0
   36.6930   30.0430   30.7690 C   0  0  0  0  0  0  0  0  0  0  0  0
   36.2440   29.4670   32.0140 C   0  0  0  0  0  0  0  0  0  0  0  0
   36.8030   28.2990   32.4440 N   0  0  0  0  0  0  0  0  0  0  0  0
   37.7680   27.6980   31.6980 C   0  0  0  0  0  0  0  0  0  0  0  0
   38.2390   28.1980   30.5010 N   0  0  0  0  0  0  0  0  0  0  0  0
   38.0050   29.8230   29.1270 H   0  0  0  0  0  0  0  0  0  0  0  0
   36.2670   30.9500   30.4240 H   0  0  0  0  0  0  0  0  0  0  0  0
   35.4750   29.9830   32.5710 H   0  0  0  0  0  0  0  0  0  0  0  0
   37.7590   25.0740   35.0690 C   0  0  0  0  0  0  0  0  0  0  0  0
   37.1630   26.1470   35.2790 O   0  0  0  0  0  0  0  0  0  0  0  0
   37.8310   24.5090   33.7390 N   0  0  0  0  0  0  0  0  0  0  0  0
   38.1470   23.5550   33.5330 H   0  0  0  0  0  0  0  0  0  0  0  0
   38.4150   24.3320   36.1650 C   0  0  0  0  0  0  0  0  0  0  0  0
   37.8740   24.4010   37.4280 C   0  0  0  0  0  0  0  0  0  0  0  0
   38.5080   23.7020   38.4440 C   0  0  0  0  0  0  0  0  0  0  0  0
   39.6360   22.9850   38.1320 C   0  0  0  0  0  0  0  0  0  0  0  0
   40.1860   22.9120   36.8550 C   0  0  0  0  0  0  0  0  0  0  0  0
   39.5290   23.6100   35.9060 N   0  0  0  0  0  0  0  0  0  0  0  0
   36.9790   24.9750   37.6570 H   0  0  0  0  0  0  0  0  0  0  0  0
   38.0940   23.7500   39.4320 H   0  0  0  0  0  0  0  0  0  0  0  0
   40.1480   22.4290   38.9180 H   0  0  0  0  0  0  0  0  0  0  0  0
   41.3880   22.1320   36.5820 C   0  0  0  0  0  0  0  0  0  0  0  0
   41.9040   22.3540   35.6570 H   0  0  0  0  0  0  0  0  0  0  0  0
   41.7410   21.2630   37.4280 O   0  0  0  0  0  0  0  0  0  0  0  0
  1  3  1  0  0  0  0
  1  4  1  1  0  0  0
  2  6  1  0  0  0  0
  2  1  1  0  0  0  0
  2  3  1  0  0  0  0
  3  7  1  6  0  0  0
  3 19  1  0  0  0  0
  5  2  1  0  0  0  0
  8 13  2  0  0  0  0
  8  9  1  0  0  0  0
  9 10  2  0  0  0  0
 10 11  1  0  0  0  0
 10 16  1  0  0  0  0
 12  1  1  0  0  0  0
 12 11  2  0  0  0  0
 13 12  1  0  0  0  0
 14  8  1  0  0  0  0
 15  9  1  0  0  0  0
 17 18  2  0  0  0  0
 17 21  1  0  0  0  0
 19 17  1  0  0  0  0
 20 19  1  0  0  0  0
 21 22  1  0  0  0  0
 22 27  1  0  0  0  0
 22 23  2  0  0  0  0
 23 28  1  0  0  0  0
 24 23  1  0  0  0  0
 24 29  1  0  0  0  0
 25 24  2  0  0  0  0
 26 21  2  0  0  0  0
 26 25  1  0  0  0  0
 30 25  1  0  0  0  0
 30 32  2  0  0  0  0
 31 30  1  0  0  0  0
M  END
>  <minimizedAffinity>
-4.71971226

$$$$

 OpenBabel03272508553D

 32 34  0  0  1  0  0  0  0  0999 V2000
   36.2520   28.3620   32.8290 C   0  0  2  0  0  0  0  0  0  0  0  0
   36.8050   28.7050   31.5090 C   0  0  0  0  0  0  0  0  0  0  0  0
   35.8420   27.5130   31.7380 C   0  0  1  0  0  0  0  0  0  0  0  0
   37.0000   28.0160   33.5720 H   0  0  0  0  0  0  0  0  0  0  0  0
   36.4120   29.5810   30.9570 H   0  0  0  0  0  0  0  0  0  0  0  0
   37.8620   28.4700   31.3090 H   0  0  0  0  0  0  0  0  0  0  0  0
   34.8650   27.6780   31.2370 H   0  0  0  0  0  0  0  0  0  0  0  0
   34.7090   30.8230   35.1380 C   0  0  0  0  0  0  0  0  0  0  0  0
   33.3660   30.8800   34.6560 C   0  0  0  0  0  0  0  0  0  0  0  0
   33.0180   30.0460   33.5310 C   0  0  0  0  0  0  0  0  0  0  0  0
   33.9740   29.2450   32.9780 N   0  0  0  0  0  0  0  0  0  0  0  0
   35.2320   29.2440   33.4920 C   0  0  0  0  0  0  0  0  0  0  0  0
   35.6270   30.0170   34.5650 N   0  0  0  0  0  0  0  0  0  0  0  0
   34.9130   31.4620   35.9730 H   0  0  0  0  0  0  0  0  0  0  0  0
   32.6320   31.5070   35.0940 H   0  0  0  0  0  0  0  0  0  0  0  0
   32.0030   30.0810   33.1600 H   0  0  0  0  0  0  0  0  0  0  0  0
   35.6560   25.1240   31.1410 C   0  0  0  0  0  0  0  0  0  0  0  0
   34.5130   25.3270   30.6900 O   0  0  0  0  0  0  0  0  0  0  0  0
   36.4870   26.2220   31.5860 N   0  0  0  0  0  0  0  0  0  0  0  0
   37.4880   26.1390   31.7970 H   0  0  0  0  0  0  0  0  0  0  0  0
   36.2130   23.7600   31.2390 C   0  0  0  0  0  0  0  0  0  0  0  0
   37.4550   23.5110   30.7020 C   0  0  0  0  0  0  0  0  0  0  0  0
   37.9570   22.2230   30.7990 C   0  0  0  0  0  0  0  0  0  0  0  0
   37.1880   21.2710   31.4220 C   0  0  0  0  0  0  0  0  0  0  0  0
   35.9320   21.5190   31.9670 C   0  0  0  0  0  0  0  0  0  0  0  0
   35.4920   22.7890   31.8440 N   0  0  0  0  0  0  0  0  0  0  0  0
   38.0500   24.2770   30.2110 H   0  0  0  0  0  0  0  0  0  0  0  0
   38.9250   22.0200   30.3840 H   0  0  0  0  0  0  0  0  0  0  0  0
   37.5670   20.2530   31.5080 H   0  0  0  0  0  0  0  0  0  0  0  0
   35.1580   20.4670   32.6190 C   0  0  0  0  0  0  0  0  0  0  0  0
   35.3250   20.3380   33.6810 H   0  0  0  0  0  0  0  0  0  0  0  0
   34.3600   19.7880   31.9150 O   0  0  0  0  0  0  0  0  0  0  0  0
  1 12  1  0  0  0  0
  1  4  1  1  0  0  0
  2  3  1  0  0  0  0
  2  1  1  0  0  0  0
  3  7  1  6  0  0  0
  3  1  1  0  0  0  0
  5  2  1  0  0  0  0
  6  2  1  0  0  0  0
  8 14  1  0  0  0  0
  9 15  1  0  0  0  0
  9  8  1  0  0  0  0
 10  9  2  0  0  0  0
 11 12  2  0  0  0  0
 11 10  1  0  0  0  0
 12 13  1  0  0  0  0
 13  8  2  0  0  0  0
 16 10  1  0  0  0  0
 17 21  1  0  0  0  0
 17 19  1  0  0  0  0
 18 17  2  0  0  0  0
 19  3  1  0  0  0  0
 19 20  1  0  0  0  0
 21 26  1  0  0  0  0
 22 23  1  0  0  0  0
 22 21  2  0  0  0  0
 23 24  2  0  0  0  0
 24 29  1  0  0  0  0
 24 25  1  0  0  0  0
 25 30  1  0  0  0  0
 26 25  2  0  0  0  0
 27 22  1  0  0  0  0
 28 23  1  0  0  0  0
 30 31  1  0  0  0  0
 32 30  2  0  0  0  0
M  END
>  <minimizedAffinity>
-4.67977142

$$$$

 OpenBabel03272508553D

 32 34  0  0  1  0  0  0  0  0999 V2000
   36.3570   23.0440   31.2190 C   0  0  2  0  0  0  0  0  0  0  0  0
   37.7100   23.4100   30.7680 C   0  0  0  0  0  0  0  0  0  0  0  0
   37.0710   23.9690   32.0640 C   0  0  1  0  0  0  0  0  0  0  0  0
   35.5360   23.3900   30.5600 H   0  0  0  0  0  0  0  0  0  0  0  0
   38.5420   22.6880   30.8780 H   0  0  0  0  0  0  0  0  0  0  0  0
   37.8060   24.0990   29.9140 H   0  0  0  0  0  0  0  0  0  0  0  0
   37.6030   23.6060   32.9690 H   0  0  0  0  0  0  0  0  0  0  0  0
   35.5330   20.2590   33.5290 C   0  0  0  0  0  0  0  0  0  0  0  0
   35.4810   19.1420   32.6410 C   0  0  0  0  0  0  0  0  0  0  0  0
   35.7440   19.3820   31.2420 C   0  0  0  0  0  0  0  0  0  0  0  0
   36.0300   20.6500   30.8280 N   0  0  0  0  0  0  0  0  0  0  0  0
   36.0620   21.6630   31.7330 C   0  0  0  0  0  0  0  0  0  0  0  0
   35.8200   21.5000   33.0820 N   0  0  0  0  0  0  0  0  0  0  0  0
   35.3290   20.0260   34.5550 H   0  0  0  0  0  0  0  0  0  0  0  0
   35.2570   18.1620   32.9750 H   0  0  0  0  0  0  0  0  0  0  0  0
   35.7080   18.5420   30.5620 H   0  0  0  0  0  0  0  0  0  0  0  0
   37.2250   26.2310   33.0440 C   0  0  0  0  0  0  0  0  0  0  0  0
   38.0670   25.8170   33.8630 O   0  0  0  0  0  0  0  0  0  0  0  0
   36.7440   25.3800   31.9760 N   0  0  0  0  0  0  0  0  0  0  0  0
   36.1940   25.7130   31.1770 H   0  0  0  0  0  0  0  0  0  0  0  0
   36.6830   27.6020   33.1240 C   0  0  0  0  0  0  0  0  0  0  0  0
   36.3450   28.1100   34.3580 C   0  0  0  0  0  0  0  0  0  0  0  0
   35.8320   29.3960   34.4110 C   0  0  0  0  0  0  0  0  0  0  0  0
   35.6890   30.0870   33.2330 C   0  0  0  0  0  0  0  0  0  0  0  0
   36.0300   29.5770   31.9840 C   0  0  0  0  0  0  0  0  0  0  0  0
   36.5240   28.3220   31.9910 N   0  0  0  0  0  0  0  0  0  0  0  0
   36.4640   27.5470   35.2810 H   0  0  0  0  0  0  0  0  0  0  0  0
   35.5660   29.8000   35.3680 H   0  0  0  0  0  0  0  0  0  0  0  0
   35.2870   31.1000   33.2550 H   0  0  0  0  0  0  0  0  0  0  0  0
   35.8570   30.3590   30.7640 C   0  0  0  0  0  0  0  0  0  0  0  0
   35.0620   31.0940   30.7740 H   0  0  0  0  0  0  0  0  0  0  0  0
   36.6320   30.1320   29.7940 O   0  0  0  0  0  0  0  0  0  0  0  0
  1  4  1  6  0  0  0
  1 12  1  0  0  0  0
  1  3  1  0  0  0  0
  2  5  1  0  0  0  0
  2  1  1  0  0  0  0
  2  3  1  0  0  0  0
  3  7  1  1  0  0  0
  6  2  1  0  0  0  0
  8 14  1  0  0  0  0
  9 15  1  0  0  0  0
  9  8  2  0  0  0  0
 10  9  1  0  0  0  0
 11 10  2  0  0  0  0
 11 12  1  0  0  0  0
 12 13  2  0  0  0  0
 13  8  1  0  0  0  0
 16 10  1  0  0  0  0
 17 21  1  0  0  0  0
 17 18  2  0  0  0  0
 19  3  1  0  0  0  0
 19 17  1  0  0  0  0
 20 19  1  0  0  0  0
 21 22  1  0  0  0  0
 22 23  2  0  0  0  0
 22 27  1  0  0  0  0
 23 28  1  0  0  0  0
 24 29  1  0  0  0  0
 24 23  1  0  0  0  0
 25 26  1  0  0  0  0
 25 24  2  0  0  0  0
 26 21  2  0  0  0  0
 30 31  1  0  0  0  0
 30 25  1  0  0  0  0
 32 30  2  0  0  0  0
M  END
>  <minimizedAffinity>
-4.67937088

$$$$

 OpenBabel03272508553D

 32 34  0  0  1  0  0  0  0  0999 V2000
   38.1240   23.9550   34.5900 C   0  0  2  0  0  0  0  0  0  0  0  0
   38.6570   23.0730   33.5390 C   0  0  0  0  0  0  0  0  0  0  0  0
   39.1130   24.5430   33.7210 C   0  0  1  0  0  0  0  0  0  0  0  0
   37.0500   24.2090   34.4850 H   0  0  0  0  0  0  0  0  0  0  0  0
   39.3800   22.2770   33.8010 H   0  0  0  0  0  0  0  0  0  0  0  0
   38.0150   22.8460   32.6730 H   0  0  0  0  0  0  0  0  0  0  0  0
   40.1750   24.6020   34.0390 H   0  0  0  0  0  0  0  0  0  0  0  0
   37.9100   23.9850   38.2950 C   0  0  0  0  0  0  0  0  0  0  0  0
   39.0830   23.2590   38.6650 C   0  0  0  0  0  0  0  0  0  0  0  0
   39.9380   22.7760   37.6080 C   0  0  0  0  0  0  0  0  0  0  0  0
   39.5980   23.0280   36.3110 N   0  0  0  0  0  0  0  0  0  0  0  0
   38.4650   23.7270   36.0350 C   0  0  0  0  0  0  0  0  0  0  0  0
   37.6070   24.2160   37.0000 N   0  0  0  0  0  0  0  0  0  0  0  0
   37.3120   24.3200   39.1170 H   0  0  0  0  0  0  0  0  0  0  0  0
   39.3360   23.0690   39.6760 H   0  0  0  0  0  0  0  0  0  0  0  0
   40.8280   22.2260   37.8790 H   0  0  0  0  0  0  0  0  0  0  0  0
   38.6050   26.8320   32.9440 C   0  0  0  0  0  0  0  0  0  0  0  0
   39.1320   27.2960   33.9730 O   0  0  0  0  0  0  0  0  0  0  0  0
   38.6640   25.4150   32.6520 N   0  0  0  0  0  0  0  0  0  0  0  0
   38.4100   25.0020   31.7470 H   0  0  0  0  0  0  0  0  0  0  0  0
   37.9010   27.7010   31.9800 C   0  0  0  0  0  0  0  0  0  0  0  0
   36.7560   28.3480   32.3860 C   0  0  0  0  0  0  0  0  0  0  0  0
   36.1070   29.1550   31.4640 C   0  0  0  0  0  0  0  0  0  0  0  0
   36.6410   29.2600   30.2040 C   0  0  0  0  0  0  0  0  0  0  0  0
   37.7980   28.6070   29.7900 C   0  0  0  0  0  0  0  0  0  0  0  0
   38.3890   27.8370   30.7270 N   0  0  0  0  0  0  0  0  0  0  0  0
   36.3470   28.2530   33.3890 H   0  0  0  0  0  0  0  0  0  0  0  0
   35.2140   29.6630   31.7710 H   0  0  0  0  0  0  0  0  0  0  0  0
   36.1440   29.8900   29.4660 H   0  0  0  0  0  0  0  0  0  0  0  0
   38.3200   28.7580   28.4360 C   0  0  0  0  0  0  0  0  0  0  0  0
   38.9630   27.9640   28.0790 H   0  0  0  0  0  0  0  0  0  0  0  0
   37.9930   29.7860   27.7810 O   0  0  0  0  0  0  0  0  0  0  0  0
  1  4  1  6  0  0  0
  1 12  1  0  0  0  0
  2  3  1  0  0  0  0
  2  5  1  0  0  0  0
  2  1  1  0  0  0  0
  3  7  1  1  0  0  0
  3  1  1  0  0  0  0
  6  2  1  0  0  0  0
  8  9  1  0  0  0  0
  8 14  1  0  0  0  0
  9 15  1  0  0  0  0
 10 16  1  0  0  0  0
 10  9  2  0  0  0  0
 11 10  1  0  0  0  0
 12 11  2  0  0  0  0
 12 13  1  0  0  0  0
 13  8  2  0  0  0  0
 17 18  2  0  0  0  0
 19 17  1  0  0  0  0
 19  3  1  0  0  0  0
 20 19  1  0  0  0  0
 21 22  1  0  0  0  0
 21 17  1  0  0  0  0
 22 27  1  0  0  0  0
 23 28  1  0  0  0  0
 23 22  2  0  0  0  0
 24 23  1  0  0  0  0
 25 24  2  0  0  0  0
 25 26  1  0  0  0  0
 26 21  2  0  0  0  0
 29 24  1  0  0  0  0
 30 25  1  0  0  0  0
 31 30  1  0  0  0  0
 32 30  2  0  0  0  0
M  END
>  <minimizedAffinity>
-4.6411109

$$$$

 OpenBabel03272508553D

 32 34  0  0  1  0  0  0  0  0999 V2000
   36.5380   23.8180   31.2380 C   0  0  2  0  0  0  0  0  0  0  0  0
   37.7720   24.0120   30.4600 C   0  0  0  0  0  0  0  0  0  0  0  0
   37.5270   24.6790   31.8370 C   0  0  1  0  0  0  0  0  0  0  0  0
   35.6230   24.2370   30.7730 H   0  0  0  0  0  0  0  0  0  0  0  0
   38.5260   23.2020   30.4110 H   0  0  0  0  0  0  0  0  0  0  0  0
   37.7310   24.6590   29.5700 H   0  0  0  0  0  0  0  0  0  0  0  0
   38.2210   24.2830   32.6090 H   0  0  0  0  0  0  0  0  0  0  0  0
   36.5320   21.0180   33.6740 C   0  0  0  0  0  0  0  0  0  0  0  0
   35.6230   20.0990   33.0680 C   0  0  0  0  0  0  0  0  0  0  0  0
   35.0300   20.4720   31.8060 C   0  0  0  0  0  0  0  0  0  0  0  0
   35.3580   21.6730   31.2480 N   0  0  0  0  0  0  0  0  0  0  0  0
   36.2320   22.4960   31.8850 C   0  0  0  0  0  0  0  0  0  0  0  0
   36.8320   22.1980   33.0910 N   0  0  0  0  0  0  0  0  0  0  0  0
   36.9420   20.6930   34.6090 H   0  0  0  0  0  0  0  0  0  0  0  0
   35.3770   19.1690   33.5120 H   0  0  0  0  0  0  0  0  0  0  0  0
   34.3420   19.7820   31.3380 H   0  0  0  0  0  0  0  0  0  0  0  0
   36.9700   26.8020   32.9690 C   0  0  0  0  0  0  0  0  0  0  0  0
   37.0410   26.2310   34.0730 O   0  0  0  0  0  0  0  0  0  0  0  0
   37.3390   26.1150   31.7490 N   0  0  0  0  0  0  0  0  0  0  0  0
   37.4720   26.5790   30.8430 H   0  0  0  0  0  0  0  0  0  0  0  0
   36.5100   28.2010   32.8540 C   0  0  0  0  0  0  0  0  0  0  0  0
   36.5500   28.8120   31.6210 C   0  0  0  0  0  0  0  0  0  0  0  0
   36.1200   30.1270   31.5360 C   0  0  0  0  0  0  0  0  0  0  0  0
   35.6820   30.7430   32.6820 C   0  0  0  0  0  0  0  0  0  0  0  0
   35.6400   30.1280   33.9300 C   0  0  0  0  0  0  0  0  0  0  0  0
   36.0690   28.8490   33.9550 N   0  0  0  0  0  0  0  0  0  0  0  0
   36.9010   28.3090   30.7240 H   0  0  0  0  0  0  0  0  0  0  0  0
   36.1480   30.6120   30.5800 H   0  0  0  0  0  0  0  0  0  0  0  0
   35.3400   31.7770   32.6340 H   0  0  0  0  0  0  0  0  0  0  0  0
   35.1620   30.8330   35.1150 C   0  0  0  0  0  0  0  0  0  0  0  0
   34.0930   30.9820   35.1860 H   0  0  0  0  0  0  0  0  0  0  0  0
   36.0130   31.2140   35.9660 O   0  0  0  0  0  0  0  0  0  0  0  0
  1  4  1  6  0  0  0
  1  3  1  0  0  0  0
  1 12  1  0  0  0  0
  2  1  1  0  0  0  0
  2  3  1  0  0  0  0
  3  7  1  1  0  0  0
  5  2  1  0  0  0  0
  6  2  1  0  0  0  0
  8 14  1  0  0  0  0
  9 15  1  0  0  0  0
  9  8  2  0  0  0  0
 10  9  1  0  0  0  0
 11 10  2  0  0  0  0
 11 12  1  0  0  0  0
 12 13  2  0  0  0  0
 13  8  1  0  0  0  0
 16 10  1  0  0  0  0
 17 18  2  0  0  0  0
 19  3  1  0  0  0  0
 19 17  1  0  0  0  0
 20 19  1  0  0  0  0
 21 17  1  0  0  0  0
 21 26  1  0  0  0  0
 22 21  2  0  0  0  0
 23 22  1  0  0  0  0
 23 24  2  0  0  0  0
 24 25  1  0  0  0  0
 25 26  2  0  0  0  0
 25 30  1  0  0  0  0
 27 22  1  0  0  0  0
 28 23  1  0  0  0  0
 29 24  1  0  0  0  0
 30 31  1  0  0  0  0
 30 32  2  0  0  0  0
M  END
>  <minimizedAffinity>
-4.62817669

$$$$

 OpenBabel03272508553D

 32 34  0  0  1  0  0  0  0  0999 V2000
   35.9060   27.1970   31.3150 C   0  0  2  0  0  0  0  0  0  0  0  0
   36.5410   28.2080   30.4530 C   0  0  0  0  0  0  0  0  0  0  0  0
   36.8030   28.1110   31.9780 C   0  0  1  0  0  0  0  0  0  0  0  0
   34.8070   27.2990   31.4210 H   0  0  0  0  0  0  0  0  0  0  0  0
   37.3640   27.9140   29.7740 H   0  0  0  0  0  0  0  0  0  0  0  0
   35.9270   29.0500   30.0990 H   0  0  0  0  0  0  0  0  0  0  0  0
   37.8510   27.8110   32.1910 H   0  0  0  0  0  0  0  0  0  0  0  0
   35.6490   23.4950   31.2830 C   0  0  0  0  0  0  0  0  0  0  0  0
   36.9880   23.1080   30.9750 C   0  0  0  0  0  0  0  0  0  0  0  0
   37.9670   24.1530   30.7910 C   0  0  0  0  0  0  0  0  0  0  0  0
   37.5790   25.4550   30.9170 N   0  0  0  0  0  0  0  0  0  0  0  0
   36.2840   25.7470   31.2130 C   0  0  0  0  0  0  0  0  0  0  0  0
   35.3030   24.7950   31.4000 N   0  0  0  0  0  0  0  0  0  0  0  0
   34.9640   22.6810   31.4080 H   0  0  0  0  0  0  0  0  0  0  0  0
   37.2770   22.0930   30.8790 H   0  0  0  0  0  0  0  0  0  0  0  0
   38.9840   23.8700   30.5590 H   0  0  0  0  0  0  0  0  0  0  0  0
   36.1340   29.0550   34.1600 C   0  0  0  0  0  0  0  0  0  0  0  0
   36.7140   28.1190   34.7410 O   0  0  0  0  0  0  0  0  0  0  0  0
   36.2360   29.2180   32.7250 N   0  0  0  0  0  0  0  0  0  0  0  0
   35.9340   30.0570   32.2170 H   0  0  0  0  0  0  0  0  0  0  0  0
   35.3210   30.0380   34.9040 C   0  0  0  0  0  0  0  0  0  0  0  0
   35.9640   31.0140   35.6310 C   0  0  0  0  0  0  0  0  0  0  0  0
   35.1830   31.9230   36.3280 C   0  0  0  0  0  0  0  0  0  0  0  0
   33.8180   31.7960   36.2550 C   0  0  0  0  0  0  0  0  0  0  0  0
   33.1640   30.8100   35.5210 C   0  0  0  0  0  0  0  0  0  0  0  0
   33.9720   29.9540   34.8630 N   0  0  0  0  0  0  0  0  0  0  0  0
   37.0460   31.0990   35.6780 H   0  0  0  0  0  0  0  0  0  0  0  0
   35.6740   32.6870   36.8970 H   0  0  0  0  0  0  0  0  0  0  0  0
   33.1880   32.5020   36.7970 H   0  0  0  0  0  0  0  0  0  0  0  0
   31.7080   30.7250   35.4800 C   0  0  0  0  0  0  0  0  0  0  0  0
   31.2520   30.7880   34.5000 H   0  0  0  0  0  0  0  0  0  0  0  0
   31.0870   30.5850   36.5700 O   0  0  0  0  0  0  0  0  0  0  0  0
  1  4  1  1  0  0  0
  1  3  1  0  0  0  0
  2  1  1  0  0  0  0
  2  3  1  0  0  0  0
  3  7  1  1  0  0  0
  3 19  1  0  0  0  0
  5  2  1  0  0  0  0
  6  2  1  0  0  0  0
  8 13  1  0  0  0  0
  8 14  1  0  0  0  0
  9  8  2  0  0  0  0
 10 11  2  0  0  0  0
 10  9  1  0  0  0  0
 11 12  1  0  0  0  0
 12  1  1  0  0  0  0
 12 13  2  0  0  0  0
 15  9  1  0  0  0  0
 16 10  1  0  0  0  0
 17 18  2  0  0  0  0
 17 21  1  0  0  0  0
 19 17  1  0  0  0  0
 20 19  1  0  0  0  0
 21 22  1  0  0  0  0
 22 27  1  0  0  0  0
 22 23  2  0  0  0  0
 23 28  1  0  0  0  0
 24 23  1  0  0  0  0
 24 29  1  0  0  0  0
 25 24  2  0  0  0  0
 26 21  2  0  0  0  0
 26 25  1  0  0  0  0
 30 25  1  0  0  0  0
 30 32  2  0  0  0  0
 31 30  1  0  0  0  0
M  END
>  <minimizedAffinity>
-4.62460375

$$$$

 OpenBabel03272508553D

 32 34  0  0  1  0  0  0  0  0999 V2000
   40.5030   23.0560   36.7720 C   0  0  2  0  0  0  0  0  0  0  0  0
   39.6140   22.9500   37.9390 C   0  0  0  0  0  0  0  0  0  0  0  0
   39.1060   22.8590   36.4780 C   0  0  1  0  0  0  0  0  0  0  0  0
   40.9810   24.0480   36.6370 H   0  0  0  0  0  0  0  0  0  0  0  0
   39.6030   22.0220   38.5430 H   0  0  0  0  0  0  0  0  0  0  0  0
   39.3780   23.8680   38.5000 H   0  0  0  0  0  0  0  0  0  0  0  0
   38.7190   21.8450   36.2450 H   0  0  0  0  0  0  0  0  0  0  0  0
   42.7960   20.1630   37.1580 C   0  0  0  0  0  0  0  0  0  0  0  0
   43.2250   19.9430   35.8140 C   0  0  0  0  0  0  0  0  0  0  0  0
   42.7090   20.8200   34.7900 C   0  0  0  0  0  0  0  0  0  0  0  0
   41.8420   21.8130   35.1420 N   0  0  0  0  0  0  0  0  0  0  0  0
   41.4800   21.9620   36.4430 C   0  0  0  0  0  0  0  0  0  0  0  0
   41.9370   21.1580   37.4680 N   0  0  0  0  0  0  0  0  0  0  0  0
   43.2080   19.4850   37.8770 H   0  0  0  0  0  0  0  0  0  0  0  0
   43.8980   19.1680   35.5540 H   0  0  0  0  0  0  0  0  0  0  0  0
   43.0280   20.6620   33.7700 H   0  0  0  0  0  0  0  0  0  0  0  0
   38.2020   24.2610   34.6560 C   0  0  0  0  0  0  0  0  0  0  0  0
   38.5650   23.4100   33.8230 O   0  0  0  0  0  0  0  0  0  0  0  0
   38.3140   24.0080   36.0770 N   0  0  0  0  0  0  0  0  0  0  0  0
   37.8750   24.5860   36.8020 H   0  0  0  0  0  0  0  0  0  0  0  0
   37.6410   25.5600   34.2350 C   0  0  0  0  0  0  0  0  0  0  0  0
   37.5990   26.5910   35.1460 C   0  0  0  0  0  0  0  0  0  0  0  0
   37.0630   27.8000   34.7330 C   0  0  0  0  0  0  0  0  0  0  0  0
   36.6040   27.9000   33.4430 C   0  0  0  0  0  0  0  0  0  0  0  0
   36.6450   26.8600   32.5180 C   0  0  0  0  0  0  0  0  0  0  0  0
   37.1770   25.7070   32.9730 N   0  0  0  0  0  0  0  0  0  0  0  0
   37.9670   26.4930   36.1650 H   0  0  0  0  0  0  0  0  0  0  0  0
   37.0260   28.6090   35.4360 H   0  0  0  0  0  0  0  0  0  0  0  0
   36.1790   28.8430   33.1000 H   0  0  0  0  0  0  0  0  0  0  0  0
   36.1430   27.0250   31.1580 C   0  0  0  0  0  0  0  0  0  0  0  0
   35.2960   26.4110   30.8820 H   0  0  0  0  0  0  0  0  0  0  0  0
   36.7200   27.8580   30.4050 O   0  0  0  0  0  0  0  0  0  0  0  0
  1  4  1  6  0  0  0
  1  2  1  0  0  0  0
  2  6  1  0  0  0  0
  2  5  1  0  0  0  0
  3  7  1  6  0  0  0
  3  1  1  0  0  0  0
  3  2  1  0  0  0  0
  8 13  1  0  0  0  0
  8 14  1  0  0  0  0
  9  8  2  0  0  0  0
 10 11  2  0  0  0  0
 10  9  1  0  0  0  0
 11 12  1  0  0  0  0
 12  1  1  0  0  0  0
 12 13  2  0  0  0  0
 15  9  1  0  0  0  0
 16 10  1  0  0  0  0
 17 19  1  0  0  0  0
 18 17  2  0  0  0  0
 19  3  1  0  0  0  0
 19 20  1  0  0  0  0
 21 17  1  0  0  0  0
 21 22  1  0  0  0  0
 22 27  1  0  0  0  0
 23 22  2  0  0  0  0
 23 28  1  0  0  0  0
 24 23  1  0  0  0  0
 25 26  1  0  0  0  0
 25 24  2  0  0  0  0
 26 21  2  0  0  0  0
 29 24  1  0  0  0  0
 30 25  1  0  0  0  0
 31 30  1  0  0  0  0
 32 30  2  0  0  0  0
M  END
>  <minimizedAffinity>
-4.62397766

$$$$

 OpenBabel03272508553D

 32 34  0  0  1  0  0  0  0  0999 V2000
   38.3320   26.2340   34.8560 C   0  0  2  0  0  0  0  0  0  0  0  0
   38.2240   27.2200   35.9440 C   0  0  0  0  0  0  0  0  0  0  0  0
   37.0930   26.9690   34.9150 C   0  0  1  0  0  0  0  0  0  0  0  0
   39.0990   26.4680   34.0900 H   0  0  0  0  0  0  0  0  0  0  0  0
   38.0550   26.8780   36.9830 H   0  0  0  0  0  0  0  0  0  0  0  0
   38.7910   28.1600   35.8540 H   0  0  0  0  0  0  0  0  0  0  0  0
   36.1980   26.5220   35.3960 H   0  0  0  0  0  0  0  0  0  0  0  0
   38.3910   23.0200   36.7100 C   0  0  0  0  0  0  0  0  0  0  0  0
   38.2520   22.0670   35.6560 C   0  0  0  0  0  0  0  0  0  0  0  0
   38.1480   22.5670   34.3060 C   0  0  0  0  0  0  0  0  0  0  0  0
   38.1860   23.9130   34.0920 N   0  0  0  0  0  0  0  0  0  0  0  0
   38.3210   24.7600   35.1460 C   0  0  0  0  0  0  0  0  0  0  0  0
   38.4250   24.3460   36.4590 N   0  0  0  0  0  0  0  0  0  0  0  0
   38.4630   22.5960   37.6910 H   0  0  0  0  0  0  0  0  0  0  0  0
   38.2230   21.0230   35.8360 H   0  0  0  0  0  0  0  0  0  0  0  0
   38.0440   21.8530   33.5010 H   0  0  0  0  0  0  0  0  0  0  0  0
   36.6370   27.7430   32.6140 C   0  0  0  0  0  0  0  0  0  0  0  0
   36.3560   26.5770   32.2790 O   0  0  0  0  0  0  0  0  0  0  0  0
   36.9020   28.0770   33.9970 N   0  0  0  0  0  0  0  0  0  0  0  0
   36.9620   29.0360   34.3570 H   0  0  0  0  0  0  0  0  0  0  0  0
   36.7100   28.8330   31.6200 C   0  0  0  0  0  0  0  0  0  0  0  0
   36.1480   30.0500   31.9300 C   0  0  0  0  0  0  0  0  0  0  0  0
   36.2220   31.0580   30.9810 C   0  0  0  0  0  0  0  0  0  0  0  0
   36.8470   30.7840   29.7890 C   0  0  0  0  0  0  0  0  0  0  0  0
   37.4160   29.5540   29.4730 C   0  0  0  0  0  0  0  0  0  0  0  0
   37.3160   28.6100   30.4320 N   0  0  0  0  0  0  0  0  0  0  0  0
   35.6560   30.2490   32.8790 H   0  0  0  0  0  0  0  0  0  0  0  0
   35.7870   32.0100   31.2130 H   0  0  0  0  0  0  0  0  0  0  0  0
   36.9140   31.5640   29.0310 H   0  0  0  0  0  0  0  0  0  0  0  0
   38.0690   29.3200   28.1890 C   0  0  0  0  0  0  0  0  0  0  0  0
   37.9780   30.1090   27.4540 H   0  0  0  0  0  0  0  0  0  0  0  0
   38.6870   28.2310   28.0230 O   0  0  0  0  0  0  0  0  0  0  0  0
  1  4  1  6  0  0  0
  1  3  1  0  0  0  0
  1 12  1  0  0  0  0
  1  2  1  0  0  0  0
  2  5  1  0  0  0  0
  3  7  1  1  0  0  0
  3  2  1  0  0  0  0
  6  2  1  0  0  0  0
  8 14  1  0  0  0  0
  9 15  1  0  0  0  0
  9  8  2  0  0  0  0
 10  9  1  0  0  0  0
 11 10  2  0  0  0  0
 11 12  1  0  0  0  0
 12 13  2  0  0  0  0
 13  8  1  0  0  0  0
 16 10  1  0  0  0  0
 17 19  1  0  0  0  0
 18 17  2  0  0  0  0
 19 20  1  0  0  0  0
 19  3  1  0  0  0  0
 21 22  1  0  0  0  0
 21 17  1  0  0  0  0
 22 27  1  0  0  0  0
 23 28  1  0  0  0  0
 23 22  2  0  0  0  0
 24 23  1  0  0  0  0
 25 24  2  0  0  0  0
 25 26  1  0  0  0  0
 26 21  2  0  0  0  0
 29 24  1  0  0  0  0
 30 25  1  0  0  0  0
 31 30  1  0  0  0  0
 32 30  2  0  0  0  0
M  END
>  <minimizedAffinity>
-4.6225667

$$$$
