
 OpenBabel03272507493D

 40 43  0  0  0  0  0  0  0  0999 V2000
   39.0150   24.9210   34.6120 N   0  0  0  0  0  0  0  0  0  0  0  0
   39.8590   25.9690   34.1480 C   0  0  0  0  0  0  0  0  0  0  0  0
   39.1920   27.1280   33.5110 C   0  0  0  0  0  0  0  0  0  0  0  0
   38.0420   26.8370   32.6550 C   0  0  0  0  0  0  0  0  0  0  0  0
   37.2150   25.6490   33.1800 C   0  0  0  0  0  0  0  0  0  0  0  0
   38.2040   24.5150   33.4990 C   0  0  0  0  0  0  0  0  0  0  0  0
   40.4650   26.3090   35.0260 H   0  0  0  0  0  0  0  0  0  0  0  0
   40.5890   25.5390   33.4270 H   0  0  0  0  0  0  0  0  0  0  0  0
   38.7810   27.6830   34.4200 H   0  0  0  0  0  0  0  0  0  0  0  0
   39.9340   27.7950   33.0650 H   0  0  0  0  0  0  0  0  0  0  0  0
   38.3870   26.4680   31.6480 H   0  0  0  0  0  0  0  0  0  0  0  0
   36.7220   25.9580   34.1020 H   0  0  0  0  0  0  0  0  0  0  0  0
   36.5250   25.2740   32.4160 H   0  0  0  0  0  0  0  0  0  0  0  0
   38.7650   24.2790   32.5790 H   0  0  0  0  0  0  0  0  0  0  0  0
   37.5640   23.6450   33.7470 H   0  0  0  0  0  0  0  0  0  0  0  0
   36.9930   28.5880   31.2940 C   0  0  0  0  0  0  0  0  0  0  0  0
   37.0700   27.9500   32.5210 C   0  0  0  0  0  0  0  0  0  0  0  0
   36.3220   28.3030   33.6120 C   0  0  0  0  0  0  0  0  0  0  0  0
   35.4320   29.3700   33.4720 C   0  0  0  0  0  0  0  0  0  0  0  0
   35.3560   30.0030   32.2580 C   0  0  0  0  0  0  0  0  0  0  0  0
   36.1160   29.6460   31.1460 C   0  0  0  0  0  0  0  0  0  0  0  0
   34.4100   31.0430   32.3190 O   0  0  0  0  0  0  0  0  0  0  0  0
   33.6800   30.7910   33.5100 C   0  0  0  0  0  0  0  0  0  0  0  0
   34.5280   30.0090   34.3140 O   0  0  0  0  0  0  0  0  0  0  0  0
   37.5180   28.3930   30.3700 H   0  0  0  0  0  0  0  0  0  0  0  0
   36.4080   27.7860   34.5450 H   0  0  0  0  0  0  0  0  0  0  0  0
   35.9960   30.2060   30.2040 H   0  0  0  0  0  0  0  0  0  0  0  0
   33.4930   31.7440   34.0750 H   0  0  0  0  0  0  0  0  0  0  0  0
   32.6920   30.3320   33.3090 H   0  0  0  0  0  0  0  0  0  0  0  0
   38.9570   24.3530   35.9240 C   0  0  0  0  0  0  0  0  0  0  0  0
   38.0380   24.6880   36.9140 C   0  0  0  0  0  0  0  0  0  0  0  0
   38.1450   24.0160   38.1350 C   0  0  0  0  0  0  0  0  0  0  0  0
   39.1220   23.0880   38.2910 N   0  0  0  0  0  0  0  0  0  0  0  0
   39.9950   22.7870   37.3130 C   0  0  0  0  0  0  0  0  0  0  0  0
   39.9060   23.4200   36.1420 N   0  0  0  0  0  0  0  0  0  0  0  0
   37.3340   25.4330   36.6410 H   0  0  0  0  0  0  0  0  0  0  0  0
   37.4290   24.2910   38.8760 H   0  0  0  0  0  0  0  0  0  0  0  0
   41.0290   21.7790   37.5350 C   0  0  0  0  0  0  0  0  0  0  0  0
   41.2780   21.4660   38.5220 H   0  0  0  0  0  0  0  0  0  0  0  0
   41.6280   21.2810   36.5270 O   0  0  0  0  0  0  0  0  0  0  0  0
  1 30  1  0  0  0  0
  2  1  1  0  0  0  0
  2  7  1  0  0  0  0
  3  2  1  0  0  0  0
  3  9  1  0  0  0  0
  4  5  1  0  0  0  0
  4  3  1  0  0  0  0
  5  6  1  0  0  0  0
  5 12  1  0  0  0  0
  6 15  1  0  0  0  0
  6  1  1  0  0  0  0
  8  2  1  0  0  0  0
 10  3  1  0  0  0  0
 11  4  1  0  0  0  0
 13  5  1  0  0  0  0
 14  6  1  0  0  0  0
 16 17  1  0  0  0  0
 17  4  1  0  0  0  0
 17 18  2  0  0  0  0
 18 26  1  0  0  0  0
 19 18  1  0  0  0  0
 19 24  1  0  0  0  0
 20 22  1  0  0  0  0
 20 19  2  0  0  0  0
 21 16  2  0  0  0  0
 21 20  1  0  0  0  0
 22 23  1  0  0  0  0
 23 28  1  0  0  0  0
 23 24  1  0  0  0  0
 25 16  1  0  0  0  0
 27 21  1  0  0  0  0
 29 23  1  0  0  0  0
 30 35  2  0  0  0  0
 30 31  1  0  0  0  0
 31 32  2  0  0  0  0
 32 33  1  0  0  0  0
 32 37  1  0  0  0  0
 34 38  1  0  0  0  0
 34 33  2  0  0  0  0
 35 34  1  0  0  0  0
 36 31  1  0  0  0  0
 38 39  1  0  0  0  0
 40 38  2  0  0  0  0
M  END
>  <minimizedAffinity>
-5.71533442

$$$$

 OpenBabel03272507493D

 40 43  0  0  0  0  0  0  0  0999 V2000
   39.8110   24.4350   34.0800 N   0  0  0  0  0  0  0  0  0  0  0  0
   40.5090   25.5710   33.5840 C   0  0  0  0  0  0  0  0  0  0  0  0
   39.6900   26.7530   33.2300 C   0  0  0  0  0  0  0  0  0  0  0  0
   38.4010   26.4940   32.5920 C   0  0  0  0  0  0  0  0  0  0  0  0
   37.7360   25.2140   33.1280 C   0  0  0  0  0  0  0  0  0  0  0  0
   38.8040   24.1070   33.1110 C   0  0  0  0  0  0  0  0  0  0  0  0
   41.2700   25.8470   34.3570 H   0  0  0  0  0  0  0  0  0  0  0  0
   41.0910   25.2610   32.6860 H   0  0  0  0  0  0  0  0  0  0  0  0
   39.4550   27.1850   34.2600 H   0  0  0  0  0  0  0  0  0  0  0  0
   40.3050   27.5040   32.7260 H   0  0  0  0  0  0  0  0  0  0  0  0
   38.5450   26.2540   31.5000 H   0  0  0  0  0  0  0  0  0  0  0  0
   37.4300   25.3950   34.1590 H   0  0  0  0  0  0  0  0  0  0  0  0
   36.9170   24.8860   32.4790 H   0  0  0  0  0  0  0  0  0  0  0  0
   39.1730   24.0020   32.0770 H   0  0  0  0  0  0  0  0  0  0  0  0
   38.2550   23.1820   33.3780 H   0  0  0  0  0  0  0  0  0  0  0  0
   36.9400   27.7940   34.0730 C   0  0  0  0  0  0  0  0  0  0  0  0
   37.3870   27.5610   32.7830 C   0  0  0  0  0  0  0  0  0  0  0  0
   36.9310   28.2380   31.6840 C   0  0  0  0  0  0  0  0  0  0  0  0
   35.9580   29.2200   31.8830 C   0  0  0  0  0  0  0  0  0  0  0  0
   35.5140   29.4500   33.1600 C   0  0  0  0  0  0  0  0  0  0  0  0
   35.9750   28.7630   34.2800 C   0  0  0  0  0  0  0  0  0  0  0  0
   34.5410   30.4680   33.1500 O   0  0  0  0  0  0  0  0  0  0  0  0
   34.6680   31.0700   31.8710 C   0  0  0  0  0  0  0  0  0  0  0  0
   35.2660   30.0950   31.0530 O   0  0  0  0  0  0  0  0  0  0  0  0
   37.2300   27.3370   35.0080 H   0  0  0  0  0  0  0  0  0  0  0  0
   37.3010   28.0300   30.7020 H   0  0  0  0  0  0  0  0  0  0  0  0
   35.5670   29.0080   35.2740 H   0  0  0  0  0  0  0  0  0  0  0  0
   33.6580   31.2830   31.4270 H   0  0  0  0  0  0  0  0  0  0  0  0
   35.2160   32.0320   31.9100 H   0  0  0  0  0  0  0  0  0  0  0  0
   40.0380   23.7270   35.3040 C   0  0  0  0  0  0  0  0  0  0  0  0
   41.1220   22.8970   35.5720 C   0  0  0  0  0  0  0  0  0  0  0  0
   41.1640   22.2930   36.8320 C   0  0  0  0  0  0  0  0  0  0  0  0
   40.1640   22.5420   37.7130 N   0  0  0  0  0  0  0  0  0  0  0  0
   39.1300   23.3500   37.4220 C   0  0  0  0  0  0  0  0  0  0  0  0
   39.0750   23.9330   36.2240 N   0  0  0  0  0  0  0  0  0  0  0  0
   41.8230   22.8020   34.7810 H   0  0  0  0  0  0  0  0  0  0  0  0
   42.0050   21.6630   37.0120 H   0  0  0  0  0  0  0  0  0  0  0  0
   38.0790   23.5840   38.4090 C   0  0  0  0  0  0  0  0  0  0  0  0
   37.4240   22.7960   38.7020 H   0  0  0  0  0  0  0  0  0  0  0  0
   37.9570   24.7470   38.9150 O   0  0  0  0  0  0  0  0  0  0  0  0
  1 30  1  0  0  0  0
  2  1  1  0  0  0  0
  2  7  1  0  0  0  0
  3  2  1  0  0  0  0
  3  9  1  0  0  0  0
  4 17  1  0  0  0  0
  4  5  1  0  0  0  0
  4  3  1  0  0  0  0
  5 12  1  0  0  0  0
  6  5  1  0  0  0  0
  6 15  1  0  0  0  0
  6  1  1  0  0  0  0
  8  2  1  0  0  0  0
 10  3  1  0  0  0  0
 11  4  1  0  0  0  0
 13  5  1  0  0  0  0
 14  6  1  0  0  0  0
 16 21  1  0  0  0  0
 16 25  1  0  0  0  0
 17 16  2  0  0  0  0
 18 19  2  0  0  0  0
 18 17  1  0  0  0  0
 19 20  1  0  0  0  0
 20 21  2  0  0  0  0
 21 27  1  0  0  0  0
 22 20  1  0  0  0  0
 23 29  1  0  0  0  0
 23 22  1  0  0  0  0
 24 23  1  0  0  0  0
 24 19  1  0  0  0  0
 26 18  1  0  0  0  0
 28 23  1  0  0  0  0
 30 31  2  0  0  0  0
 30 35  1  0  0  0  0
 31 32  1  0  0  0  0
 32 37  1  0  0  0  0
 32 33  2  0  0  0  0
 34 33  1  0  0  0  0
 34 38  1  0  0  0  0
 35 34  2  0  0  0  0
 36 31  1  0  0  0  0
 38 39  1  0  0  0  0
 38 40  2  0  0  0  0
M  END
>  <minimizedAffinity>
-5.59446669

$$$$

 OpenBabel03272507493D

 40 43  0  0  0  0  0  0  0  0999 V2000
   34.8240   29.1810   33.4020 N   0  0  0  0  0  0  0  0  0  0  0  0
   35.3240   28.6340   32.1880 C   0  0  0  0  0  0  0  0  0  0  0  0
   36.1950   27.4410   32.3050 C   0  0  0  0  0  0  0  0  0  0  0  0
   37.1340   27.4180   33.4240 C   0  0  0  0  0  0  0  0  0  0  0  0
   36.5520   28.0880   34.6830 C   0  0  0  0  0  0  0  0  0  0  0  0
   35.9590   29.4380   34.2440 C   0  0  0  0  0  0  0  0  0  0  0  0
   34.4370   28.4020   31.5470 H   0  0  0  0  0  0  0  0  0  0  0  0
   35.8840   29.4310   31.6490 H   0  0  0  0  0  0  0  0  0  0  0  0
   35.4300   26.6200   32.5120 H   0  0  0  0  0  0  0  0  0  0  0  0
   36.6370   27.1980   31.3350 H   0  0  0  0  0  0  0  0  0  0  0  0
   38.0300   28.0630   33.1980 H   0  0  0  0  0  0  0  0  0  0  0  0
   35.7500   27.4560   35.0650 H   0  0  0  0  0  0  0  0  0  0  0  0
   37.3330   28.3010   35.4210 H   0  0  0  0  0  0  0  0  0  0  0  0
   36.7620   30.0290   33.7710 H   0  0  0  0  0  0  0  0  0  0  0  0
   35.6710   29.9400   35.1890 H   0  0  0  0  0  0  0  0  0  0  0  0
   37.5190   25.0480   32.9230 C   0  0  0  0  0  0  0  0  0  0  0  0
   37.5400   26.0610   33.8670 C   0  0  0  0  0  0  0  0  0  0  0  0
   37.8900   25.8760   35.1770 C   0  0  0  0  0  0  0  0  0  0  0  0
   38.2440   24.5860   35.5800 C   0  0  0  0  0  0  0  0  0  0  0  0
   38.2210   23.5820   34.6460 C   0  0  0  0  0  0  0  0  0  0  0  0
   37.8660   23.7670   33.3120 C   0  0  0  0  0  0  0  0  0  0  0  0
   38.6070   22.3660   35.2430 O   0  0  0  0  0  0  0  0  0  0  0  0
   39.1860   22.7460   36.4820 C   0  0  0  0  0  0  0  0  0  0  0  0
   38.6460   24.0100   36.7790 O   0  0  0  0  0  0  0  0  0  0  0  0
   37.2750   25.0760   31.8720 H   0  0  0  0  0  0  0  0  0  0  0  0
   37.8960   26.6850   35.8780 H   0  0  0  0  0  0  0  0  0  0  0  0
   37.8730   22.9070   32.6240 H   0  0  0  0  0  0  0  0  0  0  0  0
   38.8570   22.0560   37.3070 H   0  0  0  0  0  0  0  0  0  0  0  0
   40.2930   22.7170   36.4560 H   0  0  0  0  0  0  0  0  0  0  0  0
   33.4620   29.4430   33.7560 C   0  0  0  0  0  0  0  0  0  0  0  0
   32.3770   29.4180   32.8840 C   0  0  0  0  0  0  0  0  0  0  0  0
   31.1200   29.7010   33.4240 C   0  0  0  0  0  0  0  0  0  0  0  0
   31.0220   29.9820   34.7480 N   0  0  0  0  0  0  0  0  0  0  0  0
   32.0900   29.9960   35.5640 C   0  0  0  0  0  0  0  0  0  0  0  0
   33.2970   29.7290   35.0630 N   0  0  0  0  0  0  0  0  0  0  0  0
   32.6150   29.1830   31.8770 H   0  0  0  0  0  0  0  0  0  0  0  0
   30.3070   29.6760   32.7350 H   0  0  0  0  0  0  0  0  0  0  0  0
   31.9280   30.3040   36.9830 C   0  0  0  0  0  0  0  0  0  0  0  0
   31.1400   29.8620   37.5470 H   0  0  0  0  0  0  0  0  0  0  0  0
   32.7450   31.1120   37.5340 O   0  0  0  0  0  0  0  0  0  0  0  0
  1 30  1  0  0  0  0
  1  6  1  0  0  0  0
  2  3  1  0  0  0  0
  2  1  1  0  0  0  0
  3  9  1  0  0  0  0
  3  4  1  0  0  0  0
  4 17  1  0  0  0  0
  4  5  1  0  0  0  0
  5 12  1  0  0  0  0
  5 13  1  0  0  0  0
  6  5  1  0  0  0  0
  6 15  1  0  0  0  0
  7  2  1  0  0  0  0
  8  2  1  0  0  0  0
 10  3  1  0  0  0  0
 11  4  1  0  0  0  0
 14  6  1  0  0  0  0
 16 21  2  0  0  0  0
 16 17  1  0  0  0  0
 17 18  2  0  0  0  0
 18 19  1  0  0  0  0
 18 26  1  0  0  0  0
 19 24  1  0  0  0  0
 20 22  1  0  0  0  0
 20 19  2  0  0  0  0
 21 20  1  0  0  0  0
 22 23  1  0  0  0  0
 23 24  1  0  0  0  0
 23 28  1  0  0  0  0
 25 16  1  0  0  0  0
 27 21  1  0  0  0  0
 29 23  1  0  0  0  0
 30 35  1  0  0  0  0
 31 32  1  0  0  0  0
 31 30  2  0  0  0  0
 32 33  2  0  0  0  0
 33 34  1  0  0  0  0
 34 38  1  0  0  0  0
 35 34  2  0  0  0  0
 36 31  1  0  0  0  0
 37 32  1  0  0  0  0
 38 40  2  0  0  0  0
 38 39  1  0  0  0  0
M  END
>  <minimizedAffinity>
-5.42218208

$$$$

 OpenBabel03272507493D

 40 43  0  0  0  0  0  0  0  0999 V2000
   36.9690   26.1110   32.1490 N   0  0  0  0  0  0  0  0  0  0  0  0
   37.7820   26.7700   33.1130 C   0  0  0  0  0  0  0  0  0  0  0  0
   37.1640   27.9030   33.8410 C   0  0  0  0  0  0  0  0  0  0  0  0
   36.2860   28.7810   33.0700 C   0  0  0  0  0  0  0  0  0  0  0  0
   35.4900   28.0110   32.0010 C   0  0  0  0  0  0  0  0  0  0  0  0
   36.4900   27.1200   31.2460 C   0  0  0  0  0  0  0  0  0  0  0  0
   38.1250   25.9890   33.8370 H   0  0  0  0  0  0  0  0  0  0  0  0
   38.7030   27.1350   32.6050 H   0  0  0  0  0  0  0  0  0  0  0  0
   36.4950   27.3570   34.5870 H   0  0  0  0  0  0  0  0  0  0  0  0
   37.9150   28.4230   34.4410 H   0  0  0  0  0  0  0  0  0  0  0  0
   36.8960   29.4980   32.4500 H   0  0  0  0  0  0  0  0  0  0  0  0
   34.7630   27.3760   32.5090 H   0  0  0  0  0  0  0  0  0  0  0  0
   35.0430   28.6910   31.2680 H   0  0  0  0  0  0  0  0  0  0  0  0
   37.2740   27.7680   30.8190 H   0  0  0  0  0  0  0  0  0  0  0  0
   35.9060   26.6860   30.4100 H   0  0  0  0  0  0  0  0  0  0  0  0
   33.9350   29.3380   33.4980 C   0  0  0  0  0  0  0  0  0  0  0  0
   35.2600   29.4940   33.8710 C   0  0  0  0  0  0  0  0  0  0  0  0
   35.6710   30.2800   34.9140 C   0  0  0  0  0  0  0  0  0  0  0  0
   34.6920   30.9630   35.6390 C   0  0  0  0  0  0  0  0  0  0  0  0
   33.3800   30.8100   35.2690 C   0  0  0  0  0  0  0  0  0  0  0  0
   32.9590   30.0100   34.2090 C   0  0  0  0  0  0  0  0  0  0  0  0
   32.5540   31.5730   36.1150 O   0  0  0  0  0  0  0  0  0  0  0  0
   33.3870   31.9170   37.2120 C   0  0  0  0  0  0  0  0  0  0  0  0
   34.7040   31.8280   36.7270 O   0  0  0  0  0  0  0  0  0  0  0  0
   33.4950   28.7430   32.7120 H   0  0  0  0  0  0  0  0  0  0  0  0
   36.7050   30.3760   35.1730 H   0  0  0  0  0  0  0  0  0  0  0  0
   31.8840   29.9400   33.9760 H   0  0  0  0  0  0  0  0  0  0  0  0
   33.2290   32.9880   37.5140 H   0  0  0  0  0  0  0  0  0  0  0  0
   33.1860   31.2930   38.1050 H   0  0  0  0  0  0  0  0  0  0  0  0
   36.6640   24.7150   32.0610 C   0  0  0  0  0  0  0  0  0  0  0  0
   35.7000   24.1450   31.2340 C   0  0  0  0  0  0  0  0  0  0  0  0
   35.5530   22.7570   31.2930 C   0  0  0  0  0  0  0  0  0  0  0  0
   36.3420   22.0480   32.1380 N   0  0  0  0  0  0  0  0  0  0  0  0
   37.2650   22.6290   32.9230 C   0  0  0  0  0  0  0  0  0  0  0  0
   37.4170   23.9540   32.8790 N   0  0  0  0  0  0  0  0  0  0  0  0
   35.1620   24.8320   30.6310 H   0  0  0  0  0  0  0  0  0  0  0  0
   34.8080   22.3460   30.6500 H   0  0  0  0  0  0  0  0  0  0  0  0
   38.0890   21.8170   33.8150 C   0  0  0  0  0  0  0  0  0  0  0  0
   38.5390   20.9160   33.4670 H   0  0  0  0  0  0  0  0  0  0  0  0
   38.2610   22.2050   35.0160 O   0  0  0  0  0  0  0  0  0  0  0  0
  1  2  1  0  0  0  0
  2  7  1  0  0  0  0
  2  3  1  0  0  0  0
  3 10  1  0  0  0  0
  3  9  1  0  0  0  0
  4  3  1  0  0  0  0
  4 17  1  0  0  0  0
  5 12  1  0  0  0  0
  5  4  1  0  0  0  0
  6  5  1  0  0  0  0
  6  1  1  0  0  0  0
  8  2  1  0  0  0  0
 11  4  1  0  0  0  0
 13  5  1  0  0  0  0
 14  6  1  0  0  0  0
 15  6  1  0  0  0  0
 16 17  2  0  0  0  0
 16 21  1  0  0  0  0
 17 18  1  0  0  0  0
 18 26  1  0  0  0  0
 18 19  2  0  0  0  0
 19 24  1  0  0  0  0
 20 19  1  0  0  0  0
 20 22  1  0  0  0  0
 21 20  2  0  0  0  0
 22 23  1  0  0  0  0
 23 28  1  0  0  0  0
 23 29  1  0  0  0  0
 24 23  1  0  0  0  0
 25 16  1  0  0  0  0
 27 21  1  0  0  0  0
 30  1  1  0  0  0  0
 30 35  1  0  0  0  0
 31 32  1  0  0  0  0
 31 30  2  0  0  0  0
 32 33  2  0  0  0  0
 33 34  1  0  0  0  0
 34 38  1  0  0  0  0
 35 34  2  0  0  0  0
 36 31  1  0  0  0  0
 37 32  1  0  0  0  0
 38 40  2  0  0  0  0
 39 38  1  0  0  0  0
M  END
>  <minimizedAffinity>
-5.33277321

$$$$

 OpenBabel03272507493D

 40 43  0  0  0  0  0  0  0  0999 V2000
   34.0660   29.8210   33.0450 N   0  0  0  0  0  0  0  0  0  0  0  0
   34.7190   29.1220   31.9920 C   0  0  0  0  0  0  0  0  0  0  0  0
   35.7770   28.1630   32.3860 C   0  0  0  0  0  0  0  0  0  0  0  0
   36.6430   28.5570   33.4960 C   0  0  0  0  0  0  0  0  0  0  0  0
   35.8850   29.3680   34.5630 C   0  0  0  0  0  0  0  0  0  0  0  0
   35.0910   30.4570   33.8230 C   0  0  0  0  0  0  0  0  0  0  0  0
   33.9230   28.5970   31.4080 H   0  0  0  0  0  0  0  0  0  0  0  0
   35.1600   29.8700   31.2950 H   0  0  0  0  0  0  0  0  0  0  0  0
   35.1570   27.2810   32.7630 H   0  0  0  0  0  0  0  0  0  0  0  0
   36.3080   27.7980   31.5030 H   0  0  0  0  0  0  0  0  0  0  0  0
   37.4240   29.2890   33.1430 H   0  0  0  0  0  0  0  0  0  0  0  0
   35.1860   28.6990   35.0660 H   0  0  0  0  0  0  0  0  0  0  0  0
   36.5760   29.8760   35.2450 H   0  0  0  0  0  0  0  0  0  0  0  0
   35.8020   31.0670   33.2410 H   0  0  0  0  0  0  0  0  0  0  0  0
   34.6680   31.0930   34.6270 H   0  0  0  0  0  0  0  0  0  0  0  0
   37.8190   27.7040   35.4730 C   0  0  0  0  0  0  0  0  0  0  0  0
   37.2560   27.4270   34.2380 C   0  0  0  0  0  0  0  0  0  0  0  0
   37.2540   26.1860   33.6620 C   0  0  0  0  0  0  0  0  0  0  0  0
   37.8590   25.1420   34.3650 C   0  0  0  0  0  0  0  0  0  0  0  0
   38.4190   25.4150   35.5870 C   0  0  0  0  0  0  0  0  0  0  0  0
   38.4210   26.6770   36.1760 C   0  0  0  0  0  0  0  0  0  0  0  0
   38.9730   24.2420   36.1320 O   0  0  0  0  0  0  0  0  0  0  0  0
   38.4270   23.1920   35.3480 C   0  0  0  0  0  0  0  0  0  0  0  0
   38.0570   23.7860   34.1280 O   0  0  0  0  0  0  0  0  0  0  0  0
   37.8700   28.6300   36.0270 H   0  0  0  0  0  0  0  0  0  0  0  0
   36.8080   26.0100   32.7050 H   0  0  0  0  0  0  0  0  0  0  0  0
   38.8930   26.8150   37.1630 H   0  0  0  0  0  0  0  0  0  0  0  0
   39.2100   22.4240   35.1040 H   0  0  0  0  0  0  0  0  0  0  0  0
   37.6030   22.6640   35.8660 H   0  0  0  0  0  0  0  0  0  0  0  0
   32.6610   29.9000   33.3110 C   0  0  0  0  0  0  0  0  0  0  0  0
   31.7670   30.7750   32.7020 C   0  0  0  0  0  0  0  0  0  0  0  0
   30.4290   30.6950   33.0990 C   0  0  0  0  0  0  0  0  0  0  0  0
   30.0770   29.7870   34.0420 N   0  0  0  0  0  0  0  0  0  0  0  0
   30.9660   28.9550   34.6120 C   0  0  0  0  0  0  0  0  0  0  0  0
   32.2470   29.0180   34.2430 N   0  0  0  0  0  0  0  0  0  0  0  0
   32.1950   31.4270   31.9830 H   0  0  0  0  0  0  0  0  0  0  0  0
   29.7660   31.3770   32.6170 H   0  0  0  0  0  0  0  0  0  0  0  0
   30.5320   27.9950   35.6230 C   0  0  0  0  0  0  0  0  0  0  0  0
   29.5110   27.6990   35.6870 H   0  0  0  0  0  0  0  0  0  0  0  0
   31.3960   27.5160   36.4280 O   0  0  0  0  0  0  0  0  0  0  0  0
  1 30  1  0  0  0  0
  1  6  1  0  0  0  0
  2  3  1  0  0  0  0
  2  1  1  0  0  0  0
  3  9  1  0  0  0  0
  3  4  1  0  0  0  0
  4 17  1  0  0  0  0
  4  5  1  0  0  0  0
  5 12  1  0  0  0  0
  5 13  1  0  0  0  0
  6  5  1  0  0  0  0
  6 15  1  0  0  0  0
  7  2  1  0  0  0  0
  8  2  1  0  0  0  0
 10  3  1  0  0  0  0
 11  4  1  0  0  0  0
 14  6  1  0  0  0  0
 16 25  1  0  0  0  0
 16 21  1  0  0  0  0
 17 16  2  0  0  0  0
 18 17  1  0  0  0  0
 18 19  2  0  0  0  0
 19 20  1  0  0  0  0
 20 22  1  0  0  0  0
 20 21  2  0  0  0  0
 21 27  1  0  0  0  0
 23 29  1  0  0  0  0
 23 22  1  0  0  0  0
 24 19  1  0  0  0  0
 24 23  1  0  0  0  0
 26 18  1  0  0  0  0
 28 23  1  0  0  0  0
 30 35  1  0  0  0  0
 31 32  1  0  0  0  0
 31 30  2  0  0  0  0
 32 33  2  0  0  0  0
 33 34  1  0  0  0  0
 34 38  1  0  0  0  0
 35 34  2  0  0  0  0
 36 31  1  0  0  0  0
 37 32  1  0  0  0  0
 38 39  1  0  0  0  0
 38 40  2  0  0  0  0
M  END
>  <minimizedAffinity>
-5.31262398

$$$$

 OpenBabel03272507493D

 40 43  0  0  0  0  0  0  0  0999 V2000
   37.9560   26.8120   33.1630 N   0  0  0  0  0  0  0  0  0  0  0  0
   37.9410   27.3220   34.4910 C   0  0  0  0  0  0  0  0  0  0  0  0
   38.3950   26.4040   35.5610 C   0  0  0  0  0  0  0  0  0  0  0  0
   38.0060   25.0010   35.4340 C   0  0  0  0  0  0  0  0  0  0  0  0
   37.9770   24.5370   33.9660 C   0  0  0  0  0  0  0  0  0  0  0  0
   37.1930   25.5960   33.1730 C   0  0  0  0  0  0  0  0  0  0  0  0
   38.5660   28.2500   34.4890 H   0  0  0  0  0  0  0  0  0  0  0  0
   36.9060   27.6570   34.7260 H   0  0  0  0  0  0  0  0  0  0  0  0
   39.5280   26.4350   35.4220 H   0  0  0  0  0  0  0  0  0  0  0  0
   38.2040   26.8430   36.5430 H   0  0  0  0  0  0  0  0  0  0  0  0
   36.9340   24.8610   35.7550 H   0  0  0  0  0  0  0  0  0  0  0  0
   39.0030   24.5070   33.5980 H   0  0  0  0  0  0  0  0  0  0  0  0
   37.4430   23.5870   33.8570 H   0  0  0  0  0  0  0  0  0  0  0  0
   36.1870   25.6840   33.6190 H   0  0  0  0  0  0  0  0  0  0  0  0
   37.0840   25.1640   32.1580 H   0  0  0  0  0  0  0  0  0  0  0  0
   38.6600   23.7760   37.4570 C   0  0  0  0  0  0  0  0  0  0  0  0
   38.9070   24.0410   36.1200 C   0  0  0  0  0  0  0  0  0  0  0  0
   39.9400   23.4900   35.4120 C   0  0  0  0  0  0  0  0  0  0  0  0
   40.7920   22.6100   36.0830 C   0  0  0  0  0  0  0  0  0  0  0  0
   40.5490   22.3480   37.4070 C   0  0  0  0  0  0  0  0  0  0  0  0
   39.4980   22.9070   38.1310 C   0  0  0  0  0  0  0  0  0  0  0  0
   41.5100   21.4450   37.8990 O   0  0  0  0  0  0  0  0  0  0  0  0
   42.1300   20.9160   36.7380 C   0  0  0  0  0  0  0  0  0  0  0  0
   41.9140   21.8700   35.7270 O   0  0  0  0  0  0  0  0  0  0  0  0
   37.8780   24.1380   38.1100 H   0  0  0  0  0  0  0  0  0  0  0  0
   40.0990   23.7190   34.3790 H   0  0  0  0  0  0  0  0  0  0  0  0
   39.3700   22.6450   39.1940 H   0  0  0  0  0  0  0  0  0  0  0  0
   43.2430   20.8430   36.8750 H   0  0  0  0  0  0  0  0  0  0  0  0
   41.7650   19.8990   36.4910 H   0  0  0  0  0  0  0  0  0  0  0  0
   38.5960   27.3720   32.0110 C   0  0  0  0  0  0  0  0  0  0  0  0
   39.9150   27.1530   31.6270 C   0  0  0  0  0  0  0  0  0  0  0  0
   40.3540   27.7930   30.4640 C   0  0  0  0  0  0  0  0  0  0  0  0
   39.4870   28.5820   29.7820 N   0  0  0  0  0  0  0  0  0  0  0  0
   38.2180   28.7730   30.1800 C   0  0  0  0  0  0  0  0  0  0  0  0
   37.7840   28.1700   31.2870 N   0  0  0  0  0  0  0  0  0  0  0  0
   40.4680   26.5100   32.2640 H   0  0  0  0  0  0  0  0  0  0  0  0
   41.3680   27.6070   30.1930 H   0  0  0  0  0  0  0  0  0  0  0  0
   37.3260   29.6340   29.4070 C   0  0  0  0  0  0  0  0  0  0  0  0
   37.4540   29.7420   28.3550 H   0  0  0  0  0  0  0  0  0  0  0  0
   36.3920   30.2550   30.0120 O   0  0  0  0  0  0  0  0  0  0  0  0
  1  6  1  0  0  0  0
  1  2  1  0  0  0  0
  2  8  1  0  0  0  0
  2  3  1  0  0  0  0
  3 10  1  0  0  0  0
  4  3  1  0  0  0  0
  4 11  1  0  0  0  0
  4 17  1  0  0  0  0
  5  4  1  0  0  0  0
  6 14  1  0  0  0  0
  6  5  1  0  0  0  0
  7  2  1  0  0  0  0
  9  3  1  0  0  0  0
 12  5  1  0  0  0  0
 13  5  1  0  0  0  0
 15  6  1  0  0  0  0
 16 25  1  0  0  0  0
 16 21  1  0  0  0  0
 17 16  2  0  0  0  0
 18 19  2  0  0  0  0
 18 17  1  0  0  0  0
 19 20  1  0  0  0  0
 20 22  1  0  0  0  0
 20 21  2  0  0  0  0
 21 27  1  0  0  0  0
 23 28  1  0  0  0  0
 23 22  1  0  0  0  0
 24 19  1  0  0  0  0
 24 23  1  0  0  0  0
 26 18  1  0  0  0  0
 29 23  1  0  0  0  0
 30  1  1  0  0  0  0
 31 30  1  0  0  0  0
 31 36  1  0  0  0  0
 32 31  2  0  0  0  0
 33 34  2  0  0  0  0
 33 32  1  0  0  0  0
 34 35  1  0  0  0  0
 35 30  2  0  0  0  0
 37 32  1  0  0  0  0
 38 40  2  0  0  0  0
 38 34  1  0  0  0  0
 39 38  1  0  0  0  0
M  END
>  <minimizedAffinity>
-5.22297525

$$$$

 OpenBabel03272507493D

 40 43  0  0  0  0  0  0  0  0999 V2000
   36.1200   28.1650   32.5060 N   0  0  0  0  0  0  0  0  0  0  0  0
   35.9730   27.6020   31.2080 C   0  0  0  0  0  0  0  0  0  0  0  0
   36.1200   26.1320   31.1000 C   0  0  0  0  0  0  0  0  0  0  0  0
   37.1500   25.5100   31.9300 C   0  0  0  0  0  0  0  0  0  0  0  0
   37.3010   26.2140   33.2910 C   0  0  0  0  0  0  0  0  0  0  0  0
   37.3880   27.7240   33.0120 C   0  0  0  0  0  0  0  0  0  0  0  0
   34.9690   27.9170   30.8290 H   0  0  0  0  0  0  0  0  0  0  0  0
   36.7150   28.0830   30.5310 H   0  0  0  0  0  0  0  0  0  0  0  0
   35.1180   25.7720   31.5120 H   0  0  0  0  0  0  0  0  0  0  0  0
   36.1360   25.8280   30.0500 H   0  0  0  0  0  0  0  0  0  0  0  0
   38.1670   25.6560   31.4670 H   0  0  0  0  0  0  0  0  0  0  0  0
   36.4050   26.0140   33.8790 H   0  0  0  0  0  0  0  0  0  0  0  0
   38.2300   25.9210   33.7920 H   0  0  0  0  0  0  0  0  0  0  0  0
   38.2430   27.9000   32.3370 H   0  0  0  0  0  0  0  0  0  0  0  0
   37.6250   28.1780   33.9950 H   0  0  0  0  0  0  0  0  0  0  0  0
   37.6820   23.5170   33.2570 C   0  0  0  0  0  0  0  0  0  0  0  0
   36.9050   24.0850   32.2620 C   0  0  0  0  0  0  0  0  0  0  0  0
   35.9490   23.4030   31.5590 C   0  0  0  0  0  0  0  0  0  0  0  0
   35.7510   22.0550   31.8680 C   0  0  0  0  0  0  0  0  0  0  0  0
   36.5220   21.4920   32.8530 C   0  0  0  0  0  0  0  0  0  0  0  0
   37.4950   22.1830   33.5710 C   0  0  0  0  0  0  0  0  0  0  0  0
   36.1750   20.1370   33.0150 O   0  0  0  0  0  0  0  0  0  0  0  0
   34.9400   20.0010   32.3290 C   0  0  0  0  0  0  0  0  0  0  0  0
   34.9070   21.0550   31.3980 O   0  0  0  0  0  0  0  0  0  0  0  0
   38.4490   23.9530   33.8810 H   0  0  0  0  0  0  0  0  0  0  0  0
   35.3660   23.8760   30.7960 H   0  0  0  0  0  0  0  0  0  0  0  0
   38.0730   21.6570   34.3480 H   0  0  0  0  0  0  0  0  0  0  0  0
   34.9140   19.0480   31.7340 H   0  0  0  0  0  0  0  0  0  0  0  0
   34.0740   19.9760   33.0200 H   0  0  0  0  0  0  0  0  0  0  0  0
   35.2030   29.0140   33.2070 C   0  0  0  0  0  0  0  0  0  0  0  0
   33.8330   29.0910   32.9810 C   0  0  0  0  0  0  0  0  0  0  0  0
   33.1070   29.9840   33.7740 C   0  0  0  0  0  0  0  0  0  0  0  0
   33.7640   30.7180   34.7060 N   0  0  0  0  0  0  0  0  0  0  0  0
   35.0900   30.6190   34.9000 C   0  0  0  0  0  0  0  0  0  0  0  0
   35.7970   29.7720   34.1500 N   0  0  0  0  0  0  0  0  0  0  0  0
   33.4660   28.4530   32.2160 H   0  0  0  0  0  0  0  0  0  0  0  0
   32.0590   30.0230   33.5800 H   0  0  0  0  0  0  0  0  0  0  0  0
   35.7480   31.4340   35.9180 C   0  0  0  0  0  0  0  0  0  0  0  0
   36.7810   31.6790   35.8330 H   0  0  0  0  0  0  0  0  0  0  0  0
   35.0640   31.8470   36.9110 O   0  0  0  0  0  0  0  0  0  0  0  0
  1  6  1  0  0  0  0
  1 30  1  0  0  0  0
  2  1  1  0  0  0  0
  3  2  1  0  0  0  0
  3  9  1  0  0  0  0
  3  4  1  0  0  0  0
  4 17  1  0  0  0  0
  4  5  1  0  0  0  0
  5 13  1  0  0  0  0
  5 12  1  0  0  0  0
  6  5  1  0  0  0  0
  6 15  1  0  0  0  0
  7  2  1  0  0  0  0
  8  2  1  0  0  0  0
 10  3  1  0  0  0  0
 11  4  1  0  0  0  0
 14  6  1  0  0  0  0
 16 21  1  0  0  0  0
 16 25  1  0  0  0  0
 17 16  2  0  0  0  0
 18 19  2  0  0  0  0
 18 17  1  0  0  0  0
 19 20  1  0  0  0  0
 20 22  1  0  0  0  0
 20 21  2  0  0  0  0
 21 27  1  0  0  0  0
 23 22  1  0  0  0  0
 23 29  1  0  0  0  0
 24 19  1  0  0  0  0
 24 23  1  0  0  0  0
 26 18  1  0  0  0  0
 28 23  1  0  0  0  0
 30 35  1  0  0  0  0
 31 30  2  0  0  0  0
 31 32  1  0  0  0  0
 32 33  2  0  0  0  0
 33 34  1  0  0  0  0
 34 38  1  0  0  0  0
 35 34  2  0  0  0  0
 36 31  1  0  0  0  0
 37 32  1  0  0  0  0
 38 40  2  0  0  0  0
 39 38  1  0  0  0  0
M  END
>  <minimizedAffinity>
-5.2170372

$$$$

 OpenBabel03272507493D

 40 43  0  0  0  0  0  0  0  0999 V2000
   38.1890   25.2320   34.3050 N   0  0  0  0  0  0  0  0  0  0  0  0
   37.4320   24.7160   33.2160 C   0  0  0  0  0  0  0  0  0  0  0  0
   36.9940   25.6900   32.1900 C   0  0  0  0  0  0  0  0  0  0  0  0
   36.5690   27.0040   32.6690 C   0  0  0  0  0  0  0  0  0  0  0  0
   37.3850   27.4680   33.8900 C   0  0  0  0  0  0  0  0  0  0  0  0
   37.4170   26.2950   34.8840 C   0  0  0  0  0  0  0  0  0  0  0  0
   38.0510   23.9120   32.7440 H   0  0  0  0  0  0  0  0  0  0  0  0
   36.5330   24.2030   33.6260 H   0  0  0  0  0  0  0  0  0  0  0  0
   37.9610   25.8590   31.6080 H   0  0  0  0  0  0  0  0  0  0  0  0
   36.3020   25.2170   31.4880 H   0  0  0  0  0  0  0  0  0  0  0  0
   35.5220   26.9520   33.0820 H   0  0  0  0  0  0  0  0  0  0  0  0
   38.4020   27.6800   33.5590 H   0  0  0  0  0  0  0  0  0  0  0  0
   36.9030   28.3100   34.3970 H   0  0  0  0  0  0  0  0  0  0  0  0
   36.3770   26.0280   35.1350 H   0  0  0  0  0  0  0  0  0  0  0  0
   37.8970   26.7090   35.7930 H   0  0  0  0  0  0  0  0  0  0  0  0
   36.2620   29.3590   32.0520 C   0  0  0  0  0  0  0  0  0  0  0  0
   36.7070   28.1010   31.6790 C   0  0  0  0  0  0  0  0  0  0  0  0
   37.2390   27.8130   30.4510 C   0  0  0  0  0  0  0  0  0  0  0  0
   37.3350   28.8540   29.5240 C   0  0  0  0  0  0  0  0  0  0  0  0
   36.8940   30.0990   29.8920 C   0  0  0  0  0  0  0  0  0  0  0  0
   36.3530   30.3950   31.1410 C   0  0  0  0  0  0  0  0  0  0  0  0
   37.0750   31.0030   28.8280 O   0  0  0  0  0  0  0  0  0  0  0  0
   37.9500   30.3320   27.9350 C   0  0  0  0  0  0  0  0  0  0  0  0
   37.8010   28.9630   28.2180 O   0  0  0  0  0  0  0  0  0  0  0  0
   35.8410   29.7040   32.9840 H   0  0  0  0  0  0  0  0  0  0  0  0
   37.5720   26.8280   30.1990 H   0  0  0  0  0  0  0  0  0  0  0  0
   36.0210   31.4230   31.3590 H   0  0  0  0  0  0  0  0  0  0  0  0
   37.6230   30.4750   26.8690 H   0  0  0  0  0  0  0  0  0  0  0  0
   38.9920   30.7020   28.0070 H   0  0  0  0  0  0  0  0  0  0  0  0
   39.4740   24.8010   34.7670 C   0  0  0  0  0  0  0  0  0  0  0  0
   40.7010   25.2770   34.3140 C   0  0  0  0  0  0  0  0  0  0  0  0
   41.8490   24.7290   34.8940 C   0  0  0  0  0  0  0  0  0  0  0  0
   41.7110   23.7770   35.8490 N   0  0  0  0  0  0  0  0  0  0  0  0
   40.5100   23.3390   36.2650 C   0  0  0  0  0  0  0  0  0  0  0  0
   39.4050   23.8520   35.7220 N   0  0  0  0  0  0  0  0  0  0  0  0
   40.6440   26.0230   33.5620 H   0  0  0  0  0  0  0  0  0  0  0  0
   42.7750   25.1120   34.5290 H   0  0  0  0  0  0  0  0  0  0  0  0
   40.4200   22.3110   37.2990 C   0  0  0  0  0  0  0  0  0  0  0  0
   39.5420   22.2190   37.8970 H   0  0  0  0  0  0  0  0  0  0  0  0
   41.4070   21.5250   37.4730 O   0  0  0  0  0  0  0  0  0  0  0  0
  1 30  1  0  0  0  0
  1  6  1  0  0  0  0
  2  8  1  0  0  0  0
  2  1  1  0  0  0  0
  3  4  1  0  0  0  0
  3  2  1  0  0  0  0
  4 11  1  0  0  0  0
  4  5  1  0  0  0  0
  5 13  1  0  0  0  0
  5  6  1  0  0  0  0
  6 14  1  0  0  0  0
  6 15  1  0  0  0  0
  7  2  1  0  0  0  0
  9  3  1  0  0  0  0
 10  3  1  0  0  0  0
 12  5  1  0  0  0  0
 16 25  1  0  0  0  0
 17 16  1  0  0  0  0
 17  4  1  0  0  0  0
 18 17  2  0  0  0  0
 19 20  2  0  0  0  0
 19 18  1  0  0  0  0
 20 21  1  0  0  0  0
 21 27  1  0  0  0  0
 21 16  2  0  0  0  0
 22 20  1  0  0  0  0
 23 29  1  0  0  0  0
 23 24  1  0  0  0  0
 23 22  1  0  0  0  0
 24 19  1  0  0  0  0
 26 18  1  0  0  0  0
 28 23  1  0  0  0  0
 30 35  1  0  0  0  0
 31 30  2  0  0  0  0
 31 32  1  0  0  0  0
 32 33  2  0  0  0  0
 33 34  1  0  0  0  0
 34 38  1  0  0  0  0
 35 34  2  0  0  0  0
 36 31  1  0  0  0  0
 37 32  1  0  0  0  0
 38 40  2  0  0  0  0
 38 39  1  0  0  0  0
M  END
>  <minimizedAffinity>
-5.18218279

$$$$

 OpenBabel03272507493D

 40 43  0  0  0  0  0  0  0  0999 V2000
   37.1900   27.3500   31.5360 N   0  0  0  0  0  0  0  0  0  0  0  0
   36.8000   26.0230   31.2050 C   0  0  0  0  0  0  0  0  0  0  0  0
   37.0170   24.9880   32.2420 C   0  0  0  0  0  0  0  0  0  0  0  0
   38.2420   25.0930   33.0320 C   0  0  0  0  0  0  0  0  0  0  0  0
   38.6400   26.5570   33.2930 C   0  0  0  0  0  0  0  0  0  0  0  0
   38.5650   27.2930   31.9450 C   0  0  0  0  0  0  0  0  0  0  0  0
   35.7190   26.0630   30.9210 H   0  0  0  0  0  0  0  0  0  0  0  0
   37.3430   25.7180   30.2810 H   0  0  0  0  0  0  0  0  0  0  0  0
   36.1550   25.2010   32.9600 H   0  0  0  0  0  0  0  0  0  0  0  0
   36.8230   23.9930   31.8320 H   0  0  0  0  0  0  0  0  0  0  0  0
   39.1210   24.7030   32.4450 H   0  0  0  0  0  0  0  0  0  0  0  0
   37.9090   26.9920   33.9750 H   0  0  0  0  0  0  0  0  0  0  0  0
   39.6730   26.6340   33.6480 H   0  0  0  0  0  0  0  0  0  0  0  0
   39.2380   26.7820   31.2350 H   0  0  0  0  0  0  0  0  0  0  0  0
   38.9800   28.3010   32.1500 H   0  0  0  0  0  0  0  0  0  0  0  0
   38.1070   23.0880   34.4410 C   0  0  0  0  0  0  0  0  0  0  0  0
   38.1700   24.4710   34.3780 C   0  0  0  0  0  0  0  0  0  0  0  0
   38.1450   25.2860   35.4770 C   0  0  0  0  0  0  0  0  0  0  0  0
   38.0510   24.6820   36.7330 C   0  0  0  0  0  0  0  0  0  0  0  0
   37.9870   23.3140   36.7960 C   0  0  0  0  0  0  0  0  0  0  0  0
   38.0120   22.4810   35.6790 C   0  0  0  0  0  0  0  0  0  0  0  0
   37.8960   22.9020   38.1390 O   0  0  0  0  0  0  0  0  0  0  0  0
   38.2490   24.0530   38.8900 C   0  0  0  0  0  0  0  0  0  0  0  0
   38.0000   25.1470   38.0420 O   0  0  0  0  0  0  0  0  0  0  0  0
   38.1300   22.3500   33.6530 H   0  0  0  0  0  0  0  0  0  0  0  0
   38.1960   26.3520   35.3880 H   0  0  0  0  0  0  0  0  0  0  0  0
   37.9570   21.3890   35.8150 H   0  0  0  0  0  0  0  0  0  0  0  0
   37.5710   24.1760   39.7770 H   0  0  0  0  0  0  0  0  0  0  0  0
   39.2860   24.0020   39.2760 H   0  0  0  0  0  0  0  0  0  0  0  0
   36.3950   28.5400   31.4840 C   0  0  0  0  0  0  0  0  0  0  0  0
   36.6330   29.6420   30.6680 C   0  0  0  0  0  0  0  0  0  0  0  0
   35.7370   30.7100   30.7640 C   0  0  0  0  0  0  0  0  0  0  0  0
   34.7000   30.6220   31.6330 N   0  0  0  0  0  0  0  0  0  0  0  0
   34.4980   29.5430   32.4080 C   0  0  0  0  0  0  0  0  0  0  0  0
   35.3440   28.5140   32.3290 N   0  0  0  0  0  0  0  0  0  0  0  0
   37.4850   29.5610   30.0410 H   0  0  0  0  0  0  0  0  0  0  0  0
   35.9430   31.5410   30.1270 H   0  0  0  0  0  0  0  0  0  0  0  0
   33.3640   29.5000   33.3280 C   0  0  0  0  0  0  0  0  0  0  0  0
   32.3660   29.4580   32.9570 H   0  0  0  0  0  0  0  0  0  0  0  0
   33.5880   29.5130   34.5820 O   0  0  0  0  0  0  0  0  0  0  0  0
  1  6  1  0  0  0  0
  2  1  1  0  0  0  0
  2  3  1  0  0  0  0
  3  9  1  0  0  0  0
  3  4  1  0  0  0  0
  4  5  1  0  0  0  0
  4 17  1  0  0  0  0
  5 13  1  0  0  0  0
  5 12  1  0  0  0  0
  6 15  1  0  0  0  0
  6  5  1  0  0  0  0
  7  2  1  0  0  0  0
  8  2  1  0  0  0  0
 10  3  1  0  0  0  0
 11  4  1  0  0  0  0
 14  6  1  0  0  0  0
 16 21  1  0  0  0  0
 17 16  2  0  0  0  0
 17 18  1  0  0  0  0
 18 19  2  0  0  0  0
 19 20  1  0  0  0  0
 19 24  1  0  0  0  0
 20 22  1  0  0  0  0
 21 27  1  0  0  0  0
 21 20  2  0  0  0  0
 22 23  1  0  0  0  0
 23 29  1  0  0  0  0
 23 28  1  0  0  0  0
 24 23  1  0  0  0  0
 25 16  1  0  0  0  0
 26 18  1  0  0  0  0
 30  1  1  0  0  0  0
 30 35  1  0  0  0  0
 31 32  1  0  0  0  0
 31 30  2  0  0  0  0
 32 33  2  0  0  0  0
 33 34  1  0  0  0  0
 34 38  1  0  0  0  0
 35 34  2  0  0  0  0
 36 31  1  0  0  0  0
 37 32  1  0  0  0  0
 38 40  2  0  0  0  0
 39 38  1  0  0  0  0
M  END
>  <minimizedAffinity>
-5.18108225

$$$$
