
 OpenBabel03272504373D

 24 25  0  0  0  0  0  0  0  0999 V2000
   37.8750   23.6630   33.3680 Cl  0  0  0  0  0  0  0  0  0  0  0  0
   37.7800   25.2710   34.0110 C   0  0  0  0  0  0  0  0  0  0  0  0
   38.3850   25.5690   35.2050 C   0  0  0  0  0  0  0  0  0  0  0  0
   38.3190   26.8350   35.7290 C   0  0  0  0  0  0  0  0  0  0  0  0
   37.6360   27.8050   35.0340 C   0  0  0  0  0  0  0  0  0  0  0  0
   37.0240   27.5050   33.8250 C   0  0  0  0  0  0  0  0  0  0  0  0
   37.0820   26.2250   33.2820 C   0  0  0  0  0  0  0  0  0  0  0  0
   38.8160   27.0350   36.6880 H   0  0  0  0  0  0  0  0  0  0  0  0
   37.6210   28.7780   35.4950 H   0  0  0  0  0  0  0  0  0  0  0  0
   36.4910   28.3100   33.3090 H   0  0  0  0  0  0  0  0  0  0  0  0
   40.9230   23.0980   36.2550 C   0  0  0  0  0  0  0  0  0  0  0  0
   40.3500   22.5960   37.4280 C   0  0  0  0  0  0  0  0  0  0  0  0
   39.1160   23.1150   37.8270 C   0  0  0  0  0  0  0  0  0  0  0  0
   38.5310   24.0730   37.0660 N   0  0  0  0  0  0  0  0  0  0  0  0
   39.1080   24.5380   35.9400 C   0  0  0  0  0  0  0  0  0  0  0  0
   40.2910   24.0480   35.5510 N   0  0  0  0  0  0  0  0  0  0  0  0
   41.8790   22.7160   35.9230 H   0  0  0  0  0  0  0  0  0  0  0  0
   40.8740   21.8420   37.9700 H   0  0  0  0  0  0  0  0  0  0  0  0
   38.5420   22.5890   39.0310 N   0  0  0  0  0  0  0  0  0  0  0  0
   37.6180   22.0920   38.9980 H   0  0  0  0  0  0  0  0  0  0  0  0
   38.9630   22.6470   39.9980 H   0  0  0  0  0  0  0  0  0  0  0  0
   36.4370   25.9140   32.0110 C   0  0  0  0  0  0  0  0  0  0  0  0
   36.7230   24.9940   31.5250 H   0  0  0  0  0  0  0  0  0  0  0  0
   35.5950   26.6960   31.5290 O   0  0  0  0  0  0  0  0  0  0  0  0
  1  2  1  0  0  0  0
  2  3  1  0  0  0  0
  3  4  2  0  0  0  0
  3 15  1  0  0  0  0
  4  8  1  0  0  0  0
  5  9  1  0  0  0  0
  5  4  1  0  0  0  0
  6  5  2  0  0  0  0
  7  6  1  0  0  0  0
  7  2  2  0  0  0  0
 10  6  1  0  0  0  0
 11 12  1  0  0  0  0
 12 13  2  0  0  0  0
 12 18  1  0  0  0  0
 13 19  1  0  0  0  0
 14 13  1  0  0  0  0
 15 14  2  0  0  0  0
 16 15  1  0  0  0  0
 16 11  2  0  0  0  0
 17 11  1  0  0  0  0
 19 21  1  0  0  0  0
 20 19  1  0  0  0  0
 22  7  1  0  0  0  0
 23 22  1  0  0  0  0
 24 22  2  0  0  0  0
M  END
>  <minimizedAffinity>
-5.0791688

$$$$

 OpenBabel03272504373D

 24 25  0  0  0  0  0  0  0  0999 V2000
   38.6320   26.9720   35.3690 Cl  0  0  0  0  0  0  0  0  0  0  0  0
   38.2800   25.7260   34.2150 C   0  0  0  0  0  0  0  0  0  0  0  0
   38.2040   24.4180   34.6190 C   0  0  0  0  0  0  0  0  0  0  0  0
   37.9270   23.4200   33.7200 C   0  0  0  0  0  0  0  0  0  0  0  0
   37.7250   23.7530   32.4010 C   0  0  0  0  0  0  0  0  0  0  0  0
   37.8000   25.0760   31.9910 C   0  0  0  0  0  0  0  0  0  0  0  0
   38.0810   26.0990   32.8910 C   0  0  0  0  0  0  0  0  0  0  0  0
   37.8750   22.3840   34.0820 H   0  0  0  0  0  0  0  0  0  0  0  0
   37.5110   22.9270   31.7450 H   0  0  0  0  0  0  0  0  0  0  0  0
   37.6330   25.2930   30.9310 H   0  0  0  0  0  0  0  0  0  0  0  0
   37.9550   24.2560   38.3020 C   0  0  0  0  0  0  0  0  0  0  0  0
   38.9390   23.3090   38.6030 C   0  0  0  0  0  0  0  0  0  0  0  0
   39.6580   22.7530   37.5420 C   0  0  0  0  0  0  0  0  0  0  0  0
   39.3740   23.1520   36.2780 N   0  0  0  0  0  0  0  0  0  0  0  0
   38.4200   24.0680   36.0180 C   0  0  0  0  0  0  0  0  0  0  0  0
   37.7250   24.6050   37.0280 N   0  0  0  0  0  0  0  0  0  0  0  0
   37.3830   24.7020   39.1030 H   0  0  0  0  0  0  0  0  0  0  0  0
   39.1020   23.0480   39.6240 H   0  0  0  0  0  0  0  0  0  0  0  0
   40.6630   21.7830   37.8670 N   0  0  0  0  0  0  0  0  0  0  0  0
   41.6680   21.9710   37.6310 H   0  0  0  0  0  0  0  0  0  0  0  0
   40.5010   20.8540   38.3420 H   0  0  0  0  0  0  0  0  0  0  0  0
   38.1600   27.4890   32.4550 C   0  0  0  0  0  0  0  0  0  0  0  0
   39.1240   27.8520   32.1350 H   0  0  0  0  0  0  0  0  0  0  0  0
   37.1400   28.2060   32.4620 O   0  0  0  0  0  0  0  0  0  0  0  0
  2  3  1  0  0  0  0
  2  1  1  0  0  0  0
  3 15  1  0  0  0  0
  4  8  1  0  0  0  0
  4  3  2  0  0  0  0
  5  4  1  0  0  0  0
  6  5  2  0  0  0  0
  6  7  1  0  0  0  0
  7  2  2  0  0  0  0
  9  5  1  0  0  0  0
 10  6  1  0  0  0  0
 11 12  1  0  0  0  0
 11 17  1  0  0  0  0
 12 18  1  0  0  0  0
 13 19  1  0  0  0  0
 13 12  2  0  0  0  0
 14 13  1  0  0  0  0
 15 14  2  0  0  0  0
 15 16  1  0  0  0  0
 16 11  2  0  0  0  0
 19 21  1  0  0  0  0
 20 19  1  0  0  0  0
 22 24  2  0  0  0  0
 22  7  1  0  0  0  0
 23 22  1  0  0  0  0
M  END
>  <minimizedAffinity>
-4.90201998

$$$$

 OpenBabel03272504373D

 24 25  0  0  0  0  0  0  0  0999 V2000
   37.7820   23.2170   33.7190 Cl  0  0  0  0  0  0  0  0  0  0  0  0
   38.6470   24.7200   33.6680 C   0  0  0  0  0  0  0  0  0  0  0  0
   39.1670   25.2520   34.8200 C   0  0  0  0  0  0  0  0  0  0  0  0
   39.8530   26.4400   34.7980 C   0  0  0  0  0  0  0  0  0  0  0  0
   40.0140   27.0910   33.5980 C   0  0  0  0  0  0  0  0  0  0  0  0
   39.4890   26.5530   32.4310 C   0  0  0  0  0  0  0  0  0  0  0  0
   38.7900   25.3500   32.4380 C   0  0  0  0  0  0  0  0  0  0  0  0
   40.2540   26.8340   35.7420 H   0  0  0  0  0  0  0  0  0  0  0  0
   40.5610   28.0160   33.6450 H   0  0  0  0  0  0  0  0  0  0  0  0
   39.6420   27.1070   31.5000 H   0  0  0  0  0  0  0  0  0  0  0  0
   37.9270   24.2210   38.1450 C   0  0  0  0  0  0  0  0  0  0  0  0
   38.7910   23.1640   38.4450 C   0  0  0  0  0  0  0  0  0  0  0  0
   39.7710   22.8330   37.5060 C   0  0  0  0  0  0  0  0  0  0  0  0
   39.8420   23.5450   36.3550 N   0  0  0  0  0  0  0  0  0  0  0  0
   38.9940   24.5600   36.0920 C   0  0  0  0  0  0  0  0  0  0  0  0
   38.0520   24.8830   36.9850 N   0  0  0  0  0  0  0  0  0  0  0  0
   37.1580   24.4990   38.8530 H   0  0  0  0  0  0  0  0  0  0  0  0
   38.6710   22.6530   39.3740 H   0  0  0  0  0  0  0  0  0  0  0  0
   40.6500   21.7470   37.8300 N   0  0  0  0  0  0  0  0  0  0  0  0
   41.6810   21.9160   37.9210 H   0  0  0  0  0  0  0  0  0  0  0  0
   40.3640   20.7440   37.9960 H   0  0  0  0  0  0  0  0  0  0  0  0
   38.2410   24.7880   31.2090 C   0  0  0  0  0  0  0  0  0  0  0  0
   38.8580   24.0880   30.6670 H   0  0  0  0  0  0  0  0  0  0  0  0
   37.1030   25.1190   30.8240 O   0  0  0  0  0  0  0  0  0  0  0  0
  2  1  1  0  0  0  0
  2  3  1  0  0  0  0
  3 15  1  0  0  0  0
  4  3  2  0  0  0  0
  4  8  1  0  0  0  0
  5  9  1  0  0  0  0
  5  4  1  0  0  0  0
  6  7  1  0  0  0  0
  6  5  2  0  0  0  0
  7  2  2  0  0  0  0
 10  6  1  0  0  0  0
 11 12  1  0  0  0  0
 11 17  1  0  0  0  0
 12 18  1  0  0  0  0
 13 19  1  0  0  0  0
 13 12  2  0  0  0  0
 14 13  1  0  0  0  0
 15 14  2  0  0  0  0
 15 16  1  0  0  0  0
 16 11  2  0  0  0  0
 19 20  1  0  0  0  0
 19 21  1  0  0  0  0
 22  7  1  0  0  0  0
 23 22  1  0  0  0  0
 24 22  2  0  0  0  0
M  END
>  <minimizedAffinity>
-4.84551859

$$$$

 OpenBabel03272504373D

 24 25  0  0  0  0  0  0  0  0999 V2000
   38.6140   26.9330   36.0610 Cl  0  0  0  0  0  0  0  0  0  0  0  0
   38.0340   26.0660   34.6750 C   0  0  0  0  0  0  0  0  0  0  0  0
   38.3480   24.7410   34.5140 C   0  0  0  0  0  0  0  0  0  0  0  0
   37.8990   24.0400   33.4230 C   0  0  0  0  0  0  0  0  0  0  0  0
   37.1230   24.6890   32.4920 C   0  0  0  0  0  0  0  0  0  0  0  0
   36.8030   26.0290   32.6550 C   0  0  0  0  0  0  0  0  0  0  0  0
   37.2530   26.7530   33.7550 C   0  0  0  0  0  0  0  0  0  0  0  0
   38.1730   22.9800   33.3290 H   0  0  0  0  0  0  0  0  0  0  0  0
   36.8000   24.0860   31.6610 H   0  0  0  0  0  0  0  0  0  0  0  0
   36.1840   26.5030   31.8870 H   0  0  0  0  0  0  0  0  0  0  0  0
   41.1880   23.1390   36.2520 C   0  0  0  0  0  0  0  0  0  0  0  0
   40.5940   22.7600   37.4590 C   0  0  0  0  0  0  0  0  0  0  0  0
   39.2420   23.0620   37.6460 C   0  0  0  0  0  0  0  0  0  0  0  0
   38.5720   23.7020   36.6570 N   0  0  0  0  0  0  0  0  0  0  0  0
   39.1720   24.0560   35.5030 C   0  0  0  0  0  0  0  0  0  0  0  0
   40.4660   23.7720   35.3160 N   0  0  0  0  0  0  0  0  0  0  0  0
   42.2330   22.9190   36.0800 H   0  0  0  0  0  0  0  0  0  0  0  0
   41.1900   22.2580   38.1870 H   0  0  0  0  0  0  0  0  0  0  0  0
   38.6480   22.6660   38.8890 N   0  0  0  0  0  0  0  0  0  0  0  0
   37.8530   21.9810   38.8950 H   0  0  0  0  0  0  0  0  0  0  0  0
   38.9320   23.0010   39.8500 H   0  0  0  0  0  0  0  0  0  0  0  0
   36.9140   28.1620   33.9220 C   0  0  0  0  0  0  0  0  0  0  0  0
   37.6630   28.8870   33.6420 H   0  0  0  0  0  0  0  0  0  0  0  0
   35.7970   28.4880   34.3690 O   0  0  0  0  0  0  0  0  0  0  0  0
  2  1  1  0  0  0  0
  3  2  1  0  0  0  0
  3 15  1  0  0  0  0
  4  3  2  0  0  0  0
  5  6  2  0  0  0  0
  5  4  1  0  0  0  0
  6  7  1  0  0  0  0
  7 22  1  0  0  0  0
  7  2  2  0  0  0  0
  8  4  1  0  0  0  0
  9  5  1  0  0  0  0
 10  6  1  0  0  0  0
 11 12  1  0  0  0  0
 12 13  2  0  0  0  0
 12 18  1  0  0  0  0
 13 19  1  0  0  0  0
 14 13  1  0  0  0  0
 15 14  2  0  0  0  0
 16 15  1  0  0  0  0
 16 11  2  0  0  0  0
 17 11  1  0  0  0  0
 19 20  1  0  0  0  0
 19 21  1  0  0  0  0
 22 24  2  0  0  0  0
 23 22  1  0  0  0  0
M  END
>  <minimizedAffinity>
-4.71136808

$$$$

 OpenBabel03272504373D

 24 25  0  0  0  0  0  0  0  0999 V2000
   40.5860   23.8030   34.5410 Cl  0  0  0  0  0  0  0  0  0  0  0  0
   39.6810   23.7170   36.0180 C   0  0  0  0  0  0  0  0  0  0  0  0
   38.4670   24.3480   36.1160 C   0  0  0  0  0  0  0  0  0  0  0  0
   37.7380   24.2900   37.2770 C   0  0  0  0  0  0  0  0  0  0  0  0
   38.2440   23.5860   38.3440 C   0  0  0  0  0  0  0  0  0  0  0  0
   39.4710   22.9460   38.2450 C   0  0  0  0  0  0  0  0  0  0  0  0
   40.2230   22.9970   37.0750 C   0  0  0  0  0  0  0  0  0  0  0  0
   36.7700   24.8090   37.3170 H   0  0  0  0  0  0  0  0  0  0  0  0
   37.6260   23.5770   39.2250 H   0  0  0  0  0  0  0  0  0  0  0  0
   39.8330   22.3990   39.1210 H   0  0  0  0  0  0  0  0  0  0  0  0
   37.3670   25.3210   32.7260 C   0  0  0  0  0  0  0  0  0  0  0  0
   36.9020   26.6210   32.9500 C   0  0  0  0  0  0  0  0  0  0  0  0
   36.9770   27.1280   34.2500 C   0  0  0  0  0  0  0  0  0  0  0  0
   37.4930   26.3450   35.2290 N   0  0  0  0  0  0  0  0  0  0  0  0
   37.9330   25.0940   34.9830 C   0  0  0  0  0  0  0  0  0  0  0  0
   37.8640   24.6010   33.7420 N   0  0  0  0  0  0  0  0  0  0  0  0
   37.3200   24.9030   31.7300 H   0  0  0  0  0  0  0  0  0  0  0  0
   36.5100   27.1730   32.1260 H   0  0  0  0  0  0  0  0  0  0  0  0
   36.4970   28.4620   34.4630 N   0  0  0  0  0  0  0  0  0  0  0  0
   37.1530   29.2070   34.8030 H   0  0  0  0  0  0  0  0  0  0  0  0
   35.5080   28.8000   34.3080 H   0  0  0  0  0  0  0  0  0  0  0  0
   41.5120   22.3230   36.9760 C   0  0  0  0  0  0  0  0  0  0  0  0
   42.2880   22.8200   36.4130 H   0  0  0  0  0  0  0  0  0  0  0  0
   41.6860   21.2190   37.5280 O   0  0  0  0  0  0  0  0  0  0  0  0
  1  2  1  0  0  0  0
  2  3  2  0  0  0  0
  2  7  1  0  0  0  0
  3  4  1  0  0  0  0
  4  8  1  0  0  0  0
  4  5  2  0  0  0  0
  5  9  1  0  0  0  0
  6  5  1  0  0  0  0
  6 10  1  0  0  0  0
  7  6  2  0  0  0  0
 11 12  2  0  0  0  0
 11 16  1  0  0  0  0
 12 13  1  0  0  0  0
 13 19  1  0  0  0  0
 13 14  2  0  0  0  0
 15 14  1  0  0  0  0
 15  3  1  0  0  0  0
 16 15  2  0  0  0  0
 17 11  1  0  0  0  0
 18 12  1  0  0  0  0
 19 20  1  0  0  0  0
 21 19  1  0  0  0  0
 22  7  1  0  0  0  0
 22 24  2  0  0  0  0
 23 22  1  0  0  0  0
M  END
>  <minimizedAffinity>
-4.67203569

$$$$

 OpenBabel03272504373D

 24 25  0  0  0  0  0  0  0  0999 V2000
   32.5460   29.4260   34.3450 Cl  0  0  0  0  0  0  0  0  0  0  0  0
   33.5250   30.4800   35.3140 C   0  0  0  0  0  0  0  0  0  0  0  0
   34.8530   30.6490   35.0170 C   0  0  0  0  0  0  0  0  0  0  0  0
   35.6420   31.4790   35.7720 C   0  0  0  0  0  0  0  0  0  0  0  0
   35.0770   32.1430   36.8360 C   0  0  0  0  0  0  0  0  0  0  0  0
   33.7330   31.9740   37.1370 C   0  0  0  0  0  0  0  0  0  0  0  0
   32.9210   31.1350   36.3800 C   0  0  0  0  0  0  0  0  0  0  0  0
   36.7010   31.5860   35.5030 H   0  0  0  0  0  0  0  0  0  0  0  0
   35.7460   32.7790   37.3890 H   0  0  0  0  0  0  0  0  0  0  0  0
   33.3290   32.5220   37.9930 H   0  0  0  0  0  0  0  0  0  0  0  0
   36.5530   28.1190   32.9280 C   0  0  0  0  0  0  0  0  0  0  0  0
   36.5290   28.7370   31.6740 C   0  0  0  0  0  0  0  0  0  0  0  0
   35.9340   29.9970   31.5760 C   0  0  0  0  0  0  0  0  0  0  0  0
   35.4110   30.5620   32.6920 N   0  0  0  0  0  0  0  0  0  0  0  0
   35.4490   29.9420   33.8880 C   0  0  0  0  0  0  0  0  0  0  0  0
   36.0150   28.7350   33.9910 N   0  0  0  0  0  0  0  0  0  0  0  0
   37.0060   27.1430   33.0330 H   0  0  0  0  0  0  0  0  0  0  0  0
   36.9630   28.2260   30.8440 H   0  0  0  0  0  0  0  0  0  0  0  0
   35.9190   30.6170   30.2830 N   0  0  0  0  0  0  0  0  0  0  0  0
   36.4150   31.5290   30.1330 H   0  0  0  0  0  0  0  0  0  0  0  0
   35.4410   30.2420   29.4190 H   0  0  0  0  0  0  0  0  0  0  0  0
   31.5090   30.9610   36.7000 C   0  0  0  0  0  0  0  0  0  0  0  0
   31.1900   29.9770   37.0080 H   0  0  0  0  0  0  0  0  0  0  0  0
   30.7240   31.9250   36.6140 O   0  0  0  0  0  0  0  0  0  0  0  0
  1  2  1  0  0  0  0
  2  7  1  0  0  0  0
  3  2  2  0  0  0  0
  3  4  1  0  0  0  0
  4  5  2  0  0  0  0
  5  6  1  0  0  0  0
  5  9  1  0  0  0  0
  6 10  1  0  0  0  0
  7 22  1  0  0  0  0
  7  6  2  0  0  0  0
  8  4  1  0  0  0  0
 11 17  1  0  0  0  0
 11 16  1  0  0  0  0
 12 11  2  0  0  0  0
 13 12  1  0  0  0  0
 13 14  2  0  0  0  0
 14 15  1  0  0  0  0
 15 16  2  0  0  0  0
 15  3  1  0  0  0  0
 18 12  1  0  0  0  0
 19 13  1  0  0  0  0
 20 19  1  0  0  0  0
 21 19  1  0  0  0  0
 22 23  1  0  0  0  0
 24 22  2  0  0  0  0
M  END
>  <minimizedAffinity>
-4.55756617

$$$$

 OpenBabel03272504373D

 24 25  0  0  0  0  0  0  0  0999 V2000
   38.5670   22.3680   34.2370 Cl  0  0  0  0  0  0  0  0  0  0  0  0
   37.4510   23.0420   33.0940 C   0  0  0  0  0  0  0  0  0  0  0  0
   37.5280   24.3700   32.7600 C   0  0  0  0  0  0  0  0  0  0  0  0
   36.6530   24.9190   31.8570 C   0  0  0  0  0  0  0  0  0  0  0  0
   35.6940   24.1140   31.2890 C   0  0  0  0  0  0  0  0  0  0  0  0
   35.6150   22.7700   31.6260 C   0  0  0  0  0  0  0  0  0  0  0  0
   36.4950   22.1990   32.5400 C   0  0  0  0  0  0  0  0  0  0  0  0
   36.7460   25.9870   31.6170 H   0  0  0  0  0  0  0  0  0  0  0  0
   35.0380   24.6020   30.5900 H   0  0  0  0  0  0  0  0  0  0  0  0
   34.8350   22.1690   31.1480 H   0  0  0  0  0  0  0  0  0  0  0  0
   40.7060   26.1050   33.4930 C   0  0  0  0  0  0  0  0  0  0  0  0
   40.3520   26.8690   34.6090 C   0  0  0  0  0  0  0  0  0  0  0  0
   39.0400   26.7710   35.0790 C   0  0  0  0  0  0  0  0  0  0  0  0
   38.1750   25.9460   34.4390 N   0  0  0  0  0  0  0  0  0  0  0  0
   38.5460   25.2210   33.3650 C   0  0  0  0  0  0  0  0  0  0  0  0
   39.8000   25.3100   32.9070 N   0  0  0  0  0  0  0  0  0  0  0  0
   41.7140   26.1620   33.1070 H   0  0  0  0  0  0  0  0  0  0  0  0
   41.0910   27.4940   35.0570 H   0  0  0  0  0  0  0  0  0  0  0  0
   38.6920   27.5600   36.2250 N   0  0  0  0  0  0  0  0  0  0  0  0
   38.3830   27.0910   37.1110 H   0  0  0  0  0  0  0  0  0  0  0  0
   38.7140   28.6140   36.2840 H   0  0  0  0  0  0  0  0  0  0  0  0
   36.4090   20.7860   32.8900 C   0  0  0  0  0  0  0  0  0  0  0  0
   37.0220   20.0990   32.3260 H   0  0  0  0  0  0  0  0  0  0  0  0
   35.6520   20.4130   33.8070 O   0  0  0  0  0  0  0  0  0  0  0  0
  2  1  1  0  0  0  0
  3  2  1  0  0  0  0
  3 15  1  0  0  0  0
  4  3  2  0  0  0  0
  5  6  2  0  0  0  0
  5  4  1  0  0  0  0
  6  7  1  0  0  0  0
  7 22  1  0  0  0  0
  7  2  2  0  0  0  0
  8  4  1  0  0  0  0
  9  5  1  0  0  0  0
 10  6  1  0  0  0  0
 11 12  1  0  0  0  0
 12 18  1  0  0  0  0
 12 13  2  0  0  0  0
 13 19  1  0  0  0  0
 14 13  1  0  0  0  0
 15 14  2  0  0  0  0
 16 15  1  0  0  0  0
 16 11  2  0  0  0  0
 17 11  1  0  0  0  0
 19 21  1  0  0  0  0
 19 20  1  0  0  0  0
 22 24  2  0  0  0  0
 23 22  1  0  0  0  0
M  END
>  <minimizedAffinity>
-4.49891281

$$$$

 OpenBabel03272504373D

 24 25  0  0  0  0  0  0  0  0999 V2000
   38.4530   24.7690   33.0890 Cl  0  0  0  0  0  0  0  0  0  0  0  0
   37.4240   23.3810   32.9380 C   0  0  0  0  0  0  0  0  0  0  0  0
   37.6090   22.2970   33.7580 C   0  0  0  0  0  0  0  0  0  0  0  0
   36.8040   21.1910   33.6520 C   0  0  0  0  0  0  0  0  0  0  0  0
   35.8040   21.1860   32.7080 C   0  0  0  0  0  0  0  0  0  0  0  0
   35.6150   22.2830   31.8790 C   0  0  0  0  0  0  0  0  0  0  0  0
   36.4240   23.4110   31.9750 C   0  0  0  0  0  0  0  0  0  0  0  0
   36.9850   20.3420   34.3250 H   0  0  0  0  0  0  0  0  0  0  0  0
   35.2070   20.2920   32.6740 H   0  0  0  0  0  0  0  0  0  0  0  0
   34.8070   22.2330   31.1430 H   0  0  0  0  0  0  0  0  0  0  0  0
   40.9040   22.0910   35.4160 C   0  0  0  0  0  0  0  0  0  0  0  0
   40.5590   22.3510   36.7460 C   0  0  0  0  0  0  0  0  0  0  0  0
   39.2140   22.5890   37.0390 C   0  0  0  0  0  0  0  0  0  0  0  0
   38.3090   22.5580   36.0300 N   0  0  0  0  0  0  0  0  0  0  0  0
   38.6710   22.3040   34.7570 C   0  0  0  0  0  0  0  0  0  0  0  0
   39.9570   22.0760   34.4670 N   0  0  0  0  0  0  0  0  0  0  0  0
   41.9380   21.9040   35.1600 H   0  0  0  0  0  0  0  0  0  0  0  0
   41.3320   22.3580   37.4820 H   0  0  0  0  0  0  0  0  0  0  0  0
   38.8780   22.8540   38.4070 N   0  0  0  0  0  0  0  0  0  0  0  0
   38.2300   22.2090   38.9220 H   0  0  0  0  0  0  0  0  0  0  0  0
   39.2250   23.6650   38.9880 H   0  0  0  0  0  0  0  0  0  0  0  0
   36.2210   24.5620   31.1010 C   0  0  0  0  0  0  0  0  0  0  0  0
   36.8610   24.6450   30.2370 H   0  0  0  0  0  0  0  0  0  0  0  0
   35.3370   25.4000   31.3650 O   0  0  0  0  0  0  0  0  0  0  0  0
  2  1  1  0  0  0  0
  2  3  1  0  0  0  0
  3 15  1  0  0  0  0
  4  3  2  0  0  0  0
  4  8  1  0  0  0  0
  5  4  1  0  0  0  0
  6  7  1  0  0  0  0
  6  5  2  0  0  0  0
  7  2  2  0  0  0  0
  9  5  1  0  0  0  0
 10  6  1  0  0  0  0
 11 12  1  0  0  0  0
 12 13  2  0  0  0  0
 12 18  1  0  0  0  0
 13 19  1  0  0  0  0
 14 13  1  0  0  0  0
 15 14  2  0  0  0  0
 16 15  1  0  0  0  0
 16 11  2  0  0  0  0
 17 11  1  0  0  0  0
 19 20  1  0  0  0  0
 19 21  1  0  0  0  0
 22 24  2  0  0  0  0
 22  7  1  0  0  0  0
 23 22  1  0  0  0  0
M  END
>  <minimizedAffinity>
-4.44957256

$$$$

 OpenBabel03272504373D

 24 25  0  0  0  0  0  0  0  0999 V2000
   38.5610   23.9680   32.7640 Cl  0  0  0  0  0  0  0  0  0  0  0  0
   38.4730   25.0860   34.0870 C   0  0  0  0  0  0  0  0  0  0  0  0
   38.5970   26.4320   33.8570 C   0  0  0  0  0  0  0  0  0  0  0  0
   38.5300   27.3310   34.8920 C   0  0  0  0  0  0  0  0  0  0  0  0
   38.3340   26.8590   36.1680 C   0  0  0  0  0  0  0  0  0  0  0  0
   38.2070   25.4970   36.4020 C   0  0  0  0  0  0  0  0  0  0  0  0
   38.2740   24.5740   35.3630 C   0  0  0  0  0  0  0  0  0  0  0  0
   38.6350   28.4010   34.6670 H   0  0  0  0  0  0  0  0  0  0  0  0
   38.2890   27.6120   36.9360 H   0  0  0  0  0  0  0  0  0  0  0  0
   38.0530   25.1690   37.4340 H   0  0  0  0  0  0  0  0  0  0  0  0
   40.1650   27.5850   30.7160 C   0  0  0  0  0  0  0  0  0  0  0  0
   39.0400   27.8720   29.9360 C   0  0  0  0  0  0  0  0  0  0  0  0
   37.7800   27.6630   30.5030 C   0  0  0  0  0  0  0  0  0  0  0  0
   37.7030   27.1970   31.7740 N   0  0  0  0  0  0  0  0  0  0  0  0
   38.8060   26.9300   32.5020 C   0  0  0  0  0  0  0  0  0  0  0  0
   40.0160   27.1260   31.9670 N   0  0  0  0  0  0  0  0  0  0  0  0
   41.1530   27.7360   30.3030 H   0  0  0  0  0  0  0  0  0  0  0  0
   39.1860   28.2360   28.9440 H   0  0  0  0  0  0  0  0  0  0  0  0
   36.6380   27.9610   29.6900 N   0  0  0  0  0  0  0  0  0  0  0  0
   35.9600   28.7040   29.9910 H   0  0  0  0  0  0  0  0  0  0  0  0
   36.3860   27.4970   28.7760 H   0  0  0  0  0  0  0  0  0  0  0  0
   38.1400   23.1430   35.6140 C   0  0  0  0  0  0  0  0  0  0  0  0
   38.5450   22.4720   34.8720 H   0  0  0  0  0  0  0  0  0  0  0  0
   37.5770   22.7390   36.6500 O   0  0  0  0  0  0  0  0  0  0  0  0
  1  2  1  0  0  0  0
  2  7  1  0  0  0  0
  3  2  2  0  0  0  0
  3  4  1  0  0  0  0
  4  5  2  0  0  0  0
  5  6  1  0  0  0  0
  5  9  1  0  0  0  0
  6 10  1  0  0  0  0
  7 22  1  0  0  0  0
  7  6  2  0  0  0  0
  8  4  1  0  0  0  0
 11 16  1  0  0  0  0
 12 13  1  0  0  0  0
 12 11  2  0  0  0  0
 13 14  2  0  0  0  0
 14 15  1  0  0  0  0
 15  3  1  0  0  0  0
 16 15  2  0  0  0  0
 17 11  1  0  0  0  0
 18 12  1  0  0  0  0
 19 20  1  0  0  0  0
 19 13  1  0  0  0  0
 21 19  1  0  0  0  0
 22 24  2  0  0  0  0
 23 22  1  0  0  0  0
M  END
>  <minimizedAffinity>
-4.35329628

$$$$
