
 OpenBabel03272509143D

 38 40  0  0  1  0  0  0  0  0999 V2000
   34.8310   30.0800   46.8640 C   0  0  0  0  0  0  0  0  0  0  0  0
   36.1660   30.5760   46.9480 C   0  0  0  0  0  0  0  0  0  0  0  0
   36.8490   30.7490   45.7420 C   0  0  0  0  0  0  0  0  0  0  0  0
   36.2340   30.4480   44.5760 N   0  0  0  0  0  0  0  0  0  0  0  0
   34.9720   29.9820   44.5380 C   0  0  0  0  0  0  0  0  0  0  0  0
   34.2810   29.8010   45.6700 N   0  0  0  0  0  0  0  0  0  0  0  0
   34.1910   29.9090   47.7040 H   0  0  0  0  0  0  0  0  0  0  0  0
   34.5080   29.7500   43.5920 H   0  0  0  0  0  0  0  0  0  0  0  0
   36.6470   30.8280   48.2720 N   0  0  0  0  0  0  0  0  0  0  0  0
   37.0570   31.9740   49.0700 C   0  0  0  0  0  0  0  0  0  0  0  0
   38.4000   31.4770   49.6260 C   0  0  0  0  0  0  0  0  0  0  0  0
   38.2030   29.9670   49.7870 C   0  0  0  0  0  0  0  0  0  0  0  0
   36.8410   29.7150   49.2300 C   0  0  1  0  0  0  0  0  0  0  0  0
   36.3510   32.2680   49.8420 H   0  0  0  0  0  0  0  0  0  0  0  0
   37.3210   32.7940   48.3670 H   0  0  0  0  0  0  0  0  0  0  0  0
   38.5100   31.8870   50.6400 H   0  0  0  0  0  0  0  0  0  0  0  0
   39.2330   31.7000   48.9470 H   0  0  0  0  0  0  0  0  0  0  0  0
   38.3050   29.6500   50.8520 H   0  0  0  0  0  0  0  0  0  0  0  0
   38.9710   29.4440   49.1530 H   0  0  0  0  0  0  0  0  0  0  0  0
   36.7090   28.7530   48.7500 H   0  0  0  0  0  0  0  0  0  0  0  0
   34.7660   28.9910   50.4110 C   0  0  0  0  0  0  0  0  0  0  0  0
   34.4950   28.0550   49.6060 O   0  0  0  0  0  0  0  0  0  0  0  0
   35.8680   29.8990   50.3000 N   0  0  0  0  0  0  0  0  0  0  0  0
   34.0580   29.0590   51.2430 H   0  0  0  0  0  0  0  0  0  0  0  0
   35.8960   30.6510   51.0190 H   0  0  0  0  0  0  0  0  0  0  0  0
   38.1980   31.2480   45.7120 C   0  0  0  0  0  0  0  0  0  0  0  0
   38.4590   32.4800   46.2670 C   0  0  0  0  0  0  0  0  0  0  0  0
   39.7270   33.0360   46.2840 C   0  0  0  0  0  0  0  0  0  0  0  0
   40.7500   32.3080   45.7200 C   0  0  0  0  0  0  0  0  0  0  0  0
   40.5670   31.0690   45.1460 C   0  0  0  0  0  0  0  0  0  0  0  0
   39.2620   30.5890   45.1720 C   0  0  0  0  0  0  0  0  0  0  0  0
   37.6540   33.0470   46.7070 H   0  0  0  0  0  0  0  0  0  0  0  0
   39.8530   34.0140   46.7410 H   0  0  0  0  0  0  0  0  0  0  0  0
   41.7370   32.7460   45.7360 H   0  0  0  0  0  0  0  0  0  0  0  0
   41.3750   30.5180   44.7110 H   0  0  0  0  0  0  0  0  0  0  0  0
   39.0380   29.2780   44.5710 C   0  0  0  0  0  0  0  0  0  0  0  0
   38.6350   28.4300   45.1180 H   0  0  0  0  0  0  0  0  0  0  0  0
   39.2720   28.9760   43.3920 O   0  0  0  0  0  0  0  0  0  0  0  0
  1  2  1  0  0  0  0
  1  7  1  0  0  0  0
  2  9  1  0  0  0  0
  3  2  2  0  0  0  0
  4  3  1  0  0  0  0
  5  4  2  0  0  0  0
  5  6  1  0  0  0  0
  6  1  2  0  0  0  0
  8  5  1  0  0  0  0
  9 10  1  0  0  0  0
  9 13  1  0  0  0  0
 10 11  1  0  0  0  0
 10 14  1  0  0  0  0
 11 12  1  0  0  0  0
 11 16  1  0  0  0  0
 12 18  1  0  0  0  0
 13 20  1  6  0  0  0
 13 12  1  0  0  0  0
 13 23  1  0  0  0  0
 15 10  1  0  0  0  0
 17 11  1  0  0  0  0
 19 12  1  0  0  0  0
 21 24  1  0  0  0  0
 22 21  2  0  0  0  0
 23 21  1  0  0  0  0
 23 25  1  0  0  0  0
 26  3  1  0  0  0  0
 26 27  1  0  0  0  0
 27 28  2  0  0  0  0
 27 32  1  0  0  0  0
 28 33  1  0  0  0  0
 29 34  1  0  0  0  0
 29 28  1  0  0  0  0
 30 31  1  0  0  0  0
 30 29  2  0  0  0  0
 31 26  2  0  0  0  0
 35 30  1  0  0  0  0
 36 37  1  0  0  0  0
 36 31  1  0  0  0  0
 38 36  2  0  0  0  0
M  END
>  <minimizedAffinity>
-5.32197857

>  <minimizedRMSD>
0.766540468

$$$$
