
 OpenBabel03272510263D

 39 42  0  0  1  0  0  0  0  0999 V2000
   35.9850   30.0910   46.9680 C   0  0  0  0  0  0  0  0  0  0  0  0
   36.9060   30.6450   47.8270 C   0  0  0  0  0  0  0  0  0  0  0  0
   37.8860   31.5420   47.3650 C   0  0  0  0  0  0  0  0  0  0  0  0
   37.8570   31.8240   46.0040 C   0  0  0  0  0  0  0  0  0  0  0  0
   38.7010   32.6650   45.3170 N   0  0  0  0  0  0  0  0  0  0  0  0
   38.2950   32.6270   44.0340 C   0  0  0  0  0  0  0  0  0  0  0  0
   37.2640   31.8150   43.9160 N   0  0  0  0  0  0  0  0  0  0  0  0
   36.9600   31.2950   45.1180 C   0  0  0  0  0  0  0  0  0  0  0  0
   35.9990   30.4050   45.6160 C   0  0  0  0  0  0  0  0  0  0  0  0
   35.2200   29.3960   47.3000 H   0  0  0  0  0  0  0  0  0  0  0  0
   38.6220   31.9890   48.0290 H   0  0  0  0  0  0  0  0  0  0  0  0
   39.4990   33.2210   45.7240 H   0  0  0  0  0  0  0  0  0  0  0  0
   35.2860   29.9820   44.9260 H   0  0  0  0  0  0  0  0  0  0  0  0
   37.5940   30.1610   51.4940 C   0  0  0  0  0  0  0  0  0  0  0  0
   37.8240   30.5720   50.1830 C   0  0  0  0  0  0  0  0  0  0  0  0
   36.8670   30.3020   49.2410 C   0  0  0  0  0  0  0  0  0  0  0  0
   35.7330   29.6350   49.6580 N   0  0  0  0  0  0  0  0  0  0  0  0
   35.5220   29.2410   50.9260 C   0  0  0  0  0  0  0  0  0  0  0  0
   36.4500   29.5060   51.8300 N   0  0  0  0  0  0  0  0  0  0  0  0
   38.3620   30.3820   52.2290 H   0  0  0  0  0  0  0  0  0  0  0  0
   38.6960   31.0930   49.8340 H   0  0  0  0  0  0  0  0  0  0  0  0
   34.5880   28.7280   51.1100 H   0  0  0  0  0  0  0  0  0  0  0  0
   38.9220   33.3660   43.0300 O   0  0  0  0  0  0  0  0  0  0  0  0
   39.7680   31.2810   42.5280 N   0  0  0  0  0  0  0  0  0  0  0  0
   39.5210   32.6100   41.9870 C   0  0  1  0  0  0  0  0  0  0  0  0
   38.6390   32.5310   40.8330 C   0  0  0  0  0  0  0  0  0  0  0  0
   39.2790   31.7930   39.8230 O   0  0  0  0  0  0  0  0  0  0  0  0
   39.7210   30.5570   40.1920 C   0  0  0  0  0  0  0  0  0  0  0  0
   40.5060   30.6000   41.4900 C   0  0  2  0  0  0  0  0  0  0  0  0
   38.9700   30.6920   42.7130 H   0  0  0  0  0  0  0  0  0  0  0  0
   40.5130   33.0040   41.6920 H   0  0  0  0  0  0  0  0  0  0  0  0
   38.5760   33.5710   40.3860 H   0  0  0  0  0  0  0  0  0  0  0  0
   37.6560   32.1470   40.8340 H   0  0  0  0  0  0  0  0  0  0  0  0
   38.8340   29.9160   40.3790 H   0  0  0  0  0  0  0  0  0  0  0  0
   40.3780   30.1780   39.4110 H   0  0  0  0  0  0  0  0  0  0  0  0
   41.4460   31.1520   41.2870 H   0  0  0  0  0  0  0  0  0  0  0  0
   40.7710   29.2150   41.9580 C   0  0  0  0  0  0  0  0  0  0  0  0
   39.9280   28.5530   42.2110 H   0  0  0  0  0  0  0  0  0  0  0  0
   41.9450   28.8400   42.0500 O   0  0  0  0  0  0  0  0  0  0  0  0
  1 10  1  0  0  0  0
  1  2  1  0  0  0  0
  2 16  1  0  0  0  0
  3  2  2  0  0  0  0
  3 11  1  0  0  0  0
  4  3  1  0  0  0  0
  5 12  1  0  0  0  0
  5  4  1  0  0  0  0
  6  5  1  0  0  0  0
  7  6  2  0  0  0  0
  7  8  1  0  0  0  0
  8  9  1  0  0  0  0
  8  4  2  0  0  0  0
  9  1  2  0  0  0  0
 13  9  1  0  0  0  0
 14 19  1  0  0  0  0
 14 20  1  0  0  0  0
 15 14  2  0  0  0  0
 16 17  2  0  0  0  0
 16 15  1  0  0  0  0
 17 18  1  0  0  0  0
 18 22  1  0  0  0  0
 18 19  2  0  0  0  0
 21 15  1  0  0  0  0
 23  6  1  0  0  0  0
 24 30  1  0  0  0  0
 25 31  1  6  0  0  0
 25 24  1  0  0  0  0
 25 23  1  0  0  0  0
 26 33  1  0  0  0  0
 26 25  1  0  0  0  0
 27 28  1  0  0  0  0
 27 26  1  0  0  0  0
 28 34  1  0  0  0  0
 28 29  1  0  0  0  0
 29 36  1  6  0  0  0
 29 37  1  0  0  0  0
 29 24  1  0  0  0  0
 32 26  1  0  0  0  0
 35 28  1  0  0  0  0
 37 39  2  0  0  0  0
 37 38  1  0  0  0  0
M  END
>  <minimizedAffinity>
-5.642416

>  <minimizedRMSD>
1.09556174

$$$$
