
 OpenBabel03272510263D

 39 42  0  0  1  0  0  0  0  0999 V2000
   35.9770   30.0710   46.9530 C   0  0  0  0  0  0  0  0  0  0  0  0
   36.8970   30.6320   47.8080 C   0  0  0  0  0  0  0  0  0  0  0  0
   37.8780   31.5240   47.3390 C   0  0  0  0  0  0  0  0  0  0  0  0
   37.8510   31.7920   45.9740 C   0  0  0  0  0  0  0  0  0  0  0  0
   38.6960   32.6270   45.2810 N   0  0  0  0  0  0  0  0  0  0  0  0
   38.2920   32.5760   43.9980 C   0  0  0  0  0  0  0  0  0  0  0  0
   37.2600   31.7640   43.8860 N   0  0  0  0  0  0  0  0  0  0  0  0
   36.9550   31.2560   45.0930 C   0  0  0  0  0  0  0  0  0  0  0  0
   35.9920   30.3710   45.5980 C   0  0  0  0  0  0  0  0  0  0  0  0
   35.2100   29.3790   47.2910 H   0  0  0  0  0  0  0  0  0  0  0  0
   38.6130   31.9770   47.9990 H   0  0  0  0  0  0  0  0  0  0  0  0
   39.4950   33.1860   45.6840 H   0  0  0  0  0  0  0  0  0  0  0  0
   35.2800   29.9420   44.9110 H   0  0  0  0  0  0  0  0  0  0  0  0
   37.5760   30.1900   51.4820 C   0  0  0  0  0  0  0  0  0  0  0  0
   37.8070   30.5900   50.1670 C   0  0  0  0  0  0  0  0  0  0  0  0
   36.8550   30.3030   49.2250 C   0  0  0  0  0  0  0  0  0  0  0  0
   35.7250   29.6320   49.6450 N   0  0  0  0  0  0  0  0  0  0  0  0
   35.5130   29.2490   50.9170 C   0  0  0  0  0  0  0  0  0  0  0  0
   36.4360   29.5300   51.8200 N   0  0  0  0  0  0  0  0  0  0  0  0
   38.3400   30.4240   52.2170 H   0  0  0  0  0  0  0  0  0  0  0  0
   38.6770   31.1130   49.8160 H   0  0  0  0  0  0  0  0  0  0  0  0
   34.5820   28.7310   51.1020 H   0  0  0  0  0  0  0  0  0  0  0  0
   38.9210   33.3050   42.9870 O   0  0  0  0  0  0  0  0  0  0  0  0
   39.8670   31.2350   42.6170 N   0  0  0  0  0  0  0  0  0  0  0  0
   39.6250   32.5400   42.0180 C   0  0  1  0  0  0  0  0  0  0  0  0
   38.8410   32.4020   40.8000 C   0  0  0  0  0  0  0  0  0  0  0  0
   39.5830   31.6570   39.8680 O   0  0  0  0  0  0  0  0  0  0  0  0
   40.0310   30.4460   40.3070 C   0  0  0  0  0  0  0  0  0  0  0  0
   40.7070   30.5510   41.6630 C   0  0  2  0  0  0  0  0  0  0  0  0
   39.0750   30.6270   42.7560 H   0  0  0  0  0  0  0  0  0  0  0  0
   40.6250   32.9580   41.7920 H   0  0  0  0  0  0  0  0  0  0  0  0
   38.7830   33.4270   40.3190 H   0  0  0  0  0  0  0  0  0  0  0  0
   37.8730   31.9850   40.7350 H   0  0  0  0  0  0  0  0  0  0  0  0
   39.1510   29.7830   40.4420 H   0  0  0  0  0  0  0  0  0  0  0  0
   40.7600   30.0680   39.5930 H   0  0  0  0  0  0  0  0  0  0  0  0
   41.6430   31.1270   41.5190 H   0  0  0  0  0  0  0  0  0  0  0  0
   40.9750   29.1890   42.1910 C   0  0  0  0  0  0  0  0  0  0  0  0
   42.0040   28.7990   42.1990 H   0  0  0  0  0  0  0  0  0  0  0  0
   40.0210   28.5220   42.6110 O   0  0  0  0  0  0  0  0  0  0  0  0
  1 10  1  0  0  0  0
  1  2  1  0  0  0  0
  2 16  1  0  0  0  0
  3  2  2  0  0  0  0
  3 11  1  0  0  0  0
  4  3  1  0  0  0  0
  5 12  1  0  0  0  0
  5  4  1  0  0  0  0
  6  5  1  0  0  0  0
  7  6  2  0  0  0  0
  7  8  1  0  0  0  0
  8  9  1  0  0  0  0
  8  4  2  0  0  0  0
  9  1  2  0  0  0  0
 13  9  1  0  0  0  0
 14 19  1  0  0  0  0
 14 20  1  0  0  0  0
 15 14  2  0  0  0  0
 16 17  2  0  0  0  0
 16 15  1  0  0  0  0
 17 18  1  0  0  0  0
 18 22  1  0  0  0  0
 18 19  2  0  0  0  0
 21 15  1  0  0  0  0
 23  6  1  0  0  0  0
 24 30  1  0  0  0  0
 25 31  1  6  0  0  0
 25 24  1  0  0  0  0
 25 23  1  0  0  0  0
 26 25  1  0  0  0  0
 27 28  1  0  0  0  0
 27 26  1  0  0  0  0
 28 34  1  0  0  0  0
 28 29  1  0  0  0  0
 29 36  1  6  0  0  0
 29 37  1  0  0  0  0
 29 24  1  0  0  0  0
 32 26  1  0  0  0  0
 33 26  1  0  0  0  0
 35 28  1  0  0  0  0
 37 38  1  0  0  0  0
 37 39  2  0  0  0  0
M  END
>  <minimizedAffinity>
-5.53745031

>  <minimizedRMSD>
1.23704898

$$$$
