
 OpenBabel03272510263D

 39 42  0  0  1  0  0  0  0  0999 V2000
   36.2450   30.1970   46.8530 C   0  0  0  0  0  0  0  0  0  0  0  0
   37.0880   30.7390   47.7950 C   0  0  0  0  0  0  0  0  0  0  0  0
   38.0920   31.6540   47.4340 C   0  0  0  0  0  0  0  0  0  0  0  0
   38.1710   31.9670   46.0810 C   0  0  0  0  0  0  0  0  0  0  0  0
   39.0590   32.8300   45.4840 N   0  0  0  0  0  0  0  0  0  0  0  0
   38.7590   32.8170   44.1710 C   0  0  0  0  0  0  0  0  0  0  0  0
   37.7490   32.0000   43.9520 N   0  0  0  0  0  0  0  0  0  0  0  0
   37.3540   31.4500   45.1140 C   0  0  0  0  0  0  0  0  0  0  0  0
   36.3650   30.5410   45.5140 C   0  0  0  0  0  0  0  0  0  0  0  0
   35.4630   29.4870   47.1060 H   0  0  0  0  0  0  0  0  0  0  0  0
   38.7680   32.0930   48.1650 H   0  0  0  0  0  0  0  0  0  0  0  0
   39.8160   33.3840   45.9660 H   0  0  0  0  0  0  0  0  0  0  0  0
   35.7150   30.1270   44.7580 H   0  0  0  0  0  0  0  0  0  0  0  0
   37.4900   30.1630   51.4920 C   0  0  0  0  0  0  0  0  0  0  0  0
   37.8230   30.6020   50.2110 C   0  0  0  0  0  0  0  0  0  0  0  0
   36.9380   30.3640   49.1930 C   0  0  0  0  0  0  0  0  0  0  0  0
   35.7700   29.7010   49.5080 N   0  0  0  0  0  0  0  0  0  0  0  0
   35.4590   29.2800   50.7460 C   0  0  0  0  0  0  0  0  0  0  0  0
   36.3180   29.5140   51.7230 N   0  0  0  0  0  0  0  0  0  0  0  0
   38.2010   30.3600   52.2880 H   0  0  0  0  0  0  0  0  0  0  0  0
   38.7240   31.1210   49.9430 H   0  0  0  0  0  0  0  0  0  0  0  0
   34.5090   28.7730   50.8460 H   0  0  0  0  0  0  0  0  0  0  0  0
   39.4570   33.5850   43.2380 O   0  0  0  0  0  0  0  0  0  0  0  0
   39.5930   31.8390   41.7370 N   0  0  0  0  0  0  0  0  0  0  0  0
   39.2430   33.2460   41.8740 C   0  0  1  0  0  0  0  0  0  0  0  0
   37.8540   33.4620   41.5000 C   0  0  0  0  0  0  0  0  0  0  0  0
   37.6950   33.1330   40.1430 O   0  0  0  0  0  0  0  0  0  0  0  0
   38.1130   31.8840   39.7900 C   0  0  0  0  0  0  0  0  0  0  0  0
   39.5030   31.5820   40.3200 C   0  0  2  0  0  0  0  0  0  0  0  0
   38.9850   31.1590   42.1680 H   0  0  0  0  0  0  0  0  0  0  0  0
   39.9200   33.7920   41.1890 H   0  0  0  0  0  0  0  0  0  0  0  0
   37.6710   34.5810   41.5140 H   0  0  0  0  0  0  0  0  0  0  0  0
   37.0150   33.0160   41.9620 H   0  0  0  0  0  0  0  0  0  0  0  0
   37.4280   31.1460   40.2580 H   0  0  0  0  0  0  0  0  0  0  0  0
   38.1440   31.8250   38.7040 H   0  0  0  0  0  0  0  0  0  0  0  0
   40.2110   32.2450   39.7810 H   0  0  0  0  0  0  0  0  0  0  0  0
   39.8180   30.1470   40.0990 C   0  0  0  0  0  0  0  0  0  0  0  0
   40.7980   29.7500   40.4040 H   0  0  0  0  0  0  0  0  0  0  0  0
   38.9580   29.4300   39.5720 O   0  0  0  0  0  0  0  0  0  0  0  0
  1 10  1  0  0  0  0
  1  2  1  0  0  0  0
  2 16  1  0  0  0  0
  3  2  2  0  0  0  0
  3 11  1  0  0  0  0
  4  3  1  0  0  0  0
  5 12  1  0  0  0  0
  5  4  1  0  0  0  0
  6  5  1  0  0  0  0
  7  6  2  0  0  0  0
  7  8  1  0  0  0  0
  8  9  1  0  0  0  0
  8  4  2  0  0  0  0
  9  1  2  0  0  0  0
 13  9  1  0  0  0  0
 14 19  1  0  0  0  0
 14 20  1  0  0  0  0
 15 14  2  0  0  0  0
 16 17  2  0  0  0  0
 16 15  1  0  0  0  0
 17 18  1  0  0  0  0
 18 22  1  0  0  0  0
 18 19  2  0  0  0  0
 21 15  1  0  0  0  0
 23  6  1  0  0  0  0
 24 25  1  0  0  0  0
 24 30  1  0  0  0  0
 25 31  1  6  0  0  0
 25 23  1  0  0  0  0
 26 32  1  0  0  0  0
 26 25  1  0  0  0  0
 26 33  1  0  0  0  0
 27 26  1  0  0  0  0
 28 27  1  0  0  0  0
 28 34  1  0  0  0  0
 28 29  1  0  0  0  0
 29 36  1  6  0  0  0
 29 24  1  0  0  0  0
 35 28  1  0  0  0  0
 37 29  1  0  0  0  0
 37 38  1  0  0  0  0
 39 37  2  0  0  0  0
M  END
>  <minimizedAffinity>
-5.47856045

>  <minimizedRMSD>
0.0326315351

$$$$
