
 OpenBabel03272500033D

 22 23  0  0  0  0  0  0  0  0999 V2000
   39.2910   24.2760   35.9290 N   0  0  0  0  0  0  0  0  0  0  0  0
   40.5730   24.0530   35.5440 C   0  0  0  0  0  0  0  0  0  0  0  0
   41.3120   23.0460   36.1670 C   0  0  0  0  0  0  0  0  0  0  0  0
   40.6170   22.3740   37.1410 C   0  0  0  0  0  0  0  0  0  0  0  0
   41.2770   21.4490   37.7210 O   0  0  0  0  0  0  0  0  0  0  0  0
   39.3530   22.5760   37.5380 N   0  0  0  0  0  0  0  0  0  0  0  0
   38.6960   23.5650   36.8950 C   0  0  0  0  0  0  0  0  0  0  0  0
   37.4990   23.7790   37.2500 O   0  0  0  0  0  0  0  0  0  0  0  0
   41.0430   24.6390   34.7590 H   0  0  0  0  0  0  0  0  0  0  0  0
   42.3290   22.8110   35.9160 H   0  0  0  0  0  0  0  0  0  0  0  0
   38.9250   22.0010   38.2940 H   0  0  0  0  0  0  0  0  0  0  0  0
   38.4520   26.5710   35.9410 C   0  0  0  0  0  0  0  0  0  0  0  0
   38.5120   25.2980   35.3120 C   0  0  0  0  0  0  0  0  0  0  0  0
   37.7970   25.1390   34.1270 C   0  0  0  0  0  0  0  0  0  0  0  0
   37.0880   26.1950   33.6390 N   0  0  0  0  0  0  0  0  0  0  0  0
   37.0510   27.3950   34.2610 C   0  0  0  0  0  0  0  0  0  0  0  0
   37.7320   27.5790   35.4070 N   0  0  0  0  0  0  0  0  0  0  0  0
   38.9940   26.7540   36.8730 H   0  0  0  0  0  0  0  0  0  0  0  0
   37.8400   24.1760   33.6470 H   0  0  0  0  0  0  0  0  0  0  0  0
   36.2650   28.4680   33.6620 C   0  0  0  0  0  0  0  0  0  0  0  0
   36.3890   28.6580   32.5850 H   0  0  0  0  0  0  0  0  0  0  0  0
   35.4850   29.1230   34.4020 O   0  0  0  0  0  0  0  0  0  0  0  0
  1  7  1  0  0  0  0
  2  1  1  0  0  0  0
  2  3  2  0  0  0  0
  3  4  1  0  0  0  0
  4  6  1  0  0  0  0
  4  5  2  0  0  0  0
  6 11  1  0  0  0  0
  7  8  2  0  0  0  0
  7  6  1  0  0  0  0
  9  2  1  0  0  0  0
 10  3  1  0  0  0  0
 12 18  1  0  0  0  0
 13  1  1  0  0  0  0
 13 12  2  0  0  0  0
 14 13  1  0  0  0  0
 15 14  2  0  0  0  0
 15 16  1  0  0  0  0
 16 17  2  0  0  0  0
 17 12  1  0  0  0  0
 19 14  1  0  0  0  0
 20 16  1  0  0  0  0
 20 22  2  0  0  0  0
 21 20  1  0  0  0  0
M  END
>  <minimizedAffinity>
-4.62638569

$$$$

 OpenBabel03272500033D

 22 23  0  0  0  0  0  0  0  0999 V2000
   39.1780   23.1250   34.9720 N   0  0  0  0  0  0  0  0  0  0  0  0
   40.5020   22.9900   34.7070 C   0  0  0  0  0  0  0  0  0  0  0  0
   41.3340   22.3880   35.6510 C   0  0  0  0  0  0  0  0  0  0  0  0
   40.6790   21.9870   36.7880 C   0  0  0  0  0  0  0  0  0  0  0  0
   41.4250   21.4340   37.6630 O   0  0  0  0  0  0  0  0  0  0  0  0
   39.3750   22.1090   37.0730 N   0  0  0  0  0  0  0  0  0  0  0  0
   38.6280   22.7000   36.1170 C   0  0  0  0  0  0  0  0  0  0  0  0
   37.3910   22.8290   36.3590 O   0  0  0  0  0  0  0  0  0  0  0  0
   40.9340   23.3410   33.7730 H   0  0  0  0  0  0  0  0  0  0  0  0
   42.3890   22.2470   35.5110 H   0  0  0  0  0  0  0  0  0  0  0  0
   38.9840   21.7650   37.9760 H   0  0  0  0  0  0  0  0  0  0  0  0
   38.1300   25.1460   34.0840 C   0  0  0  0  0  0  0  0  0  0  0  0
   38.3030   23.7360   34.0280 C   0  0  0  0  0  0  0  0  0  0  0  0
   37.5960   23.0480   33.0450 C   0  0  0  0  0  0  0  0  0  0  0  0
   36.7890   23.7490   32.2010 N   0  0  0  0  0  0  0  0  0  0  0  0
   36.6470   25.0920   32.2800 C   0  0  0  0  0  0  0  0  0  0  0  0
   37.3170   25.7840   33.2190 N   0  0  0  0  0  0  0  0  0  0  0  0
   38.6610   25.7390   34.8360 H   0  0  0  0  0  0  0  0  0  0  0  0
   37.7230   21.9800   32.9980 H   0  0  0  0  0  0  0  0  0  0  0  0
   35.7600   25.7580   31.3320 C   0  0  0  0  0  0  0  0  0  0  0  0
   35.8490   26.8500   31.2230 H   0  0  0  0  0  0  0  0  0  0  0  0
   34.9400   25.0550   30.6850 O   0  0  0  0  0  0  0  0  0  0  0  0
  1  7  1  0  0  0  0
  2  1  1  0  0  0  0
  2  3  2  0  0  0  0
  3  4  1  0  0  0  0
  4  6  1  0  0  0  0
  4  5  2  0  0  0  0
  6 11  1  0  0  0  0
  7  8  2  0  0  0  0
  7  6  1  0  0  0  0
  9  2  1  0  0  0  0
 10  3  1  0  0  0  0
 12 18  1  0  0  0  0
 13 12  1  0  0  0  0
 13  1  1  0  0  0  0
 14 13  2  0  0  0  0
 15 16  2  0  0  0  0
 15 14  1  0  0  0  0
 16 17  1  0  0  0  0
 17 12  2  0  0  0  0
 19 14  1  0  0  0  0
 20 16  1  0  0  0  0
 21 20  1  0  0  0  0
 22 20  2  0  0  0  0
M  END
>  <minimizedAffinity>
-4.19843149

$$$$

 OpenBabel03272500033D

 22 23  0  0  0  0  0  0  0  0999 V2000
   39.2140   24.4290   36.0800 N   0  0  0  0  0  0  0  0  0  0  0  0
   38.7160   23.7710   37.1580 C   0  0  0  0  0  0  0  0  0  0  0  0
   39.4540   22.7360   37.7330 C   0  0  0  0  0  0  0  0  0  0  0  0
   40.6520   22.4980   37.1050 C   0  0  0  0  0  0  0  0  0  0  0  0
   41.3410   21.5550   37.6180 O   0  0  0  0  0  0  0  0  0  0  0  0
   41.1640   23.1330   36.0430 N   0  0  0  0  0  0  0  0  0  0  0  0
   40.3990   24.1230   35.5360 C   0  0  0  0  0  0  0  0  0  0  0  0
   40.8580   24.7410   34.5300 O   0  0  0  0  0  0  0  0  0  0  0  0
   37.7520   24.0310   37.5880 H   0  0  0  0  0  0  0  0  0  0  0  0
   39.1260   22.1720   38.5850 H   0  0  0  0  0  0  0  0  0  0  0  0
   42.0910   22.8660   35.6470 H   0  0  0  0  0  0  0  0  0  0  0  0
   37.7820   25.2190   34.2650 C   0  0  0  0  0  0  0  0  0  0  0  0
   38.4830   25.4900   35.4710 C   0  0  0  0  0  0  0  0  0  0  0  0
   38.4040   26.7860   35.9750 C   0  0  0  0  0  0  0  0  0  0  0  0
   37.6710   27.7130   35.2970 N   0  0  0  0  0  0  0  0  0  0  0  0
   37.0150   27.4230   34.1510 C   0  0  0  0  0  0  0  0  0  0  0  0
   37.0720   26.1800   33.6400 N   0  0  0  0  0  0  0  0  0  0  0  0
   37.8070   24.2180   33.8230 H   0  0  0  0  0  0  0  0  0  0  0  0
   38.9330   26.9960   36.8890 H   0  0  0  0  0  0  0  0  0  0  0  0
   36.2540   28.4810   33.4950 C   0  0  0  0  0  0  0  0  0  0  0  0
   36.3330   28.5680   32.4000 H   0  0  0  0  0  0  0  0  0  0  0  0
   35.5470   29.2400   34.2080 O   0  0  0  0  0  0  0  0  0  0  0  0
  1  2  1  0  0  0  0
  2  9  1  0  0  0  0
  2  3  2  0  0  0  0
  3 10  1  0  0  0  0
  4  5  2  0  0  0  0
  4  3  1  0  0  0  0
  6  4  1  0  0  0  0
  7  6  1  0  0  0  0
  7  1  1  0  0  0  0
  8  7  2  0  0  0  0
 11  6  1  0  0  0  0
 12 13  1  0  0  0  0
 13 14  2  0  0  0  0
 13  1  1  0  0  0  0
 14 19  1  0  0  0  0
 15 14  1  0  0  0  0
 16 15  2  0  0  0  0
 17 16  1  0  0  0  0
 17 12  2  0  0  0  0
 18 12  1  0  0  0  0
 20 16  1  0  0  0  0
 20 22  2  0  0  0  0
 21 20  1  0  0  0  0
M  END
>  <minimizedAffinity>
-4.18099785

$$$$

 OpenBabel03272500033D

 22 23  0  0  0  0  0  0  0  0999 V2000
   38.5400   25.4890   35.3150 N   0  0  0  0  0  0  0  0  0  0  0  0
   38.5240   26.6990   35.9290 C   0  0  0  0  0  0  0  0  0  0  0  0
   37.7560   27.7320   35.3900 C   0  0  0  0  0  0  0  0  0  0  0  0
   37.0790   27.3780   34.2490 C   0  0  0  0  0  0  0  0  0  0  0  0
   36.3700   28.3110   33.7430 O   0  0  0  0  0  0  0  0  0  0  0  0
   37.0790   26.1920   33.6270 N   0  0  0  0  0  0  0  0  0  0  0  0
   37.8430   25.2390   34.2000 C   0  0  0  0  0  0  0  0  0  0  0  0
   37.8630   24.1060   33.6320 O   0  0  0  0  0  0  0  0  0  0  0  0
   39.0960   26.8870   36.8330 H   0  0  0  0  0  0  0  0  0  0  0  0
   37.6930   28.7140   35.8180 H   0  0  0  0  0  0  0  0  0  0  0  0
   36.5220   26.0360   32.7590 H   0  0  0  0  0  0  0  0  0  0  0  0
   40.6180   24.2020   35.3120 C   0  0  0  0  0  0  0  0  0  0  0  0
   39.3160   24.4150   35.8410 C   0  0  0  0  0  0  0  0  0  0  0  0
   38.8880   23.5490   36.8450 C   0  0  0  0  0  0  0  0  0  0  0  0
   39.7260   22.5590   37.2620 N   0  0  0  0  0  0  0  0  0  0  0  0
   40.9600   22.3830   36.7390 C   0  0  0  0  0  0  0  0  0  0  0  0
   41.4010   23.2040   35.7680 N   0  0  0  0  0  0  0  0  0  0  0  0
   41.0070   24.8520   34.5230 H   0  0  0  0  0  0  0  0  0  0  0  0
   37.9030   23.7060   37.2490 H   0  0  0  0  0  0  0  0  0  0  0  0
   41.7870   21.2950   37.2490 C   0  0  0  0  0  0  0  0  0  0  0  0
   41.3290   20.5910   37.9620 H   0  0  0  0  0  0  0  0  0  0  0  0
   42.9790   21.2110   36.8520 O   0  0  0  0  0  0  0  0  0  0  0  0
  1 13  1  0  0  0  0
  1  2  1  0  0  0  0
  2  9  1  0  0  0  0
  3 10  1  0  0  0  0
  3  2  2  0  0  0  0
  4  3  1  0  0  0  0
  5  4  2  0  0  0  0
  6  7  1  0  0  0  0
  6  4  1  0  0  0  0
  7  1  1  0  0  0  0
  8  7  2  0  0  0  0
 11  6  1  0  0  0  0
 12 17  2  0  0  0  0
 12 13  1  0  0  0  0
 13 14  2  0  0  0  0
 14 19  1  0  0  0  0
 14 15  1  0  0  0  0
 16 20  1  0  0  0  0
 16 15  2  0  0  0  0
 17 16  1  0  0  0  0
 18 12  1  0  0  0  0
 20 21  1  0  0  0  0
 22 20  2  0  0  0  0
M  END
>  <minimizedAffinity>
-4.10664749

$$$$

 OpenBabel03272500033D

 22 23  0  0  0  0  0  0  0  0999 V2000
   37.9370   25.6790   34.6140 N   0  0  0  0  0  0  0  0  0  0  0  0
   37.4900   25.3850   33.3670 C   0  0  0  0  0  0  0  0  0  0  0  0
   36.8040   26.3560   32.6370 C   0  0  0  0  0  0  0  0  0  0  0  0
   36.6580   27.5470   33.3030 C   0  0  0  0  0  0  0  0  0  0  0  0
   36.0340   28.4470   32.6490 O   0  0  0  0  0  0  0  0  0  0  0  0
   37.0910   27.8610   34.5310 N   0  0  0  0  0  0  0  0  0  0  0  0
   37.7460   26.8770   35.1820 C   0  0  0  0  0  0  0  0  0  0  0  0
   38.1660   27.1450   36.3470 O   0  0  0  0  0  0  0  0  0  0  0  0
   37.6520   24.4080   32.9200 H   0  0  0  0  0  0  0  0  0  0  0  0
   36.4210   26.1970   31.6460 H   0  0  0  0  0  0  0  0  0  0  0  0
   36.9230   28.8050   34.9390 H   0  0  0  0  0  0  0  0  0  0  0  0
   40.0200   24.5040   35.1130 C   0  0  0  0  0  0  0  0  0  0  0  0
   38.6400   24.7080   35.3850 C   0  0  0  0  0  0  0  0  0  0  0  0
   38.0700   23.9360   36.3940 C   0  0  0  0  0  0  0  0  0  0  0  0
   38.8500   23.0390   37.0590 N   0  0  0  0  0  0  0  0  0  0  0  0
   40.1620   22.8690   36.7770 C   0  0  0  0  0  0  0  0  0  0  0  0
   40.7410   23.6000   35.8080 N   0  0  0  0  0  0  0  0  0  0  0  0
   40.5230   25.0820   34.3320 H   0  0  0  0  0  0  0  0  0  0  0  0
   37.0250   24.0870   36.6030 H   0  0  0  0  0  0  0  0  0  0  0  0
   40.9190   21.8840   37.5430 C   0  0  0  0  0  0  0  0  0  0  0  0
   40.4320   21.4290   38.4190 H   0  0  0  0  0  0  0  0  0  0  0  0
   42.0860   21.6020   37.1670 O   0  0  0  0  0  0  0  0  0  0  0  0
  1  7  1  0  0  0  0
  1 13  1  0  0  0  0
  2  1  1  0  0  0  0
  3  4  1  0  0  0  0
  3  2  2  0  0  0  0
  4  6  1  0  0  0  0
  5  4  2  0  0  0  0
  6 11  1  0  0  0  0
  6  7  1  0  0  0  0
  7  8  2  0  0  0  0
  9  2  1  0  0  0  0
 10  3  1  0  0  0  0
 12 13  2  0  0  0  0
 12 17  1  0  0  0  0
 13 14  1  0  0  0  0
 14 19  1  0  0  0  0
 14 15  2  0  0  0  0
 16 15  1  0  0  0  0
 16 20  1  0  0  0  0
 17 16  2  0  0  0  0
 18 12  1  0  0  0  0
 20 21  1  0  0  0  0
 22 20  2  0  0  0  0
M  END
>  <minimizedAffinity>
-4.06591702

$$$$

 OpenBabel03272500033D

 22 23  0  0  0  0  0  0  0  0999 V2000
   37.7800   26.8950   31.8490 N   0  0  0  0  0  0  0  0  0  0  0  0
   38.8650   27.5890   31.4220 C   0  0  0  0  0  0  0  0  0  0  0  0
   38.7950   28.3060   30.2270 C   0  0  0  0  0  0  0  0  0  0  0  0
   37.5770   28.2150   29.6000 C   0  0  0  0  0  0  0  0  0  0  0  0
   37.4950   28.8660   28.5050 O   0  0  0  0  0  0  0  0  0  0  0  0
   36.4930   27.5390   30.0020 N   0  0  0  0  0  0  0  0  0  0  0  0
   36.6290   26.8670   31.1650 C   0  0  0  0  0  0  0  0  0  0  0  0
   35.6200   26.2170   31.5690 O   0  0  0  0  0  0  0  0  0  0  0  0
   39.7920   27.6020   31.9880 H   0  0  0  0  0  0  0  0  0  0  0  0
   39.6100   28.8770   29.8260 H   0  0  0  0  0  0  0  0  0  0  0  0
   35.6140   27.5410   29.4410 H   0  0  0  0  0  0  0  0  0  0  0  0
   37.4970   26.8250   34.2750 C   0  0  0  0  0  0  0  0  0  0  0  0
   37.8210   26.1530   33.0650 C   0  0  0  0  0  0  0  0  0  0  0  0
   38.1600   24.8050   33.1570 C   0  0  0  0  0  0  0  0  0  0  0  0
   38.1630   24.2080   34.3820 N   0  0  0  0  0  0  0  0  0  0  0  0
   37.8490   24.8760   35.5160 C   0  0  0  0  0  0  0  0  0  0  0  0
   37.5170   26.1780   35.4590 N   0  0  0  0  0  0  0  0  0  0  0  0
   37.2220   27.8840   34.2640 H   0  0  0  0  0  0  0  0  0  0  0  0
   38.4060   24.2920   32.2440 H   0  0  0  0  0  0  0  0  0  0  0  0
   37.8790   24.1530   36.7830 C   0  0  0  0  0  0  0  0  0  0  0  0
   36.9400   24.0730   37.3520 H   0  0  0  0  0  0  0  0  0  0  0  0
   38.9710   23.6560   37.1630 O   0  0  0  0  0  0  0  0  0  0  0  0
  1 13  1  0  0  0  0
  2  1  1  0  0  0  0
  2  9  1  0  0  0  0
  3  2  2  0  0  0  0
  4  6  1  0  0  0  0
  4  3  1  0  0  0  0
  5  4  2  0  0  0  0
  6  7  1  0  0  0  0
  7  8  2  0  0  0  0
  7  1  1  0  0  0  0
 10  3  1  0  0  0  0
 11  6  1  0  0  0  0
 12 17  1  0  0  0  0
 13 14  1  0  0  0  0
 13 12  2  0  0  0  0
 14 15  2  0  0  0  0
 15 16  1  0  0  0  0
 16 20  1  0  0  0  0
 17 16  2  0  0  0  0
 18 12  1  0  0  0  0
 19 14  1  0  0  0  0
 20 22  2  0  0  0  0
 20 21  1  0  0  0  0
M  END
>  <minimizedAffinity>
-4.0059514

$$$$

 OpenBabel03272500033D

 22 23  0  0  0  0  0  0  0  0999 V2000
   38.0130   25.8310   34.7300 N   0  0  0  0  0  0  0  0  0  0  0  0
   37.7400   27.0120   35.3410 C   0  0  0  0  0  0  0  0  0  0  0  0
   36.9680   27.9660   34.6780 C   0  0  0  0  0  0  0  0  0  0  0  0
   36.5600   27.5730   33.4270 C   0  0  0  0  0  0  0  0  0  0  0  0
   35.8510   28.4340   32.8070 O   0  0  0  0  0  0  0  0  0  0  0  0
   36.8150   26.4150   32.8050 N   0  0  0  0  0  0  0  0  0  0  0  0
   37.5670   25.5380   33.5010 C   0  0  0  0  0  0  0  0  0  0  0  0
   37.8250   24.4330   32.9370 O   0  0  0  0  0  0  0  0  0  0  0  0
   38.1090   27.2350   36.3380 H   0  0  0  0  0  0  0  0  0  0  0  0
   36.7110   28.9210   35.0960 H   0  0  0  0  0  0  0  0  0  0  0  0
   36.4490   26.2240   31.8470 H   0  0  0  0  0  0  0  0  0  0  0  0
   38.1500   23.9460   36.2790 C   0  0  0  0  0  0  0  0  0  0  0  0
   38.7990   24.8370   35.3810 C   0  0  0  0  0  0  0  0  0  0  0  0
   40.1710   24.6720   35.2020 C   0  0  0  0  0  0  0  0  0  0  0  0
   40.8100   23.6820   35.8860 N   0  0  0  0  0  0  0  0  0  0  0  0
   40.1630   22.8500   36.7330 C   0  0  0  0  0  0  0  0  0  0  0  0
   38.8390   22.9840   36.9260 N   0  0  0  0  0  0  0  0  0  0  0  0
   37.0740   24.0280   36.4580 H   0  0  0  0  0  0  0  0  0  0  0  0
   40.6670   25.3440   34.5240 H   0  0  0  0  0  0  0  0  0  0  0  0
   40.9320   21.8180   37.4210 C   0  0  0  0  0  0  0  0  0  0  0  0
   40.4290   21.2460   38.2170 H   0  0  0  0  0  0  0  0  0  0  0  0
   42.1270   21.6300   37.0730 O   0  0  0  0  0  0  0  0  0  0  0  0
  1  2  1  0  0  0  0
  1 13  1  0  0  0  0
  2  9  1  0  0  0  0
  3 10  1  0  0  0  0
  3  2  2  0  0  0  0
  4  3  1  0  0  0  0
  5  4  2  0  0  0  0
  6  4  1  0  0  0  0
  6  7  1  0  0  0  0
  7  1  1  0  0  0  0
  8  7  2  0  0  0  0
 11  6  1  0  0  0  0
 12 18  1  0  0  0  0
 12 17  1  0  0  0  0
 13 12  2  0  0  0  0
 14 13  1  0  0  0  0
 14 15  2  0  0  0  0
 15 16  1  0  0  0  0
 16 17  2  0  0  0  0
 16 20  1  0  0  0  0
 19 14  1  0  0  0  0
 20 21  1  0  0  0  0
 22 20  2  0  0  0  0
M  END
>  <minimizedAffinity>
-3.99195337

$$$$

 OpenBabel03272500033D

 22 23  0  0  0  0  0  0  0  0999 V2000
   37.5200   26.3540   32.7580 N   0  0  0  0  0  0  0  0  0  0  0  0
   36.3340   26.2220   32.1110 C   0  0  0  0  0  0  0  0  0  0  0  0
   36.1000   26.9570   30.9480 C   0  0  0  0  0  0  0  0  0  0  0  0
   37.1500   27.7630   30.5840 C   0  0  0  0  0  0  0  0  0  0  0  0
   36.9540   28.4420   29.5220 O   0  0  0  0  0  0  0  0  0  0  0  0
   38.3280   27.9100   31.2050 N   0  0  0  0  0  0  0  0  0  0  0  0
   38.4880   27.1710   32.3240 C   0  0  0  0  0  0  0  0  0  0  0  0
   39.5930   27.2900   32.9320 O   0  0  0  0  0  0  0  0  0  0  0  0
   35.5570   25.5560   32.4760 H   0  0  0  0  0  0  0  0  0  0  0  0
   35.1890   26.9040   30.3830 H   0  0  0  0  0  0  0  0  0  0  0  0
   39.0580   28.5560   30.8360 H   0  0  0  0  0  0  0  0  0  0  0  0
   38.2960   24.2970   33.8230 C   0  0  0  0  0  0  0  0  0  0  0  0
   37.7870   25.6180   33.9480 C   0  0  0  0  0  0  0  0  0  0  0  0
   37.5840   26.1010   35.2390 C   0  0  0  0  0  0  0  0  0  0  0  0
   37.8780   25.2960   36.2980 N   0  0  0  0  0  0  0  0  0  0  0  0
   38.3630   24.0430   36.1450 C   0  0  0  0  0  0  0  0  0  0  0  0
   38.5700   23.5480   34.9110 N   0  0  0  0  0  0  0  0  0  0  0  0
   38.4760   23.8650   32.8340 H   0  0  0  0  0  0  0  0  0  0  0  0
   37.1980   27.1010   35.3390 H   0  0  0  0  0  0  0  0  0  0  0  0
   38.6500   23.2540   37.3380 C   0  0  0  0  0  0  0  0  0  0  0  0
   39.3710   22.4270   37.2470 H   0  0  0  0  0  0  0  0  0  0  0  0
   38.0640   23.5560   38.4100 O   0  0  0  0  0  0  0  0  0  0  0  0
  1 13  1  0  0  0  0
  2  9  1  0  0  0  0
  2  1  1  0  0  0  0
  3  2  2  0  0  0  0
  4  3  1  0  0  0  0
  4  6  1  0  0  0  0
  5  4  2  0  0  0  0
  6  7  1  0  0  0  0
  7  1  1  0  0  0  0
  7  8  2  0  0  0  0
 10  3  1  0  0  0  0
 11  6  1  0  0  0  0
 12 13  2  0  0  0  0
 12 17  1  0  0  0  0
 13 14  1  0  0  0  0
 14 19  1  0  0  0  0
 14 15  2  0  0  0  0
 16 15  1  0  0  0  0
 16 20  1  0  0  0  0
 17 16  2  0  0  0  0
 18 12  1  0  0  0  0
 20 22  2  0  0  0  0
 21 20  1  0  0  0  0
M  END
>  <minimizedAffinity>
-3.94751978

$$$$

 OpenBabel03272500033D

 22 23  0  0  0  0  0  0  0  0999 V2000
   35.1330   30.3500   34.8580 N   0  0  0  0  0  0  0  0  0  0  0  0
   35.8640   31.2130   35.6080 C   0  0  0  0  0  0  0  0  0  0  0  0
   35.2270   31.9890   36.5780 C   0  0  0  0  0  0  0  0  0  0  0  0
   33.8730   31.7740   36.6550 C   0  0  0  0  0  0  0  0  0  0  0  0
   33.2740   32.4750   37.5360 O   0  0  0  0  0  0  0  0  0  0  0  0
   33.1320   30.9290   35.9260 N   0  0  0  0  0  0  0  0  0  0  0  0
   33.8100   30.2100   35.0070 C   0  0  0  0  0  0  0  0  0  0  0  0
   33.1340   29.4020   34.3030 O   0  0  0  0  0  0  0  0  0  0  0  0
   36.9370   31.3170   35.4750 H   0  0  0  0  0  0  0  0  0  0  0  0
   35.7370   32.6920   37.2090 H   0  0  0  0  0  0  0  0  0  0  0  0
   32.1030   30.8470   36.0720 H   0  0  0  0  0  0  0  0  0  0  0  0
   36.3230   28.3030   34.2540 C   0  0  0  0  0  0  0  0  0  0  0  0
   35.7550   29.5450   33.8600 C   0  0  0  0  0  0  0  0  0  0  0  0
   35.8510   29.8880   32.5130 C   0  0  0  0  0  0  0  0  0  0  0  0
   36.4730   29.0310   31.6570 N   0  0  0  0  0  0  0  0  0  0  0  0
   37.0020   27.8550   32.0640 C   0  0  0  0  0  0  0  0  0  0  0  0
   36.9250   27.4950   33.3580 N   0  0  0  0  0  0  0  0  0  0  0  0
   36.2780   27.9800   35.2990 H   0  0  0  0  0  0  0  0  0  0  0  0
   35.4230   30.8280   32.2100 H   0  0  0  0  0  0  0  0  0  0  0  0
   37.6480   27.0000   31.0740 C   0  0  0  0  0  0  0  0  0  0  0  0
   38.4670   27.4320   30.4770 H   0  0  0  0  0  0  0  0  0  0  0  0
   37.2430   25.8150   30.9500 O   0  0  0  0  0  0  0  0  0  0  0  0
  1  7  1  0  0  0  0
  1  2  1  0  0  0  0
  2  3  2  0  0  0  0
  3  4  1  0  0  0  0
  3 10  1  0  0  0  0
  4  5  2  0  0  0  0
  6 11  1  0  0  0  0
  6  4  1  0  0  0  0
  7  6  1  0  0  0  0
  8  7  2  0  0  0  0
  9  2  1  0  0  0  0
 12 18  1  0  0  0  0
 13 12  1  0  0  0  0
 13  1  1  0  0  0  0
 14 13  2  0  0  0  0
 15 16  2  0  0  0  0
 15 14  1  0  0  0  0
 16 17  1  0  0  0  0
 17 12  2  0  0  0  0
 19 14  1  0  0  0  0
 20 16  1  0  0  0  0
 21 20  1  0  0  0  0
 22 20  2  0  0  0  0
M  END
>  <minimizedAffinity>
-3.93191957

$$$$
