
     RDKit          3D

 39 42  0  0  0  0  0  0  0  0999 V2000
   36.2373   30.1787   46.8583 C   0  0  0  0  0  0  0  0  0  0  0  0
   37.0764   30.7305   47.7986 C   0  0  0  0  0  0  0  0  0  0  0  0
   38.0729   31.6518   47.4349 C   0  0  0  0  0  0  0  0  0  0  0  0
   38.1492   31.9610   46.0815 C   0  0  0  0  0  0  0  0  0  0  0  0
   39.0303   32.8303   45.4806 N   0  0  0  0  0  0  0  0  0  0  0  0
   38.7301   32.8114   44.1692 C   0  0  0  0  0  0  0  0  0  0  0  0
   37.7262   31.9852   43.9522 N   0  0  0  0  0  0  0  0  0  0  0  0
   37.3363   31.4365   45.1159 C   0  0  0  0  0  0  0  0  0  0  0  0
   36.3540   30.5200   45.5184 C   0  0  0  0  0  0  0  0  0  0  0  0
   37.4955   30.1436   51.4916 C   0  0  0  0  0  0  0  0  0  0  0  0
   37.8267   30.5765   50.2089 C   0  0  0  0  0  0  0  0  0  0  0  0
   36.9289   30.3584   49.1981 C   0  0  0  0  0  0  0  0  0  0  0  0
   35.7486   29.7197   49.5217 N   0  0  0  0  0  0  0  0  0  0  0  0
   35.4390   29.3061   50.7627 C   0  0  0  0  0  0  0  0  0  0  0  0
   36.3110   29.5204   51.7333 N   0  0  0  0  0  0  0  0  0  0  0  0
   39.4224   33.5813   43.2328 O   0  0  0  0  0  0  0  0  0  0  0  0
   39.5675   31.8450   41.7216 N   0  0  0  0  0  0  0  0  0  0  0  0
   39.1985   33.2459   41.8704 C   0  0  1  0  0  0  0  0  0  0  0  0
   37.8030   33.4432   41.5109 C   0  0  0  0  0  0  0  0  0  0  0  0
   37.6349   33.1193   40.1535 O   0  0  0  0  0  0  0  0  0  0  0  0
   38.0684   31.8778   39.7903 C   0  0  0  0  0  0  0  0  0  0  0  0
   39.4677   31.5943   40.3044 C   0  0  2  0  0  0  0  0  0  0  0  0
   35.4597   29.4644   47.1145 H   0  0  0  0  0  0  0  0  0  0  0  0
   38.7455   32.0983   48.1637 H   0  0  0  0  0  0  0  0  0  0  0  0
   39.7830   33.3910   45.9624 H   0  0  0  0  0  0  0  0  0  0  0  0
   35.7068   30.0995   44.7644 H   0  0  0  0  0  0  0  0  0  0  0  0
   38.2170   30.3236   52.2820 H   0  0  0  0  0  0  0  0  0  0  0  0
   38.7371   31.0745   49.9333 H   0  0  0  0  0  0  0  0  0  0  0  0
   34.4790   28.8200   50.8695 H   0  0  0  0  0  0  0  0  0  0  0  0
   38.9751   31.1545   42.1546 H   0  0  0  0  0  0  0  0  0  0  0  0
   39.8608   33.8057   41.1811 H   0  0  0  0  0  0  0  0  0  0  0  0
   37.6043   34.5585   41.5325 H   0  0  0  0  0  0  0  0  0  0  0  0
   36.9758   32.9831   41.9793 H   0  0  0  0  0  0  0  0  0  0  0  0
   37.3994   31.1275   40.2611 H   0  0  0  0  0  0  0  0  0  0  0  0
   38.0885   31.8245   38.7033 H   0  0  0  0  0  0  0  0  0  0  0  0
   40.1596   32.2700   39.7616 H   0  0  0  0  0  0  0  0  0  0  0  0
   39.8016   30.1649   40.0727 C   0  0  0  0  0  0  0  0  0  0  0  0
   40.6528   29.9005   39.4267 H   0  0  0  0  0  0  0  0  0  0  0  0
   39.1045   29.3020   40.6193 O   0  0  0  0  0  0  0  0  0  0  0  0
  1  2  2  0
  2 12  1  0
  3  2  1  0
  4  3  2  0
  5  4  1  0
  6  5  1  0
  7  6  2  0
  7  8  1  0
  8  9  2  0
  8  4  1  0
  9  1  1  0
 10 15  2  0
 11 10  1  0
 12 13  1  0
 12 11  2  0
 13 14  2  0
 14 15  1  0
 16  6  1  0
 17 18  1  0
 18 16  1  0
 19 18  1  0
 20 19  1  0
 21 20  1  0
 21 22  1  0
 22 17  1  0
  1 23  1  0
  3 24  1  0
  5 25  1  0
  9 26  1  0
 10 27  1  0
 11 28  1  0
 14 29  1  0
 17 30  1  0
 18 31  1  6
 19 32  1  0
 19 33  1  0
 21 34  1  0
 21 35  1  0
 22 36  1  6
 37 38  1  0
 37 39  2  0
 22 37  1  0
M  ISO  8  23  14  24  14  25   9  26  14  27  14  28  14  29  14  30   5
M  ISO  7  31  13  32  13  33  13  34  13  35  13  36  13  38   6
M  END
>  <DihAtoms>  (1) 
20,21,36,37

>  <DihDeg>  (1) 
58.73052244660025

$$$$
