
 OpenBabel03272509153D

 38 40  0  0  1  0  0  0  0  0999 V2000
   37.5190   23.9440   32.4330 C   0  0  0  0  0  0  0  0  0  0  0  0
   37.9800   24.1420   33.7680 C   0  0  0  0  0  0  0  0  0  0  0  0
   37.9360   23.0350   34.6180 C   0  0  0  0  0  0  0  0  0  0  0  0
   37.4720   21.8530   34.1540 N   0  0  0  0  0  0  0  0  0  0  0  0
   37.0440   21.7060   32.8860 C   0  0  0  0  0  0  0  0  0  0  0  0
   37.0690   22.7410   32.0380 N   0  0  0  0  0  0  0  0  0  0  0  0
   37.5050   24.7000   31.6760 H   0  0  0  0  0  0  0  0  0  0  0  0
   36.6780   20.7510   32.5450 H   0  0  0  0  0  0  0  0  0  0  0  0
   38.4270   25.4660   34.0750 N   0  0  0  0  0  0  0  0  0  0  0  0
   39.6810   26.1350   34.3900 C   0  0  0  0  0  0  0  0  0  0  0  0
   39.2820   26.9280   35.6440 C   0  0  0  0  0  0  0  0  0  0  0  0
   37.8100   27.2790   35.4130 C   0  0  0  0  0  0  0  0  0  0  0  0
   37.4670   26.5930   34.1340 C   0  0  1  0  0  0  0  0  0  0  0  0
   40.0770   26.7580   33.5920 H   0  0  0  0  0  0  0  0  0  0  0  0
   40.3920   25.3610   34.7510 H   0  0  0  0  0  0  0  0  0  0  0  0
   39.8360   27.8770   35.6260 H   0  0  0  0  0  0  0  0  0  0  0  0
   39.4120   26.3370   36.5610 H   0  0  0  0  0  0  0  0  0  0  0  0
   37.6520   28.3830   35.3740 H   0  0  0  0  0  0  0  0  0  0  0  0
   37.2080   26.8330   36.2520 H   0  0  0  0  0  0  0  0  0  0  0  0
   36.4430   26.2440   34.0560 H   0  0  0  0  0  0  0  0  0  0  0  0
   36.8680   27.6410   31.9500 C   0  0  0  0  0  0  0  0  0  0  0  0
   35.7880   27.0010   31.8070 O   0  0  0  0  0  0  0  0  0  0  0  0
   37.7950   27.4900   33.0310 N   0  0  0  0  0  0  0  0  0  0  0  0
   37.0530   28.3580   31.1440 H   0  0  0  0  0  0  0  0  0  0  0  0
   38.6670   28.0520   32.9500 H   0  0  0  0  0  0  0  0  0  0  0  0
   38.3830   23.1220   35.9840 C   0  0  0  0  0  0  0  0  0  0  0  0
   37.5000   23.5690   36.9400 C   0  0  0  0  0  0  0  0  0  0  0  0
   37.8430   23.6820   38.2770 C   0  0  0  0  0  0  0  0  0  0  0  0
   39.1220   23.3260   38.6380 C   0  0  0  0  0  0  0  0  0  0  0  0
   40.0610   22.8710   37.7390 C   0  0  0  0  0  0  0  0  0  0  0  0
   39.6310   22.7900   36.4190 C   0  0  0  0  0  0  0  0  0  0  0  0
   36.4980   23.8480   36.6510 H   0  0  0  0  0  0  0  0  0  0  0  0
   37.0890   24.0430   38.9710 H   0  0  0  0  0  0  0  0  0  0  0  0
   39.3850   23.4160   39.6830 H   0  0  0  0  0  0  0  0  0  0  0  0
   41.0520   22.5990   38.0400 H   0  0  0  0  0  0  0  0  0  0  0  0
   40.6050   22.3100   35.4450 C   0  0  0  0  0  0  0  0  0  0  0  0
   40.6560   21.2780   35.1090 H   0  0  0  0  0  0  0  0  0  0  0  0
   41.4710   23.0010   34.8910 O   0  0  0  0  0  0  0  0  0  0  0  0
  1  2  1  0  0  0  0
  2  9  1  0  0  0  0
  2  3  2  0  0  0  0
  3 26  1  0  0  0  0
  4  3  1  0  0  0  0
  5  4  2  0  0  0  0
  6  1  2  0  0  0  0
  6  5  1  0  0  0  0
  7  1  1  0  0  0  0
  8  5  1  0  0  0  0
  9 13  1  0  0  0  0
  9 10  1  0  0  0  0
 10 15  1  0  0  0  0
 10 11  1  0  0  0  0
 11 17  1  0  0  0  0
 12 11  1  0  0  0  0
 12 19  1  0  0  0  0
 13 20  1  6  0  0  0
 13 12  1  0  0  0  0
 14 10  1  0  0  0  0
 16 11  1  0  0  0  0
 18 12  1  0  0  0  0
 21 23  1  0  0  0  0
 22 21  2  0  0  0  0
 23 13  1  0  0  0  0
 24 21  1  0  0  0  0
 25 23  1  0  0  0  0
 26 31  2  0  0  0  0
 26 27  1  0  0  0  0
 27 28  2  0  0  0  0
 28 29  1  0  0  0  0
 28 33  1  0  0  0  0
 29 34  1  0  0  0  0
 30 35  1  0  0  0  0
 30 29  2  0  0  0  0
 31 30  1  0  0  0  0
 32 27  1  0  0  0  0
 36 31  1  0  0  0  0
 37 36  1  0  0  0  0
 38 36  2  0  0  0  0
M  END
>  <minimizedAffinity>
-5.37426424

$$$$

 OpenBabel03272509153D

 38 40  0  0  1  0  0  0  0  0999 V2000
   37.2290   26.0420   33.8410 C   0  0  0  0  0  0  0  0  0  0  0  0
   38.0150   24.9540   34.3280 C   0  0  0  0  0  0  0  0  0  0  0  0
   38.8770   25.2300   35.3910 C   0  0  0  0  0  0  0  0  0  0  0  0
   38.9310   26.4800   35.9030 N   0  0  0  0  0  0  0  0  0  0  0  0
   38.1730   27.4800   35.4160 C   0  0  0  0  0  0  0  0  0  0  0  0
   37.3330   27.2610   34.3980 N   0  0  0  0  0  0  0  0  0  0  0  0
   36.5230   25.9710   33.0410 H   0  0  0  0  0  0  0  0  0  0  0  0
   38.2390   28.4680   35.8440 H   0  0  0  0  0  0  0  0  0  0  0  0
   37.8260   23.7070   33.6530 N   0  0  0  0  0  0  0  0  0  0  0  0
   37.6940   22.3010   34.0030 C   0  0  0  0  0  0  0  0  0  0  0  0
   38.7030   21.6630   33.0360 C   0  0  0  0  0  0  0  0  0  0  0  0
   38.6460   22.5550   31.7930 C   0  0  0  0  0  0  0  0  0  0  0  0
   37.7150   23.6560   32.1760 C   0  0  1  0  0  0  0  0  0  0  0  0
   36.6890   21.8990   33.9060 H   0  0  0  0  0  0  0  0  0  0  0  0
   38.1370   22.1650   35.0140 H   0  0  0  0  0  0  0  0  0  0  0  0
   38.3030   20.6850   32.7360 H   0  0  0  0  0  0  0  0  0  0  0  0
   39.7160   21.6350   33.4600 H   0  0  0  0  0  0  0  0  0  0  0  0
   38.3070   21.9880   30.8950 H   0  0  0  0  0  0  0  0  0  0  0  0
   39.6740   22.9770   31.6180 H   0  0  0  0  0  0  0  0  0  0  0  0
   37.9300   24.6210   31.7310 H   0  0  0  0  0  0  0  0  0  0  0  0
   35.4860   24.1260   31.1600 C   0  0  0  0  0  0  0  0  0  0  0  0
   35.7570   25.3150   30.8280 O   0  0  0  0  0  0  0  0  0  0  0  0
   36.3540   23.2330   31.8650 N   0  0  0  0  0  0  0  0  0  0  0  0
   34.4830   23.8130   30.8500 H   0  0  0  0  0  0  0  0  0  0  0  0
   35.9360   22.3130   32.1140 H   0  0  0  0  0  0  0  0  0  0  0  0
   39.7110   24.2050   35.9620 C   0  0  0  0  0  0  0  0  0  0  0  0
   40.9260   23.9380   35.3740 C   0  0  0  0  0  0  0  0  0  0  0  0
   41.7930   22.9720   35.8580 C   0  0  0  0  0  0  0  0  0  0  0  0
   41.4010   22.2660   36.9720 C   0  0  0  0  0  0  0  0  0  0  0  0
   40.2010   22.4760   37.6150 C   0  0  0  0  0  0  0  0  0  0  0  0
   39.3940   23.4630   37.0610 C   0  0  0  0  0  0  0  0  0  0  0  0
   41.2280   24.4950   34.5000 H   0  0  0  0  0  0  0  0  0  0  0  0
   42.7350   22.8200   35.3380 H   0  0  0  0  0  0  0  0  0  0  0  0
   42.0810   21.5130   37.3460 H   0  0  0  0  0  0  0  0  0  0  0  0
   39.9140   21.9150   38.4810 H   0  0  0  0  0  0  0  0  0  0  0  0
   38.1160   23.7080   37.7220 C   0  0  0  0  0  0  0  0  0  0  0  0
   37.1770   23.2760   37.3870 H   0  0  0  0  0  0  0  0  0  0  0  0
   37.9470   24.4180   38.7230 O   0  0  0  0  0  0  0  0  0  0  0  0
  1  2  2  0  0  0  0
  1  6  1  0  0  0  0
  2  3  1  0  0  0  0
  3  4  2  0  0  0  0
  3 26  1  0  0  0  0
  5  8  1  0  0  0  0
  5  4  1  0  0  0  0
  6  5  2  0  0  0  0
  7  1  1  0  0  0  0
  9 10  1  0  0  0  0
  9  2  1  0  0  0  0
 10 15  1  0  0  0  0
 11 17  1  0  0  0  0
 11 10  1  0  0  0  0
 12 13  1  0  0  0  0
 12 11  1  0  0  0  0
 13 20  1  6  0  0  0
 13  9  1  0  0  0  0
 14 10  1  0  0  0  0
 16 11  1  0  0  0  0
 18 12  1  0  0  0  0
 19 12  1  0  0  0  0
 21 23  1  0  0  0  0
 22 21  2  0  0  0  0
 23 25  1  0  0  0  0
 23 13  1  0  0  0  0
 24 21  1  0  0  0  0
 26 31  1  0  0  0  0
 27 28  1  0  0  0  0
 27 26  2  0  0  0  0
 28 29  2  0  0  0  0
 29 34  1  0  0  0  0
 29 30  1  0  0  0  0
 30 35  1  0  0  0  0
 31 30  2  0  0  0  0
 31 36  1  0  0  0  0
 32 27  1  0  0  0  0
 33 28  1  0  0  0  0
 36 38  2  0  0  0  0
 37 36  1  0  0  0  0
M  END
>  <minimizedAffinity>
-5.1713376

$$$$

 OpenBabel03272509153D

 38 40  0  0  1  0  0  0  0  0999 V2000
   41.6060   22.7480   33.8450 C   0  0  0  0  0  0  0  0  0  0  0  0
   40.5270   23.5420   34.3390 C   0  0  0  0  0  0  0  0  0  0  0  0
   40.3910   24.8220   33.7960 C   0  0  0  0  0  0  0  0  0  0  0  0
   41.2620   25.2450   32.8520 N   0  0  0  0  0  0  0  0  0  0  0  0
   42.2680   24.4660   32.4130 C   0  0  0  0  0  0  0  0  0  0  0  0
   42.4350   23.2320   32.9050 N   0  0  0  0  0  0  0  0  0  0  0  0
   41.8210   21.7500   34.1640 H   0  0  0  0  0  0  0  0  0  0  0  0
   42.9470   24.8310   31.6600 H   0  0  0  0  0  0  0  0  0  0  0  0
   39.7180   22.9250   35.3430 N   0  0  0  0  0  0  0  0  0  0  0  0
   38.4770   22.1650   35.4120 C   0  0  0  0  0  0  0  0  0  0  0  0
   37.7360   22.9180   36.5270 C   0  0  0  0  0  0  0  0  0  0  0  0
   38.8510   23.3980   37.4600 C   0  0  0  0  0  0  0  0  0  0  0  0
   40.1080   22.9840   36.7710 C   0  0  1  0  0  0  0  0  0  0  0  0
   38.6030   21.1050   35.6150 H   0  0  0  0  0  0  0  0  0  0  0  0
   37.9020   22.3810   34.4860 H   0  0  0  0  0  0  0  0  0  0  0  0
   37.1520   22.1790   37.0940 H   0  0  0  0  0  0  0  0  0  0  0  0
   37.1530   23.7620   36.1350 H   0  0  0  0  0  0  0  0  0  0  0  0
   38.7480   22.9630   38.4820 H   0  0  0  0  0  0  0  0  0  0  0  0
   38.8030   24.5210   37.5130 H   0  0  0  0  0  0  0  0  0  0  0  0
   40.9560   23.6420   36.9210 H   0  0  0  0  0  0  0  0  0  0  0  0
   41.7990   21.2210   37.2740 C   0  0  0  0  0  0  0  0  0  0  0  0
   42.7990   21.9250   36.9540 O   0  0  0  0  0  0  0  0  0  0  0  0
   40.4280   21.6230   37.1830 N   0  0  0  0  0  0  0  0  0  0  0  0
   42.0750   20.2290   37.6470 H   0  0  0  0  0  0  0  0  0  0  0  0
   39.7340   20.8860   37.4270 H   0  0  0  0  0  0  0  0  0  0  0  0
   39.3350   25.7040   34.2180 C   0  0  0  0  0  0  0  0  0  0  0  0
   39.5690   26.5580   35.2710 C   0  0  0  0  0  0  0  0  0  0  0  0
   38.6120   27.4420   35.7410 C   0  0  0  0  0  0  0  0  0  0  0  0
   37.3870   27.4480   35.1120 C   0  0  0  0  0  0  0  0  0  0  0  0
   37.0790   26.6230   34.0530 C   0  0  0  0  0  0  0  0  0  0  0  0
   38.0980   25.7680   33.6480 C   0  0  0  0  0  0  0  0  0  0  0  0
   40.5300   26.5490   35.7610 H   0  0  0  0  0  0  0  0  0  0  0  0
   38.8720   28.0840   36.5780 H   0  0  0  0  0  0  0  0  0  0  0  0
   36.6440   28.1390   35.4830 H   0  0  0  0  0  0  0  0  0  0  0  0
   36.1200   26.6430   33.5770 H   0  0  0  0  0  0  0  0  0  0  0  0
   37.8000   24.8830   32.5270 C   0  0  0  0  0  0  0  0  0  0  0  0
   38.1400   25.0680   31.5120 H   0  0  0  0  0  0  0  0  0  0  0  0
   37.1410   23.8360   32.5910 O   0  0  0  0  0  0  0  0  0  0  0  0
  1  7  1  0  0  0  0
  1  2  1  0  0  0  0
  2  9  1  0  0  0  0
  3 26  1  0  0  0  0
  3  2  2  0  0  0  0
  4  3  1  0  0  0  0
  5  4  2  0  0  0  0
  5  6  1  0  0  0  0
  6  1  2  0  0  0  0
  8  5  1  0  0  0  0
  9 10  1  0  0  0  0
  9 13  1  0  0  0  0
 10 14  1  0  0  0  0
 10 11  1  0  0  0  0
 11 16  1  0  0  0  0
 11 12  1  0  0  0  0
 12 19  1  0  0  0  0
 12 18  1  0  0  0  0
 13 20  1  1  0  0  0
 13 23  1  0  0  0  0
 13 12  1  0  0  0  0
 15 10  1  0  0  0  0
 17 11  1  0  0  0  0
 21 24  1  0  0  0  0
 22 21  2  0  0  0  0
 23 21  1  0  0  0  0
 23 25  1  0  0  0  0
 26 27  1  0  0  0  0
 27 28  2  0  0  0  0
 27 32  1  0  0  0  0
 28 33  1  0  0  0  0
 29 34  1  0  0  0  0
 29 28  1  0  0  0  0
 30 29  2  0  0  0  0
 31 30  1  0  0  0  0
 31 26  2  0  0  0  0
 35 30  1  0  0  0  0
 36 38  2  0  0  0  0
 36 31  1  0  0  0  0
 37 36  1  0  0  0  0
M  END
>  <minimizedAffinity>
-4.99221373

$$$$

 OpenBabel03272509153D

 38 40  0  0  1  0  0  0  0  0999 V2000
   37.4080   23.9440   32.4310 C   0  0  0  0  0  0  0  0  0  0  0  0
   38.3850   23.8920   33.4700 C   0  0  0  0  0  0  0  0  0  0  0  0
   38.4480   22.7110   34.2130 C   0  0  0  0  0  0  0  0  0  0  0  0
   37.6050   21.6930   33.9260 N   0  0  0  0  0  0  0  0  0  0  0  0
   36.6960   21.7810   32.9370 C   0  0  0  0  0  0  0  0  0  0  0  0
   36.6010   22.8940   32.2000 N   0  0  0  0  0  0  0  0  0  0  0  0
   37.2560   24.7790   31.7800 H   0  0  0  0  0  0  0  0  0  0  0  0
   36.0370   20.9530   32.7330 H   0  0  0  0  0  0  0  0  0  0  0  0
   39.1790   25.0710   33.6270 N   0  0  0  0  0  0  0  0  0  0  0  0
   40.5710   25.4630   33.4620 C   0  0  0  0  0  0  0  0  0  0  0  0
   40.8360   26.1720   34.7990 C   0  0  0  0  0  0  0  0  0  0  0  0
   39.4910   26.8080   35.1590 C   0  0  0  0  0  0  0  0  0  0  0  0
   38.5660   26.3400   34.0850 C   0  0  1  0  0  0  0  0  0  0  0  0
   40.7680   26.0880   32.5940 H   0  0  0  0  0  0  0  0  0  0  0  0
   41.1860   24.5380   33.4980 H   0  0  0  0  0  0  0  0  0  0  0  0
   41.5300   27.0010   34.6020 H   0  0  0  0  0  0  0  0  0  0  0  0
   41.1670   25.4700   35.5760 H   0  0  0  0  0  0  0  0  0  0  0  0
   39.5640   27.9190   35.2190 H   0  0  0  0  0  0  0  0  0  0  0  0
   39.1600   26.3880   36.1490 H   0  0  0  0  0  0  0  0  0  0  0  0
   37.5370   26.1930   34.3910 H   0  0  0  0  0  0  0  0  0  0  0  0
   37.4430   27.7140   32.3320 C   0  0  0  0  0  0  0  0  0  0  0  0
   36.2760   27.3010   32.5910 O   0  0  0  0  0  0  0  0  0  0  0  0
   38.6470   27.2780   32.9710 N   0  0  0  0  0  0  0  0  0  0  0  0
   37.4640   28.4700   31.5410 H   0  0  0  0  0  0  0  0  0  0  0  0
   39.5260   27.6780   32.5810 H   0  0  0  0  0  0  0  0  0  0  0  0
   39.4000   22.5500   35.2810 C   0  0  0  0  0  0  0  0  0  0  0  0
   40.6470   22.0500   34.9840 C   0  0  0  0  0  0  0  0  0  0  0  0
   41.6250   21.8650   35.9470 C   0  0  0  0  0  0  0  0  0  0  0  0
   41.3130   22.2030   37.2440 C   0  0  0  0  0  0  0  0  0  0  0  0
   40.0870   22.7080   37.6180 C   0  0  0  0  0  0  0  0  0  0  0  0
   39.1660   22.8600   36.5880 C   0  0  0  0  0  0  0  0  0  0  0  0
   40.8860   21.7860   33.9650 H   0  0  0  0  0  0  0  0  0  0  0  0
   42.5850   21.4650   35.6340 H   0  0  0  0  0  0  0  0  0  0  0  0
   42.0790   22.0570   37.9920 H   0  0  0  0  0  0  0  0  0  0  0  0
   39.8640   22.9650   38.6330 H   0  0  0  0  0  0  0  0  0  0  0  0
   37.8590   23.3950   36.9540 C   0  0  0  0  0  0  0  0  0  0  0  0
   36.9700   22.7800   37.0590 H   0  0  0  0  0  0  0  0  0  0  0  0
   37.6070   24.5850   37.1880 O   0  0  0  0  0  0  0  0  0  0  0  0
  1  2  1  0  0  0  0
  2  9  1  0  0  0  0
  2  3  2  0  0  0  0
  3 26  1  0  0  0  0
  4  3  1  0  0  0  0
  5  4  2  0  0  0  0
  6  1  2  0  0  0  0
  6  5  1  0  0  0  0
  7  1  1  0  0  0  0
  8  5  1  0  0  0  0
  9 13  1  0  0  0  0
 10 15  1  0  0  0  0
 10  9  1  0  0  0  0
 10 11  1  0  0  0  0
 11 12  1  0  0  0  0
 11 17  1  0  0  0  0
 12 18  1  0  0  0  0
 12 19  1  0  0  0  0
 13 20  1  1  0  0  0
 13 12  1  0  0  0  0
 14 10  1  0  0  0  0
 16 11  1  0  0  0  0
 21 22  2  0  0  0  0
 21 23  1  0  0  0  0
 23 13  1  0  0  0  0
 24 21  1  0  0  0  0
 25 23  1  0  0  0  0
 26 31  1  0  0  0  0
 27 26  2  0  0  0  0
 27 28  1  0  0  0  0
 28 29  2  0  0  0  0
 29 30  1  0  0  0  0
 29 34  1  0  0  0  0
 30 35  1  0  0  0  0
 31 36  1  0  0  0  0
 31 30  2  0  0  0  0
 32 27  1  0  0  0  0
 33 28  1  0  0  0  0
 36 37  1  0  0  0  0
 36 38  2  0  0  0  0
M  END
>  <minimizedAffinity>
-4.96242571

$$$$

 OpenBabel03272509153D

 38 40  0  0  1  0  0  0  0  0999 V2000
   37.1780   25.8370   32.8750 C   0  0  0  0  0  0  0  0  0  0  0  0
   37.1520   24.4110   32.8200 C   0  0  0  0  0  0  0  0  0  0  0  0
   36.3650   23.8360   31.8200 C   0  0  0  0  0  0  0  0  0  0  0  0
   35.6790   24.6310   30.9680 N   0  0  0  0  0  0  0  0  0  0  0  0
   35.7290   25.9730   31.0520 C   0  0  0  0  0  0  0  0  0  0  0  0
   36.4710   26.5660   31.9950 N   0  0  0  0  0  0  0  0  0  0  0  0
   37.7440   26.4080   33.5810 H   0  0  0  0  0  0  0  0  0  0  0  0
   35.1700   26.5810   30.3590 H   0  0  0  0  0  0  0  0  0  0  0  0
   37.9370   23.7430   33.8120 N   0  0  0  0  0  0  0  0  0  0  0  0
   38.4960   22.4160   34.0310 C   0  0  0  0  0  0  0  0  0  0  0  0
   38.0410   22.1430   35.4730 C   0  0  0  0  0  0  0  0  0  0  0  0
   38.0440   23.5230   36.1360 C   0  0  0  0  0  0  0  0  0  0  0  0
   38.3900   24.4600   35.0270 C   0  0  1  0  0  0  0  0  0  0  0  0
   39.5720   22.3480   33.8970 H   0  0  0  0  0  0  0  0  0  0  0  0
   37.9180   21.7020   33.4050 H   0  0  0  0  0  0  0  0  0  0  0  0
   38.8320   21.5590   35.9640 H   0  0  0  0  0  0  0  0  0  0  0  0
   37.0430   21.6850   35.5080 H   0  0  0  0  0  0  0  0  0  0  0  0
   38.7630   23.5680   36.9870 H   0  0  0  0  0  0  0  0  0  0  0  0
   37.0020   23.7390   36.4990 H   0  0  0  0  0  0  0  0  0  0  0  0
   37.9400   25.4430   35.0950 H   0  0  0  0  0  0  0  0  0  0  0  0
   40.4600   25.8490   34.9420 C   0  0  0  0  0  0  0  0  0  0  0  0
   39.8540   26.9580   34.9260 O   0  0  0  0  0  0  0  0  0  0  0  0
   39.8430   24.5580   34.9470 N   0  0  0  0  0  0  0  0  0  0  0  0
   41.5500   25.9550   34.9540 H   0  0  0  0  0  0  0  0  0  0  0  0
   40.5000   23.7520   34.8920 H   0  0  0  0  0  0  0  0  0  0  0  0
   36.2720   22.4070   31.6720 C   0  0  0  0  0  0  0  0  0  0  0  0
   35.2370   21.7450   32.2910 C   0  0  0  0  0  0  0  0  0  0  0  0
   35.0680   20.3740   32.2000 C   0  0  0  0  0  0  0  0  0  0  0  0
   35.9840   19.6680   31.4530 C   0  0  0  0  0  0  0  0  0  0  0  0
   37.0450   20.2600   30.8050 C   0  0  0  0  0  0  0  0  0  0  0  0
   37.1380   21.6390   30.9510 C   0  0  0  0  0  0  0  0  0  0  0  0
   34.5220   22.3030   32.8760 H   0  0  0  0  0  0  0  0  0  0  0  0
   34.2250   19.9240   32.7180 H   0  0  0  0  0  0  0  0  0  0  0  0
   35.8480   18.5980   31.3850 H   0  0  0  0  0  0  0  0  0  0  0  0
   37.7480   19.6930   30.2290 H   0  0  0  0  0  0  0  0  0  0  0  0
   38.2520   22.2940   30.2750 C   0  0  0  0  0  0  0  0  0  0  0  0
   38.1470   22.8410   29.3420 H   0  0  0  0  0  0  0  0  0  0  0  0
   39.4270   22.3090   30.6690 O   0  0  0  0  0  0  0  0  0  0  0  0
  1  7  1  0  0  0  0
  2  1  1  0  0  0  0
  2  9  1  0  0  0  0
  3  2  2  0  0  0  0
  4  5  2  0  0  0  0
  4  3  1  0  0  0  0
  5  6  1  0  0  0  0
  6  1  2  0  0  0  0
  8  5  1  0  0  0  0
  9 10  1  0  0  0  0
  9 13  1  0  0  0  0
 10 11  1  0  0  0  0
 11 17  1  0  0  0  0
 11 16  1  0  0  0  0
 11 12  1  0  0  0  0
 12 19  1  0  0  0  0
 12 18  1  0  0  0  0
 13 20  1  1  0  0  0
 13 12  1  0  0  0  0
 14 10  1  0  0  0  0
 15 10  1  0  0  0  0
 21 23  1  0  0  0  0
 21 24  1  0  0  0  0
 22 21  2  0  0  0  0
 23 13  1  0  0  0  0
 25 23  1  0  0  0  0
 26  3  1  0  0  0  0
 26 27  1  0  0  0  0
 27 32  1  0  0  0  0
 28 27  2  0  0  0  0
 28 33  1  0  0  0  0
 29 28  1  0  0  0  0
 30 31  1  0  0  0  0
 30 29  2  0  0  0  0
 31 26  2  0  0  0  0
 34 29  1  0  0  0  0
 35 30  1  0  0  0  0
 36 38  2  0  0  0  0
 36 31  1  0  0  0  0
 37 36  1  0  0  0  0
M  END
>  <minimizedAffinity>
-4.93623686

$$$$

 OpenBabel03272509153D

 38 40  0  0  1  0  0  0  0  0999 V2000
   32.8190   31.4510   36.5590 C   0  0  0  0  0  0  0  0  0  0  0  0
   33.3480   30.7310   35.4460 C   0  0  0  0  0  0  0  0  0  0  0  0
   34.7180   30.8590   35.2110 C   0  0  0  0  0  0  0  0  0  0  0  0
   35.4680   31.6370   36.0240 N   0  0  0  0  0  0  0  0  0  0  0  0
   34.9310   32.3010   37.0650 C   0  0  0  0  0  0  0  0  0  0  0  0
   33.6220   32.2070   37.3270 N   0  0  0  0  0  0  0  0  0  0  0  0
   31.7930   31.4370   36.8600 H   0  0  0  0  0  0  0  0  0  0  0  0
   35.5540   32.9150   37.6950 H   0  0  0  0  0  0  0  0  0  0  0  0
   32.3970   29.9680   34.6980 N   0  0  0  0  0  0  0  0  0  0  0  0
   32.2700   29.4210   33.3550 C   0  0  0  0  0  0  0  0  0  0  0  0
   30.8620   29.9020   32.9750 C   0  0  0  0  0  0  0  0  0  0  0  0
   30.0950   29.9030   34.3000 C   0  0  0  0  0  0  0  0  0  0  0  0
   31.1230   29.5320   35.3170 C   0  0  1  0  0  0  0  0  0  0  0  0
   32.3910   28.3420   33.2900 H   0  0  0  0  0  0  0  0  0  0  0  0
   32.9590   29.9910   32.6950 H   0  0  0  0  0  0  0  0  0  0  0  0
   30.4030   29.1240   32.3500 H   0  0  0  0  0  0  0  0  0  0  0  0
   30.8790   30.9030   32.5240 H   0  0  0  0  0  0  0  0  0  0  0  0
   29.2310   29.1990   34.2760 H   0  0  0  0  0  0  0  0  0  0  0  0
   29.7350   30.9510   34.4950 H   0  0  0  0  0  0  0  0  0  0  0  0
   30.9870   29.9780   36.2960 H   0  0  0  0  0  0  0  0  0  0  0  0
   31.1790   27.4580   36.7010 C   0  0  0  0  0  0  0  0  0  0  0  0
   31.2260   28.0600   37.8110 O   0  0  0  0  0  0  0  0  0  0  0  0
   31.1700   28.0780   35.4110 N   0  0  0  0  0  0  0  0  0  0  0  0
   31.1430   26.3680   36.8050 H   0  0  0  0  0  0  0  0  0  0  0  0
   31.1980   27.4220   34.6030 H   0  0  0  0  0  0  0  0  0  0  0  0
   35.3560   30.1720   34.1180 C   0  0  0  0  0  0  0  0  0  0  0  0
   35.8330   28.8980   34.3280 C   0  0  0  0  0  0  0  0  0  0  0  0
   36.4580   28.1640   33.3340 C   0  0  0  0  0  0  0  0  0  0  0  0
   36.5930   28.7520   32.0960 C   0  0  0  0  0  0  0  0  0  0  0  0
   36.1410   30.0210   31.8110 C   0  0  0  0  0  0  0  0  0  0  0  0
   35.5280   30.6860   32.8680 C   0  0  0  0  0  0  0  0  0  0  0  0
   35.7260   28.4430   35.2990 H   0  0  0  0  0  0  0  0  0  0  0  0
   36.8080   27.1640   33.5770 H   0  0  0  0  0  0  0  0  0  0  0  0
   37.0810   28.1740   31.3240 H   0  0  0  0  0  0  0  0  0  0  0  0
   36.2560   30.4620   30.8420 H   0  0  0  0  0  0  0  0  0  0  0  0
   35.0390   32.0330   32.5940 C   0  0  0  0  0  0  0  0  0  0  0  0
   35.6060   32.9330   32.8200 H   0  0  0  0  0  0  0  0  0  0  0  0
   33.9460   32.3130   32.0830 O   0  0  0  0  0  0  0  0  0  0  0  0
  1  7  1  0  0  0  0
  1  6  1  0  0  0  0
  2  1  2  0  0  0  0
  3  2  1  0  0  0  0
  3  4  2  0  0  0  0
  4  5  1  0  0  0  0
  5  6  2  0  0  0  0
  5  8  1  0  0  0  0
  9 13  1  0  0  0  0
  9  2  1  0  0  0  0
 10  9  1  0  0  0  0
 11 10  1  0  0  0  0
 11 12  1  0  0  0  0
 12 19  1  0  0  0  0
 12 13  1  0  0  0  0
 13 23  1  0  0  0  0
 13 20  1  1  0  0  0
 14 10  1  0  0  0  0
 15 10  1  0  0  0  0
 16 11  1  0  0  0  0
 17 11  1  0  0  0  0
 18 12  1  0  0  0  0
 21 24  1  0  0  0  0
 21 22  2  0  0  0  0
 23 21  1  0  0  0  0
 25 23  1  0  0  0  0
 26 27  1  0  0  0  0
 26  3  1  0  0  0  0
 27 32  1  0  0  0  0
 28 33  1  0  0  0  0
 28 27  2  0  0  0  0
 29 28  1  0  0  0  0
 30 29  2  0  0  0  0
 30 31  1  0  0  0  0
 31 26  2  0  0  0  0
 34 29  1  0  0  0  0
 35 30  1  0  0  0  0
 36 37  1  0  0  0  0
 36 31  1  0  0  0  0
 38 36  2  0  0  0  0
M  END
>  <minimizedAffinity>
-4.9076128

$$$$

 OpenBabel03272509153D

 38 40  0  0  1  0  0  0  0  0999 V2000
   37.3680   23.5690   32.4120 C   0  0  0  0  0  0  0  0  0  0  0  0
   37.8260   23.8400   33.7370 C   0  0  0  0  0  0  0  0  0  0  0  0
   37.9370   22.7460   34.5980 C   0  0  0  0  0  0  0  0  0  0  0  0
   37.6150   21.5100   34.1550 N   0  0  0  0  0  0  0  0  0  0  0  0
   37.1860   21.2950   32.8970 C   0  0  0  0  0  0  0  0  0  0  0  0
   37.0650   22.3150   32.0380 N   0  0  0  0  0  0  0  0  0  0  0  0
   37.2460   24.3080   31.6490 H   0  0  0  0  0  0  0  0  0  0  0  0
   36.9350   20.2980   32.5730 H   0  0  0  0  0  0  0  0  0  0  0  0
   38.1090   25.2130   34.0210 N   0  0  0  0  0  0  0  0  0  0  0  0
   37.4690   26.3270   34.7060 C   0  0  0  0  0  0  0  0  0  0  0  0
   37.6000   27.4340   33.6490 C   0  0  0  0  0  0  0  0  0  0  0  0
   38.9190   27.1180   32.9380 C   0  0  0  0  0  0  0  0  0  0  0  0
   39.3700   25.8370   33.5560 C   0  0  1  0  0  0  0  0  0  0  0  0
   37.9110   26.5880   35.6640 H   0  0  0  0  0  0  0  0  0  0  0  0
   36.3810   26.1050   34.7590 H   0  0  0  0  0  0  0  0  0  0  0  0
   37.7530   28.3830   34.1810 H   0  0  0  0  0  0  0  0  0  0  0  0
   36.7570   27.4310   32.9460 H   0  0  0  0  0  0  0  0  0  0  0  0
   39.6580   27.9450   33.0560 H   0  0  0  0  0  0  0  0  0  0  0  0
   38.6970   26.9510   31.8480 H   0  0  0  0  0  0  0  0  0  0  0  0
   39.9190   25.1740   32.8980 H   0  0  0  0  0  0  0  0  0  0  0  0
   41.5590   25.8830   34.7520 C   0  0  0  0  0  0  0  0  0  0  0  0
   42.2070   25.3100   33.8300 O   0  0  0  0  0  0  0  0  0  0  0  0
   40.1530   26.1540   34.7450 N   0  0  0  0  0  0  0  0  0  0  0  0
   42.1860   26.1730   35.6010 H   0  0  0  0  0  0  0  0  0  0  0  0
   39.7780   26.5730   35.6210 H   0  0  0  0  0  0  0  0  0  0  0  0
   38.3940   22.9060   35.9530 C   0  0  0  0  0  0  0  0  0  0  0  0
   37.4850   23.2730   36.9180 C   0  0  0  0  0  0  0  0  0  0  0  0
   37.8360   23.4460   38.2470 C   0  0  0  0  0  0  0  0  0  0  0  0
   39.1530   23.2350   38.5900 C   0  0  0  0  0  0  0  0  0  0  0  0
   40.1190   22.8670   37.6810 C   0  0  0  0  0  0  0  0  0  0  0  0
   39.6780   22.7160   36.3710 C   0  0  0  0  0  0  0  0  0  0  0  0
   36.4550   23.4370   36.6440 H   0  0  0  0  0  0  0  0  0  0  0  0
   37.0610   23.7370   38.9500 H   0  0  0  0  0  0  0  0  0  0  0  0
   39.4220   23.3720   39.6270 H   0  0  0  0  0  0  0  0  0  0  0  0
   41.1390   22.7080   37.9680 H   0  0  0  0  0  0  0  0  0  0  0  0
   40.6810   22.3260   35.3860 C   0  0  0  0  0  0  0  0  0  0  0  0
   40.7170   22.7280   34.3770 H   0  0  0  0  0  0  0  0  0  0  0  0
   41.5950   21.5090   35.5720 O   0  0  0  0  0  0  0  0  0  0  0  0
  1  2  1  0  0  0  0
  2  9  1  0  0  0  0
  2  3  2  0  0  0  0
  3 26  1  0  0  0  0
  4  3  1  0  0  0  0
  5  4  2  0  0  0  0
  6  1  2  0  0  0  0
  6  5  1  0  0  0  0
  7  1  1  0  0  0  0
  8  5  1  0  0  0  0
  9 10  1  0  0  0  0
 10 15  1  0  0  0  0
 10 14  1  0  0  0  0
 11 16  1  0  0  0  0
 11 10  1  0  0  0  0
 12 18  1  0  0  0  0
 12 13  1  0  0  0  0
 12 11  1  0  0  0  0
 13 20  1  6  0  0  0
 13  9  1  0  0  0  0
 13 23  1  0  0  0  0
 17 11  1  0  0  0  0
 19 12  1  0  0  0  0
 21 24  1  0  0  0  0
 22 21  2  0  0  0  0
 23 21  1  0  0  0  0
 23 25  1  0  0  0  0
 26 31  2  0  0  0  0
 26 27  1  0  0  0  0
 27 28  2  0  0  0  0
 28 29  1  0  0  0  0
 28 33  1  0  0  0  0
 29 34  1  0  0  0  0
 30 35  1  0  0  0  0
 30 29  2  0  0  0  0
 31 30  1  0  0  0  0
 32 27  1  0  0  0  0
 36 38  2  0  0  0  0
 36 31  1  0  0  0  0
 37 36  1  0  0  0  0
M  END
>  <minimizedAffinity>
-4.88841248

$$$$

 OpenBabel03272509153D

 38 40  0  0  1  0  0  0  0  0999 V2000
   42.5580   24.7860   33.5310 C   0  0  0  0  0  0  0  0  0  0  0  0
   41.1890   25.1120   33.7700 C   0  0  0  0  0  0  0  0  0  0  0  0
   40.8680   26.4700   33.8240 C   0  0  0  0  0  0  0  0  0  0  0  0
   41.8390   27.3950   33.6520 N   0  0  0  0  0  0  0  0  0  0  0  0
   43.1200   27.0470   33.4290 C   0  0  0  0  0  0  0  0  0  0  0  0
   43.4720   25.7570   33.3690 N   0  0  0  0  0  0  0  0  0  0  0  0
   42.9410   23.7900   33.4560 H   0  0  0  0  0  0  0  0  0  0  0  0
   43.8730   27.8070   33.2970 H   0  0  0  0  0  0  0  0  0  0  0  0
   40.3100   23.9960   33.9350 N   0  0  0  0  0  0  0  0  0  0  0  0
   39.6220   23.0310   33.0890 C   0  0  0  0  0  0  0  0  0  0  0  0
   38.1950   23.1130   33.6540 C   0  0  0  0  0  0  0  0  0  0  0  0
   38.3970   23.4080   35.1420 C   0  0  0  0  0  0  0  0  0  0  0  0
   39.8740   23.5690   35.2850 C   0  0  1  0  0  0  0  0  0  0  0  0
   40.0390   22.0280   33.1100 H   0  0  0  0  0  0  0  0  0  0  0  0
   39.5550   23.4680   32.0690 H   0  0  0  0  0  0  0  0  0  0  0  0
   37.7570   22.1070   33.5920 H   0  0  0  0  0  0  0  0  0  0  0  0
   37.6060   23.9010   33.1670 H   0  0  0  0  0  0  0  0  0  0  0  0
   37.9820   22.5950   35.7830 H   0  0  0  0  0  0  0  0  0  0  0  0
   37.8890   24.3830   35.3770 H   0  0  0  0  0  0  0  0  0  0  0  0
   40.1910   24.2760   36.0440 H   0  0  0  0  0  0  0  0  0  0  0  0
   40.7030   21.8300   36.8700 C   0  0  0  0  0  0  0  0  0  0  0  0
   40.5310   22.5290   37.9100 O   0  0  0  0  0  0  0  0  0  0  0  0
   40.4570   22.2540   35.5250 N   0  0  0  0  0  0  0  0  0  0  0  0
   41.0740   20.8230   37.0870 H   0  0  0  0  0  0  0  0  0  0  0  0
   40.7210   21.5670   34.7890 H   0  0  0  0  0  0  0  0  0  0  0  0
   39.5170   26.9100   34.0540 C   0  0  0  0  0  0  0  0  0  0  0  0
   39.1200   27.1780   35.3440 C   0  0  0  0  0  0  0  0  0  0  0  0
   37.8410   27.6080   35.6560 C   0  0  0  0  0  0  0  0  0  0  0  0
   36.9520   27.7680   34.6180 C   0  0  0  0  0  0  0  0  0  0  0  0
   37.2750   27.5200   33.3030 C   0  0  0  0  0  0  0  0  0  0  0  0
   38.5790   27.0910   33.0810 C   0  0  0  0  0  0  0  0  0  0  0  0
   39.8210   27.0500   36.1540 H   0  0  0  0  0  0  0  0  0  0  0  0
   37.6040   27.7990   36.7000 H   0  0  0  0  0  0  0  0  0  0  0  0
   35.9550   28.1040   34.8680 H   0  0  0  0  0  0  0  0  0  0  0  0
   36.5680   27.6500   32.5090 H   0  0  0  0  0  0  0  0  0  0  0  0
   38.9500   26.8220   31.6960 C   0  0  0  0  0  0  0  0  0  0  0  0
   39.5040   27.5230   31.0780 H   0  0  0  0  0  0  0  0  0  0  0  0
   38.6890   25.7850   31.0680 O   0  0  0  0  0  0  0  0  0  0  0  0
  1  2  1  0  0  0  0
  2  3  2  0  0  0  0
  2  9  1  0  0  0  0
  3 26  1  0  0  0  0
  4  3  1  0  0  0  0
  5  4  2  0  0  0  0
  6  5  1  0  0  0  0
  6  1  2  0  0  0  0
  7  1  1  0  0  0  0
  8  5  1  0  0  0  0
  9 13  1  0  0  0  0
 10 14  1  0  0  0  0
 10 11  1  0  0  0  0
 10  9  1  0  0  0  0
 11 12  1  0  0  0  0
 12 13  1  0  0  0  0
 12 19  1  0  0  0  0
 12 18  1  0  0  0  0
 13 23  1  0  0  0  0
 13 20  1  1  0  0  0
 15 10  1  0  0  0  0
 16 11  1  0  0  0  0
 17 11  1  0  0  0  0
 21 24  1  0  0  0  0
 21 22  2  0  0  0  0
 23 21  1  0  0  0  0
 25 23  1  0  0  0  0
 26 27  1  0  0  0  0
 27 28  2  0  0  0  0
 27 32  1  0  0  0  0
 28 33  1  0  0  0  0
 29 34  1  0  0  0  0
 29 28  1  0  0  0  0
 30 29  2  0  0  0  0
 31 30  1  0  0  0  0
 31 26  2  0  0  0  0
 35 30  1  0  0  0  0
 36 31  1  0  0  0  0
 37 36  1  0  0  0  0
 38 36  2  0  0  0  0
M  END
>  <minimizedAffinity>
-4.78194427

$$$$

 OpenBabel03272509153D

 38 40  0  0  1  0  0  0  0  0999 V2000
   37.1240   25.7770   32.4800 C   0  0  0  0  0  0  0  0  0  0  0  0
   37.2320   24.3560   32.5550 C   0  0  0  0  0  0  0  0  0  0  0  0
   36.3070   23.6170   31.8150 C   0  0  0  0  0  0  0  0  0  0  0  0
   35.3720   24.2590   31.0790 N   0  0  0  0  0  0  0  0  0  0  0  0
   35.3020   25.6030   31.0350 C   0  0  0  0  0  0  0  0  0  0  0  0
   36.1700   26.3500   31.7280 N   0  0  0  0  0  0  0  0  0  0  0  0
   37.7710   26.4630   32.9850 H   0  0  0  0  0  0  0  0  0  0  0  0
   34.5440   26.0870   30.4400 H   0  0  0  0  0  0  0  0  0  0  0  0
   38.2810   23.8610   33.3920 N   0  0  0  0  0  0  0  0  0  0  0  0
   39.7180   23.6450   33.3070 C   0  0  0  0  0  0  0  0  0  0  0  0
   39.8270   22.2000   33.8180 C   0  0  0  0  0  0  0  0  0  0  0  0
   38.6990   22.0800   34.8460 C   0  0  0  0  0  0  0  0  0  0  0  0
   37.9920   23.3920   34.7680 C   0  0  1  0  0  0  0  0  0  0  0  0
   40.3190   24.3510   33.8740 H   0  0  0  0  0  0  0  0  0  0  0  0
   39.9850   23.5920   32.2290 H   0  0  0  0  0  0  0  0  0  0  0  0
   40.7690   22.1170   34.3770 H   0  0  0  0  0  0  0  0  0  0  0  0
   39.7080   21.4690   33.0070 H   0  0  0  0  0  0  0  0  0  0  0  0
   39.0930   21.8550   35.8650 H   0  0  0  0  0  0  0  0  0  0  0  0
   38.0060   21.2600   34.5100 H   0  0  0  0  0  0  0  0  0  0  0  0
   36.9250   23.3550   34.9560 H   0  0  0  0  0  0  0  0  0  0  0  0
   38.2370   24.3650   37.0520 C   0  0  0  0  0  0  0  0  0  0  0  0
   37.2790   23.7140   37.5590 O   0  0  0  0  0  0  0  0  0  0  0  0
   38.6480   24.3200   35.6810 N   0  0  0  0  0  0  0  0  0  0  0  0
   38.7560   24.9990   37.7780 H   0  0  0  0  0  0  0  0  0  0  0  0
   39.4160   24.9760   35.4270 H   0  0  0  0  0  0  0  0  0  0  0  0
   36.3290   22.1770   31.8150 C   0  0  0  0  0  0  0  0  0  0  0  0
   35.4040   21.5020   32.5780 C   0  0  0  0  0  0  0  0  0  0  0  0
   35.3510   20.1200   32.6340 C   0  0  0  0  0  0  0  0  0  0  0  0
   36.2680   19.4160   31.8880 C   0  0  0  0  0  0  0  0  0  0  0  0
   37.2230   20.0210   31.1010 C   0  0  0  0  0  0  0  0  0  0  0  0
   37.2040   21.4110   31.1040 C   0  0  0  0  0  0  0  0  0  0  0  0
   34.6870   22.0590   33.1610 H   0  0  0  0  0  0  0  0  0  0  0  0
   34.5910   19.6600   33.2600 H   0  0  0  0  0  0  0  0  0  0  0  0
   36.2230   18.3370   31.9350 H   0  0  0  0  0  0  0  0  0  0  0  0
   37.9290   19.4550   30.5270 H   0  0  0  0  0  0  0  0  0  0  0  0
   38.2050   22.0790   30.2790 C   0  0  0  0  0  0  0  0  0  0  0  0
   37.9690   22.8840   29.5880 H   0  0  0  0  0  0  0  0  0  0  0  0
   39.4170   21.8210   30.2640 O   0  0  0  0  0  0  0  0  0  0  0  0
  1  2  1  0  0  0  0
  1  7  1  0  0  0  0
  2  9  1  0  0  0  0
  3  2  2  0  0  0  0
  4  3  1  0  0  0  0
  5  4  2  0  0  0  0
  5  6  1  0  0  0  0
  6  1  2  0  0  0  0
  8  5  1  0  0  0  0
  9 13  1  0  0  0  0
 10  9  1  0  0  0  0
 10 11  1  0  0  0  0
 10 14  1  0  0  0  0
 11 16  1  0  0  0  0
 11 12  1  0  0  0  0
 12 18  1  0  0  0  0
 13 12  1  0  0  0  0
 13 20  1  1  0  0  0
 13 23  1  0  0  0  0
 15 10  1  0  0  0  0
 17 11  1  0  0  0  0
 19 12  1  0  0  0  0
 21 22  2  0  0  0  0
 21 24  1  0  0  0  0
 23 21  1  0  0  0  0
 25 23  1  0  0  0  0
 26  3  1  0  0  0  0
 26 27  1  0  0  0  0
 27 28  2  0  0  0  0
 27 32  1  0  0  0  0
 28 33  1  0  0  0  0
 29 34  1  0  0  0  0
 29 28  1  0  0  0  0
 30 31  1  0  0  0  0
 30 29  2  0  0  0  0
 31 26  2  0  0  0  0
 35 30  1  0  0  0  0
 36 31  1  0  0  0  0
 37 36  1  0  0  0  0
 38 36  2  0  0  0  0
M  END
>  <minimizedAffinity>
-4.76920795

$$$$
