
 OpenBabel03272507463D

 40 43  0  0  0  0  0  0  0  0999 V2000
   31.6660   27.9640   47.5830 N   0  0  0  0  0  0  0  0  0  0  0  0
   32.6580   27.1300   48.1690 C   0  0  0  0  0  0  0  0  0  0  0  0
   33.9580   27.7640   48.4860 C   0  0  0  0  0  0  0  0  0  0  0  0
   34.4640   28.7430   47.5260 C   0  0  0  0  0  0  0  0  0  0  0  0
   33.3310   29.5620   46.8810 C   0  0  0  0  0  0  0  0  0  0  0  0
   32.2580   28.5620   46.4190 C   0  0  0  0  0  0  0  0  0  0  0  0
   32.2070   26.6920   49.0960 H   0  0  0  0  0  0  0  0  0  0  0  0
   32.8400   26.2690   47.4880 H   0  0  0  0  0  0  0  0  0  0  0  0
   33.7020   28.3480   49.4330 H   0  0  0  0  0  0  0  0  0  0  0  0
   34.6860   27.0080   48.7910 H   0  0  0  0  0  0  0  0  0  0  0  0
   34.9230   28.2220   46.6390 H   0  0  0  0  0  0  0  0  0  0  0  0
   32.9040   30.2130   47.6440 H   0  0  0  0  0  0  0  0  0  0  0  0
   33.6810   30.0970   45.9910 H   0  0  0  0  0  0  0  0  0  0  0  0
   32.7290   27.8490   45.7210 H   0  0  0  0  0  0  0  0  0  0  0  0
   31.5290   29.1730   45.8500 H   0  0  0  0  0  0  0  0  0  0  0  0
   35.2860   30.0200   49.4540 C   0  0  0  0  0  0  0  0  0  0  0  0
   35.3880   29.7550   48.0980 C   0  0  0  0  0  0  0  0  0  0  0  0
   36.2690   30.3850   47.2620 C   0  0  0  0  0  0  0  0  0  0  0  0
   37.1120   31.3530   47.8150 C   0  0  0  0  0  0  0  0  0  0  0  0
   37.0100   31.6170   49.1570 C   0  0  0  0  0  0  0  0  0  0  0  0
   36.1150   30.9770   50.0100 C   0  0  0  0  0  0  0  0  0  0  0  0
   37.9360   32.6140   49.5190 O   0  0  0  0  0  0  0  0  0  0  0  0
   38.8250   32.6920   48.4150 C   0  0  0  0  0  0  0  0  0  0  0  0
   38.1080   32.1850   47.3170 O   0  0  0  0  0  0  0  0  0  0  0  0
   34.6450   29.5840   50.2060 H   0  0  0  0  0  0  0  0  0  0  0  0
   36.3200   30.1530   46.2190 H   0  0  0  0  0  0  0  0  0  0  0  0
   36.0950   31.2460   51.0790 H   0  0  0  0  0  0  0  0  0  0  0  0
   39.0680   33.7620   48.1710 H   0  0  0  0  0  0  0  0  0  0  0  0
   39.7860   32.1760   48.6100 H   0  0  0  0  0  0  0  0  0  0  0  0
   30.3260   28.1890   48.0330 C   0  0  0  0  0  0  0  0  0  0  0  0
   29.3520   28.9160   47.3550 C   0  0  0  0  0  0  0  0  0  0  0  0
   28.0980   29.0220   47.9630 C   0  0  0  0  0  0  0  0  0  0  0  0
   27.8970   28.4220   49.1620 N   0  0  0  0  0  0  0  0  0  0  0  0
   28.8600   27.7260   49.7920 C   0  0  0  0  0  0  0  0  0  0  0  0
   30.0620   27.6160   49.2250 N   0  0  0  0  0  0  0  0  0  0  0  0
   29.6620   29.3260   46.4260 H   0  0  0  0  0  0  0  0  0  0  0  0
   27.3710   29.5840   47.4220 H   0  0  0  0  0  0  0  0  0  0  0  0
   28.5890   27.0990   51.0840 C   0  0  0  0  0  0  0  0  0  0  0  0
   29.3900   26.7740   51.7060 H   0  0  0  0  0  0  0  0  0  0  0  0
   27.3790   26.9490   51.4530 O   0  0  0  0  0  0  0  0  0  0  0  0
  1 30  1  0  0  0  0
  1  2  1  0  0  0  0
  2  3  1  0  0  0  0
  2  7  1  0  0  0  0
  3 10  1  0  0  0  0
  3  9  1  0  0  0  0
  4 17  1  0  0  0  0
  4  3  1  0  0  0  0
  5  4  1  0  0  0  0
  5 12  1  0  0  0  0
  6  5  1  0  0  0  0
  6  1  1  0  0  0  0
  8  2  1  0  0  0  0
 11  4  1  0  0  0  0
 13  5  1  0  0  0  0
 14  6  1  0  0  0  0
 15  6  1  0  0  0  0
 16 21  1  0  0  0  0
 16 25  1  0  0  0  0
 17 16  2  0  0  0  0
 18 19  2  0  0  0  0
 18 17  1  0  0  0  0
 19 20  1  0  0  0  0
 20 22  1  0  0  0  0
 20 21  2  0  0  0  0
 21 27  1  0  0  0  0
 23 29  1  0  0  0  0
 23 22  1  0  0  0  0
 24 19  1  0  0  0  0
 24 23  1  0  0  0  0
 26 18  1  0  0  0  0
 28 23  1  0  0  0  0
 30 35  1  0  0  0  0
 31 32  1  0  0  0  0
 31 30  2  0  0  0  0
 32 33  2  0  0  0  0
 33 34  1  0  0  0  0
 34 38  1  0  0  0  0
 35 34  2  0  0  0  0
 36 31  1  0  0  0  0
 37 32  1  0  0  0  0
 38 40  2  0  0  0  0
 38 39  1  0  0  0  0
M  END
>  <minimizedAffinity>
-6.68427801

>  <minimizedRMSD>
1.46436417

$$$$
