
 OpenBabel03272509533D

 37 39  0  0  0  0  0  0  0  0999 V2000
   37.3340   30.1760   51.5190 C   0  0  0  0  0  0  0  0  0  0  0  0
   38.0610   30.8590   50.5120 C   0  0  0  0  0  0  0  0  0  0  0  0
   37.7080   30.6540   49.2030 C   0  0  0  0  0  0  0  0  0  0  0  0
   36.6600   29.7890   48.9790 N   0  0  0  0  0  0  0  0  0  0  0  0
   35.9890   29.1580   49.9360 C   0  0  0  0  0  0  0  0  0  0  0  0
   36.3330   29.3560   51.2230 N   0  0  0  0  0  0  0  0  0  0  0  0
   37.6460   30.3650   52.5430 H   0  0  0  0  0  0  0  0  0  0  0  0
   38.8730   31.5270   50.6990 H   0  0  0  0  0  0  0  0  0  0  0  0
   38.9470   33.2600   49.0110 F   0  0  0  0  0  0  0  0  0  0  0  0
   38.9180   32.4800   47.9390 C   0  0  0  0  0  0  0  0  0  0  0  0
   38.3320   31.2600   48.0480 C   0  0  0  0  0  0  0  0  0  0  0  0
   38.3550   30.5190   46.8620 C   0  0  0  0  0  0  0  0  0  0  0  0
   38.9210   30.9870   45.6990 C   0  0  0  0  0  0  0  0  0  0  0  0
   39.5000   32.2370   45.6540 C   0  0  0  0  0  0  0  0  0  0  0  0
   39.4890   32.9770   46.7980 C   0  0  0  0  0  0  0  0  0  0  0  0
   37.9230   29.5170   46.7920 H   0  0  0  0  0  0  0  0  0  0  0  0
   38.9330   30.4040   44.7860 H   0  0  0  0  0  0  0  0  0  0  0  0
   39.9420   32.5940   44.7320 H   0  0  0  0  0  0  0  0  0  0  0  0
   39.9430   33.9590   46.7720 H   0  0  0  0  0  0  0  0  0  0  0  0
   34.9920   28.3540   49.4470 O   0  0  0  0  0  0  0  0  0  0  0  0
   34.4380   28.6480   48.1780 C   0  0  0  0  0  0  0  0  0  0  0  0
   35.2160   28.9130   47.4300 H   0  0  0  0  0  0  0  0  0  0  0  0
   33.7900   29.5490   48.3010 H   0  0  0  0  0  0  0  0  0  0  0  0
   33.5540   27.5300   47.7170 C   0  0  0  0  0  0  0  0  0  0  0  0
   33.7190   26.6130   48.3000 H   0  0  0  0  0  0  0  0  0  0  0  0
   33.7820   27.3000   46.6390 H   0  0  0  0  0  0  0  0  0  0  0  0
   32.1110   27.8920   47.7480 C   0  0  0  0  0  0  0  0  0  0  0  0
   31.3800   27.4730   48.8610 C   0  0  0  0  0  0  0  0  0  0  0  0
   30.0440   27.7580   48.9820 C   0  0  0  0  0  0  0  0  0  0  0  0
   29.4280   28.4490   48.0220 N   0  0  0  0  0  0  0  0  0  0  0  0
   30.1560   28.8470   46.9510 C   0  0  0  0  0  0  0  0  0  0  0  0
   31.4640   28.5890   46.7940 N   0  0  0  0  0  0  0  0  0  0  0  0
   31.8750   26.9080   49.6500 H   0  0  0  0  0  0  0  0  0  0  0  0
   29.5260   27.3970   49.8850 H   0  0  0  0  0  0  0  0  0  0  0  0
   29.4710   29.6010   45.9090 C   0  0  0  0  0  0  0  0  0  0  0  0
   29.8830   29.7180   44.9190 H   0  0  0  0  0  0  0  0  0  0  0  0
   28.3740   30.1680   46.0540 O   0  0  0  0  0  0  0  0  0  0  0  0
  1  7  1  0  0  0  0
  2  8  1  0  0  0  0
  2  1  2  0  0  0  0
  3  2  1  0  0  0  0
  4  3  2  0  0  0  0
  4  5  1  0  0  0  0
  5  6  2  0  0  0  0
  6  1  1  0  0  0  0
 10 11  1  0  0  0  0
 10  9  1  0  0  0  0
 11  3  1  0  0  0  0
 12 11  2  0  0  0  0
 13 12  1  0  0  0  0
 14 13  2  0  0  0  0
 14 15  1  0  0  0  0
 15 10  2  0  0  0  0
 16 12  1  0  0  0  0
 17 13  1  0  0  0  0
 18 14  1  0  0  0  0
 19 15  1  0  0  0  0
 20  5  1  0  0  0  0
 21 23  1  0  0  0  0
 21 20  1  0  0  0  0
 22 21  1  0  0  0  0
 24 27  1  0  0  0  0
 24 21  1  0  0  0  0
 24 25  1  0  0  0  0
 26 24  1  0  0  0  0
 27 28  1  0  0  0  0
 28 29  2  0  0  0  0
 28 33  1  0  0  0  0
 29 34  1  0  0  0  0
 30 29  1  0  0  0  0
 31 30  2  0  0  0  0
 32 31  1  0  0  0  0
 32 27  2  0  0  0  0
 35 37  2  0  0  0  0
 35 31  1  0  0  0  0
 36 35  1  0  0  0  0
M  END
>  <minimizedAffinity>
-6.23335075

>  <minimizedRMSD>
0.0798158273

$$$$
