
 OpenBabel03262523543D

 28 29  0  0  1  0  0  0  0  0999 V2000
   37.9140   30.5120   47.8510 C   0  0  1  0  0  0  0  0  0  0  0  0
   37.1460   30.8090   46.6290 C   0  0  0  0  0  0  0  0  0  0  0  0
   38.0810   30.7170   45.4540 C   0  0  0  0  0  0  0  0  0  0  0  0
   39.4190   31.2710   45.7670 C   0  0  0  0  0  0  0  0  0  0  0  0
   39.4740   32.2300   46.9250 C   0  0  0  0  0  0  0  0  0  0  0  0
   38.7650   31.7400   48.1640 C   0  0  1  0  0  0  0  0  0  0  0  0
   38.6620   29.7070   47.6540 H   0  0  0  0  0  0  0  0  0  0  0  0
   36.3120   30.0680   46.5560 H   0  0  0  0  0  0  0  0  0  0  0  0
   36.6760   31.7980   46.5900 H   0  0  0  0  0  0  0  0  0  0  0  0
   37.6780   31.3040   44.5840 H   0  0  0  0  0  0  0  0  0  0  0  0
   38.1200   29.6770   45.0840 H   0  0  0  0  0  0  0  0  0  0  0  0
   39.8490   31.8290   44.9020 H   0  0  0  0  0  0  0  0  0  0  0  0
   40.1150   30.4280   45.9720 H   0  0  0  0  0  0  0  0  0  0  0  0
   40.5440   32.4740   47.0880 H   0  0  0  0  0  0  0  0  0  0  0  0
   39.0250   33.1870   46.5330 H   0  0  0  0  0  0  0  0  0  0  0  0
   39.6110   31.4240   48.8450 H   0  0  0  0  0  0  0  0  0  0  0  0
   37.1520   29.5620   51.3700 C   0  0  0  0  0  0  0  0  0  0  0  0
   37.8970   29.9500   50.2300 C   0  0  0  0  0  0  0  0  0  0  0  0
   37.1890   30.1460   49.0480 C   0  0  0  0  0  0  0  0  0  0  0  0
   35.8280   29.9570   49.0460 N   0  0  0  0  0  0  0  0  0  0  0  0
   35.1590   29.5910   50.1380 C   0  0  0  0  0  0  0  0  0  0  0  0
   35.8090   29.3910   51.3040 N   0  0  0  0  0  0  0  0  0  0  0  0
   37.6420   29.3940   52.3200 H   0  0  0  0  0  0  0  0  0  0  0  0
   38.9350   30.0500   50.4060 H   0  0  0  0  0  0  0  0  0  0  0  0
   34.0870   29.4670   50.0310 H   0  0  0  0  0  0  0  0  0  0  0  0
   37.9760   32.8720   48.7050 C   0  0  0  0  0  0  0  0  0  0  0  0
   36.9320   33.0970   48.5110 H   0  0  0  0  0  0  0  0  0  0  0  0
   38.4660   33.7140   49.4740 O   0  0  0  0  0  0  0  0  0  0  0  0
  1  7  1  6  0  0  0
  1  6  1  0  0  0  0
  1 19  1  0  0  0  0
  2  1  1  0  0  0  0
  3  4  1  0  0  0  0
  3  2  1  0  0  0  0
  4 13  1  0  0  0  0
  4  5  1  0  0  0  0
  5 14  1  0  0  0  0
  5  6  1  0  0  0  0
  6 26  1  0  0  0  0
  6 16  1  1  0  0  0
  8  2  1  0  0  0  0
  9  2  1  0  0  0  0
 10  3  1  0  0  0  0
 11  3  1  0  0  0  0
 12  4  1  0  0  0  0
 15  5  1  0  0  0  0
 17 23  1  0  0  0  0
 18 24  1  0  0  0  0
 18 17  2  0  0  0  0
 19 18  1  0  0  0  0
 20 19  2  0  0  0  0
 20 21  1  0  0  0  0
 21 22  2  0  0  0  0
 22 17  1  0  0  0  0
 25 21  1  0  0  0  0
 26 28  2  0  0  0  0
 27 26  1  0  0  0  0
M  END
>  <minimizedAffinity>
-5.10635614

>  <minimizedRMSD>
0.793008685

$$$$
