
 OpenBabel03262522433D

 29 31  0  0  1  0  0  0  0  0999 V2000
   37.7660   31.4900   45.9430 C   0  0  1  0  0  0  0  0  0  0  0  0
   36.3280   31.1710   45.9140 C   0  0  0  0  0  0  0  0  0  0  0  0
   37.1740   30.1950   46.5700 C   0  0  2  0  0  0  0  0  0  0  0  0
   38.2620   32.0970   46.7040 H   0  0  0  0  0  0  0  0  0  0  0  0
   35.9220   30.9850   44.8640 H   0  0  0  0  0  0  0  0  0  0  0  0
   35.7430   31.9860   46.3750 H   0  0  0  0  0  0  0  0  0  0  0  0
   37.7640   29.3910   46.0530 H   0  0  0  0  0  0  0  0  0  0  0  0
   34.8190   28.6750   47.9330 Cl  0  0  0  0  0  0  0  0  0  0  0  0
   36.1020   29.4780   48.8120 C   0  0  0  0  0  0  0  0  0  0  0  0
   37.0890   30.0310   48.0100 C   0  0  0  0  0  0  0  0  0  0  0  0
   38.1380   30.5990   48.6650 C   0  0  0  0  0  0  0  0  0  0  0  0
   38.2270   30.6300   50.0650 C   0  0  0  0  0  0  0  0  0  0  0  0
   37.2070   30.0600   50.8390 C   0  0  0  0  0  0  0  0  0  0  0  0
   37.2060   30.0110   52.5920 Cl  0  0  0  0  0  0  0  0  0  0  0  0
   36.1350   29.4800   50.1800 C   0  0  0  0  0  0  0  0  0  0  0  0
   38.9990   31.0780   48.2210 H   0  0  0  0  0  0  0  0  0  0  0  0
   39.0460   31.0720   50.6170 H   0  0  0  0  0  0  0  0  0  0  0  0
   35.2910   29.0120   50.6660 H   0  0  0  0  0  0  0  0  0  0  0  0
   37.9350   31.4440   43.3880 C   0  0  0  0  0  0  0  0  0  0  0  0
   38.5570   31.3160   44.6850 C   0  0  0  0  0  0  0  0  0  0  0  0
   39.9070   30.9940   44.7230 C   0  0  0  0  0  0  0  0  0  0  0  0
   40.5820   30.8120   43.5360 N   0  0  0  0  0  0  0  0  0  0  0  0
   39.9590   30.9410   42.3420 C   0  0  0  0  0  0  0  0  0  0  0  0
   38.6530   31.2530   42.2730 N   0  0  0  0  0  0  0  0  0  0  0  0
   36.8690   31.7000   43.3620 H   0  0  0  0  0  0  0  0  0  0  0  0
   40.4140   30.8870   45.6760 H   0  0  0  0  0  0  0  0  0  0  0  0
   40.7440   30.7310   41.1310 C   0  0  0  0  0  0  0  0  0  0  0  0
   40.6030   31.4030   40.2790 H   0  0  0  0  0  0  0  0  0  0  0  0
   41.5630   29.7740   41.1100 O   0  0  0  0  0  0  0  0  0  0  0  0
  1  3  1  0  0  0  0
  1  4  1  1  0  0  0
  2  1  1  0  0  0  0
  2  6  1  0  0  0  0
  2  3  1  0  0  0  0
  3  7  1  6  0  0  0
  3 10  1  0  0  0  0
  5  2  1  0  0  0  0
  8  9  1  0  0  0  0
  9 15  1  0  0  0  0
 10 11  1  0  0  0  0
 10  9  2  0  0  0  0
 11 12  2  0  0  0  0
 12 17  1  0  0  0  0
 12 13  1  0  0  0  0
 13 14  1  0  0  0  0
 15 18  1  0  0  0  0
 15 13  2  0  0  0  0
 16 11  1  0  0  0  0
 19 20  1  0  0  0  0
 20 21  2  0  0  0  0
 20  1  1  0  0  0  0
 21 26  1  0  0  0  0
 22 21  1  0  0  0  0
 23 22  2  0  0  0  0
 24 23  1  0  0  0  0
 24 19  2  0  0  0  0
 25 19  1  0  0  0  0
 27 23  1  0  0  0  0
 28 27  1  0  0  0  0
 29 27  2  0  0  0  0
M  END
>  <minimizedAffinity>
-4.35124207

>  <minimizedRMSD>
1.52881896

$$$$
