
 OpenBabel03262523203D

 35 37  0  0  1  0  0  0  0  0999 V2000
   39.3860   32.9330   44.9740 C   0  0  0  0  0  0  0  0  0  0  0  0
   40.4010   32.1010   44.5140 C   0  0  0  0  0  0  0  0  0  0  0  0
   40.1320   30.7460   44.3720 C   0  0  0  0  0  0  0  0  0  0  0  0
   38.8950   30.2870   44.6890 N   0  0  0  0  0  0  0  0  0  0  0  0
   37.9380   31.0640   45.1220 C   0  0  0  0  0  0  0  0  0  0  0  0
   38.2490   32.3270   45.2330 N   0  0  0  0  0  0  0  0  0  0  0  0
   36.6650   30.5470   45.4330 N   0  0  0  0  0  0  0  0  0  0  0  0
   35.8430   29.8320   44.4480 C   0  0  0  0  0  0  0  0  0  0  0  0
   34.6710   29.3610   45.1950 C   0  0  0  0  0  0  0  0  0  0  0  0
   35.0750   29.4850   46.6650 C   0  0  0  0  0  0  0  0  0  0  0  0
   35.9280   30.6590   46.7010 C   0  0  1  0  0  0  0  0  0  0  0  0
   39.6120   33.9790   45.0760 H   0  0  0  0  0  0  0  0  0  0  0  0
   41.3850   32.4030   44.2520 H   0  0  0  0  0  0  0  0  0  0  0  0
   40.8970   30.0650   44.0160 H   0  0  0  0  0  0  0  0  0  0  0  0
   35.5440   30.6010   43.7060 H   0  0  0  0  0  0  0  0  0  0  0  0
   36.4340   29.0720   43.9060 H   0  0  0  0  0  0  0  0  0  0  0  0
   33.7690   29.9930   44.9520 H   0  0  0  0  0  0  0  0  0  0  0  0
   34.3840   28.3530   44.8930 H   0  0  0  0  0  0  0  0  0  0  0  0
   34.1100   29.5170   47.1140 H   0  0  0  0  0  0  0  0  0  0  0  0
   35.7200   28.5920   46.6630 H   0  0  0  0  0  0  0  0  0  0  0  0
   35.3950   31.6320   46.4660 H   0  0  0  0  0  0  0  0  0  0  0  0
   36.6880   30.0930   49.0470 C   0  0  0  0  0  0  0  0  0  0  0  0
   36.6960   30.8940   47.8910 C   0  0  0  0  0  0  0  0  0  0  0  0
   37.6330   31.9130   47.9800 C   0  0  0  0  0  0  0  0  0  0  0  0
   38.4750   32.1330   49.0580 C   0  0  0  0  0  0  0  0  0  0  0  0
   38.3970   31.2750   50.1720 C   0  0  0  0  0  0  0  0  0  0  0  0
   37.4860   30.2370   50.1650 C   0  0  0  0  0  0  0  0  0  0  0  0
   37.8130   32.7200   47.3140 H   0  0  0  0  0  0  0  0  0  0  0  0
   39.2140   32.8770   49.2030 H   0  0  0  0  0  0  0  0  0  0  0  0
   39.0100   31.3660   51.0570 H   0  0  0  0  0  0  0  0  0  0  0  0
   37.3920   29.3430   51.3080 C   0  0  0  0  0  0  0  0  0  0  0  0
   37.2330   28.2880   51.1440 H   0  0  0  0  0  0  0  0  0  0  0  0
   37.4950   29.7870   52.4790 O   0  0  0  0  0  0  0  0  0  0  0  0
   34.8940   28.2600   49.2280 N   0  0  0  0  0  0  0  0  0  0  0  0
   35.6800   29.0640   49.1380 C   0  0  0  0  0  0  0  0  0  0  0  0
  1 12  1  0  0  0  0
  1  6  1  0  0  0  0
  2  1  2  0  0  0  0
  3  2  1  0  0  0  0
  3  4  2  0  0  0  0
  4  5  1  0  0  0  0
  5  6  2  0  0  0  0
  5  7  1  0  0  0  0
  7 11  1  0  0  0  0
  8  9  1  0  0  0  0
  8  7  1  0  0  0  0
  9 10  1  0  0  0  0
 10 11  1  0  0  0  0
 10 19  1  0  0  0  0
 11 21  1  6  0  0  0
 11 23  1  0  0  0  0
 13  2  1  0  0  0  0
 14  3  1  0  0  0  0
 15  8  1  0  0  0  0
 16  8  1  0  0  0  0
 17  9  1  0  0  0  0
 18  9  1  0  0  0  0
 20 10  1  0  0  0  0
 22 35  1  0  0  0  0
 22 27  1  0  0  0  0
 23 24  1  0  0  0  0
 23 22  2  0  0  0  0
 24 25  2  0  0  0  0
 25 29  1  0  0  0  0
 25 26  1  0  0  0  0
 26 30  1  0  0  0  0
 27 26  2  0  0  0  0
 27 31  1  0  0  0  0
 28 24  1  0  0  0  0
 31 33  2  0  0  0  0
 32 31  1  0  0  0  0
 35 34  3  0  0  0  0
M  END
>  <minimizedAffinity>
-6.30133247

>  <minimizedRMSD>
1.00659132

$$$$
