
 OpenBabel03272510263D

 39 42  0  0  1  0  0  0  0  0999 V2000
   35.9840   30.0690   46.9360 C   0  0  0  0  0  0  0  0  0  0  0  0
   36.9010   30.6360   47.7920 C   0  0  0  0  0  0  0  0  0  0  0  0
   37.8790   31.5310   47.3230 C   0  0  0  0  0  0  0  0  0  0  0  0
   37.8530   31.7970   45.9580 C   0  0  0  0  0  0  0  0  0  0  0  0
   38.6960   32.6330   45.2640 N   0  0  0  0  0  0  0  0  0  0  0  0
   38.2940   32.5790   43.9810 C   0  0  0  0  0  0  0  0  0  0  0  0
   37.2660   31.7620   43.8680 N   0  0  0  0  0  0  0  0  0  0  0  0
   36.9610   31.2550   45.0760 C   0  0  0  0  0  0  0  0  0  0  0  0
   36.0010   30.3670   45.5810 C   0  0  0  0  0  0  0  0  0  0  0  0
   35.2200   29.3740   47.2740 H   0  0  0  0  0  0  0  0  0  0  0  0
   38.6110   31.9880   47.9830 H   0  0  0  0  0  0  0  0  0  0  0  0
   39.4910   33.1970   45.6670 H   0  0  0  0  0  0  0  0  0  0  0  0
   35.2920   29.9330   44.8930 H   0  0  0  0  0  0  0  0  0  0  0  0
   37.5770   30.2010   51.4680 C   0  0  0  0  0  0  0  0  0  0  0  0
   37.8080   30.5990   50.1520 C   0  0  0  0  0  0  0  0  0  0  0  0
   36.8580   30.3090   49.2090 C   0  0  0  0  0  0  0  0  0  0  0  0
   35.7290   29.6360   49.6300 N   0  0  0  0  0  0  0  0  0  0  0  0
   35.5160   29.2550   50.9010 C   0  0  0  0  0  0  0  0  0  0  0  0
   36.4380   29.5390   51.8050 N   0  0  0  0  0  0  0  0  0  0  0  0
   38.3390   30.4380   52.2030 H   0  0  0  0  0  0  0  0  0  0  0  0
   38.6770   31.1240   49.8010 H   0  0  0  0  0  0  0  0  0  0  0  0
   34.5860   28.7350   51.0860 H   0  0  0  0  0  0  0  0  0  0  0  0
   38.9210   33.3090   42.9700 O   0  0  0  0  0  0  0  0  0  0  0  0
   39.9080   31.2560   42.6120 N   0  0  0  0  0  0  0  0  0  0  0  0
   39.6220   32.5450   41.9980 C   0  0  1  0  0  0  0  0  0  0  0  0
   38.8160   32.3680   40.8000 C   0  0  0  0  0  0  0  0  0  0  0  0
   39.5550   31.6260   39.8630 O   0  0  0  0  0  0  0  0  0  0  0  0
   40.0410   30.4330   40.3120 C   0  0  0  0  0  0  0  0  0  0  0  0
   40.7430   30.5760   41.6510 C   0  0  2  0  0  0  0  0  0  0  0  0
   39.1340   30.6320   42.7780 H   0  0  0  0  0  0  0  0  0  0  0  0
   40.6070   32.9820   41.7430 H   0  0  0  0  0  0  0  0  0  0  0  0
   38.7230   33.3830   40.3030 H   0  0  0  0  0  0  0  0  0  0  0  0
   37.8570   31.9280   40.7630 H   0  0  0  0  0  0  0  0  0  0  0  0
   39.1800   29.7510   40.4770 H   0  0  0  0  0  0  0  0  0  0  0  0
   40.7630   30.0600   39.5890 H   0  0  0  0  0  0  0  0  0  0  0  0
   41.6620   31.1720   41.4770 H   0  0  0  0  0  0  0  0  0  0  0  0
   41.0550   29.2290   42.1950 C   0  0  0  0  0  0  0  0  0  0  0  0
   42.1030   28.9270   42.3370 H   0  0  0  0  0  0  0  0  0  0  0  0
   40.1140   28.4770   42.4780 O   0  0  0  0  0  0  0  0  0  0  0  0
  1 10  1  0  0  0  0
  1  2  1  0  0  0  0
  2 16  1  0  0  0  0
  3  2  2  0  0  0  0
  3 11  1  0  0  0  0
  4  3  1  0  0  0  0
  5 12  1  0  0  0  0
  5  4  1  0  0  0  0
  6  5  1  0  0  0  0
  7  6  2  0  0  0  0
  7  8  1  0  0  0  0
  8  9  1  0  0  0  0
  8  4  2  0  0  0  0
  9  1  2  0  0  0  0
 13  9  1  0  0  0  0
 14 19  1  0  0  0  0
 14 20  1  0  0  0  0
 15 14  2  0  0  0  0
 16 17  2  0  0  0  0
 16 15  1  0  0  0  0
 17 18  1  0  0  0  0
 18 22  1  0  0  0  0
 18 19  2  0  0  0  0
 21 15  1  0  0  0  0
 23  6  1  0  0  0  0
 24 30  1  0  0  0  0
 25 31  1  6  0  0  0
 25 24  1  0  0  0  0
 25 23  1  0  0  0  0
 26 25  1  0  0  0  0
 27 28  1  0  0  0  0
 27 26  1  0  0  0  0
 28 34  1  0  0  0  0
 28 29  1  0  0  0  0
 29 36  1  6  0  0  0
 29 37  1  0  0  0  0
 29 24  1  0  0  0  0
 32 26  1  0  0  0  0
 33 26  1  0  0  0  0
 35 28  1  0  0  0  0
 37 38  1  0  0  0  0
 37 39  2  0  0  0  0
M  END
>  <minimizedAffinity>
-5.55269861

>  <minimizedRMSD>
1.36294496

$$$$
