
 OpenBabel03272509563D

 37 39  0  0  0  0  0  0  0  0999 V2000
   36.1610   29.8240   31.6940 C   0  0  0  0  0  0  0  0  0  0  0  0
   35.5440   30.6130   32.6970 C   0  0  0  0  0  0  0  0  0  0  0  0
   35.4040   30.0760   33.9520 C   0  0  0  0  0  0  0  0  0  0  0  0
   35.8830   28.7980   34.1280 N   0  0  0  0  0  0  0  0  0  0  0  0
   36.4580   28.0730   33.1750 C   0  0  0  0  0  0  0  0  0  0  0  0
   36.5980   28.5950   31.9420 N   0  0  0  0  0  0  0  0  0  0  0  0
   36.2520   30.2850   30.7140 H   0  0  0  0  0  0  0  0  0  0  0  0
   35.1770   31.6050   32.5470 H   0  0  0  0  0  0  0  0  0  0  0  0
   36.6670   31.8490   35.8560 F   0  0  0  0  0  0  0  0  0  0  0  0
   35.3800   31.5630   35.9980 C   0  0  0  0  0  0  0  0  0  0  0  0
   34.8040   30.7280   35.0940 C   0  0  0  0  0  0  0  0  0  0  0  0
   33.4470   30.4920   35.3340 C   0  0  0  0  0  0  0  0  0  0  0  0
   32.7650   31.0560   36.3880 C   0  0  0  0  0  0  0  0  0  0  0  0
   33.4080   31.8960   37.2710 C   0  0  0  0  0  0  0  0  0  0  0  0
   34.7320   32.1400   37.0560 C   0  0  0  0  0  0  0  0  0  0  0  0
   32.8450   29.8430   34.6930 H   0  0  0  0  0  0  0  0  0  0  0  0
   31.7140   30.8660   36.5640 H   0  0  0  0  0  0  0  0  0  0  0  0
   32.8600   32.3330   38.0960 H   0  0  0  0  0  0  0  0  0  0  0  0
   35.2450   32.7990   37.7450 H   0  0  0  0  0  0  0  0  0  0  0  0
   36.8470   26.8310   33.6110 O   0  0  0  0  0  0  0  0  0  0  0  0
   37.3890   26.7030   34.9120 C   0  0  0  0  0  0  0  0  0  0  0  0
   36.6770   26.2270   35.6200 H   0  0  0  0  0  0  0  0  0  0  0  0
   37.5810   27.7350   35.2930 H   0  0  0  0  0  0  0  0  0  0  0  0
   38.7110   25.9990   34.8650 C   0  0  0  0  0  0  0  0  0  0  0  0
   39.5500   26.7030   34.9580 H   0  0  0  0  0  0  0  0  0  0  0  0
   38.8120   25.4690   33.8770 H   0  0  0  0  0  0  0  0  0  0  0  0
   38.8290   24.9360   35.8990 C   0  0  0  0  0  0  0  0  0  0  0  0
   37.9840   25.0340   37.0050 C   0  0  0  0  0  0  0  0  0  0  0  0
   38.0180   24.1030   38.0110 C   0  0  0  0  0  0  0  0  0  0  0  0
   38.8730   23.0830   37.9360 N   0  0  0  0  0  0  0  0  0  0  0  0
   39.6850   23.0050   36.8540 C   0  0  0  0  0  0  0  0  0  0  0  0
   39.6830   23.8950   35.8480 N   0  0  0  0  0  0  0  0  0  0  0  0
   37.2820   25.8660   37.0750 H   0  0  0  0  0  0  0  0  0  0  0  0
   37.3240   24.2410   38.8560 H   0  0  0  0  0  0  0  0  0  0  0  0
   40.6150   21.8850   36.7840 C   0  0  0  0  0  0  0  0  0  0  0  0
   40.7340   21.2930   35.8910 H   0  0  0  0  0  0  0  0  0  0  0  0
   41.3410   21.5130   37.7210 O   0  0  0  0  0  0  0  0  0  0  0  0
  1  6  2  0  0  0  0
  1  2  1  0  0  0  0
  2  3  2  0  0  0  0
  3  4  1  0  0  0  0
  3 11  1  0  0  0  0
  5 20  1  0  0  0  0
  5  4  2  0  0  0  0
  6  5  1  0  0  0  0
  7  1  1  0  0  0  0
  8  2  1  0  0  0  0
  9 10  1  0  0  0  0
 10 15  1  0  0  0  0
 11 12  1  0  0  0  0
 11 10  2  0  0  0  0
 12 13  2  0  0  0  0
 13 17  1  0  0  0  0
 13 14  1  0  0  0  0
 14 18  1  0  0  0  0
 15 14  2  0  0  0  0
 15 19  1  0  0  0  0
 16 12  1  0  0  0  0
 20 21  1  0  0  0  0
 21 23  1  0  0  0  0
 21 22  1  0  0  0  0
 24 21  1  0  0  0  0
 24 25  1  0  0  0  0
 24 27  1  0  0  0  0
 26 24  1  0  0  0  0
 27 28  1  0  0  0  0
 28 33  1  0  0  0  0
 28 29  2  0  0  0  0
 29 34  1  0  0  0  0
 30 29  1  0  0  0  0
 31 30  2  0  0  0  0
 32 27  2  0  0  0  0
 32 31  1  0  0  0  0
 35 31  1  0  0  0  0
 35 37  2  0  0  0  0
 36 35  1  0  0  0  0
M  END
>  <minimizedAffinity>
-5.97426605

$$$$

 OpenBabel03272509563D

 37 39  0  0  0  0  0  0  0  0999 V2000
   35.3730   25.8900   31.1380 C   0  0  0  0  0  0  0  0  0  0  0  0
   35.1580   24.4920   31.0550 C   0  0  0  0  0  0  0  0  0  0  0  0
   36.1290   23.6560   31.5440 C   0  0  0  0  0  0  0  0  0  0  0  0
   37.2440   24.2580   32.0810 N   0  0  0  0  0  0  0  0  0  0  0  0
   37.4280   25.5730   32.1500 C   0  0  0  0  0  0  0  0  0  0  0  0
   36.4780   26.3970   31.6710 N   0  0  0  0  0  0  0  0  0  0  0  0
   34.5800   26.5190   30.7390 H   0  0  0  0  0  0  0  0  0  0  0  0
   34.2880   24.0370   30.6360 H   0  0  0  0  0  0  0  0  0  0  0  0
   37.9450   21.8170   30.2450 F   0  0  0  0  0  0  0  0  0  0  0  0
   36.9280   21.3320   30.9430 C   0  0  0  0  0  0  0  0  0  0  0  0
   36.0850   22.2110   31.5460 C   0  0  0  0  0  0  0  0  0  0  0  0
   35.0480   21.5960   32.2540 C   0  0  0  0  0  0  0  0  0  0  0  0
   34.9000   20.2300   32.3300 C   0  0  0  0  0  0  0  0  0  0  0  0
   35.7910   19.3920   31.6940 C   0  0  0  0  0  0  0  0  0  0  0  0
   36.8100   19.9690   30.9970 C   0  0  0  0  0  0  0  0  0  0  0  0
   34.2890   22.1700   32.7930 H   0  0  0  0  0  0  0  0  0  0  0  0
   34.0930   19.7660   32.8810 H   0  0  0  0  0  0  0  0  0  0  0  0
   35.6640   18.3190   31.7610 H   0  0  0  0  0  0  0  0  0  0  0  0
   37.5150   19.3180   30.4960 H   0  0  0  0  0  0  0  0  0  0  0  0
   38.6230   25.9140   32.7300 O   0  0  0  0  0  0  0  0  0  0  0  0
   38.6240   26.8420   33.7980 C   0  0  0  0  0  0  0  0  0  0  0  0
   37.6110   26.9880   34.2310 H   0  0  0  0  0  0  0  0  0  0  0  0
   38.9400   27.8270   33.3780 H   0  0  0  0  0  0  0  0  0  0  0  0
   39.6400   26.4570   34.8300 C   0  0  0  0  0  0  0  0  0  0  0  0
   39.8430   27.2830   35.5280 H   0  0  0  0  0  0  0  0  0  0  0  0
   40.6060   26.1940   34.3160 H   0  0  0  0  0  0  0  0  0  0  0  0
   39.2510   25.2400   35.5910 C   0  0  0  0  0  0  0  0  0  0  0  0
   37.9830   25.2390   36.1740 C   0  0  0  0  0  0  0  0  0  0  0  0
   37.5330   24.1620   36.8940 C   0  0  0  0  0  0  0  0  0  0  0  0
   38.3170   23.0940   37.0430 N   0  0  0  0  0  0  0  0  0  0  0  0
   39.5440   23.1150   36.4690 C   0  0  0  0  0  0  0  0  0  0  0  0
   40.0220   24.1480   35.7560 N   0  0  0  0  0  0  0  0  0  0  0  0
   37.3350   26.1080   36.0570 H   0  0  0  0  0  0  0  0  0  0  0  0
   36.5220   24.2270   37.3280 H   0  0  0  0  0  0  0  0  0  0  0  0
   40.3910   21.9420   36.6400 C   0  0  0  0  0  0  0  0  0  0  0  0
   40.2160   21.0230   36.1020 H   0  0  0  0  0  0  0  0  0  0  0  0
   41.3730   21.8860   37.4010 O   0  0  0  0  0  0  0  0  0  0  0  0
  1  6  1  0  0  0  0
  2  1  2  0  0  0  0
  2  3  1  0  0  0  0
  3 11  1  0  0  0  0
  3  4  2  0  0  0  0
  4  5  1  0  0  0  0
  5 20  1  0  0  0  0
  6  5  2  0  0  0  0
  7  1  1  0  0  0  0
  8  2  1  0  0  0  0
  9 10  1  0  0  0  0
 10 15  2  0  0  0  0
 10 11  1  0  0  0  0
 11 12  2  0  0  0  0
 12 13  1  0  0  0  0
 12 16  1  0  0  0  0
 13 17  1  0  0  0  0
 14 18  1  0  0  0  0
 14 13  2  0  0  0  0
 15 14  1  0  0  0  0
 19 15  1  0  0  0  0
 20 21  1  0  0  0  0
 21 22  1  0  0  0  0
 21 24  1  0  0  0  0
 23 21  1  0  0  0  0
 24 25  1  0  0  0  0
 24 27  1  0  0  0  0
 26 24  1  0  0  0  0
 27 32  2  0  0  0  0
 27 28  1  0  0  0  0
 28 29  2  0  0  0  0
 29 30  1  0  0  0  0
 29 34  1  0  0  0  0
 31 35  1  0  0  0  0
 31 30  2  0  0  0  0
 32 31  1  0  0  0  0
 33 28  1  0  0  0  0
 35 37  2  0  0  0  0
 36 35  1  0  0  0  0
M  END
>  <minimizedAffinity>
-5.55681515

$$$$

 OpenBabel03272509563D

 37 39  0  0  0  0  0  0  0  0999 V2000
   37.9000   24.4600   32.2460 C   0  0  0  0  0  0  0  0  0  0  0  0
   38.2280   23.8260   33.4710 C   0  0  0  0  0  0  0  0  0  0  0  0
   38.2360   24.5850   34.6140 C   0  0  0  0  0  0  0  0  0  0  0  0
   37.9200   25.9170   34.4670 N   0  0  0  0  0  0  0  0  0  0  0  0
   37.6160   26.4940   33.3090 C   0  0  0  0  0  0  0  0  0  0  0  0
   37.6060   25.7530   32.1860 N   0  0  0  0  0  0  0  0  0  0  0  0
   37.9060   23.8240   31.3640 H   0  0  0  0  0  0  0  0  0  0  0  0
   38.4710   22.7910   33.5710 H   0  0  0  0  0  0  0  0  0  0  0  0
   40.4020   22.8530   35.4330 F   0  0  0  0  0  0  0  0  0  0  0  0
   39.5550   23.3020   36.3490 C   0  0  0  0  0  0  0  0  0  0  0  0
   38.5440   24.1140   35.9450 C   0  0  0  0  0  0  0  0  0  0  0  0
   37.7090   24.5310   36.9870 C   0  0  0  0  0  0  0  0  0  0  0  0
   37.9000   24.1510   38.2960 C   0  0  0  0  0  0  0  0  0  0  0  0
   38.9470   23.3230   38.6410 C   0  0  0  0  0  0  0  0  0  0  0  0
   39.7730   22.9040   37.6400 C   0  0  0  0  0  0  0  0  0  0  0  0
   36.8520   25.1880   36.8210 H   0  0  0  0  0  0  0  0  0  0  0  0
   37.2470   24.4800   39.0940 H   0  0  0  0  0  0  0  0  0  0  0  0
   39.0860   23.0310   39.6730 H   0  0  0  0  0  0  0  0  0  0  0  0
   40.5980   22.2540   37.9030 H   0  0  0  0  0  0  0  0  0  0  0  0
   37.3410   27.8320   33.4370 O   0  0  0  0  0  0  0  0  0  0  0  0
   36.3480   28.2400   34.3580 C   0  0  0  0  0  0  0  0  0  0  0  0
   36.7700   28.4710   35.3600 H   0  0  0  0  0  0  0  0  0  0  0  0
   35.6490   27.3790   34.4940 H   0  0  0  0  0  0  0  0  0  0  0  0
   35.5440   29.3740   33.7980 C   0  0  0  0  0  0  0  0  0  0  0  0
   34.7460   29.0160   33.1310 H   0  0  0  0  0  0  0  0  0  0  0  0
   36.2200   30.0450   33.1990 H   0  0  0  0  0  0  0  0  0  0  0  0
   34.9620   30.2410   34.8580 C   0  0  0  0  0  0  0  0  0  0  0  0
   35.8200   31.1600   35.4630 C   0  0  0  0  0  0  0  0  0  0  0  0
   35.3770   32.0030   36.4500 C   0  0  0  0  0  0  0  0  0  0  0  0
   34.1030   31.9470   36.8420 N   0  0  0  0  0  0  0  0  0  0  0  0
   33.2870   31.0470   36.2420 C   0  0  0  0  0  0  0  0  0  0  0  0
   33.6810   30.2050   35.2730 N   0  0  0  0  0  0  0  0  0  0  0  0
   36.8620   31.2130   35.1490 H   0  0  0  0  0  0  0  0  0  0  0  0
   36.1060   32.7040   36.8860 H   0  0  0  0  0  0  0  0  0  0  0  0
   31.8980   30.9960   36.6800 C   0  0  0  0  0  0  0  0  0  0  0  0
   31.4320   30.0800   37.0070 H   0  0  0  0  0  0  0  0  0  0  0  0
   31.1340   31.9760   36.7180 O   0  0  0  0  0  0  0  0  0  0  0  0
  1  2  1  0  0  0  0
  2  8  1  0  0  0  0
  2  3  2  0  0  0  0
  3 11  1  0  0  0  0
  4  3  1  0  0  0  0
  5 20  1  0  0  0  0
  5  4  2  0  0  0  0
  6  1  2  0  0  0  0
  6  5  1  0  0  0  0
  7  1  1  0  0  0  0
  9 10  1  0  0  0  0
 10 15  1  0  0  0  0
 11 10  2  0  0  0  0
 11 12  1  0  0  0  0
 12 13  2  0  0  0  0
 13 14  1  0  0  0  0
 13 17  1  0  0  0  0
 14 18  1  0  0  0  0
 15 19  1  0  0  0  0
 15 14  2  0  0  0  0
 16 12  1  0  0  0  0
 20 21  1  0  0  0  0
 21 23  1  0  0  0  0
 21 22  1  0  0  0  0
 24 21  1  0  0  0  0
 24 27  1  0  0  0  0
 25 24  1  0  0  0  0
 26 24  1  0  0  0  0
 27 32  2  0  0  0  0
 27 28  1  0  0  0  0
 28 29  2  0  0  0  0
 29 30  1  0  0  0  0
 29 34  1  0  0  0  0
 31 35  1  0  0  0  0
 31 30  2  0  0  0  0
 32 31  1  0  0  0  0
 33 28  1  0  0  0  0
 35 37  2  0  0  0  0
 35 36  1  0  0  0  0
M  END
>  <minimizedAffinity>
-5.51872921

$$$$

 OpenBabel03272509563D

 37 39  0  0  0  0  0  0  0  0999 V2000
   36.0790   29.5710   31.5390 C   0  0  0  0  0  0  0  0  0  0  0  0
   35.4180   30.3600   32.5140 C   0  0  0  0  0  0  0  0  0  0  0  0
   35.4050   29.9140   33.8110 C   0  0  0  0  0  0  0  0  0  0  0  0
   36.0460   28.7210   34.0560 N   0  0  0  0  0  0  0  0  0  0  0  0
   36.6600   27.9940   33.1280 C   0  0  0  0  0  0  0  0  0  0  0  0
   36.6750   28.4280   31.8540 N   0  0  0  0  0  0  0  0  0  0  0  0
   36.0650   29.9580   30.5230 H   0  0  0  0  0  0  0  0  0  0  0  0
   34.9240   31.2850   32.3110 H   0  0  0  0  0  0  0  0  0  0  0  0
   32.6780   29.6680   34.7430 F   0  0  0  0  0  0  0  0  0  0  0  0
   33.5080   30.4790   35.3860 C   0  0  0  0  0  0  0  0  0  0  0  0
   34.7840   30.5820   34.9330 C   0  0  0  0  0  0  0  0  0  0  0  0
   35.5740   31.4610   35.6800 C   0  0  0  0  0  0  0  0  0  0  0  0
   35.0980   32.1530   36.7700 C   0  0  0  0  0  0  0  0  0  0  0  0
   33.7900   32.0050   37.1780 C   0  0  0  0  0  0  0  0  0  0  0  0
   33.0010   31.1520   36.4640 C   0  0  0  0  0  0  0  0  0  0  0  0
   36.6240   31.6500   35.4400 H   0  0  0  0  0  0  0  0  0  0  0  0
   35.7190   32.8320   37.3400 H   0  0  0  0  0  0  0  0  0  0  0  0
   33.4270   32.5550   38.0370 H   0  0  0  0  0  0  0  0  0  0  0  0
   31.9730   31.0290   36.7790 H   0  0  0  0  0  0  0  0  0  0  0  0
   37.2190   26.8480   33.6340 O   0  0  0  0  0  0  0  0  0  0  0  0
   38.5500   26.8890   34.1090 C   0  0  0  0  0  0  0  0  0  0  0  0
   38.6100   27.2150   35.1700 H   0  0  0  0  0  0  0  0  0  0  0  0
   39.0930   27.6570   33.5060 H   0  0  0  0  0  0  0  0  0  0  0  0
   39.2360   25.5780   33.8710 C   0  0  0  0  0  0  0  0  0  0  0  0
   40.3260   25.6610   33.9960 H   0  0  0  0  0  0  0  0  0  0  0  0
   39.0340   25.2420   32.8170 H   0  0  0  0  0  0  0  0  0  0  0  0
   38.7120   24.4920   34.7420 C   0  0  0  0  0  0  0  0  0  0  0  0
   38.4180   23.2750   34.1250 C   0  0  0  0  0  0  0  0  0  0  0  0
   37.9300   22.2130   34.8430 C   0  0  0  0  0  0  0  0  0  0  0  0
   37.7310   22.3410   36.1550 N   0  0  0  0  0  0  0  0  0  0  0  0
   38.0230   23.5300   36.7350 C   0  0  0  0  0  0  0  0  0  0  0  0
   38.5020   24.5930   36.0690 N   0  0  0  0  0  0  0  0  0  0  0  0
   38.5780   23.1620   33.0530 H   0  0  0  0  0  0  0  0  0  0  0  0
   37.7190   21.2820   34.2940 H   0  0  0  0  0  0  0  0  0  0  0  0
   37.8000   23.6570   38.1700 C   0  0  0  0  0  0  0  0  0  0  0  0
   37.4320   22.8390   38.7690 H   0  0  0  0  0  0  0  0  0  0  0  0
   38.0070   24.6920   38.8260 O   0  0  0  0  0  0  0  0  0  0  0  0
  1  6  2  0  0  0  0
  1  2  1  0  0  0  0
  2  3  2  0  0  0  0
  3  4  1  0  0  0  0
  3 11  1  0  0  0  0
  5 20  1  0  0  0  0
  5  4  2  0  0  0  0
  6  5  1  0  0  0  0
  7  1  1  0  0  0  0
  8  2  1  0  0  0  0
  9 10  1  0  0  0  0
 10 15  1  0  0  0  0
 11 10  2  0  0  0  0
 11 12  1  0  0  0  0
 12 13  2  0  0  0  0
 13 14  1  0  0  0  0
 13 17  1  0  0  0  0
 14 18  1  0  0  0  0
 15 19  1  0  0  0  0
 15 14  2  0  0  0  0
 16 12  1  0  0  0  0
 20 21  1  0  0  0  0
 21 22  1  0  0  0  0
 23 21  1  0  0  0  0
 24 25  1  0  0  0  0
 24 21  1  0  0  0  0
 24 27  1  0  0  0  0
 26 24  1  0  0  0  0
 27 32  1  0  0  0  0
 28 27  2  0  0  0  0
 28 29  1  0  0  0  0
 29 30  2  0  0  0  0
 30 31  1  0  0  0  0
 31 35  1  0  0  0  0
 32 31  2  0  0  0  0
 33 28  1  0  0  0  0
 34 29  1  0  0  0  0
 35 36  1  0  0  0  0
 35 37  2  0  0  0  0
M  END
>  <minimizedAffinity>
-5.51059961

$$$$

 OpenBabel03272509563D

 37 39  0  0  0  0  0  0  0  0999 V2000
   36.1680   29.5670   31.8160 C   0  0  0  0  0  0  0  0  0  0  0  0
   35.5210   30.4020   32.7600 C   0  0  0  0  0  0  0  0  0  0  0  0
   35.4460   29.9740   34.0620 C   0  0  0  0  0  0  0  0  0  0  0  0
   36.0160   28.7520   34.3390 N   0  0  0  0  0  0  0  0  0  0  0  0
   36.6180   27.9820   33.4390 C   0  0  0  0  0  0  0  0  0  0  0  0
   36.6940   28.3980   32.1610 N   0  0  0  0  0  0  0  0  0  0  0  0
   36.2060   29.9410   30.7950 H   0  0  0  0  0  0  0  0  0  0  0  0
   35.0830   31.3490   32.5320 H   0  0  0  0  0  0  0  0  0  0  0  0
   36.6880   31.8170   35.9130 F   0  0  0  0  0  0  0  0  0  0  0  0
   35.3940   31.5550   36.0350 C   0  0  0  0  0  0  0  0  0  0  0  0
   34.8280   30.6870   35.1570 C   0  0  0  0  0  0  0  0  0  0  0  0
   33.4620   30.4810   35.3740 C   0  0  0  0  0  0  0  0  0  0  0  0
   32.7620   31.1030   36.3830 C   0  0  0  0  0  0  0  0  0  0  0  0
   33.3970   31.9740   37.2420 C   0  0  0  0  0  0  0  0  0  0  0  0
   34.7290   32.1900   37.0500 C   0  0  0  0  0  0  0  0  0  0  0  0
   32.8660   29.8100   34.7480 H   0  0  0  0  0  0  0  0  0  0  0  0
   31.7050   30.9350   36.5410 H   0  0  0  0  0  0  0  0  0  0  0  0
   32.8350   32.4560   38.0320 H   0  0  0  0  0  0  0  0  0  0  0  0
   35.2340   32.8730   37.7200 H   0  0  0  0  0  0  0  0  0  0  0  0
   37.1000   26.8150   33.9740 O   0  0  0  0  0  0  0  0  0  0  0  0
   38.2870   26.2580   33.4420 C   0  0  0  0  0  0  0  0  0  0  0  0
   38.3710   26.4150   32.3450 H   0  0  0  0  0  0  0  0  0  0  0  0
   38.2350   25.1540   33.6050 H   0  0  0  0  0  0  0  0  0  0  0  0
   39.4860   26.7570   34.1880 C   0  0  0  0  0  0  0  0  0  0  0  0
   39.2030   27.4430   35.0000 H   0  0  0  0  0  0  0  0  0  0  0  0
   40.1550   27.3180   33.4790 H   0  0  0  0  0  0  0  0  0  0  0  0
   40.3210   25.6530   34.7320 C   0  0  0  0  0  0  0  0  0  0  0  0
   41.7050   25.8320   34.6960 C   0  0  0  0  0  0  0  0  0  0  0  0
   42.5580   24.8710   35.1740 C   0  0  0  0  0  0  0  0  0  0  0  0
   42.0620   23.7430   35.6850 N   0  0  0  0  0  0  0  0  0  0  0  0
   40.7160   23.5900   35.7110 C   0  0  0  0  0  0  0  0  0  0  0  0
   39.8470   24.5050   35.2540 N   0  0  0  0  0  0  0  0  0  0  0  0
   42.1190   26.7500   34.2800 H   0  0  0  0  0  0  0  0  0  0  0  0
   43.6390   25.0750   35.1150 H   0  0  0  0  0  0  0  0  0  0  0  0
   40.1870   22.3530   36.2710 C   0  0  0  0  0  0  0  0  0  0  0  0
   40.7930   21.6840   36.8610 H   0  0  0  0  0  0  0  0  0  0  0  0
   39.0170   21.9580   36.1270 O   0  0  0  0  0  0  0  0  0  0  0  0
  1  6  2  0  0  0  0
  1  2  1  0  0  0  0
  2  3  2  0  0  0  0
  3  4  1  0  0  0  0
  3 11  1  0  0  0  0
  5 20  1  0  0  0  0
  5  4  2  0  0  0  0
  6  5  1  0  0  0  0
  7  1  1  0  0  0  0
  8  2  1  0  0  0  0
  9 10  1  0  0  0  0
 10 15  1  0  0  0  0
 11 12  1  0  0  0  0
 11 10  2  0  0  0  0
 12 13  2  0  0  0  0
 13 17  1  0  0  0  0
 13 14  1  0  0  0  0
 14 18  1  0  0  0  0
 15 14  2  0  0  0  0
 15 19  1  0  0  0  0
 16 12  1  0  0  0  0
 21 23  1  0  0  0  0
 21 20  1  0  0  0  0
 21 24  1  0  0  0  0
 22 21  1  0  0  0  0
 24 27  1  0  0  0  0
 24 25  1  0  0  0  0
 26 24  1  0  0  0  0
 27 32  1  0  0  0  0
 28 27  2  0  0  0  0
 28 29  1  0  0  0  0
 29 30  2  0  0  0  0
 30 31  1  0  0  0  0
 31 35  1  0  0  0  0
 32 31  2  0  0  0  0
 33 28  1  0  0  0  0
 34 29  1  0  0  0  0
 35 36  1  0  0  0  0
 37 35  2  0  0  0  0
M  END
>  <minimizedAffinity>
-5.35767984

$$$$

 OpenBabel03272509563D

 37 39  0  0  0  0  0  0  0  0999 V2000
   35.2230   25.7650   30.9230 C   0  0  0  0  0  0  0  0  0  0  0  0
   36.2150   26.4040   31.7070 C   0  0  0  0  0  0  0  0  0  0  0  0
   37.0380   25.6230   32.4770 C   0  0  0  0  0  0  0  0  0  0  0  0
   36.8240   24.2640   32.4190 N   0  0  0  0  0  0  0  0  0  0  0  0
   35.8880   23.6820   31.6770 C   0  0  0  0  0  0  0  0  0  0  0  0
   35.0780   24.4450   30.9200 N   0  0  0  0  0  0  0  0  0  0  0  0
   34.5900   26.4190   30.3280 H   0  0  0  0  0  0  0  0  0  0  0  0
   36.3710   27.4600   31.7430 H   0  0  0  0  0  0  0  0  0  0  0  0
   36.8740   26.3710   35.2660 F   0  0  0  0  0  0  0  0  0  0  0  0
   38.0430   26.4510   34.6450 C   0  0  0  0  0  0  0  0  0  0  0  0
   38.1010   26.0950   33.3360 C   0  0  0  0  0  0  0  0  0  0  0  0
   39.3770   26.2160   32.7780 C   0  0  0  0  0  0  0  0  0  0  0  0
   40.4680   26.6530   33.4940 C   0  0  0  0  0  0  0  0  0  0  0  0
   40.3420   27.0000   34.8220 C   0  0  0  0  0  0  0  0  0  0  0  0
   39.1070   26.8900   35.3860 C   0  0  0  0  0  0  0  0  0  0  0  0
   39.5840   25.9670   31.7340 H   0  0  0  0  0  0  0  0  0  0  0  0
   41.4520   26.7430   33.0510 H   0  0  0  0  0  0  0  0  0  0  0  0
   41.2080   27.3430   35.3740 H   0  0  0  0  0  0  0  0  0  0  0  0
   38.9990   27.1600   36.4290 H   0  0  0  0  0  0  0  0  0  0  0  0
   35.8850   22.3160   31.7990 O   0  0  0  0  0  0  0  0  0  0  0  0
   37.0440   21.6710   32.2920 C   0  0  0  0  0  0  0  0  0  0  0  0
   37.9590   22.2860   32.1540 H   0  0  0  0  0  0  0  0  0  0  0  0
   37.1860   20.7420   31.6890 H   0  0  0  0  0  0  0  0  0  0  0  0
   36.8450   21.2460   33.7150 C   0  0  0  0  0  0  0  0  0  0  0  0
   37.0140   20.1670   33.8440 H   0  0  0  0  0  0  0  0  0  0  0  0
   35.7860   21.4690   34.0230 H   0  0  0  0  0  0  0  0  0  0  0  0
   37.7030   22.0050   34.6640 C   0  0  0  0  0  0  0  0  0  0  0  0
   38.9760   22.3620   34.2170 C   0  0  0  0  0  0  0  0  0  0  0  0
   39.8400   23.0630   35.0190 C   0  0  0  0  0  0  0  0  0  0  0  0
   39.4610   23.4140   36.2480 N   0  0  0  0  0  0  0  0  0  0  0  0
   38.2210   23.0580   36.6620 C   0  0  0  0  0  0  0  0  0  0  0  0
   37.3450   22.3720   35.9100 N   0  0  0  0  0  0  0  0  0  0  0  0
   39.2940   22.0790   33.2140 H   0  0  0  0  0  0  0  0  0  0  0  0
   40.8300   23.3120   34.6040 H   0  0  0  0  0  0  0  0  0  0  0  0
   37.8190   23.4470   38.0080 C   0  0  0  0  0  0  0  0  0  0  0  0
   37.2730   22.7840   38.6590 H   0  0  0  0  0  0  0  0  0  0  0  0
   38.0610   24.5520   38.5240 O   0  0  0  0  0  0  0  0  0  0  0  0
  1  2  1  0  0  0  0
  2  8  1  0  0  0  0
  2  3  2  0  0  0  0
  3 11  1  0  0  0  0
  4  3  1  0  0  0  0
  5 20  1  0  0  0  0
  5  4  2  0  0  0  0
  6  1  2  0  0  0  0
  6  5  1  0  0  0  0
  7  1  1  0  0  0  0
 10  9  1  0  0  0  0
 10 15  1  0  0  0  0
 11 10  2  0  0  0  0
 12 11  1  0  0  0  0
 12 13  2  0  0  0  0
 13 14  1  0  0  0  0
 14 18  1  0  0  0  0
 14 15  2  0  0  0  0
 15 19  1  0  0  0  0
 16 12  1  0  0  0  0
 17 13  1  0  0  0  0
 20 21  1  0  0  0  0
 21 24  1  0  0  0  0
 22 21  1  0  0  0  0
 23 21  1  0  0  0  0
 24 25  1  0  0  0  0
 24 26  1  0  0  0  0
 24 27  1  0  0  0  0
 27 32  1  0  0  0  0
 28 27  2  0  0  0  0
 28 29  1  0  0  0  0
 29 30  2  0  0  0  0
 30 31  1  0  0  0  0
 31 35  1  0  0  0  0
 32 31  2  0  0  0  0
 33 28  1  0  0  0  0
 34 29  1  0  0  0  0
 35 37  2  0  0  0  0
 35 36  1  0  0  0  0
M  END
>  <minimizedAffinity>
-5.33237553

$$$$

 OpenBabel03272509563D

 37 39  0  0  0  0  0  0  0  0999 V2000
   35.8020   24.8900   31.3390 C   0  0  0  0  0  0  0  0  0  0  0  0
   35.4140   23.5320   31.4640 C   0  0  0  0  0  0  0  0  0  0  0  0
   36.3960   22.5890   31.6280 C   0  0  0  0  0  0  0  0  0  0  0  0
   37.6920   23.0510   31.6580 N   0  0  0  0  0  0  0  0  0  0  0  0
   38.0370   24.3290   31.5390 C   0  0  0  0  0  0  0  0  0  0  0  0
   37.0760   25.2590   31.3780 N   0  0  0  0  0  0  0  0  0  0  0  0
   34.9940   25.6060   31.2100 H   0  0  0  0  0  0  0  0  0  0  0  0
   34.4040   23.1860   31.4390 H   0  0  0  0  0  0  0  0  0  0  0  0
   35.3410   21.1620   33.9110 F   0  0  0  0  0  0  0  0  0  0  0  0
   35.6990   20.4780   32.8330 C   0  0  0  0  0  0  0  0  0  0  0  0
   36.1920   21.1650   31.7710 C   0  0  0  0  0  0  0  0  0  0  0  0
   36.5390   20.3500   30.6890 C   0  0  0  0  0  0  0  0  0  0  0  0
   36.3900   18.9820   30.7040 C   0  0  0  0  0  0  0  0  0  0  0  0
   35.8830   18.3440   31.8160 C   0  0  0  0  0  0  0  0  0  0  0  0
   35.5380   19.1190   32.8830 C   0  0  0  0  0  0  0  0  0  0  0  0
   36.9490   20.7560   29.7600 H   0  0  0  0  0  0  0  0  0  0  0  0
   36.6620   18.3610   29.8600 H   0  0  0  0  0  0  0  0  0  0  0  0
   35.7710   17.2670   31.8160 H   0  0  0  0  0  0  0  0  0  0  0  0
   35.1380   18.6260   33.7600 H   0  0  0  0  0  0  0  0  0  0  0  0
   39.3930   24.5230   31.6020 O   0  0  0  0  0  0  0  0  0  0  0  0
   40.1430   23.8030   32.5610 C   0  0  0  0  0  0  0  0  0  0  0  0
   40.8550   23.0910   32.0910 H   0  0  0  0  0  0  0  0  0  0  0  0
   39.4200   23.1910   33.1530 H   0  0  0  0  0  0  0  0  0  0  0  0
   40.8130   24.7400   33.5190 C   0  0  0  0  0  0  0  0  0  0  0  0
   41.2680   25.5960   32.9990 H   0  0  0  0  0  0  0  0  0  0  0  0
   41.6320   24.1900   34.0600 H   0  0  0  0  0  0  0  0  0  0  0  0
   39.8930   25.2280   34.5800 C   0  0  0  0  0  0  0  0  0  0  0  0
   39.7390   26.6100   34.6960 C   0  0  0  0  0  0  0  0  0  0  0  0
   38.9130   27.1570   35.6440 C   0  0  0  0  0  0  0  0  0  0  0  0
   38.2410   26.3570   36.4730 N   0  0  0  0  0  0  0  0  0  0  0  0
   38.4040   25.0180   36.3440 C   0  0  0  0  0  0  0  0  0  0  0  0
   39.2020   24.4430   35.4300 N   0  0  0  0  0  0  0  0  0  0  0  0
   40.2850   27.2720   34.0230 H   0  0  0  0  0  0  0  0  0  0  0  0
   38.8380   28.2550   35.6810 H   0  0  0  0  0  0  0  0  0  0  0  0
   37.6640   24.1550   37.2560 C   0  0  0  0  0  0  0  0  0  0  0  0
   37.4430   24.4470   38.2700 H   0  0  0  0  0  0  0  0  0  0  0  0
   37.2270   23.0290   36.9620 O   0  0  0  0  0  0  0  0  0  0  0  0
  1  6  2  0  0  0  0
  1  2  1  0  0  0  0
  2  3  2  0  0  0  0
  3  4  1  0  0  0  0
  3 11  1  0  0  0  0
  5 20  1  0  0  0  0
  5  4  2  0  0  0  0
  6  5  1  0  0  0  0
  7  1  1  0  0  0  0
  8  2  1  0  0  0  0
 10 15  1  0  0  0  0
 10  9  1  0  0  0  0
 11 10  2  0  0  0  0
 12 13  2  0  0  0  0
 12 11  1  0  0  0  0
 13 14  1  0  0  0  0
 14 18  1  0  0  0  0
 14 15  2  0  0  0  0
 15 19  1  0  0  0  0
 16 12  1  0  0  0  0
 17 13  1  0  0  0  0
 20 21  1  0  0  0  0
 21 23  1  0  0  0  0
 21 24  1  0  0  0  0
 22 21  1  0  0  0  0
 24 26  1  0  0  0  0
 24 27  1  0  0  0  0
 25 24  1  0  0  0  0
 27 28  2  0  0  0  0
 27 32  1  0  0  0  0
 28 29  1  0  0  0  0
 29 34  1  0  0  0  0
 29 30  2  0  0  0  0
 31 30  1  0  0  0  0
 31 35  1  0  0  0  0
 32 31  2  0  0  0  0
 33 28  1  0  0  0  0
 35 36  1  0  0  0  0
 37 35  2  0  0  0  0
M  END
>  <minimizedAffinity>
-5.25614834

$$$$

 OpenBabel03272509563D

 37 39  0  0  0  0  0  0  0  0999 V2000
   37.4060   27.5330   34.8120 C   0  0  0  0  0  0  0  0  0  0  0  0
   38.0650   26.6910   35.7430 C   0  0  0  0  0  0  0  0  0  0  0  0
   38.3470   25.4020   35.3670 C   0  0  0  0  0  0  0  0  0  0  0  0
   37.9600   25.0350   34.0980 N   0  0  0  0  0  0  0  0  0  0  0  0
   37.3430   25.8390   33.2390 C   0  0  0  0  0  0  0  0  0  0  0  0
   37.0630   27.1040   33.6030 N   0  0  0  0  0  0  0  0  0  0  0  0
   37.1990   28.5460   35.1480 H   0  0  0  0  0  0  0  0  0  0  0  0
   38.3600   26.9890   36.7250 H   0  0  0  0  0  0  0  0  0  0  0  0
   37.4580   24.2680   37.8740 F   0  0  0  0  0  0  0  0  0  0  0  0
   38.6090   23.8620   37.3550 C   0  0  0  0  0  0  0  0  0  0  0  0
   39.0100   24.4060   36.1780 C   0  0  0  0  0  0  0  0  0  0  0  0
   40.2350   23.9100   35.7200 C   0  0  0  0  0  0  0  0  0  0  0  0
   40.9600   22.9600   36.4020 C   0  0  0  0  0  0  0  0  0  0  0  0
   40.4960   22.4470   37.5950 C   0  0  0  0  0  0  0  0  0  0  0  0
   39.3040   22.9160   38.0600 C   0  0  0  0  0  0  0  0  0  0  0  0
   40.6900   24.2510   34.7860 H   0  0  0  0  0  0  0  0  0  0  0  0
   41.9070   22.5840   36.0380 H   0  0  0  0  0  0  0  0  0  0  0  0
   41.0760   21.7000   38.1220 H   0  0  0  0  0  0  0  0  0  0  0  0
   38.9320   22.5190   38.9960 H   0  0  0  0  0  0  0  0  0  0  0  0
   37.0670   25.2270   32.0420 O   0  0  0  0  0  0  0  0  0  0  0  0
   35.7210   24.9290   31.7210 C   0  0  0  0  0  0  0  0  0  0  0  0
   35.1720   25.8160   31.3380 H   0  0  0  0  0  0  0  0  0  0  0  0
   35.2160   24.6240   32.6700 H   0  0  0  0  0  0  0  0  0  0  0  0
   35.6480   23.7600   30.7880 C   0  0  0  0  0  0  0  0  0  0  0  0
   36.2240   23.9370   29.8680 H   0  0  0  0  0  0  0  0  0  0  0  0
   34.5750   23.5870   30.4960 H   0  0  0  0  0  0  0  0  0  0  0  0
   36.0950   22.4920   31.4230 C   0  0  0  0  0  0  0  0  0  0  0  0
   35.1740   21.8360   32.2410 C   0  0  0  0  0  0  0  0  0  0  0  0
   35.4920   20.6600   32.8700 C   0  0  0  0  0  0  0  0  0  0  0  0
   36.7040   20.1290   32.7020 N   0  0  0  0  0  0  0  0  0  0  0  0
   37.5840   20.7810   31.9050 C   0  0  0  0  0  0  0  0  0  0  0  0
   37.3120   21.9330   31.2700 N   0  0  0  0  0  0  0  0  0  0  0  0
   34.1810   22.2630   32.3840 H   0  0  0  0  0  0  0  0  0  0  0  0
   34.7180   20.1950   33.5020 H   0  0  0  0  0  0  0  0  0  0  0  0
   38.9050   20.1910   31.7290 C   0  0  0  0  0  0  0  0  0  0  0  0
   39.7530   20.7680   31.3970 H   0  0  0  0  0  0  0  0  0  0  0  0
   39.1760   18.9960   31.9390 O   0  0  0  0  0  0  0  0  0  0  0  0
  1  7  1  0  0  0  0
  1  2  1  0  0  0  0
  2  8  1  0  0  0  0
  3  2  2  0  0  0  0
  3 11  1  0  0  0  0
  4  3  1  0  0  0  0
  5  6  1  0  0  0  0
  5  4  2  0  0  0  0
  6  1  2  0  0  0  0
 10  9  1  0  0  0  0
 10 15  1  0  0  0  0
 11 10  2  0  0  0  0
 12 11  1  0  0  0  0
 12 13  2  0  0  0  0
 13 14  1  0  0  0  0
 14 15  2  0  0  0  0
 14 18  1  0  0  0  0
 15 19  1  0  0  0  0
 16 12  1  0  0  0  0
 17 13  1  0  0  0  0
 20  5  1  0  0  0  0
 21 20  1  0  0  0  0
 21 23  1  0  0  0  0
 22 21  1  0  0  0  0
 24 27  1  0  0  0  0
 24 21  1  0  0  0  0
 25 24  1  0  0  0  0
 26 24  1  0  0  0  0
 27 28  1  0  0  0  0
 28 33  1  0  0  0  0
 28 29  2  0  0  0  0
 29 34  1  0  0  0  0
 30 29  1  0  0  0  0
 31 30  2  0  0  0  0
 32 27  2  0  0  0  0
 32 31  1  0  0  0  0
 35 31  1  0  0  0  0
 35 37  2  0  0  0  0
 36 35  1  0  0  0  0
M  END
>  <minimizedAffinity>
-5.25123119

$$$$

 OpenBabel03272509563D

 37 39  0  0  0  0  0  0  0  0999 V2000
   38.0350   24.2860   32.1880 C   0  0  0  0  0  0  0  0  0  0  0  0
   38.3280   23.6970   33.4430 C   0  0  0  0  0  0  0  0  0  0  0  0
   38.3060   24.4970   34.5570 C   0  0  0  0  0  0  0  0  0  0  0  0
   37.9950   25.8230   34.3540 N   0  0  0  0  0  0  0  0  0  0  0  0
   37.7230   26.3580   33.1690 C   0  0  0  0  0  0  0  0  0  0  0  0
   37.7440   25.5760   32.0730 N   0  0  0  0  0  0  0  0  0  0  0  0
   38.0640   23.6190   31.3300 H   0  0  0  0  0  0  0  0  0  0  0  0
   38.5680   22.6660   33.5870 H   0  0  0  0  0  0  0  0  0  0  0  0
   40.4110   22.7470   35.4900 F   0  0  0  0  0  0  0  0  0  0  0  0
   39.5590   23.2550   36.3690 C   0  0  0  0  0  0  0  0  0  0  0  0
   38.5770   24.0750   35.9130 C   0  0  0  0  0  0  0  0  0  0  0  0
   37.7340   24.5540   36.9200 C   0  0  0  0  0  0  0  0  0  0  0  0
   37.8910   24.2250   38.2470 C   0  0  0  0  0  0  0  0  0  0  0  0
   38.9090   23.3860   38.6460 C   0  0  0  0  0  0  0  0  0  0  0  0
   39.7430   22.9060   37.6800 C   0  0  0  0  0  0  0  0  0  0  0  0
   36.8970   25.2260   36.7100 H   0  0  0  0  0  0  0  0  0  0  0  0
   37.2320   24.6020   39.0180 H   0  0  0  0  0  0  0  0  0  0  0  0
   39.0210   23.1340   39.6920 H   0  0  0  0  0  0  0  0  0  0  0  0
   40.5460   22.2470   37.9850 H   0  0  0  0  0  0  0  0  0  0  0  0
   37.4460   27.6990   33.2410 O   0  0  0  0  0  0  0  0  0  0  0  0
   36.4230   28.1390   34.1130 C   0  0  0  0  0  0  0  0  0  0  0  0
   36.7720   28.2210   35.1650 H   0  0  0  0  0  0  0  0  0  0  0  0
   35.6210   27.3620   34.1010 H   0  0  0  0  0  0  0  0  0  0  0  0
   35.8110   29.4110   33.6100 C   0  0  0  0  0  0  0  0  0  0  0  0
   35.9620   29.5330   32.5270 H   0  0  0  0  0  0  0  0  0  0  0  0
   36.2970   30.2840   34.1270 H   0  0  0  0  0  0  0  0  0  0  0  0
   34.3630   29.5150   33.9310 C   0  0  0  0  0  0  0  0  0  0  0  0
   33.4650   29.2140   32.9050 C   0  0  0  0  0  0  0  0  0  0  0  0
   32.1100   29.2810   33.1040 C   0  0  0  0  0  0  0  0  0  0  0  0
   31.6360   29.6390   34.2980 N   0  0  0  0  0  0  0  0  0  0  0  0
   32.5240   29.9270   35.2800 C   0  0  0  0  0  0  0  0  0  0  0  0
   33.8570   29.8740   35.1270 N   0  0  0  0  0  0  0  0  0  0  0  0
   33.8450   28.9210   31.9260 H   0  0  0  0  0  0  0  0  0  0  0  0
   31.4580   29.0310   32.2520 H   0  0  0  0  0  0  0  0  0  0  0  0
   31.9920   30.3180   36.5790 C   0  0  0  0  0  0  0  0  0  0  0  0
   30.9820   30.0900   36.8790 H   0  0  0  0  0  0  0  0  0  0  0  0
   32.6340   30.9360   37.4460 O   0  0  0  0  0  0  0  0  0  0  0  0
  1  2  1  0  0  0  0
  2  8  1  0  0  0  0
  2  3  2  0  0  0  0
  3 11  1  0  0  0  0
  4  3  1  0  0  0  0
  5 20  1  0  0  0  0
  5  4  2  0  0  0  0
  6  1  2  0  0  0  0
  6  5  1  0  0  0  0
  7  1  1  0  0  0  0
  9 10  1  0  0  0  0
 10 15  1  0  0  0  0
 11 10  2  0  0  0  0
 11 12  1  0  0  0  0
 12 13  2  0  0  0  0
 13 14  1  0  0  0  0
 13 17  1  0  0  0  0
 14 18  1  0  0  0  0
 15 19  1  0  0  0  0
 15 14  2  0  0  0  0
 16 12  1  0  0  0  0
 20 21  1  0  0  0  0
 21 22  1  0  0  0  0
 23 21  1  0  0  0  0
 24 27  1  0  0  0  0
 24 21  1  0  0  0  0
 24 26  1  0  0  0  0
 25 24  1  0  0  0  0
 27 32  1  0  0  0  0
 28 29  1  0  0  0  0
 28 27  2  0  0  0  0
 29 30  2  0  0  0  0
 30 31  1  0  0  0  0
 31 35  1  0  0  0  0
 32 31  2  0  0  0  0
 33 28  1  0  0  0  0
 34 29  1  0  0  0  0
 35 36  1  0  0  0  0
 35 37  2  0  0  0  0
M  END
>  <minimizedAffinity>
-5.23717117

$$$$
