
 OpenBabel03272510033D

 15 15  0  0  0  0  0  0  0  0999 V2000
   38.1500   23.3150   34.7140 C   0  0  0  0  0  0  0  0  0  0  0  0
   38.1460   24.6300   34.2430 C   0  0  0  0  0  0  0  0  0  0  0  0
   38.1600   25.6460   35.1880 C   0  0  0  0  0  0  0  0  0  0  0  0
   38.1750   25.3030   36.5060 N   0  0  0  0  0  0  0  0  0  0  0  0
   38.1780   24.0260   36.9120 C   0  0  0  0  0  0  0  0  0  0  0  0
   38.1660   23.0330   36.0250 N   0  0  0  0  0  0  0  0  0  0  0  0
   38.1400   22.4900   34.0040 H   0  0  0  0  0  0  0  0  0  0  0  0
   38.1330   24.8600   33.1780 H   0  0  0  0  0  0  0  0  0  0  0  0
   38.1960   23.7900   38.3850 C   0  0  0  0  0  0  0  0  0  0  0  0
   39.4490   23.3890   38.8300 F   0  0  0  0  0  0  0  0  0  0  0  0
   37.8990   24.9510   39.0880 F   0  0  0  0  0  0  0  0  0  0  0  0
   37.3010   22.8560   38.8140 F   0  0  0  0  0  0  0  0  0  0  0  0
   38.1550   27.0380   34.7790 C   0  0  0  0  0  0  0  0  0  0  0  0
   38.4660   27.2870   33.7730 H   0  0  0  0  0  0  0  0  0  0  0  0
   37.7950   27.9330   35.5790 O   0  0  0  0  0  0  0  0  0  0  0  0
  1  6  1  0  0  0  0
  2  1  2  0  0  0  0
  2  3  1  0  0  0  0
  3  4  2  0  0  0  0
  4  5  1  0  0  0  0
  5  9  1  0  0  0  0
  6  5  2  0  0  0  0
  7  1  1  0  0  0  0
  8  2  1  0  0  0  0
  9 12  1  0  0  0  0
  9 10  1  0  0  0  0
  9 11  1  0  0  0  0
 13  3  1  0  0  0  0
 13 15  2  0  0  0  0
 14 13  1  0  0  0  0
M  END
>  <minimizedAffinity>
-4.03913307

$$$$

 OpenBabel03272510033D

 15 15  0  0  0  0  0  0  0  0999 V2000
   38.1520   25.4450   35.0620 C   0  0  0  0  0  0  0  0  0  0  0  0
   38.1300   24.3400   34.2060 C   0  0  0  0  0  0  0  0  0  0  0  0
   38.1400   23.0810   34.7910 C   0  0  0  0  0  0  0  0  0  0  0  0
   38.1710   22.9980   36.1490 N   0  0  0  0  0  0  0  0  0  0  0  0
   38.1900   24.0870   36.9310 C   0  0  0  0  0  0  0  0  0  0  0  0
   38.1820   25.3060   36.3950 N   0  0  0  0  0  0  0  0  0  0  0  0
   38.1450   26.4490   34.6420 H   0  0  0  0  0  0  0  0  0  0  0  0
   38.1070   24.4510   33.1230 H   0  0  0  0  0  0  0  0  0  0  0  0
   38.2230   23.8550   38.4040 C   0  0  0  0  0  0  0  0  0  0  0  0
   37.8740   24.9950   39.1160 F   0  0  0  0  0  0  0  0  0  0  0  0
   37.3100   22.8780   38.7830 F   0  0  0  0  0  0  0  0  0  0  0  0
   39.4320   23.4400   38.8800 F   0  0  0  0  0  0  0  0  0  0  0  0
   38.1200   21.8840   33.9700 C   0  0  0  0  0  0  0  0  0  0  0  0
   39.0590   21.4130   33.7120 H   0  0  0  0  0  0  0  0  0  0  0  0
   37.0310   21.4080   33.5710 O   0  0  0  0  0  0  0  0  0  0  0  0
  1  6  1  0  0  0  0
  2  3  1  0  0  0  0
  2  1  2  0  0  0  0
  3  4  2  0  0  0  0
  4  5  1  0  0  0  0
  5  9  1  0  0  0  0
  6  5  2  0  0  0  0
  7  1  1  0  0  0  0
  8  2  1  0  0  0  0
  9 11  1  0  0  0  0
  9 12  1  0  0  0  0
  9 10  1  0  0  0  0
 13  3  1  0  0  0  0
 14 13  1  0  0  0  0
 15 13  2  0  0  0  0
M  END
>  <minimizedAffinity>
-3.95032167

$$$$

 OpenBabel03272510033D

 15 15  0  0  0  0  0  0  0  0999 V2000
   39.9080   23.1260   35.0980 C   0  0  0  0  0  0  0  0  0  0  0  0
   40.9460   22.2310   35.3730 C   0  0  0  0  0  0  0  0  0  0  0  0
   41.1290   21.8540   36.6960 C   0  0  0  0  0  0  0  0  0  0  0  0
   40.2950   22.3720   37.6380 N   0  0  0  0  0  0  0  0  0  0  0  0
   39.3110   23.2270   37.3290 C   0  0  0  0  0  0  0  0  0  0  0  0
   39.1140   23.6050   36.0670 N   0  0  0  0  0  0  0  0  0  0  0  0
   39.7320   23.4460   34.0730 H   0  0  0  0  0  0  0  0  0  0  0  0
   41.5920   21.8410   34.5880 H   0  0  0  0  0  0  0  0  0  0  0  0
   38.4690   23.7190   38.4570 C   0  0  0  0  0  0  0  0  0  0  0  0
   37.4430   22.8340   38.7620 F   0  0  0  0  0  0  0  0  0  0  0  0
   39.2120   23.8520   39.6230 F   0  0  0  0  0  0  0  0  0  0  0  0
   37.8950   24.9370   38.2400 F   0  0  0  0  0  0  0  0  0  0  0  0
   42.1870   20.9300   37.0610 C   0  0  0  0  0  0  0  0  0  0  0  0
   41.9470   20.0870   37.6960 H   0  0  0  0  0  0  0  0  0  0  0  0
   43.3560   21.1080   36.6450 O   0  0  0  0  0  0  0  0  0  0  0  0
  1  2  2  0  0  0  0
  1  6  1  0  0  0  0
  2  3  1  0  0  0  0
  3 13  1  0  0  0  0
  3  4  2  0  0  0  0
  5  4  1  0  0  0  0
  5  9  1  0  0  0  0
  6  5  2  0  0  0  0
  7  1  1  0  0  0  0
  8  2  1  0  0  0  0
  9 10  1  0  0  0  0
  9 11  1  0  0  0  0
 12  9  1  0  0  0  0
 13 14  1  0  0  0  0
 15 13  2  0  0  0  0
M  END
>  <minimizedAffinity>
-3.84455228

$$$$

 OpenBabel03272510033D

 15 15  0  0  0  0  0  0  0  0999 V2000
   38.3360   23.3670   34.5540 C   0  0  0  0  0  0  0  0  0  0  0  0
   38.2060   22.9230   35.8730 C   0  0  0  0  0  0  0  0  0  0  0  0
   38.0320   23.8860   36.8560 C   0  0  0  0  0  0  0  0  0  0  0  0
   37.9980   25.1940   36.4810 N   0  0  0  0  0  0  0  0  0  0  0  0
   38.1250   25.5750   35.2020 C   0  0  0  0  0  0  0  0  0  0  0  0
   38.2940   24.6700   34.2400 N   0  0  0  0  0  0  0  0  0  0  0  0
   38.4740   22.6420   33.7540 H   0  0  0  0  0  0  0  0  0  0  0  0
   38.2410   21.8650   36.1290 H   0  0  0  0  0  0  0  0  0  0  0  0
   38.0690   27.0400   34.9290 C   0  0  0  0  0  0  0  0  0  0  0  0
   36.7740   27.5340   35.0200 F   0  0  0  0  0  0  0  0  0  0  0  0
   38.8140   27.7580   35.8560 F   0  0  0  0  0  0  0  0  0  0  0  0
   38.5500   27.4010   33.7050 F   0  0  0  0  0  0  0  0  0  0  0  0
   37.8910   23.5050   38.2490 C   0  0  0  0  0  0  0  0  0  0  0  0
   36.9380   23.1270   38.5930 H   0  0  0  0  0  0  0  0  0  0  0  0
   38.8610   23.6120   39.0360 O   0  0  0  0  0  0  0  0  0  0  0  0
  1  2  1  0  0  0  0
  2  8  1  0  0  0  0
  2  3  2  0  0  0  0
  3 13  1  0  0  0  0
  4  3  1  0  0  0  0
  5  4  2  0  0  0  0
  6  1  2  0  0  0  0
  6  5  1  0  0  0  0
  7  1  1  0  0  0  0
  9 10  1  0  0  0  0
  9  5  1  0  0  0  0
  9 11  1  0  0  0  0
 12  9  1  0  0  0  0
 13 14  1  0  0  0  0
 13 15  2  0  0  0  0
M  END
>  <minimizedAffinity>
-3.714468

$$$$

 OpenBabel03272510033D

 15 15  0  0  0  0  0  0  0  0999 V2000
   38.2320   27.2240   35.5740 C   0  0  0  0  0  0  0  0  0  0  0  0
   38.0350   26.7040   34.2920 C   0  0  0  0  0  0  0  0  0  0  0  0
   37.8670   25.3310   34.1790 C   0  0  0  0  0  0  0  0  0  0  0  0
   37.9040   24.5800   35.3140 N   0  0  0  0  0  0  0  0  0  0  0  0
   38.0960   25.1220   36.5240 C   0  0  0  0  0  0  0  0  0  0  0  0
   38.2590   26.4370   36.6590 N   0  0  0  0  0  0  0  0  0  0  0  0
   38.3670   28.2960   35.7030 H   0  0  0  0  0  0  0  0  0  0  0  0
   38.0130   27.3420   33.4090 H   0  0  0  0  0  0  0  0  0  0  0  0
   38.1140   24.1850   37.6850 C   0  0  0  0  0  0  0  0  0  0  0  0
   37.8740   24.8420   38.8840 F   0  0  0  0  0  0  0  0  0  0  0  0
   37.1190   23.2220   37.5750 F   0  0  0  0  0  0  0  0  0  0  0  0
   39.2830   23.4970   37.8320 F   0  0  0  0  0  0  0  0  0  0  0  0
   37.6580   24.7150   32.8820 C   0  0  0  0  0  0  0  0  0  0  0  0
   38.4660   24.1490   32.4380 H   0  0  0  0  0  0  0  0  0  0  0  0
   36.5590   24.8380   32.2910 O   0  0  0  0  0  0  0  0  0  0  0  0
  1  7  1  0  0  0  0
  1  6  1  0  0  0  0
  2  1  2  0  0  0  0
  3  2  1  0  0  0  0
  3  4  2  0  0  0  0
  4  5  1  0  0  0  0
  5  6  2  0  0  0  0
  5  9  1  0  0  0  0
  8  2  1  0  0  0  0
  9 12  1  0  0  0  0
  9 10  1  0  0  0  0
 11  9  1  0  0  0  0
 13  3  1  0  0  0  0
 14 13  1  0  0  0  0
 15 13  2  0  0  0  0
M  END
>  <minimizedAffinity>
-3.64047146

$$$$

 OpenBabel03272510033D

 15 15  0  0  0  0  0  0  0  0999 V2000
   38.2690   23.7400   38.2920 C   0  0  0  0  0  0  0  0  0  0  0  0
   37.7880   24.3990   37.1570 C   0  0  0  0  0  0  0  0  0  0  0  0
   38.5210   24.2700   35.9860 C   0  0  0  0  0  0  0  0  0  0  0  0
   39.6540   23.5170   36.0110 N   0  0  0  0  0  0  0  0  0  0  0  0
   40.0780   22.9000   37.1240 C   0  0  0  0  0  0  0  0  0  0  0  0
   39.3920   23.0080   38.2610 N   0  0  0  0  0  0  0  0  0  0  0  0
   37.7220   23.8160   39.2290 H   0  0  0  0  0  0  0  0  0  0  0  0
   36.8760   24.9940   37.1810 H   0  0  0  0  0  0  0  0  0  0  0  0
   41.3350   22.1050   37.0130 C   0  0  0  0  0  0  0  0  0  0  0  0
   41.3910   21.3880   35.8260 F   0  0  0  0  0  0  0  0  0  0  0  0
   42.4550   22.9260   37.0120 F   0  0  0  0  0  0  0  0  0  0  0  0
   41.5260   21.2150   38.0290 F   0  0  0  0  0  0  0  0  0  0  0  0
   38.0870   24.9260   34.7660 C   0  0  0  0  0  0  0  0  0  0  0  0
   38.3420   24.4790   33.8150 H   0  0  0  0  0  0  0  0  0  0  0  0
   37.4290   25.9920   34.8190 O   0  0  0  0  0  0  0  0  0  0  0  0
  1  7  1  0  0  0  0
  2  8  1  0  0  0  0
  2  1  2  0  0  0  0
  3  4  2  0  0  0  0
  3  2  1  0  0  0  0
  4  5  1  0  0  0  0
  5  6  2  0  0  0  0
  6  1  1  0  0  0  0
  9  5  1  0  0  0  0
  9 12  1  0  0  0  0
 10  9  1  0  0  0  0
 11  9  1  0  0  0  0
 13 15  2  0  0  0  0
 13  3  1  0  0  0  0
 14 13  1  0  0  0  0
M  END
>  <minimizedAffinity>
-3.6392343

$$$$

 OpenBabel03272510033D

 15 15  0  0  0  0  0  0  0  0999 V2000
   38.0530   25.1350   34.9710 C   0  0  0  0  0  0  0  0  0  0  0  0
   39.1000   24.4560   34.3430 C   0  0  0  0  0  0  0  0  0  0  0  0
   39.8500   23.5830   35.1180 C   0  0  0  0  0  0  0  0  0  0  0  0
   39.5240   23.4430   36.4330 N   0  0  0  0  0  0  0  0  0  0  0  0
   38.5100   24.1150   36.9940 C   0  0  0  0  0  0  0  0  0  0  0  0
   37.7740   24.9580   36.2710 N   0  0  0  0  0  0  0  0  0  0  0  0
   37.4410   25.8280   34.3970 H   0  0  0  0  0  0  0  0  0  0  0  0
   39.3270   24.5990   33.2870 H   0  0  0  0  0  0  0  0  0  0  0  0
   38.2600   23.8680   38.4430 C   0  0  0  0  0  0  0  0  0  0  0  0
   39.4170   23.4860   39.1100 F   0  0  0  0  0  0  0  0  0  0  0  0
   37.8160   25.0170   39.0850 F   0  0  0  0  0  0  0  0  0  0  0  0
   37.3190   22.9130   38.6950 F   0  0  0  0  0  0  0  0  0  0  0  0
   40.9550   22.8420   34.5390 C   0  0  0  0  0  0  0  0  0  0  0  0
   40.8750   22.5020   33.5160 H   0  0  0  0  0  0  0  0  0  0  0  0
   41.9820   22.6040   35.2170 O   0  0  0  0  0  0  0  0  0  0  0  0
  1  6  1  0  0  0  0
  2  1  2  0  0  0  0
  2  3  1  0  0  0  0
  3  4  2  0  0  0  0
  4  5  1  0  0  0  0
  5  9  1  0  0  0  0
  6  5  2  0  0  0  0
  7  1  1  0  0  0  0
  8  2  1  0  0  0  0
  9 12  1  0  0  0  0
  9 11  1  0  0  0  0
  9 10  1  0  0  0  0
 13  3  1  0  0  0  0
 13 15  2  0  0  0  0
 14 13  1  0  0  0  0
M  END
>  <minimizedAffinity>
-3.61647296

$$$$

 OpenBabel03272510033D

 15 15  0  0  0  0  0  0  0  0999 V2000
   37.9670   23.9200   33.4950 C   0  0  0  0  0  0  0  0  0  0  0  0
   37.1640   24.4060   32.4600 C   0  0  0  0  0  0  0  0  0  0  0  0
   36.7950   25.7430   32.5130 C   0  0  0  0  0  0  0  0  0  0  0  0
   37.2340   26.4940   33.5600 N   0  0  0  0  0  0  0  0  0  0  0  0
   38.0050   25.9850   34.5310 C   0  0  0  0  0  0  0  0  0  0  0  0
   38.3730   24.7060   34.5030 N   0  0  0  0  0  0  0  0  0  0  0  0
   38.2780   22.8770   33.4890 H   0  0  0  0  0  0  0  0  0  0  0  0
   36.8330   23.7700   31.6400 H   0  0  0  0  0  0  0  0  0  0  0  0
   38.4170   26.9180   35.6200 C   0  0  0  0  0  0  0  0  0  0  0  0
   37.6790   28.0940   35.6000 F   0  0  0  0  0  0  0  0  0  0  0  0
   38.2040   26.3590   36.8740 F   0  0  0  0  0  0  0  0  0  0  0  0
   39.7340   27.2710   35.5880 F   0  0  0  0  0  0  0  0  0  0  0  0
   35.9600   26.3220   31.4760 C   0  0  0  0  0  0  0  0  0  0  0  0
   36.1570   27.3360   31.1540 H   0  0  0  0  0  0  0  0  0  0  0  0
   35.0300   25.6550   30.9660 O   0  0  0  0  0  0  0  0  0  0  0  0
  1  6  1  0  0  0  0
  2  3  1  0  0  0  0
  2  1  2  0  0  0  0
  3  4  2  0  0  0  0
  4  5  1  0  0  0  0
  5  9  1  0  0  0  0
  6  5  2  0  0  0  0
  7  1  1  0  0  0  0
  8  2  1  0  0  0  0
  9 11  1  0  0  0  0
 10  9  1  0  0  0  0
 12  9  1  0  0  0  0
 13  3  1  0  0  0  0
 14 13  1  0  0  0  0
 15 13  2  0  0  0  0
M  END
>  <minimizedAffinity>
-3.56753635

$$$$

 OpenBabel03272510033D

 15 15  0  0  0  0  0  0  0  0999 V2000
   38.0030   22.3290   30.9220 C   0  0  0  0  0  0  0  0  0  0  0  0
   37.4400   23.6020   30.7930 C   0  0  0  0  0  0  0  0  0  0  0  0
   36.1510   23.7800   31.2750 C   0  0  0  0  0  0  0  0  0  0  0  0
   35.5180   22.7150   31.8380 N   0  0  0  0  0  0  0  0  0  0  0  0
   36.0980   21.5110   31.9420 C   0  0  0  0  0  0  0  0  0  0  0  0
   37.3340   21.3140   31.4880 N   0  0  0  0  0  0  0  0  0  0  0  0
   39.0120   22.1490   30.5570 H   0  0  0  0  0  0  0  0  0  0  0  0
   37.9820   24.4270   30.3340 H   0  0  0  0  0  0  0  0  0  0  0  0
   35.2930   20.4310   32.5820 C   0  0  0  0  0  0  0  0  0  0  0  0
   35.1700   20.6190   33.9520 F   0  0  0  0  0  0  0  0  0  0  0  0
   33.9960   20.4040   32.0860 F   0  0  0  0  0  0  0  0  0  0  0  0
   35.7900   19.1750   32.3930 F   0  0  0  0  0  0  0  0  0  0  0  0
   35.4960   25.0720   31.1760 C   0  0  0  0  0  0  0  0  0  0  0  0
   35.9090   25.9090   31.7220 H   0  0  0  0  0  0  0  0  0  0  0  0
   34.4710   25.2100   30.4680 O   0  0  0  0  0  0  0  0  0  0  0  0
  1  6  1  0  0  0  0
  2  1  2  0  0  0  0
  2  3  1  0  0  0  0
  3  4  2  0  0  0  0
  4  5  1  0  0  0  0
  5  9  1  0  0  0  0
  6  5  2  0  0  0  0
  7  1  1  0  0  0  0
  8  2  1  0  0  0  0
  9 10  1  0  0  0  0
 11  9  1  0  0  0  0
 12  9  1  0  0  0  0
 13  3  1  0  0  0  0
 13 14  1  0  0  0  0
 15 13  2  0  0  0  0
M  END
>  <minimizedAffinity>
-3.53616071

$$$$
