
 OpenBabel03272509163D

 24 25  0  0  0  0  0  0  0  0999 V2000
   38.0150   31.4040   47.6570 C   0  0  0  0  0  0  0  0  0  0  0  0
   37.1020   31.3400   48.6780 C   0  0  0  0  0  0  0  0  0  0  0  0
   37.2140   32.3830   49.6120 C   0  0  0  0  0  0  0  0  0  0  0  0
   38.1830   33.3800   49.4820 C   0  0  0  0  0  0  0  0  0  0  0  0
   39.0580   33.3500   48.4120 C   0  0  0  0  0  0  0  0  0  0  0  0
   38.9770   32.3360   47.4700 C   0  0  0  0  0  0  0  0  0  0  0  0
   36.5060   32.3690   50.4390 H   0  0  0  0  0  0  0  0  0  0  0  0
   38.2150   34.1530   50.2350 H   0  0  0  0  0  0  0  0  0  0  0  0
   39.8150   34.1220   48.3020 H   0  0  0  0  0  0  0  0  0  0  0  0
   34.9670   30.3440   48.0100 C   0  0  0  0  0  0  0  0  0  0  0  0
   36.1110   30.3270   48.8170 C   0  0  0  0  0  0  0  0  0  0  0  0
   36.2120   29.2880   49.7340 C   0  0  0  0  0  0  0  0  0  0  0  0
   35.2200   28.3580   49.8060 N   0  0  0  0  0  0  0  0  0  0  0  0
   34.1300   28.4250   48.9950 C   0  0  0  0  0  0  0  0  0  0  0  0
   34.0030   29.4240   48.0920 N   0  0  0  0  0  0  0  0  0  0  0  0
   34.8840   31.1520   47.2940 H   0  0  0  0  0  0  0  0  0  0  0  0
   33.4070   27.6260   49.1460 H   0  0  0  0  0  0  0  0  0  0  0  0
   37.3740   29.2000   50.6120 C   0  0  0  0  0  0  0  0  0  0  0  0
   38.2720   28.7420   50.2600 H   0  0  0  0  0  0  0  0  0  0  0  0
   37.3750   29.6460   51.7940 O   0  0  0  0  0  0  0  0  0  0  0  0
   37.9790   30.3990   46.6720 O   0  0  0  0  0  0  0  0  0  0  0  0
   38.4980   29.5480   46.7270 H   0  0  0  0  0  0  0  0  0  0  0  0
   39.8690   32.3440   46.4180 O   0  0  0  0  0  0  0  0  0  0  0  0
   40.8120   32.0100   46.6130 H   0  0  0  0  0  0  0  0  0  0  0  0
  1  2  1  0  0  0  0
  2 11  1  0  0  0  0
  2  3  2  0  0  0  0
  3  7  1  0  0  0  0
  4  3  1  0  0  0  0
  4  8  1  0  0  0  0
  5  4  2  0  0  0  0
  6  1  2  0  0  0  0
  6  5  1  0  0  0  0
  9  5  1  0  0  0  0
 10 15  2  0  0  0  0
 10 11  1  0  0  0  0
 11 12  2  0  0  0  0
 12 13  1  0  0  0  0
 12 18  1  0  0  0  0
 14 17  1  0  0  0  0
 14 13  2  0  0  0  0
 15 14  1  0  0  0  0
 16 10  1  0  0  0  0
 18 20  2  0  0  0  0
 19 18  1  0  0  0  0
 21 22  1  0  0  0  0
 21  1  1  0  0  0  0
 23 24  1  0  0  0  0
 23  6  1  0  0  0  0
M  END
>  <minimizedAffinity>
-5.74462128

>  <minimizedRMSD>
1.97093725

$$$$
