
 OpenBabel03272509273D

 35 36  0  0  1  0  0  0  0  0999 V2000
   37.6390   25.5280   34.1190 C   0  0  2  0  0  0  0  0  0  0  0  0
   37.0520   26.7200   33.4250 C   0  0  0  0  0  0  0  0  0  0  0  0
   36.9860   27.8100   34.3950 C   0  0  0  0  0  0  0  0  0  0  0  0
   37.7830   27.8380   35.5690 C   0  0  0  0  0  0  0  0  0  0  0  0
   38.5340   26.6560   36.0400 C   0  0  0  0  0  0  0  0  0  0  0  0
   38.9250   25.9840   34.7300 C   0  0  2  0  0  0  0  0  0  0  0  0
   36.9850   25.1390   34.9300 H   0  0  0  0  0  0  0  0  0  0  0  0
   36.1120   26.4910   32.8830 H   0  0  0  0  0  0  0  0  0  0  0  0
   37.7900   26.9820   32.6090 H   0  0  0  0  0  0  0  0  0  0  0  0
   37.0880   28.7650   33.7990 H   0  0  0  0  0  0  0  0  0  0  0  0
   35.8900   27.8630   34.6620 H   0  0  0  0  0  0  0  0  0  0  0  0
   38.5520   28.6670   35.5110 H   0  0  0  0  0  0  0  0  0  0  0  0
   37.1900   28.1780   36.4750 H   0  0  0  0  0  0  0  0  0  0  0  0
   39.4930   26.8820   36.5500 H   0  0  0  0  0  0  0  0  0  0  0  0
   37.9770   25.9330   36.6430 H   0  0  0  0  0  0  0  0  0  0  0  0
   39.4860   25.0830   35.0510 H   0  0  0  0  0  0  0  0  0  0  0  0
   39.7060   26.9220   33.8870 C   0  0  0  0  0  0  0  0  0  0  0  0
   39.2460   27.5020   33.1100 H   0  0  0  0  0  0  0  0  0  0  0  0
   40.8480   27.3190   33.7530 O   0  0  0  0  0  0  0  0  0  0  0  0
   37.9780   24.2520   32.8930 S   0  0  0  0  0  0  0  0  0  0  0  0
   38.8660   22.8170   33.5310 C   0  0  0  0  0  0  0  0  0  0  0  0
   39.9130   22.9630   33.7370 H   0  0  0  0  0  0  0  0  0  0  0  0
   38.8520   22.0760   32.6650 H   0  0  0  0  0  0  0  0  0  0  0  0
   38.0320   22.1570   34.5940 C   0  0  0  0  0  0  0  0  0  0  0  0
   38.0360   21.0460   34.5590 H   0  0  0  0  0  0  0  0  0  0  0  0
   36.9460   22.4480   34.4680 H   0  0  0  0  0  0  0  0  0  0  0  0
   40.0230   22.7580   37.7040 C   0  0  0  0  0  0  0  0  0  0  0  0
   39.6810   22.3860   36.4030 C   0  0  0  0  0  0  0  0  0  0  0  0
   38.4060   22.5350   35.9420 C   0  0  0  0  0  0  0  0  0  0  0  0
   37.4830   23.0660   36.8170 N   0  0  0  0  0  0  0  0  0  0  0  0
   37.8270   23.4130   38.0470 C   0  0  0  0  0  0  0  0  0  0  0  0
   39.0810   23.2730   38.5200 N   0  0  0  0  0  0  0  0  0  0  0  0
   40.9980   22.6730   38.1400 H   0  0  0  0  0  0  0  0  0  0  0  0
   40.5370   22.0010   35.8770 H   0  0  0  0  0  0  0  0  0  0  0  0
   37.0810   23.8290   38.7120 H   0  0  0  0  0  0  0  0  0  0  0  0
  1  6  1  0  0  0  0
  1  7  1  1  0  0  0
  2  1  1  0  0  0  0
  2  3  1  0  0  0  0
  3 11  1  0  0  0  0
  3  4  1  0  0  0  0
  4  5  1  0  0  0  0
  4 13  1  0  0  0  0
  5 14  1  0  0  0  0
  5 15  1  0  0  0  0
  6 16  1  1  0  0  0
  6  5  1  0  0  0  0
  8  2  1  0  0  0  0
  9  2  1  0  0  0  0
 10  3  1  0  0  0  0
 12  4  1  0  0  0  0
 17  6  1  0  0  0  0
 18 17  1  0  0  0  0
 19 17  2  0  0  0  0
 20 21  1  0  0  0  0
 20  1  1  0  0  0  0
 21 22  1  0  0  0  0
 21 24  1  0  0  0  0
 23 21  1  0  0  0  0
 24 29  1  0  0  0  0
 25 24  1  0  0  0  0
 26 24  1  0  0  0  0
 27 33  1  0  0  0  0
 27 32  1  0  0  0  0
 28 27  2  0  0  0  0
 29 28  1  0  0  0  0
 29 30  2  0  0  0  0
 30 31  1  0  0  0  0
 31 32  2  0  0  0  0
 31 35  1  0  0  0  0
 34 28  1  0  0  0  0
M  END
>  <minimizedAffinity>
-4.41017866

$$$$

 OpenBabel03272509273D

 35 36  0  0  1  0  0  0  0  0999 V2000
   39.9460   23.9720   35.8600 C   0  0  2  0  0  0  0  0  0  0  0  0
   40.5870   22.7870   36.5180 C   0  0  0  0  0  0  0  0  0  0  0  0
   40.0430   22.6830   37.8690 C   0  0  0  0  0  0  0  0  0  0  0  0
   38.8130   23.2810   38.2470 C   0  0  0  0  0  0  0  0  0  0  0  0
   38.1250   24.2740   37.3950 C   0  0  0  0  0  0  0  0  0  0  0  0
   38.4700   23.7850   35.9940 C   0  0  2  0  0  0  0  0  0  0  0  0
   40.2220   24.9330   36.3460 H   0  0  0  0  0  0  0  0  0  0  0  0
   41.6930   22.7860   36.4350 H   0  0  0  0  0  0  0  0  0  0  0  0
   40.2590   21.8940   35.9070 H   0  0  0  0  0  0  0  0  0  0  0  0
   40.0700   21.5840   38.1320 H   0  0  0  0  0  0  0  0  0  0  0  0
   40.8820   23.0600   38.5240 H   0  0  0  0  0  0  0  0  0  0  0  0
   38.0320   22.4910   38.4600 H   0  0  0  0  0  0  0  0  0  0  0  0
   38.8790   23.7780   39.2650 H   0  0  0  0  0  0  0  0  0  0  0  0
   37.0170   24.2520   37.4490 H   0  0  0  0  0  0  0  0  0  0  0  0
   38.4610   25.3110   37.4870 H   0  0  0  0  0  0  0  0  0  0  0  0
   37.9730   24.5180   35.3270 H   0  0  0  0  0  0  0  0  0  0  0  0
   38.0100   22.3860   35.8140 C   0  0  0  0  0  0  0  0  0  0  0  0
   38.2330   21.6200   36.5330 H   0  0  0  0  0  0  0  0  0  0  0  0
   37.3780   21.7100   35.0240 O   0  0  0  0  0  0  0  0  0  0  0  0
   40.3930   23.9780   34.1140 S   0  0  0  0  0  0  0  0  0  0  0  0
   41.1040   25.5290   33.5270 C   0  0  0  0  0  0  0  0  0  0  0  0
   41.0650   25.6920   32.4630 H   0  0  0  0  0  0  0  0  0  0  0  0
   42.2160   25.4260   33.7530 H   0  0  0  0  0  0  0  0  0  0  0  0
   40.6470   26.6470   34.4220 C   0  0  0  0  0  0  0  0  0  0  0  0
   41.2750   27.5630   34.3720 H   0  0  0  0  0  0  0  0  0  0  0  0
   40.6960   26.3200   35.5040 H   0  0  0  0  0  0  0  0  0  0  0  0
   37.1130   27.7580   34.9440 C   0  0  0  0  0  0  0  0  0  0  0  0
   38.4260   27.3580   35.1990 C   0  0  0  0  0  0  0  0  0  0  0  0
   39.2810   27.0630   34.1790 C   0  0  0  0  0  0  0  0  0  0  0  0
   38.7880   27.1790   32.8960 N   0  0  0  0  0  0  0  0  0  0  0  0
   37.5390   27.5600   32.6750 C   0  0  0  0  0  0  0  0  0  0  0  0
   36.6810   27.8560   33.6710 N   0  0  0  0  0  0  0  0  0  0  0  0
   36.3820   28.0070   35.6880 H   0  0  0  0  0  0  0  0  0  0  0  0
   38.6210   27.3360   36.2570 H   0  0  0  0  0  0  0  0  0  0  0  0
   37.1790   27.6440   31.6580 H   0  0  0  0  0  0  0  0  0  0  0  0
  1  6  1  0  0  0  0
  1  7  1  1  0  0  0
  1  2  1  0  0  0  0
  2  3  1  0  0  0  0
  3 10  1  0  0  0  0
  3  4  1  0  0  0  0
  3 11  1  0  0  0  0
  4 12  1  0  0  0  0
  4 13  1  0  0  0  0
  5 14  1  0  0  0  0
  5 15  1  0  0  0  0
  5  4  1  0  0  0  0
  6 16  1  6  0  0  0
  6  5  1  0  0  0  0
  8  2  1  0  0  0  0
  9  2  1  0  0  0  0
 17  6  1  0  0  0  0
 17 18  1  0  0  0  0
 19 17  2  0  0  0  0
 20  1  1  0  0  0  0
 21 23  1  0  0  0  0
 21 20  1  0  0  0  0
 21 24  1  0  0  0  0
 22 21  1  0  0  0  0
 24 26  1  0  0  0  0
 25 24  1  0  0  0  0
 27 28  1  0  0  0  0
 27 33  1  0  0  0  0
 28 34  1  0  0  0  0
 29 24  1  0  0  0  0
 29 28  2  0  0  0  0
 30 29  1  0  0  0  0
 31 30  2  0  0  0  0
 31 32  1  0  0  0  0
 32 27  2  0  0  0  0
 35 31  1  0  0  0  0
M  END
>  <minimizedAffinity>
-4.36340714

$$$$

 OpenBabel03272509273D

 35 36  0  0  1  0  0  0  0  0999 V2000
   38.3880   25.4370   33.7070 C   0  0  2  0  0  0  0  0  0  0  0  0
   39.8130   25.4920   34.1690 C   0  0  0  0  0  0  0  0  0  0  0  0
   39.9700   26.6960   34.9800 C   0  0  0  0  0  0  0  0  0  0  0  0
   38.8720   27.3580   35.5870 C   0  0  0  0  0  0  0  0  0  0  0  0
   37.4710   27.0500   35.2320 C   0  0  0  0  0  0  0  0  0  0  0  0
   37.5400   25.5570   34.9310 C   0  0  2  0  0  0  0  0  0  0  0  0
   38.1290   26.2710   33.0190 H   0  0  0  0  0  0  0  0  0  0  0  0
   40.5440   25.3570   33.3470 H   0  0  0  0  0  0  0  0  0  0  0  0
   39.9500   24.5760   34.8190 H   0  0  0  0  0  0  0  0  0  0  0  0
   40.7820   26.4630   35.7310 H   0  0  0  0  0  0  0  0  0  0  0  0
   40.5300   27.4040   34.3010 H   0  0  0  0  0  0  0  0  0  0  0  0
   38.9150   27.2550   36.7140 H   0  0  0  0  0  0  0  0  0  0  0  0
   38.9480   28.4860   35.4860 H   0  0  0  0  0  0  0  0  0  0  0  0
   36.7420   27.1480   36.0630 H   0  0  0  0  0  0  0  0  0  0  0  0
   37.0680   27.5580   34.3500 H   0  0  0  0  0  0  0  0  0  0  0  0
   36.5000   25.2950   34.6510 H   0  0  0  0  0  0  0  0  0  0  0  0
   38.0580   24.8220   36.1120 C   0  0  0  0  0  0  0  0  0  0  0  0
   39.0830   24.5100   36.1780 H   0  0  0  0  0  0  0  0  0  0  0  0
   37.6710   24.3910   37.1810 O   0  0  0  0  0  0  0  0  0  0  0  0
   38.0910   23.8400   32.9280 S   0  0  0  0  0  0  0  0  0  0  0  0
   37.1600   23.9200   31.3850 C   0  0  0  0  0  0  0  0  0  0  0  0
   37.6970   23.6370   30.4940 H   0  0  0  0  0  0  0  0  0  0  0  0
   36.9520   25.0310   31.2430 H   0  0  0  0  0  0  0  0  0  0  0  0
   35.8000   23.3160   31.6010 C   0  0  0  0  0  0  0  0  0  0  0  0
   35.0160   23.6870   30.9080 H   0  0  0  0  0  0  0  0  0  0  0  0
   35.4230   23.5770   32.6350 H   0  0  0  0  0  0  0  0  0  0  0  0
   34.8940   19.7210   32.1040 C   0  0  0  0  0  0  0  0  0  0  0  0
   34.8910   21.1130   32.2050 C   0  0  0  0  0  0  0  0  0  0  0  0
   35.7880   21.8700   31.5110 C   0  0  0  0  0  0  0  0  0  0  0  0
   36.6890   21.1960   30.7130 N   0  0  0  0  0  0  0  0  0  0  0  0
   36.6750   19.8750   30.6310 C   0  0  0  0  0  0  0  0  0  0  0  0
   35.7960   19.1120   31.3090 N   0  0  0  0  0  0  0  0  0  0  0  0
   34.2240   19.0580   32.6160 H   0  0  0  0  0  0  0  0  0  0  0  0
   34.1120   21.4470   32.8680 H   0  0  0  0  0  0  0  0  0  0  0  0
   37.3940   19.3730   29.9950 H   0  0  0  0  0  0  0  0  0  0  0  0
  1  7  1  6  0  0  0
  1  2  1  0  0  0  0
  1  6  1  0  0  0  0
  2  9  1  0  0  0  0
  2  3  1  0  0  0  0
  3  4  1  0  0  0  0
  3 10  1  0  0  0  0
  4 12  1  0  0  0  0
  5  4  1  0  0  0  0
  5 14  1  0  0  0  0
  6 16  1  6  0  0  0
  6  5  1  0  0  0  0
  6 17  1  0  0  0  0
  8  2  1  0  0  0  0
 11  3  1  0  0  0  0
 13  4  1  0  0  0  0
 15  5  1  0  0  0  0
 17 18  1  0  0  0  0
 17 19  2  0  0  0  0
 20  1  1  0  0  0  0
 21 24  1  0  0  0  0
 21 20  1  0  0  0  0
 22 21  1  0  0  0  0
 23 21  1  0  0  0  0
 24 26  1  0  0  0  0
 25 24  1  0  0  0  0
 27 28  1  0  0  0  0
 27 33  1  0  0  0  0
 28 34  1  0  0  0  0
 29 24  1  0  0  0  0
 29 28  2  0  0  0  0
 30 29  1  0  0  0  0
 31 30  2  0  0  0  0
 31 32  1  0  0  0  0
 32 27  2  0  0  0  0
 35 31  1  0  0  0  0
M  END
>  <minimizedAffinity>
-4.30066919

$$$$

 OpenBabel03272509273D

 35 36  0  0  1  0  0  0  0  0999 V2000
   36.3270   21.8800   32.4080 C   0  0  2  0  0  0  0  0  0  0  0  0
   36.3720   21.2850   33.7830 C   0  0  0  0  0  0  0  0  0  0  0  0
   35.6260   20.0300   33.7470 C   0  0  0  0  0  0  0  0  0  0  0  0
   35.3730   19.3240   32.5420 C   0  0  0  0  0  0  0  0  0  0  0  0
   35.6000   19.9290   31.2120 C   0  0  0  0  0  0  0  0  0  0  0  0
   36.8080   20.8210   31.4700 C   0  0  2  0  0  0  0  0  0  0  0  0
   35.2990   22.1760   32.1030 H   0  0  0  0  0  0  0  0  0  0  0  0
   36.0850   22.0010   34.5790 H   0  0  0  0  0  0  0  0  0  0  0  0
   37.4650   21.0710   33.9780 H   0  0  0  0  0  0  0  0  0  0  0  0
   36.0990   19.3630   34.5270 H   0  0  0  0  0  0  0  0  0  0  0  0
   34.6560   20.2810   34.2670 H   0  0  0  0  0  0  0  0  0  0  0  0
   35.9470   18.3490   32.5200 H   0  0  0  0  0  0  0  0  0  0  0  0
   34.3090   18.9310   32.4960 H   0  0  0  0  0  0  0  0  0  0  0  0
   35.9230   19.2190   30.4230 H   0  0  0  0  0  0  0  0  0  0  0  0
   34.7930   20.5520   30.8160 H   0  0  0  0  0  0  0  0  0  0  0  0
   37.0000   21.2980   30.4880 H   0  0  0  0  0  0  0  0  0  0  0  0
   37.9390   20.0110   31.9870 C   0  0  0  0  0  0  0  0  0  0  0  0
   37.7820   19.1570   32.6180 H   0  0  0  0  0  0  0  0  0  0  0  0
   39.1540   19.9730   31.9370 O   0  0  0  0  0  0  0  0  0  0  0  0
   37.4500   23.2870   32.3480 S   0  0  0  0  0  0  0  0  0  0  0  0
   38.7550   23.2600   33.5930 C   0  0  0  0  0  0  0  0  0  0  0  0
   39.7530   23.0860   33.2260 H   0  0  0  0  0  0  0  0  0  0  0  0
   38.5220   22.3360   34.2180 H   0  0  0  0  0  0  0  0  0  0  0  0
   38.5510   24.4080   34.5420 C   0  0  0  0  0  0  0  0  0  0  0  0
   37.5770   24.9300   34.4310 H   0  0  0  0  0  0  0  0  0  0  0  0
   39.3310   25.2060   34.3550 H   0  0  0  0  0  0  0  0  0  0  0  0
   39.7400   22.8360   37.7210 C   0  0  0  0  0  0  0  0  0  0  0  0
   39.6400   23.1820   36.3730 C   0  0  0  0  0  0  0  0  0  0  0  0
   38.6700   24.0350   35.9370 C   0  0  0  0  0  0  0  0  0  0  0  0
   37.8010   24.5310   36.8860 N   0  0  0  0  0  0  0  0  0  0  0  0
   37.9120   24.1900   38.1600 C   0  0  0  0  0  0  0  0  0  0  0  0
   38.8650   23.3500   38.6090 N   0  0  0  0  0  0  0  0  0  0  0  0
   40.4720   22.1740   38.1420 H   0  0  0  0  0  0  0  0  0  0  0  0
   40.4100   22.7000   35.7960 H   0  0  0  0  0  0  0  0  0  0  0  0
   37.2170   24.5970   38.8830 H   0  0  0  0  0  0  0  0  0  0  0  0
  1  7  1  6  0  0  0
  1  2  1  0  0  0  0
  2  9  1  0  0  0  0
  2  8  1  0  0  0  0
  3  2  1  0  0  0  0
  3 11  1  0  0  0  0
  3 10  1  0  0  0  0
  4  3  1  0  0  0  0
  5  6  1  0  0  0  0
  5  4  1  0  0  0  0
  6 16  1  6  0  0  0
  6 17  1  0  0  0  0
  6  1  1  0  0  0  0
 12  4  1  0  0  0  0
 13  4  1  0  0  0  0
 14  5  1  0  0  0  0
 15  5  1  0  0  0  0
 17 18  1  0  0  0  0
 19 17  2  0  0  0  0
 20  1  1  0  0  0  0
 20 21  1  0  0  0  0
 21 23  1  0  0  0  0
 21 24  1  0  0  0  0
 22 21  1  0  0  0  0
 24 29  1  0  0  0  0
 25 24  1  0  0  0  0
 26 24  1  0  0  0  0
 27 33  1  0  0  0  0
 27 32  1  0  0  0  0
 28 27  2  0  0  0  0
 29 28  1  0  0  0  0
 29 30  2  0  0  0  0
 30 31  1  0  0  0  0
 31 32  2  0  0  0  0
 31 35  1  0  0  0  0
 34 28  1  0  0  0  0
M  END
>  <minimizedAffinity>
-4.16813469

$$$$

 OpenBabel03272509273D

 35 36  0  0  1  0  0  0  0  0999 V2000
   38.8400   24.4510   35.6950 C   0  0  2  0  0  0  0  0  0  0  0  0
   39.9740   23.5330   35.3500 C   0  0  0  0  0  0  0  0  0  0  0  0
   40.4640   22.9470   36.5950 C   0  0  0  0  0  0  0  0  0  0  0  0
   39.6810   22.8960   37.7770 C   0  0  0  0  0  0  0  0  0  0  0  0
   38.4270   23.6630   37.9260 C   0  0  0  0  0  0  0  0  0  0  0  0
   37.8750   23.6480   36.5050 C   0  0  2  0  0  0  0  0  0  0  0  0
   39.1660   25.3230   36.3040 H   0  0  0  0  0  0  0  0  0  0  0  0
   40.7360   24.0060   34.6980 H   0  0  0  0  0  0  0  0  0  0  0  0
   39.5150   22.7250   34.7060 H   0  0  0  0  0  0  0  0  0  0  0  0
   40.8720   21.9290   36.3210 H   0  0  0  0  0  0  0  0  0  0  0  0
   41.4310   23.4990   36.7860 H   0  0  0  0  0  0  0  0  0  0  0  0
   39.4000   21.8280   38.0250 H   0  0  0  0  0  0  0  0  0  0  0  0
   40.2870   23.1630   38.6990 H   0  0  0  0  0  0  0  0  0  0  0  0
   37.6480   23.1750   38.5470 H   0  0  0  0  0  0  0  0  0  0  0  0
   38.5270   24.7060   38.2430 H   0  0  0  0  0  0  0  0  0  0  0  0
   36.9320   24.2270   36.5810 H   0  0  0  0  0  0  0  0  0  0  0  0
   37.6970   22.2510   36.0410 C   0  0  0  0  0  0  0  0  0  0  0  0
   38.3770   21.4700   36.3250 H   0  0  0  0  0  0  0  0  0  0  0  0
   36.9430   21.5880   35.3540 O   0  0  0  0  0  0  0  0  0  0  0  0
   38.0430   24.9880   34.1720 S   0  0  0  0  0  0  0  0  0  0  0  0
   38.1680   23.8150   32.8070 C   0  0  0  0  0  0  0  0  0  0  0  0
   38.7010   22.9020   33.0160 H   0  0  0  0  0  0  0  0  0  0  0  0
   38.8210   24.3500   32.0410 H   0  0  0  0  0  0  0  0  0  0  0  0
   36.8280   23.7020   32.1330 C   0  0  0  0  0  0  0  0  0  0  0  0
   36.7270   24.3050   31.2050 H   0  0  0  0  0  0  0  0  0  0  0  0
   36.0180   24.0870   32.8210 H   0  0  0  0  0  0  0  0  0  0  0  0
   34.9870   20.4530   31.9080 C   0  0  0  0  0  0  0  0  0  0  0  0
   35.3200   21.7640   32.2510 C   0  0  0  0  0  0  0  0  0  0  0  0
   36.4660   22.3420   31.7900 C   0  0  0  0  0  0  0  0  0  0  0  0
   37.2700   21.5730   30.9750 N   0  0  0  0  0  0  0  0  0  0  0  0
   36.9360   20.3310   30.6610 C   0  0  0  0  0  0  0  0  0  0  0  0
   35.8080   19.7440   31.1070 N   0  0  0  0  0  0  0  0  0  0  0  0
   34.1080   19.9300   32.2280 H   0  0  0  0  0  0  0  0  0  0  0  0
   34.5660   22.1980   32.8850 H   0  0  0  0  0  0  0  0  0  0  0  0
   37.5860   19.7500   30.0180 H   0  0  0  0  0  0  0  0  0  0  0  0
  1  7  1  1  0  0  0
  1  6  1  0  0  0  0
  2  1  1  0  0  0  0
  2  3  1  0  0  0  0
  3 11  1  0  0  0  0
  3  4  1  0  0  0  0
  4  5  1  0  0  0  0
  4 12  1  0  0  0  0
  4 13  1  0  0  0  0
  5 15  1  0  0  0  0
  5 14  1  0  0  0  0
  6 16  1  6  0  0  0
  6  5  1  0  0  0  0
  8  2  1  0  0  0  0
  9  2  1  0  0  0  0
 10  3  1  0  0  0  0
 17 18  1  0  0  0  0
 17  6  1  0  0  0  0
 19 17  2  0  0  0  0
 20  1  1  0  0  0  0
 21 22  1  0  0  0  0
 21 20  1  0  0  0  0
 23 21  1  0  0  0  0
 24 21  1  0  0  0  0
 24 26  1  0  0  0  0
 25 24  1  0  0  0  0
 27 33  1  0  0  0  0
 27 28  1  0  0  0  0
 28 34  1  0  0  0  0
 29 24  1  0  0  0  0
 29 28  2  0  0  0  0
 30 29  1  0  0  0  0
 31 30  2  0  0  0  0
 31 32  1  0  0  0  0
 32 27  2  0  0  0  0
 35 31  1  0  0  0  0
M  END
>  <minimizedAffinity>
-4.14578342

$$$$

 OpenBabel03272509273D

 35 36  0  0  1  0  0  0  0  0999 V2000
   37.5500   20.8350   32.1880 C   0  0  2  0  0  0  0  0  0  0  0  0
   37.0470   20.2850   30.8870 C   0  0  0  0  0  0  0  0  0  0  0  0
   35.8550   19.4910   31.1720 C   0  0  0  0  0  0  0  0  0  0  0  0
   35.0910   19.6560   32.3570 C   0  0  0  0  0  0  0  0  0  0  0  0
   35.5840   20.4400   33.5090 C   0  0  0  0  0  0  0  0  0  0  0  0
   36.3950   21.5350   32.8270 C   0  0  2  0  0  0  0  0  0  0  0  0
   37.9030   20.0410   32.8800 H   0  0  0  0  0  0  0  0  0  0  0  0
   37.8360   19.7850   30.2900 H   0  0  0  0  0  0  0  0  0  0  0  0
   36.7620   21.1910   30.2720 H   0  0  0  0  0  0  0  0  0  0  0  0
   35.2080   19.5570   30.2470 H   0  0  0  0  0  0  0  0  0  0  0  0
   36.2160   18.4260   31.0820 H   0  0  0  0  0  0  0  0  0  0  0  0
   34.0750   20.0960   32.1210 H   0  0  0  0  0  0  0  0  0  0  0  0
   34.7810   18.6600   32.8030 H   0  0  0  0  0  0  0  0  0  0  0  0
   34.8000   20.9720   34.0860 H   0  0  0  0  0  0  0  0  0  0  0  0
   36.2410   19.9150   34.2100 H   0  0  0  0  0  0  0  0  0  0  0  0
   36.7880   22.1380   33.6700 H   0  0  0  0  0  0  0  0  0  0  0  0
   35.5360   22.2920   31.8830 C   0  0  0  0  0  0  0  0  0  0  0  0
   34.6780   21.8460   31.4170 H   0  0  0  0  0  0  0  0  0  0  0  0
   35.4550   23.3980   31.3840 O   0  0  0  0  0  0  0  0  0  0  0  0
   38.8570   22.0260   31.8480 S   0  0  0  0  0  0  0  0  0  0  0  0
   39.3820   22.9930   33.2780 C   0  0  0  0  0  0  0  0  0  0  0  0
   38.7710   23.8470   33.5200 H   0  0  0  0  0  0  0  0  0  0  0  0
   40.3770   23.4450   32.9570 H   0  0  0  0  0  0  0  0  0  0  0  0
   39.7460   22.0570   34.3960 C   0  0  0  0  0  0  0  0  0  0  0  0
   40.8340   21.8560   34.4930 H   0  0  0  0  0  0  0  0  0  0  0  0
   39.2770   21.0430   34.2170 H   0  0  0  0  0  0  0  0  0  0  0  0
   37.5780   23.3440   37.1600 C   0  0  0  0  0  0  0  0  0  0  0  0
   38.0040   22.9220   35.9000 C   0  0  0  0  0  0  0  0  0  0  0  0
   39.2850   22.5000   35.6960 C   0  0  0  0  0  0  0  0  0  0  0  0
   40.1280   22.5120   36.7870 N   0  0  0  0  0  0  0  0  0  0  0  0
   39.7040   22.9150   37.9750 C   0  0  0  0  0  0  0  0  0  0  0  0
   38.4430   23.3350   38.1940 N   0  0  0  0  0  0  0  0  0  0  0  0
   36.5920   23.6890   37.4010 H   0  0  0  0  0  0  0  0  0  0  0  0
   37.2020   22.9790   35.1850 H   0  0  0  0  0  0  0  0  0  0  0  0
   40.3880   22.9130   38.8140 H   0  0  0  0  0  0  0  0  0  0  0  0
  1  6  1  0  0  0  0
  1  7  1  1  0  0  0
  2  3  1  0  0  0  0
  2  1  1  0  0  0  0
  3  4  1  0  0  0  0
  4 13  1  0  0  0  0
  4  5  1  0  0  0  0
  5 14  1  0  0  0  0
  5 15  1  0  0  0  0
  6  5  1  0  0  0  0
  6 16  1  1  0  0  0
  8  2  1  0  0  0  0
  9  2  1  0  0  0  0
 10  3  1  0  0  0  0
 11  3  1  0  0  0  0
 12  4  1  0  0  0  0
 17  6  1  0  0  0  0
 18 17  1  0  0  0  0
 19 17  2  0  0  0  0
 20  1  1  0  0  0  0
 20 21  1  0  0  0  0
 21 22  1  0  0  0  0
 21 24  1  0  0  0  0
 23 21  1  0  0  0  0
 24 25  1  0  0  0  0
 24 29  1  0  0  0  0
 26 24  1  0  0  0  0
 27 33  1  0  0  0  0
 27 32  1  0  0  0  0
 28 27  2  0  0  0  0
 29 28  1  0  0  0  0
 29 30  2  0  0  0  0
 30 31  1  0  0  0  0
 31 32  2  0  0  0  0
 31 35  1  0  0  0  0
 34 28  1  0  0  0  0
M  END
>  <minimizedAffinity>
-4.11419058

$$$$

 OpenBabel03272509273D

 35 36  0  0  1  0  0  0  0  0999 V2000
   38.0380   27.2050   32.4890 C   0  0  2  0  0  0  0  0  0  0  0  0
   37.1750   27.0480   33.7050 C   0  0  0  0  0  0  0  0  0  0  0  0
   36.3490   28.2470   33.8190 C   0  0  0  0  0  0  0  0  0  0  0  0
   36.0900   29.1060   32.7190 C   0  0  0  0  0  0  0  0  0  0  0  0
   36.8460   29.0130   31.4520 C   0  0  0  0  0  0  0  0  0  0  0  0
   37.1180   27.5170   31.3530 C   0  0  2  0  0  0  0  0  0  0  0  0
   38.7680   28.0380   32.5860 H   0  0  0  0  0  0  0  0  0  0  0  0
   37.7450   26.7590   34.6110 H   0  0  0  0  0  0  0  0  0  0  0  0
   36.5180   26.1540   33.4890 H   0  0  0  0  0  0  0  0  0  0  0  0
   35.3920   27.9200   34.3250 H   0  0  0  0  0  0  0  0  0  0  0  0
   36.8290   28.8230   34.6630 H   0  0  0  0  0  0  0  0  0  0  0  0
   35.0020   29.0490   32.4130 H   0  0  0  0  0  0  0  0  0  0  0  0
   36.1590   30.2000   33.0100 H   0  0  0  0  0  0  0  0  0  0  0  0
   36.2670   29.2660   30.5400 H   0  0  0  0  0  0  0  0  0  0  0  0
   37.8050   29.5390   31.4170 H   0  0  0  0  0  0  0  0  0  0  0  0
   37.6950   27.4140   30.4120 H   0  0  0  0  0  0  0  0  0  0  0  0
   35.8410   26.7630   31.3720 C   0  0  0  0  0  0  0  0  0  0  0  0
   34.9840   27.1160   31.9130 H   0  0  0  0  0  0  0  0  0  0  0  0
   35.3590   25.7390   30.9230 O   0  0  0  0  0  0  0  0  0  0  0  0
   38.8770   25.6430   32.1680 S   0  0  0  0  0  0  0  0  0  0  0  0
   38.6520   24.3930   33.4490 C   0  0  0  0  0  0  0  0  0  0  0  0
   38.3500   23.4170   33.1080 H   0  0  0  0  0  0  0  0  0  0  0  0
   37.7590   24.7690   34.0480 H   0  0  0  0  0  0  0  0  0  0  0  0
   39.8020   24.4700   34.4160 C   0  0  0  0  0  0  0  0  0  0  0  0
   40.2730   25.4730   34.4920 H   0  0  0  0  0  0  0  0  0  0  0  0
   40.6340   23.7820   34.0790 H   0  0  0  0  0  0  0  0  0  0  0  0
   39.8380   22.7740   37.7500 C   0  0  0  0  0  0  0  0  0  0  0  0
   40.1880   23.1480   36.4520 C   0  0  0  0  0  0  0  0  0  0  0  0
   39.4530   24.0670   35.7630 C   0  0  0  0  0  0  0  0  0  0  0  0
   38.3570   24.6010   36.4070 N   0  0  0  0  0  0  0  0  0  0  0  0
   38.0410   24.2330   37.6390 C   0  0  0  0  0  0  0  0  0  0  0  0
   38.7560   23.3270   38.3350 N   0  0  0  0  0  0  0  0  0  0  0  0
   40.3620   22.0620   38.3560 H   0  0  0  0  0  0  0  0  0  0  0  0
   41.0740   22.6290   36.1290 H   0  0  0  0  0  0  0  0  0  0  0  0
   37.1760   24.6700   38.1200 H   0  0  0  0  0  0  0  0  0  0  0  0
  1  7  1  1  0  0  0
  1  2  1  0  0  0  0
  2  3  1  0  0  0  0
  2  8  1  0  0  0  0
  3 10  1  0  0  0  0
  3 11  1  0  0  0  0
  4 13  1  0  0  0  0
  4  3  1  0  0  0  0
  5  4  1  0  0  0  0
  6 16  1  6  0  0  0
  6 17  1  0  0  0  0
  6  5  1  0  0  0  0
  6  1  1  0  0  0  0
  9  2  1  0  0  0  0
 12  4  1  0  0  0  0
 14  5  1  0  0  0  0
 15  5  1  0  0  0  0
 17 18  1  0  0  0  0
 19 17  2  0  0  0  0
 20  1  1  0  0  0  0
 20 21  1  0  0  0  0
 21 23  1  0  0  0  0
 21 24  1  0  0  0  0
 22 21  1  0  0  0  0
 24 25  1  0  0  0  0
 24 29  1  0  0  0  0
 26 24  1  0  0  0  0
 27 32  1  0  0  0  0
 27 33  1  0  0  0  0
 28 27  2  0  0  0  0
 29 30  2  0  0  0  0
 29 28  1  0  0  0  0
 30 31  1  0  0  0  0
 31 35  1  0  0  0  0
 31 32  2  0  0  0  0
 34 28  1  0  0  0  0
M  END
>  <minimizedAffinity>
-4.10241079

$$$$

 OpenBabel03272509273D

 35 36  0  0  1  0  0  0  0  0999 V2000
   37.5960   25.9940   33.2090 C   0  0  2  0  0  0  0  0  0  0  0  0
   37.1480   27.3920   33.5140 C   0  0  0  0  0  0  0  0  0  0  0  0
   37.3420   27.6160   34.9440 C   0  0  0  0  0  0  0  0  0  0  0  0
   38.2320   26.8370   35.7280 C   0  0  0  0  0  0  0  0  0  0  0  0
   38.8230   25.5770   35.2300 C   0  0  0  0  0  0  0  0  0  0  0  0
   38.9850   25.8670   33.7430 C   0  0  2  0  0  0  0  0  0  0  0  0
   36.9610   25.2240   33.7000 H   0  0  0  0  0  0  0  0  0  0  0  0
   36.1410   27.6250   33.1140 H   0  0  0  0  0  0  0  0  0  0  0  0
   37.8450   28.0610   32.9270 H   0  0  0  0  0  0  0  0  0  0  0  0
   37.5430   28.7220   35.0620 H   0  0  0  0  0  0  0  0  0  0  0  0
   36.2960   27.5630   35.3660 H   0  0  0  0  0  0  0  0  0  0  0  0
   39.1150   27.4570   36.0670 H   0  0  0  0  0  0  0  0  0  0  0  0
   37.7820   26.5620   36.7330 H   0  0  0  0  0  0  0  0  0  0  0  0
   39.8460   25.3590   35.6000 H   0  0  0  0  0  0  0  0  0  0  0  0
   38.2110   24.6760   35.3380 H   0  0  0  0  0  0  0  0  0  0  0  0
   39.4210   24.9310   33.3370 H   0  0  0  0  0  0  0  0  0  0  0  0
   39.8310   27.0700   33.5470 C   0  0  0  0  0  0  0  0  0  0  0  0
   39.4070   28.0240   33.2980 H   0  0  0  0  0  0  0  0  0  0  0  0
   41.0030   27.3970   33.5750 O   0  0  0  0  0  0  0  0  0  0  0  0
   37.6190   25.7690   31.4220 S   0  0  0  0  0  0  0  0  0  0  0  0
   37.1730   24.1110   30.8680 C   0  0  0  0  0  0  0  0  0  0  0  0
   37.9880   23.4890   30.5360 H   0  0  0  0  0  0  0  0  0  0  0  0
   36.5570   24.2900   29.9260 H   0  0  0  0  0  0  0  0  0  0  0  0
   36.1930   23.5160   31.8420 C   0  0  0  0  0  0  0  0  0  0  0  0
   35.1850   23.9810   31.8220 H   0  0  0  0  0  0  0  0  0  0  0  0
   36.5630   23.6660   32.9000 H   0  0  0  0  0  0  0  0  0  0  0  0
   36.6540   19.9610   30.7720 C   0  0  0  0  0  0  0  0  0  0  0  0
   36.8540   21.3330   30.9240 C   0  0  0  0  0  0  0  0  0  0  0  0
   36.0010   22.0900   31.6700 C   0  0  0  0  0  0  0  0  0  0  0  0
   34.9400   21.4370   32.2620 N   0  0  0  0  0  0  0  0  0  0  0  0
   34.7670   20.1330   32.1060 C   0  0  0  0  0  0  0  0  0  0  0  0
   35.6000   19.3700   31.3720 N   0  0  0  0  0  0  0  0  0  0  0  0
   37.2770   19.2990   30.2040 H   0  0  0  0  0  0  0  0  0  0  0  0
   37.7360   21.6520   30.3950 H   0  0  0  0  0  0  0  0  0  0  0  0
   33.9260   19.6470   32.5830 H   0  0  0  0  0  0  0  0  0  0  0  0
  1  2  1  0  0  0  0
  1  7  1  1  0  0  0
  1  6  1  0  0  0  0
  2  3  1  0  0  0  0
  3 10  1  0  0  0  0
  3 11  1  0  0  0  0
  3  4  1  0  0  0  0
  4 12  1  0  0  0  0
  4 13  1  0  0  0  0
  5 15  1  0  0  0  0
  5 14  1  0  0  0  0
  5  4  1  0  0  0  0
  6 16  1  6  0  0  0
  6  5  1  0  0  0  0
  8  2  1  0  0  0  0
  9  2  1  0  0  0  0
 17 19  2  0  0  0  0
 17  6  1  0  0  0  0
 18 17  1  0  0  0  0
 20  1  1  0  0  0  0
 21 20  1  0  0  0  0
 21 24  1  0  0  0  0
 22 21  1  0  0  0  0
 23 21  1  0  0  0  0
 24 26  1  0  0  0  0
 25 24  1  0  0  0  0
 27 28  2  0  0  0  0
 27 32  1  0  0  0  0
 28 29  1  0  0  0  0
 29 24  1  0  0  0  0
 29 30  2  0  0  0  0
 31 30  1  0  0  0  0
 31 35  1  0  0  0  0
 32 31  2  0  0  0  0
 33 27  1  0  0  0  0
 34 28  1  0  0  0  0
M  END
>  <minimizedAffinity>
-4.05446196

$$$$

 OpenBabel03272509273D

 35 36  0  0  1  0  0  0  0  0999 V2000
   37.8320   27.6200   33.4260 C   0  0  2  0  0  0  0  0  0  0  0  0
   38.9260   27.2270   32.4790 C   0  0  0  0  0  0  0  0  0  0  0  0
   40.1520   27.0740   33.2570 C   0  0  0  0  0  0  0  0  0  0  0  0
   40.1470   26.8550   34.6590 C   0  0  0  0  0  0  0  0  0  0  0  0
   38.9310   27.0350   35.4800 C   0  0  0  0  0  0  0  0  0  0  0  0
   37.8310   26.6010   34.5190 C   0  0  2  0  0  0  0  0  0  0  0  0
   38.0000   28.6200   33.8820 H   0  0  0  0  0  0  0  0  0  0  0  0
   38.9900   27.8850   31.5890 H   0  0  0  0  0  0  0  0  0  0  0  0
   38.6110   26.2230   32.0630 H   0  0  0  0  0  0  0  0  0  0  0  0
   40.7690   26.2950   32.7160 H   0  0  0  0  0  0  0  0  0  0  0  0
   40.7450   28.0010   33.0050 H   0  0  0  0  0  0  0  0  0  0  0  0
   40.5100   25.8110   34.9030 H   0  0  0  0  0  0  0  0  0  0  0  0
   40.9400   27.4720   35.1870 H   0  0  0  0  0  0  0  0  0  0  0  0
   38.8460   26.3520   36.3500 H   0  0  0  0  0  0  0  0  0  0  0  0
   38.7130   28.0550   35.8110 H   0  0  0  0  0  0  0  0  0  0  0  0
   36.9000   26.7340   35.1060 H   0  0  0  0  0  0  0  0  0  0  0  0
   38.0720   25.2100   34.0620 C   0  0  0  0  0  0  0  0  0  0  0  0
   38.5680   24.9980   33.1340 H   0  0  0  0  0  0  0  0  0  0  0  0
   37.8760   24.0660   34.4250 O   0  0  0  0  0  0  0  0  0  0  0  0
   36.2580   27.5630   32.5530 S   0  0  0  0  0  0  0  0  0  0  0  0
   36.3070   26.6890   30.9750 C   0  0  0  0  0  0  0  0  0  0  0  0
   37.2830   26.5590   30.5370 H   0  0  0  0  0  0  0  0  0  0  0  0
   35.7680   27.3870   30.2540 H   0  0  0  0  0  0  0  0  0  0  0  0
   35.4130   25.4820   31.0560 C   0  0  0  0  0  0  0  0  0  0  0  0
   34.6800   25.3960   30.2260 H   0  0  0  0  0  0  0  0  0  0  0  0
   34.7860   25.5300   31.9950 H   0  0  0  0  0  0  0  0  0  0  0  0
   38.0900   22.8950   30.6870 C   0  0  0  0  0  0  0  0  0  0  0  0
   37.4080   24.1110   30.6280 C   0  0  0  0  0  0  0  0  0  0  0  0
   36.1370   24.2280   31.1060 C   0  0  0  0  0  0  0  0  0  0  0  0
   35.5650   23.0950   31.6460 N   0  0  0  0  0  0  0  0  0  0  0  0
   36.2290   21.9500   31.6930 C   0  0  0  0  0  0  0  0  0  0  0  0
   37.4850   21.8160   31.2260 N   0  0  0  0  0  0  0  0  0  0  0  0
   39.0870   22.7210   30.3340 H   0  0  0  0  0  0  0  0  0  0  0  0
   38.0230   24.8730   30.1810 H   0  0  0  0  0  0  0  0  0  0  0  0
   35.7550   21.0770   32.1240 H   0  0  0  0  0  0  0  0  0  0  0  0
  1  7  1  1  0  0  0
  1  6  1  0  0  0  0
  2  3  1  0  0  0  0
  2  1  1  0  0  0  0
  3  4  1  0  0  0  0
  4 12  1  0  0  0  0
  4 13  1  0  0  0  0
  4  5  1  0  0  0  0
  5 15  1  0  0  0  0
  5 14  1  0  0  0  0
  6 16  1  1  0  0  0
  6  5  1  0  0  0  0
  8  2  1  0  0  0  0
  9  2  1  0  0  0  0
 10  3  1  0  0  0  0
 11  3  1  0  0  0  0
 17 19  2  0  0  0  0
 17  6  1  0  0  0  0
 18 17  1  0  0  0  0
 20  1  1  0  0  0  0
 21 24  1  0  0  0  0
 21 20  1  0  0  0  0
 22 21  1  0  0  0  0
 23 21  1  0  0  0  0
 24 29  1  0  0  0  0
 24 26  1  0  0  0  0
 25 24  1  0  0  0  0
 27 32  1  0  0  0  0
 28 27  2  0  0  0  0
 28 29  1  0  0  0  0
 29 30  2  0  0  0  0
 30 31  1  0  0  0  0
 31 35  1  0  0  0  0
 32 31  2  0  0  0  0
 33 27  1  0  0  0  0
 34 28  1  0  0  0  0
M  END
>  <minimizedAffinity>
-4.02105474

$$$$
