
 OpenBabel03272508223D

 43 45  0  0  1  0  0  0  0  0999 V2000
   33.9160   28.3930   47.9540 C   0  0  0  0  0  0  0  0  0  0  0  0
   34.3270   27.4700   47.4410 H   0  0  0  0  0  0  0  0  0  0  0  0
   33.5120   28.9870   47.1090 H   0  0  0  0  0  0  0  0  0  0  0  0
   35.2040   30.6210   46.8840 F   0  0  0  0  0  0  0  0  0  0  0  0
   35.5810   30.0900   48.0990 C   0  0  0  0  0  0  0  0  0  0  0  0
   34.9670   28.9800   48.6920 C   0  0  0  0  0  0  0  0  0  0  0  0
   35.4760   28.6260   49.8680 C   0  0  0  0  0  0  0  0  0  0  0  0
   36.5110   29.2580   50.4890 C   0  0  0  0  0  0  0  0  0  0  0  0
   37.1280   30.3630   49.9050 C   0  0  0  0  0  0  0  0  0  0  0  0
   36.6150   30.7280   48.7080 C   0  0  0  0  0  0  0  0  0  0  0  0
   35.0300   27.7570   50.3800 H   0  0  0  0  0  0  0  0  0  0  0  0
   36.8660   28.8920   51.4650 H   0  0  0  0  0  0  0  0  0  0  0  0
   38.2410   31.0390   50.5780 C   0  0  0  0  0  0  0  0  0  0  0  0
   37.9100   32.0810   50.8010 H   0  0  0  0  0  0  0  0  0  0  0  0
   39.1340   31.0450   49.9040 H   0  0  0  0  0  0  0  0  0  0  0  0
   38.5000   30.5370   51.5110 H   0  0  0  0  0  0  0  0  0  0  0  0
   37.2600   31.8630   48.1080 O   0  0  0  0  0  0  0  0  0  0  0  0
   38.3800   31.5630   47.3810 C   0  0  0  0  0  0  0  0  0  0  0  0
   39.2440   32.4980   47.3690 O   0  0  0  0  0  0  0  0  0  0  0  0
   38.8040   30.4590   46.6410 N   0  0  0  0  0  0  0  0  0  0  0  0
   39.0470   30.4820   45.6200 H   0  0  0  0  0  0  0  0  0  0  0  0
   39.1220   29.6320   46.0870 H   0  0  0  0  0  0  0  0  0  0  0  0
   32.7310   27.9070   48.7100 C   0  0  0  0  0  0  0  0  0  0  0  0
   33.0830   27.2570   49.5380 H   0  0  0  0  0  0  0  0  0  0  0  0
   32.3240   28.8350   49.2120 H   0  0  0  0  0  0  0  0  0  0  0  0
   30.4230   27.1940   48.3860 C   0  0  0  0  0  0  0  0  0  0  0  0
   31.7240   27.2320   47.9460 C   0  0  0  0  0  0  0  0  0  0  0  0
   31.9420   26.6020   46.7820 C   0  0  0  0  0  0  0  0  0  0  0  0
   30.9740   25.9830   46.0970 N   0  0  0  0  0  0  0  0  0  0  0  0
   29.6970   25.9340   46.5060 C   0  0  0  0  0  0  0  0  0  0  0  0
   29.4160   26.5410   47.6570 N   0  0  0  0  0  0  0  0  0  0  0  0
   32.9320   26.5600   46.3250 H   0  0  0  0  0  0  0  0  0  0  0  0
   28.8530   25.4640   46.0270 H   0  0  0  0  0  0  0  0  0  0  0  0
   29.9820   27.8260   49.6770 C   0  0  1  0  0  0  0  0  0  0  0  0
   28.9140   28.7610   49.6990 C   0  0  0  0  0  0  0  0  0  0  0  0
   28.6170   27.3080   50.1160 C   0  0  2  0  0  0  0  0  0  0  0  0
   30.7270   27.8320   50.4700 H   0  0  0  0  0  0  0  0  0  0  0  0
   28.4780   29.1280   48.7480 H   0  0  0  0  0  0  0  0  0  0  0  0
   28.9040   29.5400   50.5020 H   0  0  0  0  0  0  0  0  0  0  0  0
   27.9970   26.7560   49.4140 H   0  0  0  0  0  0  0  0  0  0  0  0
   28.3490   27.1400   51.5680 C   0  0  0  0  0  0  0  0  0  0  0  0
   29.1430   27.4090   52.2820 H   0  0  0  0  0  0  0  0  0  0  0  0
   27.2230   26.7030   51.8170 O   0  0  0  0  0  0  0  0  0  0  0  0
  1  6  1  0  0  0  0
  1 23  1  0  0  0  0
  2  1  1  0  0  0  0
  3  1  1  0  0  0  0
  4  5  1  0  0  0  0
  5  6  2  0  0  0  0
  5 10  1  0  0  0  0
  6  7  1  0  0  0  0
  7 11  1  0  0  0  0
  7  8  2  0  0  0  0
  8 12  1  0  0  0  0
  9  8  1  0  0  0  0
  9 13  1  0  0  0  0
 10  9  2  0  0  0  0
 13 14  1  0  0  0  0
 13 16  1  0  0  0  0
 15 13  1  0  0  0  0
 17 10  1  0  0  0  0
 18 17  1  0  0  0  0
 19 18  2  0  0  0  0
 20 18  1  0  0  0  0
 21 20  1  0  0  0  0
 22 20  1  0  0  0  0
 23 25  1  0  0  0  0
 23 24  1  0  0  0  0
 26 34  1  0  0  0  0
 27 26  1  0  0  0  0
 27 23  1  0  0  0  0
 28 27  2  0  0  0  0
 29 30  2  0  0  0  0
 29 28  1  0  0  0  0
 30 31  1  0  0  0  0
 31 26  2  0  0  0  0
 32 28  1  0  0  0  0
 33 30  1  0  0  0  0
 34 35  1  0  0  0  0
 34 36  1  0  0  0  0
 34 37  1  1  0  0  0
 35 36  1  0  0  0  0
 35 39  1  0  0  0  0
 36 40  1  6  0  0  0
 36 41  1  0  0  0  0
 38 35  1  0  0  0  0
 41 43  2  0  0  0  0
 41 42  1  0  0  0  0
M  END
>  <minimizedAffinity>
-6.31907749

>  <minimizedRMSD>
0.605300307

$$$$
