
 OpenBabel03272509373D

 24 25  0  0  0  0  0  0  0  0999 V2000
   37.1190   30.9930   49.0090 C   0  0  0  0  0  0  0  0  0  0  0  0
   36.9040   31.9310   50.0100 C   0  0  0  0  0  0  0  0  0  0  0  0
   37.5660   33.1700   49.9860 C   0  0  0  0  0  0  0  0  0  0  0  0
   38.4520   33.4880   48.9640 C   0  0  0  0  0  0  0  0  0  0  0  0
   38.6520   32.5500   47.9850 C   0  0  0  0  0  0  0  0  0  0  0  0
   37.9950   31.3440   48.0220 C   0  0  0  0  0  0  0  0  0  0  0  0
   36.2140   31.6830   50.8060 H   0  0  0  0  0  0  0  0  0  0  0  0
   37.3170   33.8130   50.8160 H   0  0  0  0  0  0  0  0  0  0  0  0
   38.9370   34.4550   48.9920 H   0  0  0  0  0  0  0  0  0  0  0  0
   39.3500   32.8520   47.2150 H   0  0  0  0  0  0  0  0  0  0  0  0
   38.3030   30.4580   46.9230 C   0  0  0  0  0  0  0  0  0  0  0  0
   38.8880   29.6020   46.6640 H   0  0  0  0  0  0  0  0  0  0  0  0
   37.8610   30.4860   45.7490 O   0  0  0  0  0  0  0  0  0  0  0  0
   36.4260   29.7210   49.0720 C   0  0  0  0  0  0  0  0  0  0  0  0
   36.9840   28.8770   49.8570 O   0  0  0  0  0  0  0  0  0  0  0  0
   33.6260   30.1830   46.8150 C   0  0  0  0  0  0  0  0  0  0  0  0
   32.9550   28.9700   46.8540 C   0  0  0  0  0  0  0  0  0  0  0  0
   33.4560   27.9540   47.6710 C   0  0  0  0  0  0  0  0  0  0  0  0
   34.5940   28.1870   48.4070 N   0  0  0  0  0  0  0  0  0  0  0  0
   35.2100   29.3820   48.3360 C   0  0  0  0  0  0  0  0  0  0  0  0
   34.7270   30.3590   47.5500 N   0  0  0  0  0  0  0  0  0  0  0  0
   33.1700   30.9120   46.1600 H   0  0  0  0  0  0  0  0  0  0  0  0
   32.0660   28.7250   46.3050 H   0  0  0  0  0  0  0  0  0  0  0  0
   33.0460   26.9770   47.7970 H   0  0  0  0  0  0  0  0  0  0  0  0
  1 14  1  0  0  0  0
  1  2  1  0  0  0  0
  2  7  1  0  0  0  0
  3  2  2  0  0  0  0
  3  8  1  0  0  0  0
  4  9  1  0  0  0  0
  4  3  1  0  0  0  0
  5  6  1  0  0  0  0
  5  4  2  0  0  0  0
  6  1  2  0  0  0  0
 10  5  1  0  0  0  0
 11  6  1  0  0  0  0
 12 11  1  0  0  0  0
 13 11  2  0  0  0  0
 14 15  2  0  0  0  0
 16 17  2  0  0  0  0
 16 21  1  0  0  0  0
 17 18  1  0  0  0  0
 18 24  1  0  0  0  0
 18 19  2  0  0  0  0
 20 19  1  0  0  0  0
 20 14  1  0  0  0  0
 21 20  2  0  0  0  0
 22 16  1  0  0  0  0
 23 17  1  0  0  0  0
M  END
>  <minimizedAffinity>
-4.85631323

>  <minimizedRMSD>
2.02340412

$$$$
