
 OpenBabel03272510223D

 25 27  0  0  0  0  0  0  0  0999 V2000
   36.2660   30.2120   46.8640 C   0  0  0  0  0  0  0  0  0  0  0  0
   37.0910   30.7590   47.8240 C   0  0  0  0  0  0  0  0  0  0  0  0
   38.0760   31.6450   47.4640 C   0  0  0  0  0  0  0  0  0  0  0  0
   38.2050   31.9640   46.1180 C   0  0  0  0  0  0  0  0  0  0  0  0
   39.1020   32.8120   45.5360 N   0  0  0  0  0  0  0  0  0  0  0  0
   38.8390   32.7950   44.2180 C   0  0  0  0  0  0  0  0  0  0  0  0
   37.8170   31.9740   43.9490 N   0  0  0  0  0  0  0  0  0  0  0  0
   37.3970   31.4390   45.1120 C   0  0  0  0  0  0  0  0  0  0  0  0
   36.4090   30.5440   45.5110 C   0  0  0  0  0  0  0  0  0  0  0  0
   35.4650   29.5070   47.0520 H   0  0  0  0  0  0  0  0  0  0  0  0
   38.7260   32.0780   48.2040 H   0  0  0  0  0  0  0  0  0  0  0  0
   39.8450   33.3620   46.0230 H   0  0  0  0  0  0  0  0  0  0  0  0
   35.7720   30.1250   44.7520 H   0  0  0  0  0  0  0  0  0  0  0  0
   37.4340   30.1540   51.5220 C   0  0  0  0  0  0  0  0  0  0  0  0
   37.7480   30.5860   50.2340 C   0  0  0  0  0  0  0  0  0  0  0  0
   36.8640   30.3520   49.2020 C   0  0  0  0  0  0  0  0  0  0  0  0
   35.7030   29.7000   49.4850 N   0  0  0  0  0  0  0  0  0  0  0  0
   35.4050   29.2810   50.7470 C   0  0  0  0  0  0  0  0  0  0  0  0
   36.2650   29.5080   51.7530 N   0  0  0  0  0  0  0  0  0  0  0  0
   38.1280   30.3400   52.3180 H   0  0  0  0  0  0  0  0  0  0  0  0
   38.6600   31.0940   50.0300 H   0  0  0  0  0  0  0  0  0  0  0  0
   34.4800   28.7640   50.9560 H   0  0  0  0  0  0  0  0  0  0  0  0
   39.5260   33.5380   43.1690 C   0  0  0  0  0  0  0  0  0  0  0  0
   40.4430   34.0860   43.2940 H   0  0  0  0  0  0  0  0  0  0  0  0
   39.1150   33.6250   41.9720 O   0  0  0  0  0  0  0  0  0  0  0  0
  1 10  1  0  0  0  0
  1  2  1  0  0  0  0
  2 16  1  0  0  0  0
  3  2  2  0  0  0  0
  3 11  1  0  0  0  0
  4  3  1  0  0  0  0
  5 12  1  0  0  0  0
  5  4  1  0  0  0  0
  6  5  1  0  0  0  0
  7  6  2  0  0  0  0
  7  8  1  0  0  0  0
  8  9  1  0  0  0  0
  8  4  2  0  0  0  0
  9  1  2  0  0  0  0
 13  9  1  0  0  0  0
 14 19  1  0  0  0  0
 14 20  1  0  0  0  0
 15 14  2  0  0  0  0
 16 17  2  0  0  0  0
 16 15  1  0  0  0  0
 17 18  1  0  0  0  0
 18 22  1  0  0  0  0
 18 19  2  0  0  0  0
 21 15  1  0  0  0  0
 23 24  1  0  0  0  0
 23  6  1  0  0  0  0
 25 23  2  0  0  0  0
M  END
>  <minimizedAffinity>
-5.17171621

>  <minimizedRMSD>
1.15992057

$$$$
