
 OpenBabel03272510223D

 25 27  0  0  0  0  0  0  0  0999 V2000
   36.4660   30.3440   46.9940 C   0  0  0  0  0  0  0  0  0  0  0  0
   37.2150   30.8140   48.0520 C   0  0  0  0  0  0  0  0  0  0  0  0
   38.2390   31.7030   47.8320 C   0  0  0  0  0  0  0  0  0  0  0  0
   38.4850   32.1020   46.5240 C   0  0  0  0  0  0  0  0  0  0  0  0
   39.4390   32.9670   46.0740 N   0  0  0  0  0  0  0  0  0  0  0  0
   39.2870   33.0370   44.7400 C   0  0  0  0  0  0  0  0  0  0  0  0
   38.2800   32.2540   44.3350 N   0  0  0  0  0  0  0  0  0  0  0  0
   37.7570   31.6560   45.4230 C   0  0  0  0  0  0  0  0  0  0  0  0
   36.7270   30.7560   45.6810 C   0  0  0  0  0  0  0  0  0  0  0  0
   35.6420   29.6440   47.0690 H   0  0  0  0  0  0  0  0  0  0  0  0
   38.8300   32.0760   48.6490 H   0  0  0  0  0  0  0  0  0  0  0  0
   40.1460   33.4720   46.6550 H   0  0  0  0  0  0  0  0  0  0  0  0
   36.1500   30.3980   44.8470 H   0  0  0  0  0  0  0  0  0  0  0  0
   37.2520   29.9480   51.7130 C   0  0  0  0  0  0  0  0  0  0  0  0
   37.6800   30.4500   50.4850 C   0  0  0  0  0  0  0  0  0  0  0  0
   36.8680   30.3270   49.3780 C   0  0  0  0  0  0  0  0  0  0  0  0
   35.6630   29.7110   49.5290 N   0  0  0  0  0  0  0  0  0  0  0  0
   35.2530   29.2240   50.7330 C   0  0  0  0  0  0  0  0  0  0  0  0
   36.0430   29.3420   51.8120 N   0  0  0  0  0  0  0  0  0  0  0  0
   37.8900   30.0480   52.5690 H   0  0  0  0  0  0  0  0  0  0  0  0
   38.6250   30.9280   50.3850 H   0  0  0  0  0  0  0  0  0  0  0  0
   34.2940   28.7370   50.8380 H   0  0  0  0  0  0  0  0  0  0  0  0
   40.0700   33.8300   43.8010 C   0  0  0  0  0  0  0  0  0  0  0  0
   40.4960   33.4670   42.8830 H   0  0  0  0  0  0  0  0  0  0  0  0
   40.3430   35.0590   43.9630 O   0  0  0  0  0  0  0  0  0  0  0  0
  1 10  1  0  0  0  0
  1  2  1  0  0  0  0
  2 16  1  0  0  0  0
  3  2  2  0  0  0  0
  3 11  1  0  0  0  0
  4  3  1  0  0  0  0
  5  4  1  0  0  0  0
  5 12  1  0  0  0  0
  6  5  1  0  0  0  0
  7  6  2  0  0  0  0
  7  8  1  0  0  0  0
  8  9  1  0  0  0  0
  8  4  2  0  0  0  0
  9  1  2  0  0  0  0
 13  9  1  0  0  0  0
 14 19  1  0  0  0  0
 14 20  1  0  0  0  0
 15 14  2  0  0  0  0
 16 17  2  0  0  0  0
 16 15  1  0  0  0  0
 17 18  1  0  0  0  0
 18 22  1  0  0  0  0
 18 19  2  0  0  0  0
 21 15  1  0  0  0  0
 23 25  2  0  0  0  0
 23  6  1  0  0  0  0
 24 23  1  0  0  0  0
M  END
>  <minimizedAffinity>
-4.94880724

>  <minimizedRMSD>
0.742718577

$$$$
