
     RDKit          3D

 25 27  0  0  0  0  0  0  0  0999 V2000
   37.0541   30.7165   46.7756 C   0  0  0  0  0  0  0  0  0  0  0  0
   37.7003   31.1410   47.9179 C   0  0  0  0  0  0  0  0  0  0  0  0
   38.7169   32.0601   47.8348 C   0  0  0  0  0  0  0  0  0  0  0  0
   39.0623   32.5368   46.5773 C   0  0  0  0  0  0  0  0  0  0  0  0
   40.0303   33.4442   46.2570 N   0  0  0  0  0  0  0  0  0  0  0  0
   39.9892   33.5861   44.9213 C   0  0  0  0  0  0  0  0  0  0  0  0
   39.0388   32.8082   44.3904 N   0  0  0  0  0  0  0  0  0  0  0  0
   38.4395   32.1386   45.3947 C   0  0  0  0  0  0  0  0  0  0  0  0
   37.4143   31.2068   45.5152 C   0  0  0  0  0  0  0  0  0  0  0  0
   37.3890   30.1702   51.5399 C   0  0  0  0  0  0  0  0  0  0  0  0
   37.9004   30.7593   50.3853 C   0  0  0  0  0  0  0  0  0  0  0  0
   37.2535   30.5730   49.1808 C   0  0  0  0  0  0  0  0  0  0  0  0
   36.1263   29.8109   49.1678 N   0  0  0  0  0  0  0  0  0  0  0  0
   35.6338   29.2389   50.3019 C   0  0  0  0  0  0  0  0  0  0  0  0
   36.2623   29.4194   51.4750 N   0  0  0  0  0  0  0  0  0  0  0  0
   36.2442   29.9975   46.7434 H   0  0  0  0  0  0  0  0  0  0  0  0
   39.2279   32.3983   48.7187 H   0  0  0  0  0  0  0  0  0  0  0  0
   40.6726   33.9288   46.9232 H   0  0  0  0  0  0  0  0  0  0  0  0
   36.9193   30.8850   44.6157 H   0  0  0  0  0  0  0  0  0  0  0  0
   37.8975   30.3199   52.4718 H   0  0  0  0  0  0  0  0  0  0  0  0
   38.7831   31.3524   50.4134 H   0  0  0  0  0  0  0  0  0  0  0  0
   34.7376   28.6361   50.2765 H   0  0  0  0  0  0  0  0  0  0  0  0
   40.8291   34.4464   44.0972 C   0  0  0  0  0  0  0  0  0  0  0  0
   40.5177   35.3701   43.6437 H   0  0  0  0  0  0  0  0  0  0  0  0
   42.0422   34.1999   43.8164 O   0  0  0  0  0  0  0  0  0  0  0  0
  1  2  2  0
  2 12  1  0
  3  2  1  0
  4  3  2  0
  5  4  1  0
  6  5  1  0
  7  6  2  0
  7  8  1  0
  8  9  2  0
  8  4  1  0
  9  1  1  0
 11 10  2  0
 12 11  1  0
 13 12  2  0
 13 14  1  0
 14 15  2  0
 15 10  1  0
  1 16  1  0
  3 17  1  0
  5 18  1  0
  9 19  1  0
 10 20  1  0
 11 21  1  0
 14 22  1  0
 23 24  1  0
 23 25  2  0
  6 23  1  0
M  ISO  8  16  14  17  14  18   9  19  14  20  14  21  14  22  14  24   6
M  END
>  <DihAtoms>  (1) 
4,5,22,23

>  <DihDeg>  (1) 
-0.00015325030773107875

$$$$
