
 OpenBabel03272507183D

 24 25  0  0  1  0  0  0  0  0999 V2000
   37.0790   30.7140   50.6080 C   0  0  1  0  0  0  0  0  0  0  0  0
   36.0940   29.6550   50.3990 C   0  0  2  0  0  0  0  0  0  0  0  0
   37.4810   29.2350   50.7780 C   0  0  0  0  0  0  0  0  0  0  0  0
   37.1540   31.3290   51.5290 H   0  0  0  0  0  0  0  0  0  0  0  0
   35.2520   29.6910   51.1390 H   0  0  0  0  0  0  0  0  0  0  0  0
   38.1420   28.7760   50.0240 H   0  0  0  0  0  0  0  0  0  0  0  0
   37.5790   28.9320   51.8340 H   0  0  0  0  0  0  0  0  0  0  0  0
   37.7970   31.3620   49.4600 C   0  0  0  0  0  0  0  0  0  0  0  0
   38.2420   32.6580   49.6830 C   0  0  0  0  0  0  0  0  0  0  0  0
   38.8950   33.2390   48.5800 C   0  0  0  0  0  0  0  0  0  0  0  0
   39.0550   32.5480   47.4040 N   0  0  0  0  0  0  0  0  0  0  0  0
   38.5980   31.2820   47.2460 C   0  0  0  0  0  0  0  0  0  0  0  0
   37.9580   30.6840   48.2950 N   0  0  0  0  0  0  0  0  0  0  0  0
   38.1020   33.1710   50.6070 H   0  0  0  0  0  0  0  0  0  0  0  0
   39.2640   34.2360   48.6820 H   0  0  0  0  0  0  0  0  0  0  0  0
   38.7590   30.5430   46.0140 C   0  0  0  0  0  0  0  0  0  0  0  0
   37.9870   29.9340   45.6070 H   0  0  0  0  0  0  0  0  0  0  0  0
   39.8550   30.5920   45.3570 O   0  0  0  0  0  0  0  0  0  0  0  0
   35.6540   29.4420   49.0990 O   0  0  0  0  0  0  0  0  0  0  0  0
   34.4470   29.0200   48.6540 C   0  0  0  0  0  0  0  0  0  0  0  0
   34.2680   28.5960   47.4940 O   0  0  0  0  0  0  0  0  0  0  0  0
   33.5250   29.1560   49.6960 N   0  0  0  0  0  0  0  0  0  0  0  0
   33.1950   30.0240   50.1600 H   0  0  0  0  0  0  0  0  0  0  0  0
   33.1430   28.2310   50.0180 H   0  0  0  0  0  0  0  0  0  0  0  0
  1  3  1  0  0  0  0
  1  4  1  1  0  0  0
  2  1  1  0  0  0  0
  2  3  1  0  0  0  0
  2  5  1  1  0  0  0
  3  7  1  0  0  0  0
  6  3  1  0  0  0  0
  8  9  1  0  0  0  0
  8  1  1  0  0  0  0
  9 14  1  0  0  0  0
 10 15  1  0  0  0  0
 10  9  2  0  0  0  0
 11 10  1  0  0  0  0
 12 11  2  0  0  0  0
 12 13  1  0  0  0  0
 13  8  2  0  0  0  0
 16 12  1  0  0  0  0
 17 16  1  0  0  0  0
 18 16  2  0  0  0  0
 19  2  1  0  0  0  0
 20 19  1  0  0  0  0
 20 22  1  0  0  0  0
 21 20  2  0  0  0  0
 22 24  1  0  0  0  0
 22 23  1  0  0  0  0
M  END
>  <minimizedAffinity>
-4.85262966

>  <minimizedRMSD>
1.22514987

$$$$
