
 OpenBabel03262522413D

 35 38  0  0  0  0  0  0  0  0999 V2000
   37.6060   27.0540   33.7500 C   0  0  0  0  0  0  0  0  0  0  0  0
   37.7480   27.2700   32.4150 C   0  0  0  0  0  0  0  0  0  0  0  0
   37.0690   28.2540   31.7320 C   0  0  0  0  0  0  0  0  0  0  0  0
   36.1970   29.0800   32.3990 C   0  0  0  0  0  0  0  0  0  0  0  0
   36.0710   28.8410   33.7450 C   0  0  0  0  0  0  0  0  0  0  0  0
   36.7370   27.8830   34.3850 N   0  0  0  0  0  0  0  0  0  0  0  0
   38.4210   26.6530   31.8350 H   0  0  0  0  0  0  0  0  0  0  0  0
   37.2060   28.4010   30.6660 H   0  0  0  0  0  0  0  0  0  0  0  0
   35.6450   29.8640   31.8980 H   0  0  0  0  0  0  0  0  0  0  0  0
   33.7930   29.5910   34.5080 C   0  0  0  0  0  0  0  0  0  0  0  0
   35.1700   29.6640   34.5330 C   0  0  0  0  0  0  0  0  0  0  0  0
   35.6450   30.6340   35.4160 C   0  0  0  0  0  0  0  0  0  0  0  0
   34.8420   31.4440   36.1890 C   0  0  0  0  0  0  0  0  0  0  0  0
   35.1220   32.4180   37.0800 N   0  0  0  0  0  0  0  0  0  0  0  0
   33.9490   32.8860   37.5500 C   0  0  0  0  0  0  0  0  0  0  0  0
   32.9030   32.2190   36.9650 C   0  0  0  0  0  0  0  0  0  0  0  0
   33.4860   31.3080   36.1040 C   0  0  0  0  0  0  0  0  0  0  0  0
   32.9600   30.3790   35.2610 C   0  0  0  0  0  0  0  0  0  0  0  0
   33.3510   28.8490   33.8340 H   0  0  0  0  0  0  0  0  0  0  0  0
   36.7130   30.7830   35.5210 H   0  0  0  0  0  0  0  0  0  0  0  0
   36.0900   32.7320   37.3420 H   0  0  0  0  0  0  0  0  0  0  0  0
   33.9240   33.6860   38.2900 H   0  0  0  0  0  0  0  0  0  0  0  0
   31.8630   32.3970   37.1600 H   0  0  0  0  0  0  0  0  0  0  0  0
   31.8830   30.2960   35.2160 H   0  0  0  0  0  0  0  0  0  0  0  0
   40.1600   24.5030   34.8580 C   0  0  0  0  0  0  0  0  0  0  0  0
   39.5610   25.5050   34.0760 C   0  0  0  0  0  0  0  0  0  0  0  0
   38.3170   26.0180   34.4790 C   0  0  0  0  0  0  0  0  0  0  0  0
   37.7740   25.5110   35.6010 N   0  0  0  0  0  0  0  0  0  0  0  0
   38.3710   24.5470   36.3350 C   0  0  0  0  0  0  0  0  0  0  0  0
   39.5390   24.0520   35.9730 N   0  0  0  0  0  0  0  0  0  0  0  0
   41.1150   24.1530   34.4900 H   0  0  0  0  0  0  0  0  0  0  0  0
   39.9800   25.9250   33.1740 H   0  0  0  0  0  0  0  0  0  0  0  0
   37.6380   24.1150   37.5200 C   0  0  0  0  0  0  0  0  0  0  0  0
   36.7540   23.4930   37.5200 H   0  0  0  0  0  0  0  0  0  0  0  0
   38.0070   24.4580   38.6570 O   0  0  0  0  0  0  0  0  0  0  0  0
  1  6  1  0  0  0  0
  1 27  1  0  0  0  0
  2  1  2  0  0  0  0
  3  4  2  0  0  0  0
  3  2  1  0  0  0  0
  4  5  1  0  0  0  0
  5  6  2  0  0  0  0
  5 11  1  0  0  0  0
  7  2  1  0  0  0  0
  8  3  1  0  0  0  0
  9  4  1  0  0  0  0
 10 11  2  0  0  0  0
 10 18  1  0  0  0  0
 11 12  1  0  0  0  0
 12 20  1  0  0  0  0
 12 13  2  0  0  0  0
 13 14  1  0  0  0  0
 14 21  1  0  0  0  0
 14 15  1  0  0  0  0
 15 22  1  0  0  0  0
 16 23  1  0  0  0  0
 16 15  2  0  0  0  0
 17 13  1  0  0  0  0
 17 16  1  0  0  0  0
 18 17  2  0  0  0  0
 19 10  1  0  0  0  0
 24 18  1  0  0  0  0
 25 30  1  0  0  0  0
 26 27  1  0  0  0  0
 26 25  2  0  0  0  0
 27 28  2  0  0  0  0
 28 29  1  0  0  0  0
 29 33  1  0  0  0  0
 30 29  2  0  0  0  0
 31 25  1  0  0  0  0
 32 26  1  0  0  0  0
 33 34  1  0  0  0  0
 33 35  2  0  0  0  0
M  END
>  <minimizedAffinity>
-6.11735487

$$$$

 OpenBabel03262522413D

 35 38  0  0  0  0  0  0  0  0999 V2000
   37.2470   27.0720   33.8280 C   0  0  0  0  0  0  0  0  0  0  0  0
   37.0490   27.1100   32.4830 C   0  0  0  0  0  0  0  0  0  0  0  0
   36.2910   28.0740   31.8580 C   0  0  0  0  0  0  0  0  0  0  0  0
   35.6890   29.0640   32.5970 C   0  0  0  0  0  0  0  0  0  0  0  0
   35.9050   29.0030   33.9510 C   0  0  0  0  0  0  0  0  0  0  0  0
   36.6410   28.0610   34.5350 N   0  0  0  0  0  0  0  0  0  0  0  0
   37.4960   26.3580   31.8480 H   0  0  0  0  0  0  0  0  0  0  0  0
   36.1520   28.0770   30.7820 H   0  0  0  0  0  0  0  0  0  0  0  0
   35.0860   29.8400   32.1430 H   0  0  0  0  0  0  0  0  0  0  0  0
   36.0030   30.9320   35.5650 C   0  0  0  0  0  0  0  0  0  0  0  0
   35.3080   30.0090   34.8130 C   0  0  0  0  0  0  0  0  0  0  0  0
   33.9240   30.1270   34.9540 C   0  0  0  0  0  0  0  0  0  0  0  0
   33.3000   31.0590   35.7550 C   0  0  0  0  0  0  0  0  0  0  0  0
   31.9990   31.3140   36.0090 N   0  0  0  0  0  0  0  0  0  0  0  0
   31.9500   32.3450   36.8740 C   0  0  0  0  0  0  0  0  0  0  0  0
   33.2190   32.7630   37.1860 C   0  0  0  0  0  0  0  0  0  0  0  0
   34.0630   31.9370   36.4680 C   0  0  0  0  0  0  0  0  0  0  0  0
   35.4190   31.8740   36.3730 C   0  0  0  0  0  0  0  0  0  0  0  0
   37.0960   30.8960   35.5020 H   0  0  0  0  0  0  0  0  0  0  0  0
   33.2730   29.4530   34.4100 H   0  0  0  0  0  0  0  0  0  0  0  0
   31.1910   30.7870   35.5910 H   0  0  0  0  0  0  0  0  0  0  0  0
   30.9950   32.7310   37.2280 H   0  0  0  0  0  0  0  0  0  0  0  0
   33.4640   33.5680   37.8530 H   0  0  0  0  0  0  0  0  0  0  0  0
   35.9960   32.5830   36.9510 H   0  0  0  0  0  0  0  0  0  0  0  0
   39.9090   24.5340   34.6830 C   0  0  0  0  0  0  0  0  0  0  0  0
   39.2160   25.5100   33.9480 C   0  0  0  0  0  0  0  0  0  0  0  0
   38.0440   26.0570   34.4970 C   0  0  0  0  0  0  0  0  0  0  0  0
   37.6580   25.6080   35.7050 N   0  0  0  0  0  0  0  0  0  0  0  0
   38.3440   24.6670   36.3910 C   0  0  0  0  0  0  0  0  0  0  0  0
   39.4460   24.1400   35.8920 N   0  0  0  0  0  0  0  0  0  0  0  0
   40.8010   24.1550   34.2030 H   0  0  0  0  0  0  0  0  0  0  0  0
   39.5080   25.8850   32.9790 H   0  0  0  0  0  0  0  0  0  0  0  0
   37.7800   24.2980   37.6840 C   0  0  0  0  0  0  0  0  0  0  0  0
   36.7620   24.4760   38.0000 H   0  0  0  0  0  0  0  0  0  0  0  0
   38.4760   23.7270   38.5440 O   0  0  0  0  0  0  0  0  0  0  0  0
  1 27  1  0  0  0  0
  1  6  1  0  0  0  0
  2  1  2  0  0  0  0
  3  2  1  0  0  0  0
  3  4  2  0  0  0  0
  4  5  1  0  0  0  0
  5  6  2  0  0  0  0
  5 11  1  0  0  0  0
  7  2  1  0  0  0  0
  8  3  1  0  0  0  0
  9  4  1  0  0  0  0
 10 18  1  0  0  0  0
 11 12  1  0  0  0  0
 11 10  2  0  0  0  0
 12 13  2  0  0  0  0
 13 14  1  0  0  0  0
 13 17  1  0  0  0  0
 14 15  1  0  0  0  0
 15 16  2  0  0  0  0
 15 22  1  0  0  0  0
 16 23  1  0  0  0  0
 17 16  1  0  0  0  0
 18 17  2  0  0  0  0
 18 24  1  0  0  0  0
 19 10  1  0  0  0  0
 20 12  1  0  0  0  0
 21 14  1  0  0  0  0
 25 30  1  0  0  0  0
 26 27  1  0  0  0  0
 26 25  2  0  0  0  0
 27 28  2  0  0  0  0
 28 29  1  0  0  0  0
 29 33  1  0  0  0  0
 30 29  2  0  0  0  0
 31 25  1  0  0  0  0
 32 26  1  0  0  0  0
 33 34  1  0  0  0  0
 33 35  2  0  0  0  0
M  END
>  <minimizedAffinity>
-6.03897476

$$$$

 OpenBabel03262522413D

 35 38  0  0  0  0  0  0  0  0999 V2000
   36.1960   28.5850   33.4730 C   0  0  0  0  0  0  0  0  0  0  0  0
   36.6320   28.6680   32.1870 C   0  0  0  0  0  0  0  0  0  0  0  0
   37.5790   27.8230   31.6540 C   0  0  0  0  0  0  0  0  0  0  0  0
   38.1350   26.8340   32.4290 C   0  0  0  0  0  0  0  0  0  0  0  0
   37.6780   26.7720   33.7220 C   0  0  0  0  0  0  0  0  0  0  0  0
   36.7620   27.6000   34.2170 N   0  0  0  0  0  0  0  0  0  0  0  0
   36.2320   29.4260   31.5270 H   0  0  0  0  0  0  0  0  0  0  0  0
   37.9040   27.9150   30.6230 H   0  0  0  0  0  0  0  0  0  0  0  0
   38.8810   26.1500   32.0470 H   0  0  0  0  0  0  0  0  0  0  0  0
   39.1960   24.8480   34.2980 C   0  0  0  0  0  0  0  0  0  0  0  0
   38.2100   25.7580   34.6160 C   0  0  0  0  0  0  0  0  0  0  0  0
   37.7450   25.6170   35.9250 C   0  0  0  0  0  0  0  0  0  0  0  0
   38.2090   24.6760   36.8190 C   0  0  0  0  0  0  0  0  0  0  0  0
   37.8830   24.4000   38.0990 N   0  0  0  0  0  0  0  0  0  0  0  0
   38.6530   23.3700   38.5000 C   0  0  0  0  0  0  0  0  0  0  0  0
   39.4830   22.9730   37.4820 C   0  0  0  0  0  0  0  0  0  0  0  0
   39.1880   23.8120   36.4220 C   0  0  0  0  0  0  0  0  0  0  0  0
   39.6840   23.8980   35.1580 C   0  0  0  0  0  0  0  0  0  0  0  0
   39.6070   24.9020   33.2830 H   0  0  0  0  0  0  0  0  0  0  0  0
   36.9680   26.2780   36.2890 H   0  0  0  0  0  0  0  0  0  0  0  0
   37.1550   24.9130   38.6570 H   0  0  0  0  0  0  0  0  0  0  0  0
   38.5670   22.9680   39.5090 H   0  0  0  0  0  0  0  0  0  0  0  0
   40.1980   22.1740   37.5350 H   0  0  0  0  0  0  0  0  0  0  0  0
   40.4580   23.1990   34.8750 H   0  0  0  0  0  0  0  0  0  0  0  0
   32.9620   30.3510   34.2990 C   0  0  0  0  0  0  0  0  0  0  0  0
   33.8410   29.4460   33.6820 C   0  0  0  0  0  0  0  0  0  0  0  0
   35.1980   29.4730   34.0450 C   0  0  0  0  0  0  0  0  0  0  0  0
   35.5720   30.3740   34.9720 N   0  0  0  0  0  0  0  0  0  0  0  0
   34.7050   31.2340   35.5510 C   0  0  0  0  0  0  0  0  0  0  0  0
   33.4270   31.2240   35.2220 N   0  0  0  0  0  0  0  0  0  0  0  0
   31.9330   30.2760   33.9730 H   0  0  0  0  0  0  0  0  0  0  0  0
   33.5620   28.7160   32.9370 H   0  0  0  0  0  0  0  0  0  0  0  0
   35.2840   32.1420   36.5340 C   0  0  0  0  0  0  0  0  0  0  0  0
   36.3400   32.3340   36.6680 H   0  0  0  0  0  0  0  0  0  0  0  0
   34.5590   32.7800   37.3170 O   0  0  0  0  0  0  0  0  0  0  0  0
  1 27  1  0  0  0  0
  1  6  1  0  0  0  0
  2  1  2  0  0  0  0
  3  2  1  0  0  0  0
  3  4  2  0  0  0  0
  4  5  1  0  0  0  0
  5  6  2  0  0  0  0
  5 11  1  0  0  0  0
  7  2  1  0  0  0  0
  8  3  1  0  0  0  0
  9  4  1  0  0  0  0
 10 11  2  0  0  0  0
 10 18  1  0  0  0  0
 11 12  1  0  0  0  0
 12 20  1  0  0  0  0
 12 13  2  0  0  0  0
 13 14  1  0  0  0  0
 14 15  1  0  0  0  0
 14 21  1  0  0  0  0
 15 22  1  0  0  0  0
 16 23  1  0  0  0  0
 16 15  2  0  0  0  0
 17 13  1  0  0  0  0
 17 16  1  0  0  0  0
 18 17  2  0  0  0  0
 19 10  1  0  0  0  0
 24 18  1  0  0  0  0
 25 30  1  0  0  0  0
 26 27  1  0  0  0  0
 26 25  2  0  0  0  0
 27 28  2  0  0  0  0
 28 29  1  0  0  0  0
 29 33  1  0  0  0  0
 30 29  2  0  0  0  0
 31 25  1  0  0  0  0
 32 26  1  0  0  0  0
 33 34  1  0  0  0  0
 33 35  2  0  0  0  0
M  END
>  <minimizedAffinity>
-5.96935606

$$$$

 OpenBabel03262522413D

 35 38  0  0  0  0  0  0  0  0999 V2000
   36.0860   28.7180   33.8660 C   0  0  0  0  0  0  0  0  0  0  0  0
   36.3180   28.7350   32.5260 C   0  0  0  0  0  0  0  0  0  0  0  0
   37.1040   27.8050   31.8840 C   0  0  0  0  0  0  0  0  0  0  0  0
   37.7010   26.7950   32.5980 C   0  0  0  0  0  0  0  0  0  0  0  0
   37.4510   26.8010   33.9480 C   0  0  0  0  0  0  0  0  0  0  0  0
   36.6890   27.7100   34.5490 N   0  0  0  0  0  0  0  0  0  0  0  0
   35.8760   29.5060   31.9090 H   0  0  0  0  0  0  0  0  0  0  0  0
   37.2690   27.8460   30.8120 H   0  0  0  0  0  0  0  0  0  0  0  0
   38.3260   26.0450   32.1300 H   0  0  0  0  0  0  0  0  0  0  0  0
   38.9760   24.8440   34.3750 C   0  0  0  0  0  0  0  0  0  0  0  0
   38.0400   25.7700   34.7850 C   0  0  0  0  0  0  0  0  0  0  0  0
   37.6930   25.6290   36.1300 C   0  0  0  0  0  0  0  0  0  0  0  0
   38.2170   24.6730   36.9740 C   0  0  0  0  0  0  0  0  0  0  0  0
   38.0010   24.3930   38.2760 N   0  0  0  0  0  0  0  0  0  0  0  0
   38.7840   23.3460   38.6000 C   0  0  0  0  0  0  0  0  0  0  0  0
   39.5110   22.9410   37.5090 C   0  0  0  0  0  0  0  0  0  0  0  0
   39.1390   23.7920   36.4860 C   0  0  0  0  0  0  0  0  0  0  0  0
   39.5200   23.8780   35.1820 C   0  0  0  0  0  0  0  0  0  0  0  0
   39.2950   24.8970   33.3280 H   0  0  0  0  0  0  0  0  0  0  0  0
   36.9650   26.3020   36.5660 H   0  0  0  0  0  0  0  0  0  0  0  0
   37.3370   24.9160   38.9000 H   0  0  0  0  0  0  0  0  0  0  0  0
   38.7800   22.9390   39.6100 H   0  0  0  0  0  0  0  0  0  0  0  0
   40.2110   22.1280   37.4930 H   0  0  0  0  0  0  0  0  0  0  0  0
   40.2520   23.1660   34.8260 H   0  0  0  0  0  0  0  0  0  0  0  0
   34.8900   31.6350   35.9440 C   0  0  0  0  0  0  0  0  0  0  0  0
   35.7840   30.7470   35.3230 C   0  0  0  0  0  0  0  0  0  0  0  0
   35.2590   29.6960   34.5540 C   0  0  0  0  0  0  0  0  0  0  0  0
   33.9200   29.6070   34.4600 N   0  0  0  0  0  0  0  0  0  0  0  0
   33.0830   30.4750   35.0680 C   0  0  0  0  0  0  0  0  0  0  0  0
   33.5560   31.4690   35.7960 N   0  0  0  0  0  0  0  0  0  0  0  0
   35.3610   32.4210   36.5210 H   0  0  0  0  0  0  0  0  0  0  0  0
   36.8600   30.8010   35.3850 H   0  0  0  0  0  0  0  0  0  0  0  0
   31.6600   30.2270   34.8590 C   0  0  0  0  0  0  0  0  0  0  0  0
   30.8650   30.9360   35.0430 H   0  0  0  0  0  0  0  0  0  0  0  0
   31.2600   29.1270   34.4380 O   0  0  0  0  0  0  0  0  0  0  0  0
  1  6  1  0  0  0  0
  1 27  1  0  0  0  0
  2  1  2  0  0  0  0
  3  2  1  0  0  0  0
  3  4  2  0  0  0  0
  4  5  1  0  0  0  0
  5  6  2  0  0  0  0
  5 11  1  0  0  0  0
  7  2  1  0  0  0  0
  8  3  1  0  0  0  0
  9  4  1  0  0  0  0
 10 11  2  0  0  0  0
 10 18  1  0  0  0  0
 11 12  1  0  0  0  0
 12 20  1  0  0  0  0
 12 13  2  0  0  0  0
 13 14  1  0  0  0  0
 14 15  1  0  0  0  0
 14 21  1  0  0  0  0
 15 22  1  0  0  0  0
 16 15  2  0  0  0  0
 17 13  1  0  0  0  0
 17 16  1  0  0  0  0
 18 17  2  0  0  0  0
 19 10  1  0  0  0  0
 23 16  1  0  0  0  0
 24 18  1  0  0  0  0
 25 31  1  0  0  0  0
 26 32  1  0  0  0  0
 26 25  2  0  0  0  0
 27 26  1  0  0  0  0
 28 27  2  0  0  0  0
 28 29  1  0  0  0  0
 29 30  2  0  0  0  0
 30 25  1  0  0  0  0
 33 34  1  0  0  0  0
 33 29  1  0  0  0  0
 35 33  2  0  0  0  0
M  END
>  <minimizedAffinity>
-5.93164206

$$$$

 OpenBabel03262522413D

 35 38  0  0  0  0  0  0  0  0999 V2000
   37.0480   27.1390   33.7990 C   0  0  0  0  0  0  0  0  0  0  0  0
   37.1160   27.3570   32.4590 C   0  0  0  0  0  0  0  0  0  0  0  0
   36.6110   28.4830   31.8490 C   0  0  0  0  0  0  0  0  0  0  0  0
   36.0010   29.4590   32.5990 C   0  0  0  0  0  0  0  0  0  0  0  0
   35.9450   29.2140   33.9490 C   0  0  0  0  0  0  0  0  0  0  0  0
   36.4390   28.1180   34.5180 N   0  0  0  0  0  0  0  0  0  0  0  0
   37.5850   26.6250   31.8140 H   0  0  0  0  0  0  0  0  0  0  0  0
   36.6820   28.6270   30.7760 H   0  0  0  0  0  0  0  0  0  0  0  0
   35.5920   30.3580   32.1580 H   0  0  0  0  0  0  0  0  0  0  0  0
   35.9840   31.0990   35.6180 C   0  0  0  0  0  0  0  0  0  0  0  0
   35.3170   30.1910   34.8230 C   0  0  0  0  0  0  0  0  0  0  0  0
   33.9290   30.2930   34.9330 C   0  0  0  0  0  0  0  0  0  0  0  0
   33.2760   31.1970   35.7430 C   0  0  0  0  0  0  0  0  0  0  0  0
   31.9680   31.4330   35.9710 N   0  0  0  0  0  0  0  0  0  0  0  0
   31.8870   32.4390   36.8630 C   0  0  0  0  0  0  0  0  0  0  0  0
   33.1440   32.8600   37.2180 C   0  0  0  0  0  0  0  0  0  0  0  0
   34.0130   32.0620   36.4990 C   0  0  0  0  0  0  0  0  0  0  0  0
   35.3720   32.0140   36.4360 C   0  0  0  0  0  0  0  0  0  0  0  0
   37.0790   31.0740   35.5810 H   0  0  0  0  0  0  0  0  0  0  0  0
   33.2980   29.6290   34.3540 H   0  0  0  0  0  0  0  0  0  0  0  0
   31.1750   30.9100   35.5190 H   0  0  0  0  0  0  0  0  0  0  0  0
   30.9200   32.8070   37.2030 H   0  0  0  0  0  0  0  0  0  0  0  0
   33.3640   33.6480   37.9130 H   0  0  0  0  0  0  0  0  0  0  0  0
   35.9270   32.7120   37.0470 H   0  0  0  0  0  0  0  0  0  0  0  0
   38.4030   24.7010   36.3450 C   0  0  0  0  0  0  0  0  0  0  0  0
   37.8970   25.9020   35.8190 C   0  0  0  0  0  0  0  0  0  0  0  0
   37.5770   25.9530   34.4520 C   0  0  0  0  0  0  0  0  0  0  0  0
   37.7760   24.8370   33.7270 N   0  0  0  0  0  0  0  0  0  0  0  0
   38.2640   23.6950   34.2590 C   0  0  0  0  0  0  0  0  0  0  0  0
   38.5720   23.6270   35.5410 N   0  0  0  0  0  0  0  0  0  0  0  0
   38.6290   24.7310   37.4030 H   0  0  0  0  0  0  0  0  0  0  0  0
   37.7290   26.8070   36.3820 H   0  0  0  0  0  0  0  0  0  0  0  0
   38.4170   22.5840   33.3270 C   0  0  0  0  0  0  0  0  0  0  0  0
   38.0500   22.5610   32.3100 H   0  0  0  0  0  0  0  0  0  0  0  0
   39.0090   21.5440   33.6670 O   0  0  0  0  0  0  0  0  0  0  0  0
  1 27  1  0  0  0  0
  1  6  1  0  0  0  0
  2  1  2  0  0  0  0
  3  2  1  0  0  0  0
  3  4  2  0  0  0  0
  4  5  1  0  0  0  0
  5  6  2  0  0  0  0
  5 11  1  0  0  0  0
  7  2  1  0  0  0  0
  8  3  1  0  0  0  0
  9  4  1  0  0  0  0
 10 18  1  0  0  0  0
 11 12  1  0  0  0  0
 11 10  2  0  0  0  0
 12 13  2  0  0  0  0
 13 14  1  0  0  0  0
 13 17  1  0  0  0  0
 14 15  1  0  0  0  0
 15 22  1  0  0  0  0
 15 16  2  0  0  0  0
 16 23  1  0  0  0  0
 17 16  1  0  0  0  0
 18 17  2  0  0  0  0
 18 24  1  0  0  0  0
 19 10  1  0  0  0  0
 20 12  1  0  0  0  0
 21 14  1  0  0  0  0
 25 31  1  0  0  0  0
 26 25  1  0  0  0  0
 26 32  1  0  0  0  0
 27 26  2  0  0  0  0
 28 29  2  0  0  0  0
 28 27  1  0  0  0  0
 29 30  1  0  0  0  0
 30 25  2  0  0  0  0
 33 35  2  0  0  0  0
 33 29  1  0  0  0  0
 34 33  1  0  0  0  0
M  END
>  <minimizedAffinity>
-5.84134007

$$$$

 OpenBabel03262522413D

 35 38  0  0  0  0  0  0  0  0999 V2000
   38.1130   24.4950   34.6430 C   0  0  0  0  0  0  0  0  0  0  0  0
   38.2650   23.6970   33.5520 C   0  0  0  0  0  0  0  0  0  0  0  0
   37.9600   24.1010   32.2720 C   0  0  0  0  0  0  0  0  0  0  0  0
   37.4760   25.3660   32.0440 C   0  0  0  0  0  0  0  0  0  0  0  0
   37.3310   26.1510   33.1620 C   0  0  0  0  0  0  0  0  0  0  0  0
   37.6310   25.7400   34.3910 N   0  0  0  0  0  0  0  0  0  0  0  0
   38.6420   22.6900   33.6660 H   0  0  0  0  0  0  0  0  0  0  0  0
   38.0930   23.4390   31.4220 H   0  0  0  0  0  0  0  0  0  0  0  0
   37.2240   25.7210   31.0540 H   0  0  0  0  0  0  0  0  0  0  0  0
   36.7770   28.2220   31.8420 C   0  0  0  0  0  0  0  0  0  0  0  0
   36.8250   27.5050   33.0190 C   0  0  0  0  0  0  0  0  0  0  0  0
   36.3230   28.2200   34.1080 C   0  0  0  0  0  0  0  0  0  0  0  0
   35.8300   29.5050   34.0360 C   0  0  0  0  0  0  0  0  0  0  0  0
   35.3150   30.3340   34.9670 N   0  0  0  0  0  0  0  0  0  0  0  0
   34.9850   31.4840   34.3480 C   0  0  0  0  0  0  0  0  0  0  0  0
   35.2840   31.4050   33.0110 C   0  0  0  0  0  0  0  0  0  0  0  0
   35.8200   30.1440   32.8300 C   0  0  0  0  0  0  0  0  0  0  0  0
   36.2950   29.5010   31.7290 C   0  0  0  0  0  0  0  0  0  0  0  0
   37.1560   27.7200   30.9440 H   0  0  0  0  0  0  0  0  0  0  0  0
   36.3090   27.7580   35.0880 H   0  0  0  0  0  0  0  0  0  0  0  0
   35.2030   30.0990   35.9860 H   0  0  0  0  0  0  0  0  0  0  0  0
   34.5460   32.3110   34.9040 H   0  0  0  0  0  0  0  0  0  0  0  0
   35.1220   32.1830   32.2890 H   0  0  0  0  0  0  0  0  0  0  0  0
   36.2730   30.0340   30.7890 H   0  0  0  0  0  0  0  0  0  0  0  0
   38.1190   24.0510   38.3920 C   0  0  0  0  0  0  0  0  0  0  0  0
   37.7250   24.5200   37.1280 C   0  0  0  0  0  0  0  0  0  0  0  0
   38.4310   24.0780   35.9980 C   0  0  0  0  0  0  0  0  0  0  0  0
   39.4500   23.2230   36.2010 N   0  0  0  0  0  0  0  0  0  0  0  0
   39.8080   22.7870   37.4280 C   0  0  0  0  0  0  0  0  0  0  0  0
   39.1580   23.1920   38.5030 N   0  0  0  0  0  0  0  0  0  0  0  0
   37.5330   24.4320   39.2190 H   0  0  0  0  0  0  0  0  0  0  0  0
   36.9110   25.2050   36.9430 H   0  0  0  0  0  0  0  0  0  0  0  0
   40.9380   21.8650   37.4620 C   0  0  0  0  0  0  0  0  0  0  0  0
   41.2900   21.3340   38.3360 H   0  0  0  0  0  0  0  0  0  0  0  0
   41.5960   21.6250   36.4340 O   0  0  0  0  0  0  0  0  0  0  0  0
  1 27  1  0  0  0  0
  2  7  1  0  0  0  0
  2  1  2  0  0  0  0
  3  2  1  0  0  0  0
  4  3  2  0  0  0  0
  4  5  1  0  0  0  0
  5  6  2  0  0  0  0
  6  1  1  0  0  0  0
  8  3  1  0  0  0  0
  9  4  1  0  0  0  0
 10 11  1  0  0  0  0
 11  5  1  0  0  0  0
 11 12  2  0  0  0  0
 12 20  1  0  0  0  0
 13 12  1  0  0  0  0
 13 14  1  0  0  0  0
 14 21  1  0  0  0  0
 15 22  1  0  0  0  0
 15 14  1  0  0  0  0
 16 15  2  0  0  0  0
 17 16  1  0  0  0  0
 17 13  2  0  0  0  0
 18 10  2  0  0  0  0
 18 17  1  0  0  0  0
 19 10  1  0  0  0  0
 23 16  1  0  0  0  0
 24 18  1  0  0  0  0
 25 30  1  0  0  0  0
 25 31  1  0  0  0  0
 26 25  2  0  0  0  0
 27 28  2  0  0  0  0
 27 26  1  0  0  0  0
 28 29  1  0  0  0  0
 29 33  1  0  0  0  0
 29 30  2  0  0  0  0
 32 26  1  0  0  0  0
 33 34  1  0  0  0  0
 35 33  2  0  0  0  0
M  END
>  <minimizedAffinity>
-5.7816534

$$$$

 OpenBabel03262522413D

 35 38  0  0  0  0  0  0  0  0999 V2000
   37.5740   27.2190   33.2640 C   0  0  0  0  0  0  0  0  0  0  0  0
   37.5550   27.4700   31.9280 C   0  0  0  0  0  0  0  0  0  0  0  0
   36.7680   28.4410   31.3520 C   0  0  0  0  0  0  0  0  0  0  0  0
   35.9470   29.2170   32.1340 C   0  0  0  0  0  0  0  0  0  0  0  0
   35.9840   28.9430   33.4790 C   0  0  0  0  0  0  0  0  0  0  0  0
   36.7520   27.9990   34.0150 N   0  0  0  0  0  0  0  0  0  0  0  0
   38.1800   26.8930   31.2590 H   0  0  0  0  0  0  0  0  0  0  0  0
   36.7770   28.6170   30.2810 H   0  0  0  0  0  0  0  0  0  0  0  0
   35.3140   29.9900   31.7200 H   0  0  0  0  0  0  0  0  0  0  0  0
   33.7970   29.5260   34.5800 C   0  0  0  0  0  0  0  0  0  0  0  0
   35.1490   29.7130   34.3850 C   0  0  0  0  0  0  0  0  0  0  0  0
   35.6710   30.7460   35.1650 C   0  0  0  0  0  0  0  0  0  0  0  0
   34.9300   31.5100   36.0420 C   0  0  0  0  0  0  0  0  0  0  0  0
   35.2600   32.5310   36.8600 N   0  0  0  0  0  0  0  0  0  0  0  0
   34.1390   32.9150   37.5010 C   0  0  0  0  0  0  0  0  0  0  0  0
   33.0770   32.1450   37.1000 C   0  0  0  0  0  0  0  0  0  0  0  0
   33.5950   31.2600   36.1740 C   0  0  0  0  0  0  0  0  0  0  0  0
   33.0260   30.2640   35.4420 C   0  0  0  0  0  0  0  0  0  0  0  0
   33.3210   28.7280   33.9980 H   0  0  0  0  0  0  0  0  0  0  0  0
   36.7250   30.9860   35.0970 H   0  0  0  0  0  0  0  0  0  0  0  0
   36.2270   32.9330   36.9600 H   0  0  0  0  0  0  0  0  0  0  0  0
   34.1610   33.7320   38.2210 H   0  0  0  0  0  0  0  0  0  0  0  0
   32.0680   32.2420   37.4550 H   0  0  0  0  0  0  0  0  0  0  0  0
   31.9670   30.0900   35.5690 H   0  0  0  0  0  0  0  0  0  0  0  0
   40.3970   25.3780   34.9670 C   0  0  0  0  0  0  0  0  0  0  0  0
   39.6850   26.4430   34.3910 C   0  0  0  0  0  0  0  0  0  0  0  0
   38.4000   26.1950   33.8810 C   0  0  0  0  0  0  0  0  0  0  0  0
   37.9280   24.9380   33.9790 N   0  0  0  0  0  0  0  0  0  0  0  0
   38.6340   23.9310   34.5380 C   0  0  0  0  0  0  0  0  0  0  0  0
   39.8430   24.1440   35.0220 N   0  0  0  0  0  0  0  0  0  0  0  0
   41.3790   25.6380   35.3390 H   0  0  0  0  0  0  0  0  0  0  0  0
   40.0450   27.4570   34.3030 H   0  0  0  0  0  0  0  0  0  0  0  0
   37.9680   22.6340   34.5580 C   0  0  0  0  0  0  0  0  0  0  0  0
   37.5740   22.1160   33.6940 H   0  0  0  0  0  0  0  0  0  0  0  0
   37.8050   22.0170   35.6260 O   0  0  0  0  0  0  0  0  0  0  0  0
  1 27  1  0  0  0  0
  1  6  1  0  0  0  0
  2  1  2  0  0  0  0
  3  2  1  0  0  0  0
  3  4  2  0  0  0  0
  4  5  1  0  0  0  0
  5  6  2  0  0  0  0
  5 11  1  0  0  0  0
  7  2  1  0  0  0  0
  8  3  1  0  0  0  0
  9  4  1  0  0  0  0
 10 18  1  0  0  0  0
 11 10  2  0  0  0  0
 11 12  1  0  0  0  0
 12 13  2  0  0  0  0
 13 17  1  0  0  0  0
 13 14  1  0  0  0  0
 14 21  1  0  0  0  0
 14 15  1  0  0  0  0
 15 22  1  0  0  0  0
 16 23  1  0  0  0  0
 16 15  2  0  0  0  0
 17 16  1  0  0  0  0
 18 24  1  0  0  0  0
 18 17  2  0  0  0  0
 19 10  1  0  0  0  0
 20 12  1  0  0  0  0
 25 30  1  0  0  0  0
 25 31  1  0  0  0  0
 26 25  2  0  0  0  0
 27 28  2  0  0  0  0
 27 26  1  0  0  0  0
 28 29  1  0  0  0  0
 29 33  1  0  0  0  0
 29 30  2  0  0  0  0
 32 26  1  0  0  0  0
 33 35  2  0  0  0  0
 34 33  1  0  0  0  0
M  END
>  <minimizedAffinity>
-5.77005005

$$$$

 OpenBabel03262522413D

 35 38  0  0  0  0  0  0  0  0999 V2000
   38.0870   23.2770   34.3980 C   0  0  0  0  0  0  0  0  0  0  0  0
   37.6730   22.2440   33.6160 C   0  0  0  0  0  0  0  0  0  0  0  0
   37.0790   22.4180   32.3860 C   0  0  0  0  0  0  0  0  0  0  0  0
   36.8790   23.6830   31.8890 C   0  0  0  0  0  0  0  0  0  0  0  0
   37.3060   24.7070   32.6980 C   0  0  0  0  0  0  0  0  0  0  0  0
   37.8770   24.5170   33.8840 N   0  0  0  0  0  0  0  0  0  0  0  0
   37.8020   21.2240   33.9520 H   0  0  0  0  0  0  0  0  0  0  0  0
   36.7600   21.5720   31.7860 H   0  0  0  0  0  0  0  0  0  0  0  0
   36.4170   23.8610   30.9280 H   0  0  0  0  0  0  0  0  0  0  0  0
   36.8040   27.1460   33.0650 C   0  0  0  0  0  0  0  0  0  0  0  0
   37.1360   26.0810   32.2550 C   0  0  0  0  0  0  0  0  0  0  0  0
   37.3040   26.4470   30.9190 C   0  0  0  0  0  0  0  0  0  0  0  0
   37.1570   27.7310   30.4390 C   0  0  0  0  0  0  0  0  0  0  0  0
   37.2770   28.2590   29.2040 N   0  0  0  0  0  0  0  0  0  0  0  0
   37.0240   29.5790   29.3010 C   0  0  0  0  0  0  0  0  0  0  0  0
   36.7370   29.9130   30.6000 C   0  0  0  0  0  0  0  0  0  0  0  0
   36.8250   28.7300   31.3100 C   0  0  0  0  0  0  0  0  0  0  0  0
   36.6480   28.4370   32.6270 C   0  0  0  0  0  0  0  0  0  0  0  0
   36.6570   26.9290   34.1290 H   0  0  0  0  0  0  0  0  0  0  0  0
   37.5670   25.6930   30.1880 H   0  0  0  0  0  0  0  0  0  0  0  0
   37.5260   27.7150   28.3400 H   0  0  0  0  0  0  0  0  0  0  0  0
   37.0620   30.2200   28.4210 H   0  0  0  0  0  0  0  0  0  0  0  0
   36.4980   30.8980   30.9530 H   0  0  0  0  0  0  0  0  0  0  0  0
   36.3860   29.2490   33.2900 H   0  0  0  0  0  0  0  0  0  0  0  0
   38.8630   23.3840   38.0920 C   0  0  0  0  0  0  0  0  0  0  0  0
   38.1720   23.6120   36.8900 C   0  0  0  0  0  0  0  0  0  0  0  0
   38.7130   23.1030   35.6980 C   0  0  0  0  0  0  0  0  0  0  0  0
   39.8710   22.4230   35.7850 N   0  0  0  0  0  0  0  0  0  0  0  0
   40.5150   22.2180   36.9550 C   0  0  0  0  0  0  0  0  0  0  0  0
   40.0240   22.6890   38.0850 N   0  0  0  0  0  0  0  0  0  0  0  0
   38.3910   23.8030   38.9700 H   0  0  0  0  0  0  0  0  0  0  0  0
   37.2430   24.1540   36.7980 H   0  0  0  0  0  0  0  0  0  0  0  0
   41.7580   21.4600   36.8630 C   0  0  0  0  0  0  0  0  0  0  0  0
   42.4180   21.4360   36.0060 H   0  0  0  0  0  0  0  0  0  0  0  0
   42.1500   20.7610   37.8140 O   0  0  0  0  0  0  0  0  0  0  0  0
  1 27  1  0  0  0  0
  2  7  1  0  0  0  0
  2  1  2  0  0  0  0
  3  2  1  0  0  0  0
  4  3  2  0  0  0  0
  4  5  1  0  0  0  0
  5  6  2  0  0  0  0
  6  1  1  0  0  0  0
  8  3  1  0  0  0  0
  9  4  1  0  0  0  0
 10 19  1  0  0  0  0
 11  5  1  0  0  0  0
 11 10  2  0  0  0  0
 12 11  1  0  0  0  0
 13 12  2  0  0  0  0
 13 17  1  0  0  0  0
 14 15  1  0  0  0  0
 14 13  1  0  0  0  0
 15 16  2  0  0  0  0
 16 23  1  0  0  0  0
 16 17  1  0  0  0  0
 17 18  2  0  0  0  0
 18 10  1  0  0  0  0
 18 24  1  0  0  0  0
 20 12  1  0  0  0  0
 21 14  1  0  0  0  0
 22 15  1  0  0  0  0
 25 31  1  0  0  0  0
 26 25  2  0  0  0  0
 27 28  2  0  0  0  0
 27 26  1  0  0  0  0
 28 29  1  0  0  0  0
 29 30  2  0  0  0  0
 30 25  1  0  0  0  0
 32 26  1  0  0  0  0
 33 29  1  0  0  0  0
 33 35  2  0  0  0  0
 34 33  1  0  0  0  0
M  END
>  <minimizedAffinity>
-5.76704836

$$$$

 OpenBabel03262522413D

 35 38  0  0  0  0  0  0  0  0999 V2000
   36.1850   27.2090   31.6740 C   0  0  0  0  0  0  0  0  0  0  0  0
   36.6240   27.9500   30.6210 C   0  0  0  0  0  0  0  0  0  0  0  0
   36.5040   29.3190   30.5590 C   0  0  0  0  0  0  0  0  0  0  0  0
   35.9180   30.0080   31.5940 C   0  0  0  0  0  0  0  0  0  0  0  0
   35.4840   29.2370   32.6430 C   0  0  0  0  0  0  0  0  0  0  0  0
   35.6100   27.9140   32.6830 N   0  0  0  0  0  0  0  0  0  0  0  0
   37.0940   27.4650   29.7760 H   0  0  0  0  0  0  0  0  0  0  0  0
   36.8640   29.8820   29.7040 H   0  0  0  0  0  0  0  0  0  0  0  0
   35.8050   31.0840   31.5820 H   0  0  0  0  0  0  0  0  0  0  0  0
   33.5460   29.6860   34.1860 C   0  0  0  0  0  0  0  0  0  0  0  0
   34.8510   29.8780   33.7830 C   0  0  0  0  0  0  0  0  0  0  0  0
   35.5420   30.7770   34.5970 C   0  0  0  0  0  0  0  0  0  0  0  0
   34.9970   31.4160   35.6900 C   0  0  0  0  0  0  0  0  0  0  0  0
   35.5060   32.2990   36.5740 N   0  0  0  0  0  0  0  0  0  0  0  0
   34.5300   32.6030   37.4510 C   0  0  0  0  0  0  0  0  0  0  0  0
   33.3830   31.9180   37.1400 C   0  0  0  0  0  0  0  0  0  0  0  0
   33.6960   31.1700   36.0200 C   0  0  0  0  0  0  0  0  0  0  0  0
   32.9670   30.3020   35.2670 C   0  0  0  0  0  0  0  0  0  0  0  0
   32.9440   28.9910   33.5900 H   0  0  0  0  0  0  0  0  0  0  0  0
   36.5780   31.0070   34.3780 H   0  0  0  0  0  0  0  0  0  0  0  0
   36.4910   32.6660   36.5570 H   0  0  0  0  0  0  0  0  0  0  0  0
   34.7100   33.3040   38.2650 H   0  0  0  0  0  0  0  0  0  0  0  0
   32.4560   31.9770   37.6780 H   0  0  0  0  0  0  0  0  0  0  0  0
   31.9400   30.1290   35.5540 H   0  0  0  0  0  0  0  0  0  0  0  0
   35.7000   23.4990   31.1650 C   0  0  0  0  0  0  0  0  0  0  0  0
   35.4950   24.8800   31.0170 C   0  0  0  0  0  0  0  0  0  0  0  0
   36.3070   25.7620   31.7490 C   0  0  0  0  0  0  0  0  0  0  0  0
   37.2400   25.2210   32.5530 N   0  0  0  0  0  0  0  0  0  0  0  0
   37.4160   23.8870   32.6780 C   0  0  0  0  0  0  0  0  0  0  0  0
   36.6630   23.0420   31.9990 N   0  0  0  0  0  0  0  0  0  0  0  0
   35.0410   22.8770   30.5740 H   0  0  0  0  0  0  0  0  0  0  0  0
   34.7540   25.3350   30.3770 H   0  0  0  0  0  0  0  0  0  0  0  0
   38.4720   23.4770   33.5960 C   0  0  0  0  0  0  0  0  0  0  0  0
   39.5060   23.3030   33.3280 H   0  0  0  0  0  0  0  0  0  0  0  0
   38.2320   23.2910   34.8020 O   0  0  0  0  0  0  0  0  0  0  0  0
  1 27  1  0  0  0  0
  1  6  1  0  0  0  0
  2  1  2  0  0  0  0
  3  2  1  0  0  0  0
  3  4  2  0  0  0  0
  4  5  1  0  0  0  0
  5  6  2  0  0  0  0
  5 11  1  0  0  0  0
  7  2  1  0  0  0  0
  8  3  1  0  0  0  0
  9  4  1  0  0  0  0
 10 18  1  0  0  0  0
 11 10  2  0  0  0  0
 11 12  1  0  0  0  0
 12 13  2  0  0  0  0
 13 17  1  0  0  0  0
 13 14  1  0  0  0  0
 14 15  1  0  0  0  0
 15 22  1  0  0  0  0
 16 15  2  0  0  0  0
 16 23  1  0  0  0  0
 17 16  1  0  0  0  0
 18 24  1  0  0  0  0
 18 17  2  0  0  0  0
 19 10  1  0  0  0  0
 20 12  1  0  0  0  0
 21 14  1  0  0  0  0
 25 30  1  0  0  0  0
 26 25  2  0  0  0  0
 26 27  1  0  0  0  0
 27 28  2  0  0  0  0
 28 29  1  0  0  0  0
 29 33  1  0  0  0  0
 30 29  2  0  0  0  0
 31 25  1  0  0  0  0
 32 26  1  0  0  0  0
 33 35  2  0  0  0  0
 34 33  1  0  0  0  0
M  END
>  <minimizedAffinity>
-5.76309109

$$$$
