
 OpenBabel03272508383D

 38 40  0  0  1  0  0  0  0  0999 V2000
   37.1640   24.0040   31.3220 C   0  0  0  0  0  0  0  0  0  0  0  0
   38.0680   23.4560   30.9230 H   0  0  0  0  0  0  0  0  0  0  0  0
   37.1680   24.9250   30.7480 H   0  0  0  0  0  0  0  0  0  0  0  0
   38.1050   24.3780   34.7610 C   0  0  0  0  0  0  0  0  0  0  0  0
   38.1090   25.6720   34.3440 C   0  0  0  0  0  0  0  0  0  0  0  0
   37.7530   25.6920   33.0090 C   0  0  0  0  0  0  0  0  0  0  0  0
   37.5450   24.4100   32.6690 N   0  0  0  0  0  0  0  0  0  0  0  0
   37.7590   23.6360   33.7270 N   0  0  0  0  0  0  0  0  0  0  0  0
   38.3590   26.5380   34.9890 H   0  0  0  0  0  0  0  0  0  0  0  0
   37.7290   26.6710   32.5780 H   0  0  0  0  0  0  0  0  0  0  0  0
   39.8490   22.8750   37.7470 C   0  0  0  0  0  0  0  0  0  0  0  0
   39.5660   23.1720   36.4270 C   0  0  0  0  0  0  0  0  0  0  0  0
   38.4800   23.9720   36.1070 C   0  0  0  0  0  0  0  0  0  0  0  0
   37.7650   24.4080   37.1710 N   0  0  0  0  0  0  0  0  0  0  0  0
   38.0470   24.1160   38.4560 C   0  0  0  0  0  0  0  0  0  0  0  0
   39.0990   23.3430   38.7260 N   0  0  0  0  0  0  0  0  0  0  0  0
   40.7100   22.2450   37.9550 H   0  0  0  0  0  0  0  0  0  0  0  0
   40.1610   22.8050   35.5960 H   0  0  0  0  0  0  0  0  0  0  0  0
   37.4100   24.5140   39.2530 H   0  0  0  0  0  0  0  0  0  0  0  0
   36.0570   23.0750   31.3570 C   0  0  0  0  0  0  0  0  0  0  0  0
   35.2090   23.4660   31.9590 H   0  0  0  0  0  0  0  0  0  0  0  0
   35.6250   22.9930   30.3160 H   0  0  0  0  0  0  0  0  0  0  0  0
   36.2950   21.7570   31.7890 N   0  0  0  0  0  0  0  0  0  0  0  0
   36.9820   20.9010   30.8990 C   0  0  0  0  0  0  0  0  0  0  0  0
   36.2480   19.7150   30.4070 C   0  0  0  0  0  0  0  0  0  0  0  0
   35.5330   19.0850   31.4680 O   0  0  0  0  0  0  0  0  0  0  0  0
   34.6200   20.0120   31.9290 C   0  0  0  0  0  0  0  0  0  0  0  0
   35.3820   21.1120   32.6180 C   0  0  1  0  0  0  0  0  0  0  0  0
   37.6660   21.3020   30.1720 H   0  0  0  0  0  0  0  0  0  0  0  0
   37.7450   20.4670   31.6380 H   0  0  0  0  0  0  0  0  0  0  0  0
   37.0860   18.9090   30.2820 H   0  0  0  0  0  0  0  0  0  0  0  0
   35.7900   19.6450   29.4670 H   0  0  0  0  0  0  0  0  0  0  0  0
   33.8470   20.3260   31.2400 H   0  0  0  0  0  0  0  0  0  0  0  0
   34.0580   19.4940   32.7690 H   0  0  0  0  0  0  0  0  0  0  0  0
   34.6030   21.8580   32.9440 H   0  0  0  0  0  0  0  0  0  0  0  0
   35.9470   20.5480   33.8660 C   0  0  0  0  0  0  0  0  0  0  0  0
   36.8600   19.9740   33.8270 H   0  0  0  0  0  0  0  0  0  0  0  0
   35.4000   20.7160   34.9620 O   0  0  0  0  0  0  0  0  0  0  0  0
  1 20  1  0  0  0  0
  1  7  1  0  0  0  0
  2  1  1  0  0  0  0
  3  1  1  0  0  0  0
  4 13  1  0  0  0  0
  5  4  1  0  0  0  0
  5  9  1  0  0  0  0
  6  5  2  0  0  0  0
  7  6  1  0  0  0  0
  7  8  1  0  0  0  0
  8  4  2  0  0  0  0
 10  6  1  0  0  0  0
 11 17  1  0  0  0  0
 11 16  1  0  0  0  0
 12 11  2  0  0  0  0
 13 12  1  0  0  0  0
 13 14  2  0  0  0  0
 14 15  1  0  0  0  0
 15 16  2  0  0  0  0
 15 19  1  0  0  0  0
 18 12  1  0  0  0  0
 20 23  1  0  0  0  0
 20 21  1  0  0  0  0
 22 20  1  0  0  0  0
 23 28  1  0  0  0  0
 24 30  1  0  0  0  0
 24 23  1  0  0  0  0
 25 24  1  0  0  0  0
 25 26  1  0  0  0  0
 26 27  1  0  0  0  0
 27 28  1  0  0  0  0
 27 34  1  0  0  0  0
 28 35  1  1  0  0  0
 28 36  1  0  0  0  0
 29 24  1  0  0  0  0
 31 25  1  0  0  0  0
 32 25  1  0  0  0  0
 33 27  1  0  0  0  0
 36 38  2  0  0  0  0
 37 36  1  0  0  0  0
M  END
>  <minimizedAffinity>
-4.94677639

$$$$

 OpenBabel03272508383D

 38 40  0  0  1  0  0  0  0  0999 V2000
   38.0650   25.8650   33.7740 C   0  0  0  0  0  0  0  0  0  0  0  0
   37.7470   26.8850   33.4070 H   0  0  0  0  0  0  0  0  0  0  0  0
   39.0880   25.7900   33.4220 H   0  0  0  0  0  0  0  0  0  0  0  0
   36.5490   23.1060   32.0580 C   0  0  0  0  0  0  0  0  0  0  0  0
   35.9200   24.1600   31.4720 C   0  0  0  0  0  0  0  0  0  0  0  0
   36.4130   25.3200   32.0380 C   0  0  0  0  0  0  0  0  0  0  0  0
   37.3220   24.9260   32.9420 N   0  0  0  0  0  0  0  0  0  0  0  0
   37.3940   23.6000   32.9430 N   0  0  0  0  0  0  0  0  0  0  0  0
   35.1500   24.0680   30.6810 H   0  0  0  0  0  0  0  0  0  0  0  0
   35.9770   26.2150   31.6470 H   0  0  0  0  0  0  0  0  0  0  0  0
   35.0100   19.6670   31.9210 C   0  0  0  0  0  0  0  0  0  0  0  0
   35.2310   20.9710   32.3220 C   0  0  0  0  0  0  0  0  0  0  0  0
   36.2450   21.7190   31.7420 C   0  0  0  0  0  0  0  0  0  0  0  0
   36.9570   21.0670   30.7930 N   0  0  0  0  0  0  0  0  0  0  0  0
   36.7360   19.7960   30.4060 C   0  0  0  0  0  0  0  0  0  0  0  0
   35.7520   19.1070   30.9850 N   0  0  0  0  0  0  0  0  0  0  0  0
   34.2040   19.1150   32.4000 H   0  0  0  0  0  0  0  0  0  0  0  0
   34.6410   21.4640   33.0880 H   0  0  0  0  0  0  0  0  0  0  0  0
   37.3650   19.3510   29.6280 H   0  0  0  0  0  0  0  0  0  0  0  0
   37.6730   25.7480   35.1610 C   0  0  0  0  0  0  0  0  0  0  0  0
   37.6340   26.7380   35.6640 H   0  0  0  0  0  0  0  0  0  0  0  0
   36.6020   25.3900   35.2010 H   0  0  0  0  0  0  0  0  0  0  0  0
   38.4070   24.8890   36.0000 N   0  0  0  0  0  0  0  0  0  0  0  0
   39.7350   24.5950   35.6180 C   0  0  0  0  0  0  0  0  0  0  0  0
   40.0460   23.1830   35.3030 C   0  0  0  0  0  0  0  0  0  0  0  0
   39.4530   22.3080   36.2590 O   0  0  0  0  0  0  0  0  0  0  0  0
   38.0890   22.4930   36.1660 C   0  0  0  0  0  0  0  0  0  0  0  0
   37.7680   23.8660   36.6940 C   0  0  1  0  0  0  0  0  0  0  0  0
   40.3010   25.2910   35.0240 H   0  0  0  0  0  0  0  0  0  0  0  0
   40.2450   24.7710   36.6300 H   0  0  0  0  0  0  0  0  0  0  0  0
   41.1570   23.0650   35.6500 H   0  0  0  0  0  0  0  0  0  0  0  0
   40.1180   22.7900   34.3340 H   0  0  0  0  0  0  0  0  0  0  0  0
   37.6180   22.2190   35.2300 H   0  0  0  0  0  0  0  0  0  0  0  0
   37.6320   21.7880   36.9300 H   0  0  0  0  0  0  0  0  0  0  0  0
   36.6550   23.9850   36.5640 H   0  0  0  0  0  0  0  0  0  0  0  0
   38.0040   23.8470   38.1550 C   0  0  0  0  0  0  0  0  0  0  0  0
   38.1850   22.9070   38.6550 H   0  0  0  0  0  0  0  0  0  0  0  0
   38.0020   24.8830   38.8290 O   0  0  0  0  0  0  0  0  0  0  0  0
  1 20  1  0  0  0  0
  2  1  1  0  0  0  0
  3  1  1  0  0  0  0
  4  8  2  0  0  0  0
  5  6  2  0  0  0  0
  5  4  1  0  0  0  0
  6  7  1  0  0  0  0
  7  8  1  0  0  0  0
  7  1  1  0  0  0  0
  9  5  1  0  0  0  0
 10  6  1  0  0  0  0
 11 12  1  0  0  0  0
 11 17  1  0  0  0  0
 12 18  1  0  0  0  0
 13  4  1  0  0  0  0
 13 12  2  0  0  0  0
 14 13  1  0  0  0  0
 15 14  2  0  0  0  0
 15 16  1  0  0  0  0
 16 11  2  0  0  0  0
 19 15  1  0  0  0  0
 20 22  1  0  0  0  0
 20 21  1  0  0  0  0
 20 23  1  0  0  0  0
 23 28  1  0  0  0  0
 24 23  1  0  0  0  0
 24 30  1  0  0  0  0
 25 24  1  0  0  0  0
 25 31  1  0  0  0  0
 25 26  1  0  0  0  0
 27 26  1  0  0  0  0
 27 28  1  0  0  0  0
 27 34  1  0  0  0  0
 28 35  1  6  0  0  0
 28 36  1  0  0  0  0
 29 24  1  0  0  0  0
 32 25  1  0  0  0  0
 33 27  1  0  0  0  0
 36 37  1  0  0  0  0
 36 38  2  0  0  0  0
M  END
>  <minimizedAffinity>
-4.84500122

$$$$

 OpenBabel03272508383D

 38 40  0  0  1  0  0  0  0  0999 V2000
   37.7000   25.8260   34.1410 C   0  0  0  0  0  0  0  0  0  0  0  0
   38.3900   25.7210   33.2530 H   0  0  0  0  0  0  0  0  0  0  0  0
   36.9740   25.0370   33.9770 H   0  0  0  0  0  0  0  0  0  0  0  0
   35.9670   28.9650   34.1490 C   0  0  0  0  0  0  0  0  0  0  0  0
   35.9180   28.6390   32.8300 C   0  0  0  0  0  0  0  0  0  0  0  0
   36.5550   27.4240   32.6660 C   0  0  0  0  0  0  0  0  0  0  0  0
   36.9640   27.0590   33.8910 N   0  0  0  0  0  0  0  0  0  0  0  0
   36.6050   27.9900   34.7680 N   0  0  0  0  0  0  0  0  0  0  0  0
   35.4410   29.2630   32.0480 H   0  0  0  0  0  0  0  0  0  0  0  0
   36.5750   27.0760   31.6550 H   0  0  0  0  0  0  0  0  0  0  0  0
   35.4650   32.1710   36.0690 C   0  0  0  0  0  0  0  0  0  0  0  0
   36.0450   30.9860   35.6560 C   0  0  0  0  0  0  0  0  0  0  0  0
   35.4350   30.2090   34.6850 C   0  0  0  0  0  0  0  0  0  0  0  0
   34.2700   30.7090   34.2090 N   0  0  0  0  0  0  0  0  0  0  0  0
   33.7090   31.8640   34.6150 C   0  0  0  0  0  0  0  0  0  0  0  0
   34.3240   32.5860   35.5510 N   0  0  0  0  0  0  0  0  0  0  0  0
   35.9760   32.7520   36.8320 H   0  0  0  0  0  0  0  0  0  0  0  0
   36.9820   30.6140   36.0590 H   0  0  0  0  0  0  0  0  0  0  0  0
   32.7620   32.1900   34.1720 H   0  0  0  0  0  0  0  0  0  0  0  0
   38.5150   25.9450   35.3290 C   0  0  0  0  0  0  0  0  0  0  0  0
   39.4550   26.5040   35.1310 H   0  0  0  0  0  0  0  0  0  0  0  0
   37.9720   26.6000   36.0730 H   0  0  0  0  0  0  0  0  0  0  0  0
   38.8720   24.7740   36.0240 N   0  0  0  0  0  0  0  0  0  0  0  0
   40.0010   24.0660   35.5550 C   0  0  0  0  0  0  0  0  0  0  0  0
   39.7740   22.6930   35.0530 C   0  0  0  0  0  0  0  0  0  0  0  0
   38.8890   21.9790   35.9140 O   0  0  0  0  0  0  0  0  0  0  0  0
   37.6910   22.6620   35.8980 C   0  0  0  0  0  0  0  0  0  0  0  0
   37.8930   23.9750   36.6080 C   0  0  1  0  0  0  0  0  0  0  0  0
   40.7910   24.5780   35.0330 H   0  0  0  0  0  0  0  0  0  0  0  0
   40.5310   23.9070   36.5610 H   0  0  0  0  0  0  0  0  0  0  0  0
   40.7590   22.1320   35.3380 H   0  0  0  0  0  0  0  0  0  0  0  0
   39.7050   22.4330   34.0400 H   0  0  0  0  0  0  0  0  0  0  0  0
   37.1610   22.7060   34.9550 H   0  0  0  0  0  0  0  0  0  0  0  0
   36.9990   22.0800   36.5840 H   0  0  0  0  0  0  0  0  0  0  0  0
   36.9050   24.5100   36.5380 H   0  0  0  0  0  0  0  0  0  0  0  0
   38.0910   23.6770   38.0440 C   0  0  0  0  0  0  0  0  0  0  0  0
   38.2270   22.6550   38.3650 H   0  0  0  0  0  0  0  0  0  0  0  0
   38.1080   24.5720   38.8980 O   0  0  0  0  0  0  0  0  0  0  0  0
  1 20  1  0  0  0  0
  2  1  1  0  0  0  0
  3  1  1  0  0  0  0
  4 13  1  0  0  0  0
  4  8  2  0  0  0  0
  5  4  1  0  0  0  0
  6  5  2  0  0  0  0
  6  7  1  0  0  0  0
  7  1  1  0  0  0  0
  7  8  1  0  0  0  0
  9  5  1  0  0  0  0
 10  6  1  0  0  0  0
 11 17  1  0  0  0  0
 12 18  1  0  0  0  0
 12 11  1  0  0  0  0
 13 12  2  0  0  0  0
 14 15  2  0  0  0  0
 14 13  1  0  0  0  0
 15 16  1  0  0  0  0
 16 11  2  0  0  0  0
 19 15  1  0  0  0  0
 20 23  1  0  0  0  0
 20 22  1  0  0  0  0
 21 20  1  0  0  0  0
 23 28  1  0  0  0  0
 24 23  1  0  0  0  0
 24 30  1  0  0  0  0
 25 31  1  0  0  0  0
 25 24  1  0  0  0  0
 25 26  1  0  0  0  0
 27 26  1  0  0  0  0
 27 34  1  0  0  0  0
 27 28  1  0  0  0  0
 28 35  1  6  0  0  0
 28 36  1  0  0  0  0
 29 24  1  0  0  0  0
 32 25  1  0  0  0  0
 33 27  1  0  0  0  0
 36 37  1  0  0  0  0
 36 38  2  0  0  0  0
M  END
>  <minimizedAffinity>
-4.81297064

$$$$

 OpenBabel03272508383D

 38 40  0  0  1  0  0  0  0  0999 V2000
   37.7730   25.7530   34.3280 C   0  0  0  0  0  0  0  0  0  0  0  0
   38.8320   25.9610   33.9930 H   0  0  0  0  0  0  0  0  0  0  0  0
   37.4250   25.0320   33.5960 H   0  0  0  0  0  0  0  0  0  0  0  0
   36.0530   28.8960   34.1750 C   0  0  0  0  0  0  0  0  0  0  0  0
   35.9990   28.5010   32.8750 C   0  0  0  0  0  0  0  0  0  0  0  0
   36.6310   27.2760   32.7730 C   0  0  0  0  0  0  0  0  0  0  0  0
   37.0410   26.9740   34.0150 N   0  0  0  0  0  0  0  0  0  0  0  0
   36.6890   27.9510   34.8430 N   0  0  0  0  0  0  0  0  0  0  0  0
   35.5230   29.0850   32.0620 H   0  0  0  0  0  0  0  0  0  0  0  0
   36.6480   26.8750   31.7820 H   0  0  0  0  0  0  0  0  0  0  0  0
   35.5010   32.1360   36.0210 C   0  0  0  0  0  0  0  0  0  0  0  0
   36.0640   30.9220   35.6780 C   0  0  0  0  0  0  0  0  0  0  0  0
   35.5280   30.1680   34.6450 C   0  0  0  0  0  0  0  0  0  0  0  0
   34.4490   30.7210   34.0420 N   0  0  0  0  0  0  0  0  0  0  0  0
   33.9050   31.9060   34.3800 C   0  0  0  0  0  0  0  0  0  0  0  0
   34.4480   32.6040   35.3780 N   0  0  0  0  0  0  0  0  0  0  0  0
   35.9530   32.6970   36.8360 H   0  0  0  0  0  0  0  0  0  0  0  0
   36.9300   30.5060   36.1830 H   0  0  0  0  0  0  0  0  0  0  0  0
   33.0300   32.2750   33.8350 H   0  0  0  0  0  0  0  0  0  0  0  0
   37.7950   25.5160   35.7540 C   0  0  0  0  0  0  0  0  0  0  0  0
   38.5490   26.1530   36.2670 H   0  0  0  0  0  0  0  0  0  0  0  0
   36.8140   25.8680   36.1910 H   0  0  0  0  0  0  0  0  0  0  0  0
   37.9840   24.2020   36.2180 N   0  0  0  0  0  0  0  0  0  0  0  0
   37.6940   23.9500   37.5780 C   0  0  0  0  0  0  0  0  0  0  0  0
   38.8180   23.5200   38.4370 C   0  0  0  0  0  0  0  0  0  0  0  0
   39.6230   22.5500   37.7700 O   0  0  0  0  0  0  0  0  0  0  0  0
   40.1330   23.1690   36.6480 C   0  0  0  0  0  0  0  0  0  0  0  0
   38.9970   23.4060   35.6900 C   0  0  1  0  0  0  0  0  0  0  0  0
   36.9700   24.5490   38.1030 H   0  0  0  0  0  0  0  0  0  0  0  0
   37.0690   22.9970   37.4430 H   0  0  0  0  0  0  0  0  0  0  0  0
   38.3130   22.8020   39.2080 H   0  0  0  0  0  0  0  0  0  0  0  0
   39.3420   24.1490   39.0920 H   0  0  0  0  0  0  0  0  0  0  0  0
   40.8050   24.0030   36.8080 H   0  0  0  0  0  0  0  0  0  0  0  0
   40.7730   22.3860   36.1320 H   0  0  0  0  0  0  0  0  0  0  0  0
   39.4520   23.9430   34.8100 H   0  0  0  0  0  0  0  0  0  0  0  0
   38.5640   22.0860   35.1770 C   0  0  0  0  0  0  0  0  0  0  0  0
   39.2300   21.2390   35.2530 H   0  0  0  0  0  0  0  0  0  0  0  0
   37.4530   21.9200   34.6610 O   0  0  0  0  0  0  0  0  0  0  0  0
  1 20  1  0  0  0  0
  2  1  1  0  0  0  0
  3  1  1  0  0  0  0
  4 13  1  0  0  0  0
  4  8  2  0  0  0  0
  5  4  1  0  0  0  0
  6  5  2  0  0  0  0
  6  7  1  0  0  0  0
  7  1  1  0  0  0  0
  7  8  1  0  0  0  0
  9  5  1  0  0  0  0
 10  6  1  0  0  0  0
 11 17  1  0  0  0  0
 12 11  1  0  0  0  0
 12 18  1  0  0  0  0
 13 12  2  0  0  0  0
 14 15  2  0  0  0  0
 14 13  1  0  0  0  0
 15 16  1  0  0  0  0
 16 11  2  0  0  0  0
 19 15  1  0  0  0  0
 20 22  1  0  0  0  0
 20 23  1  0  0  0  0
 20 21  1  0  0  0  0
 23 24  1  0  0  0  0
 24 29  1  0  0  0  0
 24 25  1  0  0  0  0
 25 32  1  0  0  0  0
 25 31  1  0  0  0  0
 26 25  1  0  0  0  0
 27 33  1  0  0  0  0
 27 26  1  0  0  0  0
 28 35  1  6  0  0  0
 28 23  1  0  0  0  0
 28 27  1  0  0  0  0
 30 24  1  0  0  0  0
 34 27  1  0  0  0  0
 36 37  1  0  0  0  0
 36 28  1  0  0  0  0
 38 36  2  0  0  0  0
M  END
>  <minimizedAffinity>
-4.75827599

$$$$

 OpenBabel03272508383D

 38 40  0  0  1  0  0  0  0  0999 V2000
   38.3050   26.9370   34.7860 C   0  0  0  0  0  0  0  0  0  0  0  0
   38.5060   27.7810   35.5080 H   0  0  0  0  0  0  0  0  0  0  0  0
   39.2690   26.7900   34.3110 H   0  0  0  0  0  0  0  0  0  0  0  0
   35.9180   28.6340   32.7160 C   0  0  0  0  0  0  0  0  0  0  0  0
   36.7590   28.1180   31.7810 C   0  0  0  0  0  0  0  0  0  0  0  0
   37.7520   27.4170   32.4390 C   0  0  0  0  0  0  0  0  0  0  0  0
   37.4730   27.5320   33.7470 N   0  0  0  0  0  0  0  0  0  0  0  0
   36.3740   28.2620   33.8980 N   0  0  0  0  0  0  0  0  0  0  0  0
   36.6410   28.2560   30.6880 H   0  0  0  0  0  0  0  0  0  0  0  0
   38.4750   26.9710   31.7890 H   0  0  0  0  0  0  0  0  0  0  0  0
   33.6570   31.2790   31.2670 C   0  0  0  0  0  0  0  0  0  0  0  0
   34.8110   30.5680   31.5350 C   0  0  0  0  0  0  0  0  0  0  0  0
   34.7780   29.4760   32.3880 C   0  0  0  0  0  0  0  0  0  0  0  0
   33.5580   29.1970   32.9040 N   0  0  0  0  0  0  0  0  0  0  0  0
   32.4360   29.8940   32.6380 C   0  0  0  0  0  0  0  0  0  0  0  0
   32.5050   30.9380   31.8130 N   0  0  0  0  0  0  0  0  0  0  0  0
   33.7250   32.1290   30.5910 H   0  0  0  0  0  0  0  0  0  0  0  0
   35.7750   30.8190   31.1030 H   0  0  0  0  0  0  0  0  0  0  0  0
   31.4910   29.5940   33.1030 H   0  0  0  0  0  0  0  0  0  0  0  0
   37.5840   25.9040   35.4950 C   0  0  0  0  0  0  0  0  0  0  0  0
   36.9010   26.3290   36.2620 H   0  0  0  0  0  0  0  0  0  0  0  0
   36.8810   25.3950   34.7710 H   0  0  0  0  0  0  0  0  0  0  0  0
   38.3150   24.8770   36.1200 N   0  0  0  0  0  0  0  0  0  0  0  0
   39.5350   24.4960   35.5180 C   0  0  0  0  0  0  0  0  0  0  0  0
   39.6310   23.1100   35.0120 C   0  0  0  0  0  0  0  0  0  0  0  0
   39.0700   22.1900   35.9450 O   0  0  0  0  0  0  0  0  0  0  0  0
   37.7370   22.5250   36.0730 C   0  0  0  0  0  0  0  0  0  0  0  0
   37.6570   23.8480   36.7870 C   0  0  1  0  0  0  0  0  0  0  0  0
   40.0960   25.1980   34.9260 H   0  0  0  0  0  0  0  0  0  0  0  0
   40.1940   24.4930   36.4580 H   0  0  0  0  0  0  0  0  0  0  0  0
   40.7550   22.8360   35.1780 H   0  0  0  0  0  0  0  0  0  0  0  0
   39.5240   22.8340   34.0060 H   0  0  0  0  0  0  0  0  0  0  0  0
   37.1160   22.4180   35.1930 H   0  0  0  0  0  0  0  0  0  0  0  0
   37.3060   21.7820   36.8160 H   0  0  0  0  0  0  0  0  0  0  0  0
   36.5590   24.0970   36.8350 H   0  0  0  0  0  0  0  0  0  0  0  0
   38.0820   23.6250   38.1870 C   0  0  0  0  0  0  0  0  0  0  0  0
   38.3220   22.6260   38.5200 H   0  0  0  0  0  0  0  0  0  0  0  0
   38.1740   24.5550   38.9960 O   0  0  0  0  0  0  0  0  0  0  0  0
  1 20  1  0  0  0  0
  1  2  1  0  0  0  0
  3  1  1  0  0  0  0
  4  8  2  0  0  0  0
  5  6  2  0  0  0  0
  5  4  1  0  0  0  0
  6  7  1  0  0  0  0
  7  8  1  0  0  0  0
  7  1  1  0  0  0  0
  9  5  1  0  0  0  0
 10  6  1  0  0  0  0
 11 12  2  0  0  0  0
 11 16  1  0  0  0  0
 12 13  1  0  0  0  0
 13  4  1  0  0  0  0
 13 14  2  0  0  0  0
 15 14  1  0  0  0  0
 15 19  1  0  0  0  0
 16 15  2  0  0  0  0
 17 11  1  0  0  0  0
 18 12  1  0  0  0  0
 20 23  1  0  0  0  0
 20 21  1  0  0  0  0
 22 20  1  0  0  0  0
 23 28  1  0  0  0  0
 24 23  1  0  0  0  0
 24 30  1  0  0  0  0
 25 31  1  0  0  0  0
 25 24  1  0  0  0  0
 25 26  1  0  0  0  0
 26 27  1  0  0  0  0
 27 28  1  0  0  0  0
 27 34  1  0  0  0  0
 28 35  1  1  0  0  0
 28 36  1  0  0  0  0
 29 24  1  0  0  0  0
 32 25  1  0  0  0  0
 33 27  1  0  0  0  0
 36 37  1  0  0  0  0
 36 38  2  0  0  0  0
M  END
>  <minimizedAffinity>
-4.65873432

$$$$

 OpenBabel03272508383D

 38 40  0  0  1  0  0  0  0  0999 V2000
   37.2240   27.2040   32.1920 C   0  0  0  0  0  0  0  0  0  0  0  0
   38.3060   27.5220   32.2520 H   0  0  0  0  0  0  0  0  0  0  0  0
   37.0410   27.1710   31.1240 H   0  0  0  0  0  0  0  0  0  0  0  0
   35.4650   29.8130   33.9130 C   0  0  0  0  0  0  0  0  0  0  0  0
   35.3990   30.2530   32.6280 C   0  0  0  0  0  0  0  0  0  0  0  0
   36.0440   29.3300   31.8270 C   0  0  0  0  0  0  0  0  0  0  0  0
   36.4740   28.3660   32.6560 N   0  0  0  0  0  0  0  0  0  0  0  0
   36.1200   28.6670   33.9000 N   0  0  0  0  0  0  0  0  0  0  0  0
   34.9060   31.1940   32.3130 H   0  0  0  0  0  0  0  0  0  0  0  0
   36.0530   29.5850   30.7880 H   0  0  0  0  0  0  0  0  0  0  0  0
   35.0260   32.1480   36.8400 C   0  0  0  0  0  0  0  0  0  0  0  0
   35.6450   31.4670   35.8100 C   0  0  0  0  0  0  0  0  0  0  0  0
   34.9310   30.5610   35.0420 C   0  0  0  0  0  0  0  0  0  0  0  0
   33.6310   30.4210   35.3930 N   0  0  0  0  0  0  0  0  0  0  0  0
   33.0330   31.0880   36.3990 C   0  0  0  0  0  0  0  0  0  0  0  0
   33.7500   31.9520   37.1160 N   0  0  0  0  0  0  0  0  0  0  0  0
   35.6210   32.8510   37.4190 H   0  0  0  0  0  0  0  0  0  0  0  0
   36.6910   31.6030   35.5540 H   0  0  0  0  0  0  0  0  0  0  0  0
   31.9730   30.9100   36.6110 H   0  0  0  0  0  0  0  0  0  0  0  0
   37.0380   26.0810   33.0830 C   0  0  0  0  0  0  0  0  0  0  0  0
   36.2010   26.2530   33.7950 H   0  0  0  0  0  0  0  0  0  0  0  0
   36.6870   25.1960   32.4750 H   0  0  0  0  0  0  0  0  0  0  0  0
   38.1350   25.6300   33.8400 N   0  0  0  0  0  0  0  0  0  0  0  0
   38.3290   24.2330   33.9220 C   0  0  0  0  0  0  0  0  0  0  0  0
   38.2240   23.6180   35.2630 C   0  0  0  0  0  0  0  0  0  0  0  0
   38.8970   24.4100   36.2390 O   0  0  0  0  0  0  0  0  0  0  0  0
   38.2570   25.6320   36.2590 C   0  0  0  0  0  0  0  0  0  0  0  0
   38.5550   26.3370   34.9630 C   0  0  1  0  0  0  0  0  0  0  0  0
   37.9850   23.5850   33.1350 H   0  0  0  0  0  0  0  0  0  0  0  0
   39.4540   24.2050   33.6930 H   0  0  0  0  0  0  0  0  0  0  0  0
   38.9920   22.7370   35.2190 H   0  0  0  0  0  0  0  0  0  0  0  0
   37.3820   23.1060   35.6190 H   0  0  0  0  0  0  0  0  0  0  0  0
   37.2230   25.6410   36.5800 H   0  0  0  0  0  0  0  0  0  0  0  0
   38.8020   26.2480   37.0420 H   0  0  0  0  0  0  0  0  0  0  0  0
   37.9860   27.3070   35.0100 H   0  0  0  0  0  0  0  0  0  0  0  0
   39.9880   26.7080   34.9780 C   0  0  0  0  0  0  0  0  0  0  0  0
   40.5620   26.5900   35.8860 H   0  0  0  0  0  0  0  0  0  0  0  0
   40.5560   27.1540   33.9750 O   0  0  0  0  0  0  0  0  0  0  0  0
  1  2  1  0  0  0  0
  1  7  1  0  0  0  0
  1 20  1  0  0  0  0
  3  1  1  0  0  0  0
  4 13  1  0  0  0  0
  5  4  1  0  0  0  0
  6  5  2  0  0  0  0
  6  7  1  0  0  0  0
  7  8  1  0  0  0  0
  8  4  2  0  0  0  0
  9  5  1  0  0  0  0
 10  6  1  0  0  0  0
 11 16  1  0  0  0  0
 11 17  1  0  0  0  0
 12 11  2  0  0  0  0
 13 14  2  0  0  0  0
 13 12  1  0  0  0  0
 14 15  1  0  0  0  0
 15 19  1  0  0  0  0
 15 16  2  0  0  0  0
 18 12  1  0  0  0  0
 20 21  1  0  0  0  0
 20 23  1  0  0  0  0
 22 20  1  0  0  0  0
 23 24  1  0  0  0  0
 23 28  1  0  0  0  0
 24 25  1  0  0  0  0
 25 32  1  0  0  0  0
 25 26  1  0  0  0  0
 26 27  1  0  0  0  0
 27 33  1  0  0  0  0
 27 34  1  0  0  0  0
 28 36  1  0  0  0  0
 28 35  1  1  0  0  0
 28 27  1  0  0  0  0
 29 24  1  0  0  0  0
 30 24  1  0  0  0  0
 31 25  1  0  0  0  0
 36 37  1  0  0  0  0
 38 36  2  0  0  0  0
M  END
>  <minimizedAffinity>
-4.61059809

$$$$

 OpenBabel03272508383D

 38 40  0  0  1  0  0  0  0  0999 V2000
   36.6920   27.6950   31.1910 C   0  0  0  0  0  0  0  0  0  0  0  0
   37.6640   27.3990   31.6850 H   0  0  0  0  0  0  0  0  0  0  0  0
   37.0180   28.0890   30.2340 H   0  0  0  0  0  0  0  0  0  0  0  0
   35.4710   30.1610   33.4900 C   0  0  0  0  0  0  0  0  0  0  0  0
   35.8190   30.9380   32.4300 C   0  0  0  0  0  0  0  0  0  0  0  0
   36.3140   30.1110   31.4390 C   0  0  0  0  0  0  0  0  0  0  0  0
   36.2440   28.8660   31.9350 N   0  0  0  0  0  0  0  0  0  0  0  0
   35.7370   28.9110   33.1620 N   0  0  0  0  0  0  0  0  0  0  0  0
   35.7120   32.0400   32.3990 H   0  0  0  0  0  0  0  0  0  0  0  0
   36.6240   30.6280   30.5550 H   0  0  0  0  0  0  0  0  0  0  0  0
   35.0680   31.9790   36.7680 C   0  0  0  0  0  0  0  0  0  0  0  0
   35.6700   31.4920   35.6240 C   0  0  0  0  0  0  0  0  0  0  0  0
   34.9550   30.7000   34.7390 C   0  0  0  0  0  0  0  0  0  0  0  0
   33.6710   30.4660   35.1000 N   0  0  0  0  0  0  0  0  0  0  0  0
   33.0890   30.9440   36.2170 C   0  0  0  0  0  0  0  0  0  0  0  0
   33.8080   31.7020   37.0450 N   0  0  0  0  0  0  0  0  0  0  0  0
   35.6630   32.5970   37.4360 H   0  0  0  0  0  0  0  0  0  0  0  0
   36.7040   31.6990   35.3640 H   0  0  0  0  0  0  0  0  0  0  0  0
   32.0420   30.7010   36.4270 H   0  0  0  0  0  0  0  0  0  0  0  0
   35.7620   26.6000   31.3450 C   0  0  0  0  0  0  0  0  0  0  0  0
   34.8790   26.8900   31.9550 H   0  0  0  0  0  0  0  0  0  0  0  0
   35.3160   26.3640   30.3330 H   0  0  0  0  0  0  0  0  0  0  0  0
   36.2340   25.3790   31.8610 N   0  0  0  0  0  0  0  0  0  0  0  0
   37.2420   25.4440   32.8490 C   0  0  0  0  0  0  0  0  0  0  0  0
   38.5520   24.8450   32.5140 C   0  0  0  0  0  0  0  0  0  0  0  0
   38.3820   23.5880   31.8620 O   0  0  0  0  0  0  0  0  0  0  0  0
   37.6980   23.8430   30.6920 C   0  0  0  0  0  0  0  0  0  0  0  0
   36.2930   24.2470   31.0530 C   0  0  1  0  0  0  0  0  0  0  0  0
   37.3250   26.3050   33.4900 H   0  0  0  0  0  0  0  0  0  0  0  0
   36.7860   24.7080   33.6030 H   0  0  0  0  0  0  0  0  0  0  0  0
   38.9370   24.4400   33.5410 H   0  0  0  0  0  0  0  0  0  0  0  0
   39.3940   25.3880   32.2070 H   0  0  0  0  0  0  0  0  0  0  0  0
   38.1970   24.4570   29.9530 H   0  0  0  0  0  0  0  0  0  0  0  0
   37.5750   22.8340   30.1850 H   0  0  0  0  0  0  0  0  0  0  0  0
   35.7870   24.4790   30.0740 H   0  0  0  0  0  0  0  0  0  0  0  0
   35.6090   23.0490   31.5880 C   0  0  0  0  0  0  0  0  0  0  0  0
   35.1600   23.0830   32.5690 H   0  0  0  0  0  0  0  0  0  0  0  0
   35.5330   21.9990   30.9400 O   0  0  0  0  0  0  0  0  0  0  0  0
  1 20  1  0  0  0  0
  1  2  1  0  0  0  0
  1  7  1  0  0  0  0
  3  1  1  0  0  0  0
  4 13  1  0  0  0  0
  5  4  1  0  0  0  0
  6  7  1  0  0  0  0
  6  5  2  0  0  0  0
  7  8  1  0  0  0  0
  8  4  2  0  0  0  0
  9  5  1  0  0  0  0
 10  6  1  0  0  0  0
 11 16  1  0  0  0  0
 11 17  1  0  0  0  0
 12 11  2  0  0  0  0
 13 14  2  0  0  0  0
 13 12  1  0  0  0  0
 14 15  1  0  0  0  0
 15 19  1  0  0  0  0
 15 16  2  0  0  0  0
 18 12  1  0  0  0  0
 20 23  1  0  0  0  0
 20 21  1  0  0  0  0
 22 20  1  0  0  0  0
 23 24  1  0  0  0  0
 24 29  1  0  0  0  0
 24 30  1  0  0  0  0
 25 24  1  0  0  0  0
 25 31  1  0  0  0  0
 26 25  1  0  0  0  0
 27 28  1  0  0  0  0
 27 26  1  0  0  0  0
 28 35  1  6  0  0  0
 28 36  1  0  0  0  0
 28 23  1  0  0  0  0
 32 25  1  0  0  0  0
 33 27  1  0  0  0  0
 34 27  1  0  0  0  0
 36 37  1  0  0  0  0
 38 36  2  0  0  0  0
M  END
>  <minimizedAffinity>
-4.52366972

$$$$

 OpenBabel03272508383D

 38 40  0  0  1  0  0  0  0  0999 V2000
   37.8300   22.5390   32.5290 C   0  0  0  0  0  0  0  0  0  0  0  0
   38.9030   22.8230   32.3190 H   0  0  0  0  0  0  0  0  0  0  0  0
   37.6230   21.7960   31.7660 H   0  0  0  0  0  0  0  0  0  0  0  0
   36.4200   25.7420   31.7490 C   0  0  0  0  0  0  0  0  0  0  0  0
   35.4570   24.9070   31.2760 C   0  0  0  0  0  0  0  0  0  0  0  0
   35.8630   23.6080   31.5130 C   0  0  0  0  0  0  0  0  0  0  0  0
   37.0550   23.7050   32.1230 N   0  0  0  0  0  0  0  0  0  0  0  0
   37.3750   24.9870   32.2580 N   0  0  0  0  0  0  0  0  0  0  0  0
   34.5200   25.2440   30.7900 H   0  0  0  0  0  0  0  0  0  0  0  0
   35.1720   22.8660   31.1720 H   0  0  0  0  0  0  0  0  0  0  0  0
   36.0670   29.4320   32.4400 C   0  0  0  0  0  0  0  0  0  0  0  0
   36.0720   28.0680   32.6620 C   0  0  0  0  0  0  0  0  0  0  0  0
   36.3520   27.1910   31.6270 C   0  0  0  0  0  0  0  0  0  0  0  0
   36.6050   27.7830   30.4350 N   0  0  0  0  0  0  0  0  0  0  0  0
   36.5980   29.1130   30.2240 C   0  0  0  0  0  0  0  0  0  0  0  0
   36.3250   29.9270   31.2440 N   0  0  0  0  0  0  0  0  0  0  0  0
   35.8440   30.0860   33.2790 H   0  0  0  0  0  0  0  0  0  0  0  0
   35.8650   27.6250   33.6320 H   0  0  0  0  0  0  0  0  0  0  0  0
   36.8150   29.5030   29.2240 H   0  0  0  0  0  0  0  0  0  0  0  0
   37.7000   22.3020   33.9490 C   0  0  0  0  0  0  0  0  0  0  0  0
   36.6490   22.4150   34.2920 H   0  0  0  0  0  0  0  0  0  0  0  0
   37.9270   21.2130   34.1520 H   0  0  0  0  0  0  0  0  0  0  0  0
   38.5040   23.0430   34.8340 N   0  0  0  0  0  0  0  0  0  0  0  0
   39.7770   22.5150   35.1460 C   0  0  0  0  0  0  0  0  0  0  0  0
   40.0240   22.1480   36.5570 C   0  0  0  0  0  0  0  0  0  0  0  0
   39.5210   23.1510   37.4370 O   0  0  0  0  0  0  0  0  0  0  0  0
   38.1590   23.2090   37.2260 C   0  0  0  0  0  0  0  0  0  0  0  0
   37.9240   23.7890   35.8560 C   0  0  1  0  0  0  0  0  0  0  0  0
   40.2880   21.8730   34.4500 H   0  0  0  0  0  0  0  0  0  0  0  0
   40.3970   23.4680   34.9950 H   0  0  0  0  0  0  0  0  0  0  0  0
   41.1630   22.3700   36.7000 H   0  0  0  0  0  0  0  0  0  0  0  0
   39.9820   21.1720   36.9360 H   0  0  0  0  0  0  0  0  0  0  0  0
   37.5840   22.3270   37.4760 H   0  0  0  0  0  0  0  0  0  0  0  0
   37.7750   24.0080   37.9350 H   0  0  0  0  0  0  0  0  0  0  0  0
   36.8070   23.7830   35.7150 H   0  0  0  0  0  0  0  0  0  0  0  0
   38.3180   25.2150   35.9040 C   0  0  0  0  0  0  0  0  0  0  0  0
   39.2920   25.4890   36.2800 H   0  0  0  0  0  0  0  0  0  0  0  0
   37.5590   26.1130   35.5210 O   0  0  0  0  0  0  0  0  0  0  0  0
  1 20  1  0  0  0  0
  2  1  1  0  0  0  0
  3  1  1  0  0  0  0
  4  8  2  0  0  0  0
  5  6  2  0  0  0  0
  5  4  1  0  0  0  0
  6  7  1  0  0  0  0
  7  8  1  0  0  0  0
  7  1  1  0  0  0  0
  9  5  1  0  0  0  0
 10  6  1  0  0  0  0
 11 12  1  0  0  0  0
 11 17  1  0  0  0  0
 12 18  1  0  0  0  0
 13  4  1  0  0  0  0
 13 12  2  0  0  0  0
 14 13  1  0  0  0  0
 15 14  2  0  0  0  0
 15 16  1  0  0  0  0
 16 11  2  0  0  0  0
 19 15  1  0  0  0  0
 20 22  1  0  0  0  0
 20 21  1  0  0  0  0
 20 23  1  0  0  0  0
 23 24  1  0  0  0  0
 23 28  1  0  0  0  0
 24 25  1  0  0  0  0
 25 31  1  0  0  0  0
 25 32  1  0  0  0  0
 25 26  1  0  0  0  0
 27 26  1  0  0  0  0
 27 33  1  0  0  0  0
 27 34  1  0  0  0  0
 28 35  1  6  0  0  0
 28 36  1  0  0  0  0
 28 27  1  0  0  0  0
 29 24  1  0  0  0  0
 30 24  1  0  0  0  0
 36 37  1  0  0  0  0
 38 36  2  0  0  0  0
M  END
>  <minimizedAffinity>
-4.51949883

$$$$

 OpenBabel03272508383D

 38 40  0  0  1  0  0  0  0  0999 V2000
   37.6930   25.4400   33.8110 C   0  0  0  0  0  0  0  0  0  0  0  0
   38.7110   25.1400   33.4240 H   0  0  0  0  0  0  0  0  0  0  0  0
   37.0360   24.7030   33.3620 H   0  0  0  0  0  0  0  0  0  0  0  0
   37.2730   28.2400   31.6100 C   0  0  0  0  0  0  0  0  0  0  0  0
   36.5340   28.6330   32.6820 C   0  0  0  0  0  0  0  0  0  0  0  0
   36.6040   27.6380   33.6380 C   0  0  0  0  0  0  0  0  0  0  0  0
   37.3840   26.6810   33.1110 N   0  0  0  0  0  0  0  0  0  0  0  0
   37.7770   27.0550   31.8980 N   0  0  0  0  0  0  0  0  0  0  0  0
   35.9830   29.5920   32.7450 H   0  0  0  0  0  0  0  0  0  0  0  0
   36.0480   27.8470   34.5270 H   0  0  0  0  0  0  0  0  0  0  0  0
   37.1170   30.9810   29.0270 C   0  0  0  0  0  0  0  0  0  0  0  0
   36.9240   30.3180   30.2240 C   0  0  0  0  0  0  0  0  0  0  0  0
   37.3870   29.0220   30.3890 C   0  0  0  0  0  0  0  0  0  0  0  0
   38.0160   28.5040   29.3080 N   0  0  0  0  0  0  0  0  0  0  0  0
   38.2010   29.1550   28.1430 C   0  0  0  0  0  0  0  0  0  0  0  0
   37.7430   30.4000   28.0200 N   0  0  0  0  0  0  0  0  0  0  0  0
   36.7390   31.9970   28.9380 H   0  0  0  0  0  0  0  0  0  0  0  0
   36.4150   30.7640   31.0730 H   0  0  0  0  0  0  0  0  0  0  0  0
   38.7220   28.6540   27.3210 H   0  0  0  0  0  0  0  0  0  0  0  0
   37.8060   25.6660   35.2350 C   0  0  0  0  0  0  0  0  0  0  0  0
   38.2810   26.6450   35.4610 H   0  0  0  0  0  0  0  0  0  0  0  0
   36.7660   25.7740   35.6640 H   0  0  0  0  0  0  0  0  0  0  0  0
   38.4590   24.7010   36.0220 N   0  0  0  0  0  0  0  0  0  0  0  0
   39.7460   24.2930   35.6060 C   0  0  0  0  0  0  0  0  0  0  0  0
   39.9110   22.8740   35.2240 C   0  0  0  0  0  0  0  0  0  0  0  0
   39.2430   22.0190   36.1490 O   0  0  0  0  0  0  0  0  0  0  0  0
   37.9030   22.3430   36.0850 C   0  0  0  0  0  0  0  0  0  0  0  0
   37.7280   23.7150   36.6800 C   0  0  1  0  0  0  0  0  0  0  0  0
   40.3730   24.9560   35.0360 H   0  0  0  0  0  0  0  0  0  0  0  0
   40.2830   24.3700   36.6180 H   0  0  0  0  0  0  0  0  0  0  0  0
   41.0070   22.6300   35.5480 H   0  0  0  0  0  0  0  0  0  0  0  0
   39.9310   22.5210   34.2370 H   0  0  0  0  0  0  0  0  0  0  0  0
   37.3970   22.1610   35.1460 H   0  0  0  0  0  0  0  0  0  0  0  0
   37.3870   21.6520   36.8240 H   0  0  0  0  0  0  0  0  0  0  0  0
   36.6320   23.9510   36.5730 H   0  0  0  0  0  0  0  0  0  0  0  0
   37.9780   23.6050   38.1350 C   0  0  0  0  0  0  0  0  0  0  0  0
   38.0980   22.6300   38.5840 H   0  0  0  0  0  0  0  0  0  0  0  0
   38.0550   24.6030   38.8600 O   0  0  0  0  0  0  0  0  0  0  0  0
  1 20  1  0  0  0  0
  2  1  1  0  0  0  0
  3  1  1  0  0  0  0
  4  8  2  0  0  0  0
  4  5  1  0  0  0  0
  5  9  1  0  0  0  0
  5  6  2  0  0  0  0
  6 10  1  0  0  0  0
  7  6  1  0  0  0  0
  7  1  1  0  0  0  0
  8  7  1  0  0  0  0
 11 12  1  0  0  0  0
 12 13  2  0  0  0  0
 12 18  1  0  0  0  0
 13  4  1  0  0  0  0
 14 13  1  0  0  0  0
 15 14  2  0  0  0  0
 16 15  1  0  0  0  0
 16 11  2  0  0  0  0
 17 11  1  0  0  0  0
 19 15  1  0  0  0  0
 20 21  1  0  0  0  0
 20 22  1  0  0  0  0
 20 23  1  0  0  0  0
 23 28  1  0  0  0  0
 24 23  1  0  0  0  0
 24 30  1  0  0  0  0
 25 31  1  0  0  0  0
 25 24  1  0  0  0  0
 25 26  1  0  0  0  0
 27 26  1  0  0  0  0
 27 28  1  0  0  0  0
 27 34  1  0  0  0  0
 28 35  1  6  0  0  0
 28 36  1  0  0  0  0
 29 24  1  0  0  0  0
 32 25  1  0  0  0  0
 33 27  1  0  0  0  0
 36 37  1  0  0  0  0
 36 38  2  0  0  0  0
M  END
>  <minimizedAffinity>
-4.51217747

$$$$
