
     RDKit          3D

 15 15  0  0  0  0  0  0  0  0999 V2000
   38.3040   31.2453   50.1108 C   0  0  0  0  0  0  0  0  0  0  0  0
   38.2932   31.6168   48.7639 C   0  0  0  0  0  0  0  0  0  0  0  0
   37.2034   31.2206   48.0016 C   0  0  0  0  0  0  0  0  0  0  0  0
   36.2192   30.5004   48.6058 N   0  0  0  0  0  0  0  0  0  0  0  0
   36.2707   30.1656   49.9032 C   0  0  0  0  0  0  0  0  0  0  0  0
   37.3056   30.5337   50.6564 N   0  0  0  0  0  0  0  0  0  0  0  0
   35.1257   29.3746   50.4390 C   0  0  0  0  0  0  0  0  0  0  0  0
   35.2611   29.1236   51.7983 F   0  0  0  0  0  0  0  0  0  0  0  0
   33.9265   30.0608   50.2987 F   0  0  0  0  0  0  0  0  0  0  0  0
   34.9396   28.1707   49.8263 F   0  0  0  0  0  0  0  0  0  0  0  0
   39.1405   31.5366   50.7418 H   0  0  0  0  0  0  0  0  0  0  0  0
   39.1030   32.1945   48.3197 H   0  0  0  0  0  0  0  0  0  0  0  0
   37.1186   31.5675   46.5946 C   0  0  0  0  0  0  0  0  0  0  0  0
   37.0613   30.7711   45.8650 H   0  0  0  0  0  0  0  0  0  0  0  0
   37.1124   32.7684   46.2376 O   0  0  0  0  0  0  0  0  0  0  0  0
  1  6  2  0
  2  1  1  0
  3  4  1  0
  3  2  2  0
  4  5  2  0
  5  7  1  0
  5  6  1  0
  7  8  1  0
  9  7  1  0
 10  7  1  0
  1 11  1  0
  2 12  1  0
 13 14  1  0
 13 15  2  0
  3 13  1  0
M  ISO  3  11  14  12  14  14   6
M  END
>  <DihAtoms>  (1) 
3,2,12,13

>  <DihDeg>  (1) 
0.0003458949641292731

$$$$
