
 OpenBabel03272509103D

 34 36  0  0  0  0  0  0  0  0999 V2000
   36.7760   28.1610   34.6490 C   0  0  0  0  0  3  0  0  0  0  0  0
   36.0860   28.7410   33.7190 C   0  0  0  0  0  3  0  0  0  0  0  0
   37.5480   24.9500   33.0800 C   0  0  0  0  0  0  0  0  0  0  0  0
   37.9720   24.1830   34.1800 C   0  0  0  0  0  0  0  0  0  0  0  0
   37.9840   24.7950   35.4570 C   0  0  0  0  0  0  0  0  0  0  0  0
   37.5780   26.1110   35.5500 N   0  0  0  0  0  0  0  0  0  0  0  0
   37.1850   26.7790   34.4430 C   0  0  0  0  0  0  0  0  0  0  0  0
   37.1710   26.2050   33.2270 N   0  0  0  0  0  0  0  0  0  0  0  0
   37.5610   24.4260   32.1260 H   0  0  0  0  0  0  0  0  0  0  0  0
   38.3000   23.1460   34.1570 H   0  0  0  0  0  0  0  0  0  0  0  0
   38.3990   24.1100   36.6680 C   0  0  0  0  0  0  0  0  0  0  0  0
   37.9710   24.4730   37.9190 C   0  0  0  0  0  0  0  0  0  0  0  0
   38.5610   23.6070   38.8450 C   0  0  0  0  0  0  0  0  0  0  0  0
   39.3240   22.7550   38.1200 N   0  0  0  0  0  0  0  0  0  0  0  0
   39.2170   23.0650   36.8400 N   0  0  0  0  0  0  0  0  0  0  0  0
   37.2890   25.2870   38.1870 H   0  0  0  0  0  0  0  0  0  0  0  0
   38.4270   23.6260   39.9290 H   0  0  0  0  0  0  0  0  0  0  0  0
   39.8700   22.0040   38.6090 H   0  0  0  0  0  0  0  0  0  0  0  0
   35.5770   30.1200   33.7250 C   0  0  0  0  0  0  0  0  0  0  0  0
   35.2160   30.4610   32.7560 H   0  0  0  0  0  0  0  0  0  0  0  0
   36.4540   30.7840   33.9740 H   0  0  0  0  0  0  0  0  0  0  0  0
   34.5860   30.3780   34.7970 C   0  0  0  0  0  0  0  0  0  0  0  0
   33.3660   29.7590   34.8960 C   0  0  0  0  0  0  0  0  0  0  0  0
   32.5000   30.0570   35.9260 C   0  0  0  0  0  0  0  0  0  0  0  0
   32.8300   30.9910   36.8960 C   0  0  0  0  0  0  0  0  0  0  0  0
   34.0450   31.6170   36.8090 C   0  0  0  0  0  0  0  0  0  0  0  0
   34.8820   31.3020   35.7780 C   0  0  0  0  0  0  0  0  0  0  0  0
   33.1070   29.0330   34.1430 H   0  0  0  0  0  0  0  0  0  0  0  0
   31.5420   29.5570   35.9840 H   0  0  0  0  0  0  0  0  0  0  0  0
   32.1610   31.2330   37.7060 H   0  0  0  0  0  0  0  0  0  0  0  0
   34.3050   32.3480   37.5670 H   0  0  0  0  0  0  0  0  0  0  0  0
   36.1580   32.0080   35.7500 C   0  0  0  0  0  0  0  0  0  0  0  0
   37.1470   31.6220   35.9590 H   0  0  0  0  0  0  0  0  0  0  0  0
   36.2840   33.2460   35.4590 O   0  0  0  0  0  0  0  0  0  0  0  0
  2 19  1  0  0  0  0
  2  1  2  0  0  0  0
  3  8  2  0  0  0  0
  3  4  1  0  0  0  0
  4  5  2  0  0  0  0
  5  6  1  0  0  0  0
  5 11  1  0  0  0  0
  7  1  1  0  0  0  0
  7  6  2  0  0  0  0
  8  7  1  0  0  0  0
  9  3  1  0  0  0  0
 10  4  1  0  0  0  0
 11 15  2  0  0  0  0
 11 12  1  0  0  0  0
 12 16  1  0  0  0  0
 12 13  2  0  0  0  0
 13 17  1  0  0  0  0
 14 18  1  0  0  0  0
 14 13  1  0  0  0  0
 15 14  1  0  0  0  0
 19 21  1  0  0  0  0
 19 22  1  0  0  0  0
 20 19  1  0  0  0  0
 22 23  2  0  0  0  0
 22 27  1  0  0  0  0
 23 24  1  0  0  0  0
 24 29  1  0  0  0  0
 24 25  2  0  0  0  0
 25 30  1  0  0  0  0
 26 25  1  0  0  0  0
 26 31  1  0  0  0  0
 27 26  2  0  0  0  0
 28 23  1  0  0  0  0
 32 27  1  0  0  0  0
 32 33  1  0  0  0  0
 34 32  2  0  0  0  0
M  END
>  <minimizedAffinity>
-5.98863029

$$$$

 OpenBabel03272509103D

 34 36  0  0  0  0  0  0  0  0999 V2000
   36.3650   27.8310   34.5360 C   0  0  0  0  0  3  0  0  0  0  0  0
   36.2460   28.7240   33.6050 C   0  0  0  0  0  3  0  0  0  0  0  0
   39.4870   26.2140   33.5350 C   0  0  0  0  0  0  0  0  0  0  0  0
   39.6660   25.2660   34.5590 C   0  0  0  0  0  0  0  0  0  0  0  0
   38.6940   25.2030   35.5880 C   0  0  0  0  0  0  0  0  0  0  0  0
   37.6260   26.0750   35.5260 N   0  0  0  0  0  0  0  0  0  0  0  0
   37.5290   26.9560   34.5070 C   0  0  0  0  0  0  0  0  0  0  0  0
   38.4470   27.0240   33.5270 N   0  0  0  0  0  0  0  0  0  0  0  0
   40.2660   26.2150   32.7740 H   0  0  0  0  0  0  0  0  0  0  0  0
   40.4880   24.5600   34.6510 H   0  0  0  0  0  0  0  0  0  0  0  0
   38.7660   24.2700   36.6980 C   0  0  0  0  0  0  0  0  0  0  0  0
   37.9180   24.3190   37.7740 C   0  0  0  0  0  0  0  0  0  0  0  0
   38.2650   23.2820   38.6460 C   0  0  0  0  0  0  0  0  0  0  0  0
   39.3110   22.6470   38.0650 N   0  0  0  0  0  0  0  0  0  0  0  0
   39.5920   23.2410   36.9190 N   0  0  0  0  0  0  0  0  0  0  0  0
   37.1010   25.0260   37.9550 H   0  0  0  0  0  0  0  0  0  0  0  0
   37.7860   23.0450   39.5980 H   0  0  0  0  0  0  0  0  0  0  0  0
   39.7480   21.8220   38.5440 H   0  0  0  0  0  0  0  0  0  0  0  0
   35.1580   29.6990   33.4490 C   0  0  0  0  0  0  0  0  0  0  0  0
   34.2280   29.2670   33.0830 H   0  0  0  0  0  0  0  0  0  0  0  0
   35.4900   30.4250   32.6530 H   0  0  0  0  0  0  0  0  0  0  0  0
   34.9340   30.5310   34.6560 C   0  0  0  0  0  0  0  0  0  0  0  0
   35.8670   31.3710   35.2080 C   0  0  0  0  0  0  0  0  0  0  0  0
   35.5780   32.1120   36.3330 C   0  0  0  0  0  0  0  0  0  0  0  0
   34.3370   32.0340   36.9470 C   0  0  0  0  0  0  0  0  0  0  0  0
   33.3960   31.1980   36.4070 C   0  0  0  0  0  0  0  0  0  0  0  0
   33.7110   30.4770   35.2920 C   0  0  0  0  0  0  0  0  0  0  0  0
   36.8320   31.4340   34.7320 H   0  0  0  0  0  0  0  0  0  0  0  0
   36.3300   32.7680   36.7510 H   0  0  0  0  0  0  0  0  0  0  0  0
   34.0990   32.6080   37.8280 H   0  0  0  0  0  0  0  0  0  0  0  0
   32.4250   31.1360   36.8850 H   0  0  0  0  0  0  0  0  0  0  0  0
   32.6600   29.6090   34.7730 C   0  0  0  0  0  0  0  0  0  0  0  0
   32.2660   29.5540   33.7660 H   0  0  0  0  0  0  0  0  0  0  0  0
   32.0300   28.7490   35.4770 O   0  0  0  0  0  0  0  0  0  0  0  0
  2  1  2  0  0  0  0
  3  4  1  0  0  0  0
  4 10  1  0  0  0  0
  4  5  2  0  0  0  0
  5 11  1  0  0  0  0
  6  5  1  0  0  0  0
  7  1  1  0  0  0  0
  7  6  2  0  0  0  0
  8  3  2  0  0  0  0
  8  7  1  0  0  0  0
  9  3  1  0  0  0  0
 11 15  2  0  0  0  0
 11 12  1  0  0  0  0
 12 16  1  0  0  0  0
 12 13  2  0  0  0  0
 13 17  1  0  0  0  0
 14 18  1  0  0  0  0
 14 13  1  0  0  0  0
 15 14  1  0  0  0  0
 19  2  1  0  0  0  0
 19 22  1  0  0  0  0
 20 19  1  0  0  0  0
 21 19  1  0  0  0  0
 22 23  2  0  0  0  0
 22 27  1  0  0  0  0
 23 24  1  0  0  0  0
 24 29  1  0  0  0  0
 24 25  2  0  0  0  0
 25 30  1  0  0  0  0
 26 31  1  0  0  0  0
 26 25  1  0  0  0  0
 27 26  2  0  0  0  0
 28 23  1  0  0  0  0
 32 27  1  0  0  0  0
 32 34  2  0  0  0  0
 33 32  1  0  0  0  0
M  END
>  <minimizedAffinity>
-5.83144569

$$$$

 OpenBabel03272509103D

 34 36  0  0  0  0  0  0  0  0999 V2000
   37.0180   25.0340   32.4430 C   0  0  0  0  0  3  0  0  0  0  0  0
   37.0380   23.7510   32.2650 C   0  0  0  0  0  3  0  0  0  0  0  0
   37.8010   27.3010   35.2020 C   0  0  0  0  0  0  0  0  0  0  0  0
   38.3410   26.4210   36.1580 C   0  0  0  0  0  0  0  0  0  0  0  0
   38.4250   25.0460   35.8270 C   0  0  0  0  0  0  0  0  0  0  0  0
   37.9730   24.6480   34.5860 N   0  0  0  0  0  0  0  0  0  0  0  0
   37.4670   25.5580   33.7250 C   0  0  0  0  0  0  0  0  0  0  0  0
   37.3830   26.8650   34.0300 N   0  0  0  0  0  0  0  0  0  0  0  0
   37.7620   28.3440   35.5130 H   0  0  0  0  0  0  0  0  0  0  0  0
   38.7100   26.6870   37.1460 H   0  0  0  0  0  0  0  0  0  0  0  0
   38.9630   24.0410   36.7270 C   0  0  0  0  0  0  0  0  0  0  0  0
   40.0670   23.2850   36.4300 C   0  0  0  0  0  0  0  0  0  0  0  0
   40.3040   22.4260   37.5080 C   0  0  0  0  0  0  0  0  0  0  0  0
   39.3340   22.6940   38.4140 N   0  0  0  0  0  0  0  0  0  0  0  0
   38.5530   23.6480   37.9380 N   0  0  0  0  0  0  0  0  0  0  0  0
   40.6820   23.3180   35.5240 H   0  0  0  0  0  0  0  0  0  0  0  0
   41.1100   21.6920   37.5900 H   0  0  0  0  0  0  0  0  0  0  0  0
   39.3080   22.1640   39.3190 H   0  0  0  0  0  0  0  0  0  0  0  0
   36.6310   23.0200   31.0570 C   0  0  0  0  0  0  0  0  0  0  0  0
   37.3600   23.0640   30.2480 H   0  0  0  0  0  0  0  0  0  0  0  0
   35.7100   23.5380   30.6640 H   0  0  0  0  0  0  0  0  0  0  0  0
   36.2010   21.6270   31.3260 C   0  0  0  0  0  0  0  0  0  0  0  0
   35.0560   21.2810   31.9960 C   0  0  0  0  0  0  0  0  0  0  0  0
   34.7270   19.9590   32.2050 C   0  0  0  0  0  0  0  0  0  0  0  0
   35.5420   18.9340   31.7480 C   0  0  0  0  0  0  0  0  0  0  0  0
   36.6900   19.2660   31.0790 C   0  0  0  0  0  0  0  0  0  0  0  0
   36.9890   20.5830   30.8860 C   0  0  0  0  0  0  0  0  0  0  0  0
   34.4210   22.0760   32.3520 H   0  0  0  0  0  0  0  0  0  0  0  0
   33.8190   19.7090   32.7370 H   0  0  0  0  0  0  0  0  0  0  0  0
   35.2970   17.8960   31.9070 H   0  0  0  0  0  0  0  0  0  0  0  0
   37.3280   18.4660   30.7210 H   0  0  0  0  0  0  0  0  0  0  0  0
   38.2260   20.8610   30.1650 C   0  0  0  0  0  0  0  0  0  0  0  0
   38.3520   21.1690   29.1350 H   0  0  0  0  0  0  0  0  0  0  0  0
   39.3910   20.7720   30.6830 O   0  0  0  0  0  0  0  0  0  0  0  0
  1  7  1  0  0  0  0
  2  1  2  0  0  0  0
  3  9  1  0  0  0  0
  3  4  1  0  0  0  0
  4 10  1  0  0  0  0
  5  4  2  0  0  0  0
  5 11  1  0  0  0  0
  6  5  1  0  0  0  0
  7  8  1  0  0  0  0
  7  6  2  0  0  0  0
  8  3  2  0  0  0  0
 11 15  2  0  0  0  0
 12 11  1  0  0  0  0
 12 13  2  0  0  0  0
 13 17  1  0  0  0  0
 13 14  1  0  0  0  0
 14 18  1  0  0  0  0
 15 14  1  0  0  0  0
 16 12  1  0  0  0  0
 19 22  1  0  0  0  0
 19  2  1  0  0  0  0
 20 19  1  0  0  0  0
 21 19  1  0  0  0  0
 22 23  1  0  0  0  0
 23 24  2  0  0  0  0
 23 28  1  0  0  0  0
 24 29  1  0  0  0  0
 25 30  1  0  0  0  0
 25 24  1  0  0  0  0
 26 25  2  0  0  0  0
 27 26  1  0  0  0  0
 27 22  2  0  0  0  0
 31 26  1  0  0  0  0
 32 34  2  0  0  0  0
 32 27  1  0  0  0  0
 33 32  1  0  0  0  0
M  END
>  <minimizedAffinity>
-5.66124105

$$$$

 OpenBabel03272509103D

 34 36  0  0  0  0  0  0  0  0999 V2000
   36.7290   28.2030   34.8240 C   0  0  0  0  0  3  0  0  0  0  0  0
   35.7200   28.5030   34.0690 C   0  0  0  0  0  3  0  0  0  0  0  0
   38.5270   25.5450   33.0730 C   0  0  0  0  0  0  0  0  0  0  0  0
   38.8340   24.6610   34.1220 C   0  0  0  0  0  0  0  0  0  0  0  0
   38.4100   25.0030   35.4300 C   0  0  0  0  0  0  0  0  0  0  0  0
   37.7190   26.1850   35.5990 N   0  0  0  0  0  0  0  0  0  0  0  0
   37.4640   26.9800   34.5370 C   0  0  0  0  0  0  0  0  0  0  0  0
   37.8630   26.6630   33.2920 N   0  0  0  0  0  0  0  0  0  0  0  0
   38.8780   25.2290   32.0920 H   0  0  0  0  0  0  0  0  0  0  0  0
   39.3750   23.7200   34.0380 H   0  0  0  0  0  0  0  0  0  0  0  0
   38.6660   24.1740   36.5940 C   0  0  0  0  0  0  0  0  0  0  0  0
   38.0010   24.3280   37.7830 C   0  0  0  0  0  0  0  0  0  0  0  0
   38.4910   23.3720   38.6790 C   0  0  0  0  0  0  0  0  0  0  0  0
   39.4350   22.6780   37.9980 N   0  0  0  0  0  0  0  0  0  0  0  0
   39.5250   23.1640   36.7730 N   0  0  0  0  0  0  0  0  0  0  0  0
   37.2190   25.0550   38.0280 H   0  0  0  0  0  0  0  0  0  0  0  0
   38.1720   23.2260   39.7130 H   0  0  0  0  0  0  0  0  0  0  0  0
   39.9490   21.8970   38.4740 H   0  0  0  0  0  0  0  0  0  0  0  0
   34.8490   29.6810   34.1830 C   0  0  0  0  0  0  0  0  0  0  0  0
   34.3430   29.7640   35.1440 H   0  0  0  0  0  0  0  0  0  0  0  0
   34.0310   29.5510   33.4190 H   0  0  0  0  0  0  0  0  0  0  0  0
   35.5210   30.9500   33.8110 C   0  0  0  0  0  0  0  0  0  0  0  0
   35.8880   31.2920   32.5340 C   0  0  0  0  0  0  0  0  0  0  0  0
   36.5090   32.4940   32.2720 C   0  0  0  0  0  0  0  0  0  0  0  0
   36.7860   33.3970   33.2870 C   0  0  0  0  0  0  0  0  0  0  0  0
   36.4260   33.0670   34.5670 C   0  0  0  0  0  0  0  0  0  0  0  0
   35.8120   31.8710   34.7960 C   0  0  0  0  0  0  0  0  0  0  0  0
   35.6730   30.5920   31.7440 H   0  0  0  0  0  0  0  0  0  0  0  0
   36.7900   32.7430   31.2580 H   0  0  0  0  0  0  0  0  0  0  0  0
   37.2730   34.3400   33.0950 H   0  0  0  0  0  0  0  0  0  0  0  0
   36.6420   33.7730   35.3620 H   0  0  0  0  0  0  0  0  0  0  0  0
   35.4570   31.5880   36.1820 C   0  0  0  0  0  0  0  0  0  0  0  0
   35.4130   30.6310   36.6860 H   0  0  0  0  0  0  0  0  0  0  0  0
   35.1330   32.4840   37.0340 O   0  0  0  0  0  0  0  0  0  0  0  0
  2 19  1  0  0  0  0
  2  1  2  0  0  0  0
  3  8  2  0  0  0  0
  3  4  1  0  0  0  0
  4  5  2  0  0  0  0
  5  6  1  0  0  0  0
  5 11  1  0  0  0  0
  7  1  1  0  0  0  0
  7  6  2  0  0  0  0
  8  7  1  0  0  0  0
  9  3  1  0  0  0  0
 10  4  1  0  0  0  0
 11 15  2  0  0  0  0
 11 12  1  0  0  0  0
 12 16  1  0  0  0  0
 12 13  2  0  0  0  0
 13 17  1  0  0  0  0
 14 18  1  0  0  0  0
 14 13  1  0  0  0  0
 15 14  1  0  0  0  0
 19 20  1  0  0  0  0
 21 19  1  0  0  0  0
 22 19  1  0  0  0  0
 22 27  1  0  0  0  0
 23 22  2  0  0  0  0
 24 23  1  0  0  0  0
 24 25  2  0  0  0  0
 25 26  1  0  0  0  0
 26 27  2  0  0  0  0
 26 31  1  0  0  0  0
 27 32  1  0  0  0  0
 28 23  1  0  0  0  0
 29 24  1  0  0  0  0
 30 25  1  0  0  0  0
 32 33  1  0  0  0  0
 32 34  2  0  0  0  0
M  END
>  <minimizedAffinity>
-5.61043167

$$$$

 OpenBabel03272509103D

 34 36  0  0  0  0  0  0  0  0999 V2000
   37.3270   27.2360   34.0710 C   0  0  0  0  0  3  0  0  0  0  0  0
   37.8230   27.2120   35.2680 C   0  0  0  0  0  3  0  0  0  0  0  0
   34.9640   29.3590   32.2620 C   0  0  0  0  0  0  0  0  0  0  0  0
   34.5650   30.2670   33.2600 C   0  0  0  0  0  0  0  0  0  0  0  0
   35.1260   30.1280   34.5530 C   0  0  0  0  0  0  0  0  0  0  0  0
   36.0330   29.1080   34.7610 N   0  0  0  0  0  0  0  0  0  0  0  0
   36.3620   28.2770   33.7470 C   0  0  0  0  0  0  0  0  0  0  0  0
   35.8340   28.4020   32.5170 N   0  0  0  0  0  0  0  0  0  0  0  0
   34.5000   29.5170   31.2910 H   0  0  0  0  0  0  0  0  0  0  0  0
   33.8570   31.0850   33.1450 H   0  0  0  0  0  0  0  0  0  0  0  0
   34.7960   31.0010   35.6650 C   0  0  0  0  0  0  0  0  0  0  0  0
   33.5160   31.1760   36.1250 C   0  0  0  0  0  0  0  0  0  0  0  0
   33.5610   32.0750   37.1950 C   0  0  0  0  0  0  0  0  0  0  0  0
   34.8660   32.4110   37.3400 N   0  0  0  0  0  0  0  0  0  0  0  0
   35.5780   31.7690   36.4310 N   0  0  0  0  0  0  0  0  0  0  0  0
   32.5970   30.7120   35.7510 H   0  0  0  0  0  0  0  0  0  0  0  0
   32.7120   32.4280   37.7840 H   0  0  0  0  0  0  0  0  0  0  0  0
   35.1470   33.0850   38.0940 H   0  0  0  0  0  0  0  0  0  0  0  0
   38.8030   26.2540   35.8000 C   0  0  0  0  0  0  0  0  0  0  0  0
   39.0160   26.3830   36.8600 H   0  0  0  0  0  0  0  0  0  0  0  0
   39.7750   26.4620   35.2670 H   0  0  0  0  0  0  0  0  0  0  0  0
   38.4840   24.8430   35.4770 C   0  0  0  0  0  0  0  0  0  0  0  0
   38.6040   24.2810   34.2310 C   0  0  0  0  0  0  0  0  0  0  0  0
   38.2860   22.9580   34.0150 C   0  0  0  0  0  0  0  0  0  0  0  0
   37.8330   22.1490   35.0470 C   0  0  0  0  0  0  0  0  0  0  0  0
   37.7080   22.6970   36.2950 C   0  0  0  0  0  0  0  0  0  0  0  0
   38.0300   24.0100   36.4790 C   0  0  0  0  0  0  0  0  0  0  0  0
   38.9560   24.9080   33.4290 H   0  0  0  0  0  0  0  0  0  0  0  0
   38.3890   22.5360   33.0240 H   0  0  0  0  0  0  0  0  0  0  0  0
   37.5810   21.1120   34.8900 H   0  0  0  0  0  0  0  0  0  0  0  0
   37.3540   22.0660   37.1030 H   0  0  0  0  0  0  0  0  0  0  0  0
   37.8720   24.5240   37.8350 C   0  0  0  0  0  0  0  0  0  0  0  0
   37.2120   25.3070   38.1870 H   0  0  0  0  0  0  0  0  0  0  0  0
   38.5280   24.0950   38.8440 O   0  0  0  0  0  0  0  0  0  0  0  0
  1  2  2  0  0  0  0
  2 19  1  0  0  0  0
  3  8  2  0  0  0  0
  3  4  1  0  0  0  0
  4  5  2  0  0  0  0
  5  6  1  0  0  0  0
  5 11  1  0  0  0  0
  7  1  1  0  0  0  0
  7  6  2  0  0  0  0
  8  7  1  0  0  0  0
  9  3  1  0  0  0  0
 10  4  1  0  0  0  0
 11 12  1  0  0  0  0
 11 15  2  0  0  0  0
 12 13  2  0  0  0  0
 13 14  1  0  0  0  0
 13 17  1  0  0  0  0
 14 18  1  0  0  0  0
 15 14  1  0  0  0  0
 16 12  1  0  0  0  0
 19 20  1  0  0  0  0
 21 19  1  0  0  0  0
 22 19  1  0  0  0  0
 22 27  1  0  0  0  0
 23 22  2  0  0  0  0
 24 23  1  0  0  0  0
 24 25  2  0  0  0  0
 25 26  1  0  0  0  0
 26 27  2  0  0  0  0
 26 31  1  0  0  0  0
 27 32  1  0  0  0  0
 28 23  1  0  0  0  0
 29 24  1  0  0  0  0
 30 25  1  0  0  0  0
 32 33  1  0  0  0  0
 32 34  2  0  0  0  0
M  END
>  <minimizedAffinity>
-5.50143957

$$$$

 OpenBabel03272509103D

 34 36  0  0  0  0  0  0  0  0999 V2000
   38.1860   26.9140   33.7290 C   0  0  0  0  0  3  0  0  0  0  0  0
   38.0370   25.7240   34.2180 C   0  0  0  0  0  3  0  0  0  0  0  0
   35.2580   28.1610   31.9300 C   0  0  0  0  0  0  0  0  0  0  0  0
   34.7660   29.1370   32.8150 C   0  0  0  0  0  0  0  0  0  0  0  0
   35.4630   29.3490   34.0300 C   0  0  0  0  0  0  0  0  0  0  0  0
   36.5860   28.5850   34.2760 N   0  0  0  0  0  0  0  0  0  0  0  0
   36.9920   27.6660   33.3720 C   0  0  0  0  0  0  0  0  0  0  0  0
   36.3360   27.4580   32.2170 N   0  0  0  0  0  0  0  0  0  0  0  0
   34.6810   28.0430   31.0140 H   0  0  0  0  0  0  0  0  0  0  0  0
   33.8890   29.7630   32.6650 H   0  0  0  0  0  0  0  0  0  0  0  0
   35.0560   30.3270   35.0230 C   0  0  0  0  0  0  0  0  0  0  0  0
   35.9460   31.1120   35.7090 C   0  0  0  0  0  0  0  0  0  0  0  0
   35.2190   31.9320   36.5770 C   0  0  0  0  0  0  0  0  0  0  0  0
   33.9170   31.6120   36.3840 N   0  0  0  0  0  0  0  0  0  0  0  0
   33.8400   30.6650   35.4650 N   0  0  0  0  0  0  0  0  0  0  0  0
   37.0380   31.1260   35.6220 H   0  0  0  0  0  0  0  0  0  0  0  0
   35.6280   32.6750   37.2660 H   0  0  0  0  0  0  0  0  0  0  0  0
   33.1740   32.1060   36.9350 H   0  0  0  0  0  0  0  0  0  0  0  0
   39.1010   24.8020   34.6410 C   0  0  0  0  0  0  0  0  0  0  0  0
   40.1070   25.1720   34.4480 H   0  0  0  0  0  0  0  0  0  0  0  0
   38.9910   23.8750   34.0080 H   0  0  0  0  0  0  0  0  0  0  0  0
   38.9530   24.3310   36.0380 C   0  0  0  0  0  0  0  0  0  0  0  0
   38.0160   24.8000   36.9240 C   0  0  0  0  0  0  0  0  0  0  0  0
   37.9450   24.3070   38.2090 C   0  0  0  0  0  0  0  0  0  0  0  0
   38.8170   23.3240   38.6530 C   0  0  0  0  0  0  0  0  0  0  0  0
   39.7570   22.8480   37.7790 C   0  0  0  0  0  0  0  0  0  0  0  0
   39.8040   23.3540   36.5130 C   0  0  0  0  0  0  0  0  0  0  0  0
   37.3370   25.5630   36.5820 H   0  0  0  0  0  0  0  0  0  0  0  0
   37.1980   24.6920   38.8910 H   0  0  0  0  0  0  0  0  0  0  0  0
   38.7710   22.9320   39.6560 H   0  0  0  0  0  0  0  0  0  0  0  0
   40.4400   22.0800   38.1240 H   0  0  0  0  0  0  0  0  0  0  0  0
   40.8320   22.8000   35.6380 C   0  0  0  0  0  0  0  0  0  0  0  0
   40.7210   22.0750   34.8420 H   0  0  0  0  0  0  0  0  0  0  0  0
   42.0690   23.1140   35.7000 O   0  0  0  0  0  0  0  0  0  0  0  0
  1  2  2  0  0  0  0
  2 19  1  0  0  0  0
  3  8  2  0  0  0  0
  3  4  1  0  0  0  0
  4  5  2  0  0  0  0
  5  6  1  0  0  0  0
  5 11  1  0  0  0  0
  7  1  1  0  0  0  0
  7  6  2  0  0  0  0
  8  7  1  0  0  0  0
  9  3  1  0  0  0  0
 10  4  1  0  0  0  0
 11 15  2  0  0  0  0
 11 12  1  0  0  0  0
 12 13  2  0  0  0  0
 13 17  1  0  0  0  0
 14 13  1  0  0  0  0
 14 18  1  0  0  0  0
 15 14  1  0  0  0  0
 16 12  1  0  0  0  0
 19 22  1  0  0  0  0
 20 19  1  0  0  0  0
 21 19  1  0  0  0  0
 22 27  2  0  0  0  0
 22 23  1  0  0  0  0
 23 24  2  0  0  0  0
 24 25  1  0  0  0  0
 24 29  1  0  0  0  0
 25 30  1  0  0  0  0
 26 31  1  0  0  0  0
 26 25  2  0  0  0  0
 27 26  1  0  0  0  0
 28 23  1  0  0  0  0
 32 34  2  0  0  0  0
 32 27  1  0  0  0  0
 33 32  1  0  0  0  0
M  END
>  <minimizedAffinity>
-5.45442438

$$$$

 OpenBabel03272509103D

 34 36  0  0  0  0  0  0  0  0999 V2000
   37.3710   27.5220   33.7930 C   0  0  0  0  0  3  0  0  0  0  0  0
   36.3300   28.0050   34.3950 C   0  0  0  0  0  3  0  0  0  0  0  0
   37.6960   23.9970   32.8830 C   0  0  0  0  0  0  0  0  0  0  0  0
   38.0540   23.4100   34.1100 C   0  0  0  0  0  0  0  0  0  0  0  0
   38.1770   24.2530   35.2420 C   0  0  0  0  0  0  0  0  0  0  0  0
   37.9400   25.6030   35.0760 N   0  0  0  0  0  0  0  0  0  0  0  0
   37.6000   26.0860   33.8610 C   0  0  0  0  0  0  0  0  0  0  0  0
   37.4810   25.2940   32.7810 N   0  0  0  0  0  0  0  0  0  0  0  0
   37.6170   23.3000   32.0500 H   0  0  0  0  0  0  0  0  0  0  0  0
   38.2510   22.3560   34.2900 H   0  0  0  0  0  0  0  0  0  0  0  0
   38.5400   23.7690   36.5620 C   0  0  0  0  0  0  0  0  0  0  0  0
   38.0150   24.2850   37.7190 C   0  0  0  0  0  0  0  0  0  0  0  0
   38.5770   23.5910   38.7950 C   0  0  0  0  0  0  0  0  0  0  0  0
   39.4210   22.6830   38.2480 N   0  0  0  0  0  0  0  0  0  0  0  0
   39.3860   22.8020   36.9330 N   0  0  0  0  0  0  0  0  0  0  0  0
   37.2840   25.0940   37.8240 H   0  0  0  0  0  0  0  0  0  0  0  0
   38.3720   23.7570   39.8550 H   0  0  0  0  0  0  0  0  0  0  0  0
   39.9640   22.0380   38.8720 H   0  0  0  0  0  0  0  0  0  0  0  0
   35.9160   29.4140   34.4510 C   0  0  0  0  0  0  0  0  0  0  0  0
   36.6030   30.0960   33.9510 H   0  0  0  0  0  0  0  0  0  0  0  0
   35.9330   29.7100   35.5400 H   0  0  0  0  0  0  0  0  0  0  0  0
   34.5170   29.6360   34.0160 C   0  0  0  0  0  0  0  0  0  0  0  0
   33.4120   29.4160   34.8000 C   0  0  0  0  0  0  0  0  0  0  0  0
   32.1420   29.6490   34.3180 C   0  0  0  0  0  0  0  0  0  0  0  0
   31.9360   30.1100   33.0270 C   0  0  0  0  0  0  0  0  0  0  0  0
   33.0290   30.3330   32.2340 C   0  0  0  0  0  0  0  0  0  0  0  0
   34.2750   30.0950   32.7370 C   0  0  0  0  0  0  0  0  0  0  0  0
   33.5710   29.0580   35.8030 H   0  0  0  0  0  0  0  0  0  0  0  0
   31.2860   29.4680   34.9540 H   0  0  0  0  0  0  0  0  0  0  0  0
   30.9460   30.2950   32.6390 H   0  0  0  0  0  0  0  0  0  0  0  0
   32.8690   30.6940   31.2240 H   0  0  0  0  0  0  0  0  0  0  0  0
   35.3910   30.3550   31.8360 C   0  0  0  0  0  0  0  0  0  0  0  0
   36.0400   31.2200   31.7970 H   0  0  0  0  0  0  0  0  0  0  0  0
   35.7740   29.5490   30.9200 O   0  0  0  0  0  0  0  0  0  0  0  0
  1  7  1  0  0  0  0
  1  2  2  0  0  0  0
  2 19  1  0  0  0  0
  3  4  1  0  0  0  0
  4 10  1  0  0  0  0
  4  5  2  0  0  0  0
  5 11  1  0  0  0  0
  6  5  1  0  0  0  0
  7  6  2  0  0  0  0
  8  3  2  0  0  0  0
  8  7  1  0  0  0  0
  9  3  1  0  0  0  0
 11 15  2  0  0  0  0
 11 12  1  0  0  0  0
 12 16  1  0  0  0  0
 12 13  2  0  0  0  0
 13 17  1  0  0  0  0
 14 13  1  0  0  0  0
 14 18  1  0  0  0  0
 15 14  1  0  0  0  0
 19 21  1  0  0  0  0
 20 19  1  0  0  0  0
 22 19  1  0  0  0  0
 22 23  1  0  0  0  0
 23 28  1  0  0  0  0
 24 23  2  0  0  0  0
 24 29  1  0  0  0  0
 25 24  1  0  0  0  0
 26 27  1  0  0  0  0
 26 25  2  0  0  0  0
 27 22  2  0  0  0  0
 30 25  1  0  0  0  0
 31 26  1  0  0  0  0
 32 27  1  0  0  0  0
 33 32  1  0  0  0  0
 34 32  2  0  0  0  0
M  END
>  <minimizedAffinity>
-5.42574692

$$$$

 OpenBabel03272509103D

 34 36  0  0  0  0  0  0  0  0999 V2000
   37.3320   27.3250   33.8650 C   0  0  0  0  0  3  0  0  0  0  0  0
   38.1100   27.4860   34.8880 C   0  0  0  0  0  3  0  0  0  0  0  0
   34.8210   29.3970   32.2020 C   0  0  0  0  0  0  0  0  0  0  0  0
   34.4350   30.2710   33.2350 C   0  0  0  0  0  0  0  0  0  0  0  0
   35.0560   30.1260   34.5000 C   0  0  0  0  0  0  0  0  0  0  0  0
   36.0050   29.1350   34.6470 N   0  0  0  0  0  0  0  0  0  0  0  0
   36.3190   28.3370   33.6040 C   0  0  0  0  0  0  0  0  0  0  0  0
   35.7340   28.4670   32.4000 N   0  0  0  0  0  0  0  0  0  0  0  0
   34.3100   29.5570   31.2550 H   0  0  0  0  0  0  0  0  0  0  0  0
   33.6940   31.0650   33.1670 H   0  0  0  0  0  0  0  0  0  0  0  0
   34.7430   30.9660   35.6430 C   0  0  0  0  0  0  0  0  0  0  0  0
   33.4640   31.1800   36.0870 C   0  0  0  0  0  0  0  0  0  0  0  0
   33.5280   32.0300   37.1950 C   0  0  0  0  0  0  0  0  0  0  0  0
   34.8440   32.2970   37.3790 N   0  0  0  0  0  0  0  0  0  0  0  0
   35.5440   31.6630   36.4560 N   0  0  0  0  0  0  0  0  0  0  0  0
   32.5320   30.7770   35.6750 H   0  0  0  0  0  0  0  0  0  0  0  0
   32.6840   32.3970   37.7840 H   0  0  0  0  0  0  0  0  0  0  0  0
   35.1400   32.9240   38.1660 H   0  0  0  0  0  0  0  0  0  0  0  0
   39.1900   26.5910   35.3280 C   0  0  0  0  0  0  0  0  0  0  0  0
   39.8250   27.0160   36.1040 H   0  0  0  0  0  0  0  0  0  0  0  0
   39.8610   26.4370   34.4350 H   0  0  0  0  0  0  0  0  0  0  0  0
   38.7190   25.2340   35.6920 C   0  0  0  0  0  0  0  0  0  0  0  0
   38.0160   24.9310   36.8310 C   0  0  0  0  0  0  0  0  0  0  0  0
   37.6150   23.6400   37.0960 C   0  0  0  0  0  0  0  0  0  0  0  0
   37.9080   22.6020   36.2240 C   0  0  0  0  0  0  0  0  0  0  0  0
   38.6100   22.8900   35.0840 C   0  0  0  0  0  0  0  0  0  0  0  0
   38.9940   24.1780   34.8480 C   0  0  0  0  0  0  0  0  0  0  0  0
   37.7870   25.7360   37.5100 H   0  0  0  0  0  0  0  0  0  0  0  0
   37.0620   23.4240   38.0000 H   0  0  0  0  0  0  0  0  0  0  0  0
   37.6000   21.5870   36.4200 H   0  0  0  0  0  0  0  0  0  0  0  0
   38.8400   22.0800   34.4010 H   0  0  0  0  0  0  0  0  0  0  0  0
   39.7380   24.4090   33.6140 C   0  0  0  0  0  0  0  0  0  0  0  0
   40.8050   24.5250   33.4820 H   0  0  0  0  0  0  0  0  0  0  0  0
   39.1960   24.5100   32.4610 O   0  0  0  0  0  0  0  0  0  0  0  0
  1  2  2  0  0  0  0
  2 19  1  0  0  0  0
  3  8  2  0  0  0  0
  3  4  1  0  0  0  0
  4  5  2  0  0  0  0
  5  6  1  0  0  0  0
  5 11  1  0  0  0  0
  7  1  1  0  0  0  0
  7  6  2  0  0  0  0
  8  7  1  0  0  0  0
  9  3  1  0  0  0  0
 10  4  1  0  0  0  0
 11 12  1  0  0  0  0
 11 15  2  0  0  0  0
 12 13  2  0  0  0  0
 13 14  1  0  0  0  0
 13 17  1  0  0  0  0
 14 18  1  0  0  0  0
 15 14  1  0  0  0  0
 16 12  1  0  0  0  0
 19 22  1  0  0  0  0
 19 20  1  0  0  0  0
 21 19  1  0  0  0  0
 22 23  1  0  0  0  0
 23 24  2  0  0  0  0
 23 28  1  0  0  0  0
 24 29  1  0  0  0  0
 25 30  1  0  0  0  0
 25 24  1  0  0  0  0
 26 25  2  0  0  0  0
 27 26  1  0  0  0  0
 27 22  2  0  0  0  0
 31 26  1  0  0  0  0
 32 27  1  0  0  0  0
 33 32  1  0  0  0  0
 34 32  2  0  0  0  0
M  END
>  <minimizedAffinity>
-5.40852833

$$$$

 OpenBabel03272509103D

 34 36  0  0  0  0  0  0  0  0999 V2000
   36.7160   27.8590   33.1980 C   0  0  0  0  0  3  0  0  0  0  0  0
   36.1130   28.3900   34.2140 C   0  0  0  0  0  3  0  0  0  0  0  0
   39.7170   25.7870   32.9450 C   0  0  0  0  0  0  0  0  0  0  0  0
   39.5540   24.9030   34.0270 C   0  0  0  0  0  0  0  0  0  0  0  0
   38.3970   25.0410   34.8330 C   0  0  0  0  0  0  0  0  0  0  0  0
   37.4960   26.0360   34.5100 N   0  0  0  0  0  0  0  0  0  0  0  0
   37.7280   26.8430   33.4530 C   0  0  0  0  0  0  0  0  0  0  0  0
   38.8240   26.7200   32.6830 N   0  0  0  0  0  0  0  0  0  0  0  0
   40.6240   25.6320   32.3630 H   0  0  0  0  0  0  0  0  0  0  0  0
   40.2340   24.1070   34.3200 H   0  0  0  0  0  0  0  0  0  0  0  0
   38.1150   24.1920   35.9760 C   0  0  0  0  0  0  0  0  0  0  0  0
   38.0630   24.6610   37.2630 C   0  0  0  0  0  0  0  0  0  0  0  0
   37.7710   23.5840   38.1050 C   0  0  0  0  0  0  0  0  0  0  0  0
   37.6580   22.5030   37.2950 N   0  0  0  0  0  0  0  0  0  0  0  0
   37.8640   22.8800   36.0460 N   0  0  0  0  0  0  0  0  0  0  0  0
   38.2160   25.6890   37.6120 H   0  0  0  0  0  0  0  0  0  0  0  0
   37.6600   23.6180   39.1910 H   0  0  0  0  0  0  0  0  0  0  0  0
   37.4370   21.5650   37.7100 H   0  0  0  0  0  0  0  0  0  0  0  0
   35.0680   29.4230   34.1810 C   0  0  0  0  0  0  0  0  0  0  0  0
   34.2090   29.2030   34.8130 H   0  0  0  0  0  0  0  0  0  0  0  0
   34.6710   29.4440   33.1250 H   0  0  0  0  0  0  0  0  0  0  0  0
   35.5840   30.7920   34.4220 C   0  0  0  0  0  0  0  0  0  0  0  0
   35.9190   31.2930   35.6550 C   0  0  0  0  0  0  0  0  0  0  0  0
   36.3930   32.5790   35.7940 C   0  0  0  0  0  0  0  0  0  0  0  0
   36.5460   33.4120   34.6950 C   0  0  0  0  0  0  0  0  0  0  0  0
   36.2140   32.9250   33.4590 C   0  0  0  0  0  0  0  0  0  0  0  0
   35.7480   31.6480   33.3520 C   0  0  0  0  0  0  0  0  0  0  0  0
   35.8010   30.6470   36.5090 H   0  0  0  0  0  0  0  0  0  0  0  0
   36.6500   32.9530   36.7760 H   0  0  0  0  0  0  0  0  0  0  0  0
   36.9150   34.4210   34.7910 H   0  0  0  0  0  0  0  0  0  0  0  0
   36.3330   33.5750   32.6000 H   0  0  0  0  0  0  0  0  0  0  0  0
   35.4160   31.1970   32.0050 C   0  0  0  0  0  0  0  0  0  0  0  0
   34.4380   31.0800   31.5550 H   0  0  0  0  0  0  0  0  0  0  0  0
   36.2830   30.8640   31.1280 O   0  0  0  0  0  0  0  0  0  0  0  0
  1  7  1  0  0  0  0
  1  2  2  0  0  0  0
  3  4  1  0  0  0  0
  4 10  1  0  0  0  0
  4  5  2  0  0  0  0
  5 11  1  0  0  0  0
  6  5  1  0  0  0  0
  7  6  2  0  0  0  0
  8  3  2  0  0  0  0
  8  7  1  0  0  0  0
  9  3  1  0  0  0  0
 11 15  2  0  0  0  0
 11 12  1  0  0  0  0
 12 16  1  0  0  0  0
 12 13  2  0  0  0  0
 13 17  1  0  0  0  0
 14 18  1  0  0  0  0
 14 13  1  0  0  0  0
 15 14  1  0  0  0  0
 19  2  1  0  0  0  0
 19 22  1  0  0  0  0
 19 20  1  0  0  0  0
 21 19  1  0  0  0  0
 22 23  1  0  0  0  0
 23 24  2  0  0  0  0
 23 28  1  0  0  0  0
 24 29  1  0  0  0  0
 25 30  1  0  0  0  0
 25 24  1  0  0  0  0
 26 25  2  0  0  0  0
 27 26  1  0  0  0  0
 27 22  2  0  0  0  0
 31 26  1  0  0  0  0
 32 27  1  0  0  0  0
 33 32  1  0  0  0  0
 34 32  2  0  0  0  0
M  END
>  <minimizedAffinity>
-5.36556911

$$$$
