REMARK  Name = 
REMARK  2 active torsions:
REMARK  status: ('A' for Active; 'I' for Inactive)
REMARK    1  A    between atoms: C_2  and  C_12
REMARK    2  A    between atoms: C_6  and  C_23
REMARK                            x       y       z     vdW  Elec       q    Type
REMARK                         _______ _______ _______ _____ _____    ______ ____
ROOT
ATOM      1  C   UNL     1      37.054  30.716  46.776  0.00  0.00    +0.000 A 
ATOM      2  C   UNL     1      37.700  31.141  47.918  0.00  0.00    +0.000 A 
ATOM      3  C   UNL     1      38.717  32.060  47.835  0.00  0.00    +0.000 A 
ATOM      4  C   UNL     1      39.062  32.537  46.577  0.00  0.00    +0.000 A 
ATOM      5  N   UNL     1      40.030  33.444  46.257  0.00  0.00    +0.000 N 
ATOM      6  C   UNL     1      39.989  33.586  44.921  0.00  0.00    +0.000 A 
ATOM      7  N   UNL     1      39.039  32.808  44.390  0.00  0.00    +0.000 NA
ATOM      8  C   UNL     1      38.440  32.139  45.395  0.00  0.00    +0.000 A 
ATOM      9  C   UNL     1      37.414  31.207  45.515  0.00  0.00    +0.000 A 
ATOM     10  H   UNL     1      36.244  29.997  46.743  0.00  0.00    +0.000 HD
ATOM     11  H   UNL     1      39.228  32.398  48.719  0.00  0.00    +0.000 HD
ATOM     12  H   UNL     1      40.673  33.929  46.923  0.00  0.00    +0.000 HD
ATOM     13  H   UNL     1      36.919  30.885  44.616  0.00  0.00    +0.000 HD
ENDROOT
BRANCH   2  16
ATOM     14  C   UNL     1      37.389  30.170  51.540  0.00  0.00    +0.000 A 
ATOM     15  C   UNL     1      37.900  30.759  50.385  0.00  0.00    +0.000 A 
ATOM     16  C   UNL     1      37.254  30.573  49.181  0.00  0.00    +0.000 A 
ATOM     17  N   UNL     1      36.126  29.811  49.168  0.00  0.00    +0.000 NA
ATOM     18  C   UNL     1      35.634  29.239  50.302  0.00  0.00    +0.000 A 
ATOM     19  N   UNL     1      36.262  29.419  51.475  0.00  0.00    +0.000 NA
ATOM     20  H   UNL     1      37.898  30.320  52.472  0.00  0.00    +0.000 HD
ATOM     21  H   UNL     1      38.783  31.352  50.413  0.00  0.00    +0.000 HD
ATOM     22  H   UNL     1      34.738  28.636  50.276  0.00  0.00    +0.000 HD
ENDBRANCH   2  16
BRANCH   6  23
ATOM     23  C   UNL     1      40.829  34.446  44.097  0.00  0.00    +0.000 C 
ATOM     24  H   UNL     1      41.260  35.380  44.411  0.00  0.00    +0.000 HD
ATOM     25  O   UNL     1      41.153  34.188  42.897  0.00  0.00    +0.000 OA
ENDBRANCH   6  23
TORSDOF 2
