
 OpenBabel03272506173D

 28 29  0  0  0  0  0  0  0  0999 V2000
   35.5360   30.2910   49.7980 C   0  0  0  0  0  0  0  0  0  0  0  0
   36.4640   31.2020   49.0180 C   0  0  0  0  0  0  0  0  0  0  0  0
   37.9130   30.8490   49.1790 C   0  0  0  0  0  0  0  0  0  0  0  0
   38.3380   30.7810   50.6210 C   0  0  0  0  0  0  0  0  0  0  0  0
   37.3280   30.1160   51.5050 C   0  0  0  0  0  0  0  0  0  0  0  0
   36.2730   29.3720   50.7120 C   0  0  0  0  0  0  0  0  0  0  0  0
   34.8770   30.9450   50.3840 H   0  0  0  0  0  0  0  0  0  0  0  0
   36.2630   31.0730   47.9140 H   0  0  0  0  0  0  0  0  0  0  0  0
   36.2760   32.2690   49.2440 H   0  0  0  0  0  0  0  0  0  0  0  0
   38.1270   29.9190   48.6150 H   0  0  0  0  0  0  0  0  0  0  0  0
   38.4900   31.6850   48.7190 H   0  0  0  0  0  0  0  0  0  0  0  0
   38.6130   31.7770   51.0050 H   0  0  0  0  0  0  0  0  0  0  0  0
   39.2630   30.1390   50.6460 H   0  0  0  0  0  0  0  0  0  0  0  0
   36.7670   30.9260   52.0400 H   0  0  0  0  0  0  0  0  0  0  0  0
   37.7620   29.4630   52.2650 H   0  0  0  0  0  0  0  0  0  0  0  0
   36.8330   28.5830   50.1390 H   0  0  0  0  0  0  0  0  0  0  0  0
   35.5990   28.8630   51.3950 H   0  0  0  0  0  0  0  0  0  0  0  0
   34.7530   29.4500   48.8430 C   0  0  0  0  0  0  0  0  0  0  0  0
   34.1480   30.1160   47.7620 C   0  0  0  0  0  0  0  0  0  0  0  0
   33.4060   29.3350   46.8740 C   0  0  0  0  0  0  0  0  0  0  0  0
   33.3080   27.9960   47.0970 N   0  0  0  0  0  0  0  0  0  0  0  0
   33.9030   27.3780   48.1500 C   0  0  0  0  0  0  0  0  0  0  0  0
   34.6180   28.1130   49.0090 N   0  0  0  0  0  0  0  0  0  0  0  0
   34.2010   31.1560   47.5560 H   0  0  0  0  0  0  0  0  0  0  0  0
   33.7660   26.3090   48.2430 H   0  0  0  0  0  0  0  0  0  0  0  0
   32.7550   29.9710   45.7340 C   0  0  0  0  0  0  0  0  0  0  0  0
   32.7560   29.5110   44.7780 H   0  0  0  0  0  0  0  0  0  0  0  0
   32.1760   31.0880   45.8640 O   0  0  0  0  0  0  0  0  0  0  0  0
  1  7  1  0  0  0  0
  1  6  1  0  0  0  0
  2  3  1  0  0  0  0
  2  9  1  0  0  0  0
  2  1  1  0  0  0  0
  3  4  1  0  0  0  0
  4 13  1  0  0  0  0
  4 12  1  0  0  0  0
  4  5  1  0  0  0  0
  5 14  1  0  0  0  0
  5 15  1  0  0  0  0
  6 17  1  0  0  0  0
  6  5  1  0  0  0  0
  8  2  1  0  0  0  0
 10  3  1  0  0  0  0
 11  3  1  0  0  0  0
 16  6  1  0  0  0  0
 18 23  1  0  0  0  0
 18  1  1  0  0  0  0
 19 18  2  0  0  0  0
 20 21  2  0  0  0  0
 20 19  1  0  0  0  0
 21 22  1  0  0  0  0
 22 25  1  0  0  0  0
 22 23  2  0  0  0  0
 24 19  1  0  0  0  0
 26 28  2  0  0  0  0
 26 20  1  0  0  0  0
 27 26  1  0  0  0  0
M  END
>  <minimizedAffinity>
-4.86652136

>  <minimizedRMSD>
0.228983283

$$$$
