
 OpenBabel03272507093D

 21 22  0  0  0  0  0  0  0  0999 V2000
   37.1200   30.2680   50.3250 C   0  0  0  0  0  0  0  0  0  0  0  0
   37.5100   30.1370   51.4970 O   0  0  0  0  0  0  0  0  0  0  0  0
   37.7970   31.0830   49.3310 C   0  0  0  0  0  0  0  0  0  0  0  0
   38.1080   32.3910   49.7050 C   0  0  0  0  0  0  0  0  0  0  0  0
   38.7570   33.2030   48.7790 C   0  0  0  0  0  0  0  0  0  0  0  0
   39.0550   32.6730   47.5530 N   0  0  0  0  0  0  0  0  0  0  0  0
   38.7400   31.4080   47.2250 C   0  0  0  0  0  0  0  0  0  0  0  0
   38.1150   30.6200   48.1100 N   0  0  0  0  0  0  0  0  0  0  0  0
   37.8500   32.7640   50.6930 H   0  0  0  0  0  0  0  0  0  0  0  0
   38.9950   34.2140   49.0740 H   0  0  0  0  0  0  0  0  0  0  0  0
   38.9940   31.0220   46.2370 H   0  0  0  0  0  0  0  0  0  0  0  0
   35.9210   29.5730   49.9020 C   0  0  0  0  0  0  0  0  0  0  0  0
   34.6860   29.8910   50.3880 C   0  0  0  0  0  0  0  0  0  0  0  0
   33.7500   29.0480   49.7900 C   0  0  0  0  0  0  0  0  0  0  0  0
   34.5140   28.2350   48.9390 C   0  0  0  0  0  0  0  0  0  0  0  0
   35.7590   28.5970   49.0560 O   0  0  0  0  0  0  0  0  0  0  0  0
   34.3500   30.6370   51.1090 H   0  0  0  0  0  0  0  0  0  0  0  0
   32.6930   28.9960   49.9160 H   0  0  0  0  0  0  0  0  0  0  0  0
   33.9830   27.1640   48.0690 C   0  0  0  0  0  0  0  0  0  0  0  0
   34.6700   26.6430   47.4160 H   0  0  0  0  0  0  0  0  0  0  0  0
   32.7400   26.9010   48.1270 O   0  0  0  0  0  0  0  0  0  0  0  0
  1  2  2  0  0  0  0
  3  4  1  0  0  0  0
  3  1  1  0  0  0  0
  4  9  1  0  0  0  0
  5 10  1  0  0  0  0
  5  4  2  0  0  0  0
  6  5  1  0  0  0  0
  7  6  2  0  0  0  0
  7  8  1  0  0  0  0
  8  3  2  0  0  0  0
 11  7  1  0  0  0  0
 12  1  1  0  0  0  0
 12 13  2  0  0  0  0
 13 17  1  0  0  0  0
 14 18  1  0  0  0  0
 14 13  1  0  0  0  0
 15 16  1  0  0  0  0
 15 14  2  0  0  0  0
 16 12  1  0  0  0  0
 19 21  2  0  0  0  0
 19 15  1  0  0  0  0
 20 19  1  0  0  0  0
M  END
>  <minimizedAffinity>
-4.73051023

>  <minimizedRMSD>
0.39333877

$$$$
