
 OpenBabel03272508233D

 43 45  0  0  1  0  0  0  0  0999 V2000
   37.9990   27.5140   35.5430 C   0  0  0  0  0  0  0  0  0  0  0  0
   38.3910   28.5460   35.2910 H   0  0  0  0  0  0  0  0  0  0  0  0
   37.6470   27.6330   36.5890 H   0  0  0  0  0  0  0  0  0  0  0  0
   37.6240   24.8760   36.3590 F   0  0  0  0  0  0  0  0  0  0  0  0
   38.8010   25.2830   35.7700 C   0  0  0  0  0  0  0  0  0  0  0  0
   39.0450   26.5900   35.3310 C   0  0  0  0  0  0  0  0  0  0  0  0
   40.2420   26.7790   34.7850 C   0  0  0  0  0  0  0  0  0  0  0  0
   41.1930   25.8130   34.6420 C   0  0  0  0  0  0  0  0  0  0  0  0
   40.9580   24.5090   35.0780 C   0  0  0  0  0  0  0  0  0  0  0  0
   39.7410   24.3110   35.6340 C   0  0  0  0  0  0  0  0  0  0  0  0
   40.4880   27.7910   34.4220 H   0  0  0  0  0  0  0  0  0  0  0  0
   42.1580   26.0640   34.1770 H   0  0  0  0  0  0  0  0  0  0  0  0
   41.9840   23.4740   34.9220 C   0  0  0  0  0  0  0  0  0  0  0  0
   41.5670   22.6940   34.2400 H   0  0  0  0  0  0  0  0  0  0  0  0
   42.2250   23.0360   35.9220 H   0  0  0  0  0  0  0  0  0  0  0  0
   42.8940   23.8850   34.4820 H   0  0  0  0  0  0  0  0  0  0  0  0
   39.5090   22.9680   36.0880 O   0  0  0  0  0  0  0  0  0  0  0  0
   39.6670   22.7860   37.4340 C   0  0  0  0  0  0  0  0  0  0  0  0
   40.8240   22.3650   37.7590 O   0  0  0  0  0  0  0  0  0  0  0  0
   38.8480   22.9550   38.5510 N   0  0  0  0  0  0  0  0  0  0  0  0
   38.5920   22.1930   39.2260 H   0  0  0  0  0  0  0  0  0  0  0  0
   38.2350   23.0820   39.3870 H   0  0  0  0  0  0  0  0  0  0  0  0
   36.7700   27.3650   34.7180 C   0  0  0  0  0  0  0  0  0  0  0  0
   36.6140   26.2860   34.5100 H   0  0  0  0  0  0  0  0  0  0  0  0
   35.9300   27.6580   35.4170 H   0  0  0  0  0  0  0  0  0  0  0  0
   36.0470   29.3040   33.4310 C   0  0  0  0  0  0  0  0  0  0  0  0
   36.7310   28.1140   33.4970 C   0  0  0  0  0  0  0  0  0  0  0  0
   37.3320   27.7480   32.3560 C   0  0  0  0  0  0  0  0  0  0  0  0
   37.2740   28.4770   31.2360 N   0  0  0  0  0  0  0  0  0  0  0  0
   36.6120   29.6410   31.1480 C   0  0  0  0  0  0  0  0  0  0  0  0
   35.9930   30.0600   32.2490 N   0  0  0  0  0  0  0  0  0  0  0  0
   37.9080   26.8240   32.2770 H   0  0  0  0  0  0  0  0  0  0  0  0
   36.5090   30.2950   30.2960 H   0  0  0  0  0  0  0  0  0  0  0  0
   35.2940   29.8760   34.6000 C   0  0  1  0  0  0  0  0  0  0  0  0
   35.8530   30.9180   35.3830 C   0  0  0  0  0  0  0  0  0  0  0  0
   34.8090   31.2930   34.3140 C   0  0  2  0  0  0  0  0  0  0  0  0
   34.5300   29.2260   35.0230 H   0  0  0  0  0  0  0  0  0  0  0  0
   36.9030   31.2340   35.2190 H   0  0  0  0  0  0  0  0  0  0  0  0
   35.5460   31.0020   36.4570 H   0  0  0  0  0  0  0  0  0  0  0  0
   35.2120   31.8410   33.4660 H   0  0  0  0  0  0  0  0  0  0  0  0
   33.5030   31.7290   34.8740 C   0  0  0  0  0  0  0  0  0  0  0  0
   33.4990   32.2870   35.8220 H   0  0  0  0  0  0  0  0  0  0  0  0
   32.5350   31.4030   34.1820 O   0  0  0  0  0  0  0  0  0  0  0  0
  1  3  1  0  0  0  0
  2  1  1  0  0  0  0
  5  4  1  0  0  0  0
  6  1  1  0  0  0  0
  6  5  2  0  0  0  0
  7  6  1  0  0  0  0
  8  7  2  0  0  0  0
  8  9  1  0  0  0  0
  9 10  2  0  0  0  0
 10  5  1  0  0  0  0
 10 17  1  0  0  0  0
 11  7  1  0  0  0  0
 12  8  1  0  0  0  0
 13  9  1  0  0  0  0
 13 15  1  0  0  0  0
 14 13  1  0  0  0  0
 16 13  1  0  0  0  0
 17 18  1  0  0  0  0
 18 19  2  0  0  0  0
 18 20  1  0  0  0  0
 20 21  1  0  0  0  0
 20 22  1  0  0  0  0
 23 25  1  0  0  0  0
 23  1  1  0  0  0  0
 24 23  1  0  0  0  0
 26 27  1  0  0  0  0
 26 34  1  0  0  0  0
 27 23  1  0  0  0  0
 28 27  2  0  0  0  0
 29 28  1  0  0  0  0
 30 29  2  0  0  0  0
 30 31  1  0  0  0  0
 31 26  2  0  0  0  0
 32 28  1  0  0  0  0
 33 30  1  0  0  0  0
 34 37  1  1  0  0  0
 34 35  1  0  0  0  0
 35 39  1  0  0  0  0
 36 40  1  6  0  0  0
 36 34  1  0  0  0  0
 36 41  1  0  0  0  0
 36 35  1  0  0  0  0
 38 35  1  0  0  0  0
 41 42  1  0  0  0  0
 43 41  2  0  0  0  0
M  END
>  <minimizedAffinity>
-5.87678194

$$$$

 OpenBabel03272508233D

 43 45  0  0  1  0  0  0  0  0999 V2000
   37.9040   27.4730   35.6230 C   0  0  0  0  0  0  0  0  0  0  0  0
   38.2870   28.5290   35.4800 H   0  0  0  0  0  0  0  0  0  0  0  0
   37.4960   27.4940   36.6540 H   0  0  0  0  0  0  0  0  0  0  0  0
   37.6090   24.8010   36.3580 F   0  0  0  0  0  0  0  0  0  0  0  0
   38.7760   25.2620   35.7880 C   0  0  0  0  0  0  0  0  0  0  0  0
   38.9810   26.5890   35.3880 C   0  0  0  0  0  0  0  0  0  0  0  0
   40.1730   26.8310   34.8550 C   0  0  0  0  0  0  0  0  0  0  0  0
   41.1550   25.9000   34.6890 C   0  0  0  0  0  0  0  0  0  0  0  0
   40.9590   24.5770   35.0850 C   0  0  0  0  0  0  0  0  0  0  0  0
   39.7470   24.3250   35.6280 C   0  0  0  0  0  0  0  0  0  0  0  0
   40.3880   27.8610   34.5230 H   0  0  0  0  0  0  0  0  0  0  0  0
   42.1140   26.1940   34.2370 H   0  0  0  0  0  0  0  0  0  0  0  0
   42.0180   23.5800   34.9040 C   0  0  0  0  0  0  0  0  0  0  0  0
   41.6290   22.8080   34.1980 H   0  0  0  0  0  0  0  0  0  0  0  0
   42.2680   23.1200   35.8920 H   0  0  0  0  0  0  0  0  0  0  0  0
   42.9160   24.0320   34.4810 H   0  0  0  0  0  0  0  0  0  0  0  0
   39.5550   22.9620   36.0420 O   0  0  0  0  0  0  0  0  0  0  0  0
   39.7270   22.7430   37.3810 C   0  0  0  0  0  0  0  0  0  0  0  0
   40.8590   22.2390   37.6730 O   0  0  0  0  0  0  0  0  0  0  0  0
   38.9430   22.9440   38.5170 N   0  0  0  0  0  0  0  0  0  0  0  0
   38.6500   22.1870   39.1830 H   0  0  0  0  0  0  0  0  0  0  0  0
   38.3560   23.0950   39.3680 H   0  0  0  0  0  0  0  0  0  0  0  0
   36.7240   27.3740   34.7220 C   0  0  0  0  0  0  0  0  0  0  0  0
   36.9300   26.6000   33.9550 H   0  0  0  0  0  0  0  0  0  0  0  0
   35.9120   26.9360   35.3780 H   0  0  0  0  0  0  0  0  0  0  0  0
   36.2650   28.6950   32.7270 C   0  0  0  0  0  0  0  0  0  0  0  0
   36.3010   28.5910   34.0960 C   0  0  0  0  0  0  0  0  0  0  0  0
   35.9160   29.6960   34.7520 C   0  0  0  0  0  0  0  0  0  0  0  0
   35.5260   30.8140   34.1300 N   0  0  0  0  0  0  0  0  0  0  0  0
   35.4830   30.9370   32.7950 C   0  0  0  0  0  0  0  0  0  0  0  0
   35.8540   29.8740   32.0850 N   0  0  0  0  0  0  0  0  0  0  0  0
   35.9000   29.7430   35.8420 H   0  0  0  0  0  0  0  0  0  0  0  0
   35.1860   31.7900   32.2060 H   0  0  0  0  0  0  0  0  0  0  0  0
   36.6750   27.5710   31.8150 C   0  0  1  0  0  0  0  0  0  0  0  0
   37.0680   27.8300   30.4760 C   0  0  0  0  0  0  0  0  0  0  0  0
   38.1720   27.6020   31.5260 C   0  0  2  0  0  0  0  0  0  0  0  0
   36.3000   26.5880   32.0910 H   0  0  0  0  0  0  0  0  0  0  0  0
   36.9570   28.8480   30.0510 H   0  0  0  0  0  0  0  0  0  0  0  0
   36.9110   27.0290   29.7100 H   0  0  0  0  0  0  0  0  0  0  0  0
   38.7500   28.4900   31.7700 H   0  0  0  0  0  0  0  0  0  0  0  0
   38.8970   26.3140   31.3690 C   0  0  0  0  0  0  0  0  0  0  0  0
   39.6890   26.2480   30.6080 H   0  0  0  0  0  0  0  0  0  0  0  0
   38.5130   25.4330   32.1420 O   0  0  0  0  0  0  0  0  0  0  0  0
  1  3  1  0  0  0  0
  2  1  1  0  0  0  0
  5  4  1  0  0  0  0
  6  1  1  0  0  0  0
  6  5  2  0  0  0  0
  7  6  1  0  0  0  0
  8  7  2  0  0  0  0
  8  9  1  0  0  0  0
  9 10  2  0  0  0  0
 10  5  1  0  0  0  0
 10 17  1  0  0  0  0
 11  7  1  0  0  0  0
 12  8  1  0  0  0  0
 13  9  1  0  0  0  0
 13 15  1  0  0  0  0
 14 13  1  0  0  0  0
 16 13  1  0  0  0  0
 17 18  1  0  0  0  0
 18 19  2  0  0  0  0
 18 20  1  0  0  0  0
 20 21  1  0  0  0  0
 20 22  1  0  0  0  0
 23 25  1  0  0  0  0
 23  1  1  0  0  0  0
 24 23  1  0  0  0  0
 26 27  1  0  0  0  0
 27 23  1  0  0  0  0
 27 28  2  0  0  0  0
 28 32  1  0  0  0  0
 29 28  1  0  0  0  0
 30 29  2  0  0  0  0
 31 26  2  0  0  0  0
 31 30  1  0  0  0  0
 33 30  1  0  0  0  0
 34 37  1  1  0  0  0
 34 26  1  0  0  0  0
 35 36  1  0  0  0  0
 35 34  1  0  0  0  0
 36 40  1  1  0  0  0
 36 34  1  0  0  0  0
 38 35  1  0  0  0  0
 39 35  1  0  0  0  0
 41 36  1  0  0  0  0
 41 43  2  0  0  0  0
 42 41  1  0  0  0  0
M  END
>  <minimizedAffinity>
-5.64520121

$$$$

 OpenBabel03272508233D

 43 45  0  0  1  0  0  0  0  0999 V2000
   35.8800   29.4810   33.9050 C   0  0  0  0  0  0  0  0  0  0  0  0
   36.9220   29.8140   33.6120 H   0  0  0  0  0  0  0  0  0  0  0  0
   35.3560   29.4200   32.9300 H   0  0  0  0  0  0  0  0  0  0  0  0
   33.1240   29.6020   34.3010 F   0  0  0  0  0  0  0  0  0  0  0  0
   33.9820   30.4360   34.9830 C   0  0  0  0  0  0  0  0  0  0  0  0
   35.3750   30.4170   34.8360 C   0  0  0  0  0  0  0  0  0  0  0  0
   36.0260   31.2980   35.5860 C   0  0  0  0  0  0  0  0  0  0  0  0
   35.4350   32.1740   36.4470 C   0  0  0  0  0  0  0  0  0  0  0  0
   34.0490   32.2000   36.5990 C   0  0  0  0  0  0  0  0  0  0  0  0
   33.3810   31.3050   35.8370 C   0  0  0  0  0  0  0  0  0  0  0  0
   37.1260   31.3270   35.5090 H   0  0  0  0  0  0  0  0  0  0  0  0
   36.0570   32.8700   37.0290 H   0  0  0  0  0  0  0  0  0  0  0  0
   33.4180   33.1450   37.5260 C   0  0  0  0  0  0  0  0  0  0  0  0
   32.9030   32.5430   38.3130 H   0  0  0  0  0  0  0  0  0  0  0  0
   32.6830   33.7760   36.9690 H   0  0  0  0  0  0  0  0  0  0  0  0
   34.1610   33.7900   37.9970 H   0  0  0  0  0  0  0  0  0  0  0  0
   31.9530   31.3430   35.9930 O   0  0  0  0  0  0  0  0  0  0  0  0
   31.4270   30.2870   36.6840 C   0  0  0  0  0  0  0  0  0  0  0  0
   30.3810   29.7970   36.1480 O   0  0  0  0  0  0  0  0  0  0  0  0
   31.7710   29.6100   37.8540 N   0  0  0  0  0  0  0  0  0  0  0  0
   31.1500   29.5170   38.6960 H   0  0  0  0  0  0  0  0  0  0  0  0
   32.0290   29.1030   38.7310 H   0  0  0  0  0  0  0  0  0  0  0  0
   36.0470   28.0760   34.3640 C   0  0  0  0  0  0  0  0  0  0  0  0
   35.5160   27.9550   35.3300 H   0  0  0  0  0  0  0  0  0  0  0  0
   35.4530   27.4690   33.6170 H   0  0  0  0  0  0  0  0  0  0  0  0
   38.0790   27.1700   33.3690 C   0  0  0  0  0  0  0  0  0  0  0  0
   37.3950   27.6030   34.4790 C   0  0  0  0  0  0  0  0  0  0  0  0
   38.0880   27.5410   35.6250 C   0  0  0  0  0  0  0  0  0  0  0  0
   39.3470   27.0940   35.6910 N   0  0  0  0  0  0  0  0  0  0  0  0
   40.0350   26.6670   34.6210 C   0  0  0  0  0  0  0  0  0  0  0  0
   39.4010   26.7030   33.4510 N   0  0  0  0  0  0  0  0  0  0  0  0
   37.6580   27.8550   36.5780 H   0  0  0  0  0  0  0  0  0  0  0  0
   41.0450   26.2920   34.5740 H   0  0  0  0  0  0  0  0  0  0  0  0
   37.4690   27.1460   31.9950 C   0  0  1  0  0  0  0  0  0  0  0  0
   38.0040   26.3120   30.9780 C   0  0  0  0  0  0  0  0  0  0  0  0
   36.7460   25.8300   31.7270 C   0  0  2  0  0  0  0  0  0  0  0  0
   36.8910   28.0280   31.7280 H   0  0  0  0  0  0  0  0  0  0  0  0
   38.9530   25.7660   31.1500 H   0  0  0  0  0  0  0  0  0  0  0  0
   37.8800   26.6270   29.9110 H   0  0  0  0  0  0  0  0  0  0  0  0
   36.9130   24.9790   32.3820 H   0  0  0  0  0  0  0  0  0  0  0  0
   35.5100   25.8480   30.9020 C   0  0  0  0  0  0  0  0  0  0  0  0
   35.2680   26.7630   30.3410 H   0  0  0  0  0  0  0  0  0  0  0  0
   34.8720   24.7930   30.9430 O   0  0  0  0  0  0  0  0  0  0  0  0
  1 23  1  0  0  0  0
  1  6  1  0  0  0  0
  2  1  1  0  0  0  0
  3  1  1  0  0  0  0
  4  5  1  0  0  0  0
  5 10  1  0  0  0  0
  6  5  2  0  0  0  0
  6  7  1  0  0  0  0
  7  8  2  0  0  0  0
  8  9  1  0  0  0  0
  8 12  1  0  0  0  0
  9 13  1  0  0  0  0
 10 17  1  0  0  0  0
 10  9  2  0  0  0  0
 11  7  1  0  0  0  0
 13 16  1  0  0  0  0
 13 14  1  0  0  0  0
 15 13  1  0  0  0  0
 17 18  1  0  0  0  0
 18 20  1  0  0  0  0
 19 18  2  0  0  0  0
 20 21  1  0  0  0  0
 20 22  1  0  0  0  0
 23 27  1  0  0  0  0
 23 24  1  0  0  0  0
 25 23  1  0  0  0  0
 26 31  2  0  0  0  0
 26 27  1  0  0  0  0
 27 28  2  0  0  0  0
 28 29  1  0  0  0  0
 28 32  1  0  0  0  0
 30 29  2  0  0  0  0
 31 30  1  0  0  0  0
 33 30  1  0  0  0  0
 34 37  1  6  0  0  0
 34 26  1  0  0  0  0
 35 38  1  0  0  0  0
 35 36  1  0  0  0  0
 35 34  1  0  0  0  0
 36 34  1  0  0  0  0
 36 40  1  1  0  0  0
 39 35  1  0  0  0  0
 41 43  2  0  0  0  0
 41 36  1  0  0  0  0
 42 41  1  0  0  0  0
M  END
>  <minimizedAffinity>
-5.55602503

$$$$

 OpenBabel03272508233D

 43 45  0  0  1  0  0  0  0  0999 V2000
   37.9580   27.5180   35.4720 C   0  0  0  0  0  0  0  0  0  0  0  0
   38.3060   28.5240   35.0870 H   0  0  0  0  0  0  0  0  0  0  0  0
   37.6890   27.7350   36.5260 H   0  0  0  0  0  0  0  0  0  0  0  0
   37.6030   24.8980   36.3540 F   0  0  0  0  0  0  0  0  0  0  0  0
   38.7710   25.2940   35.7400 C   0  0  0  0  0  0  0  0  0  0  0  0
   39.0040   26.5920   35.2660 C   0  0  0  0  0  0  0  0  0  0  0  0
   40.1930   26.7710   34.7010 C   0  0  0  0  0  0  0  0  0  0  0  0
   41.1450   25.8050   34.5670 C   0  0  0  0  0  0  0  0  0  0  0  0
   40.9200   24.5110   35.0360 C   0  0  0  0  0  0  0  0  0  0  0  0
   39.7110   24.3230   35.6130 C   0  0  0  0  0  0  0  0  0  0  0  0
   40.4310   27.7750   34.3110 H   0  0  0  0  0  0  0  0  0  0  0  0
   42.1030   26.0470   34.0830 H   0  0  0  0  0  0  0  0  0  0  0  0
   41.9470   23.4750   34.8900 C   0  0  0  0  0  0  0  0  0  0  0  0
   41.5230   22.6790   34.2330 H   0  0  0  0  0  0  0  0  0  0  0  0
   42.2020   23.0610   35.8960 H   0  0  0  0  0  0  0  0  0  0  0  0
   42.8500   23.8780   34.4280 H   0  0  0  0  0  0  0  0  0  0  0  0
   39.4900   22.9890   36.1020 O   0  0  0  0  0  0  0  0  0  0  0  0
   39.6370   22.8460   37.4540 C   0  0  0  0  0  0  0  0  0  0  0  0
   40.8170   22.5260   37.8070 O   0  0  0  0  0  0  0  0  0  0  0  0
   38.7850   22.9690   38.5520 N   0  0  0  0  0  0  0  0  0  0  0  0
   38.5790   22.2010   39.2380 H   0  0  0  0  0  0  0  0  0  0  0  0
   38.1480   23.0620   39.3750 H   0  0  0  0  0  0  0  0  0  0  0  0
   36.6700   27.2690   34.7690 C   0  0  0  0  0  0  0  0  0  0  0  0
   36.4690   26.1780   34.7780 H   0  0  0  0  0  0  0  0  0  0  0  0
   35.8910   27.7220   35.4520 H   0  0  0  0  0  0  0  0  0  0  0  0
   36.6600   26.9330   32.3560 C   0  0  0  0  0  0  0  0  0  0  0  0
   36.5680   27.7790   33.4340 C   0  0  0  0  0  0  0  0  0  0  0  0
   36.3810   29.0690   33.1210 C   0  0  0  0  0  0  0  0  0  0  0  0
   36.2890   29.5060   31.8600 N   0  0  0  0  0  0  0  0  0  0  0  0
   36.3750   28.6990   30.7920 C   0  0  0  0  0  0  0  0  0  0  0  0
   36.5620   27.4040   31.0360 N   0  0  0  0  0  0  0  0  0  0  0  0
   36.2920   29.8420   33.8860 H   0  0  0  0  0  0  0  0  0  0  0  0
   36.3140   28.9550   29.7460 H   0  0  0  0  0  0  0  0  0  0  0  0
   36.8870   25.4530   32.4990 C   0  0  1  0  0  0  0  0  0  0  0  0
   36.5150   24.5580   31.4630 C   0  0  0  0  0  0  0  0  0  0  0  0
   37.9970   24.9650   31.5740 C   0  0  2  0  0  0  0  0  0  0  0  0
   36.9770   25.0940   33.5220 H   0  0  0  0  0  0  0  0  0  0  0  0
   35.9390   24.9270   30.5910 H   0  0  0  0  0  0  0  0  0  0  0  0
   36.2470   23.5070   31.7370 H   0  0  0  0  0  0  0  0  0  0  0  0
   38.3490   25.6040   30.7690 H   0  0  0  0  0  0  0  0  0  0  0  0
   38.8890   23.8720   32.0420 C   0  0  0  0  0  0  0  0  0  0  0  0
   38.4610   23.0820   32.6770 H   0  0  0  0  0  0  0  0  0  0  0  0
   40.0530   23.9790   31.6480 O   0  0  0  0  0  0  0  0  0  0  0  0
  1  3  1  0  0  0  0
  2  1  1  0  0  0  0
  5  4  1  0  0  0  0
  6  1  1  0  0  0  0
  6  5  2  0  0  0  0
  7  6  1  0  0  0  0
  8  7  2  0  0  0  0
  8  9  1  0  0  0  0
  9 10  2  0  0  0  0
 10  5  1  0  0  0  0
 10 17  1  0  0  0  0
 11  7  1  0  0  0  0
 12  8  1  0  0  0  0
 13  9  1  0  0  0  0
 13 15  1  0  0  0  0
 14 13  1  0  0  0  0
 16 13  1  0  0  0  0
 17 18  1  0  0  0  0
 18 19  2  0  0  0  0
 18 20  1  0  0  0  0
 20 21  1  0  0  0  0
 20 22  1  0  0  0  0
 23 24  1  0  0  0  0
 23 25  1  0  0  0  0
 23  1  1  0  0  0  0
 26 34  1  0  0  0  0
 26 27  1  0  0  0  0
 27 23  1  0  0  0  0
 28 27  2  0  0  0  0
 28 32  1  0  0  0  0
 29 28  1  0  0  0  0
 30 31  1  0  0  0  0
 30 29  2  0  0  0  0
 31 26  2  0  0  0  0
 33 30  1  0  0  0  0
 34 37  1  1  0  0  0
 35 36  1  0  0  0  0
 35 39  1  0  0  0  0
 35 34  1  0  0  0  0
 36 40  1  6  0  0  0
 36 41  1  0  0  0  0
 36 34  1  0  0  0  0
 38 35  1  0  0  0  0
 41 42  1  0  0  0  0
 43 41  2  0  0  0  0
M  END
>  <minimizedAffinity>
-5.44440889

$$$$

 OpenBabel03272508233D

 43 45  0  0  1  0  0  0  0  0999 V2000
   37.1520   26.9610   35.1880 C   0  0  0  0  0  0  0  0  0  0  0  0
   37.1590   25.9410   34.6950 H   0  0  0  0  0  0  0  0  0  0  0  0
   36.5480   26.7890   36.1020 H   0  0  0  0  0  0  0  0  0  0  0  0
   37.0940   26.2410   32.4970 F   0  0  0  0  0  0  0  0  0  0  0  0
   36.6420   27.4730   32.9180 C   0  0  0  0  0  0  0  0  0  0  0  0
   36.6360   27.8880   34.2560 C   0  0  0  0  0  0  0  0  0  0  0  0
   36.1560   29.1100   34.4570 C   0  0  0  0  0  0  0  0  0  0  0  0
   35.6950   29.9360   33.4750 C   0  0  0  0  0  0  0  0  0  0  0  0
   35.6980   29.5300   32.1410 C   0  0  0  0  0  0  0  0  0  0  0  0
   36.1860   28.2860   31.9310 C   0  0  0  0  0  0  0  0  0  0  0  0
   36.1280   29.4880   35.4920 H   0  0  0  0  0  0  0  0  0  0  0  0
   35.3150   30.9350   33.7370 H   0  0  0  0  0  0  0  0  0  0  0  0
   35.2010   30.4220   31.0890 C   0  0  0  0  0  0  0  0  0  0  0  0
   34.3160   29.9250   30.6240 H   0  0  0  0  0  0  0  0  0  0  0  0
   36.0050   30.5840   30.3290 H   0  0  0  0  0  0  0  0  0  0  0  0
   34.8970   31.3850   31.5010 H   0  0  0  0  0  0  0  0  0  0  0  0
   36.1940   27.8780   30.5530 O   0  0  0  0  0  0  0  0  0  0  0  0
   37.3130   28.2440   29.8570 C   0  0  0  0  0  0  0  0  0  0  0  0
   38.3550   28.3430   30.5820 O   0  0  0  0  0  0  0  0  0  0  0  0
   37.5860   28.5370   28.5200 N   0  0  0  0  0  0  0  0  0  0  0  0
   37.9730   29.4510   28.1760 H   0  0  0  0  0  0  0  0  0  0  0  0
   37.7900   28.7570   27.5190 H   0  0  0  0  0  0  0  0  0  0  0  0
   38.5490   27.1620   35.6590 C   0  0  0  0  0  0  0  0  0  0  0  0
   38.7500   28.2520   35.7110 H   0  0  0  0  0  0  0  0  0  0  0  0
   38.5330   26.8100   36.7330 H   0  0  0  0  0  0  0  0  0  0  0  0
   39.5780   25.1390   34.7710 C   0  0  0  0  0  0  0  0  0  0  0  0
   39.5740   26.5070   34.9010 C   0  0  0  0  0  0  0  0  0  0  0  0
   40.5790   27.1330   34.2720 C   0  0  0  0  0  0  0  0  0  0  0  0
   41.5160   26.4850   33.5720 N   0  0  0  0  0  0  0  0  0  0  0  0
   41.5410   25.1510   33.4320 C   0  0  0  0  0  0  0  0  0  0  0  0
   40.5680   24.4700   34.0330 N   0  0  0  0  0  0  0  0  0  0  0  0
   40.6880   28.2190   34.2980 H   0  0  0  0  0  0  0  0  0  0  0  0
   42.2490   24.5430   32.8920 H   0  0  0  0  0  0  0  0  0  0  0  0
   38.5450   24.2570   35.4160 C   0  0  1  0  0  0  0  0  0  0  0  0
   38.7550   22.8590   35.5310 C   0  0  0  0  0  0  0  0  0  0  0  0
   39.0190   23.7370   36.7690 C   0  0  2  0  0  0  0  0  0  0  0  0
   37.5340   24.6590   35.4290 H   0  0  0  0  0  0  0  0  0  0  0  0
   39.6250   22.3850   35.0350 H   0  0  0  0  0  0  0  0  0  0  0  0
   37.8610   22.1860   35.5570 H   0  0  0  0  0  0  0  0  0  0  0  0
   40.0670   23.8230   37.0430 H   0  0  0  0  0  0  0  0  0  0  0  0
   38.0210   23.5610   37.8570 C   0  0  0  0  0  0  0  0  0  0  0  0
   36.9630   23.7680   37.6360 H   0  0  0  0  0  0  0  0  0  0  0  0
   38.5130   23.1880   38.9250 O   0  0  0  0  0  0  0  0  0  0  0  0
  1 23  1  0  0  0  0
  1  3  1  0  0  0  0
  2  1  1  0  0  0  0
  4  5  1  0  0  0  0
  5  6  1  0  0  0  0
  6  7  2  0  0  0  0
  6  1  1  0  0  0  0
  7 11  1  0  0  0  0
  8 12  1  0  0  0  0
  8  7  1  0  0  0  0
  9  8  2  0  0  0  0
 10  9  1  0  0  0  0
 10  5  2  0  0  0  0
 13 16  1  0  0  0  0
 13  9  1  0  0  0  0
 14 13  1  0  0  0  0
 15 13  1  0  0  0  0
 17 10  1  0  0  0  0
 18 17  1  0  0  0  0
 18 19  2  0  0  0  0
 20 18  1  0  0  0  0
 21 20  1  0  0  0  0
 22 20  1  0  0  0  0
 23 24  1  0  0  0  0
 23 25  1  0  0  0  0
 26 27  1  0  0  0  0
 26 34  1  0  0  0  0
 27 23  1  0  0  0  0
 28 32  1  0  0  0  0
 28 27  2  0  0  0  0
 29 28  1  0  0  0  0
 30 29  2  0  0  0  0
 30 31  1  0  0  0  0
 31 26  2  0  0  0  0
 33 30  1  0  0  0  0
 34 37  1  6  0  0  0
 34 35  1  0  0  0  0
 34 36  1  0  0  0  0
 35 39  1  0  0  0  0
 35 36  1  0  0  0  0
 36 40  1  1  0  0  0
 36 41  1  0  0  0  0
 38 35  1  0  0  0  0
 41 43  2  0  0  0  0
 42 41  1  0  0  0  0
M  END
>  <minimizedAffinity>
-5.4326129

$$$$

 OpenBabel03272508233D

 43 45  0  0  1  0  0  0  0  0999 V2000
   34.6280   29.0180   32.8000 C   0  0  0  0  0  0  0  0  0  0  0  0
   34.0360   29.5520   31.9950 H   0  0  0  0  0  0  0  0  0  0  0  0
   34.0380   28.0940   32.9680 H   0  0  0  0  0  0  0  0  0  0  0  0
   32.3110   30.1380   33.8700 F   0  0  0  0  0  0  0  0  0  0  0  0
   33.5540   30.4340   34.3860 C   0  0  0  0  0  0  0  0  0  0  0  0
   34.7520   29.8960   33.8990 C   0  0  0  0  0  0  0  0  0  0  0  0
   35.8440   30.3050   34.5360 C   0  0  0  0  0  0  0  0  0  0  0  0
   35.8540   31.1760   35.5840 C   0  0  0  0  0  0  0  0  0  0  0  0
   34.6650   31.7160   36.0740 C   0  0  0  0  0  0  0  0  0  0  0  0
   33.5500   31.3040   35.4300 C   0  0  0  0  0  0  0  0  0  0  0  0
   36.8160   29.9130   34.1930 H   0  0  0  0  0  0  0  0  0  0  0  0
   36.8100   31.4570   36.0500 H   0  0  0  0  0  0  0  0  0  0  0  0
   34.6820   32.6530   37.2020 C   0  0  0  0  0  0  0  0  0  0  0  0
   34.1210   32.1730   38.0400 H   0  0  0  0  0  0  0  0  0  0  0  0
   34.1900   33.6100   36.8970 H   0  0  0  0  0  0  0  0  0  0  0  0
   35.7020   32.8610   37.5270 H   0  0  0  0  0  0  0  0  0  0  0  0
   32.3300   31.8710   35.9350 O   0  0  0  0  0  0  0  0  0  0  0  0
   31.5970   31.0310   36.7270 C   0  0  0  0  0  0  0  0  0  0  0  0
   30.3390   31.2060   36.6280 O   0  0  0  0  0  0  0  0  0  0  0  0
   31.9060   30.0130   37.6290 N   0  0  0  0  0  0  0  0  0  0  0  0
   31.6320   30.0090   38.6430 H   0  0  0  0  0  0  0  0  0  0  0  0
   32.1370   29.2500   38.3050 H   0  0  0  0  0  0  0  0  0  0  0  0
   35.8790   28.5820   32.1220 C   0  0  0  0  0  0  0  0  0  0  0  0
   35.9140   29.0460   31.1150 H   0  0  0  0  0  0  0  0  0  0  0  0
   36.7020   29.0850   32.7120 H   0  0  0  0  0  0  0  0  0  0  0  0
   36.9920   26.5360   32.8370 C   0  0  0  0  0  0  0  0  0  0  0  0
   36.0850   27.1680   32.0220 C   0  0  0  0  0  0  0  0  0  0  0  0
   35.4430   26.3600   31.1650 C   0  0  0  0  0  0  0  0  0  0  0  0
   35.6630   25.0420   31.1020 N   0  0  0  0  0  0  0  0  0  0  0  0
   36.5430   24.4040   31.8890 C   0  0  0  0  0  0  0  0  0  0  0  0
   37.2140   25.1510   32.7630 N   0  0  0  0  0  0  0  0  0  0  0  0
   34.6970   26.7390   30.4630 H   0  0  0  0  0  0  0  0  0  0  0  0
   36.7870   23.3540   31.9130 H   0  0  0  0  0  0  0  0  0  0  0  0
   37.8230   27.2700   33.8520 C   0  0  1  0  0  0  0  0  0  0  0  0
   37.5990   27.0890   35.2420 C   0  0  0  0  0  0  0  0  0  0  0  0
   38.7680   26.3280   34.5900 C   0  0  2  0  0  0  0  0  0  0  0  0
   38.3010   28.1790   33.4920 H   0  0  0  0  0  0  0  0  0  0  0  0
   36.7260   26.5020   35.5920 H   0  0  0  0  0  0  0  0  0  0  0  0
   37.8540   27.9290   35.9370 H   0  0  0  0  0  0  0  0  0  0  0  0
   38.6210   25.2530   34.5210 H   0  0  0  0  0  0  0  0  0  0  0  0
   40.1100   26.8270   34.9880 C   0  0  0  0  0  0  0  0  0  0  0  0
   40.2090   27.8820   35.2870 H   0  0  0  0  0  0  0  0  0  0  0  0
   40.9940   25.9680   34.9360 O   0  0  0  0  0  0  0  0  0  0  0  0
  1  3  1  0  0  0  0
  1  6  1  0  0  0  0
  2  1  1  0  0  0  0
  4  5  1  0  0  0  0
  5 10  1  0  0  0  0
  6  5  2  0  0  0  0
  6  7  1  0  0  0  0
  7  8  2  0  0  0  0
  8 12  1  0  0  0  0
  8  9  1  0  0  0  0
  9 13  1  0  0  0  0
 10 17  1  0  0  0  0
 10  9  2  0  0  0  0
 11  7  1  0  0  0  0
 13 16  1  0  0  0  0
 13 14  1  0  0  0  0
 15 13  1  0  0  0  0
 17 18  1  0  0  0  0
 18 20  1  0  0  0  0
 19 18  2  0  0  0  0
 20 22  1  0  0  0  0
 20 21  1  0  0  0  0
 23 25  1  0  0  0  0
 23  1  1  0  0  0  0
 24 23  1  0  0  0  0
 26 34  1  0  0  0  0
 27 23  1  0  0  0  0
 27 26  2  0  0  0  0
 28 27  1  0  0  0  0
 29 28  2  0  0  0  0
 29 30  1  0  0  0  0
 30 33  1  0  0  0  0
 30 31  2  0  0  0  0
 31 26  1  0  0  0  0
 32 28  1  0  0  0  0
 34 37  1  6  0  0  0
 34 36  1  0  0  0  0
 34 35  1  0  0  0  0
 35 38  1  0  0  0  0
 35 39  1  0  0  0  0
 36 40  1  6  0  0  0
 36 41  1  0  0  0  0
 36 35  1  0  0  0  0
 41 42  1  0  0  0  0
 43 41  2  0  0  0  0
M  END
>  <minimizedAffinity>
-5.39442539

$$$$

 OpenBabel03272508233D

 43 45  0  0  1  0  0  0  0  0999 V2000
   39.1970   27.0090   34.2600 C   0  0  0  0  0  0  0  0  0  0  0  0
   39.7490   27.9440   34.5830 H   0  0  0  0  0  0  0  0  0  0  0  0
   38.1830   27.1610   34.6820 H   0  0  0  0  0  0  0  0  0  0  0  0
   37.7910   24.9650   35.5300 F   0  0  0  0  0  0  0  0  0  0  0  0
   39.1590   24.9050   35.3770 C   0  0  0  0  0  0  0  0  0  0  0  0
   39.9200   25.8940   34.7400 C   0  0  0  0  0  0  0  0  0  0  0  0
   41.2240   25.6470   34.6910 C   0  0  0  0  0  0  0  0  0  0  0  0
   41.8250   24.5370   35.2040 C   0  0  0  0  0  0  0  0  0  0  0  0
   41.0750   23.5480   35.8410 C   0  0  0  0  0  0  0  0  0  0  0  0
   39.7470   23.7950   35.8940 C   0  0  0  0  0  0  0  0  0  0  0  0
   41.8710   26.3930   34.2000 H   0  0  0  0  0  0  0  0  0  0  0  0
   42.9160   24.4180   35.1170 H   0  0  0  0  0  0  0  0  0  0  0  0
   41.7280   22.3560   36.3920 C   0  0  0  0  0  0  0  0  0  0  0  0
   41.3290   21.4740   35.8360 H   0  0  0  0  0  0  0  0  0  0  0  0
   41.4920   22.2740   37.4810 H   0  0  0  0  0  0  0  0  0  0  0  0
   42.8090   22.4030   36.2600 H   0  0  0  0  0  0  0  0  0  0  0  0
   38.9820   22.7760   36.5580 O   0  0  0  0  0  0  0  0  0  0  0  0
   38.5760   23.1010   37.8230 C   0  0  0  0  0  0  0  0  0  0  0  0
   37.3100   23.1350   37.9590 O   0  0  0  0  0  0  0  0  0  0  0  0
   39.2310   23.4090   39.0160 N   0  0  0  0  0  0  0  0  0  0  0  0
   39.1190   24.3100   39.5440 H   0  0  0  0  0  0  0  0  0  0  0  0
   39.7220   23.6400   39.9090 H   0  0  0  0  0  0  0  0  0  0  0  0
   39.0470   27.1500   32.7860 C   0  0  0  0  0  0  0  0  0  0  0  0
   39.0150   28.2300   32.5370 H   0  0  0  0  0  0  0  0  0  0  0  0
   40.0310   26.7760   32.3710 H   0  0  0  0  0  0  0  0  0  0  0  0
   36.7320   27.1240   32.0260 C   0  0  0  0  0  0  0  0  0  0  0  0
   37.9300   26.4740   32.1960 C   0  0  0  0  0  0  0  0  0  0  0  0
   37.9440   25.2020   31.7700 C   0  0  0  0  0  0  0  0  0  0  0  0
   36.8790   24.6060   31.2220 N   0  0  0  0  0  0  0  0  0  0  0  0
   35.6990   25.2220   31.0460 C   0  0  0  0  0  0  0  0  0  0  0  0
   35.6210   26.4880   31.4490 N   0  0  0  0  0  0  0  0  0  0  0  0
   38.8350   24.5770   31.8490 H   0  0  0  0  0  0  0  0  0  0  0  0
   34.7910   24.8290   30.6180 H   0  0  0  0  0  0  0  0  0  0  0  0
   36.5110   28.5480   32.4550 C   0  0  1  0  0  0  0  0  0  0  0  0
   36.1090   29.5340   31.5170 C   0  0  0  0  0  0  0  0  0  0  0  0
   35.0320   28.9180   32.4300 C   0  0  2  0  0  0  0  0  0  0  0  0
   37.0230   28.8430   33.3690 H   0  0  0  0  0  0  0  0  0  0  0  0
   36.0750   29.2920   30.4360 H   0  0  0  0  0  0  0  0  0  0  0  0
   36.3970   30.5990   31.7060 H   0  0  0  0  0  0  0  0  0  0  0  0
   34.3230   28.2730   31.9170 H   0  0  0  0  0  0  0  0  0  0  0  0
   34.5100   29.8510   33.4630 C   0  0  0  0  0  0  0  0  0  0  0  0
   34.3100   30.8930   33.1740 H   0  0  0  0  0  0  0  0  0  0  0  0
   34.3540   29.3280   34.5690 O   0  0  0  0  0  0  0  0  0  0  0  0
  1  2  1  0  0  0  0
  1  3  1  0  0  0  0
  1  6  1  0  0  0  0
  5  4  1  0  0  0  0
  5 10  1  0  0  0  0
  6  5  2  0  0  0  0
  7  6  1  0  0  0  0
  7  8  2  0  0  0  0
  8  9  1  0  0  0  0
  9 10  2  0  0  0  0
  9 13  1  0  0  0  0
 10 17  1  0  0  0  0
 11  7  1  0  0  0  0
 12  8  1  0  0  0  0
 13 15  1  0  0  0  0
 14 13  1  0  0  0  0
 16 13  1  0  0  0  0
 17 18  1  0  0  0  0
 18 19  2  0  0  0  0
 18 20  1  0  0  0  0
 20 21  1  0  0  0  0
 20 22  1  0  0  0  0
 23  1  1  0  0  0  0
 24 23  1  0  0  0  0
 25 23  1  0  0  0  0
 26 27  1  0  0  0  0
 26 34  1  0  0  0  0
 27 23  1  0  0  0  0
 28 32  1  0  0  0  0
 28 27  2  0  0  0  0
 29 28  1  0  0  0  0
 30 29  2  0  0  0  0
 30 31  1  0  0  0  0
 31 26  2  0  0  0  0
 33 30  1  0  0  0  0
 34 37  1  1  0  0  0
 35 39  1  0  0  0  0
 35 36  1  0  0  0  0
 35 34  1  0  0  0  0
 36 40  1  6  0  0  0
 36 34  1  0  0  0  0
 36 41  1  0  0  0  0
 38 35  1  0  0  0  0
 41 43  2  0  0  0  0
 42 41  1  0  0  0  0
M  END
>  <minimizedAffinity>
-5.30292606

$$$$

 OpenBabel03272508233D

 43 45  0  0  1  0  0  0  0  0999 V2000
   36.1460   25.1400   31.2570 C   0  0  0  0  0  0  0  0  0  0  0  0
   35.4260   25.0810   32.1280 H   0  0  0  0  0  0  0  0  0  0  0  0
   35.5140   25.5430   30.4390 H   0  0  0  0  0  0  0  0  0  0  0  0
   34.5840   22.9280   31.9120 F   0  0  0  0  0  0  0  0  0  0  0  0
   35.8610   22.7810   31.4150 C   0  0  0  0  0  0  0  0  0  0  0  0
   36.6900   23.8520   31.0580 C   0  0  0  0  0  0  0  0  0  0  0  0
   37.8840   23.5000   30.5950 C   0  0  0  0  0  0  0  0  0  0  0  0
   38.3180   22.2160   30.4580 C   0  0  0  0  0  0  0  0  0  0  0  0
   37.4990   21.1440   30.8110 C   0  0  0  0  0  0  0  0  0  0  0  0
   36.2820   21.4960   31.2840 C   0  0  0  0  0  0  0  0  0  0  0  0
   38.5780   24.3050   30.2990 H   0  0  0  0  0  0  0  0  0  0  0  0
   39.3270   22.0200   30.0640 H   0  0  0  0  0  0  0  0  0  0  0  0
   37.9710   19.7640   30.6620 C   0  0  0  0  0  0  0  0  0  0  0  0
   37.3050   19.2640   29.9190 H   0  0  0  0  0  0  0  0  0  0  0  0
   37.9160   19.2440   31.6510 H   0  0  0  0  0  0  0  0  0  0  0  0
   38.9990   19.7360   30.2980 H   0  0  0  0  0  0  0  0  0  0  0  0
   35.4460   20.3870   31.6540 O   0  0  0  0  0  0  0  0  0  0  0  0
   35.5260   20.0270   32.9710 C   0  0  0  0  0  0  0  0  0  0  0  0
   35.4370   18.7710   33.1630 O   0  0  0  0  0  0  0  0  0  0  0  0
   35.6850   20.7220   34.1710 N   0  0  0  0  0  0  0  0  0  0  0  0
   35.0040   20.6980   34.9690 H   0  0  0  0  0  0  0  0  0  0  0  0
   35.8040   21.2420   35.0690 H   0  0  0  0  0  0  0  0  0  0  0  0
   37.0860   26.2360   31.6180 C   0  0  0  0  0  0  0  0  0  0  0  0
   37.9980   25.7860   32.0630 H   0  0  0  0  0  0  0  0  0  0  0  0
   37.4170   26.6560   30.6210 H   0  0  0  0  0  0  0  0  0  0  0  0
   37.0390   27.3920   33.7620 C   0  0  0  0  0  0  0  0  0  0  0  0
   36.5680   27.2570   32.4790 C   0  0  0  0  0  0  0  0  0  0  0  0
   35.6200   28.1410   32.1330 C   0  0  0  0  0  0  0  0  0  0  0  0
   35.1640   29.0820   32.9670 N   0  0  0  0  0  0  0  0  0  0  0  0
   35.6090   29.2320   34.2240 C   0  0  0  0  0  0  0  0  0  0  0  0
   36.5520   28.3840   34.6280 N   0  0  0  0  0  0  0  0  0  0  0  0
   35.1650   28.1400   31.1420 H   0  0  0  0  0  0  0  0  0  0  0  0
   35.3050   29.9540   34.9650 H   0  0  0  0  0  0  0  0  0  0  0  0
   38.0900   26.4860   34.3430 C   0  0  1  0  0  0  0  0  0  0  0  0
   39.2110   27.0220   35.0280 C   0  0  0  0  0  0  0  0  0  0  0  0
   38.0400   26.4750   35.8670 C   0  0  2  0  0  0  0  0  0  0  0  0
   38.1480   25.4950   33.8960 H   0  0  0  0  0  0  0  0  0  0  0  0
   39.3880   28.1160   35.0340 H   0  0  0  0  0  0  0  0  0  0  0  0
   40.1650   26.4360   35.0300 H   0  0  0  0  0  0  0  0  0  0  0  0
   37.4710   27.2360   36.3940 H   0  0  0  0  0  0  0  0  0  0  0  0
   38.3500   25.2100   36.5830 C   0  0  0  0  0  0  0  0  0  0  0  0
   39.3560   25.0830   37.0110 H   0  0  0  0  0  0  0  0  0  0  0  0
   37.4070   24.4160   36.6170 O   0  0  0  0  0  0  0  0  0  0  0  0
  1 23  1  0  0  0  0
  1  2  1  0  0  0  0
  3  1  1  0  0  0  0
  5  4  1  0  0  0  0
  6  1  1  0  0  0  0
  6  5  2  0  0  0  0
  7  6  1  0  0  0  0
  8  7  2  0  0  0  0
  8  9  1  0  0  0  0
  9 10  2  0  0  0  0
 10  5  1  0  0  0  0
 10 17  1  0  0  0  0
 11  7  1  0  0  0  0
 12  8  1  0  0  0  0
 13  9  1  0  0  0  0
 13 15  1  0  0  0  0
 14 13  1  0  0  0  0
 16 13  1  0  0  0  0
 17 18  1  0  0  0  0
 18 19  2  0  0  0  0
 18 20  1  0  0  0  0
 20 21  1  0  0  0  0
 20 22  1  0  0  0  0
 23 24  1  0  0  0  0
 23 27  1  0  0  0  0
 25 23  1  0  0  0  0
 26 34  1  0  0  0  0
 26 31  1  0  0  0  0
 27 26  2  0  0  0  0
 28 27  1  0  0  0  0
 28 29  2  0  0  0  0
 29 30  1  0  0  0  0
 30 31  2  0  0  0  0
 30 33  1  0  0  0  0
 32 28  1  0  0  0  0
 34 37  1  6  0  0  0
 34 35  1  0  0  0  0
 34 36  1  0  0  0  0
 35 39  1  0  0  0  0
 35 38  1  0  0  0  0
 35 36  1  0  0  0  0
 36 40  1  1  0  0  0
 36 41  1  0  0  0  0
 41 43  2  0  0  0  0
 41 42  1  0  0  0  0
M  END
>  <minimizedAffinity>
-5.28386641

$$$$

 OpenBabel03272508233D

 43 45  0  0  1  0  0  0  0  0999 V2000
   36.8590   28.1090   34.7090 C   0  0  0  0  0  0  0  0  0  0  0  0
   37.7040   28.7990   34.4030 H   0  0  0  0  0  0  0  0  0  0  0  0
   36.6900   28.3800   35.7710 H   0  0  0  0  0  0  0  0  0  0  0  0
   38.1030   26.6930   36.7620 F   0  0  0  0  0  0  0  0  0  0  0  0
   37.9010   26.1260   35.5220 C   0  0  0  0  0  0  0  0  0  0  0  0
   37.2740   26.7820   34.4550 C   0  0  0  0  0  0  0  0  0  0  0  0
   37.1710   26.0620   33.3430 C   0  0  0  0  0  0  0  0  0  0  0  0
   37.6230   24.7850   33.1990 C   0  0  0  0  0  0  0  0  0  0  0  0
   38.2490   24.1250   34.2570 C   0  0  0  0  0  0  0  0  0  0  0  0
   38.3570   24.8540   35.3910 C   0  0  0  0  0  0  0  0  0  0  0  0
   36.6860   26.5310   32.4710 H   0  0  0  0  0  0  0  0  0  0  0  0
   37.4940   24.2660   32.2370 H   0  0  0  0  0  0  0  0  0  0  0  0
   38.7340   22.7510   34.0960 C   0  0  0  0  0  0  0  0  0  0  0  0
   38.1620   22.1120   34.8100 H   0  0  0  0  0  0  0  0  0  0  0  0
   39.8280   22.7140   34.3250 H   0  0  0  0  0  0  0  0  0  0  0  0
   38.5680   22.3910   33.0800 H   0  0  0  0  0  0  0  0  0  0  0  0
   39.0100   24.1710   36.4740 O   0  0  0  0  0  0  0  0  0  0  0  0
   38.1620   23.6230   37.3970 C   0  0  0  0  0  0  0  0  0  0  0  0
   38.2290   24.1770   38.5410 O   0  0  0  0  0  0  0  0  0  0  0  0
   37.2280   22.5870   37.3790 N   0  0  0  0  0  0  0  0  0  0  0  0
   37.2620   21.7410   37.9990 H   0  0  0  0  0  0  0  0  0  0  0  0
   36.5280   21.8110   37.3660 H   0  0  0  0  0  0  0  0  0  0  0  0
   35.6720   28.6130   33.9670 C   0  0  0  0  0  0  0  0  0  0  0  0
   35.2030   27.7610   33.4330 H   0  0  0  0  0  0  0  0  0  0  0  0
   34.9380   28.8960   34.7810 H   0  0  0  0  0  0  0  0  0  0  0  0
   35.6880   30.9950   33.4560 C   0  0  0  0  0  0  0  0  0  0  0  0
   35.9040   29.6970   33.0610 C   0  0  0  0  0  0  0  0  0  0  0  0
   36.3370   29.5600   31.7990 C   0  0  0  0  0  0  0  0  0  0  0  0
   36.5440   30.5990   30.9830 N   0  0  0  0  0  0  0  0  0  0  0  0
   36.3400   31.8750   31.3470 C   0  0  0  0  0  0  0  0  0  0  0  0
   35.9090   32.0780   32.5900 N   0  0  0  0  0  0  0  0  0  0  0  0
   36.5470   28.5810   31.3640 H   0  0  0  0  0  0  0  0  0  0  0  0
   36.4770   32.7720   30.7660 H   0  0  0  0  0  0  0  0  0  0  0  0
   35.1850   31.3550   34.8270 C   0  0  1  0  0  0  0  0  0  0  0  0
   36.0920   31.5960   35.8920 C   0  0  0  0  0  0  0  0  0  0  0  0
   35.4820   32.8120   35.1670 C   0  0  2  0  0  0  0  0  0  0  0  0
   34.1620   31.0530   35.0410 H   0  0  0  0  0  0  0  0  0  0  0  0
   37.1740   31.3990   35.7550 H   0  0  0  0  0  0  0  0  0  0  0  0
   35.7500   31.3950   36.9390 H   0  0  0  0  0  0  0  0  0  0  0  0
   36.1880   33.3740   34.5620 H   0  0  0  0  0  0  0  0  0  0  0  0
   34.4990   33.5700   35.9840 C   0  0  0  0  0  0  0  0  0  0  0  0
   33.8460   33.0100   36.6710 H   0  0  0  0  0  0  0  0  0  0  0  0
   34.5300   34.7880   35.7930 O   0  0  0  0  0  0  0  0  0  0  0  0
  1  3  1  0  0  0  0
  2  1  1  0  0  0  0
  5  4  1  0  0  0  0
  6  1  1  0  0  0  0
  6  5  2  0  0  0  0
  7  6  1  0  0  0  0
  8  7  2  0  0  0  0
  8  9  1  0  0  0  0
  9 10  2  0  0  0  0
 10  5  1  0  0  0  0
 10 17  1  0  0  0  0
 11  7  1  0  0  0  0
 12  8  1  0  0  0  0
 13  9  1  0  0  0  0
 13 15  1  0  0  0  0
 13 14  1  0  0  0  0
 16 13  1  0  0  0  0
 17 18  1  0  0  0  0
 18 19  2  0  0  0  0
 20 18  1  0  0  0  0
 20 21  1  0  0  0  0
 22 20  1  0  0  0  0
 23  1  1  0  0  0  0
 23 25  1  0  0  0  0
 24 23  1  0  0  0  0
 26 34  1  0  0  0  0
 27 26  1  0  0  0  0
 27 23  1  0  0  0  0
 28 27  2  0  0  0  0
 29 30  2  0  0  0  0
 29 28  1  0  0  0  0
 30 31  1  0  0  0  0
 31 26  2  0  0  0  0
 32 28  1  0  0  0  0
 33 30  1  0  0  0  0
 34 37  1  1  0  0  0
 34 36  1  0  0  0  0
 34 35  1  0  0  0  0
 35 39  1  0  0  0  0
 36 40  1  6  0  0  0
 36 35  1  0  0  0  0
 36 41  1  0  0  0  0
 38 35  1  0  0  0  0
 41 42  1  0  0  0  0
 43 41  2  0  0  0  0
M  END
>  <minimizedAffinity>
-5.26783609

$$$$
