
 OpenBabel03272510013D

 15 15  0  0  0  0  0  0  0  0999 V2000
   38.2990   31.2980   50.1000 C   0  0  0  0  0  0  0  0  0  0  0  0
   38.3880   31.5060   48.7210 C   0  0  0  0  0  0  0  0  0  0  0  0
   37.3740   30.9830   47.9300 C   0  0  0  0  0  0  0  0  0  0  0  0
   36.3630   30.3040   48.5400 N   0  0  0  0  0  0  0  0  0  0  0  0
   36.3180   30.1290   49.8680 C   0  0  0  0  0  0  0  0  0  0  0  0
   37.2790   30.6210   50.6480 N   0  0  0  0  0  0  0  0  0  0  0  0
   39.0740   31.6920   50.7530 H   0  0  0  0  0  0  0  0  0  0  0  0
   39.2160   32.0540   48.2740 H   0  0  0  0  0  0  0  0  0  0  0  0
   35.1550   29.3670   50.4060 C   0  0  0  0  0  0  0  0  0  0  0  0
   35.2800   29.1240   51.7670 F   0  0  0  0  0  0  0  0  0  0  0  0
   33.9700   30.0780   50.2560 F   0  0  0  0  0  0  0  0  0  0  0  0
   34.9450   28.1630   49.8010 F   0  0  0  0  0  0  0  0  0  0  0  0
   37.3950   31.1550   46.4890 C   0  0  0  0  0  0  0  0  0  0  0  0
   36.9670   30.3830   45.8650 H   0  0  0  0  0  0  0  0  0  0  0  0
   37.9030   32.1830   45.9820 O   0  0  0  0  0  0  0  0  0  0  0  0
  1  6  1  0  0  0  0
  1  7  1  0  0  0  0
  2  1  2  0  0  0  0
  3  4  2  0  0  0  0
  3  2  1  0  0  0  0
  4  5  1  0  0  0  0
  5  9  1  0  0  0  0
  5  6  2  0  0  0  0
  8  2  1  0  0  0  0
  9 10  1  0  0  0  0
 11  9  1  0  0  0  0
 12  9  1  0  0  0  0
 13  3  1  0  0  0  0
 14 13  1  0  0  0  0
 15 13  2  0  0  0  0
M  END
>  <minimizedAffinity>
-4.48765039

>  <minimizedRMSD>
0.457146555

$$$$
