
 OpenBabel03272510223D

 25 27  0  0  0  0  0  0  0  0999 V2000
   36.3090   30.2350   46.9320 C   0  0  0  0  0  0  0  0  0  0  0  0
   37.1140   30.7640   47.9190 C   0  0  0  0  0  0  0  0  0  0  0  0
   38.1100   31.6520   47.5940 C   0  0  0  0  0  0  0  0  0  0  0  0
   38.2700   31.9910   46.2570 C   0  0  0  0  0  0  0  0  0  0  0  0
   39.1830   32.8430   45.7080 N   0  0  0  0  0  0  0  0  0  0  0  0
   38.9500   32.8470   44.3840 C   0  0  0  0  0  0  0  0  0  0  0  0
   37.9320   32.0350   44.0800 N   0  0  0  0  0  0  0  0  0  0  0  0
   37.4830   31.4840   45.2250 C   0  0  0  0  0  0  0  0  0  0  0  0
   36.4830   30.5870   45.5880 C   0  0  0  0  0  0  0  0  0  0  0  0
   35.5010   29.5300   47.0910 H   0  0  0  0  0  0  0  0  0  0  0  0
   38.7440   32.0710   48.3560 H   0  0  0  0  0  0  0  0  0  0  0  0
   39.9170   33.3830   46.2200 H   0  0  0  0  0  0  0  0  0  0  0  0
   35.8630   30.1820   44.8080 H   0  0  0  0  0  0  0  0  0  0  0  0
   37.3740   30.0970   51.6120 C   0  0  0  0  0  0  0  0  0  0  0  0
   37.7190   30.5460   50.3390 C   0  0  0  0  0  0  0  0  0  0  0  0
   36.8540   30.3380   49.2850 C   0  0  0  0  0  0  0  0  0  0  0  0
   35.6810   29.6930   49.5340 N   0  0  0  0  0  0  0  0  0  0  0  0
   35.3530   29.2580   50.7820 C   0  0  0  0  0  0  0  0  0  0  0  0
   36.1940   29.4590   51.8090 N   0  0  0  0  0  0  0  0  0  0  0  0
   38.0530   30.2630   52.4260 H   0  0  0  0  0  0  0  0  0  0  0  0
   38.6400   31.0480   50.1620 H   0  0  0  0  0  0  0  0  0  0  0  0
   34.4190   28.7470   50.9640 H   0  0  0  0  0  0  0  0  0  0  0  0
   39.6630   33.6030   43.3630 C   0  0  0  0  0  0  0  0  0  0  0  0
   40.5680   34.1630   43.5220 H   0  0  0  0  0  0  0  0  0  0  0  0
   39.2950   33.6880   42.1510 O   0  0  0  0  0  0  0  0  0  0  0  0
  1 10  1  0  0  0  0
  1  2  1  0  0  0  0
  2 16  1  0  0  0  0
  3  2  2  0  0  0  0
  3 11  1  0  0  0  0
  4  3  1  0  0  0  0
  5 12  1  0  0  0  0
  5  4  1  0  0  0  0
  6  5  1  0  0  0  0
  7  6  2  0  0  0  0
  7  8  1  0  0  0  0
  8  9  1  0  0  0  0
  8  4  2  0  0  0  0
  9  1  2  0  0  0  0
 13  9  1  0  0  0  0
 14 19  1  0  0  0  0
 14 20  1  0  0  0  0
 15 14  2  0  0  0  0
 16 17  2  0  0  0  0
 16 15  1  0  0  0  0
 17 18  1  0  0  0  0
 18 22  1  0  0  0  0
 18 19  2  0  0  0  0
 21 15  1  0  0  0  0
 23 24  1  0  0  0  0
 23  6  1  0  0  0  0
 25 23  2  0  0  0  0
M  END
>  <minimizedAffinity>
-5.18219233

>  <minimizedRMSD>
1.07619059

$$$$
