
 OpenBabel03272501413D

 39 42  0  0  1  0  0  0  0  0999 V2000
   36.8930   25.8950   31.3530 C   0  0  1  0  0  0  0  0  0  0  0  0
   37.9820   26.1030   30.9970 H   0  0  0  0  0  0  0  0  0  0  0  0
   36.9890   27.7330   34.5550 C   0  0  0  0  0  0  0  0  0  0  0  0
   36.7680   27.3560   33.2500 C   0  0  0  0  0  0  0  0  0  0  0  0
   37.1030   26.0860   32.7640 C   0  0  0  0  0  0  0  0  0  0  0  0
   37.6410   25.2480   33.6100 N   0  0  0  0  0  0  0  0  0  0  0  0
   37.8580   25.6320   34.9080 C   0  0  0  0  0  0  0  0  0  0  0  0
   37.5430   26.8380   35.3690 N   0  0  0  0  0  0  0  0  0  0  0  0
   36.7340   28.7120   34.9360 H   0  0  0  0  0  0  0  0  0  0  0  0
   36.3110   28.1220   32.6170 H   0  0  0  0  0  0  0  0  0  0  0  0
   38.4560   24.7070   35.8700 C   0  0  0  0  0  0  0  0  0  0  0  0
   38.1200   24.4210   37.1780 C   0  0  0  0  0  0  0  0  0  0  0  0
   38.8330   23.5050   37.8590 C   0  0  0  0  0  0  0  0  0  0  0  0
   39.8860   22.8960   37.1780 C   0  0  0  0  0  0  0  0  0  0  0  0
   39.8440   23.6690   35.5100 S   0  0  0  0  0  0  0  0  0  0  0  0
   37.2790   24.9680   37.5870 H   0  0  0  0  0  0  0  0  0  0  0  0
   38.6500   23.2140   38.8820 H   0  0  0  0  0  0  0  0  0  0  0  0
   40.8500   21.9010   37.5460 C   0  0  0  0  0  0  0  0  0  0  0  0
   40.4380   21.1520   38.2010 H   0  0  0  0  0  0  0  0  0  0  0  0
   42.0210   21.9860   37.0990 O   0  0  0  0  0  0  0  0  0  0  0  0
   36.5860   24.4810   30.9060 C   0  0  2  0  0  0  0  0  0  0  0  0
   35.0810   24.2830   31.0910 C   0  0  0  0  0  0  0  0  0  0  0  0
   36.1000   23.5060   31.8510 C   0  0  1  0  0  0  0  0  0  0  0  0
   37.0140   24.2010   29.9290 H   0  0  0  0  0  0  0  0  0  0  0  0
   34.4490   24.9240   31.6970 H   0  0  0  0  0  0  0  0  0  0  0  0
   34.5770   23.8100   30.2280 H   0  0  0  0  0  0  0  0  0  0  0  0
   36.3500   23.7410   32.9080 H   0  0  0  0  0  0  0  0  0  0  0  0
   36.0250   22.0580   31.6260 C   0  0  0  0  0  0  0  0  0  0  0  0
   34.9860   21.3760   32.2020 C   0  0  0  0  0  0  0  0  0  0  0  0
   34.9230   20.0280   31.9540 C   0  0  0  0  0  0  0  0  0  0  0  0
   35.8330   19.3570   31.1750 C   0  0  0  0  0  0  0  0  0  0  0  0
   36.8770   20.0800   30.6040 C   0  0  0  0  0  0  0  0  0  0  0  0
   36.9480   21.4020   30.8400 N   0  0  0  0  0  0  0  0  0  0  0  0
   34.2600   21.8800   32.8170 H   0  0  0  0  0  0  0  0  0  0  0  0
   34.1080   19.4450   32.3950 H   0  0  0  0  0  0  0  0  0  0  0  0
   35.7740   18.3100   30.9880 H   0  0  0  0  0  0  0  0  0  0  0  0
   37.6200   19.6170   29.9850 H   0  0  0  0  0  0  0  0  0  0  0  0
   36.3530   26.8140   30.6040 O   0  0  0  0  0  0  0  0  0  0  0  0
   35.4140   26.7380   30.3540 H   0  0  0  0  0  0  0  0  0  0  0  0
  1  2  1  6  0  0  0
  1  5  1  0  0  0  0
  3  9  1  0  0  0  0
  3  8  1  0  0  0  0
  4  3  2  0  0  0  0
  5  4  1  0  0  0  0
  5  6  2  0  0  0  0
  6  7  1  0  0  0  0
  7  8  2  0  0  0  0
  7 11  1  0  0  0  0
 10  4  1  0  0  0  0
 11 12  2  0  0  0  0
 12 16  1  0  0  0  0
 12 13  1  0  0  0  0
 13 17  1  0  0  0  0
 14 18  1  0  0  0  0
 14 13  2  0  0  0  0
 15 11  1  0  0  0  0
 15 14  1  0  0  0  0
 18 19  1  0  0  0  0
 20 18  2  0  0  0  0
 21 24  1  6  0  0  0
 21 22  1  0  0  0  0
 21  1  1  0  0  0  0
 21 23  1  0  0  0  0
 22 25  1  0  0  0  0
 22 23  1  0  0  0  0
 23 27  1  1  0  0  0
 26 22  1  0  0  0  0
 28 23  1  0  0  0  0
 28 29  1  0  0  0  0
 29 34  1  0  0  0  0
 30 29  2  0  0  0  0
 30 35  1  0  0  0  0
 31 30  1  0  0  0  0
 32 33  1  0  0  0  0
 32 31  2  0  0  0  0
 33 28  2  0  0  0  0
 36 31  1  0  0  0  0
 37 32  1  0  0  0  0
 38  1  1  0  0  0  0
 39 38  1  0  0  0  0
M  END
>  <minimizedAffinity>
-6.1999383

$$$$

 OpenBabel03272501413D

 39 42  0  0  1  0  0  0  0  0999 V2000
   37.0590   26.7090   33.3270 C   0  0  1  0  0  0  0  0  0  0  0  0
   38.0660   26.9680   32.8030 H   0  0  0  0  0  0  0  0  0  0  0  0
   35.7870   29.6960   31.5670 C   0  0  0  0  0  0  0  0  0  0  0  0
   36.2910   28.4520   31.8710 C   0  0  0  0  0  0  0  0  0  0  0  0
   36.4220   27.9920   33.1870 C   0  0  0  0  0  0  0  0  0  0  0  0
   36.0360   28.7970   34.1410 N   0  0  0  0  0  0  0  0  0  0  0  0
   35.5340   30.0350   33.8290 C   0  0  0  0  0  0  0  0  0  0  0  0
   35.4130   30.4730   32.5800 N   0  0  0  0  0  0  0  0  0  0  0  0
   35.6850   30.0580   30.5530 H   0  0  0  0  0  0  0  0  0  0  0  0
   36.5860   27.8480   31.0080 H   0  0  0  0  0  0  0  0  0  0  0  0
   35.0930   30.9480   34.8810 C   0  0  0  0  0  0  0  0  0  0  0  0
   35.7760   31.4890   35.9530 C   0  0  0  0  0  0  0  0  0  0  0  0
   35.1360   32.3270   36.7900 C   0  0  0  0  0  0  0  0  0  0  0  0
   33.7980   32.5960   36.5080 C   0  0  0  0  0  0  0  0  0  0  0  0
   33.4550   31.6100   34.9940 S   0  0  0  0  0  0  0  0  0  0  0  0
   36.8130   31.1960   36.0570 H   0  0  0  0  0  0  0  0  0  0  0  0
   35.5810   32.7990   37.6520 H   0  0  0  0  0  0  0  0  0  0  0  0
   32.8040   33.4110   37.1410 C   0  0  0  0  0  0  0  0  0  0  0  0
   31.8020   33.1210   36.8720 H   0  0  0  0  0  0  0  0  0  0  0  0
   33.1670   34.3380   37.9070 O   0  0  0  0  0  0  0  0  0  0  0  0
   37.4320   26.2950   34.7360 C   0  0  2  0  0  0  0  0  0  0  0  0
   38.9280   26.5700   34.8890 C   0  0  0  0  0  0  0  0  0  0  0  0
   38.3450   25.2010   34.9570 C   0  0  1  0  0  0  0  0  0  0  0  0
   36.7660   26.6820   35.5240 H   0  0  0  0  0  0  0  0  0  0  0  0
   39.6080   26.7380   34.0600 H   0  0  0  0  0  0  0  0  0  0  0  0
   39.1990   27.0880   35.8280 H   0  0  0  0  0  0  0  0  0  0  0  0
   38.4120   24.4910   34.1050 H   0  0  0  0  0  0  0  0  0  0  0  0
   38.5770   24.5250   36.2380 C   0  0  0  0  0  0  0  0  0  0  0  0
   37.8050   24.9020   37.3060 C   0  0  0  0  0  0  0  0  0  0  0  0
   38.0210   24.2360   38.4860 C   0  0  0  0  0  0  0  0  0  0  0  0
   38.9540   23.2390   38.6340 C   0  0  0  0  0  0  0  0  0  0  0  0
   39.7220   22.8810   37.5290 C   0  0  0  0  0  0  0  0  0  0  0  0
   39.5180   23.5270   36.3680 N   0  0  0  0  0  0  0  0  0  0  0  0
   37.0670   25.6810   37.2150 H   0  0  0  0  0  0  0  0  0  0  0  0
   37.4250   24.5050   39.3640 H   0  0  0  0  0  0  0  0  0  0  0  0
   39.1130   22.7280   39.5560 H   0  0  0  0  0  0  0  0  0  0  0  0
   40.4660   22.1100   37.5780 H   0  0  0  0  0  0  0  0  0  0  0  0
   36.7780   25.7080   32.5410 O   0  0  0  0  0  0  0  0  0  0  0  0
   36.1790   25.0060   32.8540 H   0  0  0  0  0  0  0  0  0  0  0  0
  1  2  1  6  0  0  0
  1 21  1  0  0  0  0
  3  4  2  0  0  0  0
  3  8  1  0  0  0  0
  4  5  1  0  0  0  0
  5  1  1  0  0  0  0
  5  6  2  0  0  0  0
  7  6  1  0  0  0  0
  7 11  1  0  0  0  0
  8  7  2  0  0  0  0
  9  3  1  0  0  0  0
 10  4  1  0  0  0  0
 11 15  1  0  0  0  0
 11 12  2  0  0  0  0
 12 16  1  0  0  0  0
 12 13  1  0  0  0  0
 13 17  1  0  0  0  0
 14 13  2  0  0  0  0
 14 18  1  0  0  0  0
 15 14  1  0  0  0  0
 18 20  2  0  0  0  0
 19 18  1  0  0  0  0
 21 22  1  0  0  0  0
 21 23  1  0  0  0  0
 21 24  1  1  0  0  0
 22 23  1  0  0  0  0
 22 26  1  0  0  0  0
 23 27  1  6  0  0  0
 23 28  1  0  0  0  0
 25 22  1  0  0  0  0
 28 33  2  0  0  0  0
 28 29  1  0  0  0  0
 29 30  2  0  0  0  0
 30 31  1  0  0  0  0
 30 35  1  0  0  0  0
 31 36  1  0  0  0  0
 32 37  1  0  0  0  0
 32 31  2  0  0  0  0
 33 32  1  0  0  0  0
 34 29  1  0  0  0  0
 38 39  1  0  0  0  0
 38  1  1  0  0  0  0
M  END
>  <minimizedAffinity>
-5.93350697

$$$$

 OpenBabel03272501413D

 39 42  0  0  1  0  0  0  0  0999 V2000
   36.2200   28.4750   32.7720 C   0  0  1  0  0  0  0  0  0  0  0  0
   35.3810   28.1960   32.0140 H   0  0  0  0  0  0  0  0  0  0  0  0
   37.3140   25.1250   31.6690 C   0  0  0  0  0  0  0  0  0  0  0  0
   36.8500   26.4190   31.7100 C   0  0  0  0  0  0  0  0  0  0  0  0
   36.8280   27.1760   32.8880 C   0  0  0  0  0  0  0  0  0  0  0  0
   37.2760   26.6010   33.9730 N   0  0  0  0  0  0  0  0  0  0  0  0
   37.7360   25.3100   33.9230 C   0  0  0  0  0  0  0  0  0  0  0  0
   37.7550   24.5910   32.8050 N   0  0  0  0  0  0  0  0  0  0  0  0
   37.3320   24.5350   30.7630 H   0  0  0  0  0  0  0  0  0  0  0  0
   36.4980   26.8170   30.7540 H   0  0  0  0  0  0  0  0  0  0  0  0
   38.2450   24.6520   35.1250 C   0  0  0  0  0  0  0  0  0  0  0  0
   37.8320   24.7290   36.4410 C   0  0  0  0  0  0  0  0  0  0  0  0
   38.4710   24.0030   37.3770 C   0  0  0  0  0  0  0  0  0  0  0  0
   39.5290   23.2070   36.9420 C   0  0  0  0  0  0  0  0  0  0  0  0
   39.6030   23.5170   35.1300 S   0  0  0  0  0  0  0  0  0  0  0  0
   36.9960   25.3870   36.6430 H   0  0  0  0  0  0  0  0  0  0  0  0
   38.2240   23.9950   38.4280 H   0  0  0  0  0  0  0  0  0  0  0  0
   40.4300   22.3170   37.6120 C   0  0  0  0  0  0  0  0  0  0  0  0
   40.4790   22.5030   38.6720 H   0  0  0  0  0  0  0  0  0  0  0  0
   41.0470   21.4510   36.9440 O   0  0  0  0  0  0  0  0  0  0  0  0
   35.5000   28.9920   33.9990 C   0  0  2  0  0  0  0  0  0  0  0  0
   34.0690   29.3110   33.5630 C   0  0  0  0  0  0  0  0  0  0  0  0
   35.0190   30.3510   34.0450 C   0  0  1  0  0  0  0  0  0  0  0  0
   35.6250   28.3750   34.9040 H   0  0  0  0  0  0  0  0  0  0  0  0
   33.7540   29.4210   32.5310 H   0  0  0  0  0  0  0  0  0  0  0  0
   33.2920   28.9310   34.2520 H   0  0  0  0  0  0  0  0  0  0  0  0
   35.5430   31.0380   33.3460 H   0  0  0  0  0  0  0  0  0  0  0  0
   34.5600   31.0570   35.2460 C   0  0  0  0  0  0  0  0  0  0  0  0
   35.4080   31.9740   35.8100 C   0  0  0  0  0  0  0  0  0  0  0  0
   34.9450   32.6400   36.9160 C   0  0  0  0  0  0  0  0  0  0  0  0
   33.7040   32.4290   37.4640 C   0  0  0  0  0  0  0  0  0  0  0  0
   32.8670   31.4910   36.8680 C   0  0  0  0  0  0  0  0  0  0  0  0
   33.3110   30.8320   35.7820 N   0  0  0  0  0  0  0  0  0  0  0  0
   36.3860   32.1570   35.3990 H   0  0  0  0  0  0  0  0  0  0  0  0
   35.5910   33.3820   37.3980 H   0  0  0  0  0  0  0  0  0  0  0  0
   33.3550   32.9530   38.3240 H   0  0  0  0  0  0  0  0  0  0  0  0
   31.8860   31.2790   37.2450 H   0  0  0  0  0  0  0  0  0  0  0  0
   36.7340   29.4140   32.0280 O   0  0  0  0  0  0  0  0  0  0  0  0
   37.2510   30.1270   32.4450 H   0  0  0  0  0  0  0  0  0  0  0  0
  1  2  1  6  0  0  0
  1  5  1  0  0  0  0
  1 21  1  0  0  0  0
  3  4  2  0  0  0  0
  3  8  1  0  0  0  0
  4  5  1  0  0  0  0
  5  6  2  0  0  0  0
  7  6  1  0  0  0  0
  7 11  1  0  0  0  0
  8  7  2  0  0  0  0
  9  3  1  0  0  0  0
 10  4  1  0  0  0  0
 11 15  1  0  0  0  0
 11 12  2  0  0  0  0
 12 16  1  0  0  0  0
 12 13  1  0  0  0  0
 13 17  1  0  0  0  0
 14 13  2  0  0  0  0
 14 18  1  0  0  0  0
 15 14  1  0  0  0  0
 18 19  1  0  0  0  0
 20 18  2  0  0  0  0
 21 23  1  0  0  0  0
 21 24  1  1  0  0  0
 22 21  1  0  0  0  0
 22 23  1  0  0  0  0
 22 26  1  0  0  0  0
 23 27  1  6  0  0  0
 23 28  1  0  0  0  0
 25 22  1  0  0  0  0
 28 33  2  0  0  0  0
 28 29  1  0  0  0  0
 29 30  2  0  0  0  0
 30 35  1  0  0  0  0
 30 31  1  0  0  0  0
 31 36  1  0  0  0  0
 32 37  1  0  0  0  0
 32 31  2  0  0  0  0
 33 32  1  0  0  0  0
 34 29  1  0  0  0  0
 38 39  1  0  0  0  0
 38  1  1  0  0  0  0
M  END
>  <minimizedAffinity>
-5.56471205

$$$$

 OpenBabel03272501413D

 39 42  0  0  1  0  0  0  0  0999 V2000
   38.1370   27.1640   32.9660 C   0  0  1  0  0  0  0  0  0  0  0  0
   38.9240   28.0070   33.1290 H   0  0  0  0  0  0  0  0  0  0  0  0
   36.3590   29.5430   30.7710 C   0  0  0  0  0  0  0  0  0  0  0  0
   37.2610   28.6480   31.2980 C   0  0  0  0  0  0  0  0  0  0  0  0
   37.0480   27.9890   32.5150 C   0  0  0  0  0  0  0  0  0  0  0  0
   35.9350   28.2540   33.1480 N   0  0  0  0  0  0  0  0  0  0  0  0
   35.0410   29.1470   32.6150 C   0  0  0  0  0  0  0  0  0  0  0  0
   35.2460   29.7740   31.4610 N   0  0  0  0  0  0  0  0  0  0  0  0
   36.5190   30.0560   29.8320 H   0  0  0  0  0  0  0  0  0  0  0  0
   38.1620   28.4880   30.6980 H   0  0  0  0  0  0  0  0  0  0  0  0
   33.7900   29.4530   33.3060 C   0  0  0  0  0  0  0  0  0  0  0  0
   32.4780   29.2020   32.9530 C   0  0  0  0  0  0  0  0  0  0  0  0
   31.4870   29.5810   33.7820 C   0  0  0  0  0  0  0  0  0  0  0  0
   31.8650   30.2150   34.9650 C   0  0  0  0  0  0  0  0  0  0  0  0
   33.7020   30.2650   34.8760 S   0  0  0  0  0  0  0  0  0  0  0  0
   32.3240   28.7020   32.0060 H   0  0  0  0  0  0  0  0  0  0  0  0
   30.4350   29.4300   33.5970 H   0  0  0  0  0  0  0  0  0  0  0  0
   31.1290   30.7510   36.0710 C   0  0  0  0  0  0  0  0  0  0  0  0
   31.3190   31.8020   36.2200 H   0  0  0  0  0  0  0  0  0  0  0  0
   30.3740   29.9950   36.7310 O   0  0  0  0  0  0  0  0  0  0  0  0
   37.9650   26.5040   34.3190 C   0  0  2  0  0  0  0  0  0  0  0  0
   38.9580   27.1820   35.2630 C   0  0  0  0  0  0  0  0  0  0  0  0
   39.0410   25.7410   34.8990 C   0  0  1  0  0  0  0  0  0  0  0  0
   36.9210   26.4180   34.6620 H   0  0  0  0  0  0  0  0  0  0  0  0
   39.7990   27.7860   34.9370 H   0  0  0  0  0  0  0  0  0  0  0  0
   38.5280   27.4670   36.2410 H   0  0  0  0  0  0  0  0  0  0  0  0
   39.7770   25.3630   34.1580 H   0  0  0  0  0  0  0  0  0  0  0  0
   38.9250   24.8360   36.0490 C   0  0  0  0  0  0  0  0  0  0  0  0
   39.7450   23.7380   36.0810 C   0  0  0  0  0  0  0  0  0  0  0  0
   39.6370   22.9230   37.1790 C   0  0  0  0  0  0  0  0  0  0  0  0
   38.7650   23.1560   38.2140 C   0  0  0  0  0  0  0  0  0  0  0  0
   37.9460   24.2800   38.1500 C   0  0  0  0  0  0  0  0  0  0  0  0
   38.0440   25.0860   37.0780 N   0  0  0  0  0  0  0  0  0  0  0  0
   40.4370   23.5340   35.2820 H   0  0  0  0  0  0  0  0  0  0  0  0
   40.2740   22.0350   37.2460 H   0  0  0  0  0  0  0  0  0  0  0  0
   38.6900   22.5160   39.0630 H   0  0  0  0  0  0  0  0  0  0  0  0
   37.2450   24.5200   38.9250 H   0  0  0  0  0  0  0  0  0  0  0  0
   38.8760   26.4810   32.1370 O   0  0  0  0  0  0  0  0  0  0  0  0
   38.7150   25.5260   32.0260 H   0  0  0  0  0  0  0  0  0  0  0  0
  1  2  1  1  0  0  0
  1 21  1  0  0  0  0
  3  4  2  0  0  0  0
  3  8  1  0  0  0  0
  4  5  1  0  0  0  0
  5  1  1  0  0  0  0
  5  6  2  0  0  0  0
  7  6  1  0  0  0  0
  7 11  1  0  0  0  0
  8  7  2  0  0  0  0
  9  3  1  0  0  0  0
 10  4  1  0  0  0  0
 11 15  1  0  0  0  0
 12 11  2  0  0  0  0
 12 13  1  0  0  0  0
 13 14  2  0  0  0  0
 14 18  1  0  0  0  0
 15 14  1  0  0  0  0
 16 12  1  0  0  0  0
 17 13  1  0  0  0  0
 18 19  1  0  0  0  0
 18 20  2  0  0  0  0
 21 24  1  1  0  0  0
 21 23  1  0  0  0  0
 21 22  1  0  0  0  0
 22 26  1  0  0  0  0
 23 27  1  6  0  0  0
 23 22  1  0  0  0  0
 23 28  1  0  0  0  0
 25 22  1  0  0  0  0
 28 29  2  0  0  0  0
 28 33  1  0  0  0  0
 29 30  1  0  0  0  0
 30 35  1  0  0  0  0
 30 31  2  0  0  0  0
 31 36  1  0  0  0  0
 32 31  1  0  0  0  0
 32 37  1  0  0  0  0
 33 32  2  0  0  0  0
 34 29  1  0  0  0  0
 38  1  1  0  0  0  0
 39 38  1  0  0  0  0
M  END
>  <minimizedAffinity>
-5.45741987

$$$$

 OpenBabel03272501413D

 39 42  0  0  1  0  0  0  0  0999 V2000
   36.7870   26.7710   30.9460 C   0  0  1  0  0  0  0  0  0  0  0  0
   37.8550   27.0510   30.5750 H   0  0  0  0  0  0  0  0  0  0  0  0
   37.9740   27.0410   34.4330 C   0  0  0  0  0  0  0  0  0  0  0  0
   37.8190   26.6980   33.1090 C   0  0  0  0  0  0  0  0  0  0  0  0
   36.8840   27.3200   32.2730 C   0  0  0  0  0  0  0  0  0  0  0  0
   36.1480   28.2640   32.8000 N   0  0  0  0  0  0  0  0  0  0  0  0
   36.3100   28.5990   34.1200 C   0  0  0  0  0  0  0  0  0  0  0  0
   37.1950   28.0070   34.9140 N   0  0  0  0  0  0  0  0  0  0  0  0
   38.6930   26.5640   35.0840 H   0  0  0  0  0  0  0  0  0  0  0  0
   38.4790   25.9000   32.7560 H   0  0  0  0  0  0  0  0  0  0  0  0
   35.4990   29.6540   34.7250 C   0  0  0  0  0  0  0  0  0  0  0  0
   35.8640   30.7590   35.4690 C   0  0  0  0  0  0  0  0  0  0  0  0
   34.9110   31.6010   35.9120 C   0  0  0  0  0  0  0  0  0  0  0  0
   33.5930   31.2900   35.5800 C   0  0  0  0  0  0  0  0  0  0  0  0
   33.7350   29.7380   34.6030 S   0  0  0  0  0  0  0  0  0  0  0  0
   36.9230   30.8830   35.6560 H   0  0  0  0  0  0  0  0  0  0  0  0
   35.0940   32.4880   36.4980 H   0  0  0  0  0  0  0  0  0  0  0  0
   32.3350   31.9170   35.8550 C   0  0  0  0  0  0  0  0  0  0  0  0
   32.0960   32.6890   35.1420 H   0  0  0  0  0  0  0  0  0  0  0  0
   31.6620   31.5370   36.8450 O   0  0  0  0  0  0  0  0  0  0  0  0
   36.7080   25.2620   30.8480 C   0  0  2  0  0  0  0  0  0  0  0  0
   35.2220   24.9000   30.8730 C   0  0  0  0  0  0  0  0  0  0  0  0
   36.1750   24.4870   31.9410 C   0  0  1  0  0  0  0  0  0  0  0  0
   37.3210   24.8170   30.0470 H   0  0  0  0  0  0  0  0  0  0  0  0
   34.4340   25.5720   31.1970 H   0  0  0  0  0  0  0  0  0  0  0  0
   34.9230   24.1650   30.1030 H   0  0  0  0  0  0  0  0  0  0  0  0
   36.2170   25.0040   32.9230 H   0  0  0  0  0  0  0  0  0  0  0  0
   36.2910   23.0320   32.0950 C   0  0  0  0  0  0  0  0  0  0  0  0
   35.5170   22.2420   31.2860 C   0  0  0  0  0  0  0  0  0  0  0  0
   35.6640   20.8850   31.4300 C   0  0  0  0  0  0  0  0  0  0  0  0
   36.5280   20.3070   32.3260 C   0  0  0  0  0  0  0  0  0  0  0  0
   37.3000   21.1390   33.1330 C   0  0  0  0  0  0  0  0  0  0  0  0
   37.1640   22.4700   33.0000 N   0  0  0  0  0  0  0  0  0  0  0  0
   34.8320   22.6710   30.5750 H   0  0  0  0  0  0  0  0  0  0  0  0
   35.0650   20.2170   30.8020 H   0  0  0  0  0  0  0  0  0  0  0  0
   36.6340   19.2520   32.4290 H   0  0  0  0  0  0  0  0  0  0  0  0
   37.9940   20.7510   33.8530 H   0  0  0  0  0  0  0  0  0  0  0  0
   36.1670   27.3950   29.9840 O   0  0  0  0  0  0  0  0  0  0  0  0
   35.2640   27.1210   29.7390 H   0  0  0  0  0  0  0  0  0  0  0  0
  1  2  1  6  0  0  0
  1  5  1  0  0  0  0
  3  8  1  0  0  0  0
  3  9  1  0  0  0  0
  4  3  2  0  0  0  0
  5  6  2  0  0  0  0
  5  4  1  0  0  0  0
  6  7  1  0  0  0  0
  7 11  1  0  0  0  0
  7  8  2  0  0  0  0
 10  4  1  0  0  0  0
 11 12  2  0  0  0  0
 12 16  1  0  0  0  0
 12 13  1  0  0  0  0
 13 17  1  0  0  0  0
 14 18  1  0  0  0  0
 14 13  2  0  0  0  0
 15 11  1  0  0  0  0
 15 14  1  0  0  0  0
 18 20  2  0  0  0  0
 19 18  1  0  0  0  0
 21 24  1  6  0  0  0
 21 22  1  0  0  0  0
 21  1  1  0  0  0  0
 21 23  1  0  0  0  0
 22 25  1  0  0  0  0
 22 23  1  0  0  0  0
 23 28  1  0  0  0  0
 23 27  1  1  0  0  0
 26 22  1  0  0  0  0
 28 33  1  0  0  0  0
 29 30  1  0  0  0  0
 29 28  2  0  0  0  0
 30 31  2  0  0  0  0
 31 36  1  0  0  0  0
 31 32  1  0  0  0  0
 32 37  1  0  0  0  0
 33 32  2  0  0  0  0
 34 29  1  0  0  0  0
 35 30  1  0  0  0  0
 38  1  1  0  0  0  0
 39 38  1  0  0  0  0
M  END
>  <minimizedAffinity>
-5.43164825

$$$$

 OpenBabel03272501413D

 39 42  0  0  1  0  0  0  0  0999 V2000
   36.5560   25.5540   31.6100 C   0  0  1  0  0  0  0  0  0  0  0  0
   37.5290   25.8100   31.0230 H   0  0  0  0  0  0  0  0  0  0  0  0
   37.8440   26.7960   34.8410 C   0  0  0  0  0  0  0  0  0  0  0  0
   37.6290   26.0720   33.6910 C   0  0  0  0  0  0  0  0  0  0  0  0
   36.7300   26.4800   32.6990 C   0  0  0  0  0  0  0  0  0  0  0  0
   36.0880   27.6000   32.9010 N   0  0  0  0  0  0  0  0  0  0  0  0
   36.3080   28.3160   34.0500 C   0  0  0  0  0  0  0  0  0  0  0  0
   37.1590   27.9270   34.9940 N   0  0  0  0  0  0  0  0  0  0  0  0
   38.5360   26.4860   35.6120 H   0  0  0  0  0  0  0  0  0  0  0  0
   38.2130   25.1500   33.6080 H   0  0  0  0  0  0  0  0  0  0  0  0
   35.6020   29.5730   34.2920 C   0  0  0  0  0  0  0  0  0  0  0  0
   35.8710   30.6070   35.1680 C   0  0  0  0  0  0  0  0  0  0  0  0
   35.0590   31.6800   35.1920 C   0  0  0  0  0  0  0  0  0  0  0  0
   33.9780   31.6710   34.3120 C   0  0  0  0  0  0  0  0  0  0  0  0
   34.1400   30.0670   33.4260 S   0  0  0  0  0  0  0  0  0  0  0  0
   36.7440   30.4860   35.7970 H   0  0  0  0  0  0  0  0  0  0  0  0
   35.1850   32.5360   35.8380 H   0  0  0  0  0  0  0  0  0  0  0  0
   32.9200   32.5990   34.0450 C   0  0  0  0  0  0  0  0  0  0  0  0
   33.1540   33.5960   34.3790 H   0  0  0  0  0  0  0  0  0  0  0  0
   31.8750   32.1920   33.4800 O   0  0  0  0  0  0  0  0  0  0  0  0
   36.6660   24.0840   31.9550 C   0  0  2  0  0  0  0  0  0  0  0  0
   37.5640   23.4530   30.8900 C   0  0  0  0  0  0  0  0  0  0  0  0
   36.1320   23.0840   31.0640 C   0  0  1  0  0  0  0  0  0  0  0  0
   36.9100   23.8720   33.0090 H   0  0  0  0  0  0  0  0  0  0  0  0
   37.8060   23.9170   29.9390 H   0  0  0  0  0  0  0  0  0  0  0  0
   38.3460   22.7850   31.2970 H   0  0  0  0  0  0  0  0  0  0  0  0
   35.3400   23.4640   30.3830 H   0  0  0  0  0  0  0  0  0  0  0  0
   35.9240   21.6690   31.3910 C   0  0  0  0  0  0  0  0  0  0  0  0
   35.2420   21.3750   32.5430 C   0  0  0  0  0  0  0  0  0  0  0  0
   35.0360   20.0450   32.8120 C   0  0  0  0  0  0  0  0  0  0  0  0
   35.4750   19.0300   31.9990 C   0  0  0  0  0  0  0  0  0  0  0  0
   36.1640   19.3630   30.8370 C   0  0  0  0  0  0  0  0  0  0  0  0
   36.3710   20.6630   30.5620 N   0  0  0  0  0  0  0  0  0  0  0  0
   34.8880   22.1530   33.1970 H   0  0  0  0  0  0  0  0  0  0  0  0
   34.4950   19.7660   33.7220 H   0  0  0  0  0  0  0  0  0  0  0  0
   35.3090   18.0000   32.2190 H   0  0  0  0  0  0  0  0  0  0  0  0
   36.5330   18.6180   30.1590 H   0  0  0  0  0  0  0  0  0  0  0  0
   35.7550   25.8040   30.6130 O   0  0  0  0  0  0  0  0  0  0  0  0
   34.8740   25.3870   30.5900 H   0  0  0  0  0  0  0  0  0  0  0  0
  1  2  1  6  0  0  0
  1 21  1  0  0  0  0
  1  5  1  0  0  0  0
  3  8  1  0  0  0  0
  3  9  1  0  0  0  0
  4  3  2  0  0  0  0
  5  6  2  0  0  0  0
  5  4  1  0  0  0  0
  6  7  1  0  0  0  0
  7 11  1  0  0  0  0
  7  8  2  0  0  0  0
 10  4  1  0  0  0  0
 11 12  2  0  0  0  0
 12 13  1  0  0  0  0
 12 16  1  0  0  0  0
 13 17  1  0  0  0  0
 14 13  2  0  0  0  0
 15 11  1  0  0  0  0
 15 14  1  0  0  0  0
 18 14  1  0  0  0  0
 18 19  1  0  0  0  0
 20 18  2  0  0  0  0
 21 24  1  1  0  0  0
 22 23  1  0  0  0  0
 22 26  1  0  0  0  0
 22 21  1  0  0  0  0
 23 27  1  6  0  0  0
 23 28  1  0  0  0  0
 23 21  1  0  0  0  0
 25 22  1  0  0  0  0
 28 29  1  0  0  0  0
 29 30  2  0  0  0  0
 29 34  1  0  0  0  0
 30 35  1  0  0  0  0
 31 36  1  0  0  0  0
 31 30  1  0  0  0  0
 32 31  2  0  0  0  0
 33 32  1  0  0  0  0
 33 28  2  0  0  0  0
 37 32  1  0  0  0  0
 38  1  1  0  0  0  0
 39 38  1  0  0  0  0
M  END
>  <minimizedAffinity>
-5.36974001

$$$$

 OpenBabel03272501413D

 39 42  0  0  1  0  0  0  0  0999 V2000
   38.0410   26.7400   35.4680 C   0  0  1  0  0  0  0  0  0  0  0  0
   38.8500   26.8430   34.6360 H   0  0  0  0  0  0  0  0  0  0  0  0
   38.3180   23.5080   37.2330 C   0  0  0  0  0  0  0  0  0  0  0  0
   38.1810   24.8430   36.9270 C   0  0  0  0  0  0  0  0  0  0  0  0
   38.0780   25.3090   35.6110 C   0  0  0  0  0  0  0  0  0  0  0  0
   38.1120   24.4140   34.6580 N   0  0  0  0  0  0  0  0  0  0  0  0
   38.2490   23.0860   34.9720 C   0  0  0  0  0  0  0  0  0  0  0  0
   38.3490   22.6440   36.2210 N   0  0  0  0  0  0  0  0  0  0  0  0
   38.3990   23.1420   38.2470 H   0  0  0  0  0  0  0  0  0  0  0  0
   38.1600   25.5160   37.7890 H   0  0  0  0  0  0  0  0  0  0  0  0
   38.2840   22.0720   33.9210 C   0  0  0  0  0  0  0  0  0  0  0  0
   39.3500   21.4920   33.2600 C   0  0  0  0  0  0  0  0  0  0  0  0
   39.1150   20.5560   32.3210 C   0  0  0  0  0  0  0  0  0  0  0  0
   37.7810   20.2320   32.0760 C   0  0  0  0  0  0  0  0  0  0  0  0
   36.8420   21.3090   33.2340 S   0  0  0  0  0  0  0  0  0  0  0  0
   40.3350   21.8360   33.5460 H   0  0  0  0  0  0  0  0  0  0  0  0
   39.8770   20.0460   31.7520 H   0  0  0  0  0  0  0  0  0  0  0  0
   37.1410   19.3140   31.1820 C   0  0  0  0  0  0  0  0  0  0  0  0
   37.7810   18.4920   30.9090 H   0  0  0  0  0  0  0  0  0  0  0  0
   35.9600   19.5360   30.8160 O   0  0  0  0  0  0  0  0  0  0  0  0
   36.7750   27.3230   34.8740 C   0  0  2  0  0  0  0  0  0  0  0  0
   37.1120   27.7240   33.4370 C   0  0  0  0  0  0  0  0  0  0  0  0
   36.7240   28.7100   34.4840 C   0  0  1  0  0  0  0  0  0  0  0  0
   35.8690   26.7150   35.0280 H   0  0  0  0  0  0  0  0  0  0  0  0
   38.1210   27.8360   33.0540 H   0  0  0  0  0  0  0  0  0  0  0  0
   36.3600   27.4050   32.6920 H   0  0  0  0  0  0  0  0  0  0  0  0
   37.4750   29.3500   34.9950 H   0  0  0  0  0  0  0  0  0  0  0  0
   35.5080   29.4640   34.1600 C   0  0  0  0  0  0  0  0  0  0  0  0
   35.2450   30.5950   34.8890 C   0  0  0  0  0  0  0  0  0  0  0  0
   34.1170   31.2970   34.5480 C   0  0  0  0  0  0  0  0  0  0  0  0
   33.2660   30.9220   33.5380 C   0  0  0  0  0  0  0  0  0  0  0  0
   33.5610   29.7680   32.8180 C   0  0  0  0  0  0  0  0  0  0  0  0
   34.6650   29.0720   33.1420 N   0  0  0  0  0  0  0  0  0  0  0  0
   35.8970   30.9090   35.6850 H   0  0  0  0  0  0  0  0  0  0  0  0
   33.8700   32.2060   35.1050 H   0  0  0  0  0  0  0  0  0  0  0  0
   32.3920   31.4750   33.2830 H   0  0  0  0  0  0  0  0  0  0  0  0
   32.9390   29.4210   32.0160 H   0  0  0  0  0  0  0  0  0  0  0  0
   38.6430   27.5350   36.3080 O   0  0  0  0  0  0  0  0  0  0  0  0
   38.1240   27.9840   36.9990 H   0  0  0  0  0  0  0  0  0  0  0  0
  1  2  1  6  0  0  0
  1  5  1  0  0  0  0
  1 38  1  0  0  0  0
  3  9  1  0  0  0  0
  4  3  1  0  0  0  0
  4 10  1  0  0  0  0
  5  4  2  0  0  0  0
  6  7  2  0  0  0  0
  6  5  1  0  0  0  0
  7  8  1  0  0  0  0
  8  3  2  0  0  0  0
 11  7  1  0  0  0  0
 12 16  1  0  0  0  0
 12 11  2  0  0  0  0
 13 12  1  0  0  0  0
 14 13  2  0  0  0  0
 14 15  1  0  0  0  0
 15 11  1  0  0  0  0
 17 13  1  0  0  0  0
 18 14  1  0  0  0  0
 19 18  1  0  0  0  0
 20 18  2  0  0  0  0
 21 24  1  1  0  0  0
 21  1  1  0  0  0  0
 22 23  1  0  0  0  0
 22 21  1  0  0  0  0
 23 21  1  0  0  0  0
 23 27  1  1  0  0  0
 25 22  1  0  0  0  0
 26 22  1  0  0  0  0
 28 23  1  0  0  0  0
 28 29  1  0  0  0  0
 29 34  1  0  0  0  0
 30 29  2  0  0  0  0
 30 35  1  0  0  0  0
 31 30  1  0  0  0  0
 32 33  1  0  0  0  0
 32 31  2  0  0  0  0
 33 28  2  0  0  0  0
 36 31  1  0  0  0  0
 37 32  1  0  0  0  0
 38 39  1  0  0  0  0
M  END
>  <minimizedAffinity>
-5.31462669

$$$$

 OpenBabel03272501413D

 39 42  0  0  1  0  0  0  0  0999 V2000
   36.3270   28.5100   32.3480 C   0  0  1  0  0  0  0  0  0  0  0  0
   35.5390   28.2360   31.5360 H   0  0  0  0  0  0  0  0  0  0  0  0
   39.2120   26.2090   32.4960 C   0  0  0  0  0  0  0  0  0  0  0  0
   38.4030   27.3210   32.5220 C   0  0  0  0  0  0  0  0  0  0  0  0
   37.0100   27.2440   32.4000 C   0  0  0  0  0  0  0  0  0  0  0  0
   36.4900   26.0520   32.2620 N   0  0  0  0  0  0  0  0  0  0  0  0
   37.3040   24.9490   32.2380 C   0  0  0  0  0  0  0  0  0  0  0  0
   38.6260   25.0230   32.3510 N   0  0  0  0  0  0  0  0  0  0  0  0
   40.2890   26.2620   32.5890 H   0  0  0  0  0  0  0  0  0  0  0  0
   38.9260   28.2730   32.6440 H   0  0  0  0  0  0  0  0  0  0  0  0
   36.7410   23.6090   32.0880 C   0  0  0  0  0  0  0  0  0  0  0  0
   35.7480   23.1340   31.2540 C   0  0  0  0  0  0  0  0  0  0  0  0
   35.4110   21.8310   31.3020 C   0  0  0  0  0  0  0  0  0  0  0  0
   36.1050   21.0360   32.2130 C   0  0  0  0  0  0  0  0  0  0  0  0
   37.2740   22.2030   33.0220 S   0  0  0  0  0  0  0  0  0  0  0  0
   35.2890   23.8600   30.5940 H   0  0  0  0  0  0  0  0  0  0  0  0
   34.6520   21.3660   30.6930 H   0  0  0  0  0  0  0  0  0  0  0  0
   36.0400   19.6460   32.5530 C   0  0  0  0  0  0  0  0  0  0  0  0
   36.7160   19.3870   33.3520 H   0  0  0  0  0  0  0  0  0  0  0  0
   35.2500   18.8970   31.9280 O   0  0  0  0  0  0  0  0  0  0  0  0
   35.5270   28.8910   33.5760 C   0  0  2  0  0  0  0  0  0  0  0  0
   34.1230   29.2480   33.0870 C   0  0  0  0  0  0  0  0  0  0  0  0
   35.0300   30.2360   33.7330 C   0  0  1  0  0  0  0  0  0  0  0  0
   35.6030   28.1830   34.4170 H   0  0  0  0  0  0  0  0  0  0  0  0
   33.8710   29.4640   32.0540 H   0  0  0  0  0  0  0  0  0  0  0  0
   33.3090   28.7940   33.6820 H   0  0  0  0  0  0  0  0  0  0  0  0
   35.5890   30.9940   33.1440 H   0  0  0  0  0  0  0  0  0  0  0  0
   34.4900   30.8090   34.9710 C   0  0  0  0  0  0  0  0  0  0  0  0
   33.2100   30.4720   35.3240 C   0  0  0  0  0  0  0  0  0  0  0  0
   32.7380   30.9990   36.5000 C   0  0  0  0  0  0  0  0  0  0  0  0
   33.4760   31.8260   37.3110 C   0  0  0  0  0  0  0  0  0  0  0  0
   34.7730   32.1480   36.9230 C   0  0  0  0  0  0  0  0  0  0  0  0
   35.2460   31.6370   35.7730 N   0  0  0  0  0  0  0  0  0  0  0  0
   32.6110   29.8270   34.7050 H   0  0  0  0  0  0  0  0  0  0  0  0
   31.7200   30.7550   36.8200 H   0  0  0  0  0  0  0  0  0  0  0  0
   33.0990   32.2290   38.2220 H   0  0  0  0  0  0  0  0  0  0  0  0
   35.4020   32.7870   37.5110 H   0  0  0  0  0  0  0  0  0  0  0  0
   36.8110   29.5290   31.6960 O   0  0  0  0  0  0  0  0  0  0  0  0
   37.2650   30.2390   32.1850 H   0  0  0  0  0  0  0  0  0  0  0  0
  1  2  1  6  0  0  0
  1  5  1  0  0  0  0
  1 21  1  0  0  0  0
  3  4  1  0  0  0  0
  3  9  1  0  0  0  0
  4 10  1  0  0  0  0
  5  4  2  0  0  0  0
  6  5  1  0  0  0  0
  7  6  2  0  0  0  0
  7  8  1  0  0  0  0
  8  3  2  0  0  0  0
 11  7  1  0  0  0  0
 11 15  1  0  0  0  0
 12 13  1  0  0  0  0
 12 11  2  0  0  0  0
 13 14  2  0  0  0  0
 14 18  1  0  0  0  0
 14 15  1  0  0  0  0
 16 12  1  0  0  0  0
 17 13  1  0  0  0  0
 18 19  1  0  0  0  0
 20 18  2  0  0  0  0
 21 23  1  0  0  0  0
 21 24  1  1  0  0  0
 22 21  1  0  0  0  0
 22 26  1  0  0  0  0
 22 23  1  0  0  0  0
 23 27  1  6  0  0  0
 23 28  1  0  0  0  0
 25 22  1  0  0  0  0
 28 29  2  0  0  0  0
 28 33  1  0  0  0  0
 29 30  1  0  0  0  0
 30 35  1  0  0  0  0
 30 31  2  0  0  0  0
 31 36  1  0  0  0  0
 32 31  1  0  0  0  0
 32 37  1  0  0  0  0
 33 32  2  0  0  0  0
 34 29  1  0  0  0  0
 38 39  1  0  0  0  0
 38  1  1  0  0  0  0
M  END
>  <minimizedAffinity>
-5.28452015

$$$$

 OpenBabel03272501413D

 39 42  0  0  1  0  0  0  0  0999 V2000
   38.5130   26.3590   36.0390 C   0  0  1  0  0  0  0  0  0  0  0  0
   39.6490   26.2310   36.2590 H   0  0  0  0  0  0  0  0  0  0  0  0
   37.4980   23.0100   37.2200 C   0  0  0  0  0  0  0  0  0  0  0  0
   37.7740   24.3550   37.1290 C   0  0  0  0  0  0  0  0  0  0  0  0
   38.1700   24.9650   35.9330 C   0  0  0  0  0  0  0  0  0  0  0  0
   38.2670   24.2000   34.8780 N   0  0  0  0  0  0  0  0  0  0  0  0
   37.9900   22.8600   34.9780 C   0  0  0  0  0  0  0  0  0  0  0  0
   37.6170   22.2810   36.1140 N   0  0  0  0  0  0  0  0  0  0  0  0
   37.1930   22.5330   38.1420 H   0  0  0  0  0  0  0  0  0  0  0  0
   37.6630   24.9160   38.0620 H   0  0  0  0  0  0  0  0  0  0  0  0
   38.0900   21.9890   33.8080 C   0  0  0  0  0  0  0  0  0  0  0  0
   39.1920   21.5160   33.1250 C   0  0  0  0  0  0  0  0  0  0  0  0
   39.0150   20.7040   32.0650 C   0  0  0  0  0  0  0  0  0  0  0  0
   37.7000   20.3930   31.7250 C   0  0  0  0  0  0  0  0  0  0  0  0
   36.6920   21.2980   32.9700 S   0  0  0  0  0  0  0  0  0  0  0  0
   40.1580   21.8360   33.4940 H   0  0  0  0  0  0  0  0  0  0  0  0
   39.8100   20.2840   31.4690 H   0  0  0  0  0  0  0  0  0  0  0  0
   37.1150   19.5870   30.6950 C   0  0  0  0  0  0  0  0  0  0  0  0
   37.8220   19.3300   29.9230 H   0  0  0  0  0  0  0  0  0  0  0  0
   35.9030   19.2700   30.7770 O   0  0  0  0  0  0  0  0  0  0  0  0
   38.4380   27.1680   34.7610 C   0  0  2  0  0  0  0  0  0  0  0  0
   37.2120   28.0740   34.8910 C   0  0  0  0  0  0  0  0  0  0  0  0
   37.3240   27.0050   33.8590 C   0  0  1  0  0  0  0  0  0  0  0  0
   39.3850   27.6430   34.4570 H   0  0  0  0  0  0  0  0  0  0  0  0
   36.4180   27.9300   35.6160 H   0  0  0  0  0  0  0  0  0  0  0  0
   37.3950   29.1250   34.5990 H   0  0  0  0  0  0  0  0  0  0  0  0
   36.7990   26.0310   33.9630 H   0  0  0  0  0  0  0  0  0  0  0  0
   37.2580   27.5070   32.4820 C   0  0  0  0  0  0  0  0  0  0  0  0
   36.3010   28.4430   32.1900 C   0  0  0  0  0  0  0  0  0  0  0  0
   36.2780   28.9170   30.9030 C   0  0  0  0  0  0  0  0  0  0  0  0
   37.1480   28.5010   29.9260 C   0  0  0  0  0  0  0  0  0  0  0  0
   38.1080   27.5480   30.2550 C   0  0  0  0  0  0  0  0  0  0  0  0
   38.1400   27.0770   31.5150 N   0  0  0  0  0  0  0  0  0  0  0  0
   35.6070   28.7850   32.9390 H   0  0  0  0  0  0  0  0  0  0  0  0
   35.5290   29.6670   30.6270 H   0  0  0  0  0  0  0  0  0  0  0  0
   37.1200   28.8760   28.9280 H   0  0  0  0  0  0  0  0  0  0  0  0
   38.8170   27.1820   29.5400 H   0  0  0  0  0  0  0  0  0  0  0  0
   38.2680   27.0500   37.1160 O   0  0  0  0  0  0  0  0  0  0  0  0
   37.4950   27.6430   37.1400 H   0  0  0  0  0  0  0  0  0  0  0  0
  1  2  1  1  0  0  0
  1 38  1  0  0  0  0
  3  9  1  0  0  0  0
  4  3  1  0  0  0  0
  4 10  1  0  0  0  0
  5  1  1  0  0  0  0
  5  4  2  0  0  0  0
  6  7  2  0  0  0  0
  6  5  1  0  0  0  0
  7  8  1  0  0  0  0
  8  3  2  0  0  0  0
 11  7  1  0  0  0  0
 12 16  1  0  0  0  0
 12 11  2  0  0  0  0
 13 12  1  0  0  0  0
 14 13  2  0  0  0  0
 14 15  1  0  0  0  0
 15 11  1  0  0  0  0
 17 13  1  0  0  0  0
 18 20  2  0  0  0  0
 18 14  1  0  0  0  0
 19 18  1  0  0  0  0
 21 24  1  6  0  0  0
 21 22  1  0  0  0  0
 21  1  1  0  0  0  0
 22 25  1  0  0  0  0
 23 27  1  1  0  0  0
 23 21  1  0  0  0  0
 23 22  1  0  0  0  0
 26 22  1  0  0  0  0
 28 23  1  0  0  0  0
 29 28  1  0  0  0  0
 29 34  1  0  0  0  0
 30 29  2  0  0  0  0
 31 32  2  0  0  0  0
 31 30  1  0  0  0  0
 32 33  1  0  0  0  0
 33 28  2  0  0  0  0
 35 30  1  0  0  0  0
 36 31  1  0  0  0  0
 37 32  1  0  0  0  0
 38 39  1  0  0  0  0
M  END
>  <minimizedAffinity>
-5.28127718

$$$$
