
 OpenBabel03272506193D

 28 29  0  0  0  0  0  0  0  0999 V2000
   38.9190   25.6360   34.9530 C   0  0  0  0  0  0  0  0  0  0  0  0
   38.7740   27.0660   35.4360 C   0  0  0  0  0  0  0  0  0  0  0  0
   37.4480   27.6760   35.0870 C   0  0  0  0  0  0  0  0  0  0  0  0
   37.1350   27.5870   33.6170 C   0  0  0  0  0  0  0  0  0  0  0  0
   37.5060   26.2670   33.0130 C   0  0  0  0  0  0  0  0  0  0  0  0
   37.7970   25.2160   34.0650 C   0  0  0  0  0  0  0  0  0  0  0  0
   39.8670   25.5880   34.3990 H   0  0  0  0  0  0  0  0  0  0  0  0
   38.8000   27.0770   36.5650 H   0  0  0  0  0  0  0  0  0  0  0  0
   39.6160   27.7000   35.1000 H   0  0  0  0  0  0  0  0  0  0  0  0
   36.6610   27.2320   35.7300 H   0  0  0  0  0  0  0  0  0  0  0  0
   37.5330   28.7620   35.3260 H   0  0  0  0  0  0  0  0  0  0  0  0
   37.5850   28.4240   33.0600 H   0  0  0  0  0  0  0  0  0  0  0  0
   36.0160   27.6800   33.5280 H   0  0  0  0  0  0  0  0  0  0  0  0
   38.4790   26.4090   32.4730 H   0  0  0  0  0  0  0  0  0  0  0  0
   36.7820   25.8880   32.2880 H   0  0  0  0  0  0  0  0  0  0  0  0
   36.8390   25.0970   34.6400 H   0  0  0  0  0  0  0  0  0  0  0  0
   38.0070   24.2670   33.5790 H   0  0  0  0  0  0  0  0  0  0  0  0
   38.9340   24.7170   36.1300 C   0  0  0  0  0  0  0  0  0  0  0  0
   39.9330   23.7270   36.1480 C   0  0  0  0  0  0  0  0  0  0  0  0
   39.9430   22.8580   37.2400 C   0  0  0  0  0  0  0  0  0  0  0  0
   39.0030   23.0110   38.2130 N   0  0  0  0  0  0  0  0  0  0  0  0
   38.0480   23.9750   38.1700 C   0  0  0  0  0  0  0  0  0  0  0  0
   38.0260   24.8160   37.1300 N   0  0  0  0  0  0  0  0  0  0  0  0
   40.6820   23.5770   35.4100 H   0  0  0  0  0  0  0  0  0  0  0  0
   37.3440   24.0150   38.9900 H   0  0  0  0  0  0  0  0  0  0  0  0
   40.9570   21.8110   37.3130 C   0  0  0  0  0  0  0  0  0  0  0  0
   40.7490   20.8800   37.7780 H   0  0  0  0  0  0  0  0  0  0  0  0
   42.1080   21.9950   36.8230 O   0  0  0  0  0  0  0  0  0  0  0  0
  1  2  1  0  0  0  0
  1 18  1  0  0  0  0
  2  8  1  0  0  0  0
  3 11  1  0  0  0  0
  3  2  1  0  0  0  0
  3 10  1  0  0  0  0
  4  3  1  0  0  0  0
  5  4  1  0  0  0  0
  5  6  1  0  0  0  0
  6 16  1  0  0  0  0
  6  1  1  0  0  0  0
  7  1  1  0  0  0  0
  9  2  1  0  0  0  0
 12  4  1  0  0  0  0
 13  4  1  0  0  0  0
 14  5  1  0  0  0  0
 15  5  1  0  0  0  0
 17  6  1  0  0  0  0
 18 19  2  0  0  0  0
 18 23  1  0  0  0  0
 19 20  1  0  0  0  0
 20 26  1  0  0  0  0
 20 21  2  0  0  0  0
 22 21  1  0  0  0  0
 22 25  1  0  0  0  0
 23 22  2  0  0  0  0
 24 19  1  0  0  0  0
 26 27  1  0  0  0  0
 28 26  2  0  0  0  0
M  END
>  <minimizedAffinity>
-4.35824347

$$$$

 OpenBabel03272506193D

 28 29  0  0  0  0  0  0  0  0999 V2000
   35.6340   21.5810   31.2770 C   0  0  0  0  0  0  0  0  0  0  0  0
   34.8590   20.9000   32.3880 C   0  0  0  0  0  0  0  0  0  0  0  0
   35.5120   19.6410   32.8790 C   0  0  0  0  0  0  0  0  0  0  0  0
   35.8020   18.6660   31.7700 C   0  0  0  0  0  0  0  0  0  0  0  0
   36.3310   19.3200   30.5300 C   0  0  0  0  0  0  0  0  0  0  0  0
   36.7670   20.7500   30.7780 C   0  0  0  0  0  0  0  0  0  0  0  0
   34.9200   21.7610   30.4630 H   0  0  0  0  0  0  0  0  0  0  0  0
   34.8390   21.5770   33.2910 H   0  0  0  0  0  0  0  0  0  0  0  0
   33.8030   20.7290   32.1050 H   0  0  0  0  0  0  0  0  0  0  0  0
   36.4080   19.9040   33.4770 H   0  0  0  0  0  0  0  0  0  0  0  0
   34.7690   19.1460   33.5470 H   0  0  0  0  0  0  0  0  0  0  0  0
   34.9250   18.0380   31.5480 H   0  0  0  0  0  0  0  0  0  0  0  0
   36.6180   17.9900   32.1510 H   0  0  0  0  0  0  0  0  0  0  0  0
   35.4800   19.4020   29.8060 H   0  0  0  0  0  0  0  0  0  0  0  0
   37.1290   18.7610   30.0360 H   0  0  0  0  0  0  0  0  0  0  0  0
   37.5940   20.6820   31.5360 H   0  0  0  0  0  0  0  0  0  0  0  0
   37.1920   21.1620   29.8660 H   0  0  0  0  0  0  0  0  0  0  0  0
   36.2040   22.8640   31.7890 C   0  0  0  0  0  0  0  0  0  0  0  0
   35.6330   24.0510   31.2970 C   0  0  0  0  0  0  0  0  0  0  0  0
   36.1700   25.2520   31.7630 C   0  0  0  0  0  0  0  0  0  0  0  0
   37.2000   25.2120   32.6530 N   0  0  0  0  0  0  0  0  0  0  0  0
   37.7340   24.0510   33.1120 C   0  0  0  0  0  0  0  0  0  0  0  0
   37.2280   22.8920   32.6740 N   0  0  0  0  0  0  0  0  0  0  0  0
   34.8310   24.1230   30.6040 H   0  0  0  0  0  0  0  0  0  0  0  0
   38.5510   24.1220   33.8170 H   0  0  0  0  0  0  0  0  0  0  0  0
   35.6180   26.5170   31.2880 C   0  0  0  0  0  0  0  0  0  0  0  0
   34.6330   26.8140   31.5460 H   0  0  0  0  0  0  0  0  0  0  0  0
   36.3070   27.2840   30.5550 O   0  0  0  0  0  0  0  0  0  0  0  0
  1 18  1  0  0  0  0
  1  2  1  0  0  0  0
  2  3  1  0  0  0  0
  2  8  1  0  0  0  0
  3 10  1  0  0  0  0
  3 11  1  0  0  0  0
  4 13  1  0  0  0  0
  4  3  1  0  0  0  0
  5  6  1  0  0  0  0
  5  4  1  0  0  0  0
  6  1  1  0  0  0  0
  6 16  1  0  0  0  0
  7  1  1  0  0  0  0
  9  2  1  0  0  0  0
 12  4  1  0  0  0  0
 14  5  1  0  0  0  0
 15  5  1  0  0  0  0
 17  6  1  0  0  0  0
 18 23  1  0  0  0  0
 19 20  1  0  0  0  0
 19 18  2  0  0  0  0
 20 21  2  0  0  0  0
 21 22  1  0  0  0  0
 22 25  1  0  0  0  0
 23 22  2  0  0  0  0
 24 19  1  0  0  0  0
 26 27  1  0  0  0  0
 26 20  1  0  0  0  0
 28 26  2  0  0  0  0
M  END
>  <minimizedAffinity>
-4.30935431

$$$$

 OpenBabel03272506193D

 28 29  0  0  0  0  0  0  0  0999 V2000
   38.2190   26.1290   34.0160 C   0  0  0  0  0  0  0  0  0  0  0  0
   37.8760   27.2760   34.9460 C   0  0  0  0  0  0  0  0  0  0  0  0
   36.5760   27.9450   34.6070 C   0  0  0  0  0  0  0  0  0  0  0  0
   36.5130   28.3980   33.1730 C   0  0  0  0  0  0  0  0  0  0  0  0
   37.0880   27.4030   32.2120 C   0  0  0  0  0  0  0  0  0  0  0  0
   37.2950   26.0430   32.8490 C   0  0  0  0  0  0  0  0  0  0  0  0
   39.2440   26.3080   33.6640 H   0  0  0  0  0  0  0  0  0  0  0  0
   37.7200   26.8700   35.9880 H   0  0  0  0  0  0  0  0  0  0  0  0
   38.7040   28.0060   35.0190 H   0  0  0  0  0  0  0  0  0  0  0  0
   35.7380   27.2780   34.8940 H   0  0  0  0  0  0  0  0  0  0  0  0
   36.5290   28.8670   35.2310 H   0  0  0  0  0  0  0  0  0  0  0  0
   36.9730   29.3900   33.0450 H   0  0  0  0  0  0  0  0  0  0  0  0
   35.4190   28.4940   32.9220 H   0  0  0  0  0  0  0  0  0  0  0  0
   38.1180   27.7540   31.9440 H   0  0  0  0  0  0  0  0  0  0  0  0
   36.5250   27.3030   31.2820 H   0  0  0  0  0  0  0  0  0  0  0  0
   36.2710   25.7010   33.1600 H   0  0  0  0  0  0  0  0  0  0  0  0
   37.6610   25.3450   32.1010 H   0  0  0  0  0  0  0  0  0  0  0  0
   38.1230   24.8400   34.7660 C   0  0  0  0  0  0  0  0  0  0  0  0
   38.1120   24.9250   36.1700 C   0  0  0  0  0  0  0  0  0  0  0  0
   38.0340   23.7220   36.8750 C   0  0  0  0  0  0  0  0  0  0  0  0
   37.9750   22.5530   36.1800 N   0  0  0  0  0  0  0  0  0  0  0  0
   37.9880   22.5000   34.8230 C   0  0  0  0  0  0  0  0  0  0  0  0
   38.0620   23.6450   34.1340 N   0  0  0  0  0  0  0  0  0  0  0  0
   38.1560   25.8150   36.7470 H   0  0  0  0  0  0  0  0  0  0  0  0
   37.9380   21.5230   34.3610 H   0  0  0  0  0  0  0  0  0  0  0  0
   38.0180   23.7470   38.3340 C   0  0  0  0  0  0  0  0  0  0  0  0
   38.0180   22.8470   38.8960 H   0  0  0  0  0  0  0  0  0  0  0  0
   38.0030   24.8470   38.9580 O   0  0  0  0  0  0  0  0  0  0  0  0
  1 18  1  0  0  0  0
  1  2  1  0  0  0  0
  2  9  1  0  0  0  0
  2  8  1  0  0  0  0
  3 10  1  0  0  0  0
  3  2  1  0  0  0  0
  3 11  1  0  0  0  0
  4  3  1  0  0  0  0
  5  6  1  0  0  0  0
  5  4  1  0  0  0  0
  6 16  1  0  0  0  0
  6  1  1  0  0  0  0
  7  1  1  0  0  0  0
 12  4  1  0  0  0  0
 13  4  1  0  0  0  0
 14  5  1  0  0  0  0
 15  5  1  0  0  0  0
 17  6  1  0  0  0  0
 18 19  1  0  0  0  0
 19 24  1  0  0  0  0
 19 20  2  0  0  0  0
 20 26  1  0  0  0  0
 21 20  1  0  0  0  0
 22 21  2  0  0  0  0
 23 18  2  0  0  0  0
 23 22  1  0  0  0  0
 25 22  1  0  0  0  0
 26 27  1  0  0  0  0
 26 28  2  0  0  0  0
M  END
>  <minimizedAffinity>
-4.30776262

$$$$

 OpenBabel03272506193D

 28 29  0  0  0  0  0  0  0  0999 V2000
   37.3180   21.5270   33.6190 C   0  0  0  0  0  0  0  0  0  0  0  0
   37.0150   22.0310   32.2210 C   0  0  0  0  0  0  0  0  0  0  0  0
   35.5520   22.0170   31.8910 C   0  0  0  0  0  0  0  0  0  0  0  0
   34.9200   20.6680   32.1080 C   0  0  0  0  0  0  0  0  0  0  0  0
   35.3860   19.9920   33.3610 C   0  0  0  0  0  0  0  0  0  0  0  0
   36.1200   20.9400   34.2860 C   0  0  0  0  0  0  0  0  0  0  0  0
   38.0960   20.7590   33.5130 H   0  0  0  0  0  0  0  0  0  0  0  0
   37.3090   23.1190   32.1520 H   0  0  0  0  0  0  0  0  0  0  0  0
   37.6120   21.5000   31.4560 H   0  0  0  0  0  0  0  0  0  0  0  0
   35.0450   22.8330   32.4450 H   0  0  0  0  0  0  0  0  0  0  0  0
   35.4780   22.2280   30.7990 H   0  0  0  0  0  0  0  0  0  0  0  0
   35.0500   20.0180   31.2290 H   0  0  0  0  0  0  0  0  0  0  0  0
   33.8160   20.8550   32.2330 H   0  0  0  0  0  0  0  0  0  0  0  0
   36.1530   19.2300   33.0630 H   0  0  0  0  0  0  0  0  0  0  0  0
   34.5980   19.4660   33.9040 H   0  0  0  0  0  0  0  0  0  0  0  0
   35.3700   21.7320   34.5570 H   0  0  0  0  0  0  0  0  0  0  0  0
   36.3890   20.4180   35.2010 H   0  0  0  0  0  0  0  0  0  0  0  0
   37.7930   22.6660   34.4620 C   0  0  0  0  0  0  0  0  0  0  0  0
   37.6730   22.5140   35.8550 C   0  0  0  0  0  0  0  0  0  0  0  0
   38.1060   23.5800   36.6460 C   0  0  0  0  0  0  0  0  0  0  0  0
   38.6100   24.6890   36.0390 N   0  0  0  0  0  0  0  0  0  0  0  0
   38.7140   24.8100   34.6910 C   0  0  0  0  0  0  0  0  0  0  0  0
   38.3050   23.7960   33.9200 N   0  0  0  0  0  0  0  0  0  0  0  0
   37.2860   21.6670   36.3640 H   0  0  0  0  0  0  0  0  0  0  0  0
   39.1280   25.7310   34.3030 H   0  0  0  0  0  0  0  0  0  0  0  0
   38.0060   23.4810   38.0990 C   0  0  0  0  0  0  0  0  0  0  0  0
   37.9020   22.5390   38.5760 H   0  0  0  0  0  0  0  0  0  0  0  0
   38.0400   24.5200   38.8180 O   0  0  0  0  0  0  0  0  0  0  0  0
  1  6  1  0  0  0  0
  1 18  1  0  0  0  0
  2  1  1  0  0  0  0
  3  4  1  0  0  0  0
  3  2  1  0  0  0  0
  3 10  1  0  0  0  0
  4 13  1  0  0  0  0
  4  5  1  0  0  0  0
  5 15  1  0  0  0  0
  5  6  1  0  0  0  0
  6 16  1  0  0  0  0
  6 17  1  0  0  0  0
  7  1  1  0  0  0  0
  8  2  1  0  0  0  0
  9  2  1  0  0  0  0
 11  3  1  0  0  0  0
 12  4  1  0  0  0  0
 14  5  1  0  0  0  0
 18 19  1  0  0  0  0
 19 24  1  0  0  0  0
 19 20  2  0  0  0  0
 20 26  1  0  0  0  0
 21 20  1  0  0  0  0
 22 21  2  0  0  0  0
 23 18  2  0  0  0  0
 23 22  1  0  0  0  0
 25 22  1  0  0  0  0
 26 27  1  0  0  0  0
 26 28  2  0  0  0  0
M  END
>  <minimizedAffinity>
-4.26807117

$$$$

 OpenBabel03272506193D

 28 29  0  0  0  0  0  0  0  0999 V2000
   35.5500   21.4300   31.1500 C   0  0  0  0  0  0  0  0  0  0  0  0
   34.7720   20.8030   32.2910 C   0  0  0  0  0  0  0  0  0  0  0  0
   35.4860   19.6470   32.9290 C   0  0  0  0  0  0  0  0  0  0  0  0
   35.8940   18.5940   31.9330 C   0  0  0  0  0  0  0  0  0  0  0  0
   36.4340   19.1640   30.6570 C   0  0  0  0  0  0  0  0  0  0  0  0
   36.7590   20.6390   30.7800 C   0  0  0  0  0  0  0  0  0  0  0  0
   34.8640   21.4790   30.2930 H   0  0  0  0  0  0  0  0  0  0  0  0
   34.6640   21.5600   33.1210 H   0  0  0  0  0  0  0  0  0  0  0  0
   33.7450   20.5300   31.9840 H   0  0  0  0  0  0  0  0  0  0  0  0
   36.3330   20.0310   33.5330 H   0  0  0  0  0  0  0  0  0  0  0  0
   34.7490   19.1660   33.6120 H   0  0  0  0  0  0  0  0  0  0  0  0
   35.0720   17.8860   31.7400 H   0  0  0  0  0  0  0  0  0  0  0  0
   36.7350   18.0190   32.4120 H   0  0  0  0  0  0  0  0  0  0  0  0
   35.6140   19.1140   29.8950 H   0  0  0  0  0  0  0  0  0  0  0  0
   37.2900   18.6200   30.2520 H   0  0  0  0  0  0  0  0  0  0  0  0
   37.5520   20.7040   31.5730 H   0  0  0  0  0  0  0  0  0  0  0  0
   37.1970   20.9910   29.8500 H   0  0  0  0  0  0  0  0  0  0  0  0
   36.0070   22.7930   31.5550 C   0  0  0  0  0  0  0  0  0  0  0  0
   37.0820   22.8570   32.4610 C   0  0  0  0  0  0  0  0  0  0  0  0
   37.5050   24.1290   32.8510 C   0  0  0  0  0  0  0  0  0  0  0  0
   36.8670   25.2200   32.3450 N   0  0  0  0  0  0  0  0  0  0  0  0
   35.8300   25.1300   31.4720 C   0  0  0  0  0  0  0  0  0  0  0  0
   35.4150   23.9170   31.0880 N   0  0  0  0  0  0  0  0  0  0  0  0
   37.6030   22.0310   32.8760 H   0  0  0  0  0  0  0  0  0  0  0  0
   35.3870   26.0540   31.1270 H   0  0  0  0  0  0  0  0  0  0  0  0
   38.6150   24.2580   33.7890 C   0  0  0  0  0  0  0  0  0  0  0  0
   39.4690   24.8400   33.5480 H   0  0  0  0  0  0  0  0  0  0  0  0
   38.5810   23.6740   34.9100 O   0  0  0  0  0  0  0  0  0  0  0  0
  1 18  1  0  0  0  0
  1  2  1  0  0  0  0
  2  3  1  0  0  0  0
  2  8  1  0  0  0  0
  3 10  1  0  0  0  0
  3 11  1  0  0  0  0
  4 13  1  0  0  0  0
  4  3  1  0  0  0  0
  5  6  1  0  0  0  0
  5  4  1  0  0  0  0
  6  1  1  0  0  0  0
  6 16  1  0  0  0  0
  7  1  1  0  0  0  0
  9  2  1  0  0  0  0
 12  4  1  0  0  0  0
 14  5  1  0  0  0  0
 15  5  1  0  0  0  0
 17  6  1  0  0  0  0
 18 19  1  0  0  0  0
 19 20  2  0  0  0  0
 19 24  1  0  0  0  0
 20 26  1  0  0  0  0
 21 20  1  0  0  0  0
 22 21  2  0  0  0  0
 23 22  1  0  0  0  0
 23 18  2  0  0  0  0
 25 22  1  0  0  0  0
 26 28  2  0  0  0  0
 27 26  1  0  0  0  0
M  END
>  <minimizedAffinity>
-4.0717206

$$$$

 OpenBabel03272506193D

 28 29  0  0  0  0  0  0  0  0999 V2000
   38.4270   23.0380   35.8850 C   0  0  0  0  0  0  0  0  0  0  0  0
   37.4210   23.1580   37.0130 C   0  0  0  0  0  0  0  0  0  0  0  0
   37.9800   23.8210   38.2370 C   0  0  0  0  0  0  0  0  0  0  0  0
   39.2420   23.1640   38.7290 C   0  0  0  0  0  0  0  0  0  0  0  0
   40.1760   22.7750   37.6250 C   0  0  0  0  0  0  0  0  0  0  0  0
   39.8050   23.4220   36.3060 C   0  0  0  0  0  0  0  0  0  0  0  0
   38.4160   21.9870   35.5670 H   0  0  0  0  0  0  0  0  0  0  0  0
   36.5800   23.8360   36.6850 H   0  0  0  0  0  0  0  0  0  0  0  0
   36.9560   22.1830   37.2530 H   0  0  0  0  0  0  0  0  0  0  0  0
   38.0990   24.9060   38.0420 H   0  0  0  0  0  0  0  0  0  0  0  0
   37.2190   23.6840   39.0400 H   0  0  0  0  0  0  0  0  0  0  0  0
   39.0180   22.3070   39.3850 H   0  0  0  0  0  0  0  0  0  0  0  0
   39.7770   23.9360   39.3490 H   0  0  0  0  0  0  0  0  0  0  0  0
   40.0490   21.6750   37.4510 H   0  0  0  0  0  0  0  0  0  0  0  0
   41.2300   22.9510   37.8500 H   0  0  0  0  0  0  0  0  0  0  0  0
   39.8890   24.5280   36.4820 H   0  0  0  0  0  0  0  0  0  0  0  0
   40.5410   23.1540   35.5520 H   0  0  0  0  0  0  0  0  0  0  0  0
   38.0260   23.9450   34.7670 C   0  0  0  0  0  0  0  0  0  0  0  0
   37.8210   25.2980   35.0930 C   0  0  0  0  0  0  0  0  0  0  0  0
   37.4350   26.1470   34.0550 C   0  0  0  0  0  0  0  0  0  0  0  0
   37.2780   25.6310   32.8050 N   0  0  0  0  0  0  0  0  0  0  0  0
   37.4810   24.3190   32.5180 C   0  0  0  0  0  0  0  0  0  0  0  0
   37.8530   23.4940   33.5030 N   0  0  0  0  0  0  0  0  0  0  0  0
   37.9330   25.7370   36.0540 H   0  0  0  0  0  0  0  0  0  0  0  0
   37.3300   24.0040   31.4940 H   0  0  0  0  0  0  0  0  0  0  0  0
   37.2090   27.5620   34.3330 C   0  0  0  0  0  0  0  0  0  0  0  0
   36.7290   28.1880   33.6230 H   0  0  0  0  0  0  0  0  0  0  0  0
   37.5820   28.0700   35.4290 O   0  0  0  0  0  0  0  0  0  0  0  0
  1  6  1  0  0  0  0
  1  2  1  0  0  0  0
  2  9  1  0  0  0  0
  2  3  1  0  0  0  0
  3  4  1  0  0  0  0
  3 11  1  0  0  0  0
  4 13  1  0  0  0  0
  4 12  1  0  0  0  0
  5 15  1  0  0  0  0
  5  4  1  0  0  0  0
  6 16  1  0  0  0  0
  6  5  1  0  0  0  0
  7  1  1  0  0  0  0
  8  2  1  0  0  0  0
 10  3  1  0  0  0  0
 14  5  1  0  0  0  0
 17  6  1  0  0  0  0
 18 19  1  0  0  0  0
 18  1  1  0  0  0  0
 19 24  1  0  0  0  0
 20 26  1  0  0  0  0
 20 19  2  0  0  0  0
 21 20  1  0  0  0  0
 22 21  2  0  0  0  0
 22 23  1  0  0  0  0
 23 18  2  0  0  0  0
 25 22  1  0  0  0  0
 26 28  2  0  0  0  0
 27 26  1  0  0  0  0
M  END
>  <minimizedAffinity>
-4.05179119

$$$$

 OpenBabel03272506193D

 28 29  0  0  0  0  0  0  0  0999 V2000
   37.6220   27.0130   33.1770 C   0  0  0  0  0  0  0  0  0  0  0  0
   36.9830   27.2380   34.5330 C   0  0  0  0  0  0  0  0  0  0  0  0
   37.9450   27.7530   35.5630 C   0  0  0  0  0  0  0  0  0  0  0  0
   39.1690   26.8880   35.6990 C   0  0  0  0  0  0  0  0  0  0  0  0
   39.7040   26.4080   34.3850 C   0  0  0  0  0  0  0  0  0  0  0  0
   39.1060   27.1600   33.2130 C   0  0  0  0  0  0  0  0  0  0  0  0
   37.3600   25.9900   32.8730 H   0  0  0  0  0  0  0  0  0  0  0  0
   36.2050   28.0510   34.4420 H   0  0  0  0  0  0  0  0  0  0  0  0
   36.4480   26.3360   34.8880 H   0  0  0  0  0  0  0  0  0  0  0  0
   38.1800   28.8140   35.3430 H   0  0  0  0  0  0  0  0  0  0  0  0
   37.4110   27.7010   36.5400 H   0  0  0  0  0  0  0  0  0  0  0  0
   38.9920   26.0490   36.3900 H   0  0  0  0  0  0  0  0  0  0  0  0
   39.9660   27.5410   36.1530 H   0  0  0  0  0  0  0  0  0  0  0  0
   39.3600   25.3490   34.2510 H   0  0  0  0  0  0  0  0  0  0  0  0
   40.7940   26.4080   34.3190 H   0  0  0  0  0  0  0  0  0  0  0  0
   39.4100   28.2320   33.3610 H   0  0  0  0  0  0  0  0  0  0  0  0
   39.5640   26.8140   32.2900 H   0  0  0  0  0  0  0  0  0  0  0  0
   37.0910   28.0180   32.2080 C   0  0  0  0  0  0  0  0  0  0  0  0
   37.6320   27.9930   30.9090 C   0  0  0  0  0  0  0  0  0  0  0  0
   37.1460   28.9380   30.0040 C   0  0  0  0  0  0  0  0  0  0  0  0
   36.1940   29.8190   30.4170 N   0  0  0  0  0  0  0  0  0  0  0  0
   35.6900   29.8220   31.6780 C   0  0  0  0  0  0  0  0  0  0  0  0
   36.1450   28.9210   32.5560 N   0  0  0  0  0  0  0  0  0  0  0  0
   38.3730   27.3230   30.5500 H   0  0  0  0  0  0  0  0  0  0  0  0
   34.9360   30.5620   31.9120 H   0  0  0  0  0  0  0  0  0  0  0  0
   37.6700   28.9600   28.6420 C   0  0  0  0  0  0  0  0  0  0  0  0
   37.2470   29.5940   27.9040 H   0  0  0  0  0  0  0  0  0  0  0  0
   38.6410   28.2180   28.3140 O   0  0  0  0  0  0  0  0  0  0  0  0
  1  6  1  0  0  0  0
  1  2  1  0  0  0  0
  2  9  1  0  0  0  0
  2  3  1  0  0  0  0
  3  4  1  0  0  0  0
  3 11  1  0  0  0  0
  4 13  1  0  0  0  0
  4 12  1  0  0  0  0
  5  4  1  0  0  0  0
  6 16  1  0  0  0  0
  6  5  1  0  0  0  0
  7  1  1  0  0  0  0
  8  2  1  0  0  0  0
 10  3  1  0  0  0  0
 14  5  1  0  0  0  0
 15  5  1  0  0  0  0
 17  6  1  0  0  0  0
 18 23  1  0  0  0  0
 18  1  1  0  0  0  0
 19 18  2  0  0  0  0
 20 21  2  0  0  0  0
 20 19  1  0  0  0  0
 21 22  1  0  0  0  0
 22 25  1  0  0  0  0
 22 23  2  0  0  0  0
 24 19  1  0  0  0  0
 26 20  1  0  0  0  0
 27 26  1  0  0  0  0
 28 26  2  0  0  0  0
M  END
>  <minimizedAffinity>
-4.01802206

$$$$

 OpenBabel03272506193D

 28 29  0  0  0  0  0  0  0  0999 V2000
   37.2750   27.0970   33.6370 C   0  0  0  0  0  0  0  0  0  0  0  0
   37.4080   27.0040   35.1440 C   0  0  0  0  0  0  0  0  0  0  0  0
   38.7910   27.3140   35.6370 C   0  0  0  0  0  0  0  0  0  0  0  0
   39.8480   26.4780   34.9660 C   0  0  0  0  0  0  0  0  0  0  0  0
   39.6240   26.3100   33.4940 C   0  0  0  0  0  0  0  0  0  0  0  0
   38.5900   27.2790   32.9570 C   0  0  0  0  0  0  0  0  0  0  0  0
   36.8140   26.1570   33.3050 H   0  0  0  0  0  0  0  0  0  0  0  0
   36.7560   27.7930   35.6200 H   0  0  0  0  0  0  0  0  0  0  0  0
   37.0460   26.0310   35.5280 H   0  0  0  0  0  0  0  0  0  0  0  0
   38.9730   28.4040   35.5490 H   0  0  0  0  0  0  0  0  0  0  0  0
   38.8060   27.0350   36.7160 H   0  0  0  0  0  0  0  0  0  0  0  0
   39.9670   25.5040   35.4660 H   0  0  0  0  0  0  0  0  0  0  0  0
   40.8150   27.0420   35.0830 H   0  0  0  0  0  0  0  0  0  0  0  0
   39.1740   25.2950   33.3380 H   0  0  0  0  0  0  0  0  0  0  0  0
   40.5360   26.3590   32.8950 H   0  0  0  0  0  0  0  0  0  0  0  0
   39.0140   28.3020   33.1480 H   0  0  0  0  0  0  0  0  0  0  0  0
   38.5030   27.1560   31.8810 H   0  0  0  0  0  0  0  0  0  0  0  0
   36.4190   28.2720   33.2890 C   0  0  0  0  0  0  0  0  0  0  0  0
   35.8890   29.0080   34.3640 C   0  0  0  0  0  0  0  0  0  0  0  0
   35.0790   30.1000   34.0440 C   0  0  0  0  0  0  0  0  0  0  0  0
   34.8480   30.3870   32.7330 N   0  0  0  0  0  0  0  0  0  0  0  0
   35.3720   29.6580   31.7140 C   0  0  0  0  0  0  0  0  0  0  0  0
   36.1510   28.6100   32.0060 N   0  0  0  0  0  0  0  0  0  0  0  0
   36.0460   28.8150   35.3960 H   0  0  0  0  0  0  0  0  0  0  0  0
   35.1310   29.9650   30.7060 H   0  0  0  0  0  0  0  0  0  0  0  0
   34.5010   30.9020   35.1170 C   0  0  0  0  0  0  0  0  0  0  0  0
   33.4620   31.1160   35.1400 H   0  0  0  0  0  0  0  0  0  0  0  0
   35.2310   31.3580   36.0430 O   0  0  0  0  0  0  0  0  0  0  0  0
  1  2  1  0  0  0  0
  2  9  1  0  0  0  0
  2  8  1  0  0  0  0
  2  3  1  0  0  0  0
  3 11  1  0  0  0  0
  4 13  1  0  0  0  0
  4 12  1  0  0  0  0
  4  3  1  0  0  0  0
  5  4  1  0  0  0  0
  6 16  1  0  0  0  0
  6  5  1  0  0  0  0
  6  1  1  0  0  0  0
  7  1  1  0  0  0  0
 10  3  1  0  0  0  0
 14  5  1  0  0  0  0
 15  5  1  0  0  0  0
 17  6  1  0  0  0  0
 18  1  1  0  0  0  0
 18 19  1  0  0  0  0
 19 24  1  0  0  0  0
 20 19  2  0  0  0  0
 20 26  1  0  0  0  0
 21 20  1  0  0  0  0
 22 23  1  0  0  0  0
 22 21  2  0  0  0  0
 23 18  2  0  0  0  0
 25 22  1  0  0  0  0
 26 27  1  0  0  0  0
 26 28  2  0  0  0  0
M  END
>  <minimizedAffinity>
-4.00335455

$$$$

 OpenBabel03272506193D

 28 29  0  0  0  0  0  0  0  0999 V2000
   37.1930   26.9020   34.8320 C   0  0  0  0  0  0  0  0  0  0  0  0
   38.3960   27.4240   35.5930 C   0  0  0  0  0  0  0  0  0  0  0  0
   39.6920   26.8230   35.1350 C   0  0  0  0  0  0  0  0  0  0  0  0
   39.6740   25.3180   35.1540 C   0  0  0  0  0  0  0  0  0  0  0  0
   38.3880   24.7350   34.6530 C   0  0  0  0  0  0  0  0  0  0  0  0
   37.5350   25.7610   33.9350 C   0  0  0  0  0  0  0  0  0  0  0  0
   36.4640   26.5740   35.5850 H   0  0  0  0  0  0  0  0  0  0  0  0
   38.5090   28.5280   35.3870 H   0  0  0  0  0  0  0  0  0  0  0  0
   38.2630   27.3250   36.6870 H   0  0  0  0  0  0  0  0  0  0  0  0
   39.9600   27.2450   34.1450 H   0  0  0  0  0  0  0  0  0  0  0  0
   40.4600   27.1390   35.8780 H   0  0  0  0  0  0  0  0  0  0  0  0
   39.9290   24.9270   36.1520 H   0  0  0  0  0  0  0  0  0  0  0  0
   40.4790   24.9850   34.4410 H   0  0  0  0  0  0  0  0  0  0  0  0
   37.7840   24.4370   35.5490 H   0  0  0  0  0  0  0  0  0  0  0  0
   38.5130   23.8450   34.0320 H   0  0  0  0  0  0  0  0  0  0  0  0
   38.1500   26.0980   33.0570 H   0  0  0  0  0  0  0  0  0  0  0  0
   36.6420   25.2790   33.5440 H   0  0  0  0  0  0  0  0  0  0  0  0
   36.6350   27.9960   33.9800 C   0  0  0  0  0  0  0  0  0  0  0  0
   36.8710   27.9040   32.5970 C   0  0  0  0  0  0  0  0  0  0  0  0
   36.3610   28.9290   31.7990 C   0  0  0  0  0  0  0  0  0  0  0  0
   35.6770   29.9470   32.3900 N   0  0  0  0  0  0  0  0  0  0  0  0
   35.4640   30.0120   33.7300 C   0  0  0  0  0  0  0  0  0  0  0  0
   35.9460   29.0350   34.5070 N   0  0  0  0  0  0  0  0  0  0  0  0
   37.3990   27.1280   32.1000 H   0  0  0  0  0  0  0  0  0  0  0  0
   34.9090   30.8610   34.1060 H   0  0  0  0  0  0  0  0  0  0  0  0
   36.5750   28.8870   30.3560 C   0  0  0  0  0  0  0  0  0  0  0  0
   36.4070   27.9960   29.8040 H   0  0  0  0  0  0  0  0  0  0  0  0
   36.9660   29.9160   29.7330 O   0  0  0  0  0  0  0  0  0  0  0  0
  1  7  1  0  0  0  0
  1  2  1  0  0  0  0
  2  9  1  0  0  0  0
  3  4  1  0  0  0  0
  3  2  1  0  0  0  0
  3 11  1  0  0  0  0
  4 12  1  0  0  0  0
  5  4  1  0  0  0  0
  5 14  1  0  0  0  0
  6  5  1  0  0  0  0
  6  1  1  0  0  0  0
  8  2  1  0  0  0  0
 10  3  1  0  0  0  0
 13  4  1  0  0  0  0
 15  5  1  0  0  0  0
 16  6  1  0  0  0  0
 17  6  1  0  0  0  0
 18 23  1  0  0  0  0
 18  1  1  0  0  0  0
 19 18  2  0  0  0  0
 20 21  2  0  0  0  0
 20 19  1  0  0  0  0
 21 22  1  0  0  0  0
 22 25  1  0  0  0  0
 22 23  2  0  0  0  0
 24 19  1  0  0  0  0
 26 20  1  0  0  0  0
 27 26  1  0  0  0  0
 28 26  2  0  0  0  0
M  END
>  <minimizedAffinity>
-3.99558258

$$$$
