
 OpenBabel03272503423D

 40 43  0  0  1  0  0  0  0  0999 V2000
   38.3620   31.1720   45.8800 C   0  0  0  0  0  0  0  0  0  0  0  0
   39.7040   31.0210   46.0960 C   0  0  0  0  0  0  0  0  0  0  0  0
   40.2990   31.4500   44.8990 C   0  0  0  0  0  0  0  0  0  0  0  0
   39.3390   31.8250   44.0440 N   0  0  0  0  0  0  0  0  0  0  0  0
   38.1600   31.6570   44.6410 N   0  0  0  0  0  0  0  0  0  0  0  0
   40.2350   30.6610   46.9690 H   0  0  0  0  0  0  0  0  0  0  0  0
   41.3750   31.4420   44.7750 H   0  0  0  0  0  0  0  0  0  0  0  0
   39.6600   31.1740   41.7170 C   0  0  2  0  0  0  0  0  0  0  0  0
   39.6230   32.3180   42.7200 C   0  0  1  0  0  0  0  0  0  0  0  0
   38.4640   33.0930   42.1270 C   0  0  0  0  0  0  0  0  0  0  0  0
   38.5470   32.9780   40.7610 O   0  0  0  0  0  0  0  0  0  0  0  0
   39.4340   31.9990   40.4330 C   0  0  0  0  0  0  0  0  0  0  0  0
   40.6040   30.6540   41.6470 H   0  0  0  0  0  0  0  0  0  0  0  0
   40.5170   32.9330   42.7020 H   0  0  0  0  0  0  0  0  0  0  0  0
   37.5130   32.5790   42.4200 H   0  0  0  0  0  0  0  0  0  0  0  0
   38.4800   34.1460   42.4260 H   0  0  0  0  0  0  0  0  0  0  0  0
   39.0520   31.2800   39.6710 H   0  0  0  0  0  0  0  0  0  0  0  0
   40.4150   32.4220   40.1110 H   0  0  0  0  0  0  0  0  0  0  0  0
   38.5530   30.3900   41.9380 O   0  0  0  0  0  0  0  0  0  0  0  0
   38.7460   29.0550   41.9750 C   0  0  1  0  0  3  0  0  0  0  0  0
   38.6170   28.3160   40.6640 C   0  0  0  0  0  3  0  0  0  0  0  0
   39.2450   28.7520   39.8730 H   0  0  0  0  0  0  0  0  0  0  0  0
   39.2390   26.9960   41.0900 C   0  0  0  0  0  3  0  0  0  0  0  0
   38.4150   26.4280   41.6010 H   0  0  0  0  0  0  0  0  0  0  0  0
   40.2000   27.2670   42.0300 O   0  0  0  0  0  0  0  0  0  0  0  0
   40.1000   28.5880   42.4100 C   0  0  0  0  0  3  0  0  0  0  0  0
   40.9370   29.1230   41.9480 H   0  0  0  0  0  0  0  0  0  0  0  0
   36.4830   30.6290   49.0820 C   0  0  0  0  0  0  0  0  0  0  0  0
   37.4980   30.9390   48.2100 C   0  0  0  0  0  0  0  0  0  0  0  0
   37.3240   30.8560   46.8440 C   0  0  0  0  0  0  0  0  0  0  0  0
   36.1130   30.4570   46.4100 N   0  0  0  0  0  0  0  0  0  0  0  0
   35.1060   30.1500   47.2810 C   0  0  0  0  0  0  0  0  0  0  0  0
   35.2750   30.2300   48.5840 N   0  0  0  0  0  0  0  0  0  0  0  0
   38.5010   31.2680   48.5230 H   0  0  0  0  0  0  0  0  0  0  0  0
   34.1460   29.8330   46.8720 H   0  0  0  0  0  0  0  0  0  0  0  0
   36.8270   30.7650   50.4160 O   0  0  0  0  0  0  0  0  0  0  0  0
   36.8870   29.6880   51.3250 C   0  0  0  0  0  0  0  0  0  0  0  0
   35.6080   29.2420   51.6440 F   0  0  0  0  0  0  0  0  0  0  0  0
   37.5650   30.0950   52.4470 F   0  0  0  0  0  0  0  0  0  0  0  0
   37.6060   28.6730   50.7360 F   0  0  0  0  0  0  0  0  0  0  0  0
  1  2  1  0  0  0  0
  1 30  1  0  0  0  0
  2  6  1  0  0  0  0
  3  2  2  0  0  0  0
  4  5  1  0  0  0  0
  4  3  1  0  0  0  0
  5  1  2  0  0  0  0
  7  3  1  0  0  0  0
  8 13  1  1  0  0  0
  8 19  1  0  0  0  0
  8  9  1  0  0  0  0
  9 14  1  6  0  0  0
  9  4  1  0  0  0  0
 10 15  1  0  0  0  0
 10 16  1  0  0  0  0
 10  9  1  0  0  0  0
 11 10  1  0  0  0  0
 12 11  1  0  0  0  0
 12  8  1  0  0  0  0
 17 12  1  0  0  0  0
 18 12  1  0  0  0  0
 20 19  1  6  0  0  0
 20 26  1  0  0  0  0
 21 23  1  0  0  0  0
 21 20  1  0  0  0  0
 22 21  1  0  0  0  0
 23 24  1  0  0  0  0
 23 25  1  0  0  0  0
 25 26  1  0  0  0  0
 27 26  1  0  0  0  0
 28 36  1  0  0  0  0
 29 34  1  0  0  0  0
 29 28  2  0  0  0  0
 30 29  1  0  0  0  0
 31 30  2  0  0  0  0
 31 32  1  0  0  0  0
 32 33  2  0  0  0  0
 33 28  1  0  0  0  0
 35 32  1  0  0  0  0
 36 37  1  0  0  0  0
 37 38  1  0  0  0  0
 37 39  1  0  0  0  0
 40 37  1  0  0  0  0
M  END
>  <minimizedAffinity>
-6.01114321

>  <minimizedRMSD>
0.500244379

$$$$
