
 OpenBabel03272503423D

 40 43  0  0  1  0  0  0  0  0999 V2000
   38.3660   31.1760   45.8740 C   0  0  0  0  0  0  0  0  0  0  0  0
   39.7100   31.0540   46.0970 C   0  0  0  0  0  0  0  0  0  0  0  0
   40.3010   31.4800   44.8970 C   0  0  0  0  0  0  0  0  0  0  0  0
   39.3370   31.8280   44.0340 N   0  0  0  0  0  0  0  0  0  0  0  0
   38.1600   31.6430   44.6280 N   0  0  0  0  0  0  0  0  0  0  0  0
   40.2430   30.7130   46.9760 H   0  0  0  0  0  0  0  0  0  0  0  0
   41.3770   31.4930   44.7780 H   0  0  0  0  0  0  0  0  0  0  0  0
   39.9540   31.1570   41.7740 C   0  0  2  0  0  0  0  0  0  0  0  0
   39.6170   32.3110   42.7060 C   0  0  1  0  0  0  0  0  0  0  0  0
   38.3770   32.8130   41.9960 C   0  0  0  0  0  0  0  0  0  0  0  0
   38.5820   32.6590   40.6470 O   0  0  0  0  0  0  0  0  0  0  0  0
   39.6670   31.8650   40.4330 C   0  0  0  0  0  0  0  0  0  0  0  0
   40.9850   30.8340   41.7940 H   0  0  0  0  0  0  0  0  0  0  0  0
   40.3720   33.0920   42.7120 H   0  0  0  0  0  0  0  0  0  0  0  0
   37.5260   32.1310   42.2550 H   0  0  0  0  0  0  0  0  0  0  0  0
   38.1620   33.8590   42.2350 H   0  0  0  0  0  0  0  0  0  0  0  0
   39.4920   31.0530   39.6890 H   0  0  0  0  0  0  0  0  0  0  0  0
   40.5660   32.4620   40.1520 H   0  0  0  0  0  0  0  0  0  0  0  0
   39.0090   30.1770   41.9650 O   0  0  0  0  0  0  0  0  0  0  0  0
   39.4580   28.9100   42.0870 C   0  0  1  0  0  3  0  0  0  0  0  0
   38.9900   28.1400   43.3000 C   0  0  0  0  0  3  0  0  0  0  0  0
   37.8940   28.1490   43.4040 H   0  0  0  0  0  0  0  0  0  0  0  0
   39.4120   26.7480   42.8570 C   0  0  0  0  0  3  0  0  0  0  0  0
   40.5040   26.6730   43.1120 H   0  0  0  0  0  0  0  0  0  0  0  0
   39.3010   26.6890   41.4920 O   0  0  0  0  0  0  0  0  0  0  0  0
   39.0710   27.9560   41.0020 C   0  0  0  0  0  3  0  0  0  0  0  0
   38.0160   28.0030   40.7080 H   0  0  0  0  0  0  0  0  0  0  0  0
   36.4890   30.6150   49.0740 C   0  0  0  0  0  0  0  0  0  0  0  0
   37.5020   30.9350   48.2020 C   0  0  0  0  0  0  0  0  0  0  0  0
   37.3300   30.8500   46.8370 C   0  0  0  0  0  0  0  0  0  0  0  0
   36.1230   30.4390   46.4010 N   0  0  0  0  0  0  0  0  0  0  0  0
   35.1190   30.1230   47.2720 C   0  0  0  0  0  0  0  0  0  0  0  0
   35.2860   30.2050   48.5750 N   0  0  0  0  0  0  0  0  0  0  0  0
   38.5010   31.2740   48.5160 H   0  0  0  0  0  0  0  0  0  0  0  0
   34.1620   29.7960   46.8630 H   0  0  0  0  0  0  0  0  0  0  0  0
   36.8310   30.7550   50.4080 O   0  0  0  0  0  0  0  0  0  0  0  0
   36.8900   29.6810   51.3200 C   0  0  0  0  0  0  0  0  0  0  0  0
   35.6110   29.2380   51.6410 F   0  0  0  0  0  0  0  0  0  0  0  0
   37.5700   30.0900   52.4400 F   0  0  0  0  0  0  0  0  0  0  0  0
   37.6060   28.6630   50.7330 F   0  0  0  0  0  0  0  0  0  0  0  0
  1  2  1  0  0  0  0
  1 30  1  0  0  0  0
  2  6  1  0  0  0  0
  3  2  2  0  0  0  0
  4  5  1  0  0  0  0
  4  3  1  0  0  0  0
  5  1  2  0  0  0  0
  7  3  1  0  0  0  0
  8 13  1  1  0  0  0
  8 19  1  0  0  0  0
  8  9  1  0  0  0  0
  9 14  1  1  0  0  0
  9  4  1  0  0  0  0
 10 16  1  0  0  0  0
 10 15  1  0  0  0  0
 10  9  1  0  0  0  0
 11 10  1  0  0  0  0
 12 11  1  0  0  0  0
 12  8  1  0  0  0  0
 17 12  1  0  0  0  0
 18 12  1  0  0  0  0
 20 19  1  6  0  0  0
 20 21  1  0  0  0  0
 21 22  1  0  0  0  0
 23 24  1  0  0  0  0
 23 21  1  0  0  0  0
 25 23  1  0  0  0  0
 26 25  1  0  0  0  0
 26 20  1  0  0  0  0
 27 26  1  0  0  0  0
 28 36  1  0  0  0  0
 29 34  1  0  0  0  0
 29 28  2  0  0  0  0
 30 29  1  0  0  0  0
 31 30  2  0  0  0  0
 31 32  1  0  0  0  0
 32 33  2  0  0  0  0
 33 28  1  0  0  0  0
 35 32  1  0  0  0  0
 36 37  1  0  0  0  0
 37 38  1  0  0  0  0
 37 39  1  0  0  0  0
 40 37  1  0  0  0  0
M  END
>  <minimizedAffinity>
-6.12255573

>  <minimizedRMSD>
0.569925964

$$$$
