
 OpenBabel03272502303D

 23 24  0  0  1  0  0  0  0  0999 V2000
   39.8080   32.7260   46.1880 C   0  0  0  0  0  0  0  0  0  0  0  0
   40.8900   32.4940   46.1200 H   0  0  0  0  0  0  0  0  0  0  0  0
   39.6630   33.6230   46.8410 H   0  0  0  0  0  0  0  0  0  0  0  0
   38.0820   32.4510   44.4560 C   0  0  0  0  0  3  0  0  0  0  0  0
   39.2220   32.9680   44.8330 C   0  0  0  0  0  3  0  0  0  0  0  0
   37.7280   33.2120   40.8390 C   0  0  0  0  0  0  0  0  0  0  0  0
   38.3490   32.9840   42.0770 C   0  0  0  0  0  0  0  0  0  0  0  0
   37.5410   32.6980   43.1530 C   0  0  0  0  0  0  0  0  0  0  0  0
   36.1900   32.6420   42.9970 N   0  0  0  0  0  0  0  0  0  0  0  0
   35.6310   32.8680   41.7840 C   0  0  0  0  0  0  0  0  0  0  0  0
   36.3860   33.1510   40.7090 N   0  0  0  0  0  0  0  0  0  0  0  0
   38.3790   33.4410   39.9800 H   0  0  0  0  0  0  0  0  0  0  0  0
   39.4250   33.0360   42.1680 H   0  0  0  0  0  0  0  0  0  0  0  0
   34.5500   32.8040   41.7420 H   0  0  0  0  0  0  0  0  0  0  0  0
   39.0250   31.2730   46.9490 S   0  0  0  0  0  0  0  0  0  0  0  0
   37.8780   31.8490   48.2150 C   0  0  1  0  0  3  0  0  0  0  0  0
   36.6550   30.9370   48.3330 C   0  0  0  0  0  3  0  0  0  0  0  0
   37.0030   29.8900   48.2340 H   0  0  0  0  0  0  0  0  0  0  0  0
   36.3020   31.1380   49.7930 C   0  0  0  0  0  3  0  0  0  0  0  0
   35.8010   32.1260   49.9030 H   0  0  0  0  0  0  0  0  0  0  0  0
   37.5480   31.1110   50.3960 O   0  0  0  0  0  0  0  0  0  0  0  0
   38.4450   31.7750   49.5990 C   0  0  0  0  0  3  0  0  0  0  0  0
   39.3680   31.1500   49.5230 H   0  0  0  0  0  0  0  0  0  0  0  0
  1  3  1  0  0  0  0
  1 15  1  0  0  0  0
  2  1  1  0  0  0  0
  4  5  2  0  0  0  0
  5  1  1  0  0  0  0
  6  7  1  0  0  0  0
  7 13  1  0  0  0  0
  7  8  2  0  0  0  0
  8  4  1  0  0  0  0
  9  8  1  0  0  0  0
 10  9  2  0  0  0  0
 11  6  2  0  0  0  0
 11 10  1  0  0  0  0
 12  6  1  0  0  0  0
 14 10  1  0  0  0  0
 16 15  1  6  0  0  0
 16 17  1  0  0  0  0
 16 22  1  0  0  0  0
 17 19  1  0  0  0  0
 18 17  1  0  0  0  0
 19 20  1  0  0  0  0
 19 21  1  0  0  0  0
 22 21  1  0  0  0  0
 23 22  1  0  0  0  0
M  END
>  <minimizedAffinity>
-3.65957832

>  <minimizedRMSD>
7.24104166

$$$$
