REMARK  Name = 
REMARK  7 active torsions:
REMARK  status: ('A' for Active; 'I' for Inactive)
REMARK    1  A    between atoms: C_1  and  C_7
REMARK    2  A    between atoms: C_6  and  C_15
REMARK    3  A    between atoms: C_7  and  O_8
REMARK    4  A    between atoms: C_7  and  C_13
REMARK    5  A    between atoms: C_16  and  C_17
REMARK    6  A    between atoms: C_17  and  S_18
REMARK    7  A    between atoms: S_18  and  C_32
REMARK                            x       y       z     vdW  Elec       q    Type
REMARK                         _______ _______ _______ _____ _____    ______ ____
ROOT
ATOM      1  C   UNL     1      37.079  30.949  49.028  0.00  0.00    +0.000 A 
ATOM      2  C   UNL     1      36.809  31.879  50.034  0.00  0.00    +0.000 A 
ATOM      3  C   UNL     1      37.425  33.123  50.062  0.00  0.00    +0.000 A 
ATOM      4  C   UNL     1      38.339  33.459  49.061  0.00  0.00    +0.000 A 
ATOM      5  C   UNL     1      38.594  32.540  48.083  0.00  0.00    +0.000 A 
ATOM      6  C   UNL     1      37.960  31.306  48.088  0.00  0.00    +0.000 A 
ATOM      7  H   UNL     1      36.094  31.604  50.807  0.00  0.00    +0.000 HD
ATOM      8  H   UNL     1      37.158  33.768  50.868  0.00  0.00    +0.000 HD
ATOM      9  H   UNL     1      38.766  34.439  49.162  0.00  0.00    +0.000 HD
ATOM     10  H   UNL     1      39.324  32.942  47.382  0.00  0.00    +0.000 HD
ENDROOT
BRANCH   1  11
ATOM     11  C   UNL     1      36.465  29.639  49.017  0.00  0.00    +0.000 C 
ATOM     12  H   UNL     1      37.007  29.056  48.176  0.00  0.00    +0.000 HD
BRANCH  11  17
ATOM     13  C   UNL     1      33.616  30.145  46.820  0.00  0.00    +0.000 A 
ATOM     14  C   UNL     1      32.955  28.932  46.843  0.00  0.00    +0.000 A 
ATOM     15  C   UNL     1      33.448  27.939  47.668  0.00  0.00    +0.000 A 
ATOM     16  N   UNL     1      34.568  28.186  48.431  0.00  0.00    +0.000 NA
ATOM     17  C   UNL     1      35.155  29.365  48.362  0.00  0.00    +0.000 A 
ATOM     18  N   UNL     1      34.686  30.350  47.563  0.00  0.00    +0.000 NA
ATOM     19  H   UNL     1      33.194  30.892  46.160  0.00  0.00    +0.000 HD
ATOM     20  H   UNL     1      32.081  28.640  46.290  0.00  0.00    +0.000 HD
ATOM     21  H   UNL     1      33.038  26.947  47.791  0.00  0.00    +0.000 HD
ENDBRANCH  11  17
BRANCH  11  22
ATOM     22  O   UNL     1      36.861  28.901  49.994  0.00  0.00    +0.000 OA
ATOM     23  H   UNL     1      36.353  28.138  50.324  0.00  0.00    +0.000 HD
ENDBRANCH  11  22
ENDBRANCH   1  11
BRANCH   6  24
ATOM     24  C   UNL     1      38.343  30.419  47.013  0.00  0.00    +0.000 C 
ATOM     25  C   UNL     1      38.825  30.836  45.837  0.00  0.00    +0.000 C 
BRANCH  25  26
ATOM     26  C   UNL     1      39.285  30.024  44.688  0.00  0.00    +0.000 C 
ATOM     27  H   UNL     1      40.347  29.762  44.873  0.00  0.00    +0.000 HD
ATOM     28  H   UNL     1      38.707  29.070  44.598  0.00  0.00    +0.000 HD
BRANCH  26  29
ATOM     29  S   UNL     1      39.179  30.995  43.180  0.00  0.00    +0.000 S 
BRANCH  29  30
ATOM     30  C   UNL     1      37.429  31.318  42.850  0.00  0.00    +0.000 C 
ATOM     31  C   UNL     1      36.501  30.443  43.643  0.00  0.00    +0.000 C 
ATOM     32  H   UNL     1      36.981  29.959  44.525  0.00  0.00    +0.000 HD
ATOM     33  C   UNL     1      35.393  31.379  43.996  0.00  0.00    +0.000 C 
ATOM     34  H   UNL     1      34.525  31.254  43.314  0.00  0.00    +0.000 HD
ATOM     35  O   UNL     1      35.822  32.674  43.889  0.00  0.00    +0.000 OA
ATOM     36  C   UNL     1      37.094  32.691  43.384  0.00  0.00    +0.000 C 
ATOM     37  H   UNL     1      37.845  32.991  44.172  0.00  0.00    +0.000 HD
ENDBRANCH  29  30
ENDBRANCH  26  29
ENDBRANCH  25  26
ENDBRANCH   6  24
TORSDOF 7
