
 OpenBabel03272500053D

 28 30  0  0  1  0  0  0  0  0999 V2000
   38.5090   26.6270   35.9420 C   0  0  0  0  0  0  0  0  0  0  0  0
   38.5190   25.3620   35.3080 C   0  0  0  0  0  0  0  0  0  0  0  0
   37.7710   25.2170   34.1600 C   0  0  0  0  0  0  0  0  0  0  0  0
   37.0610   26.2870   33.6900 N   0  0  0  0  0  0  0  0  0  0  0  0
   37.0660   27.4670   34.3040 C   0  0  0  0  0  0  0  0  0  0  0  0
   37.7920   27.6530   35.4400 N   0  0  0  0  0  0  0  0  0  0  0  0
   39.0880   26.7700   36.8460 H   0  0  0  0  0  0  0  0  0  0  0  0
   37.7690   24.2720   33.6730 H   0  0  0  0  0  0  0  0  0  0  0  0
   39.3020   24.3370   35.9040 N   0  0  0  0  0  0  0  0  0  0  0  0
   40.5560   24.0770   35.5340 C   0  0  0  0  0  0  0  0  0  0  0  0
   41.2560   23.0430   36.1780 C   0  0  0  0  0  0  0  0  0  0  0  0
   40.5670   22.3800   37.1490 C   0  0  0  0  0  0  0  0  0  0  0  0
   41.2250   21.4470   37.7160 O   0  0  0  0  0  0  0  0  0  0  0  0
   39.3190   22.6200   37.5330 N   0  0  0  0  0  0  0  0  0  0  0  0
   38.6790   23.6230   36.8890 C   0  0  0  0  0  0  0  0  0  0  0  0
   37.4760   23.8530   37.2610 O   0  0  0  0  0  0  0  0  0  0  0  0
   41.0210   24.6470   34.7630 H   0  0  0  0  0  0  0  0  0  0  0  0
   42.2790   22.8220   35.8860 H   0  0  0  0  0  0  0  0  0  0  0  0
   38.8200   22.0820   38.2920 H   0  0  0  0  0  0  0  0  0  0  0  0
   36.3430   28.5450   33.8190 O   0  0  0  0  0  0  0  0  0  0  0  0
   35.8070   28.6080   32.5150 C   0  0  2  0  0  3  0  0  0  0  0  0
   36.8770   29.0400   31.5650 C   0  0  0  0  0  3  0  0  0  0  0  0
   36.9670   28.3630   30.6900 H   0  0  0  0  0  0  0  0  0  0  0  0
   36.2920   30.3430   31.0100 C   0  0  0  0  0  3  0  0  0  0  0  0
   36.4790   30.4660   29.9420 H   0  0  0  0  0  0  0  0  0  0  0  0
   34.8980   30.1780   31.1650 O   0  0  0  0  0  0  0  0  0  0  0  0
   34.8250   29.7420   32.4790 C   0  0  0  0  0  3  0  0  0  0  0  0
   35.1450   30.5320   33.1870 H   0  0  0  0  0  0  0  0  0  0  0  0
  1  7  1  0  0  0  0
  2  9  1  0  0  0  0
  2  1  2  0  0  0  0
  3  2  1  0  0  0  0
  4  3  2  0  0  0  0
  4  5  1  0  0  0  0
  5  6  2  0  0  0  0
  6  1  1  0  0  0  0
  8  3  1  0  0  0  0
  9 15  1  0  0  0  0
 10  9  1  0  0  0  0
 10 11  2  0  0  0  0
 11 12  1  0  0  0  0
 12 14  1  0  0  0  0
 12 13  2  0  0  0  0
 14 19  1  0  0  0  0
 15 16  2  0  0  0  0
 15 14  1  0  0  0  0
 17 10  1  0  0  0  0
 18 11  1  0  0  0  0
 20  5  1  0  0  0  0
 21 20  1  1  0  0  0
 22 21  1  0  0  0  0
 23 22  1  0  0  0  0
 24 26  1  0  0  0  0
 24 22  1  0  0  0  0
 25 24  1  0  0  0  0
 26 27  1  0  0  0  0
 27 21  1  0  0  0  0
 27 28  1  0  0  0  0
M  END
>  <minimizedAffinity>
-5.21461535

$$$$

 OpenBabel03272500053D

 28 30  0  0  1  0  0  0  0  0999 V2000
   38.1550   24.5680   34.1400 C   0  0  0  0  0  0  0  0  0  0  0  0
   38.7730   24.9320   35.3590 C   0  0  0  0  0  0  0  0  0  0  0  0
   38.5370   26.2020   35.8420 C   0  0  0  0  0  0  0  0  0  0  0  0
   37.7250   27.0420   35.1310 N   0  0  0  0  0  0  0  0  0  0  0  0
   37.1540   26.6760   33.9860 C   0  0  0  0  0  0  0  0  0  0  0  0
   37.3610   25.4330   33.4750 N   0  0  0  0  0  0  0  0  0  0  0  0
   38.3220   23.5780   33.7370 H   0  0  0  0  0  0  0  0  0  0  0  0
   38.9960   26.4890   36.7560 H   0  0  0  0  0  0  0  0  0  0  0  0
   39.5930   23.9610   35.9940 N   0  0  0  0  0  0  0  0  0  0  0  0
   40.8430   23.7050   35.6080 C   0  0  0  0  0  0  0  0  0  0  0  0
   41.5820   22.7270   36.2930 C   0  0  0  0  0  0  0  0  0  0  0  0
   40.9320   22.1090   37.3210 C   0  0  0  0  0  0  0  0  0  0  0  0
   41.6240   21.2260   37.9240 O   0  0  0  0  0  0  0  0  0  0  0  0
   39.6890   22.3460   37.7220 N   0  0  0  0  0  0  0  0  0  0  0  0
   39.0110   23.2950   37.0360 C   0  0  0  0  0  0  0  0  0  0  0  0
   37.8130   23.5220   37.4250 O   0  0  0  0  0  0  0  0  0  0  0  0
   41.2760   24.2370   34.7920 H   0  0  0  0  0  0  0  0  0  0  0  0
   42.6020   22.5090   35.9890 H   0  0  0  0  0  0  0  0  0  0  0  0
   39.2200   21.8450   38.5240 H   0  0  0  0  0  0  0  0  0  0  0  0
   36.3320   27.5360   33.2740 O   0  0  0  0  0  0  0  0  0  0  0  0
   36.8090   28.5040   32.3640 C   0  0  2  0  0  3  0  0  0  0  0  0
   36.0570   29.7800   32.5670 C   0  0  0  0  0  3  0  0  0  0  0  0
   36.7300   30.6540   32.6950 H   0  0  0  0  0  0  0  0  0  0  0  0
   35.3990   29.9730   31.1980 C   0  0  0  0  0  3  0  0  0  0  0  0
   35.3960   31.0160   30.8760 H   0  0  0  0  0  0  0  0  0  0  0  0
   36.2510   29.2750   30.3130 O   0  0  0  0  0  0  0  0  0  0  0  0
   36.4070   28.0730   30.9850 C   0  0  0  0  0  3  0  0  0  0  0  0
   35.4520   27.5110   31.0370 H   0  0  0  0  0  0  0  0  0  0  0  0
  1  2  1  0  0  0  0
  2  3  2  0  0  0  0
  2  9  1  0  0  0  0
  3  8  1  0  0  0  0
  4  3  1  0  0  0  0
  5  4  2  0  0  0  0
  6  5  1  0  0  0  0
  6  1  2  0  0  0  0
  7  1  1  0  0  0  0
  9 15  1  0  0  0  0
 10  9  1  0  0  0  0
 10 11  2  0  0  0  0
 11 12  1  0  0  0  0
 12 14  1  0  0  0  0
 12 13  2  0  0  0  0
 14 19  1  0  0  0  0
 15 16  2  0  0  0  0
 15 14  1  0  0  0  0
 17 10  1  0  0  0  0
 18 11  1  0  0  0  0
 20  5  1  0  0  0  0
 21 22  1  0  0  0  0
 21 20  1  1  0  0  0
 22 23  1  0  0  0  0
 24 22  1  0  0  0  0
 25 24  1  0  0  0  0
 26 27  1  0  0  0  0
 26 24  1  0  0  0  0
 27 28  1  0  0  0  0
 27 21  1  0  0  0  0
M  END
>  <minimizedAffinity>
-5.10517454

$$$$

 OpenBabel03272500053D

 28 30  0  0  1  0  0  0  0  0999 V2000
   37.7890   25.2990   34.1520 C   0  0  0  0  0  0  0  0  0  0  0  0
   38.4570   25.5550   35.3720 C   0  0  0  0  0  0  0  0  0  0  0  0
   38.3170   26.8090   35.9260 C   0  0  0  0  0  0  0  0  0  0  0  0
   37.5490   27.7380   35.2800 N   0  0  0  0  0  0  0  0  0  0  0  0
   36.9300   27.4740   34.1320 C   0  0  0  0  0  0  0  0  0  0  0  0
   37.0420   26.2490   33.5520 N   0  0  0  0  0  0  0  0  0  0  0  0
   37.8810   24.3220   33.6930 H   0  0  0  0  0  0  0  0  0  0  0  0
   38.8140   27.0160   36.8420 H   0  0  0  0  0  0  0  0  0  0  0  0
   39.2220   24.4980   35.9350 N   0  0  0  0  0  0  0  0  0  0  0  0
   40.4580   24.2040   35.5290 C   0  0  0  0  0  0  0  0  0  0  0  0
   41.1410   23.1420   36.1420 C   0  0  0  0  0  0  0  0  0  0  0  0
   40.4570   22.4880   37.1250 C   0  0  0  0  0  0  0  0  0  0  0  0
   41.1000   21.5290   37.6620 O   0  0  0  0  0  0  0  0  0  0  0  0
   39.2290   22.7620   37.5430 N   0  0  0  0  0  0  0  0  0  0  0  0
   38.6030   23.7920   36.9280 C   0  0  0  0  0  0  0  0  0  0  0  0
   37.4180   24.0550   37.3340 O   0  0  0  0  0  0  0  0  0  0  0  0
   40.9200   24.7690   34.7530 H   0  0  0  0  0  0  0  0  0  0  0  0
   42.1490   22.8920   35.8220 H   0  0  0  0  0  0  0  0  0  0  0  0
   38.7320   22.2310   38.3090 H   0  0  0  0  0  0  0  0  0  0  0  0
   36.1540   28.4230   33.4870 O   0  0  0  0  0  0  0  0  0  0  0  0
   35.6900   29.6070   34.1000 C   0  0  2  0  0  3  0  0  0  0  0  0
   34.2580   29.4280   34.4890 C   0  0  0  0  0  3  0  0  0  0  0  0
   34.0700   29.6920   35.5520 H   0  0  0  0  0  0  0  0  0  0  0  0
   33.5740   30.5290   33.6720 C   0  0  0  0  0  3  0  0  0  0  0  0
   32.7770   31.0290   34.2250 H   0  0  0  0  0  0  0  0  0  0  0  0
   34.5960   31.4840   33.4740 O   0  0  0  0  0  0  0  0  0  0  0  0
   35.6380   30.6760   33.0490 C   0  0  0  0  0  3  0  0  0  0  0  0
   35.4200   30.2170   32.0640 H   0  0  0  0  0  0  0  0  0  0  0  0
  1  2  1  0  0  0  0
  2  3  2  0  0  0  0
  2  9  1  0  0  0  0
  3  8  1  0  0  0  0
  4  3  1  0  0  0  0
  5  4  2  0  0  0  0
  6  5  1  0  0  0  0
  6  1  2  0  0  0  0
  7  1  1  0  0  0  0
  9 15  1  0  0  0  0
 10  9  1  0  0  0  0
 10 11  2  0  0  0  0
 11 12  1  0  0  0  0
 12 14  1  0  0  0  0
 12 13  2  0  0  0  0
 14 19  1  0  0  0  0
 15 16  2  0  0  0  0
 15 14  1  0  0  0  0
 17 10  1  0  0  0  0
 18 11  1  0  0  0  0
 20  5  1  0  0  0  0
 21 20  1  6  0  0  0
 21 22  1  0  0  0  0
 22 23  1  0  0  0  0
 24 25  1  0  0  0  0
 24 22  1  0  0  0  0
 26 24  1  0  0  0  0
 27 26  1  0  0  0  0
 27 21  1  0  0  0  0
 28 27  1  0  0  0  0
M  END
>  <minimizedAffinity>
-5.04048109

$$$$

 OpenBabel03272500053D

 28 30  0  0  1  0  0  0  0  0999 V2000
   37.3160   25.5660   33.1220 C   0  0  0  0  0  0  0  0  0  0  0  0
   37.8090   26.8740   33.3340 C   0  0  0  0  0  0  0  0  0  0  0  0
   38.7920   27.0400   34.2870 C   0  0  0  0  0  0  0  0  0  0  0  0
   39.2400   25.9460   34.9750 N   0  0  0  0  0  0  0  0  0  0  0  0
   38.7600   24.7250   34.7570 C   0  0  0  0  0  0  0  0  0  0  0  0
   37.7900   24.5180   33.8260 N   0  0  0  0  0  0  0  0  0  0  0  0
   36.5440   25.4070   32.3790 H   0  0  0  0  0  0  0  0  0  0  0  0
   39.1720   28.0180   34.4580 H   0  0  0  0  0  0  0  0  0  0  0  0
   37.2540   27.9210   32.5490 N   0  0  0  0  0  0  0  0  0  0  0  0
   37.6530   28.1790   31.3040 C   0  0  0  0  0  0  0  0  0  0  0  0
   37.0490   29.2340   30.6000 C   0  0  0  0  0  0  0  0  0  0  0  0
   36.0820   29.9180   31.2770 C   0  0  0  0  0  0  0  0  0  0  0  0
   35.5520   30.8690   30.6160 O   0  0  0  0  0  0  0  0  0  0  0  0
   35.6700   29.6790   32.5150 N   0  0  0  0  0  0  0  0  0  0  0  0
   36.2760   28.6550   33.1600 C   0  0  0  0  0  0  0  0  0  0  0  0
   35.8770   28.4260   34.3540 O   0  0  0  0  0  0  0  0  0  0  0  0
   38.4180   27.5930   30.8480 H   0  0  0  0  0  0  0  0  0  0  0  0
   37.3640   29.4550   29.5840 H   0  0  0  0  0  0  0  0  0  0  0  0
   34.9160   30.2320   33.0050 H   0  0  0  0  0  0  0  0  0  0  0  0
   39.2220   23.6240   35.4600 O   0  0  0  0  0  0  0  0  0  0  0  0
   38.5620   23.0740   36.5800 C   0  0  2  0  0  3  0  0  0  0  0  0
   37.5500   24.0520   37.0820 C   0  0  0  0  0  3  0  0  0  0  0  0
   36.5450   23.5980   37.2050 H   0  0  0  0  0  0  0  0  0  0  0  0
   38.0520   24.3150   38.5060 C   0  0  0  0  0  3  0  0  0  0  0  0
   37.2390   24.3980   39.2290 H   0  0  0  0  0  0  0  0  0  0  0  0
   38.7700   23.1420   38.8310 O   0  0  0  0  0  0  0  0  0  0  0  0
   39.5570   22.9890   37.7000 C   0  0  0  0  0  3  0  0  0  0  0  0
   40.2940   23.8120   37.6040 H   0  0  0  0  0  0  0  0  0  0  0  0
  1  2  2  0  0  0  0
  1  6  1  0  0  0  0
  2  3  1  0  0  0  0
  3  8  1  0  0  0  0
  3  4  2  0  0  0  0
  5  4  1  0  0  0  0
  5 20  1  0  0  0  0
  6  5  2  0  0  0  0
  7  1  1  0  0  0  0
  9 15  1  0  0  0  0
  9  2  1  0  0  0  0
 10  9  1  0  0  0  0
 11 12  1  0  0  0  0
 11 10  2  0  0  0  0
 12 14  1  0  0  0  0
 13 12  2  0  0  0  0
 14 19  1  0  0  0  0
 14 15  1  0  0  0  0
 15 16  2  0  0  0  0
 17 10  1  0  0  0  0
 18 11  1  0  0  0  0
 21 20  1  6  0  0  0
 21 22  1  0  0  0  0
 21 27  1  0  0  0  0
 22 23  1  0  0  0  0
 22 24  1  0  0  0  0
 24 26  1  0  0  0  0
 24 25  1  0  0  0  0
 27 26  1  0  0  0  0
 28 27  1  0  0  0  0
M  END
>  <minimizedAffinity>
-4.82067728

$$$$

 OpenBabel03272500053D

 28 30  0  0  1  0  0  0  0  0999 V2000
   35.2210   25.7860   31.0220 C   0  0  0  0  0  0  0  0  0  0  0  0
   36.0340   26.7010   31.7310 C   0  0  0  0  0  0  0  0  0  0  0  0
   37.0350   26.1840   32.5250 C   0  0  0  0  0  0  0  0  0  0  0  0
   37.1950   24.8270   32.5920 N   0  0  0  0  0  0  0  0  0  0  0  0
   36.4180   23.9870   31.9150 C   0  0  0  0  0  0  0  0  0  0  0  0
   35.4190   24.4550   31.1200 N   0  0  0  0  0  0  0  0  0  0  0  0
   34.4280   26.1640   30.3900 H   0  0  0  0  0  0  0  0  0  0  0  0
   37.6530   26.8600   33.0640 H   0  0  0  0  0  0  0  0  0  0  0  0
   35.7580   28.0850   31.5700 N   0  0  0  0  0  0  0  0  0  0  0  0
   34.9310   28.7560   32.3720 C   0  0  0  0  0  0  0  0  0  0  0  0
   34.7150   30.1240   32.1400 C   0  0  0  0  0  0  0  0  0  0  0  0
   35.3910   30.6560   31.0810 C   0  0  0  0  0  0  0  0  0  0  0  0
   35.1770   31.8970   30.8930 O   0  0  0  0  0  0  0  0  0  0  0  0
   36.2170   30.0090   30.2700 N   0  0  0  0  0  0  0  0  0  0  0  0
   36.3980   28.6930   30.5260 C   0  0  0  0  0  0  0  0  0  0  0  0
   37.1960   28.0710   29.7420 O   0  0  0  0  0  0  0  0  0  0  0  0
   34.4420   28.2610   33.1800 H   0  0  0  0  0  0  0  0  0  0  0  0
   34.0440   30.6820   32.7870 H   0  0  0  0  0  0  0  0  0  0  0  0
   36.7230   30.4580   29.4590 H   0  0  0  0  0  0  0  0  0  0  0  0
   36.5900   22.6140   31.9900 O   0  0  0  0  0  0  0  0  0  0  0  0
   35.8230   21.6850   31.2520 C   0  0  2  0  0  3  0  0  0  0  0  0
   34.9060   20.9580   32.1810 C   0  0  0  0  0  3  0  0  0  0  0  0
   33.8510   20.9720   31.8350 H   0  0  0  0  0  0  0  0  0  0  0  0
   35.3700   19.5090   32.0060 C   0  0  0  0  0  3  0  0  0  0  0  0
   34.5400   18.8000   31.9960 H   0  0  0  0  0  0  0  0  0  0  0  0
   35.9370   19.4920   30.7120 O   0  0  0  0  0  0  0  0  0  0  0  0
   36.7510   20.6130   30.7630 C   0  0  0  0  0  3  0  0  0  0  0  0
   37.5790   20.4800   31.4880 H   0  0  0  0  0  0  0  0  0  0  0  0
  1  6  2  0  0  0  0
  1  2  1  0  0  0  0
  2  3  2  0  0  0  0
  3  4  1  0  0  0  0
  3  8  1  0  0  0  0
  5 20  1  0  0  0  0
  5  4  2  0  0  0  0
  6  5  1  0  0  0  0
  7  1  1  0  0  0  0
  9  2  1  0  0  0  0
  9 10  1  0  0  0  0
 10 17  1  0  0  0  0
 11 10  2  0  0  0  0
 11 18  1  0  0  0  0
 12 11  1  0  0  0  0
 13 12  2  0  0  0  0
 14 15  1  0  0  0  0
 14 12  1  0  0  0  0
 15  9  1  0  0  0  0
 16 15  2  0  0  0  0
 19 14  1  0  0  0  0
 21 20  1  1  0  0  0
 21 22  1  0  0  0  0
 23 22  1  0  0  0  0
 24 22  1  0  0  0  0
 25 24  1  0  0  0  0
 26 27  1  0  0  0  0
 26 24  1  0  0  0  0
 27 21  1  0  0  0  0
 27 28  1  0  0  0  0
M  END
>  <minimizedAffinity>
-4.79804993

$$$$

 OpenBabel03272500053D

 28 30  0  0  1  0  0  0  0  0999 V2000
   38.4530   26.7360   36.0270 C   0  0  0  0  0  0  0  0  0  0  0  0
   38.4210   25.4550   35.4270 C   0  0  0  0  0  0  0  0  0  0  0  0
   37.6980   25.3130   34.2610 C   0  0  0  0  0  0  0  0  0  0  0  0
   37.0530   26.4020   33.7440 N   0  0  0  0  0  0  0  0  0  0  0  0
   37.0980   27.5970   34.3260 C   0  0  0  0  0  0  0  0  0  0  0  0
   37.7990   27.7800   35.4770 N   0  0  0  0  0  0  0  0  0  0  0  0
   39.0130   26.8770   36.9430 H   0  0  0  0  0  0  0  0  0  0  0  0
   37.6650   24.3560   33.8000 H   0  0  0  0  0  0  0  0  0  0  0  0
   39.1370   24.4110   36.0720 N   0  0  0  0  0  0  0  0  0  0  0  0
   38.7020   23.8140   37.1810 C   0  0  0  0  0  0  0  0  0  0  0  0
   39.4760   22.7900   37.7520 C   0  0  0  0  0  0  0  0  0  0  0  0
   40.6360   22.4930   37.0990 C   0  0  0  0  0  0  0  0  0  0  0  0
   41.3170   21.5620   37.6380 O   0  0  0  0  0  0  0  0  0  0  0  0
   41.0880   23.0740   35.9950 N   0  0  0  0  0  0  0  0  0  0  0  0
   40.3150   24.0550   35.4770 C   0  0  0  0  0  0  0  0  0  0  0  0
   40.7540   24.6140   34.4120 O   0  0  0  0  0  0  0  0  0  0  0  0
   37.7800   24.1080   37.6280 H   0  0  0  0  0  0  0  0  0  0  0  0
   39.1320   22.2950   38.6560 H   0  0  0  0  0  0  0  0  0  0  0  0
   41.9940   22.8140   35.5190 H   0  0  0  0  0  0  0  0  0  0  0  0
   36.4400   28.6940   33.7920 O   0  0  0  0  0  0  0  0  0  0  0  0
   35.8200   28.6970   32.5240 C   0  0  2  0  0  3  0  0  0  0  0  0
   36.7840   29.2220   31.5090 C   0  0  0  0  0  3  0  0  0  0  0  0
   36.8830   28.5510   30.6300 H   0  0  0  0  0  0  0  0  0  0  0  0
   36.0450   30.4600   30.9910 C   0  0  0  0  0  3  0  0  0  0  0  0
   36.1520   30.5930   29.9120 H   0  0  0  0  0  0  0  0  0  0  0  0
   34.6850   30.1650   31.2320 O   0  0  0  0  0  0  0  0  0  0  0  0
   34.7350   29.7320   32.5480 C   0  0  0  0  0  3  0  0  0  0  0  0
   35.0220   30.5540   33.2350 H   0  0  0  0  0  0  0  0  0  0  0  0
  1  7  1  0  0  0  0
  2  1  2  0  0  0  0
  2  9  1  0  0  0  0
  3  2  1  0  0  0  0
  4  3  2  0  0  0  0
  4  5  1  0  0  0  0
  5  6  2  0  0  0  0
  6  1  1  0  0  0  0
  8  3  1  0  0  0  0
  9 10  1  0  0  0  0
 10 17  1  0  0  0  0
 10 11  2  0  0  0  0
 11 18  1  0  0  0  0
 12 13  2  0  0  0  0
 12 11  1  0  0  0  0
 14 12  1  0  0  0  0
 15 14  1  0  0  0  0
 15  9  1  0  0  0  0
 16 15  2  0  0  0  0
 19 14  1  0  0  0  0
 20  5  1  0  0  0  0
 21 27  1  0  0  0  0
 21 20  1  1  0  0  0
 22 21  1  0  0  0  0
 23 22  1  0  0  0  0
 24 26  1  0  0  0  0
 24 22  1  0  0  0  0
 25 24  1  0  0  0  0
 26 27  1  0  0  0  0
 27 28  1  0  0  0  0
M  END
>  <minimizedAffinity>
-4.76757669

$$$$

 OpenBabel03272500053D

 28 30  0  0  1  0  0  0  0  0999 V2000
   35.4290   25.8270   31.0070 C   0  0  0  0  0  0  0  0  0  0  0  0
   36.5830   26.5590   31.3730 C   0  0  0  0  0  0  0  0  0  0  0  0
   37.5890   25.8820   32.0280 C   0  0  0  0  0  0  0  0  0  0  0  0
   37.4290   24.5490   32.2910 N   0  0  0  0  0  0  0  0  0  0  0  0
   36.3340   23.8820   31.9370 C   0  0  0  0  0  0  0  0  0  0  0  0
   35.3180   24.5130   31.2890 N   0  0  0  0  0  0  0  0  0  0  0  0
   34.6230   26.3340   30.4920 H   0  0  0  0  0  0  0  0  0  0  0  0
   38.4610   26.4190   32.3100 H   0  0  0  0  0  0  0  0  0  0  0  0
   36.6170   27.9400   31.0380 N   0  0  0  0  0  0  0  0  0  0  0  0
   37.0520   28.3870   29.8600 C   0  0  0  0  0  0  0  0  0  0  0  0
   37.0510   29.7700   29.6130 C   0  0  0  0  0  0  0  0  0  0  0  0
   36.5930   30.5510   30.6330 C   0  0  0  0  0  0  0  0  0  0  0  0
   36.6040   31.8000   30.3830 O   0  0  0  0  0  0  0  0  0  0  0  0
   36.1570   30.1280   31.8130 N   0  0  0  0  0  0  0  0  0  0  0  0
   36.1740   28.7900   32.0120 C   0  0  0  0  0  0  0  0  0  0  0  0
   35.7520   28.3850   33.1500 O   0  0  0  0  0  0  0  0  0  0  0  0
   37.3930   27.7050   29.1150 H   0  0  0  0  0  0  0  0  0  0  0  0
   37.4020   30.1470   28.6570 H   0  0  0  0  0  0  0  0  0  0  0  0
   35.8100   30.7670   32.5790 H   0  0  0  0  0  0  0  0  0  0  0  0
   36.1840   22.5310   32.2080 O   0  0  0  0  0  0  0  0  0  0  0  0
   35.6150   21.6070   31.3040 C   0  0  2  0  0  3  0  0  0  0  0  0
   34.7170   20.6780   32.0540 C   0  0  0  0  0  3  0  0  0  0  0  0
   33.7060   20.6060   31.6000 H   0  0  0  0  0  0  0  0  0  0  0  0
   35.3780   19.3220   31.7840 C   0  0  0  0  0  3  0  0  0  0  0  0
   34.6510   18.5260   31.6160 H   0  0  0  0  0  0  0  0  0  0  0  0
   36.0600   19.5180   30.5630 O   0  0  0  0  0  0  0  0  0  0  0  0
   36.7150   20.7140   30.8120 C   0  0  0  0  0  3  0  0  0  0  0  0
   37.4820   20.5990   31.6040 H   0  0  0  0  0  0  0  0  0  0  0  0
  1  6  2  0  0  0  0
  1  2  1  0  0  0  0
  2  3  2  0  0  0  0
  3  4  1  0  0  0  0
  3  8  1  0  0  0  0
  5 20  1  0  0  0  0
  5  4  2  0  0  0  0
  6  5  1  0  0  0  0
  7  1  1  0  0  0  0
  9  2  1  0  0  0  0
  9 15  1  0  0  0  0
 10  9  1  0  0  0  0
 11 10  2  0  0  0  0
 11 12  1  0  0  0  0
 12 14  1  0  0  0  0
 13 12  2  0  0  0  0
 14 15  1  0  0  0  0
 14 19  1  0  0  0  0
 15 16  2  0  0  0  0
 17 10  1  0  0  0  0
 18 11  1  0  0  0  0
 21 22  1  0  0  0  0
 21 20  1  1  0  0  0
 23 22  1  0  0  0  0
 24 22  1  0  0  0  0
 25 24  1  0  0  0  0
 26 27  1  0  0  0  0
 26 24  1  0  0  0  0
 27 21  1  0  0  0  0
 27 28  1  0  0  0  0
M  END
>  <minimizedAffinity>
-4.62579727

$$$$

 OpenBabel03272500053D

 28 30  0  0  1  0  0  0  0  0999 V2000
   36.4140   28.2660   34.5620 C   0  0  0  0  0  0  0  0  0  0  0  0
   35.8490   29.4530   34.0420 C   0  0  0  0  0  0  0  0  0  0  0  0
   35.9530   29.6700   32.6850 C   0  0  0  0  0  0  0  0  0  0  0  0
   36.5900   28.7400   31.9110 N   0  0  0  0  0  0  0  0  0  0  0  0
   37.1140   27.6300   32.4230 C   0  0  0  0  0  0  0  0  0  0  0  0
   37.0330   27.3770   33.7580 N   0  0  0  0  0  0  0  0  0  0  0  0
   36.3470   28.0690   35.6250 H   0  0  0  0  0  0  0  0  0  0  0  0
   35.5340   30.5590   32.2810 H   0  0  0  0  0  0  0  0  0  0  0  0
   35.2150   30.3340   34.9600 N   0  0  0  0  0  0  0  0  0  0  0  0
   35.8880   31.2250   35.6890 C   0  0  0  0  0  0  0  0  0  0  0  0
   35.1800   32.0560   36.5720 C   0  0  0  0  0  0  0  0  0  0  0  0
   33.8290   31.8690   36.6040 C   0  0  0  0  0  0  0  0  0  0  0  0
   33.2120   32.6360   37.4130 O   0  0  0  0  0  0  0  0  0  0  0  0
   33.1400   30.9900   35.8890 N   0  0  0  0  0  0  0  0  0  0  0  0
   33.8570   30.2070   35.0500 C   0  0  0  0  0  0  0  0  0  0  0  0
   33.1900   29.3600   34.3620 O   0  0  0  0  0  0  0  0  0  0  0  0
   36.9470   31.3060   35.6020 H   0  0  0  0  0  0  0  0  0  0  0  0
   35.7160   32.7870   37.1720 H   0  0  0  0  0  0  0  0  0  0  0  0
   32.0910   30.8750   35.9420 H   0  0  0  0  0  0  0  0  0  0  0  0
   37.7570   26.6930   31.6300 O   0  0  0  0  0  0  0  0  0  0  0  0
   37.0830   25.7960   30.7720 C   0  0  2  0  0  3  0  0  0  0  0  0
   35.6800   25.6170   31.2530 C   0  0  0  0  0  3  0  0  0  0  0  0
   34.9310   25.7770   30.4500 H   0  0  0  0  0  0  0  0  0  0  0  0
   35.6430   24.1140   31.5480 C   0  0  0  0  0  3  0  0  0  0  0  0
   34.6980   23.6520   31.2550 H   0  0  0  0  0  0  0  0  0  0  0  0
   36.6390   23.5800   30.7000 O   0  0  0  0  0  0  0  0  0  0  0  0
   37.6960   24.4390   30.9570 C   0  0  0  0  0  3  0  0  0  0  0  0
   38.0590   24.3360   31.9990 H   0  0  0  0  0  0  0  0  0  0  0  0
  1  7  1  0  0  0  0
  2  1  1  0  0  0  0
  2  9  1  0  0  0  0
  3  2  2  0  0  0  0
  4  5  2  0  0  0  0
  4  3  1  0  0  0  0
  5  6  1  0  0  0  0
  6  1  2  0  0  0  0
  8  3  1  0  0  0  0
  9 15  1  0  0  0  0
  9 10  1  0  0  0  0
 10 11  2  0  0  0  0
 11 12  1  0  0  0  0
 11 18  1  0  0  0  0
 12 13  2  0  0  0  0
 14 19  1  0  0  0  0
 14 12  1  0  0  0  0
 15 14  1  0  0  0  0
 16 15  2  0  0  0  0
 17 10  1  0  0  0  0
 20  5  1  0  0  0  0
 21 27  1  0  0  0  0
 21 22  1  0  0  0  0
 21 20  1  1  0  0  0
 22 24  1  0  0  0  0
 23 22  1  0  0  0  0
 25 24  1  0  0  0  0
 26 27  1  0  0  0  0
 26 24  1  0  0  0  0
 27 28  1  0  0  0  0
M  END
>  <minimizedAffinity>
-4.62022018

$$$$

 OpenBabel03272500053D

 28 30  0  0  1  0  0  0  0  0999 V2000
   38.2550   27.0950   33.3720 C   0  0  0  0  0  0  0  0  0  0  0  0
   37.7080   26.7820   32.1060 C   0  0  0  0  0  0  0  0  0  0  0  0
   37.3120   25.4810   31.8840 C   0  0  0  0  0  0  0  0  0  0  0  0
   37.4640   24.5610   32.8850 N   0  0  0  0  0  0  0  0  0  0  0  0
   37.9810   24.8790   34.0690 C   0  0  0  0  0  0  0  0  0  0  0  0
   38.3840   26.1520   34.3290 N   0  0  0  0  0  0  0  0  0  0  0  0
   38.5740   28.1090   33.5750 H   0  0  0  0  0  0  0  0  0  0  0  0
   36.9010   25.2310   30.9370 H   0  0  0  0  0  0  0  0  0  0  0  0
   37.6080   27.8350   31.1570 N   0  0  0  0  0  0  0  0  0  0  0  0
   38.6280   28.2160   30.3880 C   0  0  0  0  0  0  0  0  0  0  0  0
   38.4400   29.2670   29.4770 C   0  0  0  0  0  0  0  0  0  0  0  0
   37.1930   29.8200   29.4630 C   0  0  0  0  0  0  0  0  0  0  0  0
   37.0500   30.7710   28.6280 O   0  0  0  0  0  0  0  0  0  0  0  0
   36.1640   29.4590   30.2180 N   0  0  0  0  0  0  0  0  0  0  0  0
   36.3850   28.4420   31.0840 C   0  0  0  0  0  0  0  0  0  0  0  0
   35.3910   28.0960   31.8110 O   0  0  0  0  0  0  0  0  0  0  0  0
   39.5730   27.7270   30.4630 H   0  0  0  0  0  0  0  0  0  0  0  0
   39.2630   29.5870   28.8440 H   0  0  0  0  0  0  0  0  0  0  0  0
   35.2110   29.9130   30.1780 H   0  0  0  0  0  0  0  0  0  0  0  0
   38.1300   23.9390   35.0760 O   0  0  0  0  0  0  0  0  0  0  0  0
   38.8510   24.1720   36.2670 C   0  0  2  0  0  3  0  0  0  0  0  0
   40.1670   23.4680   36.1890 C   0  0  0  0  0  3  0  0  0  0  0  0
   41.0220   24.1360   36.4230 H   0  0  0  0  0  0  0  0  0  0  0  0
   40.0730   22.5020   37.3740 C   0  0  0  0  0  3  0  0  0  0  0  0
   41.0170   22.4060   37.9140 H   0  0  0  0  0  0  0  0  0  0  0  0
   39.1640   23.1340   38.2510 O   0  0  0  0  0  0  0  0  0  0  0  0
   38.1370   23.4630   37.3800 C   0  0  0  0  0  3  0  0  0  0  0  0
   37.6370   22.5570   36.9810 H   0  0  0  0  0  0  0  0  0  0  0  0
  1  7  1  0  0  0  0
  1  6  1  0  0  0  0
  2  1  2  0  0  0  0
  3  2  1  0  0  0  0
  3  4  2  0  0  0  0
  4  5  1  0  0  0  0
  5  6  2  0  0  0  0
  5 20  1  0  0  0  0
  8  3  1  0  0  0  0
  9  2  1  0  0  0  0
 10 17  1  0  0  0  0
 10  9  1  0  0  0  0
 11 10  2  0  0  0  0
 12 11  1  0  0  0  0
 12 14  1  0  0  0  0
 13 12  2  0  0  0  0
 14 15  1  0  0  0  0
 15  9  1  0  0  0  0
 15 16  2  0  0  0  0
 18 11  1  0  0  0  0
 19 14  1  0  0  0  0
 21 20  1  6  0  0  0
 21 27  1  0  0  0  0
 22 21  1  0  0  0  0
 22 23  1  0  0  0  0
 22 24  1  0  0  0  0
 24 25  1  0  0  0  0
 24 26  1  0  0  0  0
 27 26  1  0  0  0  0
 28 27  1  0  0  0  0
M  END
>  <minimizedAffinity>
-4.5432682

$$$$
