
 OpenBabel03272502303D

 23 24  0  0  1  0  0  0  0  0999 V2000
   39.3480   32.5160   46.7060 C   0  0  0  0  0  0  0  0  0  0  0  0
   38.6250   33.0060   46.0230 H   0  0  0  0  0  0  0  0  0  0  0  0
   40.1420   33.2500   46.9910 H   0  0  0  0  0  0  0  0  0  0  0  0
   38.0920   30.8150   47.9650 C   0  0  0  0  0  3  0  0  0  0  0  0
   38.6640   31.9900   47.9280 C   0  0  0  0  0  3  0  0  0  0  0  0
   37.2170   30.1110   51.5040 C   0  0  0  0  0  0  0  0  0  0  0  0
   37.9190   30.6280   50.4040 C   0  0  0  0  0  0  0  0  0  0  0  0
   37.4440   30.3330   49.1470 C   0  0  0  0  0  0  0  0  0  0  0  0
   36.3290   29.5660   49.0020 N   0  0  0  0  0  0  0  0  0  0  0  0
   35.6800   29.0860   50.0900 C   0  0  0  0  0  0  0  0  0  0  0  0
   36.1140   29.3520   51.3340 N   0  0  0  0  0  0  0  0  0  0  0  0
   37.6010   30.3500   52.5080 H   0  0  0  0  0  0  0  0  0  0  0  0
   38.8020   31.2340   50.5530 H   0  0  0  0  0  0  0  0  0  0  0  0
   34.8010   28.4840   49.8900 H   0  0  0  0  0  0  0  0  0  0  0  0
   40.0820   31.1420   45.7690 S   0  0  0  0  0  0  0  0  0  0  0  0
   40.5070   31.7450   44.1250 C   0  0  1  0  0  3  0  0  0  0  0  0
   40.2180   30.7030   43.0430 C   0  0  0  0  0  3  0  0  0  0  0  0
   39.2600   30.2070   43.3000 H   0  0  0  0  0  0  0  0  0  0  0  0
   39.9340   31.6050   41.8600 C   0  0  0  0  0  3  0  0  0  0  0  0
   40.9000   31.9990   41.4750 H   0  0  0  0  0  0  0  0  0  0  0  0
   39.1530   32.5950   42.4350 O   0  0  0  0  0  0  0  0  0  0  0  0
   39.6520   32.8890   43.6780 C   0  0  0  0  0  3  0  0  0  0  0  0
   38.7930   32.9320   44.3930 H   0  0  0  0  0  0  0  0  0  0  0  0
  1  3  1  0  0  0  0
  1  5  1  0  0  0  0
  2  1  1  0  0  0  0
  4  8  1  0  0  0  0
  5  4  2  0  0  0  0
  6 12  1  0  0  0  0
  7 13  1  0  0  0  0
  7  6  2  0  0  0  0
  8  7  1  0  0  0  0
  9  8  2  0  0  0  0
  9 10  1  0  0  0  0
 10 11  2  0  0  0  0
 11  6  1  0  0  0  0
 14 10  1  0  0  0  0
 15  1  1  0  0  0  0
 16 15  1  1  0  0  0
 17 18  1  0  0  0  0
 17 16  1  0  0  0  0
 19 21  1  0  0  0  0
 19 17  1  0  0  0  0
 20 19  1  0  0  0  0
 21 22  1  0  0  0  0
 22 16  1  0  0  0  0
 22 23  1  0  0  0  0
M  END
>  <minimizedAffinity>
-4.8859868

>  <minimizedRMSD>
1.61373615

$$$$
