
 OpenBabel03272506413D

 18 19  0  0  1  0  0  0  0  0999 V2000
   37.2450   30.2090   51.3650 C   0  0  0  0  0  0  0  0  0  0  0  0
   38.0910   30.8400   50.4290 C   0  0  0  0  0  0  0  0  0  0  0  0
   37.8760   30.6070   49.0660 C   0  0  0  0  0  0  0  0  0  0  0  0
   36.8600   29.7810   48.7130 N   0  0  0  0  0  0  0  0  0  0  0  0
   36.0620   29.1860   49.6200 C   0  0  0  0  0  0  0  0  0  0  0  0
   36.2610   29.4050   50.9310 N   0  0  0  0  0  0  0  0  0  0  0  0
   37.4460   30.4130   52.4000 H   0  0  0  0  0  0  0  0  0  0  0  0
   38.9110   31.5040   50.6880 H   0  0  0  0  0  0  0  0  0  0  0  0
   38.4820   31.0550   48.2960 H   0  0  0  0  0  0  0  0  0  0  0  0
   34.7290   28.1000   49.1540 S   0  0  0  0  0  0  0  0  0  0  0  0
   33.6850   28.9440   47.9760 C   0  0  2  0  0  3  0  0  0  0  0  0
   32.3540   28.2200   47.7320 C   0  0  0  0  0  3  0  0  0  0  0  0
   31.6010   28.4410   48.4990 H   0  0  0  0  0  0  0  0  0  0  0  0
   32.0290   28.9240   46.4050 C   0  0  0  0  0  3  0  0  0  0  0  0
   32.1090   30.0030   46.6260 H   0  0  0  0  0  0  0  0  0  0  0  0
   33.1970   28.5840   45.7060 O   0  0  0  0  0  0  0  0  0  0  0  0
   34.2410   28.8840   46.5620 C   0  0  0  0  0  3  0  0  0  0  0  0
   34.6480   29.8640   46.2340 H   0  0  0  0  0  0  0  0  0  0  0  0
  1  7  1  0  0  0  0
  2  8  1  0  0  0  0
  2  1  2  0  0  0  0
  3  2  1  0  0  0  0
  4  3  2  0  0  0  0
  4  5  1  0  0  0  0
  5  6  2  0  0  0  0
  6  1  1  0  0  0  0
  9  3  1  0  0  0  0
 10  5  1  0  0  0  0
 11 10  1  1  0  0  0
 12 11  1  0  0  0  0
 12 13  1  0  0  0  0
 14 15  1  0  0  0  0
 14 12  1  0  0  0  0
 16 14  1  0  0  0  0
 16 17  1  0  0  0  0
 17 11  1  0  0  0  0
 18 17  1  0  0  0  0
M  END
>  <minimizedAffinity>
-3.58702564

>  <minimizedRMSD>
1.48937821

$$$$
