
 OpenBabel03272503253D

 31 33  0  0  1  0  0  0  0  0999 V2000
   38.0710   23.0990   36.3310 N   0  0  0  0  0  0  0  0  0  0  0  0
   37.5820   24.3530   36.7960 C   0  0  1  0  0  0  0  0  0  0  0  0
   38.1510   24.4720   38.2000 C   0  0  0  0  0  0  0  0  0  0  0  0
   38.9370   23.1600   38.4100 C   0  0  0  0  0  0  0  0  0  0  0  0
   39.3240   22.8610   37.0000 C   0  0  0  0  0  0  0  0  0  0  0  0
   36.4580   24.3080   36.9770 H   0  0  0  0  0  0  0  0  0  0  0  0
   38.8950   25.2950   38.1560 H   0  0  0  0  0  0  0  0  0  0  0  0
   37.4050   24.6390   38.9790 H   0  0  0  0  0  0  0  0  0  0  0  0
   39.8200   23.4240   39.0090 H   0  0  0  0  0  0  0  0  0  0  0  0
   38.2930   22.3820   38.8620 H   0  0  0  0  0  0  0  0  0  0  0  0
   40.1350   23.5180   36.6770 H   0  0  0  0  0  0  0  0  0  0  0  0
   39.6440   21.7980   36.8850 H   0  0  0  0  0  0  0  0  0  0  0  0
   37.4300   22.2460   35.3890 C   0  0  0  0  0  0  0  0  0  0  0  0
   36.3490   21.4710   35.8350 C   0  0  0  0  0  0  0  0  0  0  0  0
   35.6960   20.6250   34.9330 C   0  0  0  0  0  0  0  0  0  0  0  0
   36.1730   20.6160   33.6470 N   0  0  0  0  0  0  0  0  0  0  0  0
   37.2190   21.3780   33.2490 C   0  0  0  0  0  0  0  0  0  0  0  0
   37.8720   22.2150   34.1240 N   0  0  0  0  0  0  0  0  0  0  0  0
   35.9740   21.4770   36.8430 H   0  0  0  0  0  0  0  0  0  0  0  0
   34.8750   20.0310   35.2590 H   0  0  0  0  0  0  0  0  0  0  0  0
   37.5190   21.2990   32.2130 H   0  0  0  0  0  0  0  0  0  0  0  0
   37.8130   25.5090   35.9320 C   0  0  0  0  0  0  0  0  0  0  0  0
   38.4090   26.4280   36.5180 O   0  0  0  0  0  0  0  0  0  0  0  0
   37.5170   25.8950   34.5180 C   0  0  1  0  0  3  0  0  0  0  0  0
   37.0590   27.2800   34.2950 C   0  0  0  0  0  3  0  0  0  0  0  0
   35.9610   27.4160   34.2800 H   0  0  0  0  0  0  0  0  0  0  0  0
   37.5040   27.5220   32.8530 C   0  0  0  0  0  3  0  0  0  0  0  0
   36.6660   27.3110   32.1410 H   0  0  0  0  0  0  0  0  0  0  0  0
   38.4860   26.6090   32.5780 O   0  0  0  0  0  0  0  0  0  0  0  0
   38.7930   25.9070   33.7080 C   0  0  0  0  0  3  0  0  0  0  0  0
   39.1010   24.8570   33.5140 H   0  0  0  0  0  0  0  0  0  0  0  0
  1  2  1  0  0  0  0
  1  5  1  0  0  0  0
  2  6  1  1  0  0  0
  2  3  1  0  0  0  0
  3  4  1  0  0  0  0
  3  8  1  0  0  0  0
  4 10  1  0  0  0  0
  4  9  1  0  0  0  0
  5  4  1  0  0  0  0
  7  3  1  0  0  0  0
 11  5  1  0  0  0  0
 12  5  1  0  0  0  0
 13 14  1  0  0  0  0
 13  1  1  0  0  0  0
 14 19  1  0  0  0  0
 15 20  1  0  0  0  0
 15 14  2  0  0  0  0
 16 15  1  0  0  0  0
 17 16  2  0  0  0  0
 17 18  1  0  0  0  0
 18 13  2  0  0  0  0
 21 17  1  0  0  0  0
 22 23  2  0  0  0  0
 22  2  1  0  0  0  0
 24 22  1  1  0  0  0
 25 24  1  0  0  0  0
 26 25  1  0  0  0  0
 27 25  1  0  0  0  0
 28 27  1  0  0  0  0
 29 27  1  0  0  0  0
 29 30  1  0  0  0  0
 30 24  1  0  0  0  0
 31 30  1  0  0  0  0
M  END
>  <minimizedAffinity>
-4.6340065

$$$$

 OpenBabel03272503253D

 31 33  0  0  1  0  0  0  0  0999 V2000
   37.9130   25.9030   34.1310 N   0  0  0  0  0  0  0  0  0  0  0  0
   38.8740   25.7450   35.1710 C   0  0  1  0  0  0  0  0  0  0  0  0
   38.7700   27.0360   35.9670 C   0  0  0  0  0  0  0  0  0  0  0  0
   37.7030   27.8650   35.2190 C   0  0  0  0  0  0  0  0  0  0  0  0
   36.8770   26.7640   34.6400 C   0  0  0  0  0  0  0  0  0  0  0  0
   39.9330   25.7850   34.7540 H   0  0  0  0  0  0  0  0  0  0  0  0
   38.3340   26.7520   36.9470 H   0  0  0  0  0  0  0  0  0  0  0  0
   39.7110   27.5760   36.0800 H   0  0  0  0  0  0  0  0  0  0  0  0
   37.1410   28.4090   35.9920 H   0  0  0  0  0  0  0  0  0  0  0  0
   38.1700   28.5110   34.4530 H   0  0  0  0  0  0  0  0  0  0  0  0
   36.2540   26.3050   35.4130 H   0  0  0  0  0  0  0  0  0  0  0  0
   36.2250   27.1380   33.8160 H   0  0  0  0  0  0  0  0  0  0  0  0
   37.9800   25.3220   32.8340 C   0  0  0  0  0  0  0  0  0  0  0  0
   36.7750   24.9470   32.2190 C   0  0  0  0  0  0  0  0  0  0  0  0
   36.8080   24.3750   30.9430 C   0  0  0  0  0  0  0  0  0  0  0  0
   38.0460   24.2210   30.3730 N   0  0  0  0  0  0  0  0  0  0  0  0
   39.1900   24.5940   30.9930 C   0  0  0  0  0  0  0  0  0  0  0  0
   39.1750   25.1580   32.2490 N   0  0  0  0  0  0  0  0  0  0  0  0
   35.8050   25.0670   32.6650 H   0  0  0  0  0  0  0  0  0  0  0  0
   35.9010   24.0860   30.4670 H   0  0  0  0  0  0  0  0  0  0  0  0
   40.1160   24.4300   30.4600 H   0  0  0  0  0  0  0  0  0  0  0  0
   38.7880   24.5200   35.9620 C   0  0  0  0  0  0  0  0  0  0  0  0
   37.7610   24.4740   36.6590 O   0  0  0  0  0  0  0  0  0  0  0  0
   39.6160   23.2910   36.1710 C   0  0  1  0  0  3  0  0  0  0  0  0
   41.0670   23.4270   35.9370 C   0  0  0  0  0  3  0  0  0  0  0  0
   41.4060   23.1580   34.9180 H   0  0  0  0  0  0  0  0  0  0  0  0
   41.6270   22.3280   36.8390 C   0  0  0  0  0  3  0  0  0  0  0  0
   41.7930   21.3860   36.2560 H   0  0  0  0  0  0  0  0  0  0  0  0
   40.6640   22.0440   37.7690 O   0  0  0  0  0  0  0  0  0  0  0  0
   39.6210   22.9130   37.6350 C   0  0  0  0  0  3  0  0  0  0  0  0
   38.6330   22.4730   37.8900 H   0  0  0  0  0  0  0  0  0  0  0  0
  1  5  1  0  0  0  0
  1  2  1  0  0  0  0
  2  6  1  6  0  0  0
  2 22  1  0  0  0  0
  2  3  1  0  0  0  0
  3  8  1  0  0  0  0
  3  7  1  0  0  0  0
  4  3  1  0  0  0  0
  4  9  1  0  0  0  0
  5  4  1  0  0  0  0
  5 11  1  0  0  0  0
 10  4  1  0  0  0  0
 12  5  1  0  0  0  0
 13  1  1  0  0  0  0
 14 19  1  0  0  0  0
 14 13  2  0  0  0  0
 15 14  1  0  0  0  0
 16 15  2  0  0  0  0
 16 17  1  0  0  0  0
 17 18  2  0  0  0  0
 18 13  1  0  0  0  0
 20 15  1  0  0  0  0
 21 17  1  0  0  0  0
 22 23  2  0  0  0  0
 24 22  1  1  0  0  0
 24 30  1  0  0  0  0
 25 24  1  0  0  0  0
 25 27  1  0  0  0  0
 26 25  1  0  0  0  0
 27 29  1  0  0  0  0
 28 27  1  0  0  0  0
 30 29  1  0  0  0  0
 30 31  1  0  0  0  0
M  END
>  <minimizedAffinity>
-4.62640715

$$$$

 OpenBabel03272503253D

 31 33  0  0  1  0  0  0  0  0999 V2000
   38.5210   25.8010   35.2350 N   0  0  0  0  0  0  0  0  0  0  0  0
   37.4330   25.8260   34.3150 C   0  0  1  0  0  0  0  0  0  0  0  0
   36.9280   27.2570   34.3820 C   0  0  0  0  0  0  0  0  0  0  0  0
   37.8300   27.9360   35.4360 C   0  0  0  0  0  0  0  0  0  0  0  0
   39.0750   27.1290   35.2700 C   0  0  0  0  0  0  0  0  0  0  0  0
   36.5520   25.2230   34.7120 H   0  0  0  0  0  0  0  0  0  0  0  0
   37.1750   27.7120   33.4000 H   0  0  0  0  0  0  0  0  0  0  0  0
   35.8670   27.3530   34.6200 H   0  0  0  0  0  0  0  0  0  0  0  0
   37.9840   28.9680   35.0880 H   0  0  0  0  0  0  0  0  0  0  0  0
   37.3870   27.8550   36.4460 H   0  0  0  0  0  0  0  0  0  0  0  0
   39.6000   27.4180   34.3560 H   0  0  0  0  0  0  0  0  0  0  0  0
   39.7590   27.2560   36.1430 H   0  0  0  0  0  0  0  0  0  0  0  0
   38.9610   24.6710   35.9810 C   0  0  0  0  0  0  0  0  0  0  0  0
   38.2760   24.3600   37.1660 C   0  0  0  0  0  0  0  0  0  0  0  0
   38.6840   23.2550   37.9200 C   0  0  0  0  0  0  0  0  0  0  0  0
   39.7480   22.5400   37.4330 N   0  0  0  0  0  0  0  0  0  0  0  0
   40.3870   22.8680   36.2860 C   0  0  0  0  0  0  0  0  0  0  0  0
   39.9990   23.9520   35.5320 N   0  0  0  0  0  0  0  0  0  0  0  0
   37.4420   24.9200   37.5480 H   0  0  0  0  0  0  0  0  0  0  0  0
   38.1720   23.0080   38.8210 H   0  0  0  0  0  0  0  0  0  0  0  0
   41.2150   22.2410   35.9870 H   0  0  0  0  0  0  0  0  0  0  0  0
   37.7020   25.3250   32.9690 C   0  0  0  0  0  0  0  0  0  0  0  0
   38.2460   26.1750   32.2450 O   0  0  0  0  0  0  0  0  0  0  0  0
   37.4910   24.0510   32.2120 C   0  0  1  0  0  3  0  0  0  0  0  0
   37.4450   22.8110   33.0100 C   0  0  0  0  0  3  0  0  0  0  0  0
   38.4100   22.2800   33.1090 H   0  0  0  0  0  0  0  0  0  0  0  0
   36.5880   21.9080   32.1240 C   0  0  0  0  0  3  0  0  0  0  0  0
   37.2350   21.2650   31.4740 H   0  0  0  0  0  0  0  0  0  0  0  0
   35.8830   22.7250   31.2820 O   0  0  0  0  0  0  0  0  0  0  0  0
   36.1020   24.0300   31.6140 C   0  0  0  0  0  3  0  0  0  0  0  0
   36.0790   24.7250   30.7470 H   0  0  0  0  0  0  0  0  0  0  0  0
  1  5  1  0  0  0  0
  1 13  1  0  0  0  0
  2  3  1  0  0  0  0
  2  6  1  1  0  0  0
  2  1  1  0  0  0  0
  3  8  1  0  0  0  0
  3  4  1  0  0  0  0
  4 10  1  0  0  0  0
  5  4  1  0  0  0  0
  5 12  1  0  0  0  0
  7  3  1  0  0  0  0
  9  4  1  0  0  0  0
 11  5  1  0  0  0  0
 13 14  1  0  0  0  0
 14 19  1  0  0  0  0
 14 15  2  0  0  0  0
 15 20  1  0  0  0  0
 16 15  1  0  0  0  0
 17 16  2  0  0  0  0
 18 13  2  0  0  0  0
 18 17  1  0  0  0  0
 21 17  1  0  0  0  0
 22  2  1  0  0  0  0
 23 22  2  0  0  0  0
 24 22  1  1  0  0  0
 24 25  1  0  0  0  0
 25 26  1  0  0  0  0
 27 25  1  0  0  0  0
 28 27  1  0  0  0  0
 29 30  1  0  0  0  0
 29 27  1  0  0  0  0
 30 24  1  0  0  0  0
 31 30  1  0  0  0  0
M  END
>  <minimizedAffinity>
-4.5182333

$$$$

 OpenBabel03272503253D

 31 33  0  0  1  0  0  0  0  0999 V2000
   38.1360   22.6150   34.5360 N   0  0  0  0  0  0  0  0  0  0  0  0
   38.5370   23.3830   33.4040 C   0  0  1  0  0  0  0  0  0  0  0  0
   38.3010   22.4520   32.2270 C   0  0  0  0  0  0  0  0  0  0  0  0
   37.7810   21.1460   32.8650 C   0  0  0  0  0  0  0  0  0  0  0  0
   37.1220   21.6980   34.0860 C   0  0  0  0  0  0  0  0  0  0  0  0
   39.6660   23.5290   33.3930 H   0  0  0  0  0  0  0  0  0  0  0  0
   37.4570   22.8940   31.6560 H   0  0  0  0  0  0  0  0  0  0  0  0
   39.1760   22.2870   31.5960 H   0  0  0  0  0  0  0  0  0  0  0  0
   37.0340   20.7400   32.1680 H   0  0  0  0  0  0  0  0  0  0  0  0
   38.6170   20.4580   33.0920 H   0  0  0  0  0  0  0  0  0  0  0  0
   36.1720   22.1730   33.8270 H   0  0  0  0  0  0  0  0  0  0  0  0
   36.9390   20.8990   34.8430 H   0  0  0  0  0  0  0  0  0  0  0  0
   38.6550   22.7350   35.8560 C   0  0  0  0  0  0  0  0  0  0  0  0
   37.8370   23.3240   36.8320 C   0  0  0  0  0  0  0  0  0  0  0  0
   38.3190   23.4540   38.1390 C   0  0  0  0  0  0  0  0  0  0  0  0
   39.5850   22.9830   38.3750 N   0  0  0  0  0  0  0  0  0  0  0  0
   40.3480   22.4190   37.4100 C   0  0  0  0  0  0  0  0  0  0  0  0
   39.8900   22.2840   36.1190 N   0  0  0  0  0  0  0  0  0  0  0  0
   36.8450   23.6930   36.6480 H   0  0  0  0  0  0  0  0  0  0  0  0
   37.7080   23.8990   38.8880 H   0  0  0  0  0  0  0  0  0  0  0  0
   41.3340   22.0790   37.6970 H   0  0  0  0  0  0  0  0  0  0  0  0
   37.9480   24.7130   33.2730 C   0  0  0  0  0  0  0  0  0  0  0  0
   37.0210   24.7430   32.4470 O   0  0  0  0  0  0  0  0  0  0  0  0
   38.1640   26.0700   33.8650 C   0  0  1  0  0  3  0  0  0  0  0  0
   37.2660   26.4580   34.9680 C   0  0  0  0  0  3  0  0  0  0  0  0
   36.3670   27.0280   34.6650 H   0  0  0  0  0  0  0  0  0  0  0  0
   38.1300   27.4640   35.7280 C   0  0  0  0  0  3  0  0  0  0  0  0
   37.8990   28.5100   35.3990 H   0  0  0  0  0  0  0  0  0  0  0  0
   39.4300   27.2240   35.3740 O   0  0  0  0  0  0  0  0  0  0  0  0
   39.4950   26.1140   34.5820 C   0  0  0  0  0  3  0  0  0  0  0  0
   40.3060   26.1510   33.8230 H   0  0  0  0  0  0  0  0  0  0  0  0
  1 13  1  0  0  0  0
  2  6  1  1  0  0  0
  2  1  1  0  0  0  0
  3  4  1  0  0  0  0
  3  2  1  0  0  0  0
  4 10  1  0  0  0  0
  4  5  1  0  0  0  0
  5  1  1  0  0  0  0
  5 12  1  0  0  0  0
  7  3  1  0  0  0  0
  8  3  1  0  0  0  0
  9  4  1  0  0  0  0
 11  5  1  0  0  0  0
 13 18  2  0  0  0  0
 13 14  1  0  0  0  0
 14 15  2  0  0  0  0
 15 16  1  0  0  0  0
 15 20  1  0  0  0  0
 17 21  1  0  0  0  0
 17 16  2  0  0  0  0
 18 17  1  0  0  0  0
 19 14  1  0  0  0  0
 22  2  1  0  0  0  0
 23 22  2  0  0  0  0
 24 22  1  1  0  0  0
 24 30  1  0  0  0  0
 24 25  1  0  0  0  0
 25 27  1  0  0  0  0
 26 25  1  0  0  0  0
 28 27  1  0  0  0  0
 29 27  1  0  0  0  0
 30 29  1  0  0  0  0
 31 30  1  0  0  0  0
M  END
>  <minimizedAffinity>
-4.49538469

$$$$

 OpenBabel03272503253D

 31 33  0  0  1  0  0  0  0  0999 V2000
   38.5330   25.6390   33.1980 N   0  0  0  0  0  0  0  0  0  0  0  0
   39.5130   24.6900   33.6070 C   0  0  1  0  0  0  0  0  0  0  0  0
   40.8020   25.4930   33.6630 C   0  0  0  0  0  0  0  0  0  0  0  0
   40.3910   26.9130   33.2160 C   0  0  0  0  0  0  0  0  0  0  0  0
   38.9690   26.9270   33.6710 C   0  0  0  0  0  0  0  0  0  0  0  0
   39.7170   23.9350   32.7790 H   0  0  0  0  0  0  0  0  0  0  0  0
   41.0730   25.5550   34.7370 H   0  0  0  0  0  0  0  0  0  0  0  0
   41.6160   25.0870   33.0600 H   0  0  0  0  0  0  0  0  0  0  0  0
   40.9980   27.6100   33.8120 H   0  0  0  0  0  0  0  0  0  0  0  0
   40.5020   27.0300   32.1220 H   0  0  0  0  0  0  0  0  0  0  0  0
   38.9150   27.0460   34.7570 H   0  0  0  0  0  0  0  0  0  0  0  0
   38.3960   27.7500   33.1820 H   0  0  0  0  0  0  0  0  0  0  0  0
   37.3530   25.3580   32.4540 C   0  0  0  0  0  0  0  0  0  0  0  0
   37.0510   24.0140   32.1840 C   0  0  0  0  0  0  0  0  0  0  0  0
   35.8980   23.7050   31.4570 C   0  0  0  0  0  0  0  0  0  0  0  0
   35.1270   24.7650   31.0520 N   0  0  0  0  0  0  0  0  0  0  0  0
   35.4460   26.0510   31.3300 C   0  0  0  0  0  0  0  0  0  0  0  0
   36.5780   26.3720   32.0440 N   0  0  0  0  0  0  0  0  0  0  0  0
   37.6550   23.1830   32.5010 H   0  0  0  0  0  0  0  0  0  0  0  0
   35.6580   22.6890   31.2460 H   0  0  0  0  0  0  0  0  0  0  0  0
   34.7730   26.8150   30.9660 H   0  0  0  0  0  0  0  0  0  0  0  0
   39.2130   23.9130   34.8070 C   0  0  0  0  0  0  0  0  0  0  0  0
   39.0090   22.7130   34.5580 O   0  0  0  0  0  0  0  0  0  0  0  0
   39.0760   24.1730   36.2740 C   0  0  1  0  0  3  0  0  0  0  0  0
   37.7030   24.3310   36.7890 C   0  0  0  0  0  3  0  0  0  0  0  0
   37.3380   25.3740   36.8420 H   0  0  0  0  0  0  0  0  0  0  0  0
   37.8700   23.9000   38.2460 C   0  0  0  0  0  3  0  0  0  0  0  0
   38.0380   24.7900   38.9040 H   0  0  0  0  0  0  0  0  0  0  0  0
   39.0120   23.1480   38.3130 O   0  0  0  0  0  0  0  0  0  0  0  0
   39.5120   22.9550   37.0570 C   0  0  0  0  0  3  0  0  0  0  0  0
   40.6200   22.8870   37.0210 H   0  0  0  0  0  0  0  0  0  0  0  0
  1  2  1  0  0  0  0
  1  5  1  0  0  0  0
  2  6  1  6  0  0  0
  2  3  1  0  0  0  0
  2 22  1  0  0  0  0
  3  7  1  0  0  0  0
  4  3  1  0  0  0  0
  4  5  1  0  0  0  0
  4  9  1  0  0  0  0
  5 11  1  0  0  0  0
  8  3  1  0  0  0  0
 10  4  1  0  0  0  0
 12  5  1  0  0  0  0
 13  1  1  0  0  0  0
 14 13  1  0  0  0  0
 14 19  1  0  0  0  0
 15 14  2  0  0  0  0
 16 17  2  0  0  0  0
 16 15  1  0  0  0  0
 17 18  1  0  0  0  0
 18 13  2  0  0  0  0
 20 15  1  0  0  0  0
 21 17  1  0  0  0  0
 23 22  2  0  0  0  0
 24 22  1  6  0  0  0
 24 25  1  0  0  0  0
 24 30  1  0  0  0  0
 25 26  1  0  0  0  0
 25 27  1  0  0  0  0
 27 29  1  0  0  0  0
 27 28  1  0  0  0  0
 30 29  1  0  0  0  0
 31 30  1  0  0  0  0
M  END
>  <minimizedAffinity>
-4.44901705

$$$$

 OpenBabel03272503253D

 31 33  0  0  1  0  0  0  0  0999 V2000
   37.4530   25.2380   32.8040 N   0  0  0  0  0  0  0  0  0  0  0  0
   38.4860   25.5220   33.7430 C   0  0  1  0  0  0  0  0  0  0  0  0
   38.8180   26.9830   33.4940 C   0  0  0  0  0  0  0  0  0  0  0  0
   37.8910   27.3960   32.3310 C   0  0  0  0  0  0  0  0  0  0  0  0
   36.7450   26.4700   32.5700 C   0  0  0  0  0  0  0  0  0  0  0  0
   39.4500   24.9860   33.4600 H   0  0  0  0  0  0  0  0  0  0  0  0
   38.4740   27.5300   34.3960 H   0  0  0  0  0  0  0  0  0  0  0  0
   39.8700   27.1780   33.2770 H   0  0  0  0  0  0  0  0  0  0  0  0
   37.5980   28.4380   32.5270 H   0  0  0  0  0  0  0  0  0  0  0  0
   38.3870   27.2370   31.3550 H   0  0  0  0  0  0  0  0  0  0  0  0
   36.1480   26.8100   33.4200 H   0  0  0  0  0  0  0  0  0  0  0  0
   36.0930   26.3920   31.6680 H   0  0  0  0  0  0  0  0  0  0  0  0
   37.1870   23.9730   32.2080 C   0  0  0  0  0  0  0  0  0  0  0  0
   38.2470   23.0600   32.1040 C   0  0  0  0  0  0  0  0  0  0  0  0
   38.0160   21.8080   31.5250 C   0  0  0  0  0  0  0  0  0  0  0  0
   36.7390   21.5590   31.0930 N   0  0  0  0  0  0  0  0  0  0  0  0
   35.7380   22.4630   31.2090 C   0  0  0  0  0  0  0  0  0  0  0  0
   35.9480   23.6990   31.7750 N   0  0  0  0  0  0  0  0  0  0  0  0
   39.2490   23.2540   32.4430 H   0  0  0  0  0  0  0  0  0  0  0  0
   38.8130   21.1060   31.4410 H   0  0  0  0  0  0  0  0  0  0  0  0
   34.7650   22.1710   30.8370 H   0  0  0  0  0  0  0  0  0  0  0  0
   38.2180   25.1750   35.1370 C   0  0  0  0  0  0  0  0  0  0  0  0
   37.7170   26.1170   35.7740 O   0  0  0  0  0  0  0  0  0  0  0  0
   38.3910   23.9800   36.0210 C   0  0  1  0  0  3  0  0  0  0  0  0
   39.7730   23.5030   36.2200 C   0  0  0  0  0  3  0  0  0  0  0  0
   40.0980   22.7040   35.5280 H   0  0  0  0  0  0  0  0  0  0  0  0
   39.6680   22.8210   37.5840 C   0  0  0  0  0  3  0  0  0  0  0  0
   39.4870   21.7230   37.4630 H   0  0  0  0  0  0  0  0  0  0  0  0
   38.5590   23.3310   38.2030 O   0  0  0  0  0  0  0  0  0  0  0  0
   38.0280   24.3350   37.4450 C   0  0  0  0  0  3  0  0  0  0  0  0
   36.9220   24.4160   37.5200 H   0  0  0  0  0  0  0  0  0  0  0  0
  1  2  1  0  0  0  0
  2  6  1  6  0  0  0
  2 22  1  0  0  0  0
  3  2  1  0  0  0  0
  3  7  1  0  0  0  0
  4  9  1  0  0  0  0
  4  5  1  0  0  0  0
  4  3  1  0  0  0  0
  5  1  1  0  0  0  0
  5 11  1  0  0  0  0
  8  3  1  0  0  0  0
 10  4  1  0  0  0  0
 12  5  1  0  0  0  0
 13  1  1  0  0  0  0
 14 13  1  0  0  0  0
 14 19  1  0  0  0  0
 15 14  2  0  0  0  0
 16 17  2  0  0  0  0
 16 15  1  0  0  0  0
 17 18  1  0  0  0  0
 18 13  2  0  0  0  0
 20 15  1  0  0  0  0
 21 17  1  0  0  0  0
 22 23  2  0  0  0  0
 24 22  1  6  0  0  0
 24 25  1  0  0  0  0
 24 30  1  0  0  0  0
 25 27  1  0  0  0  0
 26 25  1  0  0  0  0
 27 29  1  0  0  0  0
 28 27  1  0  0  0  0
 30 31  1  0  0  0  0
 30 29  1  0  0  0  0
M  END
>  <minimizedAffinity>
-4.38074493

$$$$

 OpenBabel03272503253D

 31 33  0  0  1  0  0  0  0  0999 V2000
   36.9840   25.5490   32.4290 N   0  0  0  0  0  0  0  0  0  0  0  0
   36.1140   24.5450   31.9140 C   0  0  1  0  0  0  0  0  0  0  0  0
   35.2810   25.2770   30.8760 C   0  0  0  0  0  0  0  0  0  0  0  0
   35.7830   26.7360   30.9380 C   0  0  0  0  0  0  0  0  0  0  0  0
   37.1920   26.5070   31.3750 C   0  0  0  0  0  0  0  0  0  0  0  0
   35.3420   24.2390   32.6940 H   0  0  0  0  0  0  0  0  0  0  0  0
   35.5930   24.8660   29.8930 H   0  0  0  0  0  0  0  0  0  0  0  0
   34.2030   25.2030   31.0250 H   0  0  0  0  0  0  0  0  0  0  0  0
   35.7520   27.1150   29.9060 H   0  0  0  0  0  0  0  0  0  0  0  0
   35.1910   27.3280   31.6610 H   0  0  0  0  0  0  0  0  0  0  0  0
   37.7960   26.1340   30.5430 H   0  0  0  0  0  0  0  0  0  0  0  0
   37.6510   27.4450   31.7700 H   0  0  0  0  0  0  0  0  0  0  0  0
   37.5310   25.5910   33.7420 C   0  0  0  0  0  0  0  0  0  0  0  0
   37.4720   26.8070   34.4400 C   0  0  0  0  0  0  0  0  0  0  0  0
   37.9990   26.8790   35.7330 C   0  0  0  0  0  0  0  0  0  0  0  0
   38.5470   25.7270   36.2360 N   0  0  0  0  0  0  0  0  0  0  0  0
   38.5880   24.5690   35.5360 C   0  0  0  0  0  0  0  0  0  0  0  0
   38.0740   24.4810   34.2620 N   0  0  0  0  0  0  0  0  0  0  0  0
   37.0420   27.7100   34.0460 H   0  0  0  0  0  0  0  0  0  0  0  0
   37.9600   27.7960   36.2720 H   0  0  0  0  0  0  0  0  0  0  0  0
   39.0420   23.7160   36.0210 H   0  0  0  0  0  0  0  0  0  0  0  0
   36.7400   23.3090   31.4490 C   0  0  0  0  0  0  0  0  0  0  0  0
   37.5640   23.5070   30.5410 O   0  0  0  0  0  0  0  0  0  0  0  0
   36.6540   21.8500   31.7680 C   0  0  1  0  0  3  0  0  0  0  0  0
   36.3280   21.4990   33.1640 C   0  0  0  0  0  3  0  0  0  0  0  0
   37.2010   21.3170   33.8180 H   0  0  0  0  0  0  0  0  0  0  0  0
   35.6750   20.1290   32.9910 C   0  0  0  0  0  3  0  0  0  0  0  0
   36.4270   19.3120   33.1400 H   0  0  0  0  0  0  0  0  0  0  0  0
   35.2620   20.0430   31.6890 O   0  0  0  0  0  0  0  0  0  0  0  0
   35.4670   21.2360   31.0600 C   0  0  0  0  0  3  0  0  0  0  0  0
   35.7100   21.1390   29.9800 H   0  0  0  0  0  0  0  0  0  0  0  0
  1 13  1  0  0  0  0
  2  1  1  0  0  0  0
  2  6  1  1  0  0  0
  3  4  1  0  0  0  0
  3  8  1  0  0  0  0
  3  2  1  0  0  0  0
  4  5  1  0  0  0  0
  4 10  1  0  0  0  0
  5 12  1  0  0  0  0
  5  1  1  0  0  0  0
  7  3  1  0  0  0  0
  9  4  1  0  0  0  0
 11  5  1  0  0  0  0
 13 18  2  0  0  0  0
 13 14  1  0  0  0  0
 14 15  2  0  0  0  0
 15 16  1  0  0  0  0
 15 20  1  0  0  0  0
 17 21  1  0  0  0  0
 17 16  2  0  0  0  0
 18 17  1  0  0  0  0
 19 14  1  0  0  0  0
 22  2  1  0  0  0  0
 23 22  2  0  0  0  0
 24 22  1  1  0  0  0
 24 25  1  0  0  0  0
 25 26  1  0  0  0  0
 27 28  1  0  0  0  0
 27 25  1  0  0  0  0
 29 27  1  0  0  0  0
 30 29  1  0  0  0  0
 30 24  1  0  0  0  0
 31 30  1  0  0  0  0
M  END
>  <minimizedAffinity>
-4.34116602

$$$$

 OpenBabel03272503253D

 31 33  0  0  1  0  0  0  0  0999 V2000
   39.4820   25.1450   34.5970 N   0  0  0  0  0  0  0  0  0  0  0  0
   39.1040   26.4530   34.1770 C   0  0  1  0  0  0  0  0  0  0  0  0
   40.4260   27.1910   34.0380 C   0  0  0  0  0  0  0  0  0  0  0  0
   41.4920   26.1540   34.4550 C   0  0  0  0  0  0  0  0  0  0  0  0
   40.7950   24.8940   34.0620 C   0  0  0  0  0  0  0  0  0  0  0  0
   38.5840   27.0150   35.0200 H   0  0  0  0  0  0  0  0  0  0  0  0
   40.5570   27.3740   32.9510 H   0  0  0  0  0  0  0  0  0  0  0  0
   40.4930   28.1130   34.6180 H   0  0  0  0  0  0  0  0  0  0  0  0
   42.3640   26.3350   33.8110 H   0  0  0  0  0  0  0  0  0  0  0  0
   41.7020   26.2190   35.5390 H   0  0  0  0  0  0  0  0  0  0  0  0
   40.8190   24.7640   32.9770 H   0  0  0  0  0  0  0  0  0  0  0  0
   41.2630   24.0050   34.5490 H   0  0  0  0  0  0  0  0  0  0  0  0
   38.7040   24.2660   35.4000 C   0  0  0  0  0  0  0  0  0  0  0  0
   38.2890   24.7220   36.6610 C   0  0  0  0  0  0  0  0  0  0  0  0
   37.5210   23.8820   37.4730 C   0  0  0  0  0  0  0  0  0  0  0  0
   37.2230   22.6440   36.9640 N   0  0  0  0  0  0  0  0  0  0  0  0
   37.6380   22.2340   35.7430 C   0  0  0  0  0  0  0  0  0  0  0  0
   38.3950   23.0490   34.9310 N   0  0  0  0  0  0  0  0  0  0  0  0
   38.5230   25.6920   37.0610 H   0  0  0  0  0  0  0  0  0  0  0  0
   37.2010   24.2170   38.4320 H   0  0  0  0  0  0  0  0  0  0  0  0
   37.3500   21.2390   35.4330 H   0  0  0  0  0  0  0  0  0  0  0  0
   38.2200   26.5400   33.0170 C   0  0  0  0  0  0  0  0  0  0  0  0
   38.7070   27.2180   32.0970 O   0  0  0  0  0  0  0  0  0  0  0  0
   36.8650   26.0340   32.6320 C   0  0  1  0  0  3  0  0  0  0  0  0
   36.1830   26.7470   31.5360 C   0  0  0  0  0  3  0  0  0  0  0  0
   35.4970   27.5540   31.8540 H   0  0  0  0  0  0  0  0  0  0  0  0
   35.2720   25.6530   30.9800 C   0  0  0  0  0  3  0  0  0  0  0  0
   34.2500   25.7240   31.4330 H   0  0  0  0  0  0  0  0  0  0  0  0
   35.7930   24.4540   31.3830 O   0  0  0  0  0  0  0  0  0  0  0  0
   36.9840   24.6580   32.0180 C   0  0  0  0  0  3  0  0  0  0  0  0
   37.1920   23.9250   32.8270 H   0  0  0  0  0  0  0  0  0  0  0  0
  1 13  1  0  0  0  0
  2  1  1  0  0  0  0
  2  6  1  1  0  0  0
  3  2  1  0  0  0  0
  3  4  1  0  0  0  0
  3  8  1  0  0  0  0
  4 10  1  0  0  0  0
  5  4  1  0  0  0  0
  5 12  1  0  0  0  0
  5  1  1  0  0  0  0
  7  3  1  0  0  0  0
  9  4  1  0  0  0  0
 11  5  1  0  0  0  0
 13 14  1  0  0  0  0
 14 19  1  0  0  0  0
 14 15  2  0  0  0  0
 15 20  1  0  0  0  0
 16 15  1  0  0  0  0
 17 16  2  0  0  0  0
 18 13  2  0  0  0  0
 18 17  1  0  0  0  0
 21 17  1  0  0  0  0
 22  2  1  0  0  0  0
 23 22  2  0  0  0  0
 24 22  1  6  0  0  0
 25 26  1  0  0  0  0
 25 24  1  0  0  0  0
 27 29  1  0  0  0  0
 27 28  1  0  0  0  0
 27 25  1  0  0  0  0
 29 30  1  0  0  0  0
 30 24  1  0  0  0  0
 30 31  1  0  0  0  0
M  END
>  <minimizedAffinity>
-4.30623055

$$$$

 OpenBabel03272503253D

 31 33  0  0  1  0  0  0  0  0999 V2000
   37.7520   27.1530   33.5840 N   0  0  0  0  0  0  0  0  0  0  0  0
   38.6000   26.0110   33.6650 C   0  0  1  0  0  0  0  0  0  0  0  0
   39.2180   26.1090   35.0500 C   0  0  0  0  0  0  0  0  0  0  0  0
   38.6350   27.4110   35.6410 C   0  0  0  0  0  0  0  0  0  0  0  0
   37.3260   27.4570   34.9250 C   0  0  0  0  0  0  0  0  0  0  0  0
   39.4990   26.1240   32.9740 H   0  0  0  0  0  0  0  0  0  0  0  0
   38.7910   25.2660   35.6320 H   0  0  0  0  0  0  0  0  0  0  0  0
   40.3090   26.0990   35.0610 H   0  0  0  0  0  0  0  0  0  0  0  0
   38.4870   27.2210   36.7140 H   0  0  0  0  0  0  0  0  0  0  0  0
   39.2890   28.2740   35.4150 H   0  0  0  0  0  0  0  0  0  0  0  0
   36.6310   26.7280   35.3500 H   0  0  0  0  0  0  0  0  0  0  0  0
   36.8710   28.4740   34.9800 H   0  0  0  0  0  0  0  0  0  0  0  0
   37.4060   27.8570   32.3970 C   0  0  0  0  0  0  0  0  0  0  0  0
   36.2530   28.6560   32.4200 C   0  0  0  0  0  0  0  0  0  0  0  0
   35.8880   29.3620   31.2690 C   0  0  0  0  0  0  0  0  0  0  0  0
   36.7060   29.2190   30.1780 N   0  0  0  0  0  0  0  0  0  0  0  0
   37.8120   28.4400   30.1890 C   0  0  0  0  0  0  0  0  0  0  0  0
   38.1850   27.7380   31.3130 N   0  0  0  0  0  0  0  0  0  0  0  0
   35.6110   28.7690   33.2750 H   0  0  0  0  0  0  0  0  0  0  0  0
   35.0150   29.9720   31.2740 H   0  0  0  0  0  0  0  0  0  0  0  0
   38.3910   28.3930   29.2770 H   0  0  0  0  0  0  0  0  0  0  0  0
   37.9950   24.7200   33.3450 C   0  0  0  0  0  0  0  0  0  0  0  0
   37.9150   23.9740   34.3350 O   0  0  0  0  0  0  0  0  0  0  0  0
   37.4440   24.0400   32.1310 C   0  0  1  0  0  3  0  0  0  0  0  0
   37.1260   22.6060   32.2680 C   0  0  0  0  0  3  0  0  0  0  0  0
   37.9330   21.9140   31.9600 H   0  0  0  0  0  0  0  0  0  0  0  0
   36.0360   22.4310   31.2110 C   0  0  0  0  0  3  0  0  0  0  0  0
   36.4760   22.0680   30.2470 H   0  0  0  0  0  0  0  0  0  0  0  0
   35.5200   23.6730   30.9590 O   0  0  0  0  0  0  0  0  0  0  0  0
   36.0690   24.5840   31.8140 C   0  0  0  0  0  3  0  0  0  0  0  0
   36.1820   25.6000   31.3780 H   0  0  0  0  0  0  0  0  0  0  0  0
  1  2  1  0  0  0  0
  1  5  1  0  0  0  0
  2  6  1  6  0  0  0
  2  3  1  0  0  0  0
  3  8  1  0  0  0  0
  3  7  1  0  0  0  0
  3  4  1  0  0  0  0
  4  9  1  0  0  0  0
  5 12  1  0  0  0  0
  5 11  1  0  0  0  0
  5  4  1  0  0  0  0
 10  4  1  0  0  0  0
 13 14  1  0  0  0  0
 13  1  1  0  0  0  0
 14 19  1  0  0  0  0
 15 20  1  0  0  0  0
 15 14  2  0  0  0  0
 16 17  2  0  0  0  0
 16 15  1  0  0  0  0
 17 18  1  0  0  0  0
 18 13  2  0  0  0  0
 21 17  1  0  0  0  0
 22  2  1  0  0  0  0
 22 23  2  0  0  0  0
 24 25  1  0  0  0  0
 24 22  1  1  0  0  0
 26 25  1  0  0  0  0
 27 25  1  0  0  0  0
 28 27  1  0  0  0  0
 29 27  1  0  0  0  0
 29 30  1  0  0  0  0
 30 24  1  0  0  0  0
 31 30  1  0  0  0  0
M  END
>  <minimizedAffinity>
-4.30589104

$$$$
