
 OpenBabel03272507413D

 40 43  0  0  1  0  0  0  0  0999 V2000
   36.6430   32.1910   49.1960 O   0  0  0  0  0  0  0  0  0  0  0  0
   38.1660   32.1540   47.2330 C   0  0  0  0  0  0  0  0  0  0  0  0
   37.7710   32.5940   48.4820 C   0  0  0  0  0  0  0  0  0  0  0  0
   38.5270   33.5400   49.1660 C   0  0  0  0  0  0  0  0  0  0  0  0
   39.6830   34.0380   48.5820 C   0  0  0  0  0  0  0  0  0  0  0  0
   40.0720   33.5940   47.3320 C   0  0  0  0  0  0  0  0  0  0  0  0
   39.2960   32.6570   46.6880 C   0  0  0  0  0  0  0  0  0  0  0  0
   38.2950   33.9310   50.1280 H   0  0  0  0  0  0  0  0  0  0  0  0
   40.2980   34.7780   49.0850 H   0  0  0  0  0  0  0  0  0  0  0  0
   40.9560   33.9530   46.8440 H   0  0  0  0  0  0  0  0  0  0  0  0
   39.7250   32.1910   45.3490 C   0  0  0  0  0  0  0  0  0  0  0  0
   40.5860   31.1750   45.0110 C   0  0  0  0  0  0  0  0  0  0  0  0
   40.6470   31.1480   43.6200 C   0  0  0  0  0  0  0  0  0  0  0  0
   39.8130   32.1560   43.1960 C   0  0  0  0  0  0  0  0  0  0  0  0
   39.2790   32.7610   44.2410 O   0  0  0  0  0  0  0  0  0  0  0  0
   41.0930   30.5460   45.7410 H   0  0  0  0  0  0  0  0  0  0  0  0
   41.2510   30.4460   43.0560 H   0  0  0  0  0  0  0  0  0  0  0  0
   39.6370   32.4020   42.1510 H   0  0  0  0  0  0  0  0  0  0  0  0
   36.6700   30.4030   46.0850 N   0  0  0  0  0  0  0  0  0  0  0  0
   37.3330   31.1860   46.6070 C   0  0  0  0  0  0  0  0  0  0  0  0
   36.6240   31.1710   50.0840 C   0  0  0  0  0  0  0  0  0  0  0  0
   35.5580   30.3050   49.8620 C   0  0  0  0  0  0  0  0  0  0  0  0
   35.3650   29.1920   50.6710 C   0  0  0  0  0  0  0  0  0  0  0  0
   36.2630   28.9910   51.6840 N   0  0  0  0  0  0  0  0  0  0  0  0
   37.2950   29.8520   51.8800 C   0  0  0  0  0  0  0  0  0  0  0  0
   37.4600   30.9120   51.0920 N   0  0  0  0  0  0  0  0  0  0  0  0
   34.5860   28.4770   50.5840 H   0  0  0  0  0  0  0  0  0  0  0  0
   38.0070   29.7000   52.6760 H   0  0  0  0  0  0  0  0  0  0  0  0
   34.2240   29.2750   48.0920 C   0  0  0  0  0  0  0  0  0  0  0  0
   34.6570   28.0600   48.0560 O   0  0  0  0  0  0  0  0  0  0  0  0
   34.5890   30.4090   48.8660 N   0  0  0  0  0  0  0  0  0  0  0  0
   34.0860   31.2930   48.6310 H   0  0  0  0  0  0  0  0  0  0  0  0
   33.1180   29.3910   47.0690 C   0  0  1  0  0  3  0  0  0  0  0  0
   33.0680   30.7380   46.4310 C   0  0  0  0  0  3  0  0  0  0  0  0
   34.1290   31.0510   46.2320 H   0  0  0  0  0  0  0  0  0  0  0  0
   32.3840   30.4040   45.1260 C   0  0  0  0  0  3  0  0  0  0  0  0
   31.2770   30.4140   45.3450 H   0  0  0  0  0  0  0  0  0  0  0  0
   32.7440   29.1070   44.7950 O   0  0  0  0  0  0  0  0  0  0  0  0
   33.3760   28.5180   45.8680 C   0  0  0  0  0  3  0  0  0  0  0  0
   32.9890   27.4800   46.0070 H   0  0  0  0  0  0  0  0  0  0  0  0
  1 21  1  0  0  0  0
  2  3  1  0  0  0  0
  3  4  2  0  0  0  0
  3  1  1  0  0  0  0
  4  8  1  0  0  0  0
  5  9  1  0  0  0  0
  5  4  1  0  0  0  0
  6  5  2  0  0  0  0
  7  2  2  0  0  0  0
  7  6  1  0  0  0  0
 10  6  1  0  0  0  0
 11  7  1  0  0  0  0
 12 11  2  0  0  0  0
 12 16  1  0  0  0  0
 13 12  1  0  0  0  0
 14 13  2  0  0  0  0
 14 15  1  0  0  0  0
 15 11  1  0  0  0  0
 17 13  1  0  0  0  0
 18 14  1  0  0  0  0
 19 20  3  0  0  0  0
 20  2  1  0  0  0  0
 21 26  1  0  0  0  0
 22 21  2  0  0  0  0
 22 23  1  0  0  0  0
 23 24  2  0  0  0  0
 24 25  1  0  0  0  0
 25 28  1  0  0  0  0
 26 25  2  0  0  0  0
 27 23  1  0  0  0  0
 29 31  1  0  0  0  0
 30 29  2  0  0  0  0
 31 22  1  0  0  0  0
 32 31  1  0  0  0  0
 33 29  1  1  0  0  0
 34 33  1  0  0  0  0
 35 34  1  0  0  0  0
 36 37  1  0  0  0  0
 36 34  1  0  0  0  0
 38 36  1  0  0  0  0
 38 39  1  0  0  0  0
 39 40  1  0  0  0  0
 39 33  1  0  0  0  0
M  END
>  <minimizedAffinity>
-5.76022959

>  <minimizedRMSD>
0.388047248

$$$$
