
 OpenBabel03272506153D

 27 29  0  0  1  0  0  0  0  0999 V2000
   35.5240   19.8770   33.2880 C   0  0  0  0  0  0  0  0  0  0  0  0
   35.4320   19.4760   31.9300 C   0  0  0  0  0  0  0  0  0  0  0  0
   36.0240   20.3070   30.9540 C   0  0  0  0  0  0  0  0  0  0  0  0
   36.6420   21.4320   31.3830 N   0  0  0  0  0  0  0  0  0  0  0  0
   36.7040   21.7720   32.6830 C   0  0  0  0  0  0  0  0  0  0  0  0
   36.1540   21.0100   33.6410 N   0  0  0  0  0  0  0  0  0  0  0  0
   37.3550   22.9580   33.1300 N   0  0  0  0  0  0  0  0  0  0  0  0
   37.5020   23.9860   32.2690 C   0  0  0  0  0  0  0  0  0  0  0  0
   38.1390   25.0920   32.7780 C   0  0  0  0  0  0  0  0  0  0  0  0
   38.6140   25.1870   34.0760 C   0  0  0  0  0  0  0  0  0  0  0  0
   39.1900   26.2070   34.5060 O   0  0  0  0  0  0  0  0  0  0  0  0
   38.4410   24.1130   34.9150 N   0  0  0  0  0  0  0  0  0  0  0  0
   37.8150   23.0450   34.3930 C   0  0  0  0  0  0  0  0  0  0  0  0
   37.6340   22.0300   35.1350 O   0  0  0  0  0  0  0  0  0  0  0  0
   35.0830   19.2680   34.0570 H   0  0  0  0  0  0  0  0  0  0  0  0
   34.9160   18.5520   31.6620 H   0  0  0  0  0  0  0  0  0  0  0  0
   35.9640   20.0170   29.9160 H   0  0  0  0  0  0  0  0  0  0  0  0
   37.1420   23.9440   31.2490 H   0  0  0  0  0  0  0  0  0  0  0  0
   38.2990   25.9640   32.1520 H   0  0  0  0  0  0  0  0  0  0  0  0
   38.8990   24.1140   36.2800 C   0  0  1  0  0  3  0  0  0  0  0  0
   37.8080   23.8290   37.2910 C   0  0  0  0  0  3  0  0  0  0  0  0
   37.1650   22.9850   36.9910 H   0  0  0  0  0  0  0  0  0  0  0  0
   38.6730   23.3840   38.4610 C   0  0  0  0  0  3  0  0  0  0  0  0
   38.0750   22.8480   39.2260 H   0  0  0  0  0  0  0  0  0  0  0  0
   39.6870   22.6350   37.9200 O   0  0  0  0  0  0  0  0  0  0  0  0
   39.8480   23.0000   36.5940 C   0  0  0  0  0  3  0  0  0  0  0  0
   40.9120   23.2820   36.4840 H   0  0  0  0  0  0  0  0  0  0  0  0
  1  6  1  0  0  0  0
  1 15  1  0  0  0  0
  2  1  2  0  0  0  0
  3  4  2  0  0  0  0
  3  2  1  0  0  0  0
  4  5  1  0  0  0  0
  5  7  1  0  0  0  0
  5  6  2  0  0  0  0
  7 13  1  0  0  0  0
  8  9  2  0  0  0  0
  8  7  1  0  0  0  0
  9 10  1  0  0  0  0
 10 11  2  0  0  0  0
 10 12  1  0  0  0  0
 13 12  1  0  0  0  0
 13 14  2  0  0  0  0
 16  2  1  0  0  0  0
 17  3  1  0  0  0  0
 18  8  1  0  0  0  0
 19  9  1  0  0  0  0
 20 12  1  6  0  0  0
 20 26  1  0  0  0  0
 20 21  1  0  0  0  0
 21 23  1  0  0  0  0
 22 21  1  0  0  0  0
 23 24  1  0  0  0  0
 25 23  1  0  0  0  0
 26 25  1  0  0  0  0
 27 26  1  0  0  0  0
M  END
>  <minimizedAffinity>
-5.08429718

$$$$

 OpenBabel03272506153D

 27 29  0  0  1  0  0  0  0  0999 V2000
   37.9220   24.3050   38.1670 C   0  0  0  0  0  0  0  0  0  0  0  0
   38.8760   23.3840   38.6700 C   0  0  0  0  0  0  0  0  0  0  0  0
   39.6720   22.6820   37.7390 C   0  0  0  0  0  0  0  0  0  0  0  0
   39.4690   22.9380   36.4260 N   0  0  0  0  0  0  0  0  0  0  0  0
   38.5510   23.8220   35.9940 C   0  0  0  0  0  0  0  0  0  0  0  0
   37.7750   24.5090   36.8470 N   0  0  0  0  0  0  0  0  0  0  0  0
   38.3410   24.0880   34.6110 N   0  0  0  0  0  0  0  0  0  0  0  0
   38.6940   23.1520   33.7060 C   0  0  0  0  0  0  0  0  0  0  0  0
   38.4590   23.4860   32.3930 C   0  0  0  0  0  0  0  0  0  0  0  0
   37.9000   24.6860   31.9840 C   0  0  0  0  0  0  0  0  0  0  0  0
   37.7000   24.9580   30.7830 O   0  0  0  0  0  0  0  0  0  0  0  0
   37.5570   25.6070   32.9450 N   0  0  0  0  0  0  0  0  0  0  0  0
   37.7980   25.2560   34.2190 C   0  0  0  0  0  0  0  0  0  0  0  0
   37.4950   26.0790   35.1380 O   0  0  0  0  0  0  0  0  0  0  0  0
   37.2980   24.8570   38.8490 H   0  0  0  0  0  0  0  0  0  0  0  0
   38.9810   23.2330   39.7470 H   0  0  0  0  0  0  0  0  0  0  0  0
   40.4030   21.9780   38.1040 H   0  0  0  0  0  0  0  0  0  0  0  0
   39.1330   22.2040   33.9910 H   0  0  0  0  0  0  0  0  0  0  0  0
   38.7140   22.7900   31.6000 H   0  0  0  0  0  0  0  0  0  0  0  0
   36.9720   26.8820   32.6210 C   0  0  1  0  0  3  0  0  0  0  0  0
   37.9310   27.8410   31.9450 C   0  0  0  0  0  3  0  0  0  0  0  0
   38.5200   27.3560   31.1490 H   0  0  0  0  0  0  0  0  0  0  0  0
   36.9200   28.7750   31.2970 C   0  0  0  0  0  3  0  0  0  0  0  0
   37.3900   29.3940   30.5050 H   0  0  0  0  0  0  0  0  0  0  0  0
   35.8990   27.9770   30.8470 O   0  0  0  0  0  0  0  0  0  0  0  0
   35.9000   26.8020   31.5790 C   0  0  0  0  0  3  0  0  0  0  0  0
   34.8810   26.7060   32.0000 H   0  0  0  0  0  0  0  0  0  0  0  0
  1  2  1  0  0  0  0
  1 15  1  0  0  0  0
  2 16  1  0  0  0  0
  3 17  1  0  0  0  0
  3  2  2  0  0  0  0
  4  3  1  0  0  0  0
  5  4  2  0  0  0  0
  5  6  1  0  0  0  0
  6  1  2  0  0  0  0
  7  5  1  0  0  0  0
  8 18  1  0  0  0  0
  8  7  1  0  0  0  0
  9  8  2  0  0  0  0
 10  9  1  0  0  0  0
 10 12  1  0  0  0  0
 11 10  2  0  0  0  0
 12 13  1  0  0  0  0
 13  7  1  0  0  0  0
 13 14  2  0  0  0  0
 19  9  1  0  0  0  0
 20 12  1  6  0  0  0
 21 20  1  0  0  0  0
 22 21  1  0  0  0  0
 23 21  1  0  0  0  0
 24 23  1  0  0  0  0
 25 23  1  0  0  0  0
 25 26  1  0  0  0  0
 26 27  1  0  0  0  0
 26 20  1  0  0  0  0
M  END
>  <minimizedAffinity>
-5.04227686

$$$$

 OpenBabel03272506153D

 27 29  0  0  1  0  0  0  0  0999 V2000
   37.1530   20.9980   33.2070 C   0  0  0  0  0  0  0  0  0  0  0  0
   36.8810   20.1110   32.1340 C   0  0  0  0  0  0  0  0  0  0  0  0
   36.3910   20.6600   30.9300 C   0  0  0  0  0  0  0  0  0  0  0  0
   36.2150   22.0010   30.8820 N   0  0  0  0  0  0  0  0  0  0  0  0
   36.4880   22.8050   31.9250 C   0  0  0  0  0  0  0  0  0  0  0  0
   36.9550   22.3220   33.0870 N   0  0  0  0  0  0  0  0  0  0  0  0
   36.3010   24.2160   31.8700 N   0  0  0  0  0  0  0  0  0  0  0  0
   35.4230   24.7230   30.9800 C   0  0  0  0  0  0  0  0  0  0  0  0
   35.3010   26.0920   30.9900 C   0  0  0  0  0  0  0  0  0  0  0  0
   36.0100   26.9300   31.8360 C   0  0  0  0  0  0  0  0  0  0  0  0
   35.8760   28.1700   31.8190 O   0  0  0  0  0  0  0  0  0  0  0  0
   36.8920   26.3650   32.7250 N   0  0  0  0  0  0  0  0  0  0  0  0
   36.9920   25.0250   32.6950 C   0  0  0  0  0  0  0  0  0  0  0  0
   37.7970   24.4630   33.5010 O   0  0  0  0  0  0  0  0  0  0  0  0
   37.5280   20.6130   34.1390 H   0  0  0  0  0  0  0  0  0  0  0  0
   37.0490   19.0380   32.2510 H   0  0  0  0  0  0  0  0  0  0  0  0
   36.1790   20.0000   30.1040 H   0  0  0  0  0  0  0  0  0  0  0  0
   34.8540   24.0970   30.3040 H   0  0  0  0  0  0  0  0  0  0  0  0
   34.6170   26.5830   30.3050 H   0  0  0  0  0  0  0  0  0  0  0  0
   37.6740   27.1490   33.6450 C   0  0  1  0  0  3  0  0  0  0  0  0
   37.4310   26.8080   35.1010 C   0  0  0  0  0  3  0  0  0  0  0  0
   37.4080   25.7200   35.2800 H   0  0  0  0  0  0  0  0  0  0  0  0
   38.7120   27.3690   35.6970 C   0  0  0  0  0  3  0  0  0  0  0  0
   38.8890   26.9770   36.7200 H   0  0  0  0  0  0  0  0  0  0  0  0
   39.7110   27.0700   34.8050 O   0  0  0  0  0  0  0  0  0  0  0  0
   39.1450   26.8870   33.5550 C   0  0  0  0  0  3  0  0  0  0  0  0
   39.6770   27.5820   32.8770 H   0  0  0  0  0  0  0  0  0  0  0  0
  1 15  1  0  0  0  0
  2 16  1  0  0  0  0
  2  1  2  0  0  0  0
  3  2  1  0  0  0  0
  4  3  2  0  0  0  0
  4  5  1  0  0  0  0
  5  6  2  0  0  0  0
  6  1  1  0  0  0  0
  7  5  1  0  0  0  0
  7 13  1  0  0  0  0
  8  9  2  0  0  0  0
  8  7  1  0  0  0  0
  9 10  1  0  0  0  0
 10 12  1  0  0  0  0
 11 10  2  0  0  0  0
 13 12  1  0  0  0  0
 13 14  2  0  0  0  0
 17  3  1  0  0  0  0
 18  8  1  0  0  0  0
 19  9  1  0  0  0  0
 20 12  1  6  0  0  0
 20 21  1  0  0  0  0
 21 22  1  0  0  0  0
 21 23  1  0  0  0  0
 23 24  1  0  0  0  0
 25 23  1  0  0  0  0
 26 20  1  0  0  0  0
 26 25  1  0  0  0  0
 27 26  1  0  0  0  0
M  END
>  <minimizedAffinity>
-4.96795321

$$$$

 OpenBabel03272506153D

 27 29  0  0  1  0  0  0  0  0999 V2000
   39.6680   22.9850   36.6660 C   0  0  0  0  0  0  0  0  0  0  0  0
   39.1900   23.0530   38.0000 C   0  0  0  0  0  0  0  0  0  0  0  0
   38.2340   24.0440   38.3100 C   0  0  0  0  0  0  0  0  0  0  0  0
   37.8370   24.8640   37.3090 N   0  0  0  0  0  0  0  0  0  0  0  0
   38.3180   24.7620   36.0570 C   0  0  0  0  0  0  0  0  0  0  0  0
   39.2280   23.8340   35.7210 N   0  0  0  0  0  0  0  0  0  0  0  0
   37.8980   25.6280   35.0060 N   0  0  0  0  0  0  0  0  0  0  0  0
   37.3920   26.8380   35.3210 C   0  0  0  0  0  0  0  0  0  0  0  0
   37.0100   27.6120   34.2510 C   0  0  0  0  0  0  0  0  0  0  0  0
   37.1190   27.2160   32.9270 C   0  0  0  0  0  0  0  0  0  0  0  0
   36.7620   27.9430   31.9780 O   0  0  0  0  0  0  0  0  0  0  0  0
   37.6410   25.9740   32.6580 N   0  0  0  0  0  0  0  0  0  0  0  0
   38.0060   25.2380   33.7210 C   0  0  0  0  0  0  0  0  0  0  0  0
   38.4930   24.0830   33.5160 O   0  0  0  0  0  0  0  0  0  0  0  0
   40.3970   22.2420   36.3950 H   0  0  0  0  0  0  0  0  0  0  0  0
   39.5600   22.3540   38.7530 H   0  0  0  0  0  0  0  0  0  0  0  0
   37.8590   24.1100   39.3200 H   0  0  0  0  0  0  0  0  0  0  0  0
   37.2940   27.1780   36.3440 H   0  0  0  0  0  0  0  0  0  0  0  0
   36.5930   28.6000   34.4150 H   0  0  0  0  0  0  0  0  0  0  0  0
   37.7940   25.4720   31.3170 C   0  0  1  0  0  3  0  0  0  0  0  0
   39.2290   25.1710   30.9380 C   0  0  0  0  0  3  0  0  0  0  0  0
   39.7700   24.6260   31.7300 H   0  0  0  0  0  0  0  0  0  0  0  0
   38.9770   24.2160   29.7800 C   0  0  0  0  0  3  0  0  0  0  0  0
   39.8900   23.6370   29.5260 H   0  0  0  0  0  0  0  0  0  0  0  0
   37.9100   23.4390   30.1540 O   0  0  0  0  0  0  0  0  0  0  0  0
   37.1780   24.1240   31.1080 C   0  0  0  0  0  3  0  0  0  0  0  0
   36.1420   24.1670   30.7220 H   0  0  0  0  0  0  0  0  0  0  0  0
  1  2  1  0  0  0  0
  2  3  2  0  0  0  0
  2 16  1  0  0  0  0
  3 17  1  0  0  0  0
  4  3  1  0  0  0  0
  5  4  2  0  0  0  0
  6  5  1  0  0  0  0
  6  1  2  0  0  0  0
  7  8  1  0  0  0  0
  7  5  1  0  0  0  0
  8 18  1  0  0  0  0
  9 19  1  0  0  0  0
  9  8  2  0  0  0  0
 10  9  1  0  0  0  0
 11 10  2  0  0  0  0
 12 10  1  0  0  0  0
 12 13  1  0  0  0  0
 13  7  1  0  0  0  0
 14 13  2  0  0  0  0
 15  1  1  0  0  0  0
 20 12  1  1  0  0  0
 21 20  1  0  0  0  0
 21 22  1  0  0  0  0
 23 25  1  0  0  0  0
 23 21  1  0  0  0  0
 24 23  1  0  0  0  0
 25 26  1  0  0  0  0
 26 20  1  0  0  0  0
 27 26  1  0  0  0  0
M  END
>  <minimizedAffinity>
-4.88732815

$$$$

 OpenBabel03272506153D

 27 29  0  0  1  0  0  0  0  0999 V2000
   38.0700   26.8640   32.6750 C   0  0  0  0  0  0  0  0  0  0  0  0
   37.0820   27.7710   33.1380 C   0  0  0  0  0  0  0  0  0  0  0  0
   36.6740   27.6740   34.4860 C   0  0  0  0  0  0  0  0  0  0  0  0
   37.2580   26.7190   35.2470 N   0  0  0  0  0  0  0  0  0  0  0  0
   38.1920   25.8800   34.7650 C   0  0  0  0  0  0  0  0  0  0  0  0
   38.6070   25.9400   33.4900 N   0  0  0  0  0  0  0  0  0  0  0  0
   38.8040   24.8760   35.5700 N   0  0  0  0  0  0  0  0  0  0  0  0
   38.1500   24.4270   36.6610 C   0  0  0  0  0  0  0  0  0  0  0  0
   38.8070   23.4590   37.3830 C   0  0  0  0  0  0  0  0  0  0  0  0
   40.0530   22.9530   37.0500 C   0  0  0  0  0  0  0  0  0  0  0  0
   40.6230   22.0740   37.7280 O   0  0  0  0  0  0  0  0  0  0  0  0
   40.6790   23.4430   35.9290 N   0  0  0  0  0  0  0  0  0  0  0  0
   40.0150   24.3870   35.2420 C   0  0  0  0  0  0  0  0  0  0  0  0
   40.5590   24.8670   34.1990 O   0  0  0  0  0  0  0  0  0  0  0  0
   38.4030   26.9110   31.6530 H   0  0  0  0  0  0  0  0  0  0  0  0
   36.6570   28.5160   32.4610 H   0  0  0  0  0  0  0  0  0  0  0  0
   35.9240   28.3550   34.8550 H   0  0  0  0  0  0  0  0  0  0  0  0
   37.1750   24.8000   36.9490 H   0  0  0  0  0  0  0  0  0  0  0  0
   38.3510   23.0430   38.2760 H   0  0  0  0  0  0  0  0  0  0  0  0
   41.9740   22.9820   35.5010 C   0  0  1  0  0  3  0  0  0  0  0  0
   43.0840   23.2770   36.4880 C   0  0  0  0  0  3  0  0  0  0  0  0
   42.7990   23.0400   37.5270 H   0  0  0  0  0  0  0  0  0  0  0  0
   44.1020   22.2460   36.0210 C   0  0  0  0  0  3  0  0  0  0  0  0
   44.8900   22.0800   36.7840 H   0  0  0  0  0  0  0  0  0  0  0  0
   43.3850   21.1200   35.7050 O   0  0  0  0  0  0  0  0  0  0  0  0
   42.0820   21.4910   35.4190 C   0  0  0  0  0  3  0  0  0  0  0  0
   41.8660   21.0870   34.4110 H   0  0  0  0  0  0  0  0  0  0  0  0
  1  2  2  0  0  0  0
  1  6  1  0  0  0  0
  2  3  1  0  0  0  0
  3 17  1  0  0  0  0
  3  4  2  0  0  0  0
  5  4  1  0  0  0  0
  5  7  1  0  0  0  0
  6  5  2  0  0  0  0
  7  8  1  0  0  0  0
  8 18  1  0  0  0  0
  8  9  2  0  0  0  0
  9 19  1  0  0  0  0
 10  9  1  0  0  0  0
 10 11  2  0  0  0  0
 12 10  1  0  0  0  0
 13  7  1  0  0  0  0
 13 12  1  0  0  0  0
 14 13  2  0  0  0  0
 15  1  1  0  0  0  0
 16  2  1  0  0  0  0
 20 12  1  1  0  0  0
 20 21  1  0  0  0  0
 21 22  1  0  0  0  0
 23 21  1  0  0  0  0
 23 24  1  0  0  0  0
 25 23  1  0  0  0  0
 26 20  1  0  0  0  0
 26 25  1  0  0  0  0
 27 26  1  0  0  0  0
M  END
>  <minimizedAffinity>
-4.71694613

$$$$

 OpenBabel03272506153D

 27 29  0  0  1  0  0  0  0  0999 V2000
   37.8870   23.7780   37.3370 C   0  0  0  0  0  0  0  0  0  0  0  0
   38.9520   23.3460   38.1690 C   0  0  0  0  0  0  0  0  0  0  0  0
   40.0280   22.6610   37.5630 C   0  0  0  0  0  0  0  0  0  0  0  0
   39.9690   22.4650   36.2260 N   0  0  0  0  0  0  0  0  0  0  0  0
   38.9380   22.8930   35.4760 C   0  0  0  0  0  0  0  0  0  0  0  0
   37.8960   23.5480   36.0130 N   0  0  0  0  0  0  0  0  0  0  0  0
   38.8810   22.6840   34.0680 N   0  0  0  0  0  0  0  0  0  0  0  0
   39.5870   21.6690   33.5300 C   0  0  0  0  0  0  0  0  0  0  0  0
   39.4780   21.5340   32.1670 C   0  0  0  0  0  0  0  0  0  0  0  0
   38.7090   22.3610   31.3630 C   0  0  0  0  0  0  0  0  0  0  0  0
   38.6320   22.2110   30.1270 O   0  0  0  0  0  0  0  0  0  0  0  0
   38.0070   23.3810   31.9580 N   0  0  0  0  0  0  0  0  0  0  0  0
   38.1310   23.4900   33.2920 C   0  0  0  0  0  0  0  0  0  0  0  0
   37.5000   24.4210   33.8810 O   0  0  0  0  0  0  0  0  0  0  0  0
   37.0510   24.3020   37.7660 H   0  0  0  0  0  0  0  0  0  0  0  0
   38.9270   23.5430   39.2430 H   0  0  0  0  0  0  0  0  0  0  0  0
   40.8470   22.3250   38.1810 H   0  0  0  0  0  0  0  0  0  0  0  0
   40.1970   21.0040   34.1290 H   0  0  0  0  0  0  0  0  0  0  0  0
   40.0140   20.7420   31.6530 H   0  0  0  0  0  0  0  0  0  0  0  0
   37.1820   24.2930   31.2100 C   0  0  1  0  0  3  0  0  0  0  0  0
   35.6960   24.0830   31.4180 C   0  0  0  0  0  3  0  0  0  0  0  0
   35.4340   23.9430   32.4800 H   0  0  0  0  0  0  0  0  0  0  0  0
   35.1950   25.4480   30.9720 C   0  0  0  0  0  3  0  0  0  0  0  0
   34.1530   25.6280   31.3110 H   0  0  0  0  0  0  0  0  0  0  0  0
   36.1010   26.3600   31.4500 O   0  0  0  0  0  0  0  0  0  0  0  0
   37.3110   25.7180   31.6510 C   0  0  0  0  0  3  0  0  0  0  0  0
   38.0600   26.2930   31.0740 H   0  0  0  0  0  0  0  0  0  0  0  0
  1 15  1  0  0  0  0
  1  2  1  0  0  0  0
  2 16  1  0  0  0  0
  3  2  2  0  0  0  0
  3 17  1  0  0  0  0
  4  3  1  0  0  0  0
  5  6  1  0  0  0  0
  5  4  2  0  0  0  0
  6  1  2  0  0  0  0
  7  5  1  0  0  0  0
  8  7  1  0  0  0  0
  8 18  1  0  0  0  0
  9  8  2  0  0  0  0
 10 12  1  0  0  0  0
 10  9  1  0  0  0  0
 11 10  2  0  0  0  0
 12 13  1  0  0  0  0
 13 14  2  0  0  0  0
 13  7  1  0  0  0  0
 19  9  1  0  0  0  0
 20 21  1  0  0  0  0
 20 26  1  0  0  0  0
 20 12  1  1  0  0  0
 21 22  1  0  0  0  0
 23 24  1  0  0  0  0
 23 21  1  0  0  0  0
 23 25  1  0  0  0  0
 25 26  1  0  0  0  0
 27 26  1  0  0  0  0
M  END
>  <minimizedAffinity>
-4.6771822

$$$$

 OpenBabel03272506153D

 27 29  0  0  1  0  0  0  0  0999 V2000
   38.4070   27.5090   31.9360 C   0  0  0  0  0  0  0  0  0  0  0  0
   37.4690   28.2940   31.2180 C   0  0  0  0  0  0  0  0  0  0  0  0
   36.2740   27.6730   30.7950 C   0  0  0  0  0  0  0  0  0  0  0  0
   36.1050   26.3670   31.1060 N   0  0  0  0  0  0  0  0  0  0  0  0
   37.0230   25.6620   31.7910 C   0  0  0  0  0  0  0  0  0  0  0  0
   38.1720   26.2150   32.2100 N   0  0  0  0  0  0  0  0  0  0  0  0
   36.8410   24.2870   32.1160 N   0  0  0  0  0  0  0  0  0  0  0  0
   36.0030   23.5440   31.3640 C   0  0  0  0  0  0  0  0  0  0  0  0
   35.8830   22.2280   31.7430 C   0  0  0  0  0  0  0  0  0  0  0  0
   36.5560   21.6640   32.8150 C   0  0  0  0  0  0  0  0  0  0  0  0
   36.4240   20.4640   33.1330 O   0  0  0  0  0  0  0  0  0  0  0  0
   37.3990   22.4620   33.5500 N   0  0  0  0  0  0  0  0  0  0  0  0
   37.4980   23.7430   33.1590 C   0  0  0  0  0  0  0  0  0  0  0  0
   38.2660   24.5150   33.8120 O   0  0  0  0  0  0  0  0  0  0  0  0
   39.3290   27.9510   32.2730 H   0  0  0  0  0  0  0  0  0  0  0  0
   37.6780   29.3450   31.0050 H   0  0  0  0  0  0  0  0  0  0  0  0
   35.5490   28.2550   30.2470 H   0  0  0  0  0  0  0  0  0  0  0  0
   35.4620   23.9530   30.5200 H   0  0  0  0  0  0  0  0  0  0  0  0
   35.2290   21.5600   31.1920 H   0  0  0  0  0  0  0  0  0  0  0  0
   38.1410   21.9690   34.6810 C   0  0  1  0  0  3  0  0  0  0  0  0
   39.6210   22.2880   34.6260 C   0  0  0  0  0  3  0  0  0  0  0  0
   39.8170   23.3310   34.3280 H   0  0  0  0  0  0  0  0  0  0  0  0
   39.9550   22.1370   36.1030 C   0  0  0  0  0  3  0  0  0  0  0  0
   40.9310   22.6050   36.3480 H   0  0  0  0  0  0  0  0  0  0  0  0
   38.8940   22.6690   36.7890 O   0  0  0  0  0  0  0  0  0  0  0  0
   37.7760   22.6330   35.9730 C   0  0  0  0  0  3  0  0  0  0  0  0
   37.0000   22.0900   36.5440 H   0  0  0  0  0  0  0  0  0  0  0  0
  1  6  1  0  0  0  0
  1 15  1  0  0  0  0
  2  1  2  0  0  0  0
  3  4  2  0  0  0  0
  3  2  1  0  0  0  0
  4  5  1  0  0  0  0
  5  7  1  0  0  0  0
  5  6  2  0  0  0  0
  7 13  1  0  0  0  0
  8  9  2  0  0  0  0
  8  7  1  0  0  0  0
  9 10  1  0  0  0  0
 10 11  2  0  0  0  0
 10 12  1  0  0  0  0
 13 12  1  0  0  0  0
 13 14  2  0  0  0  0
 16  2  1  0  0  0  0
 17  3  1  0  0  0  0
 18  8  1  0  0  0  0
 19  9  1  0  0  0  0
 20 12  1  6  0  0  0
 20 26  1  0  0  0  0
 21 20  1  0  0  0  0
 21 23  1  0  0  0  0
 22 21  1  0  0  0  0
 23 24  1  0  0  0  0
 23 25  1  0  0  0  0
 26 27  1  0  0  0  0
 26 25  1  0  0  0  0
M  END
>  <minimizedAffinity>
-4.65944386

$$$$

 OpenBabel03272506153D

 27 29  0  0  1  0  0  0  0  0999 V2000
   37.7520   28.1320   31.9190 C   0  0  0  0  0  0  0  0  0  0  0  0
   36.8370   28.1950   30.8370 C   0  0  0  0  0  0  0  0  0  0  0  0
   36.1150   27.0270   30.5110 C   0  0  0  0  0  0  0  0  0  0  0  0
   36.3450   25.9230   31.2590 N   0  0  0  0  0  0  0  0  0  0  0  0
   37.2230   25.9090   32.2780 C   0  0  0  0  0  0  0  0  0  0  0  0
   37.9290   26.9980   32.6190 N   0  0  0  0  0  0  0  0  0  0  0  0
   37.4610   24.7430   33.0620 N   0  0  0  0  0  0  0  0  0  0  0  0
   37.1930   23.5330   32.5310 C   0  0  0  0  0  0  0  0  0  0  0  0
   37.4510   22.4610   33.3510 C   0  0  0  0  0  0  0  0  0  0  0  0
   37.9510   22.5700   34.6390 C   0  0  0  0  0  0  0  0  0  0  0  0
   38.1740   21.5740   35.3580 O   0  0  0  0  0  0  0  0  0  0  0  0
   38.2080   23.8250   35.1350 N   0  0  0  0  0  0  0  0  0  0  0  0
   37.9480   24.8550   34.3130 C   0  0  0  0  0  0  0  0  0  0  0  0
   38.1720   26.0320   34.7340 O   0  0  0  0  0  0  0  0  0  0  0  0
   38.3190   29.0040   32.1940 H   0  0  0  0  0  0  0  0  0  0  0  0
   36.7070   29.1260   30.2800 H   0  0  0  0  0  0  0  0  0  0  0  0
   35.4150   27.0580   29.6910 H   0  0  0  0  0  0  0  0  0  0  0  0
   36.8020   23.4130   31.5280 H   0  0  0  0  0  0  0  0  0  0  0  0
   37.2630   21.4510   33.0010 H   0  0  0  0  0  0  0  0  0  0  0  0
   38.7280   24.0420   36.4600 C   0  0  1  0  0  3  0  0  0  0  0  0
   37.7610   23.6660   37.5650 C   0  0  0  0  0  3  0  0  0  0  0  0
   37.2720   22.6940   37.3830 H   0  0  0  0  0  0  0  0  0  0  0  0
   38.7530   23.5010   38.7060 C   0  0  0  0  0  3  0  0  0  0  0  0
   38.3050   22.9430   39.5550 H   0  0  0  0  0  0  0  0  0  0  0  0
   39.8600   22.8970   38.1650 O   0  0  0  0  0  0  0  0  0  0  0  0
   39.8820   23.1530   36.8050 C   0  0  0  0  0  3  0  0  0  0  0  0
   40.8680   23.6100   36.5980 H   0  0  0  0  0  0  0  0  0  0  0  0
  1 15  1  0  0  0  0
  1  6  1  0  0  0  0
  2  1  2  0  0  0  0
  3  2  1  0  0  0  0
  3  4  2  0  0  0  0
  4  5  1  0  0  0  0
  5  6  2  0  0  0  0
  5  7  1  0  0  0  0
  7 13  1  0  0  0  0
  8  7  1  0  0  0  0
  8  9  2  0  0  0  0
  9 10  1  0  0  0  0
 10 12  1  0  0  0  0
 10 11  2  0  0  0  0
 13 14  2  0  0  0  0
 13 12  1  0  0  0  0
 16  2  1  0  0  0  0
 17  3  1  0  0  0  0
 18  8  1  0  0  0  0
 19  9  1  0  0  0  0
 20 12  1  6  0  0  0
 20 26  1  0  0  0  0
 20 21  1  0  0  0  0
 21 23  1  0  0  0  0
 22 21  1  0  0  0  0
 23 24  1  0  0  0  0
 25 23  1  0  0  0  0
 26 25  1  0  0  0  0
 27 26  1  0  0  0  0
M  END
>  <minimizedAffinity>
-4.60822868

$$$$

 OpenBabel03272506153D

 27 29  0  0  1  0  0  0  0  0999 V2000
   35.8270   28.2810   32.7960 C   0  0  0  0  0  0  0  0  0  0  0  0
   35.9640   28.8560   31.5070 C   0  0  0  0  0  0  0  0  0  0  0  0
   37.1940   28.6880   30.8350 C   0  0  0  0  0  0  0  0  0  0  0  0
   38.1610   27.9860   31.4700 N   0  0  0  0  0  0  0  0  0  0  0  0
   37.9860   27.4580   32.6950 C   0  0  0  0  0  0  0  0  0  0  0  0
   36.8320   27.5960   33.3670 N   0  0  0  0  0  0  0  0  0  0  0  0
   39.0080   26.7200   33.3600 N   0  0  0  0  0  0  0  0  0  0  0  0
   40.2940   26.9290   33.0130 C   0  0  0  0  0  0  0  0  0  0  0  0
   41.2170   26.1780   33.7010 C   0  0  0  0  0  0  0  0  0  0  0  0
   40.8940   25.2610   34.6880 C   0  0  0  0  0  0  0  0  0  0  0  0
   41.7580   24.5950   35.2940 O   0  0  0  0  0  0  0  0  0  0  0  0
   39.5690   25.0850   35.0060 N   0  0  0  0  0  0  0  0  0  0  0  0
   38.6870   25.8300   34.3190 C   0  0  0  0  0  0  0  0  0  0  0  0
   37.4520   25.6970   34.5820 O   0  0  0  0  0  0  0  0  0  0  0  0
   34.9030   28.3910   33.3370 H   0  0  0  0  0  0  0  0  0  0  0  0
   35.1350   29.4100   31.0600 H   0  0  0  0  0  0  0  0  0  0  0  0
   37.3160   29.1180   29.8530 H   0  0  0  0  0  0  0  0  0  0  0  0
   40.5810   27.6380   32.2470 H   0  0  0  0  0  0  0  0  0  0  0  0
   42.2760   26.2840   33.4840 H   0  0  0  0  0  0  0  0  0  0  0  0
   39.1310   24.1560   36.0160 C   0  0  1  0  0  3  0  0  0  0  0  0
   38.1490   24.7470   37.0060 C   0  0  0  0  0  3  0  0  0  0  0  0
   37.3620   25.3430   36.5130 H   0  0  0  0  0  0  0  0  0  0  0  0
   37.5260   23.4600   37.5250 C   0  0  0  0  0  3  0  0  0  0  0  0
   36.5720   23.6570   38.0560 H   0  0  0  0  0  0  0  0  0  0  0  0
   37.3980   22.6330   36.4380 O   0  0  0  0  0  0  0  0  0  0  0  0
   38.3130   23.0250   35.4750 C   0  0  0  0  0  3  0  0  0  0  0  0
   38.9090   22.1230   35.2380 H   0  0  0  0  0  0  0  0  0  0  0  0
  1 15  1  0  0  0  0
  1  6  1  0  0  0  0
  2  1  2  0  0  0  0
  3  4  2  0  0  0  0
  3  2  1  0  0  0  0
  4  5  1  0  0  0  0
  5  7  1  0  0  0  0
  5  6  2  0  0  0  0
  7 13  1  0  0  0  0
  8  7  1  0  0  0  0
  8  9  2  0  0  0  0
  9 10  1  0  0  0  0
 10 12  1  0  0  0  0
 10 11  2  0  0  0  0
 13 14  2  0  0  0  0
 13 12  1  0  0  0  0
 16  2  1  0  0  0  0
 17  3  1  0  0  0  0
 18  8  1  0  0  0  0
 19  9  1  0  0  0  0
 20 12  1  6  0  0  0
 20 21  1  0  0  0  0
 21 23  1  0  0  0  0
 22 21  1  0  0  0  0
 23 24  1  0  0  0  0
 25 23  1  0  0  0  0
 26 20  1  0  0  0  0
 26 25  1  0  0  0  0
 27 26  1  0  0  0  0
M  END
>  <minimizedAffinity>
-4.59845829

$$$$
