
 OpenBabel03272507263D

 36 38  0  0  1  0  0  0  0  0999 V2000
   32.8280   32.3610   42.9210 C   0  0  0  0  0  0  0  0  0  0  0  0
   33.4400   31.0840   43.0190 C   0  0  0  0  0  0  0  0  0  0  0  0
   32.8790   30.0410   42.2550 C   0  0  0  0  0  0  0  0  0  0  0  0
   31.8040   30.3110   41.4830 N   0  0  0  0  0  0  0  0  0  0  0  0
   31.2560   31.5460   41.4220 C   0  0  0  0  0  0  0  0  0  0  0  0
   31.7710   32.5530   42.1380 N   0  0  0  0  0  0  0  0  0  0  0  0
   33.4270   28.7530   42.2990 N   0  0  0  0  0  0  0  0  0  0  0  0
   34.8460   28.4590   42.5630 C   0  0  0  0  0  0  0  0  0  0  0  0
   35.0340   27.0100   42.2790 C   0  0  0  0  0  0  0  0  0  0  0  0
   33.8550   26.6770   41.4290 C   0  0  0  0  0  0  0  0  0  0  0  0
   32.7740   27.4960   42.1100 C   0  0  2  0  0  0  0  0  0  0  0  0
   33.3630   33.0560   43.5580 H   0  0  0  0  0  0  0  0  0  0  0  0
   34.2950   30.8350   43.6240 H   0  0  0  0  0  0  0  0  0  0  0  0
   30.4030   31.7790   40.8150 H   0  0  0  0  0  0  0  0  0  0  0  0
   35.1530   28.7670   43.5740 H   0  0  0  0  0  0  0  0  0  0  0  0
   35.3990   29.0940   41.8180 H   0  0  0  0  0  0  0  0  0  0  0  0
   35.2290   26.3550   43.1320 H   0  0  0  0  0  0  0  0  0  0  0  0
   35.9260   26.9080   41.6230 H   0  0  0  0  0  0  0  0  0  0  0  0
   33.6220   25.5990   41.5650 H   0  0  0  0  0  0  0  0  0  0  0  0
   34.0040   26.9620   40.3770 H   0  0  0  0  0  0  0  0  0  0  0  0
   31.4980   27.4720   41.3640 C   0  0  0  0  0  0  0  0  0  0  0  0
   31.7860   27.8610   40.0680 F   0  0  0  0  0  0  0  0  0  0  0  0
   30.5400   28.3240   41.8150 F   0  0  0  0  0  0  0  0  0  0  0  0
   31.0980   26.1560   41.3000 F   0  0  0  0  0  0  0  0  0  0  0  0
   32.5340   26.9620   43.4820 C   0  0  0  0  0  0  0  0  0  0  0  0
   33.4630   26.9160   44.0960 H   0  0  0  0  0  0  0  0  0  0  0  0
   32.2650   25.8750   43.3320 H   0  0  0  0  0  0  0  0  0  0  0  0
   31.6450   27.6360   43.9950 O   0  0  0  0  0  0  0  0  0  0  0  0
   31.9800   28.0600   45.2770 C   0  0  1  0  0  3  0  0  0  0  0  0
   30.9760   27.7470   46.3350 C   0  0  0  0  0  3  0  0  0  0  0  0
   30.6460   26.6830   46.2210 H   0  0  0  0  0  0  0  0  0  0  0  0
   31.8590   27.8300   47.5630 C   0  0  0  0  0  3  0  0  0  0  0  0
   31.7100   28.8390   48.0000 H   0  0  0  0  0  0  0  0  0  0  0  0
   33.1780   27.7430   47.1530 O   0  0  0  0  0  0  0  0  0  0  0  0
   33.1840   27.3010   45.8370 C   0  0  0  0  0  3  0  0  0  0  0  0
   33.0460   26.2110   45.8330 H   0  0  0  0  0  0  0  0  0  0  0  0
  1  2  1  0  0  0  0
  1 12  1  0  0  0  0
  2 13  1  0  0  0  0
  3  7  1  0  0  0  0
  3  2  2  0  0  0  0
  4  3  1  0  0  0  0
  5  4  2  0  0  0  0
  5  6  1  0  0  0  0
  6  1  2  0  0  0  0
  7  8  1  0  0  0  0
  8 15  1  0  0  0  0
  9  8  1  0  0  0  0
  9 17  1  0  0  0  0
 10 19  1  0  0  0  0
 10 11  1  0  0  0  0
 10  9  1  0  0  0  0
 11 21  1  6  0  0  0
 11  7  1  0  0  0  0
 11 25  1  0  0  0  0
 14  5  1  0  0  0  0
 16  8  1  0  0  0  0
 18  9  1  0  0  0  0
 20 10  1  0  0  0  0
 21 23  1  0  0  0  0
 22 21  1  0  0  0  0
 24 21  1  0  0  0  0
 25 28  1  0  0  0  0
 25 26  1  0  0  0  0
 27 25  1  0  0  0  0
 29 28  1  6  0  0  0
 29 35  1  0  0  0  0
 29 30  1  0  0  0  0
 30 32  1  0  0  0  0
 31 30  1  0  0  0  0
 32 33  1  0  0  0  0
 34 32  1  0  0  0  0
 35 34  1  0  0  0  0
 36 35  1  0  0  0  0
M  END
>  <minimizedAffinity>
-1.24166524

>  <minimizedRMSD>
8.07849598

$$$$
