
 OpenBabel03272506413D

 18 19  0  0  1  0  0  0  0  0999 V2000
   37.2400   30.3080   51.3570 C   0  0  0  0  0  0  0  0  0  0  0  0
   38.1080   30.8210   50.3710 C   0  0  0  0  0  0  0  0  0  0  0  0
   37.8850   30.4750   49.0340 C   0  0  0  0  0  0  0  0  0  0  0  0
   36.8390   29.6580   48.7520 N   0  0  0  0  0  0  0  0  0  0  0  0
   36.0200   29.1760   49.7060 C   0  0  0  0  0  0  0  0  0  0  0  0
   36.2270   29.5040   50.9930 N   0  0  0  0  0  0  0  0  0  0  0  0
   37.4470   30.5960   52.3700 H   0  0  0  0  0  0  0  0  0  0  0  0
   38.9520   31.4750   50.5720 H   0  0  0  0  0  0  0  0  0  0  0  0
   38.5070   30.8290   48.2280 H   0  0  0  0  0  0  0  0  0  0  0  0
   34.6480   28.1020   49.3350 S   0  0  0  0  0  0  0  0  0  0  0  0
   33.6650   28.8490   48.0440 C   0  0  2  0  0  3  0  0  0  0  0  0
   33.8640   28.1800   46.6780 C   0  0  0  0  0  3  0  0  0  0  0  0
   33.2600   27.2700   46.5570 H   0  0  0  0  0  0  0  0  0  0  0  0
   33.3010   29.3430   45.8460 C   0  0  0  0  0  3  0  0  0  0  0  0
   32.3110   29.5580   46.2860 H   0  0  0  0  0  0  0  0  0  0  0  0
   34.1580   30.3530   46.3090 O   0  0  0  0  0  0  0  0  0  0  0  0
   34.1450   30.2480   47.6860 C   0  0  0  0  0  3  0  0  0  0  0  0
   33.4530   31.0320   48.0580 H   0  0  0  0  0  0  0  0  0  0  0  0
  1  7  1  0  0  0  0
  2  8  1  0  0  0  0
  2  1  2  0  0  0  0
  3  2  1  0  0  0  0
  4  3  2  0  0  0  0
  4  5  1  0  0  0  0
  5  6  2  0  0  0  0
  6  1  1  0  0  0  0
  9  3  1  0  0  0  0
 10  5  1  0  0  0  0
 11 10  1  1  0  0  0
 12 11  1  0  0  0  0
 13 12  1  0  0  0  0
 14 15  1  0  0  0  0
 14 16  1  0  0  0  0
 14 12  1  0  0  0  0
 16 17  1  0  0  0  0
 17 11  1  0  0  0  0
 17 18  1  0  0  0  0
M  END
>  <minimizedAffinity>
-3.70507741

>  <minimizedRMSD>
1.28868377

$$$$
