
 OpenBabel03262521433D

 29 31  0  0  1  0  0  0  0  0999 V2000
   38.8440   26.0300   34.7700 C   0  0  1  0  0  0  0  0  0  0  0  0
   38.1820   26.7040   33.5650 C   0  0  2  0  0  0  0  0  0  0  0  0
   37.0570   27.3520   34.3380 C   0  0  0  0  0  0  0  0  0  0  0  0
   37.6430   27.8880   35.4740 O   0  0  0  0  0  0  0  0  0  0  0  0
   38.8110   27.2240   35.7280 C   0  0  0  0  0  0  0  0  0  0  0  0
   39.8890   25.7280   34.5650 H   0  0  0  0  0  0  0  0  0  0  0  0
   38.9130   27.4500   33.2110 H   0  0  0  0  0  0  0  0  0  0  0  0
   36.2670   26.6220   34.5570 H   0  0  0  0  0  0  0  0  0  0  0  0
   36.6730   28.2260   33.7570 H   0  0  0  0  0  0  0  0  0  0  0  0
   39.7240   27.8470   35.6410 H   0  0  0  0  0  0  0  0  0  0  0  0
   38.7890   26.8850   36.7950 H   0  0  0  0  0  0  0  0  0  0  0  0
   37.7430   25.7360   32.5540 C   0  0  0  0  0  0  0  0  0  0  0  0
   38.6880   24.9810   31.8450 C   0  0  0  0  0  0  0  0  0  0  0  0
   38.2080   24.0920   30.8800 C   0  0  0  0  0  0  0  0  0  0  0  0
   36.8560   24.0060   30.6800 N   0  0  0  0  0  0  0  0  0  0  0  0
   35.9600   24.7600   31.3920 C   0  0  0  0  0  0  0  0  0  0  0  0
   36.4210   25.6220   32.3280 N   0  0  0  0  0  0  0  0  0  0  0  0
   39.7500   25.0690   32.0220 H   0  0  0  0  0  0  0  0  0  0  0  0
   38.8660   23.4710   30.2860 H   0  0  0  0  0  0  0  0  0  0  0  0
   34.9100   24.6260   31.1670 H   0  0  0  0  0  0  0  0  0  0  0  0
   38.0680   25.0620   35.3310 O   0  0  0  0  0  0  0  0  0  0  0  0
   38.6900   24.6480   36.5040 C   0  0  1  0  0  3  0  0  0  0  0  0
   37.6580   24.0550   37.4750 C   0  0  0  0  0  3  0  0  0  0  0  0
   37.0430   24.8090   37.9600 H   0  0  0  0  0  0  0  0  0  0  0  0
   38.6430   23.3520   38.4020 C   0  0  0  0  0  3  0  0  0  0  0  0
   39.1040   24.0910   39.0920 H   0  0  0  0  0  0  0  0  0  0  0  0
   39.5600   22.7620   37.5520 O   0  0  0  0  0  0  0  0  0  0  0  0
   39.5810   23.4620   36.3520 C   0  0  0  0  0  3  0  0  0  0  0  0
   39.1640   22.7990   35.5730 H   0  0  0  0  0  0  0  0  0  0  0  0
  1  6  1  6  0  0  0
  1 21  1  0  0  0  0
  1  5  1  0  0  0  0
  2  7  1  6  0  0  0
  2  3  1  0  0  0  0
  2  1  1  0  0  0  0
  3  8  1  0  0  0  0
  3  4  1  0  0  0  0
  4  5  1  0  0  0  0
  5 11  1  0  0  0  0
  9  3  1  0  0  0  0
 10  5  1  0  0  0  0
 12  2  1  0  0  0  0
 13 18  1  0  0  0  0
 13 12  2  0  0  0  0
 14 13  1  0  0  0  0
 15 14  2  0  0  0  0
 15 16  1  0  0  0  0
 16 17  2  0  0  0  0
 17 12  1  0  0  0  0
 19 14  1  0  0  0  0
 20 16  1  0  0  0  0
 22 21  1  6  0  0  0
 22 23  1  0  0  0  0
 23 24  1  0  0  0  0
 23 25  1  0  0  0  0
 25 26  1  0  0  0  0
 27 25  1  0  0  0  0
 28 22  1  0  0  0  0
 28 27  1  0  0  0  0
 29 28  1  0  0  0  0
M  END
>  <minimizedAffinity>
-4.45109177

$$$$

 OpenBabel03262521433D

 29 31  0  0  1  0  0  0  0  0999 V2000
   37.7440   24.0420   36.9840 C   0  0  1  0  0  0  0  0  0  0  0  0
   38.3580   22.6430   36.8790 C   0  0  2  0  0  0  0  0  0  0  0  0
   39.5800   22.9370   37.7160 C   0  0  0  0  0  0  0  0  0  0  0  0
   39.1190   23.6510   38.8120 O   0  0  0  0  0  0  0  0  0  0  0  0
   37.9310   24.2460   38.4900 C   0  0  0  0  0  0  0  0  0  0  0  0
   36.6680   24.0540   36.7230 H   0  0  0  0  0  0  0  0  0  0  0  0
   37.6540   21.9770   37.4060 H   0  0  0  0  0  0  0  0  0  0  0  0
   40.3320   23.4780   37.1280 H   0  0  0  0  0  0  0  0  0  0  0  0
   39.9780   21.9770   38.1280 H   0  0  0  0  0  0  0  0  0  0  0  0
   37.0600   23.8770   39.0660 H   0  0  0  0  0  0  0  0  0  0  0  0
   38.0110   25.3330   38.7430 H   0  0  0  0  0  0  0  0  0  0  0  0
   38.6500   22.2640   35.4920 C   0  0  0  0  0  0  0  0  0  0  0  0
   39.9750   22.2270   35.0360 C   0  0  0  0  0  0  0  0  0  0  0  0
   40.1860   21.8790   33.6990 C   0  0  0  0  0  0  0  0  0  0  0  0
   39.1000   21.5970   32.9150 N   0  0  0  0  0  0  0  0  0  0  0  0
   37.8170   21.6420   33.3940 C   0  0  0  0  0  0  0  0  0  0  0  0
   37.6090   21.9780   34.6890 N   0  0  0  0  0  0  0  0  0  0  0  0
   40.8150   22.4560   35.6760 H   0  0  0  0  0  0  0  0  0  0  0  0
   41.1760   21.8270   33.2630 H   0  0  0  0  0  0  0  0  0  0  0  0
   37.0210   21.4030   32.7010 H   0  0  0  0  0  0  0  0  0  0  0  0
   38.4920   24.9980   36.3680 O   0  0  0  0  0  0  0  0  0  0  0  0
   37.6290   25.7990   35.6270 C   0  0  1  0  0  3  0  0  0  0  0  0
   38.0490   27.2730   35.7270 C   0  0  0  0  0  3  0  0  0  0  0  0
   37.7960   27.7260   36.6830 H   0  0  0  0  0  0  0  0  0  0  0  0
   37.2340   27.7900   34.5480 C   0  0  0  0  0  3  0  0  0  0  0  0
   36.1700   27.9070   34.8480 H   0  0  0  0  0  0  0  0  0  0  0  0
   37.4150   26.8410   33.5580 O   0  0  0  0  0  0  0  0  0  0  0  0
   37.7300   25.6240   34.1500 C   0  0  0  0  0  3  0  0  0  0  0  0
   38.7770   25.3890   33.8880 H   0  0  0  0  0  0  0  0  0  0  0  0
  1  6  1  6  0  0  0
  1  5  1  0  0  0  0
  2  1  1  0  0  0  0
  2  7  1  1  0  0  0
  2  3  1  0  0  0  0
  3  9  1  0  0  0  0
  3  4  1  0  0  0  0
  5 11  1  0  0  0  0
  5  4  1  0  0  0  0
  5 10  1  0  0  0  0
  8  3  1  0  0  0  0
 12  2  1  0  0  0  0
 13 12  1  0  0  0  0
 13 18  1  0  0  0  0
 14 13  2  0  0  0  0
 15 16  2  0  0  0  0
 15 14  1  0  0  0  0
 16 17  1  0  0  0  0
 17 12  2  0  0  0  0
 19 14  1  0  0  0  0
 20 16  1  0  0  0  0
 21  1  1  0  0  0  0
 22 23  1  0  0  0  0
 22 21  1  1  0  0  0
 23 24  1  0  0  0  0
 25 26  1  0  0  0  0
 25 23  1  0  0  0  0
 27 28  1  0  0  0  0
 27 25  1  0  0  0  0
 28 22  1  0  0  0  0
 29 28  1  0  0  0  0
M  END
>  <minimizedAffinity>
-4.34243965

$$$$

 OpenBabel03262521433D

 29 31  0  0  1  0  0  0  0  0999 V2000
   38.5050   23.5430   36.0650 C   0  0  1  0  0  0  0  0  0  0  0  0
   39.5250   22.5330   36.5970 C   0  0  2  0  0  0  0  0  0  0  0  0
   39.5210   23.0300   38.0230 C   0  0  0  0  0  0  0  0  0  0  0  0
   38.1870   23.2350   38.3440 O   0  0  0  0  0  0  0  0  0  0  0  0
   37.4750   23.4210   37.1910 C   0  0  0  0  0  0  0  0  0  0  0  0
   38.0610   23.2300   35.1010 H   0  0  0  0  0  0  0  0  0  0  0  0
   39.0330   21.5490   36.5090 H   0  0  0  0  0  0  0  0  0  0  0  0
   40.1360   23.9340   38.1200 H   0  0  0  0  0  0  0  0  0  0  0  0
   39.8690   22.2100   38.6960 H   0  0  0  0  0  0  0  0  0  0  0  0
   36.7260   22.6320   36.9800 H   0  0  0  0  0  0  0  0  0  0  0  0
   36.8830   24.3640   37.3010 H   0  0  0  0  0  0  0  0  0  0  0  0
   40.8230   22.6410   35.9220 C   0  0  0  0  0  0  0  0  0  0  0  0
   41.9740   22.9640   36.6540 C   0  0  0  0  0  0  0  0  0  0  0  0
   43.1760   23.0730   35.9490 C   0  0  0  0  0  0  0  0  0  0  0  0
   43.1650   22.8610   34.5960 N   0  0  0  0  0  0  0  0  0  0  0  0
   42.0200   22.5470   33.9120 C   0  0  0  0  0  0  0  0  0  0  0  0
   40.8540   22.4400   34.5910 N   0  0  0  0  0  0  0  0  0  0  0  0
   41.9540   23.1260   37.7220 H   0  0  0  0  0  0  0  0  0  0  0  0
   44.1120   23.3190   36.4340 H   0  0  0  0  0  0  0  0  0  0  0  0
   42.1070   22.3970   32.8440 H   0  0  0  0  0  0  0  0  0  0  0  0
   38.9610   24.8250   36.0950 O   0  0  0  0  0  0  0  0  0  0  0  0
   37.9350   25.6510   35.6490 C   0  0  1  0  0  3  0  0  0  0  0  0
   38.3210   27.1270   35.8240 C   0  0  0  0  0  3  0  0  0  0  0  0
   38.2670   27.4640   36.8560 H   0  0  0  0  0  0  0  0  0  0  0  0
   37.2550   27.7180   34.9100 C   0  0  0  0  0  3  0  0  0  0  0  0
   36.2780   27.7460   35.4390 H   0  0  0  0  0  0  0  0  0  0  0  0
   37.2460   26.8880   33.8030 O   0  0  0  0  0  0  0  0  0  0  0  0
   37.7190   25.6360   34.1740 C   0  0  0  0  0  3  0  0  0  0  0  0
   38.6920   25.4860   33.6710 H   0  0  0  0  0  0  0  0  0  0  0  0
  1  6  1  6  0  0  0
  1 21  1  0  0  0  0
  1  2  1  0  0  0  0
  1  5  1  0  0  0  0
  2  7  1  6  0  0  0
  2  3  1  0  0  0  0
  3  8  1  0  0  0  0
  3  4  1  0  0  0  0
  3  9  1  0  0  0  0
  5 11  1  0  0  0  0
  5  4  1  0  0  0  0
 10  5  1  0  0  0  0
 12  2  1  0  0  0  0
 12 13  1  0  0  0  0
 13 18  1  0  0  0  0
 14 19  1  0  0  0  0
 14 13  2  0  0  0  0
 15 14  1  0  0  0  0
 16 17  1  0  0  0  0
 16 15  2  0  0  0  0
 17 12  2  0  0  0  0
 20 16  1  0  0  0  0
 22 23  1  0  0  0  0
 22 21  1  6  0  0  0
 23 24  1  0  0  0  0
 25 26  1  0  0  0  0
 25 23  1  0  0  0  0
 27 28  1  0  0  0  0
 27 25  1  0  0  0  0
 28 22  1  0  0  0  0
 29 28  1  0  0  0  0
M  END
>  <minimizedAffinity>
-4.20756245

$$$$

 OpenBabel03262521433D

 29 31  0  0  1  0  0  0  0  0999 V2000
   37.4240   25.2280   31.7520 C   0  0  1  0  0  0  0  0  0  0  0  0
   36.5860   24.2390   30.9360 C   0  0  2  0  0  0  0  0  0  0  0  0
   35.2750   24.9770   31.0800 C   0  0  0  0  0  0  0  0  0  0  0  0
   35.5740   26.3140   30.8660 O   0  0  0  0  0  0  0  0  0  0  0  0
   36.9000   26.5220   31.1240 C   0  0  0  0  0  0  0  0  0  0  0  0
   38.5090   25.1190   31.5650 H   0  0  0  0  0  0  0  0  0  0  0  0
   36.9780   24.3060   29.9070 H   0  0  0  0  0  0  0  0  0  0  0  0
   34.8270   24.7820   32.0620 H   0  0  0  0  0  0  0  0  0  0  0  0
   34.5980   24.6820   30.2420 H   0  0  0  0  0  0  0  0  0  0  0  0
   37.4990   26.8230   30.2420 H   0  0  0  0  0  0  0  0  0  0  0  0
   36.9810   27.3790   31.8390 H   0  0  0  0  0  0  0  0  0  0  0  0
   36.5890   22.8910   31.5160 C   0  0  0  0  0  0  0  0  0  0  0  0
   37.7730   22.1410   31.5470 C   0  0  0  0  0  0  0  0  0  0  0  0
   37.7060   20.8560   32.0930 C   0  0  0  0  0  0  0  0  0  0  0  0
   36.5010   20.4040   32.5610 N   0  0  0  0  0  0  0  0  0  0  0  0
   35.3630   21.1650   32.5140 C   0  0  0  0  0  0  0  0  0  0  0  0
   35.4240   22.4100   31.9870 N   0  0  0  0  0  0  0  0  0  0  0  0
   38.7110   22.5220   31.1700 H   0  0  0  0  0  0  0  0  0  0  0  0
   38.5700   20.2080   32.1560 H   0  0  0  0  0  0  0  0  0  0  0  0
   34.4560   20.7250   32.9080 H   0  0  0  0  0  0  0  0  0  0  0  0
   37.0710   25.2650   33.0660 O   0  0  0  0  0  0  0  0  0  0  0  0
   37.8360   26.2490   33.6830 C   0  0  1  0  0  3  0  0  0  0  0  0
   37.1750   26.6980   34.9940 C   0  0  0  0  0  3  0  0  0  0  0  0
   36.3100   27.3390   34.8400 H   0  0  0  0  0  0  0  0  0  0  0  0
   38.3850   27.4050   35.5920 C   0  0  0  0  0  3  0  0  0  0  0  0
   38.5070   28.4060   35.1240 H   0  0  0  0  0  0  0  0  0  0  0  0
   39.4460   26.5560   35.3340 O   0  0  0  0  0  0  0  0  0  0  0  0
   39.1410   25.7750   34.2260 C   0  0  0  0  0  3  0  0  0  0  0  0
   39.0260   24.7330   34.5760 H   0  0  0  0  0  0  0  0  0  0  0  0
  1  6  1  6  0  0  0
  1 21  1  0  0  0  0
  2  7  1  6  0  0  0
  2  3  1  0  0  0  0
  2 12  1  0  0  0  0
  2  1  1  0  0  0  0
  3  8  1  0  0  0  0
  4  3  1  0  0  0  0
  4  5  1  0  0  0  0
  5  1  1  0  0  0  0
  5 11  1  0  0  0  0
  9  3  1  0  0  0  0
 10  5  1  0  0  0  0
 12 13  2  0  0  0  0
 12 17  1  0  0  0  0
 13 14  1  0  0  0  0
 14 19  1  0  0  0  0
 14 15  2  0  0  0  0
 16 15  1  0  0  0  0
 16 20  1  0  0  0  0
 17 16  2  0  0  0  0
 18 13  1  0  0  0  0
 22 21  1  1  0  0  0
 22 28  1  0  0  0  0
 22 23  1  0  0  0  0
 23 25  1  0  0  0  0
 24 23  1  0  0  0  0
 26 25  1  0  0  0  0
 27 25  1  0  0  0  0
 28 29  1  0  0  0  0
 28 27  1  0  0  0  0
M  END
>  <minimizedAffinity>
-4.10576963

$$$$

 OpenBabel03262521433D

 29 31  0  0  1  0  0  0  0  0999 V2000
   38.7580   22.8330   34.8640 C   0  0  1  0  0  0  0  0  0  0  0  0
   39.1190   24.2500   35.3200 C   0  0  2  0  0  0  0  0  0  0  0  0
   38.7640   24.0500   36.7740 C   0  0  0  0  0  0  0  0  0  0  0  0
   39.2920   22.8170   37.1220 O   0  0  0  0  0  0  0  0  0  0  0  0
   39.4470   22.0620   35.9930 C   0  0  0  0  0  0  0  0  0  0  0  0
   39.2090   22.5740   33.8870 H   0  0  0  0  0  0  0  0  0  0  0  0
   40.2100   24.3320   35.1760 H   0  0  0  0  0  0  0  0  0  0  0  0
   37.6780   24.1160   36.9200 H   0  0  0  0  0  0  0  0  0  0  0  0
   39.3170   24.8000   37.3900 H   0  0  0  0  0  0  0  0  0  0  0  0
   40.4980   21.8190   35.7420 H   0  0  0  0  0  0  0  0  0  0  0  0
   38.9510   21.0750   36.1680 H   0  0  0  0  0  0  0  0  0  0  0  0
   38.3240   25.2770   34.6370 C   0  0  0  0  0  0  0  0  0  0  0  0
   37.6490   26.2550   35.3800 C   0  0  0  0  0  0  0  0  0  0  0  0
   36.8920   27.1920   34.6720 C   0  0  0  0  0  0  0  0  0  0  0  0
   36.8500   27.1050   33.3060 N   0  0  0  0  0  0  0  0  0  0  0  0
   37.5230   26.1350   32.6110 C   0  0  0  0  0  0  0  0  0  0  0  0
   38.2580   25.2260   33.2940 N   0  0  0  0  0  0  0  0  0  0  0  0
   37.6990   26.3000   36.4580 H   0  0  0  0  0  0  0  0  0  0  0  0
   36.3380   27.9810   35.1640 H   0  0  0  0  0  0  0  0  0  0  0  0
   37.4310   26.1440   31.5330 H   0  0  0  0  0  0  0  0  0  0  0  0
   37.4270   22.5650   34.9680 O   0  0  0  0  0  0  0  0  0  0  0  0
   37.1300   21.5400   34.0770 C   0  0  1  0  0  3  0  0  0  0  0  0
   35.8440   20.8170   34.5020 C   0  0  0  0  0  3  0  0  0  0  0  0
   35.9840   20.1580   35.3550 H   0  0  0  0  0  0  0  0  0  0  0  0
   35.5790   20.0970   33.1850 C   0  0  0  0  0  3  0  0  0  0  0  0
   36.2410   19.2080   33.1010 H   0  0  0  0  0  0  0  0  0  0  0  0
   35.8280   21.0490   32.2130 O   0  0  0  0  0  0  0  0  0  0  0  0
   36.7100   21.9950   32.7210 C   0  0  0  0  0  3  0  0  0  0  0  0
   36.1560   22.9460   32.8190 H   0  0  0  0  0  0  0  0  0  0  0  0
  1  6  1  6  0  0  0
  1 21  1  0  0  0  0
  1  2  1  0  0  0  0
  1  5  1  0  0  0  0
  2  7  1  6  0  0  0
  2  3  1  0  0  0  0
  3  8  1  0  0  0  0
  3  4  1  0  0  0  0
  3  9  1  0  0  0  0
  5 11  1  0  0  0  0
  5  4  1  0  0  0  0
 10  5  1  0  0  0  0
 12  2  1  0  0  0  0
 12 13  1  0  0  0  0
 13 18  1  0  0  0  0
 14 19  1  0  0  0  0
 14 13  2  0  0  0  0
 15 14  1  0  0  0  0
 16 17  1  0  0  0  0
 16 15  2  0  0  0  0
 17 12  2  0  0  0  0
 20 16  1  0  0  0  0
 22 23  1  0  0  0  0
 22 21  1  1  0  0  0
 23 24  1  0  0  0  0
 25 23  1  0  0  0  0
 26 25  1  0  0  0  0
 27 28  1  0  0  0  0
 27 25  1  0  0  0  0
 28 29  1  0  0  0  0
 28 22  1  0  0  0  0
M  END
>  <minimizedAffinity>
-3.97404242

$$$$

 OpenBabel03262521433D

 29 31  0  0  1  0  0  0  0  0999 V2000
   38.6560   24.9030   34.0900 C   0  0  1  0  0  0  0  0  0  0  0  0
   38.0290   24.7620   32.6990 C   0  0  2  0  0  0  0  0  0  0  0  0
   37.0640   25.9160   32.8370 C   0  0  0  0  0  0  0  0  0  0  0  0
   37.7940   26.9470   33.4100 O   0  0  0  0  0  0  0  0  0  0  0  0
   38.8620   26.4200   34.0800 C   0  0  0  0  0  0  0  0  0  0  0  0
   39.6290   24.3810   34.1710 H   0  0  0  0  0  0  0  0  0  0  0  0
   38.8410   24.9950   31.9900 H   0  0  0  0  0  0  0  0  0  0  0  0
   36.1890   25.6210   33.4300 H   0  0  0  0  0  0  0  0  0  0  0  0
   36.7810   26.2770   31.8190 H   0  0  0  0  0  0  0  0  0  0  0  0
   39.8510   26.6980   33.6640 H   0  0  0  0  0  0  0  0  0  0  0  0
   38.8550   26.8350   35.1190 H   0  0  0  0  0  0  0  0  0  0  0  0
   37.3890   23.4570   32.5040 C   0  0  0  0  0  0  0  0  0  0  0  0
   36.1170   23.3770   31.9200 C   0  0  0  0  0  0  0  0  0  0  0  0
   35.5520   22.1060   31.7810 C   0  0  0  0  0  0  0  0  0  0  0  0
   36.2630   21.0200   32.2180 N   0  0  0  0  0  0  0  0  0  0  0  0
   37.5050   21.1350   32.7850 C   0  0  0  0  0  0  0  0  0  0  0  0
   38.0560   22.3650   32.9210 N   0  0  0  0  0  0  0  0  0  0  0  0
   35.5770   24.2500   31.5840 H   0  0  0  0  0  0  0  0  0  0  0  0
   34.5750   21.9510   31.3420 H   0  0  0  0  0  0  0  0  0  0  0  0
   37.9920   20.2220   33.1010 H   0  0  0  0  0  0  0  0  0  0  0  0
   37.7800   24.6370   35.0970 O   0  0  0  0  0  0  0  0  0  0  0  0
   38.5170   24.4330   36.2580 C   0  0  1  0  0  3  0  0  0  0  0  0
   37.6210   23.8690   37.3700 C   0  0  0  0  0  3  0  0  0  0  0  0
   36.9630   24.6140   37.8100 H   0  0  0  0  0  0  0  0  0  0  0  0
   38.7330   23.3840   38.2920 C   0  0  0  0  0  3  0  0  0  0  0  0
   39.1590   24.2450   38.8530 H   0  0  0  0  0  0  0  0  0  0  0  0
   39.6490   22.7840   37.4470 O   0  0  0  0  0  0  0  0  0  0  0  0
   39.5160   23.3300   36.1760 C   0  0  0  0  0  3  0  0  0  0  0  0
   39.1210   22.5370   35.5140 H   0  0  0  0  0  0  0  0  0  0  0  0
  1  6  1  1  0  0  0
  1 21  1  0  0  0  0
  2  7  1  6  0  0  0
  2  3  1  0  0  0  0
  2  1  1  0  0  0  0
  3  4  1  0  0  0  0
  3  8  1  0  0  0  0
  4  5  1  0  0  0  0
  5  1  1  0  0  0  0
  5 11  1  0  0  0  0
  9  3  1  0  0  0  0
 10  5  1  0  0  0  0
 12  2  1  0  0  0  0
 12 17  1  0  0  0  0
 13 12  2  0  0  0  0
 14 13  1  0  0  0  0
 14 15  2  0  0  0  0
 15 16  1  0  0  0  0
 16 17  2  0  0  0  0
 16 20  1  0  0  0  0
 18 13  1  0  0  0  0
 19 14  1  0  0  0  0
 22 21  1  6  0  0  0
 22 23  1  0  0  0  0
 23 24  1  0  0  0  0
 23 25  1  0  0  0  0
 25 26  1  0  0  0  0
 27 25  1  0  0  0  0
 28 22  1  0  0  0  0
 28 27  1  0  0  0  0
 29 28  1  0  0  0  0
M  END
>  <minimizedAffinity>
-3.93613982

$$$$

 OpenBabel03262521433D

 29 31  0  0  1  0  0  0  0  0999 V2000
   37.4600   26.4460   32.2370 C   0  0  1  0  0  0  0  0  0  0  0  0
   36.8520   25.7800   30.9990 C   0  0  2  0  0  0  0  0  0  0  0  0
   35.4580   26.3290   31.1860 C   0  0  0  0  0  0  0  0  0  0  0  0
   35.6230   27.6660   31.5150 O   0  0  0  0  0  0  0  0  0  0  0  0
   36.8730   27.8460   32.0380 C   0  0  0  0  0  0  0  0  0  0  0  0
   38.5660   26.4820   32.1990 H   0  0  0  0  0  0  0  0  0  0  0  0
   37.3610   26.2470   30.1390 H   0  0  0  0  0  0  0  0  0  0  0  0
   34.9150   25.7560   31.9490 H   0  0  0  0  0  0  0  0  0  0  0  0
   34.9300   26.3240   30.2020 H   0  0  0  0  0  0  0  0  0  0  0  0
   37.5400   28.4880   31.4290 H   0  0  0  0  0  0  0  0  0  0  0  0
   36.7630   28.3800   33.0150 H   0  0  0  0  0  0  0  0  0  0  0  0
   36.9400   24.3160   31.0520 C   0  0  0  0  0  0  0  0  0  0  0  0
   38.1800   23.6790   30.9140 C   0  0  0  0  0  0  0  0  0  0  0  0
   38.1940   22.2820   30.9510 C   0  0  0  0  0  0  0  0  0  0  0  0
   37.0080   21.6180   31.1180 N   0  0  0  0  0  0  0  0  0  0  0  0
   35.8120   22.2740   31.2500 C   0  0  0  0  0  0  0  0  0  0  0  0
   35.7950   23.6270   31.2150 N   0  0  0  0  0  0  0  0  0  0  0  0
   39.1020   24.2270   30.7820 H   0  0  0  0  0  0  0  0  0  0  0  0
   39.1060   21.7080   30.8520 H   0  0  0  0  0  0  0  0  0  0  0  0
   34.9260   21.6670   31.3780 H   0  0  0  0  0  0  0  0  0  0  0  0
   36.9430   25.9710   33.4040 O   0  0  0  0  0  0  0  0  0  0  0  0
   37.9730   25.9300   34.3380 C   0  0  1  0  0  3  0  0  0  0  0  0
   39.3020   26.3400   33.6880 C   0  0  0  0  0  3  0  0  0  0  0  0
   39.7250   25.5660   33.0520 H   0  0  0  0  0  0  0  0  0  0  0  0
   40.0790   26.5950   34.9740 C   0  0  0  0  0  3  0  0  0  0  0  0
   40.4080   25.6290   35.4130 H   0  0  0  0  0  0  0  0  0  0  0  0
   39.1940   27.2830   35.7840 O   0  0  0  0  0  0  0  0  0  0  0  0
   37.8950   26.9750   35.3980 C   0  0  0  0  0  3  0  0  0  0  0  0
   37.4510   27.8910   34.9660 H   0  0  0  0  0  0  0  0  0  0  0  0
  1  6  1  6  0  0  0
  1 21  1  0  0  0  0
  2  7  1  6  0  0  0
  2 12  1  0  0  0  0
  2  3  1  0  0  0  0
  2  1  1  0  0  0  0
  3  4  1  0  0  0  0
  3  8  1  0  0  0  0
  4  5  1  0  0  0  0
  5  1  1  0  0  0  0
  5 11  1  0  0  0  0
  9  3  1  0  0  0  0
 10  5  1  0  0  0  0
 12 17  1  0  0  0  0
 13 14  1  0  0  0  0
 13 12  2  0  0  0  0
 14 15  2  0  0  0  0
 15 16  1  0  0  0  0
 16 20  1  0  0  0  0
 17 16  2  0  0  0  0
 18 13  1  0  0  0  0
 19 14  1  0  0  0  0
 22 21  1  6  0  0  0
 22 28  1  0  0  0  0
 23 22  1  0  0  0  0
 23 25  1  0  0  0  0
 24 23  1  0  0  0  0
 25 26  1  0  0  0  0
 25 27  1  0  0  0  0
 28 27  1  0  0  0  0
 29 28  1  0  0  0  0
M  END
>  <minimizedAffinity>
-3.93440843

$$$$

 OpenBabel03262521433D

 29 31  0  0  1  0  0  0  0  0999 V2000
   39.7090   24.6570   33.8520 C   0  0  1  0  0  0  0  0  0  0  0  0
   38.4080   24.2260   34.5350 C   0  0  2  0  0  0  0  0  0  0  0  0
   37.6530   25.5080   34.2740 C   0  0  0  0  0  0  0  0  0  0  0  0
   37.9260   25.8410   32.9560 O   0  0  0  0  0  0  0  0  0  0  0  0
   39.0980   25.2470   32.5790 C   0  0  0  0  0  0  0  0  0  0  0  0
   40.3620   23.7980   33.6050 H   0  0  0  0  0  0  0  0  0  0  0  0
   38.0190   23.3950   33.9220 H   0  0  0  0  0  0  0  0  0  0  0  0
   37.9510   26.2850   34.9900 H   0  0  0  0  0  0  0  0  0  0  0  0
   36.5570   25.2990   34.3120 H   0  0  0  0  0  0  0  0  0  0  0  0
   38.9930   24.4860   31.7810 H   0  0  0  0  0  0  0  0  0  0  0  0
   39.7590   26.0380   32.1430 H   0  0  0  0  0  0  0  0  0  0  0  0
   38.5980   23.9130   35.9560 C   0  0  0  0  0  0  0  0  0  0  0  0
   37.7660   24.4940   36.9230 C   0  0  0  0  0  0  0  0  0  0  0  0
   38.0130   24.1720   38.2600 C   0  0  0  0  0  0  0  0  0  0  0  0
   39.0420   23.3180   38.5510 N   0  0  0  0  0  0  0  0  0  0  0  0
   39.8370   22.7680   37.5790 C   0  0  0  0  0  0  0  0  0  0  0  0
   39.6000   23.0770   36.2820 N   0  0  0  0  0  0  0  0  0  0  0  0
   36.9600   25.1660   36.6660 H   0  0  0  0  0  0  0  0  0  0  0  0
   37.4200   24.5750   39.0720 H   0  0  0  0  0  0  0  0  0  0  0  0
   40.6270   22.1030   37.9030 H   0  0  0  0  0  0  0  0  0  0  0  0
   40.3320   25.6830   34.4950 O   0  0  0  0  0  0  0  0  0  0  0  0
   41.6510   25.7190   34.0570 C   0  0  1  0  0  3  0  0  0  0  0  0
   42.0860   27.1670   33.7890 C   0  0  0  0  0  3  0  0  0  0  0  0
   41.6740   27.5760   32.8700 H   0  0  0  0  0  0  0  0  0  0  0  0
   43.5890   26.9170   33.7500 C   0  0  0  0  0  3  0  0  0  0  0  0
   43.8730   26.4810   32.7680 H   0  0  0  0  0  0  0  0  0  0  0  0
   43.8260   26.0590   34.8090 O   0  0  0  0  0  0  0  0  0  0  0  0
   42.6620   25.3550   35.0900 C   0  0  0  0  0  3  0  0  0  0  0  0
   42.3000   25.6920   36.0790 H   0  0  0  0  0  0  0  0  0  0  0  0
  1  6  1  6  0  0  0
  1 21  1  0  0  0  0
  1  2  1  0  0  0  0
  2  7  1  6  0  0  0
  2 12  1  0  0  0  0
  3  9  1  0  0  0  0
  3  2  1  0  0  0  0
  3  8  1  0  0  0  0
  4  3  1  0  0  0  0
  5  4  1  0  0  0  0
  5  1  1  0  0  0  0
 10  5  1  0  0  0  0
 11  5  1  0  0  0  0
 12 17  2  0  0  0  0
 12 13  1  0  0  0  0
 13 14  2  0  0  0  0
 14 15  1  0  0  0  0
 14 19  1  0  0  0  0
 16 20  1  0  0  0  0
 16 15  2  0  0  0  0
 17 16  1  0  0  0  0
 18 13  1  0  0  0  0
 22 21  1  1  0  0  0
 22 28  1  0  0  0  0
 23 22  1  0  0  0  0
 24 23  1  0  0  0  0
 25 23  1  0  0  0  0
 25 27  1  0  0  0  0
 26 25  1  0  0  0  0
 27 28  1  0  0  0  0
 28 29  1  0  0  0  0
M  END
>  <minimizedAffinity>
-3.93237424

$$$$

 OpenBabel03262521433D

 29 31  0  0  1  0  0  0  0  0999 V2000
   38.9520   23.4560   33.4990 C   0  0  1  0  0  0  0  0  0  0  0  0
   38.7360   22.2520   34.4210 C   0  0  2  0  0  0  0  0  0  0  0  0
   37.3440   21.9220   33.9360 C   0  0  0  0  0  0  0  0  0  0  0  0
   37.3980   22.0150   32.5540 O   0  0  0  0  0  0  0  0  0  0  0  0
   38.4400   22.8270   32.2010 C   0  0  0  0  0  0  0  0  0  0  0  0
   40.0200   23.7290   33.4010 H   0  0  0  0  0  0  0  0  0  0  0  0
   39.4700   21.4980   34.0910 H   0  0  0  0  0  0  0  0  0  0  0  0
   36.6060   22.5960   34.3890 H   0  0  0  0  0  0  0  0  0  0  0  0
   37.1270   20.8490   34.1580 H   0  0  0  0  0  0  0  0  0  0  0  0
   39.2510   22.3190   31.6420 H   0  0  0  0  0  0  0  0  0  0  0  0
   38.0460   23.6070   31.5020 H   0  0  0  0  0  0  0  0  0  0  0  0
   38.8130   22.6140   35.8410 C   0  0  0  0  0  0  0  0  0  0  0  0
   40.0280   22.5030   36.5310 C   0  0  0  0  0  0  0  0  0  0  0  0
   40.0300   22.8430   37.8870 C   0  0  0  0  0  0  0  0  0  0  0  0
   38.8600   23.2600   38.4620 N   0  0  0  0  0  0  0  0  0  0  0  0
   37.6890   23.3570   37.7560 C   0  0  0  0  0  0  0  0  0  0  0  0
   37.6830   23.0300   36.4420 N   0  0  0  0  0  0  0  0  0  0  0  0
   40.9380   22.1700   36.0530 H   0  0  0  0  0  0  0  0  0  0  0  0
   40.9230   22.7860   38.4970 H   0  0  0  0  0  0  0  0  0  0  0  0
   36.8140   23.6960   38.2930 H   0  0  0  0  0  0  0  0  0  0  0  0
   38.1200   24.4960   33.7800 O   0  0  0  0  0  0  0  0  0  0  0  0
   38.1920   25.3940   32.7200 C   0  0  1  0  0  3  0  0  0  0  0  0
   36.8300   26.0680   32.4960 C   0  0  0  0  0  3  0  0  0  0  0  0
   36.1040   25.4180   32.0150 H   0  0  0  0  0  0  0  0  0  0  0  0
   37.3210   27.2190   31.6270 C   0  0  0  0  0  3  0  0  0  0  0  0
   37.4940   26.8600   30.5890 H   0  0  0  0  0  0  0  0  0  0  0  0
   38.4790   27.6540   32.2470 O   0  0  0  0  0  0  0  0  0  0  0  0
   39.0160   26.6080   32.9870 C   0  0  0  0  0  3  0  0  0  0  0  0
   38.9230   26.8760   34.0550 H   0  0  0  0  0  0  0  0  0  0  0  0
  1  6  1  6  0  0  0
  1 21  1  0  0  0  0
  1  2  1  0  0  0  0
  2  7  1  6  0  0  0
  2 12  1  0  0  0  0
  3  9  1  0  0  0  0
  3  8  1  0  0  0  0
  3  2  1  0  0  0  0
  4  3  1  0  0  0  0
  5  4  1  0  0  0  0
  5  1  1  0  0  0  0
 10  5  1  0  0  0  0
 11  5  1  0  0  0  0
 12 17  2  0  0  0  0
 12 13  1  0  0  0  0
 13 14  2  0  0  0  0
 14 15  1  0  0  0  0
 14 19  1  0  0  0  0
 16 20  1  0  0  0  0
 16 15  2  0  0  0  0
 17 16  1  0  0  0  0
 18 13  1  0  0  0  0
 22 28  1  0  0  0  0
 22 21  1  1  0  0  0
 23 22  1  0  0  0  0
 24 23  1  0  0  0  0
 25 27  1  0  0  0  0
 25 23  1  0  0  0  0
 26 25  1  0  0  0  0
 27 28  1  0  0  0  0
 28 29  1  0  0  0  0
M  END
>  <minimizedAffinity>
-3.90058875

$$$$
