REMARK  Name = 
REMARK  1 active torsions:
REMARK  status: ('A' for Active; 'I' for Inactive)
REMARK    1  A    between atoms: N_12  and  C_20
REMARK                            x       y       z     vdW  Elec       q    Type
REMARK                         _______ _______ _______ _____ _____    ______ ____
ROOT
ATOM      1  C   UNL     1      37.775  30.694  50.612  0.00  0.00    +0.000 A 
ATOM      2  C   UNL     1      38.453  31.617  49.775  0.00  0.00    +0.000 A 
ATOM      3  C   UNL     1      37.924  31.855  48.488  0.00  0.00    +0.000 A 
ATOM      4  N   UNL     1      36.801  31.184  48.141  0.00  0.00    +0.000 NA
ATOM      5  C   UNL     1      36.191  30.317  48.969  0.00  0.00    +0.000 A 
ATOM      6  N   UNL     1      36.662  30.063  50.200  0.00  0.00    +0.000 NA
ATOM      7  N   UNL     1      35.009  29.613  48.599  0.00  0.00    +0.000 N 
ATOM      8  C   UNL     1      34.744  29.426  47.290  0.00  0.00    +0.000 A 
ATOM      9  C   UNL     1      33.586  28.738  47.017  0.00  0.00    +0.000 A 
ATOM     10  C   UNL     1      32.723  28.253  47.987  0.00  0.00    +0.000 A 
ATOM     11  O   UNL     1      31.678  27.632  47.705  0.00  0.00    +0.000 OA
ATOM     12  N   UNL     1      33.037  28.469  49.307  0.00  0.00    +0.000 N 
ATOM     13  C   UNL     1      34.174  29.144  49.546  0.00  0.00    +0.000 A 
ATOM     14  O   UNL     1      34.501  29.365  50.753  0.00  0.00    +0.000 OA
ATOM     15  H   UNL     1      38.151  30.489  51.599  0.00  0.00    +0.000 HD
ATOM     16  H   UNL     1      39.356  32.120  50.128  0.00  0.00    +0.000 HD
ATOM     17  H   UNL     1      38.427  32.554  47.838  0.00  0.00    +0.000 HD
ATOM     18  H   UNL     1      35.397  29.791  46.507  0.00  0.00    +0.000 HD
ATOM     19  H   UNL     1      33.297  28.544  45.989  0.00  0.00    +0.000 HD
ENDROOT
BRANCH  12  20
ATOM     20  C   UNL     1      32.205  28.006  50.387  0.00  0.00    +0.000 C 
ATOM     21  C   UNL     1      31.111  28.979  50.776  0.00  0.00    +0.000 C 
ATOM     22  H   UNL     1      30.589  29.398  49.900  0.00  0.00    +0.000 HD
ATOM     23  C   UNL     1      30.171  28.014  51.483  0.00  0.00    +0.000 C 
ATOM     24  H   UNL     1      29.158  28.451  51.603  0.00  0.00    +0.000 HD
ATOM     25  O   UNL     1      30.195  26.855  50.751  0.00  0.00    +0.000 OA
ATOM     26  C   UNL     1      31.380  26.808  50.037  0.00  0.00    +0.000 C 
ATOM     27  H   UNL     1      31.859  25.847  50.306  0.00  0.00    +0.000 HD
ENDBRANCH  12  20
TORSDOF 1
