
 OpenBabel03272509433D

 37 39  0  0  1  0  0  0  0  0999 V2000
   37.0630   30.9300   48.9840 C   0  0  0  0  0  0  0  0  0  0  0  0
   36.8220   31.8310   50.0240 C   0  0  0  0  0  0  0  0  0  0  0  0
   37.4330   33.0770   50.0650 C   0  0  0  0  0  0  0  0  0  0  0  0
   38.3100   33.4460   49.0440 C   0  0  0  0  0  0  0  0  0  0  0  0
   38.5370   32.5560   48.0330 C   0  0  0  0  0  0  0  0  0  0  0  0
   37.9090   31.3190   48.0250 C   0  0  0  0  0  0  0  0  0  0  0  0
   36.1350   31.5300   50.8120 H   0  0  0  0  0  0  0  0  0  0  0  0
   37.1900   33.6980   50.8980 H   0  0  0  0  0  0  0  0  0  0  0  0
   38.7360   34.4250   49.1580 H   0  0  0  0  0  0  0  0  0  0  0  0
   39.2400   32.9820   47.3190 H   0  0  0  0  0  0  0  0  0  0  0  0
   36.4550   29.6180   48.9570 C   0  0  2  0  0  0  0  0  0  0  0  0
   36.9820   29.0560   48.0920 H   0  0  0  0  0  0  0  0  0  0  0  0
   33.5680   30.1430   46.8150 C   0  0  0  0  0  0  0  0  0  0  0  0
   32.9040   28.9320   46.8430 C   0  0  0  0  0  0  0  0  0  0  0  0
   33.4090   27.9330   47.6540 C   0  0  0  0  0  0  0  0  0  0  0  0
   34.5440   28.1730   48.3980 N   0  0  0  0  0  0  0  0  0  0  0  0
   35.1330   29.3510   48.3240 C   0  0  0  0  0  0  0  0  0  0  0  0
   34.6520   30.3410   47.5390 N   0  0  0  0  0  0  0  0  0  0  0  0
   33.1360   30.8950   46.1670 H   0  0  0  0  0  0  0  0  0  0  0  0
   32.0200   28.6450   46.3050 H   0  0  0  0  0  0  0  0  0  0  0  0
   32.9990   26.9420   47.7790 H   0  0  0  0  0  0  0  0  0  0  0  0
   36.8760   28.8600   49.9090 O   0  0  0  0  0  0  0  0  0  0  0  0
   36.3790   28.0880   50.2330 H   0  0  0  0  0  0  0  0  0  0  0  0
   38.2600   30.4640   46.9130 C   0  0  0  0  0  3  0  0  0  0  0  0
   39.0550   30.8390   45.9050 C   0  0  0  0  0  3  0  0  0  0  0  0
   39.5130   30.0420   44.7450 C   0  0  0  0  0  0  0  0  0  0  0  0
   40.6020   29.8730   44.8690 H   0  0  0  0  0  0  0  0  0  0  0  0
   39.0130   29.0410   44.7070 H   0  0  0  0  0  0  0  0  0  0  0  0
   39.2360   30.9660   43.2290 S   0  0  0  0  0  0  0  0  0  0  0  0
   37.4500   31.1850   43.0320 C   0  0  1  0  0  3  0  0  0  0  0  0
   36.9650   32.5410   43.4590 C   0  0  0  0  0  3  0  0  0  0  0  0
   37.7730   33.3070   43.5310 H   0  0  0  0  0  0  0  0  0  0  0  0
   35.9270   32.8540   42.4330 C   0  0  0  0  0  3  0  0  0  0  0  0
   34.9050   32.6440   42.8150 H   0  0  0  0  0  0  0  0  0  0  0  0
   36.1210   32.0810   41.3200 O   0  0  0  0  0  0  0  0  0  0  0  0
   37.1360   31.1940   41.5550 C   0  0  0  0  0  3  0  0  0  0  0  0
   38.0600   31.4630   40.9660 H   0  0  0  0  0  0  0  0  0  0  0  0
  1  2  1  0  0  0  0
  2  3  2  0  0  0  0
  2  7  1  0  0  0  0
  3  8  1  0  0  0  0
  4  9  1  0  0  0  0
  4  3  1  0  0  0  0
  5  4  2  0  0  0  0
  6  5  1  0  0  0  0
  6  1  2  0  0  0  0
 10  5  1  0  0  0  0
 11 12  1  6  0  0  0
 11  1  1  0  0  0  0
 11 22  1  0  0  0  0
 13 14  2  0  0  0  0
 13 18  1  0  0  0  0
 14 15  1  0  0  0  0
 15 21  1  0  0  0  0
 15 16  2  0  0  0  0
 17 16  1  0  0  0  0
 17 11  1  0  0  0  0
 18 17  2  0  0  0  0
 19 13  1  0  0  0  0
 20 14  1  0  0  0  0
 22 23  1  0  0  0  0
 24  6  1  0  0  0  0
 25 24  2  0  0  0  0
 26 27  1  0  0  0  0
 26 25  1  0  0  0  0
 28 26  1  0  0  0  0
 29 26  1  0  0  0  0
 30 29  1  6  0  0  0
 30 31  1  0  0  0  0
 31 32  1  0  0  0  0
 33 34  1  0  0  0  0
 33 31  1  0  0  0  0
 35 36  1  0  0  0  0
 35 33  1  0  0  0  0
 36 30  1  0  0  0  0
 37 36  1  0  0  0  0
M  END
>  <minimizedAffinity>
-5.46277285

>  <minimizedRMSD>
0.179328576

$$$$
