REMARK  Name = 
REMARK  6 active torsions:
REMARK  status: ('A' for Active; 'I' for Inactive)
REMARK    1  A    between atoms: C_1  and  C_13
REMARK    2  A    between atoms: C_2  and  O_14
REMARK    3  A    between atoms: C_6  and  C_7
REMARK    4  A    between atoms: O_14  and  C_15
REMARK    5  A    between atoms: C_16  and  N_23
REMARK    6  A    between atoms: C_21  and  C_33
REMARK                            x       y       z     vdW  Elec       q    Type
REMARK                         _______ _______ _______ _____ _____    ______ ____
ROOT
ATOM      1  O   UNL     1      36.808  32.315  49.401  0.00  0.00    +0.000 OA
ENDROOT
BRANCH   1   3
ATOM      2  C   UNL     1      38.267  32.289  47.390  0.00  0.00    +0.000 A 
ATOM      3  C   UNL     1      37.908  32.729  48.649  0.00  0.00    +0.000 A 
ATOM      4  C   UNL     1      38.674  33.685  49.306  0.00  0.00    +0.000 A 
ATOM      5  C   UNL     1      39.805  34.195  48.684  0.00  0.00    +0.000 A 
ATOM      6  C   UNL     1      40.159  33.751  47.423  0.00  0.00    +0.000 A 
ATOM      7  C   UNL     1      39.374  32.803  46.807  0.00  0.00    +0.000 A 
ATOM      8  H   UNL     1      38.469  34.077  50.274  0.00  0.00    +0.000 HD
ATOM      9  H   UNL     1      40.428  34.943  49.164  0.00  0.00    +0.000 HD
ATOM     10  H   UNL     1      41.023  34.118  46.906  0.00  0.00    +0.000 HD
BRANCH   7  11
ATOM     11  C   UNL     1      39.765  32.337  45.457  0.00  0.00    +0.000 A 
ATOM     12  C   UNL     1      40.622  31.326  45.094  0.00  0.00    +0.000 A 
ATOM     13  C   UNL     1      40.641  31.297  43.702  0.00  0.00    +0.000 A 
ATOM     14  C   UNL     1      39.788  32.299  43.302  0.00  0.00    +0.000 A 
ATOM     15  O   UNL     1      39.281  32.902  44.362  0.00  0.00    +0.000 OA
ATOM     16  H   UNL     1      41.155  30.702  45.810  0.00  0.00    +0.000 HD
ATOM     17  H   UNL     1      41.232  30.598  43.121  0.00  0.00    +0.000 HD
ATOM     18  H   UNL     1      39.578  32.541  42.262  0.00  0.00    +0.000 HD
ENDBRANCH   7  11
BRANCH   2  20
ATOM     19  N   UNL     1      36.756  30.517  46.296  0.00  0.00    +0.000 NA
ATOM     20  C   UNL     1      37.426  31.309  46.794  0.00  0.00    +0.000 C 
ENDBRANCH   2  20
ENDBRANCH   1   3
BRANCH   1  21
ATOM     21  C   UNL     1      36.782  31.204  50.172  0.00  0.00    +0.000 A 
ATOM     22  C   UNL     1      35.644  30.437  49.945  0.00  0.00    +0.000 A 
ATOM     23  C   UNL     1      35.433  29.254  50.642  0.00  0.00    +0.000 A 
ATOM     24  N   UNL     1      36.386  28.884  51.551  0.00  0.00    +0.000 NA
ATOM     25  C   UNL     1      37.489  29.651  51.754  0.00  0.00    +0.000 A 
ATOM     26  N   UNL     1      37.670  30.781  51.074  0.00  0.00    +0.000 NA
ATOM     27  H   UNL     1      34.601  28.603  50.541  0.00  0.00    +0.000 HD
ATOM     28  H   UNL     1      38.245  29.366  52.469  0.00  0.00    +0.000 HD
BRANCH  22  31
ATOM     29  C   UNL     1      34.161  29.720  48.139  0.00  0.00    +0.000 C 
ATOM     30  O   UNL     1      34.552  28.516  47.889  0.00  0.00    +0.000 OA
ATOM     31  N   UNL     1      34.614  30.714  49.048  0.00  0.00    +0.000 N 
ATOM     32  H   UNL     1      34.125  31.634  48.986  0.00  0.00    +0.000 HD
BRANCH  29  33
ATOM     33  C   UNL     1      32.993  30.015  47.227  0.00  0.00    +0.000 C 
ATOM     34  C   UNL     1      31.684  29.647  47.839  0.00  0.00    +0.000 C 
ATOM     35  H   UNL     1      31.720  29.961  48.917  0.00  0.00    +0.000 HD
ATOM     36  C   UNL     1      30.752  30.561  47.076  0.00  0.00    +0.000 C 
ATOM     37  H   UNL     1      30.508  30.021  46.115  0.00  0.00    +0.000 HD
ATOM     38  O   UNL     1      31.469  31.702  46.758  0.00  0.00    +0.000 OA
ATOM     39  C   UNL     1      32.805  31.496  47.025  0.00  0.00    +0.000 C 
ATOM     40  H   UNL     1      33.420  31.891  46.181  0.00  0.00    +0.000 HD
ENDBRANCH  29  33
ENDBRANCH  22  31
ENDBRANCH   1  21
TORSDOF 6
