REMARK  Name = 
REMARK  4 active torsions:
REMARK  status: ('A' for Active; 'I' for Inactive)
REMARK    1  A    between atoms: C_1  and  C_7
REMARK    2  A    between atoms: C_5  and  C_10
REMARK    3  A    between atoms: C_10  and  N_13
REMARK    4  A    between atoms: C_11  and  C_24
REMARK                            x       y       z     vdW  Elec       q    Type
REMARK                         _______ _______ _______ _____ _____    ______ ____
ROOT
ATOM      1  C   UNL     1      37.471  31.433  49.384  0.00  0.00    +0.000 A 
ATOM      2  C   UNL     1      37.868  32.718  49.703  0.00  0.00    +0.000 A 
ATOM      3  C   UNL     1      38.687  33.334  48.761  0.00  0.00    +0.000 A 
ATOM      4  N   UNL     1      39.040  32.666  47.618  0.00  0.00    +0.000 NA
ATOM      5  C   UNL     1      38.625  31.406  47.348  0.00  0.00    +0.000 A 
ATOM      6  N   UNL     1      37.824  30.783  48.257  0.00  0.00    +0.000 NA
ATOM      7  H   UNL     1      37.599  33.245  50.588  0.00  0.00    +0.000 HD
ATOM      8  H   UNL     1      39.080  34.341  48.868  0.00  0.00    +0.000 HD
ENDROOT
BRANCH   1   9
ATOM      9  C   UNL     1      36.559  30.738  50.357  0.00  0.00    +0.000 C 
ATOM     10  C   UNL     1      36.465  29.320  50.463  0.00  0.00    +0.000 C 
ATOM     11  C   UNL     1      37.337  30.034  51.489  0.00  0.00    +0.000 C 
ATOM     12  H   UNL     1      35.743  31.406  50.689  0.00  0.00    +0.000 HD
ATOM     13  H   UNL     1      37.034  28.608  49.831  0.00  0.00    +0.000 HD
ATOM     14  H   UNL     1      35.505  28.890  50.838  0.00  0.00    +0.000 HD
ATOM     15  H   UNL     1      36.892  30.209  52.487  0.00  0.00    +0.000 HD
ATOM     16  H   UNL     1      38.430  29.968  51.404  0.00  0.00    +0.000 HD
ENDBRANCH   1   9
BRANCH   5  17
ATOM     17  C   UNL     1      38.991  30.697  46.129  0.00  0.00    +0.000 C 
ATOM     18  H   UNL     1      38.512  31.249  45.276  0.00  0.00    +0.000 HD
ATOM     19  H   UNL     1      38.705  29.651  46.172  0.00  0.00    +0.000 HD
BRANCH  17  22
ATOM     20  C   UNL     1      41.053  31.562  45.013  0.00  0.00    +0.000 C 
ATOM     21  O   UNL     1      40.421  32.285  44.168  0.00  0.00    +0.000 OA
ATOM     22  N   UNL     1      40.438  30.764  46.009  0.00  0.00    +0.000 N 
ATOM     23  H   UNL     1      40.989  30.204  46.683  0.00  0.00    +0.000 HD
BRANCH  20  24
ATOM     24  C   UNL     1      42.552  31.537  44.970  0.00  0.00    +0.000 C 
ATOM     25  C   UNL     1      43.159  31.295  46.336  0.00  0.00    +0.000 C 
ATOM     26  H   UNL     1      43.211  30.243  46.615  0.00  0.00    +0.000 HD
ATOM     27  C   UNL     1      44.546  31.890  46.065  0.00  0.00    +0.000 C 
ATOM     28  H   UNL     1      45.078  31.128  45.426  0.00  0.00    +0.000 HD
ATOM     29  O   UNL     1      44.342  32.996  45.267  0.00  0.00    +0.000 OA
ATOM     30  C   UNL     1      43.065  32.966  44.748  0.00  0.00    +0.000 C 
ATOM     31  H   UNL     1      42.439  33.607  45.434  0.00  0.00    +0.000 HD
ENDBRANCH  20  24
ENDBRANCH  17  22
ENDBRANCH   5  17
TORSDOF 4
