
 OpenBabel03272500423D

 47 50  0  0  1  0  0  0  0  0999 V2000
   36.2050   29.0930   32.1690 C   0  0  0  0  0  0  0  0  0  0  0  0
   36.2230   28.5690   30.8880 C   0  0  0  0  0  0  0  0  0  0  0  0
   36.6080   27.2530   30.7680 C   0  0  0  0  0  0  0  0  0  0  0  0
   36.9470   26.5450   31.8900 N   0  0  0  0  0  0  0  0  0  0  0  0
   36.9240   27.0710   33.1340 C   0  0  0  0  0  0  0  0  0  0  0  0
   36.5450   28.3700   33.2670 N   0  0  0  0  0  0  0  0  0  0  0  0
   37.2790   26.2970   34.2750 N   0  0  0  0  0  0  0  0  0  0  0  0
   35.9440   29.1840   30.0440 H   0  0  0  0  0  0  0  0  0  0  0  0
   36.6460   26.7760   29.7970 H   0  0  0  0  0  0  0  0  0  0  0  0
   36.9660   25.3230   34.4260 H   0  0  0  0  0  0  0  0  0  0  0  0
   35.7660   30.5390   32.3290 C   0  0  1  0  0  0  0  0  0  0  0  0
   34.4670   30.9660   31.9530 C   0  0  0  0  0  0  0  0  0  0  0  0
   34.7420   30.7110   33.4020 C   0  0  2  0  0  0  0  0  0  0  0  0
   36.6460   31.2410   32.4070 H   0  0  0  0  0  0  0  0  0  0  0  0
   34.1350   31.8930   31.5230 H   0  0  0  0  0  0  0  0  0  0  0  0
   33.8280   30.1380   31.5080 H   0  0  0  0  0  0  0  0  0  0  0  0
   34.3320   29.8180   33.9170 H   0  0  0  0  0  0  0  0  0  0  0  0
   33.7750   31.8640   35.3540 C   0  0  2  0  0  0  0  0  0  0  0  0
   34.7980   31.9020   34.3170 C   0  0  1  0  0  0  0  0  0  0  0  0
   36.0620   31.9520   35.0370 C   0  0  0  0  0  0  0  0  0  0  0  0
   35.8720   31.4030   36.3190 O   0  0  0  0  0  0  0  0  0  0  0  0
   34.7200   32.0070   36.6720 C   0  0  0  0  0  0  0  0  0  0  0  0
   33.0510   32.6720   35.4380 H   0  0  0  0  0  0  0  0  0  0  0  0
   34.6540   32.8090   33.6800 H   0  0  0  0  0  0  0  0  0  0  0  0
   36.9620   31.5020   34.6800 H   0  0  0  0  0  0  0  0  0  0  0  0
   36.3060   33.0350   35.2440 H   0  0  0  0  0  0  0  0  0  0  0  0
   34.1560   31.6170   37.5150 H   0  0  0  0  0  0  0  0  0  0  0  0
   34.8110   33.1270   36.7680 H   0  0  0  0  0  0  0  0  0  0  0  0
   33.2920   30.5840   35.5800 O   0  0  0  0  0  0  0  0  0  0  0  0
   32.4010   30.3850   36.4820 C   0  0  0  0  0  0  0  0  0  0  0  0
   31.4360   30.9200   36.3620 H   0  0  0  0  0  0  0  0  0  0  0  0
   32.1550   29.3100   36.5970 H   0  0  0  0  0  0  0  0  0  0  0  0
   32.7630   30.7130   37.4990 H   0  0  0  0  0  0  0  0  0  0  0  0
   38.2740   26.9250   35.5160 S   0  0  0  0  0  0  0  0  0  0  0  0
   37.8390   28.2820   35.9760 O   0  0  0  0  0  0  0  0  0  0  0  0
   37.4460   28.4920   36.8610 H   0  0  0  0  0  0  0  0  0  0  0  0
   39.6710   27.0630   34.9800 O   0  0  0  0  0  0  0  0  0  0  0  0
   40.4020   26.3990   35.0750 H   0  0  0  0  0  0  0  0  0  0  0  0
   38.3630   25.8830   36.8260 O   0  0  0  0  0  0  0  0  0  0  0  0
   38.0360   24.5860   36.4980 C   0  0  2  0  0  3  0  0  0  0  0  0
   37.6410   23.9050   37.8140 C   0  0  0  0  0  3  0  0  0  0  0  0
   37.3210   24.6560   38.5650 H   0  0  0  0  0  0  0  0  0  0  0  0
   38.9660   23.2420   38.1880 C   0  0  0  0  0  3  0  0  0  0  0  0
   39.6880   24.0150   38.4580 H   0  0  0  0  0  0  0  0  0  0  0  0
   39.3370   22.7060   36.9540 O   0  0  0  0  0  0  0  0  0  0  0  0
   39.2980   23.8500   36.1310 C   0  0  0  0  0  3  0  0  0  0  0  0
   40.2190   24.4310   36.3840 H   0  0  0  0  0  0  0  0  0  0  0  0
  1 11  1  0  0  0  0
  1  6  1  0  0  0  0
  2  1  2  0  0  0  0
  3  2  1  0  0  0  0
  3  4  2  0  0  0  0
  4  5  1  0  0  0  0
  5  6  2  0  0  0  0
  5  7  1  0  0  0  0
  7 10  1  0  0  0  0
  7 34  1  0  0  0  0
  8  2  1  0  0  0  0
  9  3  1  0  0  0  0
 11 14  1  6  0  0  0
 11 13  1  0  0  0  0
 12 11  1  0  0  0  0
 12 13  1  0  0  0  0
 13 17  1  1  0  0  0
 13 19  1  0  0  0  0
 15 12  1  0  0  0  0
 16 12  1  0  0  0  0
 18 23  1  6  0  0  0
 18 29  1  0  0  0  0
 18 22  1  0  0  0  0
 19 24  1  6  0  0  0
 19 20  1  0  0  0  0
 19 18  1  0  0  0  0
 20 26  1  0  0  0  0
 20 21  1  0  0  0  0
 21 22  1  0  0  0  0
 22 28  1  0  0  0  0
 22 27  1  0  0  0  0
 25 20  1  0  0  0  0
 29 30  1  0  0  0  0
 30 32  1  0  0  0  0
 30 33  1  0  0  0  0
 31 30  1  0  0  0  0
 34 35  1  0  0  0  0
 34 39  1  0  0  0  0
 35 36  1  0  0  0  0
 37 38  1  0  0  0  0
 37 34  1  0  0  0  0
 40 39  1  1  0  0  0
 40 41  1  0  0  0  0
 41 43  1  0  0  0  0
 41 42  1  0  0  0  0
 43 44  1  0  0  0  0
 45 43  1  0  0  0  0
 46 47  1  0  0  0  0
 46 40  1  0  0  0  0
 46 45  1  0  0  0  0
M  END
>  <minimizedAffinity>
-5.71607113

$$$$

 OpenBabel03272500423D

 47 50  0  0  1  0  0  0  0  0999 V2000
   35.8340   30.0260   34.6800 C   0  0  0  0  0  0  0  0  0  0  0  0
   35.3570   30.2800   33.4060 C   0  0  0  0  0  0  0  0  0  0  0  0
   35.5520   29.2930   32.4670 C   0  0  0  0  0  0  0  0  0  0  0  0
   36.1920   28.1370   32.8290 N   0  0  0  0  0  0  0  0  0  0  0  0
   36.6520   27.9030   34.0770 C   0  0  0  0  0  0  0  0  0  0  0  0
   36.4650   28.8710   35.0140 N   0  0  0  0  0  0  0  0  0  0  0  0
   37.3070   26.6840   34.4120 N   0  0  0  0  0  0  0  0  0  0  0  0
   34.8610   31.2160   33.1870 H   0  0  0  0  0  0  0  0  0  0  0  0
   35.2060   29.4220   31.4500 H   0  0  0  0  0  0  0  0  0  0  0  0
   36.9760   25.7540   34.1050 H   0  0  0  0  0  0  0  0  0  0  0  0
   35.6140   31.0950   35.7370 C   0  0  1  0  0  0  0  0  0  0  0  0
   36.0890   32.4210   35.5630 C   0  0  0  0  0  0  0  0  0  0  0  0
   34.6420   32.1410   35.3000 C   0  0  2  0  0  0  0  0  0  0  0  0
   35.3950   30.6480   36.7500 H   0  0  0  0  0  0  0  0  0  0  0  0
   36.4820   33.1200   36.2770 H   0  0  0  0  0  0  0  0  0  0  0  0
   36.6570   32.5740   34.5900 H   0  0  0  0  0  0  0  0  0  0  0  0
   34.2390   32.1190   34.2670 H   0  0  0  0  0  0  0  0  0  0  0  0
   32.3520   32.9820   35.6550 C   0  0  2  0  0  0  0  0  0  0  0  0
   33.6410   32.6970   36.2730 C   0  0  1  0  0  0  0  0  0  0  0  0
   33.3490   31.7410   37.3300 C   0  0  0  0  0  0  0  0  0  0  0  0
   32.1550   31.0670   37.0100 O   0  0  0  0  0  0  0  0  0  0  0  0
   31.3860   32.1060   36.6300 C   0  0  0  0  0  0  0  0  0  0  0  0
   31.9430   33.9900   35.6830 H   0  0  0  0  0  0  0  0  0  0  0  0
   34.0770   33.6400   36.6850 H   0  0  0  0  0  0  0  0  0  0  0  0
   34.0230   30.9690   37.6300 H   0  0  0  0  0  0  0  0  0  0  0  0
   33.0870   32.3180   38.2650 H   0  0  0  0  0  0  0  0  0  0  0  0
   30.4680   31.9110   36.0810 H   0  0  0  0  0  0  0  0  0  0  0  0
   31.1760   32.8380   37.4620 H   0  0  0  0  0  0  0  0  0  0  0  0
   32.1590   32.2750   34.4770 O   0  0  0  0  0  0  0  0  0  0  0  0
   31.0200   32.3140   33.8870 C   0  0  0  0  0  0  0  0  0  0  0  0
   30.6570   33.3100   33.5580 H   0  0  0  0  0  0  0  0  0  0  0  0
   30.9880   31.6540   32.9960 H   0  0  0  0  0  0  0  0  0  0  0  0
   30.1940   31.9380   34.5580 H   0  0  0  0  0  0  0  0  0  0  0  0
   38.7250   26.6570   35.3680 S   0  0  0  0  0  0  0  0  0  0  0  0
   38.7510   27.7450   36.3960 O   0  0  0  0  0  0  0  0  0  0  0  0
   38.6810   27.6140   37.3750 H   0  0  0  0  0  0  0  0  0  0  0  0
   39.9090   26.8650   34.4670 O   0  0  0  0  0  0  0  0  0  0  0  0
   40.4700   26.1530   34.0630 H   0  0  0  0  0  0  0  0  0  0  0  0
   38.9420   25.1690   36.1100 O   0  0  0  0  0  0  0  0  0  0  0  0
   37.7850   24.6810   36.6740 C   0  0  2  0  0  3  0  0  0  0  0  0
   37.9720   24.7990   38.1910 C   0  0  0  0  0  3  0  0  0  0  0  0
   38.7280   25.5750   38.4350 H   0  0  0  0  0  0  0  0  0  0  0  0
   38.4640   23.3910   38.5180 C   0  0  0  0  0  3  0  0  0  0  0  0
   39.4650   23.2560   38.1050 H   0  0  0  0  0  0  0  0  0  0  0  0
   37.5710   22.6300   37.7620 O   0  0  0  0  0  0  0  0  0  0  0  0
   37.7480   23.1880   36.4790 C   0  0  0  0  0  3  0  0  0  0  0  0
   38.7220   22.7810   36.1100 H   0  0  0  0  0  0  0  0  0  0  0  0
  1  6  1  0  0  0  0
  1 11  1  0  0  0  0
  2  1  2  0  0  0  0
  3  4  2  0  0  0  0
  3  2  1  0  0  0  0
  4  5  1  0  0  0  0
  5  7  1  0  0  0  0
  5  6  2  0  0  0  0
  7 34  1  0  0  0  0
  8  2  1  0  0  0  0
  9  3  1  0  0  0  0
 10  7  1  0  0  0  0
 11 14  1  1  0  0  0
 12 11  1  0  0  0  0
 12 15  1  0  0  0  0
 13 17  1  6  0  0  0
 13 12  1  0  0  0  0
 13 11  1  0  0  0  0
 13 19  1  0  0  0  0
 16 12  1  0  0  0  0
 18 23  1  6  0  0  0
 18 19  1  0  0  0  0
 18 22  1  0  0  0  0
 19 24  1  1  0  0  0
 19 20  1  0  0  0  0
 20 25  1  0  0  0  0
 20 26  1  0  0  0  0
 21 20  1  0  0  0  0
 22 21  1  0  0  0  0
 22 28  1  0  0  0  0
 27 22  1  0  0  0  0
 29 18  1  0  0  0  0
 30 29  1  0  0  0  0
 30 33  1  0  0  0  0
 31 30  1  0  0  0  0
 32 30  1  0  0  0  0
 34 39  1  0  0  0  0
 34 35  1  0  0  0  0
 35 36  1  0  0  0  0
 37 34  1  0  0  0  0
 38 37  1  0  0  0  0
 40 39  1  6  0  0  0
 40 41  1  0  0  0  0
 41 42  1  0  0  0  0
 41 43  1  0  0  0  0
 44 43  1  0  0  0  0
 45 43  1  0  0  0  0
 46 40  1  0  0  0  0
 46 45  1  0  0  0  0
 47 46  1  0  0  0  0
M  END
>  <minimizedAffinity>
-5.67230368

$$$$

 OpenBabel03272500423D

 47 50  0  0  1  0  0  0  0  0999 V2000
   35.9590   29.0030   33.6500 C   0  0  0  0  0  0  0  0  0  0  0  0
   35.9760   29.4340   32.3350 C   0  0  0  0  0  0  0  0  0  0  0  0
   36.8790   28.8200   31.4970 C   0  0  0  0  0  0  0  0  0  0  0  0
   37.6960   27.8380   31.9920 N   0  0  0  0  0  0  0  0  0  0  0  0
   37.6680   27.4280   33.2780 C   0  0  0  0  0  0  0  0  0  0  0  0
   36.7800   28.0270   34.1160 N   0  0  0  0  0  0  0  0  0  0  0  0
   38.5320   26.3990   33.7490 N   0  0  0  0  0  0  0  0  0  0  0  0
   35.3030   30.2160   32.0090 H   0  0  0  0  0  0  0  0  0  0  0  0
   36.9490   29.1050   30.4560 H   0  0  0  0  0  0  0  0  0  0  0  0
   38.7200   25.5260   33.2280 H   0  0  0  0  0  0  0  0  0  0  0  0
   34.9580   29.6540   34.5890 C   0  0  1  0  0  0  0  0  0  0  0  0
   35.0750   31.0160   34.9710 C   0  0  0  0  0  0  0  0  0  0  0  0
   34.0940   30.6590   33.8980 C   0  0  2  0  0  0  0  0  0  0  0  0
   34.3910   28.8920   35.1970 H   0  0  0  0  0  0  0  0  0  0  0  0
   34.8490   31.5000   35.9030 H   0  0  0  0  0  0  0  0  0  0  0  0
   35.9880   31.5320   34.5320 H   0  0  0  0  0  0  0  0  0  0  0  0
   34.2880   30.9100   32.8350 H   0  0  0  0  0  0  0  0  0  0  0  0
   31.8230   31.1870   33.1000 C   0  0  2  0  0  0  0  0  0  0  0  0
   32.6330   30.7580   34.2330 C   0  0  1  0  0  0  0  0  0  0  0  0
   32.0920   29.4620   34.6130 C   0  0  0  0  0  0  0  0  0  0  0  0
   31.4490   28.8970   33.4960 O   0  0  0  0  0  0  0  0  0  0  0  0
   30.7510   29.9620   33.0560 C   0  0  0  0  0  0  0  0  0  0  0  0
   31.2170   32.0890   33.1710 H   0  0  0  0  0  0  0  0  0  0  0  0
   32.5400   31.4990   35.0640 H   0  0  0  0  0  0  0  0  0  0  0  0
   32.6850   28.6690   35.0130 H   0  0  0  0  0  0  0  0  0  0  0  0
   31.2510   29.6330   35.3470 H   0  0  0  0  0  0  0  0  0  0  0  0
   30.3300   29.9410   32.0530 H   0  0  0  0  0  0  0  0  0  0  0  0
   29.9660   30.3180   33.7830 H   0  0  0  0  0  0  0  0  0  0  0  0
   32.4480   30.9640   31.8830 O   0  0  0  0  0  0  0  0  0  0  0  0
   32.1160   31.6570   30.8550 C   0  0  0  0  0  0  0  0  0  0  0  0
   32.2500   32.7560   30.9250 H   0  0  0  0  0  0  0  0  0  0  0  0
   32.6480   31.3290   29.9400 H   0  0  0  0  0  0  0  0  0  0  0  0
   31.0190   31.5370   30.6140 H   0  0  0  0  0  0  0  0  0  0  0  0
   39.3490   26.5240   35.2470 S   0  0  0  0  0  0  0  0  0  0  0  0
   38.8480   27.6580   36.0870 O   0  0  0  0  0  0  0  0  0  0  0  0
   38.3390   27.5680   36.9320 H   0  0  0  0  0  0  0  0  0  0  0  0
   40.8040   26.7810   34.9740 O   0  0  0  0  0  0  0  0  0  0  0  0
   41.5200   26.0960   34.9260 H   0  0  0  0  0  0  0  0  0  0  0  0
   39.2680   25.0940   36.1180 O   0  0  0  0  0  0  0  0  0  0  0  0
   37.9820   24.7670   36.4860 C   0  0  2  0  0  3  0  0  0  0  0  0
   37.9570   24.8190   38.0190 C   0  0  0  0  0  3  0  0  0  0  0  0
   38.7690   25.4700   38.4040 H   0  0  0  0  0  0  0  0  0  0  0  0
   38.1910   23.3470   38.3490 C   0  0  0  0  0  3  0  0  0  0  0  0
   39.2140   23.0770   38.0780 H   0  0  0  0  0  0  0  0  0  0  0  0
   37.3220   22.7430   37.4380 O   0  0  0  0  0  0  0  0  0  0  0  0
   37.7650   23.3000   36.2210 C   0  0  0  0  0  3  0  0  0  0  0  0
   38.7160   22.7650   35.9780 H   0  0  0  0  0  0  0  0  0  0  0  0
  1  6  1  0  0  0  0
  1 11  1  0  0  0  0
  2  1  2  0  0  0  0
  3  4  2  0  0  0  0
  3  2  1  0  0  0  0
  4  5  1  0  0  0  0
  5  7  1  0  0  0  0
  5  6  2  0  0  0  0
  7 34  1  0  0  0  0
  8  2  1  0  0  0  0
  9  3  1  0  0  0  0
 10  7  1  0  0  0  0
 11 12  1  0  0  0  0
 11 14  1  1  0  0  0
 12 15  1  0  0  0  0
 13 17  1  6  0  0  0
 13 19  1  0  0  0  0
 13 11  1  0  0  0  0
 13 12  1  0  0  0  0
 16 12  1  0  0  0  0
 18 23  1  1  0  0  0
 18 19  1  0  0  0  0
 19 20  1  0  0  0  0
 19 24  1  1  0  0  0
 20 25  1  0  0  0  0
 20 26  1  0  0  0  0
 21 20  1  0  0  0  0
 22 18  1  0  0  0  0
 22 21  1  0  0  0  0
 22 28  1  0  0  0  0
 27 22  1  0  0  0  0
 29 18  1  0  0  0  0
 30 31  1  0  0  0  0
 30 29  1  0  0  0  0
 32 30  1  0  0  0  0
 33 30  1  0  0  0  0
 34 35  1  0  0  0  0
 34 39  1  0  0  0  0
 35 36  1  0  0  0  0
 37 34  1  0  0  0  0
 38 37  1  0  0  0  0
 40 39  1  1  0  0  0
 40 41  1  0  0  0  0
 41 43  1  0  0  0  0
 41 42  1  0  0  0  0
 44 43  1  0  0  0  0
 45 43  1  0  0  0  0
 46 40  1  0  0  0  0
 46 45  1  0  0  0  0
 47 46  1  0  0  0  0
M  END
>  <minimizedAffinity>
-5.6187892

$$$$

 OpenBabel03272500423D

 47 50  0  0  1  0  0  0  0  0999 V2000
   35.5670   29.9580   33.9320 C   0  0  0  0  0  0  0  0  0  0  0  0
   35.2150   30.0870   32.6000 C   0  0  0  0  0  0  0  0  0  0  0  0
   35.6000   29.0670   31.7610 C   0  0  0  0  0  0  0  0  0  0  0  0
   36.2930   28.0010   32.2700 N   0  0  0  0  0  0  0  0  0  0  0  0
   36.6290   27.8890   33.5730 C   0  0  0  0  0  0  0  0  0  0  0  0
   36.2560   28.8910   34.4130 N   0  0  0  0  0  0  0  0  0  0  0  0
   37.3470   26.7600   34.0610 N   0  0  0  0  0  0  0  0  0  0  0  0
   34.6670   30.9560   32.2630 H   0  0  0  0  0  0  0  0  0  0  0  0
   35.3590   29.0990   30.7060 H   0  0  0  0  0  0  0  0  0  0  0  0
   37.1340   25.7860   33.7890 H   0  0  0  0  0  0  0  0  0  0  0  0
   35.1390   31.0650   34.8810 C   0  0  1  0  0  0  0  0  0  0  0  0
   35.8150   31.2950   36.1070 C   0  0  0  0  0  0  0  0  0  0  0  0
   36.1290   32.1820   34.9430 C   0  0  2  0  0  0  0  0  0  0  0  0
   34.0760   31.3940   34.6940 H   0  0  0  0  0  0  0  0  0  0  0  0
   35.4380   31.6100   37.0630 H   0  0  0  0  0  0  0  0  0  0  0  0
   36.6630   30.5620   36.3010 H   0  0  0  0  0  0  0  0  0  0  0  0
   37.0900   32.0930   34.3960 H   0  0  0  0  0  0  0  0  0  0  0  0
   36.7010   34.5250   35.4510 C   0  0  2  0  0  0  0  0  0  0  0  0
   35.6580   33.6070   35.0100 C   0  0  1  0  0  0  0  0  0  0  0  0
   35.2610   34.0910   33.6970 C   0  0  0  0  0  0  0  0  0  0  0  0
   36.3270   34.8270   33.1470 O   0  0  0  0  0  0  0  0  0  0  0  0
   36.6760   35.5780   34.2100 C   0  0  0  0  0  0  0  0  0  0  0  0
   36.5530   35.1340   36.3410 H   0  0  0  0  0  0  0  0  0  0  0  0
   34.8050   33.6340   35.7310 H   0  0  0  0  0  0  0  0  0  0  0  0
   34.9360   33.4520   32.9060 H   0  0  0  0  0  0  0  0  0  0  0  0
   34.4480   34.8630   33.8370 H   0  0  0  0  0  0  0  0  0  0  0  0
   37.6350   36.0890   34.2030 H   0  0  0  0  0  0  0  0  0  0  0  0
   35.8710   36.2970   34.5360 H   0  0  0  0  0  0  0  0  0  0  0  0
   37.9760   34.0120   35.2660 O   0  0  0  0  0  0  0  0  0  0  0  0
   39.0010   34.7030   35.6090 C   0  0  0  0  0  0  0  0  0  0  0  0
   39.0790   34.9900   36.6780 H   0  0  0  0  0  0  0  0  0  0  0  0
   39.9530   34.1990   35.3450 H   0  0  0  0  0  0  0  0  0  0  0  0
   39.0340   35.6910   35.0650 H   0  0  0  0  0  0  0  0  0  0  0  0
   38.6460   26.9260   35.1620 S   0  0  0  0  0  0  0  0  0  0  0  0
   38.4040   27.9890   36.1880 O   0  0  0  0  0  0  0  0  0  0  0  0
   38.2520   27.8330   37.1540 H   0  0  0  0  0  0  0  0  0  0  0  0
   39.8730   27.3210   34.3900 O   0  0  0  0  0  0  0  0  0  0  0  0
   40.5720   26.7060   34.0470 H   0  0  0  0  0  0  0  0  0  0  0  0
   39.0030   25.4740   35.9210 O   0  0  0  0  0  0  0  0  0  0  0  0
   37.8760   24.7980   36.3330 C   0  0  2  0  0  3  0  0  0  0  0  0
   37.9980   24.6640   37.8560 C   0  0  0  0  0  3  0  0  0  0  0  0
   38.6690   25.4470   38.2670 H   0  0  0  0  0  0  0  0  0  0  0  0
   38.6060   23.2670   37.9620 C   0  0  0  0  0  3  0  0  0  0  0  0
   39.6300   23.2930   37.5830 H   0  0  0  0  0  0  0  0  0  0  0  0
   37.8160   22.5770   37.0410 O   0  0  0  0  0  0  0  0  0  0  0  0
   37.9860   23.3640   35.8840 C   0  0  0  0  0  3  0  0  0  0  0  0
   39.0050   23.1130   35.5010 H   0  0  0  0  0  0  0  0  0  0  0  0
  1  6  1  0  0  0  0
  1 11  1  0  0  0  0
  2  1  2  0  0  0  0
  3  4  2  0  0  0  0
  3  2  1  0  0  0  0
  4  5  1  0  0  0  0
  5  7  1  0  0  0  0
  5  6  2  0  0  0  0
  7 34  1  0  0  0  0
  8  2  1  0  0  0  0
  9  3  1  0  0  0  0
 10  7  1  0  0  0  0
 11 14  1  6  0  0  0
 11 13  1  0  0  0  0
 11 12  1  0  0  0  0
 12 16  1  0  0  0  0
 12 15  1  0  0  0  0
 13 17  1  6  0  0  0
 13 19  1  0  0  0  0
 13 12  1  0  0  0  0
 18 23  1  1  0  0  0
 19 18  1  0  0  0  0
 19 24  1  1  0  0  0
 20 26  1  0  0  0  0
 20 19  1  0  0  0  0
 21 20  1  0  0  0  0
 21 22  1  0  0  0  0
 22 28  1  0  0  0  0
 22 18  1  0  0  0  0
 25 20  1  0  0  0  0
 27 22  1  0  0  0  0
 29 18  1  0  0  0  0
 29 30  1  0  0  0  0
 30 31  1  0  0  0  0
 32 30  1  0  0  0  0
 33 30  1  0  0  0  0
 34 39  1  0  0  0  0
 34 35  1  0  0  0  0
 35 36  1  0  0  0  0
 37 34  1  0  0  0  0
 38 37  1  0  0  0  0
 40 39  1  6  0  0  0
 40 41  1  0  0  0  0
 41 43  1  0  0  0  0
 41 42  1  0  0  0  0
 44 43  1  0  0  0  0
 45 43  1  0  0  0  0
 46 40  1  0  0  0  0
 46 45  1  0  0  0  0
 47 46  1  0  0  0  0
M  END
>  <minimizedAffinity>
-5.5519681

$$$$

 OpenBabel03272500423D

 47 50  0  0  1  0  0  0  0  0999 V2000
   36.7020   27.9940   33.7060 C   0  0  0  0  0  0  0  0  0  0  0  0
   36.9660   27.8470   35.0560 C   0  0  0  0  0  0  0  0  0  0  0  0
   37.6740   26.7260   35.4260 C   0  0  0  0  0  0  0  0  0  0  0  0
   38.0730   25.8350   34.4660 N   0  0  0  0  0  0  0  0  0  0  0  0
   37.8090   25.9920   33.1510 C   0  0  0  0  0  0  0  0  0  0  0  0
   37.1090   27.0950   32.7730 N   0  0  0  0  0  0  0  0  0  0  0  0
   38.2470   25.0430   32.1850 N   0  0  0  0  0  0  0  0  0  0  0  0
   36.6210   28.5890   35.7630 H   0  0  0  0  0  0  0  0  0  0  0  0
   37.9170   26.5440   36.4650 H   0  0  0  0  0  0  0  0  0  0  0  0
   39.1910   24.6200   32.1850 H   0  0  0  0  0  0  0  0  0  0  0  0
   35.9370   29.2330   33.2720 C   0  0  1  0  0  0  0  0  0  0  0  0
   34.5620   29.1730   32.9260 C   0  0  0  0  0  0  0  0  0  0  0  0
   34.9330   29.6710   34.2870 C   0  0  2  0  0  0  0  0  0  0  0  0
   36.6260   30.0510   32.9140 H   0  0  0  0  0  0  0  0  0  0  0  0
   34.0060   29.7130   32.1810 H   0  0  0  0  0  0  0  0  0  0  0  0
   34.1260   28.1240   32.9810 H   0  0  0  0  0  0  0  0  0  0  0  0
   34.7620   29.0520   35.1930 H   0  0  0  0  0  0  0  0  0  0  0  0
   33.5210   31.3970   35.3380 C   0  0  2  0  0  0  0  0  0  0  0  0
   34.7320   31.1330   34.5700 C   0  0  1  0  0  0  0  0  0  0  0  0
   35.8150   31.6660   35.3810 C   0  0  0  0  0  0  0  0  0  0  0  0
   35.3980   31.6970   36.7250 O   0  0  0  0  0  0  0  0  0  0  0  0
   34.1660   32.2230   36.5830 C   0  0  0  0  0  0  0  0  0  0  0  0
   32.7500   32.0510   34.9350 H   0  0  0  0  0  0  0  0  0  0  0  0
   34.6690   31.6490   33.5810 H   0  0  0  0  0  0  0  0  0  0  0  0
   36.7940   31.2400   35.4110 H   0  0  0  0  0  0  0  0  0  0  0  0
   35.9500   32.7560   35.1180 H   0  0  0  0  0  0  0  0  0  0  0  0
   33.4640   32.1560   37.4110 H   0  0  0  0  0  0  0  0  0  0  0  0
   34.1710   33.2770   36.1820 H   0  0  0  0  0  0  0  0  0  0  0  0
   33.0770   30.2820   36.0320 O   0  0  0  0  0  0  0  0  0  0  0  0
   32.0830   30.3830   36.8370 C   0  0  0  0  0  0  0  0  0  0  0  0
   31.1170   30.7190   36.4060 H   0  0  0  0  0  0  0  0  0  0  0  0
   31.8780   29.4330   37.3700 H   0  0  0  0  0  0  0  0  0  0  0  0
   32.2860   31.1370   37.6520 H   0  0  0  0  0  0  0  0  0  0  0  0
   37.2290   24.5110   30.9180 S   0  0  0  0  0  0  0  0  0  0  0  0
   37.9930   23.9920   29.7400 O   0  0  0  0  0  0  0  0  0  0  0  0
   38.0280   23.0460   29.4470 H   0  0  0  0  0  0  0  0  0  0  0  0
   36.4140   25.6800   30.4410 O   0  0  0  0  0  0  0  0  0  0  0  0
   35.4980   25.9160   30.7400 H   0  0  0  0  0  0  0  0  0  0  0  0
   36.1400   23.3500   31.4440 O   0  0  0  0  0  0  0  0  0  0  0  0
   36.7140   22.1060   31.5850 C   0  0  2  0  0  3  0  0  0  0  0  0
   35.6580   21.0990   31.1130 C   0  0  0  0  0  3  0  0  0  0  0  0
   34.9300   21.5830   30.4290 H   0  0  0  0  0  0  0  0  0  0  0  0
   35.0270   20.7150   32.4500 C   0  0  0  0  0  3  0  0  0  0  0  0
   34.4700   21.5680   32.8410 H   0  0  0  0  0  0  0  0  0  0  0  0
   36.1720   20.5450   33.2290 O   0  0  0  0  0  0  0  0  0  0  0  0
   36.8160   21.7870   33.0530 C   0  0  0  0  0  3  0  0  0  0  0  0
   36.2450   22.5090   33.6880 H   0  0  0  0  0  0  0  0  0  0  0  0
  1  2  1  0  0  0  0
  2  3  2  0  0  0  0
  2  8  1  0  0  0  0
  3  9  1  0  0  0  0
  4  3  1  0  0  0  0
  5  4  2  0  0  0  0
  6  5  1  0  0  0  0
  6  1  2  0  0  0  0
  7 10  1  0  0  0  0
  7  5  1  0  0  0  0
 11 14  1  6  0  0  0
 11  1  1  0  0  0  0
 11 13  1  0  0  0  0
 12 16  1  0  0  0  0
 12 11  1  0  0  0  0
 12 13  1  0  0  0  0
 13 19  1  0  0  0  0
 13 17  1  1  0  0  0
 15 12  1  0  0  0  0
 18 23  1  6  0  0  0
 18 29  1  0  0  0  0
 18 22  1  0  0  0  0
 19 24  1  6  0  0  0
 19 18  1  0  0  0  0
 19 20  1  0  0  0  0
 20 25  1  0  0  0  0
 20 21  1  0  0  0  0
 22 21  1  0  0  0  0
 22 27  1  0  0  0  0
 26 20  1  0  0  0  0
 28 22  1  0  0  0  0
 29 30  1  0  0  0  0
 30 32  1  0  0  0  0
 30 33  1  0  0  0  0
 31 30  1  0  0  0  0
 34 39  1  0  0  0  0
 34  7  1  0  0  0  0
 35 34  1  0  0  0  0
 36 35  1  0  0  0  0
 37 38  1  0  0  0  0
 37 34  1  0  0  0  0
 40 39  1  1  0  0  0
 40 46  1  0  0  0  0
 41 40  1  0  0  0  0
 41 43  1  0  0  0  0
 42 41  1  0  0  0  0
 43 44  1  0  0  0  0
 43 45  1  0  0  0  0
 46 45  1  0  0  0  0
 46 47  1  0  0  0  0
M  END
>  <minimizedAffinity>
-5.49348402

$$$$

 OpenBabel03272500423D

 47 50  0  0  1  0  0  0  0  0999 V2000
   36.9620   27.7700   33.8930 C   0  0  0  0  0  0  0  0  0  0  0  0
   37.3730   27.8390   35.2130 C   0  0  0  0  0  0  0  0  0  0  0  0
   38.0790   26.7610   35.6950 C   0  0  0  0  0  0  0  0  0  0  0  0
   38.3350   25.7000   34.8690 N   0  0  0  0  0  0  0  0  0  0  0  0
   37.9290   25.6460   33.5820 C   0  0  0  0  0  0  0  0  0  0  0  0
   37.2290   26.7050   33.0940 N   0  0  0  0  0  0  0  0  0  0  0  0
   38.2210   24.5240   32.7560 N   0  0  0  0  0  0  0  0  0  0  0  0
   37.1360   28.7080   35.8120 H   0  0  0  0  0  0  0  0  0  0  0  0
   38.4320   26.7460   36.7180 H   0  0  0  0  0  0  0  0  0  0  0  0
   39.1440   24.0580   32.7300 H   0  0  0  0  0  0  0  0  0  0  0  0
   36.1960   28.9560   33.3330 C   0  0  1  0  0  0  0  0  0  0  0  0
   34.8620   28.8250   32.8660 C   0  0  0  0  0  0  0  0  0  0  0  0
   35.0860   29.3960   34.2310 C   0  0  2  0  0  0  0  0  0  0  0  0
   36.8840   29.7860   33.0030 H   0  0  0  0  0  0  0  0  0  0  0  0
   34.3590   29.3090   32.0490 H   0  0  0  0  0  0  0  0  0  0  0  0
   34.4630   27.7620   32.9290 H   0  0  0  0  0  0  0  0  0  0  0  0
   34.8540   28.8100   35.1450 H   0  0  0  0  0  0  0  0  0  0  0  0
   33.5300   31.1050   35.0880 C   0  0  2  0  0  0  0  0  0  0  0  0
   34.8050   30.8590   34.4250 C   0  0  1  0  0  0  0  0  0  0  0  0
   35.8020   31.4760   35.2870 C   0  0  0  0  0  0  0  0  0  0  0  0
   35.2840   31.5510   36.5930 O   0  0  0  0  0  0  0  0  0  0  0  0
   34.0460   32.0160   36.3350 C   0  0  0  0  0  0  0  0  0  0  0  0
   32.7660   31.7060   34.5970 H   0  0  0  0  0  0  0  0  0  0  0  0
   34.7970   31.3260   33.4100 H   0  0  0  0  0  0  0  0  0  0  0  0
   36.7920   31.0950   35.4100 H   0  0  0  0  0  0  0  0  0  0  0  0
   35.9120   32.5570   34.9810 H   0  0  0  0  0  0  0  0  0  0  0  0
   33.2860   31.9560   37.1110 H   0  0  0  0  0  0  0  0  0  0  0  0
   34.0380   33.0490   35.8830 H   0  0  0  0  0  0  0  0  0  0  0  0
   33.0790   30.0050   35.8020 O   0  0  0  0  0  0  0  0  0  0  0  0
   32.0450   30.1100   36.5540 C   0  0  0  0  0  0  0  0  0  0  0  0
   31.0940   30.4040   36.0630 H   0  0  0  0  0  0  0  0  0  0  0  0
   31.8380   29.1750   37.1120 H   0  0  0  0  0  0  0  0  0  0  0  0
   32.1900   30.8980   37.3480 H   0  0  0  0  0  0  0  0  0  0  0  0
   37.0480   23.8400   31.7160 S   0  0  0  0  0  0  0  0  0  0  0  0
   37.4190   23.9540   30.2700 O   0  0  0  0  0  0  0  0  0  0  0  0
   37.6680   23.2000   29.6780 H   0  0  0  0  0  0  0  0  0  0  0  0
   35.7560   24.5840   31.9050 O   0  0  0  0  0  0  0  0  0  0  0  0
   35.0120   24.3210   32.5060 H   0  0  0  0  0  0  0  0  0  0  0  0
   36.7400   22.2380   32.0990 O   0  0  0  0  0  0  0  0  0  0  0  0
   35.9500   21.6080   31.1630 C   0  0  2  0  0  3  0  0  0  0  0  0
   34.8340   20.9120   31.9520 C   0  0  0  0  0  3  0  0  0  0  0  0
   34.6900   21.3970   32.9400 H   0  0  0  0  0  0  0  0  0  0  0  0
   35.4210   19.5080   32.0780 C   0  0  0  0  0  3  0  0  0  0  0  0
   36.2840   19.5390   32.7460 H   0  0  0  0  0  0  0  0  0  0  0  0
   35.8830   19.3100   30.7750 O   0  0  0  0  0  0  0  0  0  0  0  0
   36.7120   20.4370   30.6000 C   0  0  0  0  0  3  0  0  0  0  0  0
   37.6420   20.2150   31.1800 H   0  0  0  0  0  0  0  0  0  0  0  0
  1  2  1  0  0  0  0
  2  3  2  0  0  0  0
  2  8  1  0  0  0  0
  3  9  1  0  0  0  0
  4  3  1  0  0  0  0
  5  4  2  0  0  0  0
  6  5  1  0  0  0  0
  6  1  2  0  0  0  0
  7  5  1  0  0  0  0
 10  7  1  0  0  0  0
 11 14  1  6  0  0  0
 11  1  1  0  0  0  0
 11 13  1  0  0  0  0
 12 16  1  0  0  0  0
 12 11  1  0  0  0  0
 12 13  1  0  0  0  0
 13 19  1  0  0  0  0
 13 17  1  1  0  0  0
 15 12  1  0  0  0  0
 18 23  1  6  0  0  0
 18 29  1  0  0  0  0
 18 22  1  0  0  0  0
 19 24  1  6  0  0  0
 19 18  1  0  0  0  0
 19 20  1  0  0  0  0
 20 25  1  0  0  0  0
 20 21  1  0  0  0  0
 22 21  1  0  0  0  0
 22 27  1  0  0  0  0
 26 20  1  0  0  0  0
 28 22  1  0  0  0  0
 29 30  1  0  0  0  0
 30 32  1  0  0  0  0
 30 33  1  0  0  0  0
 31 30  1  0  0  0  0
 34 37  1  0  0  0  0
 34 39  1  0  0  0  0
 34  7  1  0  0  0  0
 35 34  1  0  0  0  0
 36 35  1  0  0  0  0
 37 38  1  0  0  0  0
 40 41  1  0  0  0  0
 40 39  1  1  0  0  0
 41 43  1  0  0  0  0
 41 42  1  0  0  0  0
 43 44  1  0  0  0  0
 45 43  1  0  0  0  0
 46 45  1  0  0  0  0
 46 40  1  0  0  0  0
 46 47  1  0  0  0  0
M  END
>  <minimizedAffinity>
-5.32181787

$$$$

 OpenBabel03272500423D

 47 50  0  0  1  0  0  0  0  0999 V2000
   35.6820   29.6250   34.0290 C   0  0  0  0  0  0  0  0  0  0  0  0
   35.3950   29.7940   32.6860 C   0  0  0  0  0  0  0  0  0  0  0  0
   35.8650   28.8240   31.8300 C   0  0  0  0  0  0  0  0  0  0  0  0
   36.5750   27.7680   32.3340 N   0  0  0  0  0  0  0  0  0  0  0  0
   36.8470   27.6160   33.6480 C   0  0  0  0  0  0  0  0  0  0  0  0
   36.3880   28.5670   34.5050 N   0  0  0  0  0  0  0  0  0  0  0  0
   37.5850   26.4980   34.1310 N   0  0  0  0  0  0  0  0  0  0  0  0
   34.8290   30.6530   32.3540 H   0  0  0  0  0  0  0  0  0  0  0  0
   35.6790   28.8900   30.7660 H   0  0  0  0  0  0  0  0  0  0  0  0
   37.4290   25.5280   33.8110 H   0  0  0  0  0  0  0  0  0  0  0  0
   35.1580   30.6740   34.9950 C   0  0  1  0  0  0  0  0  0  0  0  0
   36.0310   31.4070   35.8400 C   0  0  0  0  0  0  0  0  0  0  0  0
   35.5320   32.0630   34.5910 C   0  0  2  0  0  0  0  0  0  0  0  0
   34.0610   30.5330   35.2180 H   0  0  0  0  0  0  0  0  0  0  0  0
   35.8920   31.7640   36.8440 H   0  0  0  0  0  0  0  0  0  0  0  0
   37.1220   31.1070   35.7340 H   0  0  0  0  0  0  0  0  0  0  0  0
   36.1980   32.2190   33.7180 H   0  0  0  0  0  0  0  0  0  0  0  0
   34.7860   34.2780   33.8080 C   0  0  2  0  0  0  0  0  0  0  0  0
   34.5450   33.1860   34.7430 C   0  0  1  0  0  0  0  0  0  0  0  0
   33.1910   32.7390   34.4590 C   0  0  0  0  0  0  0  0  0  0  0  0
   32.8690   33.0900   33.1350 O   0  0  0  0  0  0  0  0  0  0  0  0
   33.3200   34.3590   33.1060 C   0  0  0  0  0  0  0  0  0  0  0  0
   34.9770   35.2840   34.1790 H   0  0  0  0  0  0  0  0  0  0  0  0
   34.6400   33.5620   35.7920 H   0  0  0  0  0  0  0  0  0  0  0  0
   32.8720   31.7240   34.5550 H   0  0  0  0  0  0  0  0  0  0  0  0
   32.4780   33.3570   35.0800 H   0  0  0  0  0  0  0  0  0  0  0  0
   33.4510   34.8510   32.1450 H   0  0  0  0  0  0  0  0  0  0  0  0
   32.7670   35.0480   33.8060 H   0  0  0  0  0  0  0  0  0  0  0  0
   35.5270   33.8820   32.7050 O   0  0  0  0  0  0  0  0  0  0  0  0
   35.7400   34.7070   31.7460 C   0  0  0  0  0  0  0  0  0  0  0  0
   36.2840   35.6410   31.9980 H   0  0  0  0  0  0  0  0  0  0  0  0
   36.2890   34.2380   30.9050 H   0  0  0  0  0  0  0  0  0  0  0  0
   34.7730   35.0750   31.2950 H   0  0  0  0  0  0  0  0  0  0  0  0
   38.8170   26.6710   35.3060 S   0  0  0  0  0  0  0  0  0  0  0  0
   38.5800   27.8270   36.2270 O   0  0  0  0  0  0  0  0  0  0  0  0
   38.3540   27.7600   37.1890 H   0  0  0  0  0  0  0  0  0  0  0  0
   40.1160   26.9240   34.5950 O   0  0  0  0  0  0  0  0  0  0  0  0
   40.7930   26.2410   34.3510 H   0  0  0  0  0  0  0  0  0  0  0  0
   39.0230   25.2670   36.1980 O   0  0  0  0  0  0  0  0  0  0  0  0
   37.8360   24.7670   36.6850 C   0  0  2  0  0  3  0  0  0  0  0  0
   37.9580   24.8060   38.2140 C   0  0  0  0  0  3  0  0  0  0  0  0
   38.7110   25.5580   38.5290 H   0  0  0  0  0  0  0  0  0  0  0  0
   38.4180   23.3760   38.4900 C   0  0  0  0  0  3  0  0  0  0  0  0
   39.4350   23.2490   38.1130 H   0  0  0  0  0  0  0  0  0  0  0  0
   37.5510   22.6670   37.6580 O   0  0  0  0  0  0  0  0  0  0  0  0
   37.7900   23.2860   36.4140 C   0  0  0  0  0  3  0  0  0  0  0  0
   38.7750   22.8850   36.0670 H   0  0  0  0  0  0  0  0  0  0  0  0
  1  6  1  0  0  0  0
  1 11  1  0  0  0  0
  2  1  2  0  0  0  0
  3  4  2  0  0  0  0
  3  2  1  0  0  0  0
  4  5  1  0  0  0  0
  5  7  1  0  0  0  0
  5  6  2  0  0  0  0
  7 34  1  0  0  0  0
  8  2  1  0  0  0  0
  9  3  1  0  0  0  0
 10  7  1  0  0  0  0
 11 14  1  1  0  0  0
 11 12  1  0  0  0  0
 12 15  1  0  0  0  0
 13 17  1  6  0  0  0
 13 19  1  0  0  0  0
 13 11  1  0  0  0  0
 13 12  1  0  0  0  0
 16 12  1  0  0  0  0
 18 23  1  1  0  0  0
 18 19  1  0  0  0  0
 19 24  1  1  0  0  0
 20 25  1  0  0  0  0
 20 19  1  0  0  0  0
 20 26  1  0  0  0  0
 21 20  1  0  0  0  0
 22 21  1  0  0  0  0
 22 28  1  0  0  0  0
 22 18  1  0  0  0  0
 27 22  1  0  0  0  0
 29 18  1  0  0  0  0
 30 31  1  0  0  0  0
 30 29  1  0  0  0  0
 32 30  1  0  0  0  0
 33 30  1  0  0  0  0
 34 39  1  0  0  0  0
 34 35  1  0  0  0  0
 35 36  1  0  0  0  0
 37 34  1  0  0  0  0
 38 37  1  0  0  0  0
 40 39  1  6  0  0  0
 40 41  1  0  0  0  0
 41 43  1  0  0  0  0
 41 42  1  0  0  0  0
 44 43  1  0  0  0  0
 45 43  1  0  0  0  0
 46 40  1  0  0  0  0
 46 45  1  0  0  0  0
 47 46  1  0  0  0  0
M  END
>  <minimizedAffinity>
-5.30461168

$$$$

 OpenBabel03272500423D

 47 50  0  0  1  0  0  0  0  0999 V2000
   37.8480   27.3890   33.3910 C   0  0  0  0  0  0  0  0  0  0  0  0
   36.9610   27.8270   34.3590 C   0  0  0  0  0  0  0  0  0  0  0  0
   35.8600   28.5220   33.9150 C   0  0  0  0  0  0  0  0  0  0  0  0
   35.6970   28.7400   32.5720 N   0  0  0  0  0  0  0  0  0  0  0  0
   36.5710   28.3060   31.6390 C   0  0  0  0  0  0  0  0  0  0  0  0
   37.6640   27.6180   32.0650 N   0  0  0  0  0  0  0  0  0  0  0  0
   36.3610   28.5500   30.2520 N   0  0  0  0  0  0  0  0  0  0  0  0
   37.1500   27.6210   35.4030 H   0  0  0  0  0  0  0  0  0  0  0  0
   35.1230   28.8960   34.6140 H   0  0  0  0  0  0  0  0  0  0  0  0
   35.4460   28.4430   29.7840 H   0  0  0  0  0  0  0  0  0  0  0  0
   39.0630   26.6040   33.8560 C   0  0  1  0  0  0  0  0  0  0  0  0
   39.7130   26.9000   35.0820 C   0  0  0  0  0  0  0  0  0  0  0  0
   38.7680   25.7400   35.0390 C   0  0  2  0  0  0  0  0  0  0  0  0
   39.5720   26.0690   33.0040 H   0  0  0  0  0  0  0  0  0  0  0  0
   40.7540   26.8630   35.3460 H   0  0  0  0  0  0  0  0  0  0  0  0
   39.2530   27.7790   35.6380 H   0  0  0  0  0  0  0  0  0  0  0  0
   37.7700   25.7930   35.5220 H   0  0  0  0  0  0  0  0  0  0  0  0
   39.1100   23.7310   36.4250 C   0  0  2  0  0  0  0  0  0  0  0  0
   39.3580   24.3620   35.1340 C   0  0  1  0  0  0  0  0  0  0  0  0
   38.7600   23.4660   34.1560 C   0  0  0  0  0  0  0  0  0  0  0  0
   37.7560   22.7110   34.7910 O   0  0  0  0  0  0  0  0  0  0  0  0
   38.4000   22.3550   35.9200 C   0  0  0  0  0  0  0  0  0  0  0  0
   39.9450   23.4070   37.0440 H   0  0  0  0  0  0  0  0  0  0  0  0
   40.4590   24.4670   34.9720 H   0  0  0  0  0  0  0  0  0  0  0  0
   38.3120   23.8000   33.2460 H   0  0  0  0  0  0  0  0  0  0  0  0
   39.5320   22.6940   33.8670 H   0  0  0  0  0  0  0  0  0  0  0  0
   37.8240   21.9660   36.7570 H   0  0  0  0  0  0  0  0  0  0  0  0
   39.2920   21.6900   35.7380 H   0  0  0  0  0  0  0  0  0  0  0  0
   38.0330   24.2910   37.0940 O   0  0  0  0  0  0  0  0  0  0  0  0
   37.9320   24.1630   38.3660 C   0  0  0  0  0  0  0  0  0  0  0  0
   38.7580   24.5780   38.9810 H   0  0  0  0  0  0  0  0  0  0  0  0
   36.9930   24.6030   38.7580 H   0  0  0  0  0  0  0  0  0  0  0  0
   37.8950   23.0770   38.6710 H   0  0  0  0  0  0  0  0  0  0  0  0
   37.6320   29.0530   29.2230 S   0  0  0  0  0  0  0  0  0  0  0  0
   37.7390   28.2190   27.9850 O   0  0  0  0  0  0  0  0  0  0  0  0
   37.5340   28.5250   27.0650 H   0  0  0  0  0  0  0  0  0  0  0  0
   38.9290   28.9140   29.9690 O   0  0  0  0  0  0  0  0  0  0  0  0
   39.3930   29.6300   30.4750 H   0  0  0  0  0  0  0  0  0  0  0  0
   37.4890   30.6710   28.8080 O   0  0  0  0  0  0  0  0  0  0  0  0
   38.5320   31.4370   29.2790 C   0  0  2  0  0  3  0  0  0  0  0  0
   37.8890   32.6410   29.9790 C   0  0  0  0  0  3  0  0  0  0  0  0
   36.8500   32.4050   30.2920 H   0  0  0  0  0  0  0  0  0  0  0  0
   37.9330   33.6700   28.8520 C   0  0  0  0  0  3  0  0  0  0  0  0
   37.2330   33.3730   28.0680 H   0  0  0  0  0  0  0  0  0  0  0  0
   39.2310   33.4700   28.3790 O   0  0  0  0  0  0  0  0  0  0  0  0
   39.2190   32.0870   28.1070 C   0  0  0  0  0  3  0  0  0  0  0  0
   38.6390   31.9760   27.1570 H   0  0  0  0  0  0  0  0  0  0  0  0
  1 11  1  0  0  0  0
  1  2  1  0  0  0  0
  2  8  1  0  0  0  0
  3  2  2  0  0  0  0
  3  9  1  0  0  0  0
  4  3  1  0  0  0  0
  5  6  1  0  0  0  0
  5  4  2  0  0  0  0
  6  1  2  0  0  0  0
  7  5  1  0  0  0  0
 10  7  1  0  0  0  0
 11 14  1  6  0  0  0
 11 13  1  0  0  0  0
 11 12  1  0  0  0  0
 12 15  1  0  0  0  0
 12 16  1  0  0  0  0
 13 12  1  0  0  0  0
 13 19  1  0  0  0  0
 13 17  1  1  0  0  0
 18 23  1  1  0  0  0
 18 29  1  0  0  0  0
 19 24  1  6  0  0  0
 19 18  1  0  0  0  0
 20 21  1  0  0  0  0
 20 19  1  0  0  0  0
 21 22  1  0  0  0  0
 22 18  1  0  0  0  0
 22 27  1  0  0  0  0
 25 20  1  0  0  0  0
 26 20  1  0  0  0  0
 28 22  1  0  0  0  0
 29 30  1  0  0  0  0
 30 33  1  0  0  0  0
 30 32  1  0  0  0  0
 30 31  1  0  0  0  0
 34 37  1  0  0  0  0
 34  7  1  0  0  0  0
 35 34  1  0  0  0  0
 36 35  1  0  0  0  0
 37 38  1  0  0  0  0
 39 34  1  0  0  0  0
 40 39  1  6  0  0  0
 40 41  1  0  0  0  0
 41 42  1  0  0  0  0
 43 41  1  0  0  0  0
 44 43  1  0  0  0  0
 45 43  1  0  0  0  0
 46 45  1  0  0  0  0
 46 40  1  0  0  0  0
 47 46  1  0  0  0  0
M  END
>  <minimizedAffinity>
-5.27451086

$$$$

 OpenBabel03272500423D

 47 50  0  0  1  0  0  0  0  0999 V2000
   37.5540   26.7050   32.9260 C   0  0  0  0  0  0  0  0  0  0  0  0
   36.9800   25.4830   32.6220 C   0  0  0  0  0  0  0  0  0  0  0  0
   36.0910   25.4650   31.5720 C   0  0  0  0  0  0  0  0  0  0  0  0
   35.8240   26.6260   30.8960 N   0  0  0  0  0  0  0  0  0  0  0  0
   36.3920   27.8110   31.2040 C   0  0  0  0  0  0  0  0  0  0  0  0
   37.2730   27.8420   32.2390 N   0  0  0  0  0  0  0  0  0  0  0  0
   36.0900   28.9940   30.4710 N   0  0  0  0  0  0  0  0  0  0  0  0
   37.2350   24.6030   33.1970 H   0  0  0  0  0  0  0  0  0  0  0  0
   35.6020   24.5450   31.2770 H   0  0  0  0  0  0  0  0  0  0  0  0
   36.0230   29.0260   29.4390 H   0  0  0  0  0  0  0  0  0  0  0  0
   38.5530   26.7450   34.0700 C   0  0  1  0  0  0  0  0  0  0  0  0
   38.1810   27.1940   35.3640 C   0  0  0  0  0  0  0  0  0  0  0  0
   38.2650   25.7200   35.1180 C   0  0  2  0  0  0  0  0  0  0  0  0
   39.6190   26.7480   33.7010 H   0  0  0  0  0  0  0  0  0  0  0  0
   38.7380   27.7490   36.0960 H   0  0  0  0  0  0  0  0  0  0  0  0
   37.0990   27.5340   35.4320 H   0  0  0  0  0  0  0  0  0  0  0  0
   37.3500   25.0970   35.0390 H   0  0  0  0  0  0  0  0  0  0  0  0
   39.0020   23.6350   36.2070 C   0  0  2  0  0  0  0  0  0  0  0  0
   39.3910   24.9710   35.7720 C   0  0  1  0  0  0  0  0  0  0  0  0
   40.4910   24.7580   34.8430 C   0  0  0  0  0  0  0  0  0  0  0  0
   40.3870   23.4590   34.3120 O   0  0  0  0  0  0  0  0  0  0  0  0
   40.1360   22.7590   35.4360 C   0  0  0  0  0  0  0  0  0  0  0  0
   39.0920   23.3530   37.2540 H   0  0  0  0  0  0  0  0  0  0  0  0
   39.7140   25.5750   36.6550 H   0  0  0  0  0  0  0  0  0  0  0  0
   40.6770   25.3820   33.9970 H   0  0  0  0  0  0  0  0  0  0  0  0
   41.4520   24.7280   35.4350 H   0  0  0  0  0  0  0  0  0  0  0  0
   39.7550   21.7440   35.3510 H   0  0  0  0  0  0  0  0  0  0  0  0
   40.9850   22.7790   36.1770 H   0  0  0  0  0  0  0  0  0  0  0  0
   37.8810   23.1630   35.5400 O   0  0  0  0  0  0  0  0  0  0  0  0
   37.5060   21.9470   35.7010 C   0  0  0  0  0  0  0  0  0  0  0  0
   37.2430   21.6330   36.7320 H   0  0  0  0  0  0  0  0  0  0  0  0
   36.6380   21.6890   35.0600 H   0  0  0  0  0  0  0  0  0  0  0  0
   38.3160   21.2210   35.4000 H   0  0  0  0  0  0  0  0  0  0  0  0
   35.8070   30.4900   31.2510 S   0  0  0  0  0  0  0  0  0  0  0  0
   34.5320   31.1400   30.8090 O   0  0  0  0  0  0  0  0  0  0  0  0
   33.7220   31.2570   31.3670 H   0  0  0  0  0  0  0  0  0  0  0  0
   36.9290   31.4260   30.9030 O   0  0  0  0  0  0  0  0  0  0  0  0
   37.7460   31.5860   31.4420 H   0  0  0  0  0  0  0  0  0  0  0  0
   35.8140   30.3290   32.9190 O   0  0  0  0  0  0  0  0  0  0  0  0
   34.9560   31.2070   33.5430 C   0  0  2  0  0  3  0  0  0  0  0  0
   35.8430   32.1630   34.3500 C   0  0  0  0  0  3  0  0  0  0  0  0
   36.8700   32.1940   33.9320 H   0  0  0  0  0  0  0  0  0  0  0  0
   35.7970   31.4890   35.7200 C   0  0  0  0  0  3  0  0  0  0  0  0
   36.3430   30.5450   35.6740 H   0  0  0  0  0  0  0  0  0  0  0  0
   34.4340   31.2030   35.8150 O   0  0  0  0  0  0  0  0  0  0  0  0
   34.2200   30.4680   34.6310 C   0  0  0  0  0  3  0  0  0  0  0  0
   34.6530   29.4570   34.8270 H   0  0  0  0  0  0  0  0  0  0  0  0
  1 11  1  0  0  0  0
  2  1  1  0  0  0  0
  2  8  1  0  0  0  0
  3  2  2  0  0  0  0
  4  5  2  0  0  0  0
  4  3  1  0  0  0  0
  5  6  1  0  0  0  0
  6  1  2  0  0  0  0
  7  5  1  0  0  0  0
  7 34  1  0  0  0  0
  9  3  1  0  0  0  0
 10  7  1  0  0  0  0
 11 14  1  6  0  0  0
 11 13  1  0  0  0  0
 11 12  1  0  0  0  0
 12 16  1  0  0  0  0
 12 15  1  0  0  0  0
 13 17  1  6  0  0  0
 13 12  1  0  0  0  0
 13 19  1  0  0  0  0
 18 23  1  1  0  0  0
 19 18  1  0  0  0  0
 19 24  1  1  0  0  0
 20 26  1  0  0  0  0
 20 19  1  0  0  0  0
 21 20  1  0  0  0  0
 21 22  1  0  0  0  0
 22 28  1  0  0  0  0
 22 18  1  0  0  0  0
 25 20  1  0  0  0  0
 27 22  1  0  0  0  0
 29 30  1  0  0  0  0
 29 18  1  0  0  0  0
 30 31  1  0  0  0  0
 32 30  1  0  0  0  0
 33 30  1  0  0  0  0
 34 39  1  0  0  0  0
 35 34  1  0  0  0  0
 35 36  1  0  0  0  0
 37 34  1  0  0  0  0
 37 38  1  0  0  0  0
 40 39  1  1  0  0  0
 40 41  1  0  0  0  0
 40 46  1  0  0  0  0
 41 43  1  0  0  0  0
 42 41  1  0  0  0  0
 43 45  1  0  0  0  0
 44 43  1  0  0  0  0
 46 47  1  0  0  0  0
 46 45  1  0  0  0  0
M  END
>  <minimizedAffinity>
-5.27016354

$$$$
