REMARK  Name = 
REMARK  3 active torsions:
REMARK  status: ('A' for Active; 'I' for Inactive)
REMARK    1  A    between atoms: N_1  and  C_6
REMARK    2  A    between atoms: C_2  and  C_12
REMARK    3  A    between atoms: C_12  and  C_24
REMARK                            x       y       z     vdW  Elec       q    Type
REMARK                         _______ _______ _______ _____ _____    ______ ____
ROOT
ATOM      1  N   UNL     1      36.536  29.775  49.190  0.00  0.00    +0.000 N 
ATOM      2  C   UNL     1      37.299  30.893  48.745  0.00  0.00    +0.000 C 
ATOM      3  C   UNL     1      37.999  31.384  50.001  0.00  0.00    +0.000 C 
ATOM      4  C   UNL     1      37.497  30.441  51.116  0.00  0.00    +0.000 C 
ATOM      5  C   UNL     1      37.234  29.209  50.315  0.00  0.00    +0.000 C 
ATOM      6  H   UNL     1      36.619  31.765  48.472  0.00  0.00    +0.000 HD
ATOM      7  H   UNL     1      39.077  31.167  49.851  0.00  0.00    +0.000 HD
ATOM      8  H   UNL     1      37.824  32.435  50.236  0.00  0.00    +0.000 HD
ATOM      9  H   UNL     1      38.348  30.290  51.796  0.00  0.00    +0.000 HD
ATOM     10  H   UNL     1      36.591  30.850  51.601  0.00  0.00    +0.000 HD
ATOM     11  H   UNL     1      38.173  28.713  50.055  0.00  0.00    +0.000 HD
ATOM     12  H   UNL     1      36.583  28.495  50.873  0.00  0.00    +0.000 HD
ENDROOT
BRANCH   1  13
ATOM     13  C   UNL     1      35.311  29.319  48.627  0.00  0.00    +0.000 A 
ATOM     14  C   UNL     1      34.720  30.099  47.621  0.00  0.00    +0.000 A 
ATOM     15  C   UNL     1      33.517  29.676  47.047  0.00  0.00    +0.000 A 
ATOM     16  N   UNL     1      32.992  28.501  47.521  0.00  0.00    +0.000 NA
ATOM     17  C   UNL     1      33.588  27.772  48.493  0.00  0.00    +0.000 A 
ATOM     18  N   UNL     1      34.772  28.174  49.069  0.00  0.00    +0.000 NA
ATOM     19  H   UNL     1      35.131  31.020  47.249  0.00  0.00    +0.000 HD
ATOM     20  H   UNL     1      33.059  30.259  46.283  0.00  0.00    +0.000 HD
ATOM     21  H   UNL     1      33.094  26.860  48.798  0.00  0.00    +0.000 HD
ENDBRANCH   1  13
BRANCH   2  22
ATOM     22  C   UNL     1      38.171  30.675  47.593  0.00  0.00    +0.000 C 
ATOM     23  O   UNL     1      38.971  31.609  47.419  0.00  0.00    +0.000 OA
BRANCH  22  24
ATOM     24  C   UNL     1      38.361  29.622  46.547  0.00  0.00    +0.000 C 
ATOM     25  C   UNL     1      39.481  29.821  45.608  0.00  0.00    +0.000 C 
ATOM     26  H   UNL     1      39.217  30.334  44.664  0.00  0.00    +0.000 HD
ATOM     27  C   UNL     1      39.798  28.383  45.199  0.00  0.00    +0.000 C 
ATOM     28  H   UNL     1      39.270  28.118  44.248  0.00  0.00    +0.000 HD
ATOM     29  O   UNL     1      39.282  27.569  46.169  0.00  0.00    +0.000 OA
ATOM     30  C   UNL     1      38.788  28.323  47.194  0.00  0.00    +0.000 C 
ATOM     31  H   UNL     1      37.907  27.874  47.700  0.00  0.00    +0.000 HD
ENDBRANCH  22  24
ENDBRANCH   2  22
TORSDOF 3
