
     RDKit          3D

 44 47  0  0  0  0  0  0  0  0999 V2000
   38.4940   31.1362   45.9630 C   0  0  0  0  0  0  0  0  0  0  0  0
   39.8148   31.1881   46.3133 C   0  0  0  0  0  0  0  0  0  0  0  0
   40.4778   31.5131   45.1191 C   0  0  0  0  0  0  0  0  0  0  0  0
   39.5755   31.6394   44.1383 N   0  0  0  0  0  0  0  0  0  0  0  0
   38.3677   31.4103   44.6505 N   0  0  0  0  0  0  0  0  0  0  0  0
   36.4431   30.6251   49.0632 C   0  0  0  0  0  0  0  0  0  0  0  0
   37.5049   30.9242   48.2444 C   0  0  0  0  0  0  0  0  0  0  0  0
   37.4035   30.8320   46.8720 C   0  0  0  0  0  0  0  0  0  0  0  0
   36.2157   30.4354   46.3761 N   0  0  0  0  0  0  0  0  0  0  0  0
   35.1634   30.1393   47.1944 C   0  0  0  0  0  0  0  0  0  0  0  0
   35.2618   30.2278   48.5041 N   0  0  0  0  0  0  0  0  0  0  0  0
   36.7156   30.7703   50.4117 O   0  0  0  0  0  0  0  0  0  0  0  0
   36.7965   29.6909   51.3169 C   0  0  0  0  0  0  0  0  0  0  0  0
   35.5272   29.2142   51.6281 F   0  0  0  0  0  0  0  0  0  0  0  0
   37.4600   30.1077   52.4442 F   0  0  0  0  0  0  0  0  0  0  0  0
   37.5406   28.6953   50.7272 F   0  0  0  0  0  0  0  0  0  0  0  0
   39.9184   30.7287   41.9034 C   0  0  2  0  0  0  0  0  0  0  0  0
   39.9367   31.9695   42.7831 C   0  0  1  0  0  0  0  0  0  0  0  0
   38.8600   32.7624   42.0709 C   0  0  0  0  0  0  0  0  0  0  0  0
   38.9763   32.5012   40.7265 O   0  0  0  0  0  0  0  0  0  0  0  0
   39.7946   31.4306   40.5344 C   0  0  0  0  0  0  0  0  0  0  0  0
   38.7469   30.0553   42.1582 O   0  0  0  0  0  0  0  0  0  0  0  0
   40.2900   31.0249   47.2731 H   0  0  0  0  0  0  0  0  0  0  0  0
   41.5551   31.6240   45.0905 H   0  0  0  0  0  0  0  0  0  0  0  0
   38.4906   31.2512   48.6078 H   0  0  0  0  0  0  0  0  0  0  0  0
   34.2235   29.8227   46.7372 H   0  0  0  0  0  0  0  0  0  0  0  0
   40.8208   30.1371   41.9222 H   0  0  0  0  0  0  0  0  0  0  0  0
   40.8761   32.5131   42.7384 H   0  0  0  0  0  0  0  0  0  0  0  0
   37.8636   32.3523   42.3773 H   0  0  0  0  0  0  0  0  0  0  0  0
   38.9465   33.8363   42.2621 H   0  0  0  0  0  0  0  0  0  0  0  0
   39.3830   30.6667   39.8342 H   0  0  0  0  0  0  0  0  0  0  0  0
   40.8146   31.7461   40.2088 H   0  0  0  0  0  0  0  0  0  0  0  0
   38.8441   28.7314   42.4003 C   0  0  1  0  0  0  0  0  0  0  0  0
   37.5672   27.9292   42.3004 C   0  0  2  0  0  0  0  0  0  0  0  0
   37.0482   28.0865   41.3437 H   0  0  0  0  0  0  0  0  0  0  0  0
   38.1788   26.5380   42.2848 C   0  0  1  0  0  0  0  0  0  0  0  0
   38.3675   26.2820   43.3633 H   0  0  0  0  0  0  0  0  0  0  0  0
   39.3959   26.6190   41.6600 O   0  0  0  0  0  0  0  0  0  0  0  0
   39.7230   27.9450   41.4783 C   0  0  1  0  0  0  0  0  0  0  0  0
   39.5850   28.1710   40.4145 H   0  0  0  0  0  0  0  0  0  0  0  0
   39.2454   28.5808   43.4234 H   0  0  0  0  0  0  0  0  0  0  0  0
   36.9141   28.0778   43.1815 H   0  0  0  0  0  0  0  0  0  0  0  0
   37.4925   25.7937   41.8326 H   0  0  0  0  0  0  0  0  0  0  0  0
   40.8071   28.0883   41.6873 H   0  0  0  0  0  0  0  0  0  0  0  0
  1  2  1  0
  1  8  1  0
  3  2  2  0
  4  5  1  0
  4  3  1  0
  5  1  2  0
  6 12  1  0
  7  6  2  0
  8  7  1  0
  9  8  2  0
  9 10  1  0
 10 11  2  0
 11  6  1  0
 12 13  1  0
 13 14  1  0
 13 15  1  0
 16 13  1  0
 17 22  1  0
 17 18  1  0
 18  4  1  0
 19 18  1  0
 20 19  1  0
 21 20  1  0
 21 17  1  0
  2 23  1  0
  3 24  1  0
  7 25  1  0
 10 26  1  0
 17 27  1  6
 18 28  1  1
 19 29  1  0
 19 30  1  0
 21 31  1  0
 21 32  1  0
 33 34  1  0
 34 35  1  6
 34 36  1  0
 36 37  1  1
 36 38  1  0
 38 39  1  0
 39 40  1  6
 39 33  1  0
 33 41  1  1
 34 42  1  0
 36 43  1  0
 39 44  1  0
 22 33  1  0
M  ISO  8  23  14  24  14  25  14  26  14  27  13  28  13  29  13  30  13
M  ISO  5  31  13  32  13  35  15  37  15  40  15
M  END
>  <DihAtoms>  (1) 
16,21,32,33

>  <DihDeg>  (1) 
121.40296841534499

$$$$
