
 OpenBabel03272509433D

 37 39  0  0  1  0  0  0  0  0999 V2000
   37.0460   30.9300   49.0540 C   0  0  0  0  0  0  0  0  0  0  0  0
   36.7580   31.8310   50.0810 C   0  0  0  0  0  0  0  0  0  0  0  0
   37.3500   33.0860   50.1390 C   0  0  0  0  0  0  0  0  0  0  0  0
   38.2580   33.4620   49.1460 C   0  0  0  0  0  0  0  0  0  0  0  0
   38.5310   32.5710   48.1470 C   0  0  0  0  0  0  0  0  0  0  0  0
   37.9200   31.3250   48.1230 C   0  0  0  0  0  0  0  0  0  0  0  0
   36.0480   31.5250   50.8470 H   0  0  0  0  0  0  0  0  0  0  0  0
   37.0710   33.7070   50.9590 H   0  0  0  0  0  0  0  0  0  0  0  0
   38.6670   34.4470   49.2700 H   0  0  0  0  0  0  0  0  0  0  0  0
   39.2530   33.0030   47.4560 H   0  0  0  0  0  0  0  0  0  0  0  0
   36.4570   29.6090   49.0130 C   0  0  2  0  0  0  0  0  0  0  0  0
   36.9600   29.0800   48.1140 H   0  0  0  0  0  0  0  0  0  0  0  0
   33.6030   29.9970   46.7970 C   0  0  0  0  0  0  0  0  0  0  0  0
   32.8580   28.8520   47.0060 C   0  0  0  0  0  0  0  0  0  0  0  0
   33.2980   27.9570   47.9630 C   0  0  0  0  0  0  0  0  0  0  0  0
   34.4490   28.2300   48.6680 N   0  0  0  0  0  0  0  0  0  0  0  0
   35.1170   29.3400   48.4200 C   0  0  0  0  0  0  0  0  0  0  0  0
   34.7010   30.2290   47.4900 N   0  0  0  0  0  0  0  0  0  0  0  0
   33.2210   30.6690   46.0400 H   0  0  0  0  0  0  0  0  0  0  0  0
   31.9540   28.5480   46.5120 H   0  0  0  0  0  0  0  0  0  0  0  0
   32.8210   27.0260   48.2350 H   0  0  0  0  0  0  0  0  0  0  0  0
   36.9220   28.8330   49.9270 O   0  0  0  0  0  0  0  0  0  0  0  0
   36.4480   28.0440   50.2470 H   0  0  0  0  0  0  0  0  0  0  0  0
   38.3200   30.4710   47.0280 C   0  0  0  0  0  3  0  0  0  0  0  0
   38.9720   30.9040   45.9440 C   0  0  0  0  0  3  0  0  0  0  0  0
   39.4650   30.1190   44.7890 C   0  0  0  0  0  0  0  0  0  0  0  0
   40.3210   29.5110   45.1440 H   0  0  0  0  0  0  0  0  0  0  0  0
   38.6830   29.4180   44.4020 H   0  0  0  0  0  0  0  0  0  0  0  0
   40.0370   31.2330   43.5010 S   0  0  0  0  0  0  0  0  0  0  0  0
   38.7030   32.4050   43.1470 C   0  0  1  0  0  3  0  0  0  0  0  0
   39.0120   33.3360   42.0100 C   0  0  0  0  0  3  0  0  0  0  0  0
   39.8440   32.9860   41.3550 H   0  0  0  0  0  0  0  0  0  0  0  0
   37.6970   33.4430   41.3100 C   0  0  0  0  0  3  0  0  0  0  0  0
   37.1620   34.3720   41.5970 H   0  0  0  0  0  0  0  0  0  0  0  0
   36.9000   32.3820   41.6470 O   0  0  0  0  0  0  0  0  0  0  0  0
   37.5260   31.6300   42.6050 C   0  0  0  0  0  3  0  0  0  0  0  0
   37.8750   30.6420   42.1860 H   0  0  0  0  0  0  0  0  0  0  0  0
  1  2  1  0  0  0  0
  2  3  2  0  0  0  0
  2  7  1  0  0  0  0
  3  8  1  0  0  0  0
  4  9  1  0  0  0  0
  4  3  1  0  0  0  0
  5  4  2  0  0  0  0
  6  5  1  0  0  0  0
  6  1  2  0  0  0  0
 10  5  1  0  0  0  0
 11 12  1  6  0  0  0
 11  1  1  0  0  0  0
 11 22  1  0  0  0  0
 13 14  2  0  0  0  0
 13 18  1  0  0  0  0
 14 15  1  0  0  0  0
 15 21  1  0  0  0  0
 15 16  2  0  0  0  0
 17 16  1  0  0  0  0
 17 11  1  0  0  0  0
 18 17  2  0  0  0  0
 19 13  1  0  0  0  0
 20 14  1  0  0  0  0
 22 23  1  0  0  0  0
 24  6  1  0  0  0  0
 25 24  2  0  0  0  0
 26 27  1  0  0  0  0
 26 25  1  0  0  0  0
 28 26  1  0  0  0  0
 29 26  1  0  0  0  0
 30 29  1  6  0  0  0
 31 30  1  0  0  0  0
 32 31  1  0  0  0  0
 33 34  1  0  0  0  0
 33 35  1  0  0  0  0
 33 31  1  0  0  0  0
 35 36  1  0  0  0  0
 36 30  1  0  0  0  0
 37 36  1  0  0  0  0
M  END
>  <minimizedAffinity>
-5.58928299

>  <minimizedRMSD>
0.957721293

$$$$
