
 OpenBabel03262521103D

 23 24  0  0  1  0  0  0  0  0999 V2000
   39.2620   26.5280   34.1630 O   0  0  0  0  0  0  0  0  0  0  0  0
   38.1380   26.7180   35.1630 P   0  0  1  0  0  0  0  0  0  0  0  0
   38.6290   27.7240   36.4550 O   0  0  0  0  0  0  0  0  0  0  0  0
   38.0040   27.5320   37.1950 H   0  0  0  0  0  0  0  0  0  0  0  0
   36.7560   27.4700   34.4790 O   0  0  0  0  0  0  0  0  0  0  0  0
   36.6170   27.6270   33.1070 C   0  0  0  0  0  0  0  0  0  0  0  0
   36.5570   28.8440   32.4230 C   0  0  0  0  0  0  0  0  0  0  0  0
   36.4150   28.8250   31.0370 C   0  0  0  0  0  0  0  0  0  0  0  0
   36.3410   27.6300   30.4020 N   0  0  0  0  0  0  0  0  0  0  0  0
   36.4030   26.4540   31.0990 C   0  0  0  0  0  0  0  0  0  0  0  0
   36.5410   26.4490   32.4410 N   0  0  0  0  0  0  0  0  0  0  0  0
   36.6250   29.7290   33.0300 H   0  0  0  0  0  0  0  0  0  0  0  0
   36.3690   29.7750   30.5230 H   0  0  0  0  0  0  0  0  0  0  0  0
   36.3430   25.5020   30.5740 H   0  0  0  0  0  0  0  0  0  0  0  0
   37.7490   25.1810   35.7390 O   0  0  0  0  0  0  0  0  0  0  0  0
   38.5920   24.7970   36.7860 C   0  0  2  0  0  3  0  0  0  0  0  0
   39.4700   23.6700   36.2810 C   0  0  0  0  0  3  0  0  0  0  0  0
   38.8600   23.1050   35.5270 H   0  0  0  0  0  0  0  0  0  0  0  0
   39.6320   22.8210   37.4980 C   0  0  0  0  0  3  0  0  0  0  0  0
   39.5630   21.7350   37.2000 H   0  0  0  0  0  0  0  0  0  0  0  0
   38.6760   23.1560   38.4300 O   0  0  0  0  0  0  0  0  0  0  0  0
   37.8010   24.0520   37.8630 C   0  0  0  0  0  3  0  0  0  0  0  0
   37.3590   24.7590   38.6070 H   0  0  0  0  0  0  0  0  0  0  0  0
  2  1  2  6  0  0  0
  2 15  1  0  0  0  0
  2  3  1  0  0  0  0
  3  4  1  0  0  0  0
  5  2  1  0  0  0  0
  6  5  1  0  0  0  0
  7 12  1  0  0  0  0
  7  6  2  0  0  0  0
  8  7  1  0  0  0  0
  9  8  2  0  0  0  0
  9 10  1  0  0  0  0
 10 11  2  0  0  0  0
 11  6  1  0  0  0  0
 13  8  1  0  0  0  0
 14 10  1  0  0  0  0
 16 15  1  6  0  0  0
 16 22  1  0  0  0  0
 17 16  1  0  0  0  0
 17 19  1  0  0  0  0
 18 17  1  0  0  0  0
 19 21  1  0  0  0  0
 20 19  1  0  0  0  0
 22 21  1  0  0  0  0
 22 23  1  0  0  0  0
M  END
>  <minimizedAffinity>
-4.29802465

$$$$

 OpenBabel03262521103D

 23 24  0  0  1  0  0  0  0  0999 V2000
   40.3610   27.1570   34.2750 O   0  0  0  0  0  0  0  0  0  0  0  0
   39.0610   26.7400   34.9340 P   0  0  1  0  0  0  0  0  0  0  0  0
   38.5770   27.8770   36.1140 O   0  0  0  0  0  0  0  0  0  0  0  0
   37.9510   27.3960   36.7070 H   0  0  0  0  0  0  0  0  0  0  0  0
   37.7560   26.6280   33.8250 O   0  0  0  0  0  0  0  0  0  0  0  0
   37.0520   27.7510   33.4150 C   0  0  0  0  0  0  0  0  0  0  0  0
   37.0660   28.3050   32.1320 C   0  0  0  0  0  0  0  0  0  0  0  0
   36.2970   29.4410   31.8860 C   0  0  0  0  0  0  0  0  0  0  0  0
   35.5640   29.9670   32.8970 N   0  0  0  0  0  0  0  0  0  0  0  0
   35.5690   29.4020   34.1430 C   0  0  0  0  0  0  0  0  0  0  0  0
   36.3050   28.3030   34.4030 N   0  0  0  0  0  0  0  0  0  0  0  0
   37.6850   27.8030   31.4100 H   0  0  0  0  0  0  0  0  0  0  0  0
   36.3200   29.8570   30.8890 H   0  0  0  0  0  0  0  0  0  0  0  0
   34.9740   29.8370   34.9440 H   0  0  0  0  0  0  0  0  0  0  0  0
   39.3520   25.2420   35.6540 O   0  0  0  0  0  0  0  0  0  0  0  0
   38.1600   24.5660   35.9300 C   0  0  2  0  0  3  0  0  0  0  0  0
   38.0650   24.3930   37.4320 C   0  0  0  0  0  3  0  0  0  0  0  0
   39.1180   24.2970   37.8090 H   0  0  0  0  0  0  0  0  0  0  0  0
   37.3890   23.0670   37.5590 C   0  0  0  0  0  3  0  0  0  0  0  0
   37.8730   22.4880   38.3970 H   0  0  0  0  0  0  0  0  0  0  0  0
   37.4620   22.3910   36.3620 O   0  0  0  0  0  0  0  0  0  0  0  0
   38.2660   23.1010   35.5030 C   0  0  0  0  0  3  0  0  0  0  0  0
   37.9810   22.9670   34.4300 H   0  0  0  0  0  0  0  0  0  0  0  0
  2  1  2  6  0  0  0
  2 15  1  0  0  0  0
  2  3  1  0  0  0  0
  3  4  1  0  0  0  0
  5  2  1  0  0  0  0
  6  5  1  0  0  0  0
  6 11  1  0  0  0  0
  7  6  2  0  0  0  0
  8  7  1  0  0  0  0
  8  9  2  0  0  0  0
  9 10  1  0  0  0  0
 10 11  2  0  0  0  0
 10 14  1  0  0  0  0
 12  7  1  0  0  0  0
 13  8  1  0  0  0  0
 16 15  1  1  0  0  0
 16 17  1  0  0  0  0
 17 19  1  0  0  0  0
 17 18  1  0  0  0  0
 19 20  1  0  0  0  0
 21 19  1  0  0  0  0
 22 16  1  0  0  0  0
 22 21  1  0  0  0  0
 23 22  1  0  0  0  0
M  END
>  <minimizedAffinity>
-4.26105833

$$$$

 OpenBabel03262521103D

 23 24  0  0  1  0  0  0  0  0999 V2000
   37.2870   28.2640   35.2810 O   0  0  0  0  0  0  0  0  0  0  0  0
   38.0520   26.9800   35.0280 P   0  0  1  0  0  0  0  0  0  0  0  0
   39.6540   27.0930   35.6110 O   0  0  0  0  0  0  0  0  0  0  0  0
   40.1630   26.3960   35.1310 H   0  0  0  0  0  0  0  0  0  0  0  0
   37.3580   25.6230   35.8160 O   0  0  0  0  0  0  0  0  0  0  0  0
   38.1390   24.7000   36.4980 C   0  0  0  0  0  0  0  0  0  0  0  0
   37.9670   24.3020   37.8260 C   0  0  0  0  0  0  0  0  0  0  0  0
   38.8430   23.3600   38.3610 C   0  0  0  0  0  0  0  0  0  0  0  0
   39.8290   22.8630   37.5760 N   0  0  0  0  0  0  0  0  0  0  0  0
   39.9730   23.2710   36.2780 C   0  0  0  0  0  0  0  0  0  0  0  0
   39.1360   24.1810   35.7400 N   0  0  0  0  0  0  0  0  0  0  0  0
   37.1510   24.7640   38.3530 H   0  0  0  0  0  0  0  0  0  0  0  0
   38.6960   23.0640   39.3900 H   0  0  0  0  0  0  0  0  0  0  0  0
   40.7710   22.8610   35.6600 H   0  0  0  0  0  0  0  0  0  0  0  0
   38.0570   26.7520   33.3560 O   0  0  0  0  0  0  0  0  0  0  0  0
   36.9170   26.0650   32.9300 C   0  0  2  0  0  3  0  0  0  0  0  0
   37.3720   24.7670   32.2920 C   0  0  0  0  0  3  0  0  0  0  0  0
   38.3740   24.9740   31.8300 H   0  0  0  0  0  0  0  0  0  0  0  0
   36.3700   24.5800   31.2000 C   0  0  0  0  0  3  0  0  0  0  0  0
   36.9010   24.2060   30.2770 H   0  0  0  0  0  0  0  0  0  0  0  0
   35.7100   25.7640   30.9660 O   0  0  0  0  0  0  0  0  0  0  0  0
   36.3040   26.7560   31.7100 C   0  0  0  0  0  3  0  0  0  0  0  0
   35.5880   27.5590   32.0130 H   0  0  0  0  0  0  0  0  0  0  0  0
  2  1  2  1  0  0  0
  2  3  1  0  0  0  0
  2  5  1  0  0  0  0
  4  3  1  0  0  0  0
  5  6  1  0  0  0  0
  6  7  1  0  0  0  0
  7 12  1  0  0  0  0
  7  8  2  0  0  0  0
  8 13  1  0  0  0  0
  9  8  1  0  0  0  0
 10  9  2  0  0  0  0
 11 10  1  0  0  0  0
 11  6  2  0  0  0  0
 14 10  1  0  0  0  0
 15  2  1  0  0  0  0
 16 15  1  6  0  0  0
 17 16  1  0  0  0  0
 18 17  1  0  0  0  0
 19 17  1  0  0  0  0
 20 19  1  0  0  0  0
 21 19  1  0  0  0  0
 21 22  1  0  0  0  0
 22 23  1  0  0  0  0
 22 16  1  0  0  0  0
M  END
>  <minimizedAffinity>
-4.17515755

$$$$

 OpenBabel03262521103D

 23 24  0  0  1  0  0  0  0  0999 V2000
   39.0980   27.1910   35.5900 O   0  0  0  0  0  0  0  0  0  0  0  0
   37.8940   26.5270   34.9520 P   0  0  1  0  0  0  0  0  0  0  0  0
   36.6150   27.6410   34.7440 O   0  0  0  0  0  0  0  0  0  0  0  0
   35.7980   27.0950   34.6520 H   0  0  0  0  0  0  0  0  0  0  0  0
   38.2290   25.8970   33.3910 O   0  0  0  0  0  0  0  0  0  0  0  0
   37.2150   25.4510   32.5540 C   0  0  0  0  0  0  0  0  0  0  0  0
   36.9250   24.1170   32.2550 C   0  0  0  0  0  0  0  0  0  0  0  0
   35.8680   23.8410   31.3900 C   0  0  0  0  0  0  0  0  0  0  0  0
   35.1590   24.8720   30.8720 N   0  0  0  0  0  0  0  0  0  0  0  0
   35.4660   26.1690   31.1830 C   0  0  0  0  0  0  0  0  0  0  0  0
   36.4840   26.4590   32.0180 N   0  0  0  0  0  0  0  0  0  0  0  0
   37.5560   23.3830   32.7240 H   0  0  0  0  0  0  0  0  0  0  0  0
   35.6580   22.8030   31.1690 H   0  0  0  0  0  0  0  0  0  0  0  0
   34.8850   26.9860   30.7580 H   0  0  0  0  0  0  0  0  0  0  0  0
   37.4230   25.2900   35.9980 O   0  0  0  0  0  0  0  0  0  0  0  0
   38.4800   24.8830   36.8180 C   0  0  2  0  0  3  0  0  0  0  0  0
   39.1640   23.7120   36.1420 C   0  0  0  0  0  3  0  0  0  0  0  0
   38.3680   23.1650   35.5710 H   0  0  0  0  0  0  0  0  0  0  0  0
   39.5820   22.8730   37.3040 C   0  0  0  0  0  3  0  0  0  0  0  0
   39.4010   21.7870   37.0550 H   0  0  0  0  0  0  0  0  0  0  0  0
   38.8950   23.2610   38.4310 O   0  0  0  0  0  0  0  0  0  0  0  0
   37.9440   24.1860   38.0710 C   0  0  0  0  0  3  0  0  0  0  0  0
   37.7240   24.9220   38.8840 H   0  0  0  0  0  0  0  0  0  0  0  0
  2  1  2  1  0  0  0
  2 15  1  0  0  0  0
  3  2  1  0  0  0  0
  4  3  1  0  0  0  0
  5  2  1  0  0  0  0
  6  5  1  0  0  0  0
  7  6  1  0  0  0  0
  7 12  1  0  0  0  0
  8  7  2  0  0  0  0
  9 10  2  0  0  0  0
  9  8  1  0  0  0  0
 10 11  1  0  0  0  0
 11  6  2  0  0  0  0
 13  8  1  0  0  0  0
 14 10  1  0  0  0  0
 16 15  1  6  0  0  0
 16 22  1  0  0  0  0
 17 16  1  0  0  0  0
 17 19  1  0  0  0  0
 18 17  1  0  0  0  0
 19 21  1  0  0  0  0
 20 19  1  0  0  0  0
 22 21  1  0  0  0  0
 22 23  1  0  0  0  0
M  END
>  <minimizedAffinity>
-4.17050314

$$$$

 OpenBabel03262521103D

 23 24  0  0  1  0  0  0  0  0999 V2000
   37.4450   27.6130   33.9520 O   0  0  0  0  0  0  0  0  0  0  0  0
   38.4210   26.7420   34.7180 P   0  0  1  0  0  0  0  0  0  0  0  0
   38.8970   27.4900   36.1790 O   0  0  0  0  0  0  0  0  0  0  0  0
   39.7440   27.0530   36.4390 H   0  0  0  0  0  0  0  0  0  0  0  0
   37.7560   25.2230   35.1600 O   0  0  0  0  0  0  0  0  0  0  0  0
   38.2640   24.4880   36.2220 C   0  0  0  0  0  0  0  0  0  0  0  0
   39.1730   23.4310   36.1260 C   0  0  0  0  0  0  0  0  0  0  0  0
   39.5840   22.7950   37.2960 C   0  0  0  0  0  0  0  0  0  0  0  0
   39.0910   23.2240   38.4830 N   0  0  0  0  0  0  0  0  0  0  0  0
   38.2020   24.2620   38.5450 C   0  0  0  0  0  0  0  0  0  0  0  0
   37.7900   24.8920   37.4260 N   0  0  0  0  0  0  0  0  0  0  0  0
   39.4970   23.1770   35.1320 H   0  0  0  0  0  0  0  0  0  0  0  0
   40.2870   21.9790   37.2040 H   0  0  0  0  0  0  0  0  0  0  0  0
   37.8150   24.5940   39.5070 H   0  0  0  0  0  0  0  0  0  0  0  0
   39.7590   26.5280   33.7120 O   0  0  0  0  0  0  0  0  0  0  0  0
   40.9490   26.8520   34.3680 C   0  0  2  0  0  3  0  0  0  0  0  0
   41.8910   27.4540   33.3450 C   0  0  0  0  0  3  0  0  0  0  0  0
   41.6520   26.9620   32.3640 H   0  0  0  0  0  0  0  0  0  0  0  0
   43.2240   26.9680   33.8120 C   0  0  0  0  0  3  0  0  0  0  0  0
   43.8380   26.6660   32.9150 H   0  0  0  0  0  0  0  0  0  0  0  0
   43.0560   25.9230   34.6920 O   0  0  0  0  0  0  0  0  0  0  0  0
   41.7250   25.5810   34.7230 C   0  0  0  0  0  3  0  0  0  0  0  0
   41.4040   25.1710   35.7120 H   0  0  0  0  0  0  0  0  0  0  0  0
  2  1  2  6  0  0  0
  2  5  1  0  0  0  0
  2  3  1  0  0  0  0
  3  4  1  0  0  0  0
  5  6  1  0  0  0  0
  6 11  1  0  0  0  0
  7  6  2  0  0  0  0
  7  8  1  0  0  0  0
  8  9  2  0  0  0  0
  9 10  1  0  0  0  0
 10 14  1  0  0  0  0
 11 10  2  0  0  0  0
 12  7  1  0  0  0  0
 13  8  1  0  0  0  0
 15  2  1  0  0  0  0
 16 15  1  6  0  0  0
 16 22  1  0  0  0  0
 17 19  1  0  0  0  0
 17 16  1  0  0  0  0
 18 17  1  0  0  0  0
 19 21  1  0  0  0  0
 20 19  1  0  0  0  0
 21 22  1  0  0  0  0
 22 23  1  0  0  0  0
M  END
>  <minimizedAffinity>
-4.09014702

$$$$

 OpenBabel03262521103D

 23 24  0  0  1  0  0  0  0  0999 V2000
   34.9690   25.4850   30.6240 O   0  0  0  0  0  0  0  0  0  0  0  0
   36.2860   25.6040   31.3640 P   0  0  1  0  0  0  0  0  0  0  0  0
   37.5650   25.9630   30.2890 O   0  0  0  0  0  0  0  0  0  0  0  0
   38.3920   25.6970   30.7600 H   0  0  0  0  0  0  0  0  0  0  0  0
   36.2850   26.8610   32.5320 O   0  0  0  0  0  0  0  0  0  0  0  0
   37.2780   26.9600   33.4960 C   0  0  0  0  0  0  0  0  0  0  0  0
   37.0760   27.1320   34.8680 C   0  0  0  0  0  0  0  0  0  0  0  0
   38.1890   27.2130   35.7020 C   0  0  0  0  0  0  0  0  0  0  0  0
   39.4250   27.1220   35.1560 N   0  0  0  0  0  0  0  0  0  0  0  0
   39.5930   26.9540   33.8080 C   0  0  0  0  0  0  0  0  0  0  0  0
   38.5300   26.8720   32.9820 N   0  0  0  0  0  0  0  0  0  0  0  0
   36.0510   27.1910   35.1880 H   0  0  0  0  0  0  0  0  0  0  0  0
   38.0150   27.3460   36.7610 H   0  0  0  0  0  0  0  0  0  0  0  0
   40.5930   26.8830   33.3850 H   0  0  0  0  0  0  0  0  0  0  0  0
   36.5520   24.1110   32.1050 O   0  0  0  0  0  0  0  0  0  0  0  0
   36.2470   23.0520   31.2470 C   0  0  2  0  0  3  0  0  0  0  0  0
   35.4030   22.0590   32.0210 C   0  0  0  0  0  3  0  0  0  0  0  0
   35.7390   22.1220   33.0900 H   0  0  0  0  0  0  0  0  0  0  0  0
   35.8490   20.7510   31.4550 C   0  0  0  0  0  3  0  0  0  0  0  0
   35.9420   20.0020   32.2930 H   0  0  0  0  0  0  0  0  0  0  0  0
   37.0380   20.9160   30.7820 O   0  0  0  0  0  0  0  0  0  0  0  0
   37.4900   22.1970   30.9920 C   0  0  0  0  0  3  0  0  0  0  0  0
   38.0880   22.5930   30.1340 H   0  0  0  0  0  0  0  0  0  0  0  0
  2  1  2  6  0  0  0
  2 15  1  0  0  0  0
  2  5  1  0  0  0  0
  3  4  1  0  0  0  0
  3  2  1  0  0  0  0
  5  6  1  0  0  0  0
  6  7  1  0  0  0  0
  7 12  1  0  0  0  0
  7  8  2  0  0  0  0
  8 13  1  0  0  0  0
  9  8  1  0  0  0  0
 10  9  2  0  0  0  0
 11  6  2  0  0  0  0
 11 10  1  0  0  0  0
 14 10  1  0  0  0  0
 16 17  1  0  0  0  0
 16 15  1  1  0  0  0
 17 18  1  0  0  0  0
 19 17  1  0  0  0  0
 19 20  1  0  0  0  0
 21 22  1  0  0  0  0
 21 19  1  0  0  0  0
 22 16  1  0  0  0  0
 23 22  1  0  0  0  0
M  END
>  <minimizedAffinity>
-4.06585932

$$$$

 OpenBabel03262521103D

 23 24  0  0  1  0  0  0  0  0999 V2000
   39.4640   21.8320   33.1690 O   0  0  0  0  0  0  0  0  0  0  0  0
   38.1960   22.5910   33.5060 P   0  0  1  0  0  0  0  0  0  0  0  0
   37.0960   21.6020   34.3610 O   0  0  0  0  0  0  0  0  0  0  0  0
   36.2110   22.0260   34.2480 H   0  0  0  0  0  0  0  0  0  0  0  0
   38.4800   23.9550   34.5070 O   0  0  0  0  0  0  0  0  0  0  0  0
   38.5420   23.8430   35.8890 C   0  0  0  0  0  0  0  0  0  0  0  0
   37.7340   24.5220   36.8050 C   0  0  0  0  0  0  0  0  0  0  0  0
   37.9280   24.2940   38.1650 C   0  0  0  0  0  0  0  0  0  0  0  0
   38.8910   23.4230   38.5530 N   0  0  0  0  0  0  0  0  0  0  0  0
   39.6670   22.7720   37.6330 C   0  0  0  0  0  0  0  0  0  0  0  0
   39.4960   22.9770   36.3110 N   0  0  0  0  0  0  0  0  0  0  0  0
   37.0030   25.1890   36.3820 H   0  0  0  0  0  0  0  0  0  0  0  0
   37.2940   24.8280   38.8600 H   0  0  0  0  0  0  0  0  0  0  0  0
   40.4370   22.0750   37.9610 H   0  0  0  0  0  0  0  0  0  0  0  0
   37.5230   23.0700   32.0340 O   0  0  0  0  0  0  0  0  0  0  0  0
   36.7450   24.2220   32.1780 C   0  0  2  0  0  3  0  0  0  0  0  0
   35.4380   23.9900   31.4470 C   0  0  0  0  0  3  0  0  0  0  0  0
   35.6730   23.3130   30.5830 H   0  0  0  0  0  0  0  0  0  0  0  0
   35.1220   25.3500   30.9170 C   0  0  0  0  0  3  0  0  0  0  0  0
   34.7220   25.2500   29.8670 H   0  0  0  0  0  0  0  0  0  0  0  0
   36.2480   26.1400   30.9610 O   0  0  0  0  0  0  0  0  0  0  0  0
   37.3190   25.3630   31.3340 C   0  0  0  0  0  3  0  0  0  0  0  0
   38.0970   25.9350   31.8970 H   0  0  0  0  0  0  0  0  0  0  0  0
  2  1  2  6  0  0  0
  2  3  1  0  0  0  0
  2  5  1  0  0  0  0
  4  3  1  0  0  0  0
  5  6  1  0  0  0  0
  6 11  2  0  0  0  0
  6  7  1  0  0  0  0
  7  8  2  0  0  0  0
  8  9  1  0  0  0  0
  8 13  1  0  0  0  0
 10 14  1  0  0  0  0
 10  9  2  0  0  0  0
 11 10  1  0  0  0  0
 12  7  1  0  0  0  0
 15  2  1  0  0  0  0
 16 15  1  6  0  0  0
 17 16  1  0  0  0  0
 18 17  1  0  0  0  0
 19 21  1  0  0  0  0
 19 17  1  0  0  0  0
 20 19  1  0  0  0  0
 21 22  1  0  0  0  0
 22 23  1  0  0  0  0
 22 16  1  0  0  0  0
M  END
>  <minimizedAffinity>
-3.99232745

$$$$

 OpenBabel03262521103D

 23 24  0  0  1  0  0  0  0  0999 V2000
   37.1800   23.0370   36.6820 O   0  0  0  0  0  0  0  0  0  0  0  0
   38.5370   22.8720   36.0260 P   0  0  1  0  0  0  0  0  0  0  0  0
   39.6630   22.1810   37.1090 O   0  0  0  0  0  0  0  0  0  0  0  0
   40.5540   22.4120   36.7510 H   0  0  0  0  0  0  0  0  0  0  0  0
   38.4970   21.8340   34.6610 O   0  0  0  0  0  0  0  0  0  0  0  0
   37.4050   21.8000   33.8040 C   0  0  0  0  0  0  0  0  0  0  0  0
   36.2900   20.9670   33.9300 C   0  0  0  0  0  0  0  0  0  0  0  0
   35.2760   21.0600   32.9780 C   0  0  0  0  0  0  0  0  0  0  0  0
   35.4060   21.9530   31.9670 N   0  0  0  0  0  0  0  0  0  0  0  0
   36.5100   22.7550   31.8700 C   0  0  0  0  0  0  0  0  0  0  0  0
   37.5030   22.6830   32.7800 N   0  0  0  0  0  0  0  0  0  0  0  0
   36.2950   20.2980   34.7720 H   0  0  0  0  0  0  0  0  0  0  0  0
   34.4210   20.4080   33.0900 H   0  0  0  0  0  0  0  0  0  0  0  0
   36.5990   23.4680   31.0520 H   0  0  0  0  0  0  0  0  0  0  0  0
   39.0380   24.4190   35.5750 O   0  0  0  0  0  0  0  0  0  0  0  0
   37.9930   25.3430   35.6660 C   0  0  2  0  0  3  0  0  0  0  0  0
   37.6330   25.7730   34.2580 C   0  0  0  0  0  3  0  0  0  0  0  0
   38.5820   25.7290   33.6600 H   0  0  0  0  0  0  0  0  0  0  0  0
   37.2540   27.2050   34.4490 C   0  0  0  0  0  3  0  0  0  0  0  0
   37.6710   27.8110   33.5940 H   0  0  0  0  0  0  0  0  0  0  0  0
   37.7170   27.6510   35.6650 O   0  0  0  0  0  0  0  0  0  0  0  0
   38.5040   26.6730   36.2240 C   0  0  0  0  0  3  0  0  0  0  0  0
   38.4810   26.6820   37.3420 H   0  0  0  0  0  0  0  0  0  0  0  0
  2  1  2  1  0  0  0
  2  3  1  0  0  0  0
  4  3  1  0  0  0  0
  5  2  1  0  0  0  0
  6  7  1  0  0  0  0
  6  5  1  0  0  0  0
  7 12  1  0  0  0  0
  8 13  1  0  0  0  0
  8  7  2  0  0  0  0
  9  8  1  0  0  0  0
 10  9  2  0  0  0  0
 10 11  1  0  0  0  0
 11  6  2  0  0  0  0
 14 10  1  0  0  0  0
 15  2  1  0  0  0  0
 16 15  1  6  0  0  0
 16 22  1  0  0  0  0
 17 19  1  0  0  0  0
 17 16  1  0  0  0  0
 18 17  1  0  0  0  0
 19 21  1  0  0  0  0
 20 19  1  0  0  0  0
 21 22  1  0  0  0  0
 22 23  1  0  0  0  0
M  END
>  <minimizedAffinity>
-3.96093607

$$$$

 OpenBabel03262521103D

 23 24  0  0  1  0  0  0  0  0999 V2000
   37.0640   27.9970   34.8980 O   0  0  0  0  0  0  0  0  0  0  0  0
   37.9730   26.7860   34.9720 P   0  0  1  0  0  0  0  0  0  0  0  0
   39.4640   27.1800   35.7080 O   0  0  0  0  0  0  0  0  0  0  0  0
   40.0960   26.4760   35.4240 H   0  0  0  0  0  0  0  0  0  0  0  0
   37.3100   25.5090   35.9060 O   0  0  0  0  0  0  0  0  0  0  0  0
   38.1180   24.6250   36.6080 C   0  0  0  0  0  0  0  0  0  0  0  0
   37.9640   24.2600   37.9480 C   0  0  0  0  0  0  0  0  0  0  0  0
   38.8670   23.3560   38.5030 C   0  0  0  0  0  0  0  0  0  0  0  0
   39.8610   22.8620   37.7250 N   0  0  0  0  0  0  0  0  0  0  0  0
   39.9870   23.2380   36.4150 C   0  0  0  0  0  0  0  0  0  0  0  0
   39.1240   24.1120   35.8580 N   0  0  0  0  0  0  0  0  0  0  0  0
   37.1390   24.7150   38.4680 H   0  0  0  0  0  0  0  0  0  0  0  0
   38.7340   23.0840   39.5410 H   0  0  0  0  0  0  0  0  0  0  0  0
   40.7910   22.8320   35.8040 H   0  0  0  0  0  0  0  0  0  0  0  0
   38.2250   26.2830   33.3810 O   0  0  0  0  0  0  0  0  0  0  0  0
   38.9940   27.2060   32.6680 C   0  0  2  0  0  3  0  0  0  0  0  0
   38.1660   27.6890   31.4950 C   0  0  0  0  0  3  0  0  0  0  0  0
   37.5060   26.8310   31.1960 H   0  0  0  0  0  0  0  0  0  0  0  0
   39.1990   27.8900   30.4350 C   0  0  0  0  0  3  0  0  0  0  0  0
   38.7900   27.5200   29.4510 H   0  0  0  0  0  0  0  0  0  0  0  0
   40.3580   27.2370   30.7850 O   0  0  0  0  0  0  0  0  0  0  0  0
   40.1220   26.4940   31.9180 C   0  0  0  0  0  3  0  0  0  0  0  0
   41.0300   26.3790   32.5590 H   0  0  0  0  0  0  0  0  0  0  0  0
  2  1  2  1  0  0  0
  2  3  1  0  0  0  0
  2  5  1  0  0  0  0
  4  3  1  0  0  0  0
  5  6  1  0  0  0  0
  6  7  1  0  0  0  0
  7 12  1  0  0  0  0
  7  8  2  0  0  0  0
  8 13  1  0  0  0  0
  9  8  1  0  0  0  0
 10  9  2  0  0  0  0
 11 10  1  0  0  0  0
 11  6  2  0  0  0  0
 14 10  1  0  0  0  0
 15  2  1  0  0  0  0
 16 15  1  1  0  0  0
 17 16  1  0  0  0  0
 18 17  1  0  0  0  0
 19 21  1  0  0  0  0
 19 17  1  0  0  0  0
 20 19  1  0  0  0  0
 21 22  1  0  0  0  0
 22 23  1  0  0  0  0
 22 16  1  0  0  0  0
M  END
>  <minimizedAffinity>
-3.91749501

$$$$
