
 OpenBabel03272500053D

 28 30  0  0  1  0  0  0  0  0999 V2000
   35.9630   29.0950   49.1920 C   0  0  0  0  0  0  0  0  0  0  0  0
   35.7690   30.3090   48.4930 C   0  0  0  0  0  0  0  0  0  0  0  0
   34.6430   30.4200   47.7060 C   0  0  0  0  0  0  0  0  0  0  0  0
   33.7750   29.3660   47.6360 N   0  0  0  0  0  0  0  0  0  0  0  0
   33.9790   28.2340   48.3040 C   0  0  0  0  0  0  0  0  0  0  0  0
   35.0770   28.0820   49.0910 N   0  0  0  0  0  0  0  0  0  0  0  0
   36.8390   28.9790   49.8170 H   0  0  0  0  0  0  0  0  0  0  0  0
   34.4850   31.3270   47.1740 H   0  0  0  0  0  0  0  0  0  0  0  0
   36.7510   31.3230   48.6550 N   0  0  0  0  0  0  0  0  0  0  0  0
   36.9100   32.0010   49.7910 C   0  0  0  0  0  0  0  0  0  0  0  0
   37.9070   32.9870   49.8630 C   0  0  0  0  0  0  0  0  0  0  0  0
   38.6420   33.1680   48.7280 C   0  0  0  0  0  0  0  0  0  0  0  0
   39.5370   34.0680   48.8210 O   0  0  0  0  0  0  0  0  0  0  0  0
   38.5010   32.5060   47.5870 N   0  0  0  0  0  0  0  0  0  0  0  0
   37.5300   31.5640   47.5570 C   0  0  0  0  0  0  0  0  0  0  0  0
   37.3970   30.9270   46.4550 O   0  0  0  0  0  0  0  0  0  0  0  0
   36.2910   31.7950   50.6340 H   0  0  0  0  0  0  0  0  0  0  0  0
   38.0470   33.5470   50.7840 H   0  0  0  0  0  0  0  0  0  0  0  0
   39.0910   32.6750   46.7280 H   0  0  0  0  0  0  0  0  0  0  0  0
   33.0910   27.1720   48.2270 O   0  0  0  0  0  0  0  0  0  0  0  0
   33.3970   25.9360   47.6170 C   0  0  2  0  0  0  0  0  0  0  0  0
   33.7500   26.1710   46.1840 C   0  0  0  0  0  0  0  0  0  0  0  0
   34.7140   25.6990   45.9000 H   0  0  0  0  0  0  0  0  0  0  0  0
   32.6720   25.3560   45.4610 C   0  0  0  0  0  0  0  0  0  0  0  0
   33.0590   24.8310   44.5850 H   0  0  0  0  0  0  0  0  0  0  0  0
   32.3100   24.3680   46.4020 O   0  0  0  0  0  0  0  0  0  0  0  0
   32.1280   25.1380   47.5410 C   0  0  0  0  0  0  0  0  0  0  0  0
   31.2650   25.8250   47.4330 H   0  0  0  0  0  0  0  0  0  0  0  0
  1  7  1  0  0  0  0
  2  9  1  0  0  0  0
  2  1  2  0  0  0  0
  3  2  1  0  0  0  0
  4  3  2  0  0  0  0
  4  5  1  0  0  0  0
  5  6  2  0  0  0  0
  6  1  1  0  0  0  0
  8  3  1  0  0  0  0
  9 10  1  0  0  0  0
 10 11  2  0  0  0  0
 10 17  1  0  0  0  0
 11 18  1  0  0  0  0
 12 13  2  0  0  0  0
 12 11  1  0  0  0  0
 14 12  1  0  0  0  0
 15 14  1  0  0  0  0
 15  9  1  0  0  0  0
 16 15  2  0  0  0  0
 19 14  1  0  0  0  0
 20  5  1  0  0  0  0
 21 20  1  1  0  0  0
 22 21  1  0  0  0  0
 23 22  1  0  0  0  0
 24 22  1  0  0  0  0
 24 26  1  0  0  0  0
 25 24  1  0  0  0  0
 26 27  1  0  0  0  0
 27 21  1  0  0  0  0
 28 27  1  0  0  0  0
M  END
>  <minimizedAffinity>
-4.96239042

>  <minimizedRMSD>
1.32952678

$$$$
