
 OpenBabel03272502303D

 23 24  0  0  1  0  0  0  0  0999 V2000
   39.5720   32.8020   46.6100 C   0  0  0  0  0  0  0  0  0  0  0  0
   39.6080   33.9080   46.6580 H   0  0  0  0  0  0  0  0  0  0  0  0
   40.6140   32.4020   46.5240 H   0  0  0  0  0  0  0  0  0  0  0  0
   38.3610   31.0360   47.8240 C   0  0  0  0  0  3  0  0  0  0  0  0
   38.8940   32.2310   47.8150 C   0  0  0  0  0  3  0  0  0  0  0  0
   37.4160   30.3090   51.3400 C   0  0  0  0  0  0  0  0  0  0  0  0
   38.1070   30.8760   50.2580 C   0  0  0  0  0  0  0  0  0  0  0  0
   37.7170   30.5110   48.9900 C   0  0  0  0  0  0  0  0  0  0  0  0
   36.6940   29.6300   48.8170 N   0  0  0  0  0  0  0  0  0  0  0  0
   36.0520   29.1070   49.8890 C   0  0  0  0  0  0  0  0  0  0  0  0
   36.4040   29.4370   51.1430 N   0  0  0  0  0  0  0  0  0  0  0  0
   37.7320   30.6040   52.3530 H   0  0  0  0  0  0  0  0  0  0  0  0
   38.9160   31.5730   50.4280 H   0  0  0  0  0  0  0  0  0  0  0  0
   35.2480   28.4140   49.6680 H   0  0  0  0  0  0  0  0  0  0  0  0
   38.6260   32.3900   45.1140 S   0  0  0  0  0  0  0  0  0  0  0  0
   39.7780   32.2690   43.7330 C   0  0  1  0  0  3  0  0  0  0  0  0
   40.0250   30.8160   43.3230 C   0  0  0  0  0  3  0  0  0  0  0  0
   39.0570   30.2800   43.3780 H   0  0  0  0  0  0  0  0  0  0  0  0
   40.3350   30.9940   41.8500 C   0  0  0  0  0  3  0  0  0  0  0  0
   41.3720   31.3890   41.7520 H   0  0  0  0  0  0  0  0  0  0  0  0
   39.3810   31.9230   41.4670 O   0  0  0  0  0  0  0  0  0  0  0  0
   39.2380   32.8530   42.4640 C   0  0  0  0  0  3  0  0  0  0  0  0
   38.1440   33.0100   42.6350 H   0  0  0  0  0  0  0  0  0  0  0  0
  1  2  1  0  0  0  0
  1  5  1  0  0  0  0
  3  1  1  0  0  0  0
  4  8  1  0  0  0  0
  5  4  2  0  0  0  0
  6 12  1  0  0  0  0
  7 13  1  0  0  0  0
  7  6  2  0  0  0  0
  8  7  1  0  0  0  0
  9  8  2  0  0  0  0
  9 10  1  0  0  0  0
 10 11  2  0  0  0  0
 11  6  1  0  0  0  0
 14 10  1  0  0  0  0
 15  1  1  0  0  0  0
 16 15  1  1  0  0  0
 17 18  1  0  0  0  0
 17 16  1  0  0  0  0
 19 17  1  0  0  0  0
 20 19  1  0  0  0  0
 21 19  1  0  0  0  0
 21 22  1  0  0  0  0
 22 23  1  0  0  0  0
 22 16  1  0  0  0  0
M  END
>  <minimizedAffinity>
-4.71694136

>  <minimizedRMSD>
1.0010289

$$$$
