
 OpenBabel03262520363D

 41 43  0  0  1  0  0  0  0  0999 V2000
   37.4460   25.3640   33.5190 C   0  0  0  0  0  0  0  0  0  0  0  0
   37.1500   26.7350   33.5210 C   0  0  0  0  0  0  0  0  0  0  0  0
   37.4980   27.5440   34.5830 C   0  0  0  0  0  0  0  0  0  0  0  0
   38.1480   26.9890   35.6560 C   0  0  0  0  0  0  0  0  0  0  0  0
   38.4390   25.6660   35.6610 C   0  0  0  0  0  0  0  0  0  0  0  0
   38.1150   24.8170   34.6310 C   0  0  0  0  0  0  0  0  0  0  0  0
   37.2340   28.5860   34.5070 H   0  0  0  0  0  0  0  0  0  0  0  0
   38.3850   27.6980   36.4470 H   0  0  0  0  0  0  0  0  0  0  0  0
   38.9540   25.3020   36.5450 H   0  0  0  0  0  0  0  0  0  0  0  0
   38.3550   23.7560   34.6500 H   0  0  0  0  0  0  0  0  0  0  0  0
   37.0410   24.2800   32.2080 S   0  0  0  0  0  0  0  0  0  0  0  0
   35.6580   24.5140   31.7290 O   0  0  0  0  0  0  0  0  0  0  0  0
   38.0590   24.4990   31.0840 O   0  0  0  0  0  0  0  0  0  0  0  0
   37.2140   22.5960   32.6870 C   0  0  1  0  0  3  0  0  0  0  0  0
   35.9210   21.8860   32.3440 C   0  0  0  0  0  3  0  0  0  0  0  0
   35.5820   21.1850   33.1070 H   0  0  0  0  0  0  0  0  0  0  0  0
   36.2690   21.2560   31.0160 C   0  0  0  0  0  3  0  0  0  0  0  0
   36.2360   22.0360   30.2270 H   0  0  0  0  0  0  0  0  0  0  0  0
   37.5690   20.8520   31.1840 O   0  0  0  0  0  0  0  0  0  0  0  0
   38.2450   21.8350   31.9070 C   0  0  0  0  0  3  0  0  0  0  0  0
   38.8850   21.2510   32.6330 H   0  0  0  0  0  0  0  0  0  0  0  0
   36.4990   27.1270   32.3760 O   0  0  0  0  0  0  0  0  0  0  0  0
   38.6370   27.9500   31.0670 O   0  0  0  0  0  0  0  0  0  0  0  0
   37.1160   28.0800   31.1290 P   0  0  1  0  0  0  0  0  0  0  0  0
   36.3990   27.6650   29.6450 O   0  0  0  0  0  0  0  0  0  0  0  0
   35.4340   27.5590   29.8410 H   0  0  0  0  0  0  0  0  0  0  0  0
   36.8270   29.7340   31.4170 O   0  0  0  0  0  0  0  0  0  0  0  0
   35.4350   29.9190   31.5240 C   0  0  0  0  0  0  0  0  0  0  0  0
   35.2190   30.7080   30.7450 H   0  0  0  0  0  0  0  0  0  0  0  0
   34.8910   28.9980   31.3300 H   0  0  0  0  0  0  0  0  0  0  0  0
   34.6950   29.8620   33.8660 C   0  0  0  0  0  3  0  0  0  0  0  0
   35.0560   30.5420   32.8170 C   0  0  0  0  0  3  0  0  0  0  0  0
   34.8380   32.0050   36.8390 C   0  0  0  0  0  0  0  0  0  0  0  0
   33.5320   31.9060   37.3350 C   0  0  0  0  0  0  0  0  0  0  0  0
   32.6210   31.0990   36.6360 C   0  0  0  0  0  0  0  0  0  0  0  0
   33.1100   30.4830   35.5210 N   0  0  0  0  0  0  0  0  0  0  0  0
   34.3460   30.5940   35.0760 C   0  0  0  0  0  0  0  0  0  0  0  0
   35.1940   31.3610   35.7520 N   0  0  0  0  0  0  0  0  0  0  0  0
   35.6010   32.6080   37.3240 H   0  0  0  0  0  0  0  0  0  0  0  0
   33.2710   32.4480   38.2330 H   0  0  0  0  0  0  0  0  0  0  0  0
   31.6250   31.0080   36.9920 H   0  0  0  0  0  0  0  0  0  0  0  0
  1  2  2  0  0  0  0
  1  6  1  0  0  0  0
  2  3  1  0  0  0  0
  3  4  2  0  0  0  0
  4  5  1  0  0  0  0
  4  8  1  0  0  0  0
  5  9  1  0  0  0  0
  6 10  1  0  0  0  0
  6  5  2  0  0  0  0
  7  3  1  0  0  0  0
 11  1  1  0  0  0  0
 12 11  2  0  0  0  0
 13 11  2  0  0  0  0
 14 11  1  6  0  0  0
 15 14  1  0  0  0  0
 15 16  1  0  0  0  0
 17 19  1  0  0  0  0
 17 15  1  0  0  0  0
 18 17  1  0  0  0  0
 19 20  1  0  0  0  0
 20 21  1  0  0  0  0
 20 14  1  0  0  0  0
 22  2  1  0  0  0  0
 24 23  2  6  0  0  0
 24 27  1  0  0  0  0
 24 22  1  0  0  0  0
 25 26  1  0  0  0  0
 25 24  1  0  0  0  0
 27 28  1  0  0  0  0
 28 32  1  0  0  0  0
 29 28  1  0  0  0  0
 30 28  1  0  0  0  0
 31 37  1  0  0  0  0
 32 31  2  0  0  0  0
 33 39  1  0  0  0  0
 33 34  1  0  0  0  0
 34 40  1  0  0  0  0
 35 41  1  0  0  0  0
 35 34  2  0  0  0  0
 36 35  1  0  0  0  0
 37 36  2  0  0  0  0
 37 38  1  0  0  0  0
 38 33  2  0  0  0  0
M  END
>  <minimizedAffinity>
-5.55807638

$$$$

 OpenBabel03262520363D

 41 43  0  0  1  0  0  0  0  0999 V2000
   37.6210   23.0320   33.1740 C   0  0  0  0  0  0  0  0  0  0  0  0
   37.4560   23.8030   32.0140 C   0  0  0  0  0  0  0  0  0  0  0  0
   36.5400   23.4530   31.0420 C   0  0  0  0  0  0  0  0  0  0  0  0
   35.7780   22.3270   31.2210 C   0  0  0  0  0  0  0  0  0  0  0  0
   35.9310   21.5770   32.3400 C   0  0  0  0  0  0  0  0  0  0  0  0
   36.8260   21.8800   33.3360 C   0  0  0  0  0  0  0  0  0  0  0  0
   36.4760   24.0980   30.1820 H   0  0  0  0  0  0  0  0  0  0  0  0
   35.0830   22.1260   30.4090 H   0  0  0  0  0  0  0  0  0  0  0  0
   35.2920   20.7020   32.4090 H   0  0  0  0  0  0  0  0  0  0  0  0
   36.9380   21.2670   34.2290 H   0  0  0  0  0  0  0  0  0  0  0  0
   38.7560   23.4150   34.4480 S   0  0  0  0  0  0  0  0  0  0  0  0
   40.1540   23.2990   33.9700 O   0  0  0  0  0  0  0  0  0  0  0  0
   38.4550   24.8360   34.9340 O   0  0  0  0  0  0  0  0  0  0  0  0
   38.5300   22.3730   35.8470 C   0  0  1  0  0  3  0  0  0  0  0  0
   39.9030   21.9820   36.3540 C   0  0  0  0  0  3  0  0  0  0  0  0
   39.9860   20.9370   36.6520 H   0  0  0  0  0  0  0  0  0  0  0  0
   40.1030   22.9760   37.4730 C   0  0  0  0  0  3  0  0  0  0  0  0
   40.3700   23.9620   37.0360 H   0  0  0  0  0  0  0  0  0  0  0  0
   38.8600   23.0690   38.0460 O   0  0  0  0  0  0  0  0  0  0  0  0
   37.9050   23.0530   37.0290 C   0  0  0  0  0  3  0  0  0  0  0  0
   37.0850   22.3880   37.4320 H   0  0  0  0  0  0  0  0  0  0  0  0
   38.2930   24.8920   31.9920 O   0  0  0  0  0  0  0  0  0  0  0  0
   38.9420   27.4350   32.2590 O   0  0  0  0  0  0  0  0  0  0  0  0
   37.8680   26.4990   31.7070 P   0  0  1  0  0  0  0  0  0  0  0  0
   37.6090   26.7670   30.0490 O   0  0  0  0  0  0  0  0  0  0  0  0
   37.0830   25.9870   29.7370 H   0  0  0  0  0  0  0  0  0  0  0  0
   36.4450   26.9170   32.5450 O   0  0  0  0  0  0  0  0  0  0  0  0
   35.8650   28.0200   31.8900 C   0  0  0  0  0  0  0  0  0  0  0  0
   36.7520   28.5410   31.4240 H   0  0  0  0  0  0  0  0  0  0  0  0
   35.1400   27.7080   31.1420 H   0  0  0  0  0  0  0  0  0  0  0  0
   35.7750   29.1930   34.0470 C   0  0  0  0  0  3  0  0  0  0  0  0
   35.3020   29.0030   32.8500 C   0  0  0  0  0  3  0  0  0  0  0  0
   33.2750   31.2160   35.8100 C   0  0  0  0  0  0  0  0  0  0  0  0
   34.0760   32.1170   36.5220 C   0  0  0  0  0  0  0  0  0  0  0  0
   35.4690   32.0130   36.3820 C   0  0  0  0  0  0  0  0  0  0  0  0
   35.9080   31.0240   35.5520 N   0  0  0  0  0  0  0  0  0  0  0  0
   35.1300   30.1880   34.8930 C   0  0  0  0  0  0  0  0  0  0  0  0
   33.8150   30.3030   35.0360 N   0  0  0  0  0  0  0  0  0  0  0  0
   32.1900   31.2330   35.8640 H   0  0  0  0  0  0  0  0  0  0  0  0
   33.6000   32.8570   37.1500 H   0  0  0  0  0  0  0  0  0  0  0  0
   36.0970   32.6850   36.9130 H   0  0  0  0  0  0  0  0  0  0  0  0
  1  6  1  0  0  0  0
  1 11  1  0  0  0  0
  2  1  2  0  0  0  0
  3  4  2  0  0  0  0
  3  2  1  0  0  0  0
  4  5  1  0  0  0  0
  5  9  1  0  0  0  0
  5  6  2  0  0  0  0
  6 10  1  0  0  0  0
  7  3  1  0  0  0  0
  8  4  1  0  0  0  0
 11 13  2  0  0  0  0
 12 11  2  0  0  0  0
 14 11  1  6  0  0  0
 14 15  1  0  0  0  0
 14 20  1  0  0  0  0
 15 16  1  0  0  0  0
 15 17  1  0  0  0  0
 17 19  1  0  0  0  0
 18 17  1  0  0  0  0
 20 21  1  0  0  0  0
 20 19  1  0  0  0  0
 22  2  1  0  0  0  0
 24 22  1  0  0  0  0
 24 23  2  1  0  0  0
 24 27  1  0  0  0  0
 25 24  1  0  0  0  0
 26 25  1  0  0  0  0
 28 27  1  0  0  0  0
 28 32  1  0  0  0  0
 29 28  1  0  0  0  0
 30 28  1  0  0  0  0
 31 37  1  0  0  0  0
 32 31  2  0  0  0  0
 33 39  1  0  0  0  0
 33 34  1  0  0  0  0
 34 40  1  0  0  0  0
 35 34  2  0  0  0  0
 35 41  1  0  0  0  0
 36 35  1  0  0  0  0
 37 38  1  0  0  0  0
 37 36  2  0  0  0  0
 38 33  2  0  0  0  0
M  END
>  <minimizedAffinity>
-5.42337322

$$$$

 OpenBabel03262520363D

 41 43  0  0  1  0  0  0  0  0999 V2000
   37.4530   23.0360   33.2260 C   0  0  0  0  0  0  0  0  0  0  0  0
   37.1650   23.8490   32.1210 C   0  0  0  0  0  0  0  0  0  0  0  0
   36.3290   23.4180   31.1100 C   0  0  0  0  0  0  0  0  0  0  0  0
   35.7710   22.1680   31.1960 C   0  0  0  0  0  0  0  0  0  0  0  0
   36.0440   21.3780   32.2620 C   0  0  0  0  0  0  0  0  0  0  0  0
   36.8670   21.7570   33.2940 C   0  0  0  0  0  0  0  0  0  0  0  0
   36.1600   24.1030   30.2960 H   0  0  0  0  0  0  0  0  0  0  0  0
   35.1260   21.9110   30.3590 H   0  0  0  0  0  0  0  0  0  0  0  0
   35.5650   20.4020   32.2590 H   0  0  0  0  0  0  0  0  0  0  0  0
   37.0780   21.1100   34.1440 H   0  0  0  0  0  0  0  0  0  0  0  0
   38.4970   23.5160   34.5450 S   0  0  0  0  0  0  0  0  0  0  0  0
   39.9160   23.5500   34.1170 O   0  0  0  0  0  0  0  0  0  0  0  0
   38.0340   24.8920   35.0350 O   0  0  0  0  0  0  0  0  0  0  0  0
   38.3310   22.4370   35.9240 C   0  0  1  0  0  3  0  0  0  0  0  0
   39.7240   22.0780   36.3960 C   0  0  0  0  0  3  0  0  0  0  0  0
   39.8460   21.0290   36.6690 H   0  0  0  0  0  0  0  0  0  0  0  0
   39.9150   23.0530   37.5340 C   0  0  0  0  0  3  0  0  0  0  0  0
   40.1430   24.0560   37.1150 H   0  0  0  0  0  0  0  0  0  0  0  0
   38.6810   23.0930   38.1320 O   0  0  0  0  0  0  0  0  0  0  0  0
   37.7080   23.0700   37.1330 C   0  0  0  0  0  3  0  0  0  0  0  0
   36.9160   22.3710   37.5360 H   0  0  0  0  0  0  0  0  0  0  0  0
   37.8020   25.0640   32.1900 O   0  0  0  0  0  0  0  0  0  0  0  0
   38.8010   26.3870   30.1370 O   0  0  0  0  0  0  0  0  0  0  0  0
   37.6370   26.3630   31.1270 P   0  0  1  0  0  0  0  0  0  0  0  0
   36.1430   26.2940   30.3210 O   0  0  0  0  0  0  0  0  0  0  0  0
   35.4800   26.0570   31.0180 H   0  0  0  0  0  0  0  0  0  0  0  0
   37.7310   27.8500   31.9530 O   0  0  0  0  0  0  0  0  0  0  0  0
   36.7420   28.7030   31.4250 C   0  0  0  0  0  0  0  0  0  0  0  0
   37.1680   29.7340   31.6020 H   0  0  0  0  0  0  0  0  0  0  0  0
   36.5690   28.5120   30.3690 H   0  0  0  0  0  0  0  0  0  0  0  0
   34.9850   29.6970   32.8250 C   0  0  0  0  0  3  0  0  0  0  0  0
   35.4910   28.6610   32.2220 C   0  0  0  0  0  3  0  0  0  0  0  0
   32.4940   29.6020   35.5160 C   0  0  0  0  0  0  0  0  0  0  0  0
   31.3560   29.1400   34.8450 C   0  0  0  0  0  0  0  0  0  0  0  0
   31.4650   28.8670   33.4720 C   0  0  0  0  0  0  0  0  0  0  0  0
   32.6930   29.0860   32.9220 N   0  0  0  0  0  0  0  0  0  0  0  0
   33.7500   29.5220   33.5770 C   0  0  0  0  0  0  0  0  0  0  0  0
   33.6280   29.7740   34.8750 N   0  0  0  0  0  0  0  0  0  0  0  0
   32.4910   29.8340   36.5770 H   0  0  0  0  0  0  0  0  0  0  0  0
   30.4380   29.0090   35.4010 H   0  0  0  0  0  0  0  0  0  0  0  0
   30.6150   28.5160   32.9420 H   0  0  0  0  0  0  0  0  0  0  0  0
  1  6  1  0  0  0  0
  1 11  1  0  0  0  0
  2 22  1  0  0  0  0
  2  1  2  0  0  0  0
  3  4  2  0  0  0  0
  3  2  1  0  0  0  0
  4  5  1  0  0  0  0
  5  6  2  0  0  0  0
  6 10  1  0  0  0  0
  7  3  1  0  0  0  0
  8  4  1  0  0  0  0
  9  5  1  0  0  0  0
 11 13  2  0  0  0  0
 12 11  2  0  0  0  0
 14 11  1  6  0  0  0
 14 15  1  0  0  0  0
 14 20  1  0  0  0  0
 15 16  1  0  0  0  0
 15 17  1  0  0  0  0
 17 19  1  0  0  0  0
 18 17  1  0  0  0  0
 20 21  1  0  0  0  0
 20 19  1  0  0  0  0
 24 23  2  6  0  0  0
 24 27  1  0  0  0  0
 24 22  1  0  0  0  0
 25 26  1  0  0  0  0
 25 24  1  0  0  0  0
 28 29  1  0  0  0  0
 28 27  1  0  0  0  0
 28 32  1  0  0  0  0
 30 28  1  0  0  0  0
 31 37  1  0  0  0  0
 32 31  2  0  0  0  0
 33 39  1  0  0  0  0
 34 40  1  0  0  0  0
 34 33  2  0  0  0  0
 35 34  1  0  0  0  0
 36 35  2  0  0  0  0
 36 37  1  0  0  0  0
 37 38  2  0  0  0  0
 38 33  1  0  0  0  0
 41 35  1  0  0  0  0
M  END
>  <minimizedAffinity>
-5.3568244

$$$$

 OpenBabel03262520363D

 41 43  0  0  1  0  0  0  0  0999 V2000
   36.0110   30.7680   32.0860 C   0  0  0  0  0  0  0  0  0  0  0  0
   36.2670   29.8060   31.1000 C   0  0  0  0  0  0  0  0  0  0  0  0
   36.9480   30.1250   29.9430 C   0  0  0  0  0  0  0  0  0  0  0  0
   37.3810   31.4130   29.7600 C   0  0  0  0  0  0  0  0  0  0  0  0
   37.1390   32.3490   30.7090 C   0  0  0  0  0  0  0  0  0  0  0  0
   36.4670   32.0850   31.8770 C   0  0  0  0  0  0  0  0  0  0  0  0
   37.1030   29.3270   29.2350 H   0  0  0  0  0  0  0  0  0  0  0  0
   37.9090   31.5770   28.8230 H   0  0  0  0  0  0  0  0  0  0  0  0
   37.5130   33.3460   30.4930 H   0  0  0  0  0  0  0  0  0  0  0  0
   36.2780   32.8490   32.6310 H   0  0  0  0  0  0  0  0  0  0  0  0
   35.1600   30.4370   33.5780 S   0  0  0  0  0  0  0  0  0  0  0  0
   33.7820   29.9600   33.3110 O   0  0  0  0  0  0  0  0  0  0  0  0
   35.9650   29.3910   34.3560 O   0  0  0  0  0  0  0  0  0  0  0  0
   35.0940   31.8580   34.6120 C   0  0  1  0  0  3  0  0  0  0  0  0
   33.6750   31.9880   35.1230 C   0  0  0  0  0  3  0  0  0  0  0  0
   33.2970   33.0110   35.1330 H   0  0  0  0  0  0  0  0  0  0  0  0
   33.7860   31.3430   36.4840 C   0  0  0  0  0  3  0  0  0  0  0  0
   33.8080   30.2400   36.3600 H   0  0  0  0  0  0  0  0  0  0  0  0
   35.0100   31.7620   36.9390 O   0  0  0  0  0  0  0  0  0  0  0  0
   35.9060   31.7440   35.8690 C   0  0  0  0  0  3  0  0  0  0  0  0
   36.5040   32.6940   35.9960 H   0  0  0  0  0  0  0  0  0  0  0  0
   35.7670   28.5710   31.4380 O   0  0  0  0  0  0  0  0  0  0  0  0
   35.6240   25.9500   31.7020 O   0  0  0  0  0  0  0  0  0  0  0  0
   36.5930   27.1010   31.4350 P   0  0  1  0  0  0  0  0  0  0  0  0
   37.4220   26.8820   29.9680 O   0  0  0  0  0  0  0  0  0  0  0  0
   37.8420   27.7570   29.7700 H   0  0  0  0  0  0  0  0  0  0  0  0
   37.7260   27.0280   32.7050 O   0  0  0  0  0  0  0  0  0  0  0  0
   38.5200   25.8810   32.5120 C   0  0  0  0  0  0  0  0  0  0  0  0
   37.8370   25.1860   31.9410 H   0  0  0  0  0  0  0  0  0  0  0  0
   39.4250   26.1070   31.9550 H   0  0  0  0  0  0  0  0  0  0  0  0
   38.0200   25.2360   34.8300 C   0  0  0  0  0  3  0  0  0  0  0  0
   38.8000   25.1800   33.7910 C   0  0  0  0  0  3  0  0  0  0  0  0
   38.1520   23.8890   38.2390 C   0  0  0  0  0  0  0  0  0  0  0  0
   39.2760   23.0560   38.1820 C   0  0  0  0  0  0  0  0  0  0  0  0
   39.9730   22.9730   36.9660 C   0  0  0  0  0  0  0  0  0  0  0  0
   39.4730   23.7250   35.9440 N   0  0  0  0  0  0  0  0  0  0  0  0
   38.4110   24.5020   36.0260 C   0  0  0  0  0  0  0  0  0  0  0  0
   37.7660   24.5690   37.1840 N   0  0  0  0  0  0  0  0  0  0  0  0
   37.5610   24.0080   39.1430 H   0  0  0  0  0  0  0  0  0  0  0  0
   39.5680   22.5100   39.0680 H   0  0  0  0  0  0  0  0  0  0  0  0
   40.8280   22.3470   36.8980 H   0  0  0  0  0  0  0  0  0  0  0  0
  1 11  1  0  0  0  0
  2 22  1  0  0  0  0
  2  1  2  0  0  0  0
  3  2  1  0  0  0  0
  4  3  2  0  0  0  0
  4  5  1  0  0  0  0
  5  6  2  0  0  0  0
  6  1  1  0  0  0  0
  6 10  1  0  0  0  0
  7  3  1  0  0  0  0
  8  4  1  0  0  0  0
  9  5  1  0  0  0  0
 11 13  2  0  0  0  0
 12 11  2  0  0  0  0
 14 11  1  6  0  0  0
 14 15  1  0  0  0  0
 14 20  1  0  0  0  0
 15 16  1  0  0  0  0
 15 17  1  0  0  0  0
 17 19  1  0  0  0  0
 18 17  1  0  0  0  0
 20 21  1  0  0  0  0
 20 19  1  0  0  0  0
 24 22  1  0  0  0  0
 24 23  2  1  0  0  0
 24 27  1  0  0  0  0
 25 24  1  0  0  0  0
 26 25  1  0  0  0  0
 28 27  1  0  0  0  0
 28 32  1  0  0  0  0
 29 28  1  0  0  0  0
 30 28  1  0  0  0  0
 31 37  1  0  0  0  0
 32 31  2  0  0  0  0
 33 39  1  0  0  0  0
 34 33  1  0  0  0  0
 34 40  1  0  0  0  0
 35 34  2  0  0  0  0
 36 37  2  0  0  0  0
 36 35  1  0  0  0  0
 37 38  1  0  0  0  0
 38 33  2  0  0  0  0
 41 35  1  0  0  0  0
M  END
>  <minimizedAffinity>
-5.30647516

$$$$

 OpenBabel03262520363D

 41 43  0  0  1  0  0  0  0  0999 V2000
   39.8950   23.1870   36.2010 C   0  0  0  0  0  0  0  0  0  0  0  0
   38.9970   24.1650   35.7490 C   0  0  0  0  0  0  0  0  0  0  0  0
   38.0580   24.7240   36.5920 C   0  0  0  0  0  0  0  0  0  0  0  0
   38.0080   24.3100   37.8990 C   0  0  0  0  0  0  0  0  0  0  0  0
   38.8730   23.3670   38.3430 C   0  0  0  0  0  0  0  0  0  0  0  0
   39.8250   22.7790   37.5480 C   0  0  0  0  0  0  0  0  0  0  0  0
   37.4060   25.4680   36.1660 H   0  0  0  0  0  0  0  0  0  0  0  0
   37.2400   24.8030   38.4910 H   0  0  0  0  0  0  0  0  0  0  0  0
   38.7710   23.0920   39.3900 H   0  0  0  0  0  0  0  0  0  0  0  0
   40.5130   22.0210   37.9200 H   0  0  0  0  0  0  0  0  0  0  0  0
   41.1130   22.4380   35.1940 S   0  0  0  0  0  0  0  0  0  0  0  0
   41.8520   21.3920   35.9380 O   0  0  0  0  0  0  0  0  0  0  0  0
   40.4110   21.8510   33.9650 O   0  0  0  0  0  0  0  0  0  0  0  0
   42.2520   23.6250   34.5710 C   0  0  1  0  0  3  0  0  0  0  0  0
   42.5270   24.6220   35.6770 C   0  0  0  0  0  3  0  0  0  0  0  0
   42.5700   25.6580   35.3420 H   0  0  0  0  0  0  0  0  0  0  0  0
   43.8200   24.0870   36.2470 C   0  0  0  0  0  3  0  0  0  0  0  0
   43.5960   23.2040   36.8820 H   0  0  0  0  0  0  0  0  0  0  0  0
   44.5110   23.6710   35.1380 O   0  0  0  0  0  0  0  0  0  0  0  0
   43.6110   23.0710   34.2580 C   0  0  0  0  0  3  0  0  0  0  0  0
   43.9270   23.4490   33.2410 H   0  0  0  0  0  0  0  0  0  0  0  0
   39.1810   24.4630   34.4200 O   0  0  0  0  0  0  0  0  0  0  0  0
   39.0350   27.0970   34.4650 O   0  0  0  0  0  0  0  0  0  0  0  0
   38.7090   25.8690   33.6160 P   0  0  1  0  0  0  0  0  0  0  0  0
   39.4460   25.9620   32.0880 O   0  0  0  0  0  0  0  0  0  0  0  0
   39.3730   25.0500   31.7060 H   0  0  0  0  0  0  0  0  0  0  0  0
   37.0210   25.9170   33.4000 O   0  0  0  0  0  0  0  0  0  0  0  0
   36.7390   25.4920   32.0880 C   0  0  0  0  0  0  0  0  0  0  0  0
   35.6730   25.8300   31.9290 H   0  0  0  0  0  0  0  0  0  0  0  0
   37.4180   25.9390   31.3660 H   0  0  0  0  0  0  0  0  0  0  0  0
   35.6610   23.3530   31.5390 C   0  0  0  0  0  3  0  0  0  0  0  0
   36.6920   24.0120   31.9820 C   0  0  0  0  0  3  0  0  0  0  0  0
   36.6540   19.9170   30.7230 C   0  0  0  0  0  0  0  0  0  0  0  0
   35.7660   19.1630   31.5000 C   0  0  0  0  0  0  0  0  0  0  0  0
   34.8360   19.8530   32.2930 C   0  0  0  0  0  0  0  0  0  0  0  0
   34.8950   21.2140   32.2270 N   0  0  0  0  0  0  0  0  0  0  0  0
   35.7430   21.9000   31.4860 C   0  0  0  0  0  0  0  0  0  0  0  0
   36.6140   21.2300   30.7410 N   0  0  0  0  0  0  0  0  0  0  0  0
   37.4020   19.4580   30.0830 H   0  0  0  0  0  0  0  0  0  0  0  0
   35.8240   18.0850   31.4620 H   0  0  0  0  0  0  0  0  0  0  0  0
   34.1520   19.3030   32.8910 H   0  0  0  0  0  0  0  0  0  0  0  0
  1  6  1  0  0  0  0
  2  1  2  0  0  0  0
  2  3  1  0  0  0  0
  3  4  2  0  0  0  0
  4  5  1  0  0  0  0
  4  8  1  0  0  0  0
  5  9  1  0  0  0  0
  6 10  1  0  0  0  0
  6  5  2  0  0  0  0
  7  3  1  0  0  0  0
 11 12  2  0  0  0  0
 11  1  1  0  0  0  0
 13 11  2  0  0  0  0
 14 11  1  1  0  0  0
 14 15  1  0  0  0  0
 15 17  1  0  0  0  0
 16 15  1  0  0  0  0
 17 18  1  0  0  0  0
 19 17  1  0  0  0  0
 20 14  1  0  0  0  0
 20 19  1  0  0  0  0
 21 20  1  0  0  0  0
 22  2  1  0  0  0  0
 24 22  1  0  0  0  0
 24 23  2  1  0  0  0
 25 24  1  0  0  0  0
 26 25  1  0  0  0  0
 27 24  1  0  0  0  0
 28 27  1  0  0  0  0
 29 28  1  0  0  0  0
 30 28  1  0  0  0  0
 31 32  2  0  0  0  0
 32 28  1  0  0  0  0
 33 38  2  0  0  0  0
 33 34  1  0  0  0  0
 34 35  2  0  0  0  0
 35 41  1  0  0  0  0
 36 35  1  0  0  0  0
 37 31  1  0  0  0  0
 37 36  2  0  0  0  0
 38 37  1  0  0  0  0
 39 33  1  0  0  0  0
 40 34  1  0  0  0  0
M  END
>  <minimizedAffinity>
-5.27737522

$$$$

 OpenBabel03262520363D

 41 43  0  0  1  0  0  0  0  0999 V2000
   37.4820   23.6160   32.9360 C   0  0  0  0  0  0  0  0  0  0  0  0
   36.5870   24.3350   32.1310 C   0  0  0  0  0  0  0  0  0  0  0  0
   35.7250   23.6950   31.2650 C   0  0  0  0  0  0  0  0  0  0  0  0
   35.7490   22.3250   31.1950 C   0  0  0  0  0  0  0  0  0  0  0  0
   36.6090   21.6230   31.9700 C   0  0  0  0  0  0  0  0  0  0  0  0
   37.4870   22.2100   32.8480 C   0  0  0  0  0  0  0  0  0  0  0  0
   35.0700   24.3210   30.6810 H   0  0  0  0  0  0  0  0  0  0  0  0
   35.0370   21.9040   30.4880 H   0  0  0  0  0  0  0  0  0  0  0  0
   36.5690   20.5430   31.8590 H   0  0  0  0  0  0  0  0  0  0  0  0
   38.1740   21.6320   33.4650 H   0  0  0  0  0  0  0  0  0  0  0  0
   38.5990   24.3580   34.0600 S   0  0  0  0  0  0  0  0  0  0  0  0
   37.9010   25.3120   34.9540 O   0  0  0  0  0  0  0  0  0  0  0  0
   39.2720   23.2390   34.8620 O   0  0  0  0  0  0  0  0  0  0  0  0
   39.8990   25.1920   33.2190 C   0  0  1  0  0  3  0  0  0  0  0  0
   39.9550   26.6090   33.7520 C   0  0  0  0  0  3  0  0  0  0  0  0
   40.1170   27.3670   32.9860 H   0  0  0  0  0  0  0  0  0  0  0  0
   41.0600   26.4990   34.7770 C   0  0  0  0  0  3  0  0  0  0  0  0
   40.6600   26.0040   35.6860 H   0  0  0  0  0  0  0  0  0  0  0  0
   41.9690   25.6630   34.1800 O   0  0  0  0  0  0  0  0  0  0  0  0
   41.2690   24.6560   33.5140 C   0  0  0  0  0  3  0  0  0  0  0  0
   41.8250   24.5350   32.5380 H   0  0  0  0  0  0  0  0  0  0  0  0
   36.6930   25.6920   32.3230 O   0  0  0  0  0  0  0  0  0  0  0  0
   38.3850   26.6220   30.5250 O   0  0  0  0  0  0  0  0  0  0  0  0
   37.0130   26.8640   31.1540 P   0  0  1  0  0  0  0  0  0  0  0  0
   35.7890   26.8870   29.9750 O   0  0  0  0  0  0  0  0  0  0  0  0
   34.9390   26.8200   30.4790 H   0  0  0  0  0  0  0  0  0  0  0  0
   37.1140   28.4160   31.8490 O   0  0  0  0  0  0  0  0  0  0  0  0
   35.9470   29.1240   31.5020 C   0  0  0  0  0  0  0  0  0  0  0  0
   36.3350   29.9550   30.8430 H   0  0  0  0  0  0  0  0  0  0  0  0
   35.2340   28.4910   30.9800 H   0  0  0  0  0  0  0  0  0  0  0  0
   35.8460   29.7580   33.8740 C   0  0  0  0  0  3  0  0  0  0  0  0
   35.3470   29.8100   32.6730 C   0  0  0  0  0  3  0  0  0  0  0  0
   35.1010   31.9350   36.7300 C   0  0  0  0  0  0  0  0  0  0  0  0
   33.7210   31.7520   36.8860 C   0  0  0  0  0  0  0  0  0  0  0  0
   33.0690   30.8780   36.0020 C   0  0  0  0  0  0  0  0  0  0  0  0
   33.8600   30.2870   35.0630 N   0  0  0  0  0  0  0  0  0  0  0  0
   35.1580   30.4770   34.9380 C   0  0  0  0  0  0  0  0  0  0  0  0
   35.7590   31.3060   35.7840 N   0  0  0  0  0  0  0  0  0  0  0  0
   35.6770   32.5930   37.3740 H   0  0  0  0  0  0  0  0  0  0  0  0
   33.2090   32.2850   37.6750 H   0  0  0  0  0  0  0  0  0  0  0  0
   32.0220   30.7240   36.1010 H   0  0  0  0  0  0  0  0  0  0  0  0
  1 11  1  0  0  0  0
  2 22  1  0  0  0  0
  2  1  2  0  0  0  0
  3  2  1  0  0  0  0
  4  3  2  0  0  0  0
  4  5  1  0  0  0  0
  5  6  2  0  0  0  0
  6  1  1  0  0  0  0
  6 10  1  0  0  0  0
  7  3  1  0  0  0  0
  8  4  1  0  0  0  0
  9  5  1  0  0  0  0
 11 13  2  0  0  0  0
 11 12  2  0  0  0  0
 14 20  1  0  0  0  0
 14 15  1  0  0  0  0
 14 11  1  1  0  0  0
 15 17  1  0  0  0  0
 16 15  1  0  0  0  0
 17 18  1  0  0  0  0
 19 17  1  0  0  0  0
 20 19  1  0  0  0  0
 21 20  1  0  0  0  0
 24 23  2  6  0  0  0
 24 27  1  0  0  0  0
 24 22  1  0  0  0  0
 25 26  1  0  0  0  0
 25 24  1  0  0  0  0
 28 27  1  0  0  0  0
 28 32  1  0  0  0  0
 29 28  1  0  0  0  0
 30 28  1  0  0  0  0
 31 37  1  0  0  0  0
 32 31  2  0  0  0  0
 33 34  1  0  0  0  0
 33 39  1  0  0  0  0
 34 40  1  0  0  0  0
 35 41  1  0  0  0  0
 35 34  2  0  0  0  0
 36 35  1  0  0  0  0
 37 36  2  0  0  0  0
 37 38  1  0  0  0  0
 38 33  2  0  0  0  0
M  END
>  <minimizedAffinity>
-5.19491577

$$$$

 OpenBabel03262520363D

 41 43  0  0  1  0  0  0  0  0999 V2000
   39.9360   23.3670   36.5210 C   0  0  0  0  0  0  0  0  0  0  0  0
   38.8500   24.0890   36.0060 C   0  0  0  0  0  0  0  0  0  0  0  0
   37.7660   24.4170   36.7940 C   0  0  0  0  0  0  0  0  0  0  0  0
   37.7580   24.0270   38.1090 C   0  0  0  0  0  0  0  0  0  0  0  0
   38.8040   23.3310   38.6140 C   0  0  0  0  0  0  0  0  0  0  0  0
   39.9060   22.9780   37.8750 C   0  0  0  0  0  0  0  0  0  0  0  0
   36.9730   24.9730   36.3210 H   0  0  0  0  0  0  0  0  0  0  0  0
   36.8680   24.3290   38.6570 H   0  0  0  0  0  0  0  0  0  0  0  0
   38.7250   23.0580   39.6630 H   0  0  0  0  0  0  0  0  0  0  0  0
   40.7390   22.4170   38.2950 H   0  0  0  0  0  0  0  0  0  0  0  0
   41.3440   22.9190   35.5840 S   0  0  0  0  0  0  0  0  0  0  0  0
   41.0030   21.9020   34.5610 O   0  0  0  0  0  0  0  0  0  0  0  0
   41.9010   24.1900   34.9350 O   0  0  0  0  0  0  0  0  0  0  0  0
   42.6320   22.3030   36.6110 C   0  0  1  0  0  3  0  0  0  0  0  0
   42.6700   20.7980   36.4460 C   0  0  0  0  0  3  0  0  0  0  0  0
   42.8210   20.2520   37.3780 H   0  0  0  0  0  0  0  0  0  0  0  0
   43.7780   20.6360   35.4320 C   0  0  0  0  0  3  0  0  0  0  0  0
   43.3860   20.8960   34.4260 H   0  0  0  0  0  0  0  0  0  0  0  0
   44.6960   21.5830   35.8060 O   0  0  0  0  0  0  0  0  0  0  0  0
   44.0090   22.7320   36.1980 C   0  0  0  0  0  3  0  0  0  0  0  0
   44.5650   23.0850   37.1170 H   0  0  0  0  0  0  0  0  0  0  0  0
   39.0170   24.3990   34.6770 O   0  0  0  0  0  0  0  0  0  0  0  0
   39.3270   27.0180   34.7680 O   0  0  0  0  0  0  0  0  0  0  0  0
   38.7290   25.8860   33.9340 P   0  0  1  0  0  0  0  0  0  0  0  0
   39.3440   25.8940   32.3500 O   0  0  0  0  0  0  0  0  0  0  0  0
   39.0860   25.0190   31.9640 H   0  0  0  0  0  0  0  0  0  0  0  0
   37.0610   26.2250   33.8620 O   0  0  0  0  0  0  0  0  0  0  0  0
   36.8420   27.0930   32.7750 C   0  0  0  0  0  0  0  0  0  0  0  0
   37.8650   27.1850   32.3070 H   0  0  0  0  0  0  0  0  0  0  0  0
   36.1120   26.6880   32.0790 H   0  0  0  0  0  0  0  0  0  0  0  0
   35.6750   28.7230   34.1960 C   0  0  0  0  0  3  0  0  0  0  0  0
   36.4990   28.4670   33.2230 C   0  0  0  0  0  3  0  0  0  0  0  0
   34.3320   32.1360   34.2620 C   0  0  0  0  0  0  0  0  0  0  0  0
   35.0710   32.7210   35.2980 C   0  0  0  0  0  0  0  0  0  0  0  0
   36.0220   31.9280   35.9580 C   0  0  0  0  0  0  0  0  0  0  0  0
   36.1320   30.6430   35.5160 N   0  0  0  0  0  0  0  0  0  0  0  0
   35.4230   30.1160   34.5370 C   0  0  0  0  0  0  0  0  0  0  0  0
   34.5280   30.8820   33.9230 N   0  0  0  0  0  0  0  0  0  0  0  0
   33.5790   32.6830   33.7020 H   0  0  0  0  0  0  0  0  0  0  0  0
   34.8860   33.7550   35.5520 H   0  0  0  0  0  0  0  0  0  0  0  0
   36.5940   32.3500   36.7470 H   0  0  0  0  0  0  0  0  0  0  0  0
  1  6  1  0  0  0  0
  2  1  2  0  0  0  0
  2  3  1  0  0  0  0
  3  4  2  0  0  0  0
  4  5  1  0  0  0  0
  4  8  1  0  0  0  0
  5  9  1  0  0  0  0
  6 10  1  0  0  0  0
  6  5  2  0  0  0  0
  7  3  1  0  0  0  0
 11  1  1  0  0  0  0
 12 11  2  0  0  0  0
 13 11  2  0  0  0  0
 14 11  1  6  0  0  0
 15 14  1  0  0  0  0
 15 16  1  0  0  0  0
 17 19  1  0  0  0  0
 17 15  1  0  0  0  0
 18 17  1  0  0  0  0
 19 20  1  0  0  0  0
 20 14  1  0  0  0  0
 20 21  1  0  0  0  0
 22  2  1  0  0  0  0
 24 22  1  0  0  0  0
 24 23  2  1  0  0  0
 25 24  1  0  0  0  0
 26 25  1  0  0  0  0
 27 24  1  0  0  0  0
 28 32  1  0  0  0  0
 28 27  1  0  0  0  0
 29 28  1  0  0  0  0
 30 28  1  0  0  0  0
 31 37  1  0  0  0  0
 32 31  2  0  0  0  0
 33 34  1  0  0  0  0
 34 40  1  0  0  0  0
 34 35  2  0  0  0  0
 35 41  1  0  0  0  0
 36 35  1  0  0  0  0
 37 36  2  0  0  0  0
 38 33  2  0  0  0  0
 38 37  1  0  0  0  0
 39 33  1  0  0  0  0
M  END
>  <minimizedAffinity>
-5.16713619

$$$$

 OpenBabel03262520363D

 41 43  0  0  1  0  0  0  0  0999 V2000
   37.3550   21.6340   33.2420 C   0  0  0  0  0  0  0  0  0  0  0  0
   37.7150   22.0060   34.5450 C   0  0  0  0  0  0  0  0  0  0  0  0
   36.9650   21.6200   35.6370 C   0  0  0  0  0  0  0  0  0  0  0  0
   35.8440   20.8550   35.4370 C   0  0  0  0  0  0  0  0  0  0  0  0
   35.4900   20.4900   34.1810 C   0  0  0  0  0  0  0  0  0  0  0  0
   36.2000   20.8470   33.0610 C   0  0  0  0  0  0  0  0  0  0  0  0
   37.3100   21.9480   36.6030 H   0  0  0  0  0  0  0  0  0  0  0  0
   35.3140   20.5960   36.3500 H   0  0  0  0  0  0  0  0  0  0  0  0
   34.5910   19.8850   34.1030 H   0  0  0  0  0  0  0  0  0  0  0  0
   35.9020   20.5470   32.0580 H   0  0  0  0  0  0  0  0  0  0  0  0
   38.2580   22.0810   31.8130 S   0  0  0  0  0  0  0  0  0  0  0  0
   39.6750   22.3650   32.1440 O   0  0  0  0  0  0  0  0  0  0  0  0
   38.1450   20.9320   30.8060 O   0  0  0  0  0  0  0  0  0  0  0  0
   37.5540   23.4830   31.0180 C   0  0  1  0  0  3  0  0  0  0  0  0
   37.2180   24.4980   32.0910 C   0  0  0  0  0  3  0  0  0  0  0  0
   36.2590   24.9960   31.9480 H   0  0  0  0  0  0  0  0  0  0  0  0
   38.4200   25.4110   32.0270 C   0  0  0  0  0  3  0  0  0  0  0  0
   39.2740   24.9180   32.5370 H   0  0  0  0  0  0  0  0  0  0  0  0
   38.6920   25.4890   30.6850 O   0  0  0  0  0  0  0  0  0  0  0  0
   38.5020   24.2270   30.1230 C   0  0  0  0  0  3  0  0  0  0  0  0
   37.9790   24.4370   29.1440 H   0  0  0  0  0  0  0  0  0  0  0  0
   38.8580   22.7680   34.5690 O   0  0  0  0  0  0  0  0  0  0  0  0
   39.4920   23.4640   37.0330 O   0  0  0  0  0  0  0  0  0  0  0  0
   39.2260   24.0210   35.6360 P   0  0  1  0  0  0  0  0  0  0  0  0
   40.5490   24.9240   35.0690 O   0  0  0  0  0  0  0  0  0  0  0  0
   40.3860   25.0480   34.0990 H   0  0  0  0  0  0  0  0  0  0  0  0
   37.9020   25.0760   35.8270 O   0  0  0  0  0  0  0  0  0  0  0  0
   38.4010   26.3310   36.2240 C   0  0  0  0  0  0  0  0  0  0  0  0
   37.9310   26.4870   37.2390 H   0  0  0  0  0  0  0  0  0  0  0  0
   39.4860   26.3350   36.2750 H   0  0  0  0  0  0  0  0  0  0  0  0
   36.7680   27.3440   34.6920 C   0  0  0  0  0  3  0  0  0  0  0  0
   37.8680   27.4310   35.3810 C   0  0  0  0  0  3  0  0  0  0  0  0
   35.3760   30.5760   33.6580 C   0  0  0  0  0  0  0  0  0  0  0  0
   35.6440   30.5850   32.2840 C   0  0  0  0  0  0  0  0  0  0  0  0
   36.3020   29.4730   31.7350 C   0  0  0  0  0  0  0  0  0  0  0  0
   36.6200   28.4790   32.6130 N   0  0  0  0  0  0  0  0  0  0  0  0
   36.3550   28.4970   33.9040 C   0  0  0  0  0  0  0  0  0  0  0  0
   35.7310   29.5560   34.4060 N   0  0  0  0  0  0  0  0  0  0  0  0
   34.8710   31.3970   34.1580 H   0  0  0  0  0  0  0  0  0  0  0  0
   35.3390   31.4390   31.6970 H   0  0  0  0  0  0  0  0  0  0  0  0
   36.5170   29.4570   30.6950 H   0  0  0  0  0  0  0  0  0  0  0  0
  1  2  1  0  0  0  0
  2 22  1  0  0  0  0
  2  3  2  0  0  0  0
  3  7  1  0  0  0  0
  4  3  1  0  0  0  0
  4  8  1  0  0  0  0
  5  4  2  0  0  0  0
  6  1  2  0  0  0  0
  6  5  1  0  0  0  0
  9  5  1  0  0  0  0
 10  6  1  0  0  0  0
 11 12  2  0  0  0  0
 11  1  1  0  0  0  0
 13 11  2  0  0  0  0
 14 11  1  1  0  0  0
 14 15  1  0  0  0  0
 16 15  1  0  0  0  0
 17 15  1  0  0  0  0
 17 18  1  0  0  0  0
 19 17  1  0  0  0  0
 20 19  1  0  0  0  0
 20 14  1  0  0  0  0
 21 20  1  0  0  0  0
 22 24  1  0  0  0  0
 24 27  1  0  0  0  0
 24 23  2  1  0  0  0
 25 24  1  0  0  0  0
 26 25  1  0  0  0  0
 27 28  1  0  0  0  0
 28 30  1  0  0  0  0
 28 29  1  0  0  0  0
 31 32  2  0  0  0  0
 32 28  1  0  0  0  0
 33 39  1  0  0  0  0
 33 38  1  0  0  0  0
 34 33  2  0  0  0  0
 35 34  1  0  0  0  0
 35 36  2  0  0  0  0
 36 37  1  0  0  0  0
 37 38  2  0  0  0  0
 37 31  1  0  0  0  0
 40 34  1  0  0  0  0
 41 35  1  0  0  0  0
M  END
>  <minimizedAffinity>
-5.14165592

$$$$

 OpenBabel03262520363D

 41 43  0  0  1  0  0  0  0  0999 V2000
   37.4740   22.7790   33.2960 C   0  0  0  0  0  0  0  0  0  0  0  0
   37.3010   23.6480   32.2100 C   0  0  0  0  0  0  0  0  0  0  0  0
   36.4300   23.3510   31.1820 C   0  0  0  0  0  0  0  0  0  0  0  0
   35.7200   22.1780   31.2300 C   0  0  0  0  0  0  0  0  0  0  0  0
   35.8810   21.3330   32.2770 C   0  0  0  0  0  0  0  0  0  0  0  0
   36.7330   21.5800   33.3240 C   0  0  0  0  0  0  0  0  0  0  0  0
   36.3550   24.0720   30.3850 H   0  0  0  0  0  0  0  0  0  0  0  0
   35.0570   22.0240   30.3810 H   0  0  0  0  0  0  0  0  0  0  0  0
   35.2840   20.4250   32.2440 H   0  0  0  0  0  0  0  0  0  0  0  0
   36.8530   20.8910   34.1590 H   0  0  0  0  0  0  0  0  0  0  0  0
   38.5550   23.0910   34.6350 S   0  0  0  0  0  0  0  0  0  0  0  0
   38.1980   24.3520   35.3260 O   0  0  0  0  0  0  0  0  0  0  0  0
   38.4770   21.8960   35.5900 O   0  0  0  0  0  0  0  0  0  0  0  0
   40.2300   23.1710   34.1050 C   0  0  1  0  0  3  0  0  0  0  0  0
   40.9400   24.1840   34.9800 C   0  0  0  0  0  3  0  0  0  0  0  0
   41.6250   24.8370   34.4390 H   0  0  0  0  0  0  0  0  0  0  0  0
   41.5960   23.2880   36.0040 C   0  0  0  0  0  3  0  0  0  0  0  0
   40.8300   22.9560   36.7350 H   0  0  0  0  0  0  0  0  0  0  0  0
   42.0030   22.2050   35.2680 O   0  0  0  0  0  0  0  0  0  0  0  0
   41.0110   21.9100   34.3320 C   0  0  0  0  0  3  0  0  0  0  0  0
   41.5850   21.6700   33.3890 H   0  0  0  0  0  0  0  0  0  0  0  0
   38.0840   24.7730   32.3160 O   0  0  0  0  0  0  0  0  0  0  0  0
   38.6000   27.3570   32.4480 O   0  0  0  0  0  0  0  0  0  0  0  0
   37.7320   26.3180   31.7390 P   0  0  1  0  0  0  0  0  0  0  0  0
   37.9340   26.3900   30.0540 O   0  0  0  0  0  0  0  0  0  0  0  0
   37.5250   25.5580   29.7050 H   0  0  0  0  0  0  0  0  0  0  0  0
   36.1280   26.7610   32.1050 O   0  0  0  0  0  0  0  0  0  0  0  0
   35.9230   28.0730   31.6350 C   0  0  0  0  0  0  0  0  0  0  0  0
   36.9730   28.4650   31.4950 H   0  0  0  0  0  0  0  0  0  0  0  0
   35.3590   28.0830   30.7050 H   0  0  0  0  0  0  0  0  0  0  0  0
   35.8710   29.1750   33.8310 C   0  0  0  0  0  3  0  0  0  0  0  0
   35.3210   28.9460   32.6730 C   0  0  0  0  0  3  0  0  0  0  0  0
   33.2740   30.8560   35.8020 C   0  0  0  0  0  0  0  0  0  0  0  0
   34.0230   31.7690   36.5540 C   0  0  0  0  0  0  0  0  0  0  0  0
   35.4140   31.7920   36.3680 C   0  0  0  0  0  0  0  0  0  0  0  0
   35.9040   30.9030   35.4580 N   0  0  0  0  0  0  0  0  0  0  0  0
   35.1760   30.0520   34.7620 C   0  0  0  0  0  0  0  0  0  0  0  0
   33.8620   30.0470   34.9500 N   0  0  0  0  0  0  0  0  0  0  0  0
   32.1950   30.7780   35.8870 H   0  0  0  0  0  0  0  0  0  0  0  0
   33.5100   32.4220   37.2460 H   0  0  0  0  0  0  0  0  0  0  0  0
   36.0030   32.4760   36.9280 H   0  0  0  0  0  0  0  0  0  0  0  0
  1  6  1  0  0  0  0
  1 11  1  0  0  0  0
  2 22  1  0  0  0  0
  2  1  2  0  0  0  0
  3  4  2  0  0  0  0
  3  2  1  0  0  0  0
  4  5  1  0  0  0  0
  5  6  2  0  0  0  0
  6 10  1  0  0  0  0
  7  3  1  0  0  0  0
  8  4  1  0  0  0  0
  9  5  1  0  0  0  0
 11 12  2  0  0  0  0
 11 13  2  0  0  0  0
 14 20  1  0  0  0  0
 14 11  1  1  0  0  0
 14 15  1  0  0  0  0
 15 17  1  0  0  0  0
 16 15  1  0  0  0  0
 17 18  1  0  0  0  0
 19 17  1  0  0  0  0
 20 19  1  0  0  0  0
 21 20  1  0  0  0  0
 24 27  1  0  0  0  0
 24 22  1  0  0  0  0
 24 23  2  1  0  0  0
 25 24  1  0  0  0  0
 26 25  1  0  0  0  0
 28 27  1  0  0  0  0
 28 32  1  0  0  0  0
 29 28  1  0  0  0  0
 30 28  1  0  0  0  0
 31 37  1  0  0  0  0
 32 31  2  0  0  0  0
 33 39  1  0  0  0  0
 33 34  1  0  0  0  0
 34 40  1  0  0  0  0
 35 34  2  0  0  0  0
 35 41  1  0  0  0  0
 36 35  1  0  0  0  0
 37 38  1  0  0  0  0
 37 36  2  0  0  0  0
 38 33  2  0  0  0  0
M  END
>  <minimizedAffinity>
-5.11849594

$$$$
