
 OpenBabel03272502303D

 23 24  0  0  1  0  0  0  0  0999 V2000
   39.5260   32.7500   46.6510 C   0  0  0  0  0  0  0  0  0  0  0  0
   39.5830   33.8550   46.7100 H   0  0  0  0  0  0  0  0  0  0  0  0
   40.5600   32.3300   46.5700 H   0  0  0  0  0  0  0  0  0  0  0  0
   38.3120   30.9780   47.8520 C   0  0  0  0  0  3  0  0  0  0  0  0
   38.8260   32.1800   47.8430 C   0  0  0  0  0  3  0  0  0  0  0  0
   37.3250   30.2270   51.3520 C   0  0  0  0  0  0  0  0  0  0  0  0
   38.0390   30.7900   50.2820 C   0  0  0  0  0  0  0  0  0  0  0  0
   37.6460   30.4550   49.0070 C   0  0  0  0  0  0  0  0  0  0  0  0
   36.5990   29.6060   48.8160 N   0  0  0  0  0  0  0  0  0  0  0  0
   35.9370   29.0860   49.8760 C   0  0  0  0  0  0  0  0  0  0  0  0
   36.2910   29.3880   51.1370 N   0  0  0  0  0  0  0  0  0  0  0  0
   37.6440   30.4990   52.3710 H   0  0  0  0  0  0  0  0  0  0  0  0
   38.8660   31.4610   50.4670 H   0  0  0  0  0  0  0  0  0  0  0  0
   35.1150   28.4190   49.6410 H   0  0  0  0  0  0  0  0  0  0  0  0
   38.5860   32.3700   45.1420 S   0  0  0  0  0  0  0  0  0  0  0  0
   39.7440   32.2720   43.7650 C   0  0  1  0  0  3  0  0  0  0  0  0
   39.9940   30.8250   43.3330 C   0  0  0  0  0  3  0  0  0  0  0  0
   39.0260   30.2880   43.3760 H   0  0  0  0  0  0  0  0  0  0  0  0
   40.3110   31.0280   41.8650 C   0  0  0  0  0  3  0  0  0  0  0  0
   41.3480   31.4230   41.7780 H   0  0  0  0  0  0  0  0  0  0  0  0
   39.3600   31.9620   41.4920 O   0  0  0  0  0  0  0  0  0  0  0  0
   39.2110   32.8760   42.5030 C   0  0  0  0  0  3  0  0  0  0  0  0
   38.1150   33.0290   42.6720 H   0  0  0  0  0  0  0  0  0  0  0  0
  1  2  1  0  0  0  0
  1  5  1  0  0  0  0
  3  1  1  0  0  0  0
  4  8  1  0  0  0  0
  5  4  2  0  0  0  0
  6 12  1  0  0  0  0
  7 13  1  0  0  0  0
  7  6  2  0  0  0  0
  8  7  1  0  0  0  0
  9  8  2  0  0  0  0
  9 10  1  0  0  0  0
 10 11  2  0  0  0  0
 11  6  1  0  0  0  0
 14 10  1  0  0  0  0
 15  1  1  0  0  0  0
 16 15  1  1  0  0  0
 17 18  1  0  0  0  0
 17 16  1  0  0  0  0
 19 17  1  0  0  0  0
 20 19  1  0  0  0  0
 21 19  1  0  0  0  0
 21 22  1  0  0  0  0
 22 23  1  0  0  0  0
 22 16  1  0  0  0  0
M  END
>  <minimizedAffinity>
-4.71044111

>  <minimizedRMSD>
1.62219155

$$$$
