REMARK  Name = 
REMARK  4 active torsions:
REMARK  status: ('A' for Active; 'I' for Inactive)
REMARK    1  A    between atoms: C_3  and  C_7
REMARK    2  A    between atoms: C_8  and  C_9
REMARK    3  A    between atoms: C_9  and  S_10
REMARK    4  A    between atoms: S_10  and  C_18
REMARK                            x       y       z     vdW  Elec       q    Type
REMARK                         _______ _______ _______ _____ _____    ______ ____
ROOT
ATOM      1  C   UNL     1      39.417  32.541  46.551  0.00  0.00    +0.000 C 
ATOM      2  H   UNL     1      39.555  33.639  46.612  0.00  0.00    +0.000 HD
ATOM      3  H   UNL     1      40.409  32.053  46.381  0.00  0.00    +0.000 HD
ENDROOT
BRANCH   1   5
ATOM      4  C   UNL     1      38.122  30.878  47.821  0.00  0.00    +0.000 C 
ATOM      5  C   UNL     1      38.781  32.007  47.795  0.00  0.00    +0.000 C 
BRANCH   4   8
ATOM      6  C   UNL     1      37.364  30.184  51.389  0.00  0.00    +0.000 A 
ATOM      7  C   UNL     1      38.019  30.713  50.266  0.00  0.00    +0.000 A 
ATOM      8  C   UNL     1      37.522  30.387  49.025  0.00  0.00    +0.000 A 
ATOM      9  N   UNL     1      36.432  29.579  48.917  0.00  0.00    +0.000 NA
ATOM     10  C   UNL     1      35.829  29.090  50.027  0.00  0.00    +0.000 A 
ATOM     11  N   UNL     1      36.285  29.385  51.256  0.00  0.00    +0.000 NA
ATOM     12  H   UNL     1      37.766  30.448  52.380  0.00  0.00    +0.000 HD
ATOM     13  H   UNL     1      38.883  31.352  50.385  0.00  0.00    +0.000 HD
ATOM     14  H   UNL     1      34.967  28.455  49.857  0.00  0.00    +0.000 HD
ENDBRANCH   4   8
ENDBRANCH   1   5
BRANCH   1  15
ATOM     15  S   UNL     1      38.329  32.245  45.125  0.00  0.00    +0.000 S 
BRANCH  15  16
ATOM     16  C   UNL     1      39.136  32.903  43.654  0.00  0.00    +0.000 C 
ATOM     17  C   UNL     1      38.602  34.288  43.282  0.00  0.00    +0.000 C 
ATOM     18  H   UNL     1      38.455  34.856  44.223  0.00  0.00    +0.000 HD
ATOM     19  C   UNL     1      39.822  34.880  42.606  0.00  0.00    +0.000 C 
ATOM     20  H   UNL     1      39.909  34.443  41.586  0.00  0.00    +0.000 HD
ATOM     21  O   UNL     1      40.844  34.468  43.445  0.00  0.00    +0.000 OA
ATOM     22  C   UNL     1      40.592  33.185  43.858  0.00  0.00    +0.000 C 
ATOM     23  H   UNL     1      40.766  33.137  44.961  0.00  0.00    +0.000 HD
ENDBRANCH  15  16
ENDBRANCH   1  15
TORSDOF 4
