
 OpenBabel03272507263D

 36 38  0  0  1  0  0  0  0  0999 V2000
   37.0750   29.9760   48.8500 C   0  0  0  0  0  0  0  0  0  0  0  0
   38.0670   30.5360   48.0020 C   0  0  0  0  0  0  0  0  0  0  0  0
   37.6620   30.9310   46.7110 C   0  0  0  0  0  0  0  0  0  0  0  0
   36.3700   30.7560   46.3560 N   0  0  0  0  0  0  0  0  0  0  0  0
   35.4610   30.2180   47.2000 C   0  0  0  0  0  0  0  0  0  0  0  0
   35.8210   29.8350   48.4320 N   0  0  0  0  0  0  0  0  0  0  0  0
   38.5830   31.4910   45.8180 N   0  0  0  0  0  0  0  0  0  0  0  0
   39.7680   32.2690   46.2200 C   0  0  0  0  0  0  0  0  0  0  0  0
   40.3190   32.8690   44.9740 C   0  0  0  0  0  0  0  0  0  0  0  0
   39.1690   32.7960   44.0280 C   0  0  0  0  0  0  0  0  0  0  0  0
   38.5890   31.4420   44.3900 C   0  0  2  0  0  0  0  0  0  0  0  0
   37.5280   29.7230   49.8010 H   0  0  0  0  0  0  0  0  0  0  0  0
   39.1030   30.6880   48.2530 H   0  0  0  0  0  0  0  0  0  0  0  0
   34.4320   30.0720   46.9360 H   0  0  0  0  0  0  0  0  0  0  0  0
   40.4890   31.6640   46.7900 H   0  0  0  0  0  0  0  0  0  0  0  0
   39.3550   33.0610   46.9040 H   0  0  0  0  0  0  0  0  0  0  0  0
   41.2780   32.4860   44.6170 H   0  0  0  0  0  0  0  0  0  0  0  0
   40.4910   33.9500   45.1680 H   0  0  0  0  0  0  0  0  0  0  0  0
   39.5730   32.7440   42.9940 H   0  0  0  0  0  0  0  0  0  0  0  0
   38.4530   33.6180   44.1760 H   0  0  0  0  0  0  0  0  0  0  0  0
   37.3150   31.1710   43.6910 C   0  0  0  0  0  0  0  0  0  0  0  0
   36.4910   32.2570   43.9310 F   0  0  0  0  0  0  0  0  0  0  0  0
   36.6350   30.0740   44.1150 F   0  0  0  0  0  0  0  0  0  0  0  0
   37.5900   31.1770   42.3420 F   0  0  0  0  0  0  0  0  0  0  0  0
   39.5640   30.3700   44.0330 C   0  0  0  0  0  0  0  0  0  0  0  0
   40.5270   30.4620   44.5860 H   0  0  0  0  0  0  0  0  0  0  0  0
   39.8560   30.5830   42.9630 H   0  0  0  0  0  0  0  0  0  0  0  0
   39.0080   29.2880   44.2000 O   0  0  0  0  0  0  0  0  0  0  0  0
   39.4330   28.3320   43.2830 C   0  0  1  0  0  3  0  0  0  0  0  0
   38.3820   27.8370   42.3470 C   0  0  0  0  0  3  0  0  0  0  0  0
   37.8140   28.7120   41.9430 H   0  0  0  0  0  0  0  0  0  0  0  0
   39.2600   27.3020   41.2340 C   0  0  0  0  0  3  0  0  0  0  0  0
   39.3510   26.2070   41.3940 H   0  0  0  0  0  0  0  0  0  0  0  0
   40.5220   27.8500   41.3770 O   0  0  0  0  0  0  0  0  0  0  0  0
   40.4250   28.9070   42.2710 C   0  0  0  0  0  3  0  0  0  0  0  0
   40.0370   29.7830   41.7370 H   0  0  0  0  0  0  0  0  0  0  0  0
  1 12  1  0  0  0  0
  2 13  1  0  0  0  0
  2  1  2  0  0  0  0
  3  2  1  0  0  0  0
  4  3  2  0  0  0  0
  4  5  1  0  0  0  0
  5  6  2  0  0  0  0
  6  1  1  0  0  0  0
  7  8  1  0  0  0  0
  7  3  1  0  0  0  0
  8 15  1  0  0  0  0
  8 16  1  0  0  0  0
  9 18  1  0  0  0  0
  9  8  1  0  0  0  0
 10 20  1  0  0  0  0
 10 11  1  0  0  0  0
 10  9  1  0  0  0  0
 11 21  1  6  0  0  0
 11  7  1  0  0  0  0
 14  5  1  0  0  0  0
 17  9  1  0  0  0  0
 19 10  1  0  0  0  0
 21 22  1  0  0  0  0
 21 23  1  0  0  0  0
 24 21  1  0  0  0  0
 25 28  1  0  0  0  0
 25 11  1  0  0  0  0
 25 26  1  0  0  0  0
 27 25  1  0  0  0  0
 29 28  1  1  0  0  0
 30 29  1  0  0  0  0
 31 30  1  0  0  0  0
 32 34  1  0  0  0  0
 32 33  1  0  0  0  0
 32 30  1  0  0  0  0
 34 35  1  0  0  0  0
 35 29  1  0  0  0  0
 36 35  1  0  0  0  0
M  END
>  <minimizedAffinity>
-4.59958363

>  <minimizedRMSD>
1.25477874

$$$$
