
 OpenBabel03272509433D

 37 39  0  0  1  0  0  0  0  0999 V2000
   37.0260   30.9210   49.0450 C   0  0  0  0  0  0  0  0  0  0  0  0
   36.7290   31.8080   50.0820 C   0  0  0  0  0  0  0  0  0  0  0  0
   37.3200   33.0620   50.1600 C   0  0  0  0  0  0  0  0  0  0  0  0
   38.2340   33.4520   49.1800 C   0  0  0  0  0  0  0  0  0  0  0  0
   38.5150   32.5750   48.1710 C   0  0  0  0  0  0  0  0  0  0  0  0
   37.9060   31.3290   48.1260 C   0  0  0  0  0  0  0  0  0  0  0  0
   36.0140   31.4900   50.8390 H   0  0  0  0  0  0  0  0  0  0  0  0
   37.0340   33.6710   50.9870 H   0  0  0  0  0  0  0  0  0  0  0  0
   38.6400   34.4360   49.3200 H   0  0  0  0  0  0  0  0  0  0  0  0
   39.2420   33.0170   47.4910 H   0  0  0  0  0  0  0  0  0  0  0  0
   36.4380   29.6000   48.9820 C   0  0  2  0  0  0  0  0  0  0  0  0
   36.9640   29.0760   48.0930 H   0  0  0  0  0  0  0  0  0  0  0  0
   33.5850   30.0740   46.7830 C   0  0  0  0  0  0  0  0  0  0  0  0
   32.8840   28.8870   46.8830 C   0  0  0  0  0  0  0  0  0  0  0  0
   33.3520   27.9280   47.7610 C   0  0  0  0  0  0  0  0  0  0  0  0
   34.4870   28.1810   48.4980 N   0  0  0  0  0  0  0  0  0  0  0  0
   35.1130   29.3330   48.3550 C   0  0  0  0  0  0  0  0  0  0  0  0
   34.6690   30.2850   47.5030 N   0  0  0  0  0  0  0  0  0  0  0  0
   33.1820   30.7950   46.0840 H   0  0  0  0  0  0  0  0  0  0  0  0
   31.9950   28.5940   46.3560 H   0  0  0  0  0  0  0  0  0  0  0  0
   32.9100   26.9600   47.9450 H   0  0  0  0  0  0  0  0  0  0  0  0
   36.8820   28.8190   49.9030 O   0  0  0  0  0  0  0  0  0  0  0  0
   36.4010   28.0280   50.2060 H   0  0  0  0  0  0  0  0  0  0  0  0
   38.3150   30.4900   47.0230 C   0  0  0  0  0  3  0  0  0  0  0  0
   39.0040   30.9310   45.9650 C   0  0  0  0  0  3  0  0  0  0  0  0
   39.5090   30.1610   44.8050 C   0  0  0  0  0  0  0  0  0  0  0  0
   40.3660   29.5530   45.1610 H   0  0  0  0  0  0  0  0  0  0  0  0
   38.7330   29.4610   44.4050 H   0  0  0  0  0  0  0  0  0  0  0  0
   40.0850   31.2910   43.5330 S   0  0  0  0  0  0  0  0  0  0  0  0
   38.7400   32.4460   43.1660 C   0  0  1  0  0  3  0  0  0  0  0  0
   39.0390   33.3650   42.0160 C   0  0  0  0  0  3  0  0  0  0  0  0
   39.8740   33.0140   41.3650 H   0  0  0  0  0  0  0  0  0  0  0  0
   37.7220   33.4500   41.3160 C   0  0  0  0  0  3  0  0  0  0  0  0
   37.1790   34.3790   41.5920 H   0  0  0  0  0  0  0  0  0  0  0  0
   36.9350   32.3880   41.6690 O   0  0  0  0  0  0  0  0  0  0  0  0
   37.5690   31.6530   42.6340 C   0  0  0  0  0  3  0  0  0  0  0  0
   37.9290   30.6630   42.2280 H   0  0  0  0  0  0  0  0  0  0  0  0
  1  2  1  0  0  0  0
  2  3  2  0  0  0  0
  2  7  1  0  0  0  0
  3  8  1  0  0  0  0
  4  9  1  0  0  0  0
  4  3  1  0  0  0  0
  5  4  2  0  0  0  0
  6  5  1  0  0  0  0
  6  1  2  0  0  0  0
 10  5  1  0  0  0  0
 11 12  1  6  0  0  0
 11  1  1  0  0  0  0
 11 22  1  0  0  0  0
 13 14  2  0  0  0  0
 13 18  1  0  0  0  0
 14 15  1  0  0  0  0
 15 21  1  0  0  0  0
 15 16  2  0  0  0  0
 17 16  1  0  0  0  0
 17 11  1  0  0  0  0
 18 17  2  0  0  0  0
 19 13  1  0  0  0  0
 20 14  1  0  0  0  0
 22 23  1  0  0  0  0
 24  6  1  0  0  0  0
 25 24  2  0  0  0  0
 26 27  1  0  0  0  0
 26 25  1  0  0  0  0
 28 26  1  0  0  0  0
 29 26  1  0  0  0  0
 30 29  1  6  0  0  0
 31 30  1  0  0  0  0
 32 31  1  0  0  0  0
 33 34  1  0  0  0  0
 33 35  1  0  0  0  0
 33 31  1  0  0  0  0
 35 36  1  0  0  0  0
 36 30  1  0  0  0  0
 37 36  1  0  0  0  0
M  END
>  <minimizedAffinity>
-5.59769869

>  <minimizedRMSD>
1.31461596

$$$$
