
 OpenBabel03262521103D

 23 24  0  0  1  0  0  0  0  0999 V2000
   35.5900   30.1310   46.4400 O   0  0  0  0  0  0  0  0  0  0  0  0
   34.3870   29.8630   47.3220 P   0  0  1  0  0  0  0  0  0  0  0  0
   34.1970   28.1900   47.6120 O   0  0  0  0  0  0  0  0  0  0  0  0
   33.2550   28.0710   47.8850 H   0  0  0  0  0  0  0  0  0  0  0  0
   34.5150   30.5970   48.8680 O   0  0  0  0  0  0  0  0  0  0  0  0
   35.6680   30.4840   49.6330 C   0  0  0  0  0  0  0  0  0  0  0  0
   35.9000   29.5320   50.6300 C   0  0  0  0  0  0  0  0  0  0  0  0
   37.1170   29.5570   51.3070 C   0  0  0  0  0  0  0  0  0  0  0  0
   38.0310   30.5010   50.9770 N   0  0  0  0  0  0  0  0  0  0  0  0
   37.7760   31.4210   49.9970 C   0  0  0  0  0  0  0  0  0  0  0  0
   36.6050   31.4140   49.3280 N   0  0  0  0  0  0  0  0  0  0  0  0
   35.1030   28.8310   50.8060 H   0  0  0  0  0  0  0  0  0  0  0  0
   37.2800   28.8140   52.0750 H   0  0  0  0  0  0  0  0  0  0  0  0
   38.5210   32.1730   49.7430 H   0  0  0  0  0  0  0  0  0  0  0  0
   33.0450   30.4650   46.4940 O   0  0  0  0  0  0  0  0  0  0  0  0
   32.2180   29.4340   46.0420 C   0  0  2  0  0  0  0  0  0  0  0  0
   32.5940   29.1360   44.6050 C   0  0  0  0  0  0  0  0  0  0  0  0
   32.9420   30.1060   44.1590 H   0  0  0  0  0  0  0  0  0  0  0  0
   31.2790   28.7750   43.9980 C   0  0  0  0  0  0  0  0  0  0  0  0
   31.2110   29.2360   42.9700 H   0  0  0  0  0  0  0  0  0  0  0  0
   30.2560   29.1990   44.8160 O   0  0  0  0  0  0  0  0  0  0  0  0
   30.7900   29.9460   45.8380 C   0  0  0  0  0  0  0  0  0  0  0  0
   30.1940   29.8800   46.7820 H   0  0  0  0  0  0  0  0  0  0  0  0
  2  1  2  6  0  0  0
  2  3  1  0  0  0  0
  2  5  1  0  0  0  0
  3  4  1  0  0  0  0
  5  6  1  0  0  0  0
  6  7  1  0  0  0  0
  7 12  1  0  0  0  0
  7  8  2  0  0  0  0
  8 13  1  0  0  0  0
  9  8  1  0  0  0  0
 10  9  2  0  0  0  0
 11  6  2  0  0  0  0
 11 10  1  0  0  0  0
 14 10  1  0  0  0  0
 15  2  1  0  0  0  0
 16 15  1  6  0  0  0
 17 16  1  0  0  0  0
 18 17  1  0  0  0  0
 19 17  1  0  0  0  0
 19 21  1  0  0  0  0
 20 19  1  0  0  0  0
 21 22  1  0  0  0  0
 22 16  1  0  0  0  0
 22 23  1  0  0  0  0
M  END
>  <minimizedAffinity>
-3.70260239

>  <minimizedRMSD>
1.64891338

$$$$
