REMARK  Name = 
REMARK  4 active torsions:
REMARK  status: ('A' for Active; 'I' for Inactive)
REMARK    1  A    between atoms: C_11  and  C_12
REMARK    2  A    between atoms: C_11  and  C_16
REMARK    3  A    between atoms: C_16  and  O_17
REMARK    4  A    between atoms: O_17  and  C_29
REMARK                            x       y       z     vdW  Elec       q    Type
REMARK                         _______ _______ _______ _____ _____    ______ ____
ROOT
ATOM      1  C   UNL     1      37.064  30.068  48.947  0.00  0.00    +0.000 A 
ATOM      2  C   UNL     1      38.042  30.715  48.146  0.00  0.00    +0.000 A 
ATOM      3  C   UNL     1      37.687  31.017  46.816  0.00  0.00    +0.000 A 
ATOM      4  N   UNL     1      36.453  30.679  46.383  0.00  0.00    +0.000 NA
ATOM      5  C   UNL     1      35.555  30.064  47.185  0.00  0.00    +0.000 A 
ATOM      6  N   UNL     1      35.868  29.766  48.452  0.00  0.00    +0.000 NA
ATOM      7  N   UNL     1      38.598  31.654  45.965  0.00  0.00    +0.000 N 
ATOM      8  C   UNL     1      39.653  32.580  46.414  0.00  0.00    +0.000 C 
ATOM      9  C   UNL     1      40.217  33.201  45.184  0.00  0.00    +0.000 C 
ATOM     10  C   UNL     1      39.154  32.961  44.167  0.00  0.00    +0.000 C 
ATOM     11  C   UNL     1      38.711  31.560  44.543  0.00  0.00    +0.000 C 
ATOM     12  H   UNL     1      37.475  29.901  49.936  0.00  0.00    +0.000 HD
ATOM     13  H   UNL     1      39.033  30.997  48.459  0.00  0.00    +0.000 HD
ATOM     14  H   UNL     1      34.571  29.788  46.859  0.00  0.00    +0.000 HD
ATOM     15  H   UNL     1      40.397  32.083  47.054  0.00  0.00    +0.000 HD
ATOM     16  H   UNL     1      39.103  33.338  47.036  0.00  0.00    +0.000 HD
ATOM     17  H   UNL     1      41.237  32.923  44.908  0.00  0.00    +0.000 HD
ATOM     18  H   UNL     1      40.248  34.300  45.346  0.00  0.00    +0.000 HD
ATOM     19  H   UNL     1      39.634  32.925  43.165  0.00  0.00    +0.000 HD
ATOM     20  H   UNL     1      38.338  33.697  44.234  0.00  0.00    +0.000 HD
ENDROOT
BRANCH  11  21
ATOM     21  C   UNL     1      37.530  31.118  43.772  0.00  0.00    +0.000 C 
ATOM     22  F   UNL     1      36.551  32.079  43.957  0.00  0.00    +0.000 F 
ATOM     23  F   UNL     1      36.984  29.936  44.162  0.00  0.00    +0.000 F 
ATOM     24  F   UNL     1      37.881  31.165  42.442  0.00  0.00    +0.000 F 
ENDBRANCH  11  21
BRANCH  11  25
ATOM     25  C   UNL     1      39.827  30.601  44.296  0.00  0.00    +0.000 C 
ATOM     26  H   UNL     1      40.793  30.940  44.736  0.00  0.00    +0.000 HD
ATOM     27  H   UNL     1      40.016  30.650  43.183  0.00  0.00    +0.000 HD
BRANCH  25  28
ATOM     28  O   UNL     1      39.469  29.498  44.700  0.00  0.00    +0.000 OA
BRANCH  28  29
ATOM     29  C   UNL     1      40.447  28.527  44.513  0.00  0.00    +0.000 C 
ATOM     30  C   UNL     1      40.119  27.479  43.504  0.00  0.00    +0.000 C 
ATOM     31  H   UNL     1      39.711  27.973  42.585  0.00  0.00    +0.000 HD
ATOM     32  C   UNL     1      41.516  26.985  43.182  0.00  0.00    +0.000 C 
ATOM     33  H   UNL     1      41.679  26.069  43.787  0.00  0.00    +0.000 HD
ATOM     34  O   UNL     1      42.421  27.938  43.613  0.00  0.00    +0.000 OA
ATOM     35  C   UNL     1      41.715  29.102  43.880  0.00  0.00    +0.000 C 
ATOM     36  H   UNL     1      41.526  29.622  42.932  0.00  0.00    +0.000 HD
ENDBRANCH  28  29
ENDBRANCH  25  28
ENDBRANCH  11  25
TORSDOF 4
