
 OpenBabel03272502323D

 26 27  0  0  1  0  0  0  0  0999 V2000
   39.0460   23.5720   35.5370 C   0  0  2  0  0  0  0  0  0  0  0  0
   40.0190   23.3610   36.0510 H   0  0  0  0  0  0  0  0  0  0  0  0
   39.0850   24.9000   34.8410 C   0  0  1  0  0  3  0  0  0  0  0  0
   38.1200   25.8720   35.5490 C   0  0  0  0  0  3  0  0  0  0  0  0
   37.1540   25.9290   35.0440 H   0  0  0  0  0  0  0  0  0  0  0  0
   38.8530   27.1800   35.7060 C   0  0  0  0  0  3  0  0  0  0  0  0
   38.1700   27.9730   35.3350 H   0  0  0  0  0  0  0  0  0  0  0  0
   40.0070   27.0440   34.9570 O   0  0  0  0  0  0  0  0  0  0  0  0
   40.3540   25.6770   34.9570 C   0  0  0  0  0  3  0  0  0  0  0  0
   40.9730   25.5440   34.0180 H   0  0  0  0  0  0  0  0  0  0  0  0
   37.4650   22.1420   34.4640 C   0  0  0  0  0  3  0  0  0  0  0  0
   38.7190   22.5110   34.5570 C   0  0  0  0  0  3  0  0  0  0  0  0
   35.3160   19.6250   32.7610 C   0  0  0  0  0  0  0  0  0  0  0  0
   35.7580   20.6030   33.6460 C   0  0  0  0  0  0  0  0  0  0  0  0
   37.0220   21.1410   33.5080 C   0  0  0  0  0  0  0  0  0  0  0  0
   37.8010   20.7010   32.5060 N   0  0  0  0  0  0  0  0  0  0  0  0
   37.3620   19.7530   31.6530 C   0  0  0  0  0  0  0  0  0  0  0  0
   36.1410   19.2160   31.7710 N   0  0  0  0  0  0  0  0  0  0  0  0
   34.3280   19.1860   32.8350 H   0  0  0  0  0  0  0  0  0  0  0  0
   35.0250   20.8550   34.4020 H   0  0  0  0  0  0  0  0  0  0  0  0
   38.1230   19.5290   30.9230 H   0  0  0  0  0  0  0  0  0  0  0  0
   37.6920   23.6240   36.7670 S   0  0  0  0  0  0  0  0  0  0  0  0
   38.3490   23.6150   38.4350 C   0  0  0  0  0  0  0  0  0  0  0  0
   39.6750   23.1920   38.4840 F   0  0  0  0  0  0  0  0  0  0  0  0
   38.1600   24.8220   39.0760 F   0  0  0  0  0  0  0  0  0  0  0  0
   37.5910   22.6620   39.1580 F   0  0  0  0  0  0  0  0  0  0  0  0
  1  2  1  1  0  0  0
  1 22  1  0  0  0  0
  3  9  1  0  0  0  0
  3  1  1  1  0  0  0
  3  4  1  0  0  0  0
  4  6  1  0  0  0  0
  5  4  1  0  0  0  0
  7  6  1  0  0  0  0
  8  6  1  0  0  0  0
  9  8  1  0  0  0  0
 10  9  1  0  0  0  0
 11 12  2  0  0  0  0
 12  1  1  0  0  0  0
 13 19  1  0  0  0  0
 13 14  1  0  0  0  0
 14 20  1  0  0  0  0
 15 14  2  0  0  0  0
 15 11  1  0  0  0  0
 16 15  1  0  0  0  0
 17 18  1  0  0  0  0
 17 16  2  0  0  0  0
 18 13  2  0  0  0  0
 21 17  1  0  0  0  0
 22 23  1  0  0  0  0
 23 24  1  0  0  0  0
 23 25  1  0  0  0  0
 23 26  1  0  0  0  0
M  END
>  <minimizedAffinity>
-4.95592356

$$$$

 OpenBabel03272502323D

 26 27  0  0  1  0  0  0  0  0999 V2000
   39.0920   22.4480   36.2080 C   0  0  2  0  0  0  0  0  0  0  0  0
   38.7770   21.6160   36.8900 H   0  0  0  0  0  0  0  0  0  0  0  0
   40.5860   22.5410   36.1300 C   0  0  1  0  0  3  0  0  0  0  0  0
   41.2060   21.7470   37.2970 C   0  0  0  0  0  3  0  0  0  0  0  0
   41.4700   22.3940   38.1360 H   0  0  0  0  0  0  0  0  0  0  0  0
   42.3350   20.9310   36.7220 C   0  0  0  0  0  3  0  0  0  0  0  0
   43.2180   21.1060   37.3720 H   0  0  0  0  0  0  0  0  0  0  0  0
   42.4960   21.3920   35.4280 O   0  0  0  0  0  0  0  0  0  0  0  0
   41.2390   21.8480   34.9800 C   0  0  0  0  0  3  0  0  0  0  0  0
   41.4850   22.5980   34.1680 H   0  0  0  0  0  0  0  0  0  0  0  0
   37.3780   21.6580   34.7450 C   0  0  0  0  0  3  0  0  0  0  0  0
   38.5380   22.2610   34.8470 C   0  0  0  0  0  3  0  0  0  0  0  0
   34.9250   20.4760   32.2080 C   0  0  0  0  0  0  0  0  0  0  0  0
   35.5640   20.7050   33.4230 C   0  0  0  0  0  0  0  0  0  0  0  0
   36.7200   21.4590   33.4650 C   0  0  0  0  0  0  0  0  0  0  0  0
   37.2020   21.9610   32.3170 N   0  0  0  0  0  0  0  0  0  0  0  0
   36.5740   21.7330   31.1450 C   0  0  0  0  0  0  0  0  0  0  0  0
   35.4540   21.0030   31.0810 N   0  0  0  0  0  0  0  0  0  0  0  0
   34.0120   19.8960   32.1380 H   0  0  0  0  0  0  0  0  0  0  0  0
   35.0630   20.2370   34.2610 H   0  0  0  0  0  0  0  0  0  0  0  0
   37.1080   22.2110   30.3390 H   0  0  0  0  0  0  0  0  0  0  0  0
   38.4640   24.0440   36.8450 S   0  0  0  0  0  0  0  0  0  0  0  0
   38.2040   23.9620   38.6170 C   0  0  0  0  0  0  0  0  0  0  0  0
   39.3760   23.6850   39.3170 F   0  0  0  0  0  0  0  0  0  0  0  0
   37.5560   25.0780   39.1020 F   0  0  0  0  0  0  0  0  0  0  0  0
   37.3300   22.8700   38.8430 F   0  0  0  0  0  0  0  0  0  0  0  0
  1 22  1  0  0  0  0
  1  2  1  1  0  0  0
  3  1  1  6  0  0  0
  3  4  1  0  0  0  0
  4  5  1  0  0  0  0
  6  4  1  0  0  0  0
  6  7  1  0  0  0  0
  8  6  1  0  0  0  0
  9  8  1  0  0  0  0
  9  3  1  0  0  0  0
 10  9  1  0  0  0  0
 11 12  2  0  0  0  0
 12  1  1  0  0  0  0
 13 14  1  0  0  0  0
 14 15  2  0  0  0  0
 14 20  1  0  0  0  0
 15 11  1  0  0  0  0
 16 15  1  0  0  0  0
 17 16  2  0  0  0  0
 18 17  1  0  0  0  0
 18 13  2  0  0  0  0
 19 13  1  0  0  0  0
 21 17  1  0  0  0  0
 22 23  1  0  0  0  0
 23 26  1  0  0  0  0
 23 25  1  0  0  0  0
 23 24  1  0  0  0  0
M  END
>  <minimizedAffinity>
-4.93887568

$$$$

 OpenBabel03272502323D

 26 27  0  0  1  0  0  0  0  0999 V2000
   37.1010   26.8180   33.2230 C   0  0  2  0  0  0  0  0  0  0  0  0
   36.7200   26.2010   34.0770 H   0  0  0  0  0  0  0  0  0  0  0  0
   36.8080   26.1540   31.9110 C   0  0  1  0  0  3  0  0  0  0  0  0
   36.6720   24.6340   32.1300 C   0  0  0  0  0  3  0  0  0  0  0  0
   37.5970   24.1030   31.8950 H   0  0  0  0  0  0  0  0  0  0  0  0
   35.4510   24.1880   31.3660 C   0  0  0  0  0  3  0  0  0  0  0  0
   35.7570   23.3060   30.7640 H   0  0  0  0  0  0  0  0  0  0  0  0
   35.0790   25.2800   30.6030 O   0  0  0  0  0  0  0  0  0  0  0  0
   35.4750   26.4400   31.3010 C   0  0  0  0  0  3  0  0  0  0  0  0
   35.5830   27.2290   30.4960 H   0  0  0  0  0  0  0  0  0  0  0  0
   36.1360   28.6600   34.3940 C   0  0  0  0  0  3  0  0  0  0  0  0
   36.5040   28.1720   33.2340 C   0  0  0  0  0  3  0  0  0  0  0  0
   35.4740   32.0660   35.7420 C   0  0  0  0  0  0  0  0  0  0  0  0
   36.0090   30.7920   35.5720 C   0  0  0  0  0  0  0  0  0  0  0  0
   35.5780   29.9950   34.5300 C   0  0  0  0  0  0  0  0  0  0  0  0
   34.6430   30.4780   33.6960 N   0  0  0  0  0  0  0  0  0  0  0  0
   34.1320   31.7140   33.8710 C   0  0  0  0  0  0  0  0  0  0  0  0
   34.5340   32.5020   34.8750 N   0  0  0  0  0  0  0  0  0  0  0  0
   35.7950   32.7210   36.5430 H   0  0  0  0  0  0  0  0  0  0  0  0
   36.7490   30.5380   36.3200 H   0  0  0  0  0  0  0  0  0  0  0  0
   33.3970   31.9230   33.1100 H   0  0  0  0  0  0  0  0  0  0  0  0
   38.9150   27.0130   33.3580 S   0  0  0  0  0  0  0  0  0  0  0  0
   39.4520   26.8060   35.0560 C   0  0  0  0  0  0  0  0  0  0  0  0
   40.8390   26.7850   35.1780 F   0  0  0  0  0  0  0  0  0  0  0  0
   38.8650   27.7210   35.9040 F   0  0  0  0  0  0  0  0  0  0  0  0
   38.9880   25.5320   35.4690 F   0  0  0  0  0  0  0  0  0  0  0  0
  1 12  1  0  0  0  0
  1 22  1  0  0  0  0
  1  2  1  1  0  0  0
  3  4  1  0  0  0  0
  3  1  1  1  0  0  0
  5  4  1  0  0  0  0
  6  4  1  0  0  0  0
  7  6  1  0  0  0  0
  8  9  1  0  0  0  0
  8  6  1  0  0  0  0
  9  3  1  0  0  0  0
 10  9  1  0  0  0  0
 11 15  1  0  0  0  0
 12 11  2  0  0  0  0
 13 19  1  0  0  0  0
 14 13  1  0  0  0  0
 14 20  1  0  0  0  0
 15 14  2  0  0  0  0
 16 17  2  0  0  0  0
 16 15  1  0  0  0  0
 17 18  1  0  0  0  0
 18 13  2  0  0  0  0
 21 17  1  0  0  0  0
 22 23  1  0  0  0  0
 23 24  1  0  0  0  0
 23 26  1  0  0  0  0
 23 25  1  0  0  0  0
M  END
>  <minimizedAffinity>
-4.67764616

$$$$

 OpenBabel03272502323D

 26 27  0  0  1  0  0  0  0  0999 V2000
   38.2050   23.3550   35.4510 C   0  0  2  0  0  0  0  0  0  0  0  0
   37.2870   23.6000   36.0450 H   0  0  0  0  0  0  0  0  0  0  0  0
   39.1330   22.4770   36.2370 C   0  0  1  0  0  3  0  0  0  0  0  0
   40.5310   22.5100   35.5910 C   0  0  0  0  0  3  0  0  0  0  0  0
   40.6980   21.6530   34.9340 H   0  0  0  0  0  0  0  0  0  0  0  0
   41.5280   22.6780   36.7090 C   0  0  0  0  0  3  0  0  0  0  0  0
   42.3110   21.9050   36.5570 H   0  0  0  0  0  0  0  0  0  0  0  0
   40.8000   22.5140   37.8730 O   0  0  0  0  0  0  0  0  0  0  0  0
   39.4820   22.9390   37.6130 C   0  0  0  0  0  3  0  0  0  0  0  0
   38.8530   22.3860   38.3750 H   0  0  0  0  0  0  0  0  0  0  0  0
   37.0870   21.6250   34.2440 C   0  0  0  0  0  3  0  0  0  0  0  0
   37.8540   22.6860   34.1780 C   0  0  0  0  0  3  0  0  0  0  0  0
   35.1850   19.2900   32.0570 C   0  0  0  0  0  0  0  0  0  0  0  0
   35.6140   20.0040   33.1720 C   0  0  0  0  0  0  0  0  0  0  0  0
   36.6450   20.9140   33.0560 C   0  0  0  0  0  0  0  0  0  0  0  0
   37.2130   21.0910   31.8520 N   0  0  0  0  0  0  0  0  0  0  0  0
   36.7900   20.3940   30.7780 C   0  0  0  0  0  0  0  0  0  0  0  0
   35.7940   19.5050   30.8690 N   0  0  0  0  0  0  0  0  0  0  0  0
   34.3740   18.5730   32.1100 H   0  0  0  0  0  0  0  0  0  0  0  0
   35.0660   19.7550   34.0720 H   0  0  0  0  0  0  0  0  0  0  0  0
   37.3650   20.6680   29.9080 H   0  0  0  0  0  0  0  0  0  0  0  0
   39.1060   24.8930   35.0370 S   0  0  0  0  0  0  0  0  0  0  0  0
   38.3360   26.3100   35.8200 C   0  0  0  0  0  0  0  0  0  0  0  0
   39.1370   27.4480   35.7700 F   0  0  0  0  0  0  0  0  0  0  0  0
   37.0640   26.5430   35.3410 F   0  0  0  0  0  0  0  0  0  0  0  0
   38.1870   25.9780   37.1890 F   0  0  0  0  0  0  0  0  0  0  0  0
  1  2  1  1  0  0  0
  3  1  1  6  0  0  0
  3  9  1  0  0  0  0
  4  3  1  0  0  0  0
  4  6  1  0  0  0  0
  5  4  1  0  0  0  0
  6  8  1  0  0  0  0
  7  6  1  0  0  0  0
  9  8  1  0  0  0  0
  9 10  1  0  0  0  0
 12 11  2  0  0  0  0
 12  1  1  0  0  0  0
 13 19  1  0  0  0  0
 13 14  1  0  0  0  0
 14 20  1  0  0  0  0
 15 14  2  0  0  0  0
 15 11  1  0  0  0  0
 16 15  1  0  0  0  0
 17 18  1  0  0  0  0
 17 16  2  0  0  0  0
 18 13  2  0  0  0  0
 21 17  1  0  0  0  0
 22  1  1  0  0  0  0
 22 23  1  0  0  0  0
 23 26  1  0  0  0  0
 24 23  1  0  0  0  0
 25 23  1  0  0  0  0
M  END
>  <minimizedAffinity>
-4.63386631

$$$$

 OpenBabel03272502323D

 26 27  0  0  1  0  0  0  0  0999 V2000
   37.2280   22.3950   33.1370 C   0  0  2  0  0  0  0  0  0  0  0  0
   36.4760   22.6220   33.9360 H   0  0  0  0  0  0  0  0  0  0  0  0
   37.1520   23.4010   32.0280 C   0  0  1  0  0  3  0  0  0  0  0  0
   35.8090   23.2410   31.2890 C   0  0  0  0  0  3  0  0  0  0  0  0
   35.9090   22.6370   30.3840 H   0  0  0  0  0  0  0  0  0  0  0  0
   35.2490   24.6270   31.0910 C   0  0  0  0  0  3  0  0  0  0  0  0
   34.9590   24.7030   30.0210 H   0  0  0  0  0  0  0  0  0  0  0  0
   36.2700   25.4870   31.4540 O   0  0  0  0  0  0  0  0  0  0  0  0
   37.0470   24.8340   32.4320 C   0  0  0  0  0  3  0  0  0  0  0  0
   38.0630   25.3290   32.3600 H   0  0  0  0  0  0  0  0  0  0  0  0
   38.7500   22.6850   34.9530 C   0  0  0  0  0  3  0  0  0  0  0  0
   38.6020   22.3720   33.6890 C   0  0  0  0  0  3  0  0  0  0  0  0
   42.2740   23.5310   35.8030 C   0  0  0  0  0  0  0  0  0  0  0  0
   41.0160   23.5520   35.2090 C   0  0  0  0  0  0  0  0  0  0  0  0
   40.0460   22.6550   35.6110 C   0  0  0  0  0  0  0  0  0  0  0  0
   40.3460   21.7760   36.5810 N   0  0  0  0  0  0  0  0  0  0  0  0
   41.5690   21.7650   37.1500 C   0  0  0  0  0  0  0  0  0  0  0  0
   42.5240   22.6230   36.7730 N   0  0  0  0  0  0  0  0  0  0  0  0
   43.0560   24.2240   35.5180 H   0  0  0  0  0  0  0  0  0  0  0  0
   40.9200   24.3110   34.4430 H   0  0  0  0  0  0  0  0  0  0  0  0
   41.6220   20.9920   37.9000 H   0  0  0  0  0  0  0  0  0  0  0  0
   36.8930   20.7450   32.4200 S   0  0  0  0  0  0  0  0  0  0  0  0
   35.4770   19.9840   33.2130 C   0  0  0  0  0  0  0  0  0  0  0  0
   35.5470   18.5930   33.2100 F   0  0  0  0  0  0  0  0  0  0  0  0
   35.2480   20.4940   34.4740 F   0  0  0  0  0  0  0  0  0  0  0  0
   34.3460   20.3360   32.4350 F   0  0  0  0  0  0  0  0  0  0  0  0
  1 12  1  0  0  0  0
  1  2  1  1  0  0  0
  3  9  1  0  0  0  0
  3  1  1  1  0  0  0
  4  3  1  0  0  0  0
  5  4  1  0  0  0  0
  6  4  1  0  0  0  0
  6  8  1  0  0  0  0
  7  6  1  0  0  0  0
  8  9  1  0  0  0  0
 10  9  1  0  0  0  0
 11 15  1  0  0  0  0
 12 11  2  0  0  0  0
 13 18  1  0  0  0  0
 14 15  1  0  0  0  0
 14 13  2  0  0  0  0
 15 16  2  0  0  0  0
 16 17  1  0  0  0  0
 17 21  1  0  0  0  0
 18 17  2  0  0  0  0
 19 13  1  0  0  0  0
 20 14  1  0  0  0  0
 22  1  1  0  0  0  0
 22 23  1  0  0  0  0
 23 25  1  0  0  0  0
 24 23  1  0  0  0  0
 26 23  1  0  0  0  0
M  END
>  <minimizedAffinity>
-4.45468664

$$$$

 OpenBabel03272502323D

 26 27  0  0  1  0  0  0  0  0999 V2000
   39.0870   24.6340   34.6260 C   0  0  2  0  0  0  0  0  0  0  0  0
   40.1270   24.3400   34.3290 H   0  0  0  0  0  0  0  0  0  0  0  0
   38.9110   26.1210   34.5610 C   0  0  1  0  0  3  0  0  0  0  0  0
   37.5900   26.4450   33.8360 C   0  0  0  0  0  3  0  0  0  0  0  0
   37.7490   26.6800   32.7810 H   0  0  0  0  0  0  0  0  0  0  0  0
   36.8960   27.5120   34.6440 C   0  0  0  0  0  3  0  0  0  0  0  0
   36.5990   28.3090   33.9310 H   0  0  0  0  0  0  0  0  0  0  0  0
   37.8270   27.9210   35.5820 O   0  0  0  0  0  0  0  0  0  0  0  0
   38.6660   26.8220   35.8560 C   0  0  0  0  0  3  0  0  0  0  0  0
   39.6270   27.2880   36.2290 H   0  0  0  0  0  0  0  0  0  0  0  0
   37.8770   22.6960   33.9340 C   0  0  0  0  0  3  0  0  0  0  0  0
   38.0800   23.9790   33.7610 C   0  0  0  0  0  3  0  0  0  0  0  0
   35.6500   21.6820   31.1300 C   0  0  0  0  0  0  0  0  0  0  0  0
   36.6150   22.3530   31.8760 C   0  0  0  0  0  0  0  0  0  0  0  0
   36.8840   21.9600   33.1720 C   0  0  0  0  0  0  0  0  0  0  0  0
   36.1990   20.9230   33.6840 N   0  0  0  0  0  0  0  0  0  0  0  0
   35.2670   20.2800   32.9510 C   0  0  0  0  0  0  0  0  0  0  0  0
   34.9890   20.6470   31.6940 N   0  0  0  0  0  0  0  0  0  0  0  0
   35.4190   21.9590   30.1080 H   0  0  0  0  0  0  0  0  0  0  0  0
   37.0800   23.1660   31.3350 H   0  0  0  0  0  0  0  0  0  0  0  0
   34.8250   19.4840   33.5290 H   0  0  0  0  0  0  0  0  0  0  0  0
   38.7620   24.1080   36.3480 S   0  0  0  0  0  0  0  0  0  0  0  0
   40.0350   22.9810   36.9190 C   0  0  0  0  0  0  0  0  0  0  0  0
   39.7980   21.6660   36.5270 F   0  0  0  0  0  0  0  0  0  0  0  0
   41.3010   23.4090   36.5790 F   0  0  0  0  0  0  0  0  0  0  0  0
   39.9800   22.9990   38.3350 F   0  0  0  0  0  0  0  0  0  0  0  0
  1  2  1  6  0  0  0
  1 22  1  0  0  0  0
  3  1  1  1  0  0  0
  3  9  1  0  0  0  0
  4  3  1  0  0  0  0
  4  6  1  0  0  0  0
  5  4  1  0  0  0  0
  6  8  1  0  0  0  0
  7  6  1  0  0  0  0
  8  9  1  0  0  0  0
  9 10  1  0  0  0  0
 12 11  2  0  0  0  0
 12  1  1  0  0  0  0
 13 18  2  0  0  0  0
 13 14  1  0  0  0  0
 14 15  2  0  0  0  0
 15 16  1  0  0  0  0
 15 11  1  0  0  0  0
 17 21  1  0  0  0  0
 17 16  2  0  0  0  0
 18 17  1  0  0  0  0
 19 13  1  0  0  0  0
 20 14  1  0  0  0  0
 22 23  1  0  0  0  0
 23 26  1  0  0  0  0
 24 23  1  0  0  0  0
 25 23  1  0  0  0  0
M  END
>  <minimizedAffinity>
-4.42812681

$$$$

 OpenBabel03272502323D

 26 27  0  0  1  0  0  0  0  0999 V2000
   37.8830   24.6400   32.2730 C   0  0  2  0  0  0  0  0  0  0  0  0
   38.9270   24.9160   31.9760 H   0  0  0  0  0  0  0  0  0  0  0  0
   37.3110   23.6180   31.3360 C   0  0  1  0  0  3  0  0  0  0  0  0
   37.7390   22.2110   31.7970 C   0  0  0  0  0  3  0  0  0  0  0  0
   38.6090   21.8470   31.2460 H   0  0  0  0  0  0  0  0  0  0  0  0
   36.5130   21.3360   31.7310 C   0  0  0  0  0  3  0  0  0  0  0  0
   36.8070   20.4160   31.1830 H   0  0  0  0  0  0  0  0  0  0  0  0
   35.5590   22.0940   31.0770 O   0  0  0  0  0  0  0  0  0  0  0  0
   35.8280   23.4500   31.3580 C   0  0  0  0  0  3  0  0  0  0  0  0
   35.3650   24.0130   30.4920 H   0  0  0  0  0  0  0  0  0  0  0  0
   38.7660   24.5350   34.4880 C   0  0  0  0  0  3  0  0  0  0  0  0
   37.8430   24.1160   33.6580 C   0  0  0  0  0  3  0  0  0  0  0  0
   39.8290   22.8150   37.6140 C   0  0  0  0  0  0  0  0  0  0  0  0
   39.7870   23.2490   36.2920 C   0  0  0  0  0  0  0  0  0  0  0  0
   38.7990   24.1220   35.8810 C   0  0  0  0  0  0  0  0  0  0  0  0
   37.8950   24.5380   36.7820 N   0  0  0  0  0  0  0  0  0  0  0  0
   37.9460   24.1110   38.0610 C   0  0  0  0  0  0  0  0  0  0  0  0
   38.8930   23.2630   38.4790 N   0  0  0  0  0  0  0  0  0  0  0  0
   40.5940   22.1370   37.9720 H   0  0  0  0  0  0  0  0  0  0  0  0
   40.5770   22.8290   35.6820 H   0  0  0  0  0  0  0  0  0  0  0  0
   37.1400   24.5480   38.6290 H   0  0  0  0  0  0  0  0  0  0  0  0
   36.8080   26.1190   32.2110 S   0  0  0  0  0  0  0  0  0  0  0  0
   37.6770   27.5620   32.8250 C   0  0  0  0  0  0  0  0  0  0  0  0
   37.4040   27.8180   34.1660 F   0  0  0  0  0  0  0  0  0  0  0  0
   39.0310   27.5040   32.5680 F   0  0  0  0  0  0  0  0  0  0  0  0
   37.1840   28.6690   32.0910 F   0  0  0  0  0  0  0  0  0  0  0  0
  1  2  1  6  0  0  0
  1 12  1  0  0  0  0
  3  9  1  0  0  0  0
  3  4  1  0  0  0  0
  3  1  1  1  0  0  0
  5  4  1  0  0  0  0
  6  4  1  0  0  0  0
  7  6  1  0  0  0  0
  8  9  1  0  0  0  0
  8  6  1  0  0  0  0
 10  9  1  0  0  0  0
 11 15  1  0  0  0  0
 12 11  2  0  0  0  0
 13 19  1  0  0  0  0
 13 18  1  0  0  0  0
 14 13  2  0  0  0  0
 15 14  1  0  0  0  0
 15 16  2  0  0  0  0
 16 17  1  0  0  0  0
 17 18  2  0  0  0  0
 17 21  1  0  0  0  0
 20 14  1  0  0  0  0
 22  1  1  0  0  0  0
 22 23  1  0  0  0  0
 23 24  1  0  0  0  0
 25 23  1  0  0  0  0
 26 23  1  0  0  0  0
M  END
>  <minimizedAffinity>
-4.42605352

$$$$

 OpenBabel03272502323D

 26 27  0  0  1  0  0  0  0  0999 V2000
   39.5540   23.7500   35.1180 C   0  0  2  0  0  0  0  0  0  0  0  0
   40.4450   23.3900   34.5430 H   0  0  0  0  0  0  0  0  0  0  0  0
   39.6040   25.2370   35.3070 C   0  0  1  0  0  3  0  0  0  0  0  0
   40.9290   25.7780   34.7350 C   0  0  0  0  0  3  0  0  0  0  0  0
   41.6840   25.9160   35.5120 H   0  0  0  0  0  0  0  0  0  0  0  0
   40.5900   27.0060   33.9280 C   0  0  0  0  0  3  0  0  0  0  0  0
   41.2870   27.8050   34.2580 H   0  0  0  0  0  0  0  0  0  0  0  0
   39.2630   27.2720   34.2110 O   0  0  0  0  0  0  0  0  0  0  0  0
   38.6360   26.0440   34.5070 C   0  0  0  0  0  3  0  0  0  0  0  0
   37.7490   26.3280   35.1500 H   0  0  0  0  0  0  0  0  0  0  0  0
   38.2960   22.2900   33.7110 C   0  0  0  0  0  3  0  0  0  0  0  0
   38.2930   23.3820   34.4370 C   0  0  0  0  0  3  0  0  0  0  0  0
   35.1920   20.3560   33.0170 C   0  0  0  0  0  0  0  0  0  0  0  0
   36.3250   20.8540   33.6540 C   0  0  0  0  0  0  0  0  0  0  0  0
   37.1040   21.8090   33.0320 C   0  0  0  0  0  0  0  0  0  0  0  0
   36.7400   22.2410   31.8140 N   0  0  0  0  0  0  0  0  0  0  0  0
   35.6390   21.7520   31.2060 C   0  0  0  0  0  0  0  0  0  0  0  0
   34.8730   20.8240   31.7900 N   0  0  0  0  0  0  0  0  0  0  0  0
   34.5540   19.6120   33.4790 H   0  0  0  0  0  0  0  0  0  0  0  0
   36.4940   20.4120   34.6270 H   0  0  0  0  0  0  0  0  0  0  0  0
   35.5130   22.2140   30.2400 H   0  0  0  0  0  0  0  0  0  0  0  0
   39.5330   22.9760   36.7770 S   0  0  0  0  0  0  0  0  0  0  0  0
   38.0040   23.3540   37.6330 C   0  0  0  0  0  0  0  0  0  0  0  0
   37.7290   24.7200   37.6580 F   0  0  0  0  0  0  0  0  0  0  0  0
   36.9420   22.6150   37.1560 F   0  0  0  0  0  0  0  0  0  0  0  0
   38.1900   22.9530   38.9790 F   0  0  0  0  0  0  0  0  0  0  0  0
  1  2  1  6  0  0  0
  1 22  1  0  0  0  0
  3  1  1  6  0  0  0
  4  3  1  0  0  0  0
  4  5  1  0  0  0  0
  6  8  1  0  0  0  0
  6  7  1  0  0  0  0
  6  4  1  0  0  0  0
  8  9  1  0  0  0  0
  9 10  1  0  0  0  0
  9  3  1  0  0  0  0
 11 12  2  0  0  0  0
 12  1  1  0  0  0  0
 13 19  1  0  0  0  0
 13 14  1  0  0  0  0
 14 20  1  0  0  0  0
 15 14  2  0  0  0  0
 15 11  1  0  0  0  0
 16 15  1  0  0  0  0
 17 18  1  0  0  0  0
 17 16  2  0  0  0  0
 18 13  2  0  0  0  0
 21 17  1  0  0  0  0
 22 23  1  0  0  0  0
 23 24  1  0  0  0  0
 23 26  1  0  0  0  0
 25 23  1  0  0  0  0
M  END
>  <minimizedAffinity>
-4.34851599

$$$$

 OpenBabel03272502323D

 26 27  0  0  1  0  0  0  0  0999 V2000
   36.0950   27.8900   31.3340 C   0  0  2  0  0  0  0  0  0  0  0  0
   35.5640   27.7300   30.3610 H   0  0  0  0  0  0  0  0  0  0  0  0
   37.4120   28.5740   31.1200 C   0  0  1  0  0  3  0  0  0  0  0  0
   38.5490   27.5450   31.2760 C   0  0  0  0  0  3  0  0  0  0  0  0
   38.9920   27.5730   32.2730 H   0  0  0  0  0  0  0  0  0  0  0  0
   39.5040   27.7700   30.1310 C   0  0  0  0  0  3  0  0  0  0  0  0
   40.5210   27.8270   30.5720 H   0  0  0  0  0  0  0  0  0  0  0  0
   39.0870   28.9470   29.5350 O   0  0  0  0  0  0  0  0  0  0  0  0
   37.6960   29.0560   29.7360 C   0  0  0  0  0  3  0  0  0  0  0  0
   37.4880   30.1670   29.6660 H   0  0  0  0  0  0  0  0  0  0  0  0
   35.7980   29.0010   33.4260 C   0  0  0  0  0  3  0  0  0  0  0  0
   35.2700   28.6900   32.2680 C   0  0  0  0  0  3  0  0  0  0  0  0
   35.1720   31.5360   36.0790 C   0  0  0  0  0  0  0  0  0  0  0  0
   35.8120   30.7570   35.1190 C   0  0  0  0  0  0  0  0  0  0  0  0
   35.0970   29.8180   34.4020 C   0  0  0  0  0  0  0  0  0  0  0  0
   33.7850   29.6820   34.6520 N   0  0  0  0  0  0  0  0  0  0  0  0
   33.1750   30.4430   35.5840 C   0  0  0  0  0  0  0  0  0  0  0  0
   33.8500   31.3570   36.2920 N   0  0  0  0  0  0  0  0  0  0  0  0
   35.7000   32.2870   36.6540 H   0  0  0  0  0  0  0  0  0  0  0  0
   36.8680   30.9750   35.0300 H   0  0  0  0  0  0  0  0  0  0  0  0
   32.1290   30.1890   35.6440 H   0  0  0  0  0  0  0  0  0  0  0  0
   36.4250   26.2770   32.1330 S   0  0  0  0  0  0  0  0  0  0  0  0
   35.7970   24.9310   31.1300 C   0  0  0  0  0  0  0  0  0  0  0  0
   36.7870   24.3400   30.3490 F   0  0  0  0  0  0  0  0  0  0  0  0
   35.0970   24.0060   31.8760 F   0  0  0  0  0  0  0  0  0  0  0  0
   34.8600   25.5040   30.2340 F   0  0  0  0  0  0  0  0  0  0  0  0
  1  2  1  6  0  0  0
  1 22  1  0  0  0  0
  1 12  1  0  0  0  0
  3  4  1  0  0  0  0
  3  1  1  6  0  0  0
  4  5  1  0  0  0  0
  6  7  1  0  0  0  0
  6  4  1  0  0  0  0
  8  9  1  0  0  0  0
  8  6  1  0  0  0  0
  9  3  1  0  0  0  0
 10  9  1  0  0  0  0
 11 15  1  0  0  0  0
 12 11  2  0  0  0  0
 13 18  1  0  0  0  0
 13 19  1  0  0  0  0
 14 13  2  0  0  0  0
 15 16  2  0  0  0  0
 15 14  1  0  0  0  0
 16 17  1  0  0  0  0
 17 21  1  0  0  0  0
 17 18  2  0  0  0  0
 20 14  1  0  0  0  0
 23 25  1  0  0  0  0
 23 22  1  0  0  0  0
 24 23  1  0  0  0  0
 26 23  1  0  0  0  0
M  END
>  <minimizedAffinity>
-4.32025909

$$$$
