
 OpenBabel03272508063D

 34 37  0  0  1  0  0  0  0  0999 V2000
   38.9070   30.8600   45.6990 C   0  0  0  0  0  0  0  0  0  0  0  0
   40.1410   31.4030   45.9440 C   0  0  0  0  0  0  0  0  0  0  0  0
   40.9370   31.3430   44.8050 C   0  0  0  0  0  0  0  0  0  0  0  0
   40.1270   30.7520   43.8970 N   0  0  0  0  0  0  0  0  0  0  0  0
   38.9410   30.4660   44.4070 N   0  0  0  0  0  0  0  0  0  0  0  0
   40.4860   31.8280   46.8810 H   0  0  0  0  0  0  0  0  0  0  0  0
   41.9410   31.6640   44.6220 H   0  0  0  0  0  0  0  0  0  0  0  0
   37.8030   30.7380   46.6310 C   0  0  0  0  0  0  0  0  0  0  0  0
   38.0490   30.9980   48.0060 C   0  0  0  0  0  0  0  0  0  0  0  0
   36.9820   30.8770   48.8870 C   0  0  0  0  0  0  0  0  0  0  0  0
   35.7640   30.5190   48.3830 N   0  0  0  0  0  0  0  0  0  0  0  0
   35.5530   30.2760   47.0670 C   0  0  0  0  0  0  0  0  0  0  0  0
   36.5800   30.3890   46.2010 N   0  0  0  0  0  0  0  0  0  0  0  0
   39.0330   31.2800   48.3590 H   0  0  0  0  0  0  0  0  0  0  0  0
   34.5520   29.9980   46.7660 H   0  0  0  0  0  0  0  0  0  0  0  0
   37.2120   31.1430   50.3280 C   0  0  0  0  0  0  0  0  0  0  0  0
   36.6860   32.3900   50.5640 F   0  0  0  0  0  0  0  0  0  0  0  0
   36.5610   30.2330   51.1470 F   0  0  0  0  0  0  0  0  0  0  0  0
   38.5720   31.1570   50.6370 F   0  0  0  0  0  0  0  0  0  0  0  0
   40.4200   30.4230   42.5030 C   0  0  0  0  0  0  0  0  0  0  0  0
   40.0520   31.2870   41.4570 C   0  0  0  0  0  0  0  0  0  0  0  0
   40.3490   30.9320   40.1740 C   0  0  0  0  0  0  0  0  0  0  0  0
   41.0190   29.7020   39.9310 C   0  0  0  0  0  0  0  0  0  0  0  0
   41.2370   29.0180   41.6430 S   0  0  0  0  0  0  0  0  0  0  0  0
   39.5410   32.2280   41.6040 H   0  0  0  0  0  0  0  0  0  0  0  0
   40.1600   31.4400   39.2450 H   0  0  0  0  0  0  0  0  0  0  0  0
   41.5210   28.9180   38.8810 C   0  0  1  0  0  3  0  0  0  0  0  0
   41.4960   29.6880   37.5910 C   0  0  0  0  0  3  0  0  0  0  0  0
   40.6560   30.4050   37.6560 H   0  0  0  0  0  0  0  0  0  0  0  0
   42.8390   30.3410   37.5480 C   0  0  0  0  0  3  0  0  0  0  0  0
   42.7440   31.4460   37.5500 H   0  0  0  0  0  0  0  0  0  0  0  0
   43.5100   29.9880   38.7120 O   0  0  0  0  0  0  0  0  0  0  0  0
   43.0280   28.7650   39.1140 C   0  0  0  0  0  3  0  0  0  0  0  0
   43.2670   28.6070   40.1840 H   0  0  0  0  0  0  0  0  0  0  0  0
  1  2  1  0  0  0  0
  1  8  1  0  0  0  0
  2  6  1  0  0  0  0
  3  2  2  0  0  0  0
  4  5  1  0  0  0  0
  4  3  1  0  0  0  0
  5  1  2  0  0  0  0
  7  3  1  0  0  0  0
  8  9  1  0  0  0  0
  9 14  1  0  0  0  0
  9 10  2  0  0  0  0
 10 16  1  0  0  0  0
 11 10  1  0  0  0  0
 12 11  2  0  0  0  0
 13  8  2  0  0  0  0
 13 12  1  0  0  0  0
 15 12  1  0  0  0  0
 16 17  1  0  0  0  0
 16 19  1  0  0  0  0
 16 18  1  0  0  0  0
 20  4  1  0  0  0  0
 21 25  1  0  0  0  0
 21 20  2  0  0  0  0
 22 21  1  0  0  0  0
 23 22  2  0  0  0  0
 23 24  1  0  0  0  0
 24 20  1  0  0  0  0
 26 22  1  0  0  0  0
 27 33  1  0  0  0  0
 27 23  1  1  0  0  0
 28 29  1  0  0  0  0
 28 27  1  0  0  0  0
 30 31  1  0  0  0  0
 30 28  1  0  0  0  0
 30 32  1  0  0  0  0
 32 33  1  0  0  0  0
 33 34  1  0  0  0  0
M  END
>  <minimizedAffinity>
-6.09993029

>  <minimizedRMSD>
0.523939371

$$$$
