
 OpenBabel03272508283D

 37 40  0  0  1  0  0  0  0  0999 V2000
   33.9890   28.9670   47.3430 C   0  0  2  0  0  0  0  0  0  0  0  0
   34.7270   28.2340   48.4530 C   0  0  2  0  0  0  0  0  0  0  0  0
   33.8200   28.0930   49.4660 O   0  0  0  0  0  0  0  0  0  0  0  0
   32.5510   28.1400   48.9840 C   0  0  0  0  0  0  0  0  0  0  0  0
   32.6150   28.3000   47.4810 C   0  0  1  0  0  0  0  0  0  0  0  0
   33.8220   30.0220   47.5770 H   0  0  0  0  0  0  0  0  0  0  0  0
   35.0240   27.2580   47.9990 H   0  0  0  0  0  0  0  0  0  0  0  0
   31.9720   27.2490   49.2880 H   0  0  0  0  0  0  0  0  0  0  0  0
   32.0570   29.0560   49.4110 H   0  0  0  0  0  0  0  0  0  0  0  0
   32.6800   27.2980   47.0110 H   0  0  0  0  0  0  0  0  0  0  0  0
   35.7880   30.5150   49.0480 C   0  0  1  0  0  0  0  0  0  0  0  0
   35.8830   29.0880   48.8600 C   0  0  1  0  0  0  0  0  0  0  0  0
   36.0320   29.6010   50.2560 C   0  0  0  0  0  0  0  0  0  0  0  0
   34.8850   31.1200   49.2200 H   0  0  0  0  0  0  0  0  0  0  0  0
   36.8550   28.7110   48.4260 H   0  0  0  0  0  0  0  0  0  0  0  0
   35.1860   29.3680   50.9270 H   0  0  0  0  0  0  0  0  0  0  0  0
   37.0130   29.6190   50.7520 H   0  0  0  0  0  0  0  0  0  0  0  0
   36.9770   31.4240   48.7850 C   0  0  0  0  0  0  0  0  0  0  0  0
   37.1960   32.4740   49.6770 C   0  0  0  0  0  0  0  0  0  0  0  0
   38.2810   33.2870   49.3740 C   0  0  0  0  0  0  0  0  0  0  0  0
   39.0600   33.0440   48.2680 N   0  0  0  0  0  0  0  0  0  0  0  0
   38.8060   32.0110   47.4340 C   0  0  0  0  0  0  0  0  0  0  0  0
   37.7560   31.1950   47.6950 N   0  0  0  0  0  0  0  0  0  0  0  0
   36.5560   32.6170   50.5230 H   0  0  0  0  0  0  0  0  0  0  0  0
   38.4840   34.1140   50.0430 H   0  0  0  0  0  0  0  0  0  0  0  0
   39.4510   31.8700   46.5820 H   0  0  0  0  0  0  0  0  0  0  0  0
   34.5290   28.7590   46.0880 O   0  0  0  0  0  0  0  0  0  0  0  0
   34.5200   27.7820   45.9160 H   0  0  0  0  0  0  0  0  0  0  0  0
   31.6220   29.0770   46.9500 O   0  0  0  0  0  0  0  0  0  0  0  0
   30.7080   28.3930   46.1750 C   0  0  2  0  0  3  0  0  0  0  0  0
   29.4930   27.9460   46.9720 C   0  0  0  0  0  3  0  0  0  0  0  0
   28.6630   28.6490   46.9420 H   0  0  0  0  0  0  0  0  0  0  0  0
   29.0940   26.7160   46.1740 C   0  0  0  0  0  3  0  0  0  0  0  0
   28.4120   27.0120   45.3350 H   0  0  0  0  0  0  0  0  0  0  0  0
   30.2600   26.1400   45.7080 O   0  0  0  0  0  0  0  0  0  0  0  0
   31.2960   27.0530   45.8140 C   0  0  0  0  0  3  0  0  0  0  0  0
   31.9620   27.0810   44.9290 H   0  0  0  0  0  0  0  0  0  0  0  0
  1  5  1  0  0  0  0
  1  6  1  1  0  0  0
  1  2  1  0  0  0  0
  2  7  1  6  0  0  0
  2 12  1  0  0  0  0
  2  3  1  0  0  0  0
  4  8  1  0  0  0  0
  4  9  1  0  0  0  0
  4  3  1  0  0  0  0
  5 10  1  6  0  0  0
  5  4  1  0  0  0  0
 11 14  1  6  0  0  0
 11 13  1  0  0  0  0
 12 15  1  6  0  0  0
 12 11  1  0  0  0  0
 12 13  1  0  0  0  0
 13 17  1  0  0  0  0
 13 16  1  0  0  0  0
 18 11  1  0  0  0  0
 18 19  1  0  0  0  0
 19 24  1  0  0  0  0
 20 19  2  0  0  0  0
 20 25  1  0  0  0  0
 21 20  1  0  0  0  0
 22 23  1  0  0  0  0
 22 21  2  0  0  0  0
 23 18  2  0  0  0  0
 26 22  1  0  0  0  0
 27  1  1  0  0  0  0
 28 27  1  0  0  0  0
 29  5  1  0  0  0  0
 30 29  1  1  0  0  0
 30 31  1  0  0  0  0
 32 31  1  0  0  0  0
 33 31  1  0  0  0  0
 34 33  1  0  0  0  0
 35 36  1  0  0  0  0
 35 33  1  0  0  0  0
 36 30  1  0  0  0  0
 37 36  1  0  0  0  0
M  END
>  <minimizedAffinity>
-4.832232

>  <minimizedRMSD>
0.413375288

$$$$
