
 OpenBabel03272508123D

 33 35  0  0  1  0  0  0  0  0999 V2000
   36.7160   29.4510   44.0950 Cl  0  0  0  0  0  0  0  0  0  0  0  0
   38.3570   29.8490   43.5760 C   0  0  0  0  0  0  0  0  0  0  0  0
   39.3420   30.3430   44.4330 C   0  0  0  0  0  0  0  0  0  0  0  0
   40.5970   30.6150   43.8920 C   0  0  0  0  0  0  0  0  0  0  0  0
   40.8310   30.3950   42.5550 C   0  0  0  0  0  0  0  0  0  0  0  0
   39.8840   29.9130   41.7000 C   0  0  0  0  0  0  0  0  0  0  0  0
   38.6470   29.6420   42.2190 C   0  0  0  0  0  0  0  0  0  0  0  0
   41.2810   30.9910   44.6400 H   0  0  0  0  0  0  0  0  0  0  0  0
   41.8460   30.6390   42.2260 H   0  0  0  0  0  0  0  0  0  0  0  0
   40.1590   29.7720   40.6650 H   0  0  0  0  0  0  0  0  0  0  0  0
   37.6020   29.1160   41.3030 C   0  0  2  0  0  3  0  0  0  0  0  0
   37.6270   27.5980   41.2040 C   0  0  0  0  0  3  0  0  0  0  0  0
   38.3310   27.1230   41.9000 H   0  0  0  0  0  0  0  0  0  0  0  0
   38.0120   27.3950   39.7540 C   0  0  0  0  0  3  0  0  0  0  0  0
   38.6900   26.5130   39.6320 H   0  0  0  0  0  0  0  0  0  0  0  0
   38.6470   28.5720   39.3670 O   0  0  0  0  0  0  0  0  0  0  0  0
   37.8060   29.5460   39.8970 C   0  0  0  0  0  3  0  0  0  0  0  0
   36.8230   29.3900   39.3670 H   0  0  0  0  0  0  0  0  0  0  0  0
   38.8930   30.4830   45.7170 O   0  0  0  0  0  0  0  0  0  0  0  0
   39.4330   32.5680   47.1600 O   0  0  0  0  0  0  0  0  0  0  0  0
   38.3160   31.8720   46.4710 P   0  0  1  0  0  0  0  0  0  0  0  0
   37.7170   32.8620   45.2150 O   0  0  0  0  0  0  0  0  0  0  0  0
   38.4980   33.2130   44.7020 H   0  0  0  0  0  0  0  0  0  0  0  0
   37.0270   31.4450   47.4900 O   0  0  0  0  0  0  0  0  0  0  0  0
   37.5980   30.5110   51.0220 C   0  0  0  0  0  0  0  0  0  0  0  0
   37.6960   31.3030   49.8740 C   0  0  0  0  0  0  0  0  0  0  0  0
   37.0670   30.8540   48.7050 C   0  0  0  0  0  0  0  0  0  0  0  0
   36.3920   29.6700   48.7490 N   0  0  0  0  0  0  0  0  0  0  0  0
   36.3240   28.9390   49.8780 C   0  0  0  0  0  0  0  0  0  0  0  0
   36.9230   29.3600   51.0030 N   0  0  0  0  0  0  0  0  0  0  0  0
   38.1080   30.9120   51.8980 H   0  0  0  0  0  0  0  0  0  0  0  0
   38.2100   32.2470   49.7650 H   0  0  0  0  0  0  0  0  0  0  0  0
   35.7940   27.9960   49.9370 H   0  0  0  0  0  0  0  0  0  0  0  0
  2  1  1  0  0  0  0
  2  3  1  0  0  0  0
  3 19  1  0  0  0  0
  4  3  2  0  0  0  0
  4  8  1  0  0  0  0
  5  4  1  0  0  0  0
  6  7  1  0  0  0  0
  6  5  2  0  0  0  0
  7  2  2  0  0  0  0
  9  5  1  0  0  0  0
 10  6  1  0  0  0  0
 11  7  1  1  0  0  0
 12 11  1  0  0  0  0
 12 13  1  0  0  0  0
 14 12  1  0  0  0  0
 15 14  1  0  0  0  0
 16 14  1  0  0  0  0
 16 17  1  0  0  0  0
 17 11  1  0  0  0  0
 18 17  1  0  0  0  0
 19 21  1  0  0  0  0
 21 20  2  1  0  0  0
 21 24  1  0  0  0  0
 22 21  1  0  0  0  0
 23 22  1  0  0  0  0
 24 27  1  0  0  0  0
 25 31  1  0  0  0  0
 26 25  2  0  0  0  0
 27 28  2  0  0  0  0
 27 26  1  0  0  0  0
 28 29  1  0  0  0  0
 29 33  1  0  0  0  0
 29 30  2  0  0  0  0
 30 25  1  0  0  0  0
 32 26  1  0  0  0  0
M  END
>  <minimizedAffinity>
-4.88134193

>  <minimizedRMSD>
0.239924401

$$$$
