
 OpenBabel03272507503D

 27 29  0  0  1  0  0  0  0  0999 V2000
   35.4470   28.9810   48.9640 C   0  0  0  0  0  0  0  0  0  0  0  0
   35.5860   30.1550   48.2060 C   0  0  0  0  0  0  0  0  0  0  0  0
   34.7600   30.2730   47.0770 C   0  0  0  0  0  0  0  0  0  0  0  0
   33.8920   29.2760   46.7810 N   0  0  0  0  0  0  0  0  0  0  0  0
   33.7850   28.1680   47.5280 C   0  0  0  0  0  0  0  0  0  0  0  0
   34.5690   28.0220   48.6260 N   0  0  0  0  0  0  0  0  0  0  0  0
   34.8730   31.1800   46.4970 H   0  0  0  0  0  0  0  0  0  0  0  0
   33.0530   27.4540   47.1780 H   0  0  0  0  0  0  0  0  0  0  0  0
   36.5300   31.1310   48.6150 N   0  0  0  0  0  0  0  0  0  0  0  0
   36.2910   31.9630   49.6340 C   0  0  0  0  0  0  0  0  0  0  0  0
   37.2480   32.9070   50.0110 C   0  0  0  0  0  0  0  0  0  0  0  0
   38.3870   32.8700   49.2500 C   0  0  0  0  0  0  0  0  0  0  0  0
   39.2840   33.7240   49.5720 O   0  0  0  0  0  0  0  0  0  0  0  0
   38.6610   32.0560   48.2260 N   0  0  0  0  0  0  0  0  0  0  0  0
   37.6880   31.1610   47.9100 C   0  0  0  0  0  0  0  0  0  0  0  0
   37.9320   30.3810   46.9390 O   0  0  0  0  0  0  0  0  0  0  0  0
   35.3570   31.9390   50.1950 H   0  0  0  0  0  0  0  0  0  0  0  0
   37.1180   33.6080   50.8250 H   0  0  0  0  0  0  0  0  0  0  0  0
   39.5700   32.1220   47.7190 H   0  0  0  0  0  0  0  0  0  0  0  0
   36.2290   28.6890   50.1630 C   0  0  2  0  0  3  0  0  0  0  0  0
   35.8070   29.5480   51.3520 C   0  0  0  0  0  3  0  0  0  0  0  0
   35.1450   28.9750   52.0280 H   0  0  0  0  0  0  0  0  0  0  0  0
   37.1250   29.7750   52.0490 C   0  0  0  0  0  3  0  0  0  0  0  0
   37.4880   30.8260   51.9670 H   0  0  0  0  0  0  0  0  0  0  0  0
   38.0740   28.9790   51.3880 O   0  0  0  0  0  0  0  0  0  0  0  0
   37.6820   29.0730   50.0360 C   0  0  0  0  0  3  0  0  0  0  0  0
   38.2730   28.3540   49.4450 H   0  0  0  0  0  0  0  0  0  0  0  0
  2  9  1  0  0  0  0
  2  1  2  0  0  0  0
  3  2  1  0  0  0  0
  4  3  2  0  0  0  0
  4  5  1  0  0  0  0
  5  6  2  0  0  0  0
  6  1  1  0  0  0  0
  7  3  1  0  0  0  0
  8  5  1  0  0  0  0
  9 10  1  0  0  0  0
 10 11  2  0  0  0  0
 10 17  1  0  0  0  0
 11 18  1  0  0  0  0
 12 13  2  0  0  0  0
 12 11  1  0  0  0  0
 14 12  1  0  0  0  0
 15 14  1  0  0  0  0
 15  9  1  0  0  0  0
 16 15  2  0  0  0  0
 19 14  1  0  0  0  0
 20  1  1  6  0  0  0
 20 21  1  0  0  0  0
 21 22  1  0  0  0  0
 21 23  1  0  0  0  0
 24 23  1  0  0  0  0
 25 23  1  0  0  0  0
 26 20  1  0  0  0  0
 26 25  1  0  0  0  0
 27 26  1  0  0  0  0
M  END
>  <minimizedAffinity>
-5.00509405

>  <minimizedRMSD>
1.00473809

$$$$
