
 OpenBabel03272508063D

 34 37  0  0  1  0  0  0  0  0999 V2000
   38.9190   30.8910   45.7750 C   0  0  0  0  0  0  0  0  0  0  0  0
   40.1140   31.5100   46.0290 C   0  0  0  0  0  0  0  0  0  0  0  0
   40.9440   31.4490   44.9140 C   0  0  0  0  0  0  0  0  0  0  0  0
   40.1930   30.7790   44.0110 N   0  0  0  0  0  0  0  0  0  0  0  0
   39.0110   30.4480   44.5010 N   0  0  0  0  0  0  0  0  0  0  0  0
   40.4090   31.9900   46.9570 H   0  0  0  0  0  0  0  0  0  0  0  0
   41.9330   31.8170   44.7440 H   0  0  0  0  0  0  0  0  0  0  0  0
   37.7980   30.7450   46.6820 C   0  0  0  0  0  0  0  0  0  0  0  0
   38.0160   30.9730   48.0670 C   0  0  0  0  0  0  0  0  0  0  0  0
   36.9330   30.8300   48.9250 C   0  0  0  0  0  0  0  0  0  0  0  0
   35.7260   30.4810   48.3900 N   0  0  0  0  0  0  0  0  0  0  0  0
   35.5410   30.2690   47.0650 C   0  0  0  0  0  0  0  0  0  0  0  0
   36.5830   30.4040   46.2210 N   0  0  0  0  0  0  0  0  0  0  0  0
   38.9930   31.2490   48.4460 H   0  0  0  0  0  0  0  0  0  0  0  0
   34.5460   29.9960   46.7380 H   0  0  0  0  0  0  0  0  0  0  0  0
   37.1350   31.0620   50.3760 C   0  0  0  0  0  0  0  0  0  0  0  0
   36.6000   32.3020   50.6310 F   0  0  0  0  0  0  0  0  0  0  0  0
   36.4720   30.1310   51.1610 F   0  0  0  0  0  0  0  0  0  0  0  0
   38.4890   31.0730   50.7110 F   0  0  0  0  0  0  0  0  0  0  0  0
   40.5420   30.4120   42.6390 C   0  0  0  0  0  0  0  0  0  0  0  0
   40.2110   31.2430   41.5550 C   0  0  0  0  0  0  0  0  0  0  0  0
   40.5590   30.8530   40.2960 C   0  0  0  0  0  0  0  0  0  0  0  0
   41.2450   29.6210   40.1150 C   0  0  0  0  0  0  0  0  0  0  0  0
   41.3990   28.9880   41.8530 S   0  0  0  0  0  0  0  0  0  0  0  0
   39.6900   32.1850   41.6550 H   0  0  0  0  0  0  0  0  0  0  0  0
   40.4050   31.3330   39.3460 H   0  0  0  0  0  0  0  0  0  0  0  0
   41.7920   28.8100   39.1080 C   0  0  1  0  0  3  0  0  0  0  0  0
   41.2860   27.4030   39.2300 C   0  0  0  0  0  3  0  0  0  0  0  0
   41.0730   27.2250   40.3010 H   0  0  0  0  0  0  0  0  0  0  0  0
   40.0660   27.3950   38.3680 C   0  0  0  0  0  3  0  0  0  0  0  0
   39.1590   27.1690   38.9650 H   0  0  0  0  0  0  0  0  0  0  0  0
   39.9090   28.6760   37.8570 O   0  0  0  0  0  0  0  0  0  0  0  0
   41.1580   29.2490   37.7840 C   0  0  0  0  0  3  0  0  0  0  0  0
   41.0550   30.3490   37.7190 H   0  0  0  0  0  0  0  0  0  0  0  0
  1  2  1  0  0  0  0
  1  8  1  0  0  0  0
  2  6  1  0  0  0  0
  3  2  2  0  0  0  0
  4  5  1  0  0  0  0
  4  3  1  0  0  0  0
  5  1  2  0  0  0  0
  7  3  1  0  0  0  0
  8  9  1  0  0  0  0
  9 14  1  0  0  0  0
  9 10  2  0  0  0  0
 10 16  1  0  0  0  0
 11 10  1  0  0  0  0
 12 11  2  0  0  0  0
 13  8  2  0  0  0  0
 13 12  1  0  0  0  0
 15 12  1  0  0  0  0
 16 17  1  0  0  0  0
 16 19  1  0  0  0  0
 16 18  1  0  0  0  0
 20  4  1  0  0  0  0
 21 25  1  0  0  0  0
 21 20  2  0  0  0  0
 22 21  1  0  0  0  0
 23 22  2  0  0  0  0
 23 24  1  0  0  0  0
 24 20  1  0  0  0  0
 26 22  1  0  0  0  0
 27 28  1  0  0  0  0
 27 23  1  1  0  0  0
 28 29  1  0  0  0  0
 30 31  1  0  0  0  0
 30 28  1  0  0  0  0
 32 30  1  0  0  0  0
 33 32  1  0  0  0  0
 33 27  1  0  0  0  0
 34 33  1  0  0  0  0
M  END
>  <minimizedAffinity>
-6.14314747

>  <minimizedRMSD>
0.401837647

$$$$
