
 OpenBabel03272505053D

 44 47  0  0  1  0  0  0  0  0999 V2000
   38.4810   26.1250   34.0090 C   0  0  2  0  0  0  0  0  0  0  0  0
   38.3120   27.3970   34.8890 C   0  0  0  0  0  0  0  0  0  0  0  0
   36.8890   27.7730   34.9590 C   0  0  0  0  0  0  0  0  0  0  0  0
   36.4240   28.3310   33.6400 C   0  0  0  0  0  0  0  0  0  0  0  0
   37.3080   27.8210   32.5700 C   0  0  0  0  0  0  0  0  0  0  0  0
   37.7200   26.3890   32.7800 C   0  0  2  0  0  0  0  0  0  0  0  0
   39.5810   26.0340   33.9580 H   0  0  0  0  0  0  0  0  0  0  0  0
   38.6760   27.0860   35.8960 H   0  0  0  0  0  0  0  0  0  0  0  0
   38.9090   28.2240   34.5270 H   0  0  0  0  0  0  0  0  0  0  0  0
   36.1330   27.0080   35.1200 H   0  0  0  0  0  0  0  0  0  0  0  0
   36.7730   28.5130   35.7840 H   0  0  0  0  0  0  0  0  0  0  0  0
   35.3500   28.2520   33.4410 H   0  0  0  0  0  0  0  0  0  0  0  0
   36.5990   29.4470   33.7270 H   0  0  0  0  0  0  0  0  0  0  0  0
   36.9670   27.9690   31.5320 H   0  0  0  0  0  0  0  0  0  0  0  0
   38.2610   28.4320   32.6050 H   0  0  0  0  0  0  0  0  0  0  0  0
   38.5170   26.2980   31.9650 H   0  0  0  0  0  0  0  0  0  0  0  0
   36.7670   25.3600   32.3240 C   0  0  2  0  0  3  0  0  0  0  0  0
   37.4880   24.2470   31.5690 C   0  0  0  0  0  3  0  0  0  0  0  0
   37.9370   24.6100   30.6170 H   0  0  0  0  0  0  0  0  0  0  0  0
   36.2450   23.4740   31.1050 C   0  0  0  0  0  3  0  0  0  0  0  0
   36.0720   22.5640   31.7140 H   0  0  0  0  0  0  0  0  0  0  0  0
   35.1900   24.3700   31.1160 O   0  0  0  0  0  0  0  0  0  0  0  0
   35.7220   25.6580   31.3380 C   0  0  0  0  0  3  0  0  0  0  0  0
   36.0330   26.0310   30.3590 H   0  0  0  0  0  0  0  0  0  0  0  0
   37.9370   25.1210   34.7490 O   0  0  0  0  0  0  0  0  0  0  0  0
   40.5070   23.9300   34.1080 Cl  0  0  0  0  0  0  0  0  0  0  0  0
   39.7250   23.8130   35.6570 C   0  0  0  0  0  0  0  0  0  0  0  0
   40.3570   23.1100   36.6470 C   0  0  0  0  0  0  0  0  0  0  0  0
   39.7050   23.0360   37.8590 C   0  0  0  0  0  0  0  0  0  0  0  0
   38.4800   23.6530   38.0200 C   0  0  0  0  0  0  0  0  0  0  0  0
   37.8760   24.3490   37.0050 C   0  0  0  0  0  0  0  0  0  0  0  0
   38.5130   24.4290   35.8010 C   0  0  0  0  0  0  0  0  0  0  0  0
   40.1660   22.4890   38.6770 H   0  0  0  0  0  0  0  0  0  0  0  0
   37.9640   23.5920   38.9840 H   0  0  0  0  0  0  0  0  0  0  0  0
   36.9210   24.8090   37.1910 H   0  0  0  0  0  0  0  0  0  0  0  0
   41.7630   21.0430   36.4470 C   0  0  0  0  0  0  0  0  0  0  0  0
   41.6640   22.4500   36.4800 C   0  0  0  0  0  0  0  0  0  0  0  0
   42.8310   23.1900   36.3550 C   0  0  0  0  0  0  0  0  0  0  0  0
   44.0000   22.5220   36.2070 N   0  0  0  0  0  0  0  0  0  0  0  0
   44.0720   21.1880   36.1780 C   0  0  0  0  0  0  0  0  0  0  0  0
   42.9610   20.4420   36.2970 N   0  0  0  0  0  0  0  0  0  0  0  0
   40.8200   20.5430   36.5500 H   0  0  0  0  0  0  0  0  0  0  0  0
   42.7840   24.2680   36.3770 H   0  0  0  0  0  0  0  0  0  0  0  0
   44.9810   20.6160   36.0620 H   0  0  0  0  0  0  0  0  0  0  0  0
  1  7  1  6  0  0  0
  1 25  1  0  0  0  0
  1  2  1  0  0  0  0
  2  3  1  0  0  0  0
  2  8  1  0  0  0  0
  3 10  1  0  0  0  0
  3 11  1  0  0  0  0
  4 13  1  0  0  0  0
  4  3  1  0  0  0  0
  5 15  1  0  0  0  0
  5  6  1  0  0  0  0
  5  4  1  0  0  0  0
  6 16  1  6  0  0  0
  6  1  1  0  0  0  0
  9  2  1  0  0  0  0
 12  4  1  0  0  0  0
 14  5  1  0  0  0  0
 17 23  1  6  0  0  0
 17  6  1  0  0  0  0
 18 17  1  0  0  0  0
 19 18  1  0  0  0  0
 20 22  1  0  0  0  0
 20 18  1  0  0  0  0
 20 21  1  0  0  0  0
 22 23  1  0  0  0  0
 24 23  1  0  0  0  0
 25 32  1  0  0  0  0
 26 27  1  0  0  0  0
 27 32  2  0  0  0  0
 27 28  1  0  0  0  0
 28 29  2  0  0  0  0
 29 30  1  0  0  0  0
 29 33  1  0  0  0  0
 30 34  1  0  0  0  0
 31 35  1  0  0  0  0
 31 30  2  0  0  0  0
 32 31  1  0  0  0  0
 36 37  1  0  0  0  0
 36 42  1  0  0  0  0
 37 28  1  0  0  0  0
 38 43  1  0  0  0  0
 38 37  2  0  0  0  0
 39 38  1  0  0  0  0
 40 39  2  0  0  0  0
 40 41  1  0  0  0  0
 41 36  2  0  0  0  0
 44 40  1  0  0  0  0
M  END
>  <minimizedAffinity>
-5.94881058

$$$$

 OpenBabel03272505053D

 44 47  0  0  1  0  0  0  0  0999 V2000
   38.5890   26.3400   33.1470 C   0  0  2  0  0  0  0  0  0  0  0  0
   39.7930   27.0500   32.4630 C   0  0  0  0  0  0  0  0  0  0  0  0
   41.0500   26.3820   32.8440 C   0  0  0  0  0  0  0  0  0  0  0  0
   41.3880   26.6730   34.2820 C   0  0  0  0  0  0  0  0  0  0  0  0
   40.1440   27.0240   35.0010 C   0  0  0  0  0  0  0  0  0  0  0  0
   38.9600   26.2050   34.5630 C   0  0  2  0  0  0  0  0  0  0  0  0
   37.7510   27.0030   32.8660 H   0  0  0  0  0  0  0  0  0  0  0  0
   39.6060   26.9180   31.3720 H   0  0  0  0  0  0  0  0  0  0  0  0
   39.8320   28.1040   32.7010 H   0  0  0  0  0  0  0  0  0  0  0  0
   41.1090   25.2960   32.8490 H   0  0  0  0  0  0  0  0  0  0  0  0
   41.8480   26.7400   32.1530 H   0  0  0  0  0  0  0  0  0  0  0  0
   42.0270   25.9360   34.7800 H   0  0  0  0  0  0  0  0  0  0  0  0
   42.0340   27.6020   34.2400 H   0  0  0  0  0  0  0  0  0  0  0  0
   40.1990   27.0530   36.1020 H   0  0  0  0  0  0  0  0  0  0  0  0
   39.9000   28.0980   34.7380 H   0  0  0  0  0  0  0  0  0  0  0  0
   38.1260   26.7740   35.0980 H   0  0  0  0  0  0  0  0  0  0  0  0
   38.8120   24.8800   35.1920 C   0  0  2  0  0  3  0  0  0  0  0  0
   38.1260   24.9960   36.5500 C   0  0  0  0  0  3  0  0  0  0  0  0
   38.7480   25.5530   37.2870 H   0  0  0  0  0  0  0  0  0  0  0  0
   38.2830   23.5320   36.9860 C   0  0  0  0  0  3  0  0  0  0  0  0
   37.3390   22.9630   36.8730 H   0  0  0  0  0  0  0  0  0  0  0  0
   39.3450   23.0130   36.2660 O   0  0  0  0  0  0  0  0  0  0  0  0
   39.9760   24.0830   35.5970 C   0  0  0  0  0  3  0  0  0  0  0  0
   40.6720   24.5230   36.3150 H   0  0  0  0  0  0  0  0  0  0  0  0
   38.4980   25.1360   32.5200 O   0  0  0  0  0  0  0  0  0  0  0  0
   38.5650   22.2490   32.8300 Cl  0  0  0  0  0  0  0  0  0  0  0  0
   37.2350   23.1360   32.1460 C   0  0  0  0  0  0  0  0  0  0  0  0
   36.1420   22.4310   31.7200 C   0  0  0  0  0  0  0  0  0  0  0  0
   35.1090   23.1690   31.1800 C   0  0  0  0  0  0  0  0  0  0  0  0
   35.2170   24.5420   31.0940 C   0  0  0  0  0  0  0  0  0  0  0  0
   36.3280   25.2150   31.5310 C   0  0  0  0  0  0  0  0  0  0  0  0
   37.3560   24.4950   32.0670 C   0  0  0  0  0  0  0  0  0  0  0  0
   34.2190   22.6550   30.8270 H   0  0  0  0  0  0  0  0  0  0  0  0
   34.3950   25.1250   30.6640 H   0  0  0  0  0  0  0  0  0  0  0  0
   36.3530   26.2870   31.4370 H   0  0  0  0  0  0  0  0  0  0  0  0
   35.5120   20.3540   32.9760 C   0  0  0  0  0  0  0  0  0  0  0  0
   36.0220   20.9660   31.8110 C   0  0  0  0  0  0  0  0  0  0  0  0
   36.4080   20.1480   30.7590 C   0  0  0  0  0  0  0  0  0  0  0  0
   36.2740   18.8070   30.9080 N   0  0  0  0  0  0  0  0  0  0  0  0
   35.7890   18.2480   32.0200 C   0  0  0  0  0  0  0  0  0  0  0  0
   35.4060   19.0120   33.0570 N   0  0  0  0  0  0  0  0  0  0  0  0
   35.2380   21.0520   33.7420 H   0  0  0  0  0  0  0  0  0  0  0  0
   36.8010   20.5890   29.8550 H   0  0  0  0  0  0  0  0  0  0  0  0
   35.6650   17.1880   32.1810 H   0  0  0  0  0  0  0  0  0  0  0  0
  1  7  1  6  0  0  0
  1  6  1  0  0  0  0
  2  9  1  0  0  0  0
  2  3  1  0  0  0  0
  2  1  1  0  0  0  0
  3 10  1  0  0  0  0
  3  4  1  0  0  0  0
  4 12  1  0  0  0  0
  4  5  1  0  0  0  0
  5 14  1  0  0  0  0
  6  5  1  0  0  0  0
  6 16  1  1  0  0  0
  6 17  1  0  0  0  0
  8  2  1  0  0  0  0
 11  3  1  0  0  0  0
 13  4  1  0  0  0  0
 15  5  1  0  0  0  0
 17 23  1  1  0  0  0
 17 18  1  0  0  0  0
 18 20  1  0  0  0  0
 18 19  1  0  0  0  0
 21 20  1  0  0  0  0
 22 20  1  0  0  0  0
 23 22  1  0  0  0  0
 23 24  1  0  0  0  0
 25  1  1  0  0  0  0
 27 26  1  0  0  0  0
 28 37  1  0  0  0  0
 28 27  2  0  0  0  0
 29 28  1  0  0  0  0
 30 29  2  0  0  0  0
 30 31  1  0  0  0  0
 31 32  2  0  0  0  0
 32 27  1  0  0  0  0
 32 25  1  0  0  0  0
 33 29  1  0  0  0  0
 34 30  1  0  0  0  0
 35 31  1  0  0  0  0
 36 41  1  0  0  0  0
 36 42  1  0  0  0  0
 37 36  2  0  0  0  0
 38 39  2  0  0  0  0
 38 37  1  0  0  0  0
 39 40  1  0  0  0  0
 40 44  1  0  0  0  0
 40 41  2  0  0  0  0
 43 38  1  0  0  0  0
M  END
>  <minimizedAffinity>
-5.73222399

$$$$

 OpenBabel03272505053D

 44 47  0  0  1  0  0  0  0  0999 V2000
   34.5890   30.4970   34.0900 C   0  0  2  0  0  0  0  0  0  0  0  0
   35.7360   31.4480   34.5350 C   0  0  0  0  0  0  0  0  0  0  0  0
   35.9180   31.3670   35.9940 C   0  0  0  0  0  0  0  0  0  0  0  0
   34.7690   32.0300   36.7080 C   0  0  0  0  0  0  0  0  0  0  0  0
   33.5940   32.0390   35.8090 C   0  0  0  0  0  0  0  0  0  0  0  0
   33.4660   30.7800   34.9950 C   0  0  2  0  0  0  0  0  0  0  0  0
   34.4970   30.7450   33.0170 H   0  0  0  0  0  0  0  0  0  0  0  0
   36.6390   31.0520   34.0150 H   0  0  0  0  0  0  0  0  0  0  0  0
   35.5600   32.4700   34.2270 H   0  0  0  0  0  0  0  0  0  0  0  0
   35.9160   30.3980   36.4890 H   0  0  0  0  0  0  0  0  0  0  0  0
   36.8910   31.8490   36.2440 H   0  0  0  0  0  0  0  0  0  0  0  0
   34.5780   31.6840   37.7290 H   0  0  0  0  0  0  0  0  0  0  0  0
   35.1030   33.1030   36.8470 H   0  0  0  0  0  0  0  0  0  0  0  0
   32.6230   32.2960   36.2650 H   0  0  0  0  0  0  0  0  0  0  0  0
   33.7480   32.8800   35.0680 H   0  0  0  0  0  0  0  0  0  0  0  0
   32.6360   31.1000   34.2770 H   0  0  0  0  0  0  0  0  0  0  0  0
   32.8070   29.6380   35.6560 C   0  0  2  0  0  3  0  0  0  0  0  0
   31.7390   29.0280   34.7520 C   0  0  0  0  0  3  0  0  0  0  0  0
   30.8950   29.7310   34.5700 H   0  0  0  0  0  0  0  0  0  0  0  0
   31.1590   28.0290   35.7640 C   0  0  0  0  0  3  0  0  0  0  0  0
   31.5100   26.9950   35.5720 H   0  0  0  0  0  0  0  0  0  0  0  0
   31.4740   28.5080   37.0240 O   0  0  0  0  0  0  0  0  0  0  0  0
   32.0020   29.8070   36.8710 C   0  0  0  0  0  3  0  0  0  0  0  0
   31.1430   30.4810   36.8250 H   0  0  0  0  0  0  0  0  0  0  0  0
   35.0910   29.2460   34.2650 O   0  0  0  0  0  0  0  0  0  0  0  0
   37.4120   28.0610   35.5490 Cl  0  0  0  0  0  0  0  0  0  0  0  0
   37.0340   27.9050   33.8580 C   0  0  0  0  0  0  0  0  0  0  0  0
   37.8850   27.1770   33.0720 C   0  0  0  0  0  0  0  0  0  0  0  0
   37.5540   27.0790   31.7370 C   0  0  0  0  0  0  0  0  0  0  0  0
   36.4150   27.6990   31.2640 C   0  0  0  0  0  0  0  0  0  0  0  0
   35.5850   28.4210   32.0820 C   0  0  0  0  0  0  0  0  0  0  0  0
   35.9030   28.5240   33.4050 C   0  0  0  0  0  0  0  0  0  0  0  0
   38.1980   26.5120   31.0710 H   0  0  0  0  0  0  0  0  0  0  0  0
   36.1540   27.6190   30.2030 H   0  0  0  0  0  0  0  0  0  0  0  0
   34.7110   28.8810   31.6540 H   0  0  0  0  0  0  0  0  0  0  0  0
   40.3410   27.1890   33.5820 C   0  0  0  0  0  0  0  0  0  0  0  0
   39.1010   26.5130   33.5720 C   0  0  0  0  0  0  0  0  0  0  0  0
   39.0650   25.2090   34.0440 C   0  0  0  0  0  0  0  0  0  0  0  0
   40.2190   24.6560   34.4890 N   0  0  0  0  0  0  0  0  0  0  0  0
   41.3820   25.3130   34.4890 C   0  0  0  0  0  0  0  0  0  0  0  0
   41.4520   26.5770   34.0390 N   0  0  0  0  0  0  0  0  0  0  0  0
   40.2870   28.1900   33.2020 H   0  0  0  0  0  0  0  0  0  0  0  0
   38.1300   24.6690   34.0490 H   0  0  0  0  0  0  0  0  0  0  0  0
   42.3240   24.9120   34.8330 H   0  0  0  0  0  0  0  0  0  0  0  0
  1  7  1  6  0  0  0
  1 25  1  0  0  0  0
  1  2  1  0  0  0  0
  1  6  1  0  0  0  0
  2  3  1  0  0  0  0
  3 11  1  0  0  0  0
  3 10  1  0  0  0  0
  3  4  1  0  0  0  0
  4 13  1  0  0  0  0
  4 12  1  0  0  0  0
  5 14  1  0  0  0  0
  5  4  1  0  0  0  0
  6 16  1  6  0  0  0
  6 17  1  0  0  0  0
  6  5  1  0  0  0  0
  8  2  1  0  0  0  0
  9  2  1  0  0  0  0
 15  5  1  0  0  0  0
 17 18  1  6  0  0  0
 17 23  1  0  0  0  0
 18 20  1  0  0  0  0
 19 18  1  0  0  0  0
 20 22  1  0  0  0  0
 21 20  1  0  0  0  0
 23 22  1  0  0  0  0
 24 23  1  0  0  0  0
 27 26  1  0  0  0  0
 28 37  1  0  0  0  0
 28 27  2  0  0  0  0
 29 28  1  0  0  0  0
 30 29  2  0  0  0  0
 30 31  1  0  0  0  0
 31 32  2  0  0  0  0
 32 27  1  0  0  0  0
 32 25  1  0  0  0  0
 33 29  1  0  0  0  0
 34 30  1  0  0  0  0
 35 31  1  0  0  0  0
 36 41  1  0  0  0  0
 37 36  2  0  0  0  0
 37 38  1  0  0  0  0
 38 43  1  0  0  0  0
 38 39  2  0  0  0  0
 39 40  1  0  0  0  0
 40 44  1  0  0  0  0
 41 40  2  0  0  0  0
 42 36  1  0  0  0  0
M  END
>  <minimizedAffinity>
-5.55876541

$$$$

 OpenBabel03272505053D

 44 47  0  0  1  0  0  0  0  0999 V2000
   39.4810   24.4260   33.9210 C   0  0  2  0  0  0  0  0  0  0  0  0
   40.1670   23.5700   32.8190 C   0  0  0  0  0  0  0  0  0  0  0  0
   40.1140   22.1440   33.1860 C   0  0  0  0  0  0  0  0  0  0  0  0
   41.0530   21.8570   34.3280 C   0  0  0  0  0  0  0  0  0  0  0  0
   41.2860   23.1110   35.0770 C   0  0  0  0  0  0  0  0  0  0  0  0
   40.0530   23.9640   35.1940 C   0  0  2  0  0  0  0  0  0  0  0  0
   39.6930   25.4520   33.5710 H   0  0  0  0  0  0  0  0  0  0  0  0
   39.5520   23.7520   31.9070 H   0  0  0  0  0  0  0  0  0  0  0  0
   41.1860   23.8810   32.6370 H   0  0  0  0  0  0  0  0  0  0  0  0
   39.1950   21.7180   33.5820 H   0  0  0  0  0  0  0  0  0  0  0  0
   40.3750   21.5490   32.2800 H   0  0  0  0  0  0  0  0  0  0  0  0
   40.8080   20.9830   34.9390 H   0  0  0  0  0  0  0  0  0  0  0  0
   42.0280   21.5690   33.8290 H   0  0  0  0  0  0  0  0  0  0  0  0
   41.7780   23.0170   36.0600 H   0  0  0  0  0  0  0  0  0  0  0  0
   42.0350   23.7190   34.4840 H   0  0  0  0  0  0  0  0  0  0  0  0
   40.5190   24.9170   35.6220 H   0  0  0  0  0  0  0  0  0  0  0  0
   39.1220   23.6220   36.2850 C   0  0  2  0  0  3  0  0  0  0  0  0
   38.4710   24.8770   36.8600 C   0  0  0  0  0  3  0  0  0  0  0  0
   39.2120   25.5380   37.3640 H   0  0  0  0  0  0  0  0  0  0  0  0
   37.7360   24.2100   38.0320 C   0  0  0  0  0  3  0  0  0  0  0  0
   36.6540   24.0860   37.8240 H   0  0  0  0  0  0  0  0  0  0  0  0
   38.3990   23.0250   38.2970 O   0  0  0  0  0  0  0  0  0  0  0  0
   39.5890   23.0190   37.5390 C   0  0  0  0  0  3  0  0  0  0  0  0
   40.3280   23.5680   38.1270 H   0  0  0  0  0  0  0  0  0  0  0  0
   38.1580   24.1310   33.8130 O   0  0  0  0  0  0  0  0  0  0  0  0
   37.9160   27.0210   33.6460 Cl  0  0  0  0  0  0  0  0  0  0  0  0
   37.0410   25.9000   32.6460 C   0  0  0  0  0  0  0  0  0  0  0  0
   36.1750   26.4070   31.7150 C   0  0  0  0  0  0  0  0  0  0  0  0
   35.4960   25.4870   30.9430 C   0  0  0  0  0  0  0  0  0  0  0  0
   35.7120   24.1360   31.1350 C   0  0  0  0  0  0  0  0  0  0  0  0
   36.5870   23.6650   32.0780 C   0  0  0  0  0  0  0  0  0  0  0  0
   37.2640   24.5660   32.8470 C   0  0  0  0  0  0  0  0  0  0  0  0
   34.7980   25.8390   30.1900 H   0  0  0  0  0  0  0  0  0  0  0  0
   35.1710   23.4080   30.5210 H   0  0  0  0  0  0  0  0  0  0  0  0
   36.7120   22.6010   32.1800 H   0  0  0  0  0  0  0  0  0  0  0  0
   35.0630   28.5650   32.3440 C   0  0  0  0  0  0  0  0  0  0  0  0
   35.9430   27.8460   31.5060 C   0  0  0  0  0  0  0  0  0  0  0  0
   36.5780   28.5350   30.4830 C   0  0  0  0  0  0  0  0  0  0  0  0
   36.3190   29.8570   30.3440 N   0  0  0  0  0  0  0  0  0  0  0  0
   35.4820   30.5190   31.1480 C   0  0  0  0  0  0  0  0  0  0  0  0
   34.8500   29.8820   32.1490 N   0  0  0  0  0  0  0  0  0  0  0  0
   34.6110   27.9640   33.1090 H   0  0  0  0  0  0  0  0  0  0  0  0
   37.2570   28.0100   29.8280 H   0  0  0  0  0  0  0  0  0  0  0  0
   35.2470   31.5700   31.0730 H   0  0  0  0  0  0  0  0  0  0  0  0
  1  7  1  6  0  0  0
  1  6  1  0  0  0  0
  2  3  1  0  0  0  0
  2  1  1  0  0  0  0
  3 10  1  0  0  0  0
  3  4  1  0  0  0  0
  4 12  1  0  0  0  0
  4  5  1  0  0  0  0
  5  6  1  0  0  0  0
  5 14  1  0  0  0  0
  6 16  1  1  0  0  0
  6 17  1  0  0  0  0
  8  2  1  0  0  0  0
  9  2  1  0  0  0  0
 11  3  1  0  0  0  0
 13  4  1  0  0  0  0
 15  5  1  0  0  0  0
 17 18  1  1  0  0  0
 17 23  1  0  0  0  0
 18 19  1  0  0  0  0
 18 20  1  0  0  0  0
 20 22  1  0  0  0  0
 21 20  1  0  0  0  0
 23 24  1  0  0  0  0
 23 22  1  0  0  0  0
 25  1  1  0  0  0  0
 27 32  1  0  0  0  0
 27 26  1  0  0  0  0
 28 27  2  0  0  0  0
 29 30  2  0  0  0  0
 29 28  1  0  0  0  0
 30 31  1  0  0  0  0
 31 35  1  0  0  0  0
 31 32  2  0  0  0  0
 32 25  1  0  0  0  0
 33 29  1  0  0  0  0
 34 30  1  0  0  0  0
 36 42  1  0  0  0  0
 37 28  1  0  0  0  0
 37 36  2  0  0  0  0
 38 37  1  0  0  0  0
 39 38  2  0  0  0  0
 39 40  1  0  0  0  0
 40 41  2  0  0  0  0
 41 36  1  0  0  0  0
 43 38  1  0  0  0  0
 44 40  1  0  0  0  0
M  END
>  <minimizedAffinity>
-5.42929411

$$$$

 OpenBabel03272505053D

 44 47  0  0  1  0  0  0  0  0999 V2000
   38.7770   22.7490   34.8260 C   0  0  2  0  0  0  0  0  0  0  0  0
   37.8770   22.5280   36.0760 C   0  0  0  0  0  0  0  0  0  0  0  0
   38.3010   23.4280   37.1630 C   0  0  0  0  0  0  0  0  0  0  0  0
   39.6190   22.9800   37.7370 C   0  0  0  0  0  0  0  0  0  0  0  0
   40.3330   22.1800   36.7170 C   0  0  0  0  0  0  0  0  0  0  0  0
   40.1600   22.7160   35.3220 C   0  0  2  0  0  0  0  0  0  0  0  0
   38.4230   21.9480   34.1520 H   0  0  0  0  0  0  0  0  0  0  0  0
   36.8540   22.8030   35.7300 H   0  0  0  0  0  0  0  0  0  0  0  0
   37.8850   21.4990   36.4060 H   0  0  0  0  0  0  0  0  0  0  0  0
   38.5290   24.4690   36.9490 H   0  0  0  0  0  0  0  0  0  0  0  0
   37.4960   23.4320   37.9350 H   0  0  0  0  0  0  0  0  0  0  0  0
   40.2150   23.7560   38.2270 H   0  0  0  0  0  0  0  0  0  0  0  0
   39.3380   22.2830   38.5850 H   0  0  0  0  0  0  0  0  0  0  0  0
   41.3970   21.9650   36.9120 H   0  0  0  0  0  0  0  0  0  0  0  0
   39.8690   21.1480   36.7190 H   0  0  0  0  0  0  0  0  0  0  0  0
   40.6210   21.8550   34.7280 H   0  0  0  0  0  0  0  0  0  0  0  0
   41.0620   23.8130   34.9260 C   0  0  2  0  0  3  0  0  0  0  0  0
   41.5330   23.6370   33.4850 C   0  0  0  0  0  3  0  0  0  0  0  0
   42.1720   22.7340   33.3620 H   0  0  0  0  0  0  0  0  0  0  0  0
   42.5430   24.7940   33.4560 C   0  0  0  0  0  3  0  0  0  0  0  0
   42.1440   25.6780   32.9200 H   0  0  0  0  0  0  0  0  0  0  0  0
   42.9030   25.0430   34.7690 O   0  0  0  0  0  0  0  0  0  0  0  0
   42.3680   24.0090   35.5660 C   0  0  0  0  0  3  0  0  0  0  0  0
   43.0880   23.1880   35.5210 H   0  0  0  0  0  0  0  0  0  0  0  0
   38.4240   23.9780   34.3610 O   0  0  0  0  0  0  0  0  0  0  0  0
   38.1280   26.8250   33.8680 Cl  0  0  0  0  0  0  0  0  0  0  0  0
   37.4000   25.5760   32.9010 C   0  0  0  0  0  0  0  0  0  0  0  0
   36.6300   25.9540   31.8340 C   0  0  0  0  0  0  0  0  0  0  0  0
   36.0670   24.9360   31.0940 C   0  0  0  0  0  0  0  0  0  0  0  0
   36.2940   23.6210   31.4480 C   0  0  0  0  0  0  0  0  0  0  0  0
   37.0710   23.2800   32.5250 C   0  0  0  0  0  0  0  0  0  0  0  0
   37.6330   24.2790   33.2640 C   0  0  0  0  0  0  0  0  0  0  0  0
   35.4480   25.1840   30.2370 H   0  0  0  0  0  0  0  0  0  0  0  0
   35.8440   22.8150   30.8580 H   0  0  0  0  0  0  0  0  0  0  0  0
   37.2110   22.2370   32.7500 H   0  0  0  0  0  0  0  0  0  0  0  0
   35.4550   28.1450   32.1610 C   0  0  0  0  0  0  0  0  0  0  0  0
   36.3860   27.3550   31.4520 C   0  0  0  0  0  0  0  0  0  0  0  0
   37.0590   27.9370   30.3870 C   0  0  0  0  0  0  0  0  0  0  0  0
   36.7860   29.2300   30.0870 N   0  0  0  0  0  0  0  0  0  0  0  0
   35.9010   29.9600   30.7710 C   0  0  0  0  0  0  0  0  0  0  0  0
   35.2320   29.4270   31.8070 N   0  0  0  0  0  0  0  0  0  0  0  0
   34.9770   27.6250   32.9670 H   0  0  0  0  0  0  0  0  0  0  0  0
   37.7770   27.3570   29.8280 H   0  0  0  0  0  0  0  0  0  0  0  0
   35.6530   30.9910   30.5660 H   0  0  0  0  0  0  0  0  0  0  0  0
  1  7  1  6  0  0  0
  1  6  1  0  0  0  0
  1  2  1  0  0  0  0
  2  9  1  0  0  0  0
  2  3  1  0  0  0  0
  3  4  1  0  0  0  0
  3 11  1  0  0  0  0
  4 12  1  0  0  0  0
  4 13  1  0  0  0  0
  5 15  1  0  0  0  0
  5 14  1  0  0  0  0
  5  4  1  0  0  0  0
  6 16  1  6  0  0  0
  6  5  1  0  0  0  0
  8  2  1  0  0  0  0
 10  3  1  0  0  0  0
 17 18  1  6  0  0  0
 17  6  1  0  0  0  0
 17 23  1  0  0  0  0
 19 18  1  0  0  0  0
 20 18  1  0  0  0  0
 20 22  1  0  0  0  0
 21 20  1  0  0  0  0
 22 23  1  0  0  0  0
 24 23  1  0  0  0  0
 25  1  1  0  0  0  0
 27 32  1  0  0  0  0
 27 26  1  0  0  0  0
 28 27  2  0  0  0  0
 29 30  2  0  0  0  0
 29 28  1  0  0  0  0
 30 31  1  0  0  0  0
 31 35  1  0  0  0  0
 31 32  2  0  0  0  0
 32 25  1  0  0  0  0
 33 29  1  0  0  0  0
 34 30  1  0  0  0  0
 36 42  1  0  0  0  0
 37 28  1  0  0  0  0
 37 36  2  0  0  0  0
 38 37  1  0  0  0  0
 39 38  2  0  0  0  0
 39 40  1  0  0  0  0
 40 41  2  0  0  0  0
 41 36  1  0  0  0  0
 43 38  1  0  0  0  0
 44 40  1  0  0  0  0
M  END
>  <minimizedAffinity>
-5.35874701

$$$$

 OpenBabel03272505053D

 44 47  0  0  1  0  0  0  0  0999 V2000
   37.7950   26.1380   35.1190 C   0  0  2  0  0  0  0  0  0  0  0  0
   38.9670   27.1450   35.3010 C   0  0  0  0  0  0  0  0  0  0  0  0
   40.0670   26.8060   34.3810 C   0  0  0  0  0  0  0  0  0  0  0  0
   40.7620   25.5480   34.8300 C   0  0  0  0  0  0  0  0  0  0  0  0
   39.8270   24.7590   35.6610 C   0  0  0  0  0  0  0  0  0  0  0  0
   38.4100   24.8040   35.1560 C   0  0  2  0  0  0  0  0  0  0  0  0
   37.1110   26.4440   35.9320 H   0  0  0  0  0  0  0  0  0  0  0  0
   38.5270   28.1310   35.0230 H   0  0  0  0  0  0  0  0  0  0  0  0
   39.3190   27.1790   36.3230 H   0  0  0  0  0  0  0  0  0  0  0  0
   39.8500   26.5460   33.3470 H   0  0  0  0  0  0  0  0  0  0  0  0
   40.7650   27.6740   34.3500 H   0  0  0  0  0  0  0  0  0  0  0  0
   41.2850   24.9870   34.0490 H   0  0  0  0  0  0  0  0  0  0  0  0
   41.5980   25.9100   35.5040 H   0  0  0  0  0  0  0  0  0  0  0  0
   40.1170   23.7190   35.8830 H   0  0  0  0  0  0  0  0  0  0  0  0
   39.8110   25.2350   36.6880 H   0  0  0  0  0  0  0  0  0  0  0  0
   37.8780   24.3050   36.0360 H   0  0  0  0  0  0  0  0  0  0  0  0
   38.0690   23.8570   34.0790 C   0  0  2  0  0  3  0  0  0  0  0  0
   37.9590   22.4330   34.6190 C   0  0  0  0  0  3  0  0  0  0  0  0
   38.9380   22.0500   34.9870 H   0  0  0  0  0  0  0  0  0  0  0  0
   37.7790   21.7160   33.2730 C   0  0  0  0  0  3  0  0  0  0  0  0
   36.7230   21.4280   33.0960 H   0  0  0  0  0  0  0  0  0  0  0  0
   38.3090   22.5470   32.3020 O   0  0  0  0  0  0  0  0  0  0  0  0
   38.9810   23.6000   32.9580 C   0  0  0  0  0  3  0  0  0  0  0  0
   39.9820   23.2250   33.1880 H   0  0  0  0  0  0  0  0  0  0  0  0
   37.2740   26.4330   33.8980 O   0  0  0  0  0  0  0  0  0  0  0  0
   38.2260   27.1890   31.2600 Cl  0  0  0  0  0  0  0  0  0  0  0  0
   37.1400   28.1440   32.2270 C   0  0  0  0  0  0  0  0  0  0  0  0
   36.7010   29.3350   31.7170 C   0  0  0  0  0  0  0  0  0  0  0  0
   35.8440   30.0650   32.5130 C   0  0  0  0  0  0  0  0  0  0  0  0
   35.4760   29.5800   33.7530 C   0  0  0  0  0  0  0  0  0  0  0  0
   35.9370   28.3800   34.2320 C   0  0  0  0  0  0  0  0  0  0  0  0
   36.7850   27.6500   33.4510 C   0  0  0  0  0  0  0  0  0  0  0  0
   35.4680   31.0180   32.1530 H   0  0  0  0  0  0  0  0  0  0  0  0
   34.7960   30.1620   34.3830 H   0  0  0  0  0  0  0  0  0  0  0  0
   35.6140   28.0560   35.2050 H   0  0  0  0  0  0  0  0  0  0  0  0
   37.3690   28.9790   29.3260 C   0  0  0  0  0  0  0  0  0  0  0  0
   37.0900   29.8570   30.3950 C   0  0  0  0  0  0  0  0  0  0  0  0
   37.1950   31.2210   30.1640 C   0  0  0  0  0  0  0  0  0  0  0  0
   37.5600   31.6340   28.9260 N   0  0  0  0  0  0  0  0  0  0  0  0
   37.8200   30.7860   27.9280 C   0  0  0  0  0  0  0  0  0  0  0  0
   37.7270   29.4590   28.1180 N   0  0  0  0  0  0  0  0  0  0  0  0
   37.2660   27.9430   29.5830 H   0  0  0  0  0  0  0  0  0  0  0  0
   36.9870   31.9150   30.9630 H   0  0  0  0  0  0  0  0  0  0  0  0
   38.1130   31.0710   26.9280 H   0  0  0  0  0  0  0  0  0  0  0  0
  1  6  1  0  0  0  0
  1  2  1  0  0  0  0
  1  7  1  1  0  0  0
  2  9  1  0  0  0  0
  3  4  1  0  0  0  0
  3  2  1  0  0  0  0
  4 13  1  0  0  0  0
  4  5  1  0  0  0  0
  5 14  1  0  0  0  0
  5 15  1  0  0  0  0
  6  5  1  0  0  0  0
  6 16  1  1  0  0  0
  8  2  1  0  0  0  0
 10  3  1  0  0  0  0
 11  3  1  0  0  0  0
 12  4  1  0  0  0  0
 17 23  1  6  0  0  0
 17 18  1  0  0  0  0
 17  6  1  0  0  0  0
 18 19  1  0  0  0  0
 20 18  1  0  0  0  0
 21 20  1  0  0  0  0
 22 23  1  0  0  0  0
 22 20  1  0  0  0  0
 23 24  1  0  0  0  0
 25  1  1  0  0  0  0
 26 27  1  0  0  0  0
 27 32  1  0  0  0  0
 28 27  2  0  0  0  0
 28 29  1  0  0  0  0
 29 30  2  0  0  0  0
 30 31  1  0  0  0  0
 30 34  1  0  0  0  0
 31 35  1  0  0  0  0
 32 25  1  0  0  0  0
 32 31  2  0  0  0  0
 33 29  1  0  0  0  0
 36 42  1  0  0  0  0
 36 37  1  0  0  0  0
 37 28  1  0  0  0  0
 38 37  2  0  0  0  0
 38 43  1  0  0  0  0
 39 38  1  0  0  0  0
 40 41  1  0  0  0  0
 40 39  2  0  0  0  0
 41 36  2  0  0  0  0
 44 40  1  0  0  0  0
M  END
>  <minimizedAffinity>
-5.33030605

$$$$

 OpenBabel03272505053D

 44 47  0  0  1  0  0  0  0  0999 V2000
   39.8070   27.1720   33.8400 C   0  0  2  0  0  0  0  0  0  0  0  0
   40.9680   27.2000   32.8040 C   0  0  0  0  0  0  0  0  0  0  0  0
   41.3230   25.8250   32.4120 C   0  0  0  0  0  0  0  0  0  0  0  0
   42.0280   25.1180   33.5400 C   0  0  0  0  0  0  0  0  0  0  0  0
   41.6510   25.7670   34.8150 C   0  0  0  0  0  0  0  0  0  0  0  0
   40.2070   26.1880   34.8570 C   0  0  2  0  0  0  0  0  0  0  0  0
   39.7300   28.2380   34.1170 H   0  0  0  0  0  0  0  0  0  0  0  0
   40.5440   27.7490   31.9320 H   0  0  0  0  0  0  0  0  0  0  0  0
   41.8340   27.7270   33.1790 H   0  0  0  0  0  0  0  0  0  0  0  0
   40.5400   25.1020   32.1940 H   0  0  0  0  0  0  0  0  0  0  0  0
   41.9620   25.8850   31.5010 H   0  0  0  0  0  0  0  0  0  0  0  0
   41.9660   24.0250   33.5310 H   0  0  0  0  0  0  0  0  0  0  0  0
   43.1270   25.3250   33.3620 H   0  0  0  0  0  0  0  0  0  0  0  0
   41.9160   25.2300   35.7410 H   0  0  0  0  0  0  0  0  0  0  0  0
   42.2600   26.7170   34.8980 H   0  0  0  0  0  0  0  0  0  0  0  0
   40.2160   26.8070   35.8170 H   0  0  0  0  0  0  0  0  0  0  0  0
   39.2320   25.1470   35.2310 C   0  0  2  0  0  3  0  0  0  0  0  0
   38.3540   25.6140   36.3890 C   0  0  0  0  0  3  0  0  0  0  0  0
   38.9390   25.7560   37.3260 H   0  0  0  0  0  0  0  0  0  0  0  0
   37.6100   24.2930   36.6300 C   0  0  0  0  0  3  0  0  0  0  0  0
   36.5830   24.3140   36.2130 H   0  0  0  0  0  0  0  0  0  0  0  0
   38.4080   23.2850   36.1150 O   0  0  0  0  0  0  0  0  0  0  0  0
   39.6550   23.8530   35.7800 C   0  0  0  0  0  3  0  0  0  0  0  0
   40.2450   23.8560   36.7000 H   0  0  0  0  0  0  0  0  0  0  0  0
   38.7210   26.7660   33.1290 O   0  0  0  0  0  0  0  0  0  0  0  0
   36.6330   28.1550   34.5950 Cl  0  0  0  0  0  0  0  0  0  0  0  0
   36.8590   28.2510   32.8730 C   0  0  0  0  0  0  0  0  0  0  0  0
   35.9960   29.0310   32.1530 C   0  0  0  0  0  0  0  0  0  0  0  0
   36.2040   29.0800   30.7910 C   0  0  0  0  0  0  0  0  0  0  0  0
   37.2410   28.3630   30.2280 C   0  0  0  0  0  0  0  0  0  0  0  0
   38.0870   27.5910   30.9820 C   0  0  0  0  0  0  0  0  0  0  0  0
   37.8900   27.5360   32.3310 C   0  0  0  0  0  0  0  0  0  0  0  0
   35.5460   29.6850   30.1750 H   0  0  0  0  0  0  0  0  0  0  0  0
   37.4040   28.4030   29.1450 H   0  0  0  0  0  0  0  0  0  0  0  0
   38.8770   27.0550   30.4850 H   0  0  0  0  0  0  0  0  0  0  0  0
   33.5950   29.2430   32.8470 C   0  0  0  0  0  0  0  0  0  0  0  0
   34.8890   29.7990   32.7490 C   0  0  0  0  0  0  0  0  0  0  0  0
   35.0840   31.0870   33.2270 C   0  0  0  0  0  0  0  0  0  0  0  0
   34.0230   31.7390   33.7620 N   0  0  0  0  0  0  0  0  0  0  0  0
   32.8060   31.1940   33.8450 C   0  0  0  0  0  0  0  0  0  0  0  0
   32.5830   29.9490   33.3910 N   0  0  0  0  0  0  0  0  0  0  0  0
   33.5250   28.2470   32.4560 H   0  0  0  0  0  0  0  0  0  0  0  0
   36.0630   31.5360   33.1660 H   0  0  0  0  0  0  0  0  0  0  0  0
   31.9350   31.6770   34.2620 H   0  0  0  0  0  0  0  0  0  0  0  0
  1  7  1  1  0  0  0
  1  6  1  0  0  0  0
  2  9  1  0  0  0  0
  2  1  1  0  0  0  0
  3  2  1  0  0  0  0
  3  4  1  0  0  0  0
  4  5  1  0  0  0  0
  5  6  1  0  0  0  0
  5 15  1  0  0  0  0
  5 14  1  0  0  0  0
  6 17  1  0  0  0  0
  6 16  1  1  0  0  0
  8  2  1  0  0  0  0
 10  3  1  0  0  0  0
 11  3  1  0  0  0  0
 12  4  1  0  0  0  0
 13  4  1  0  0  0  0
 17 23  1  1  0  0  0
 17 18  1  0  0  0  0
 18 20  1  0  0  0  0
 18 19  1  0  0  0  0
 21 20  1  0  0  0  0
 22 20  1  0  0  0  0
 23 22  1  0  0  0  0
 23 24  1  0  0  0  0
 25  1  1  0  0  0  0
 27 26  1  0  0  0  0
 28 37  1  0  0  0  0
 28 27  2  0  0  0  0
 29 28  1  0  0  0  0
 30 29  2  0  0  0  0
 30 31  1  0  0  0  0
 31 32  2  0  0  0  0
 32 27  1  0  0  0  0
 32 25  1  0  0  0  0
 33 29  1  0  0  0  0
 34 30  1  0  0  0  0
 35 31  1  0  0  0  0
 36 41  1  0  0  0  0
 37 36  2  0  0  0  0
 37 38  1  0  0  0  0
 38 39  2  0  0  0  0
 39 40  1  0  0  0  0
 40 44  1  0  0  0  0
 41 40  2  0  0  0  0
 42 36  1  0  0  0  0
 43 38  1  0  0  0  0
M  END
>  <minimizedAffinity>
-5.21383667

$$$$

 OpenBabel03272505053D

 44 47  0  0  1  0  0  0  0  0999 V2000
   36.1450   28.6720   32.3560 C   0  0  2  0  0  0  0  0  0  0  0  0
   34.8990   29.1990   33.1250 C   0  0  0  0  0  0  0  0  0  0  0  0
   33.9990   29.9060   32.1960 C   0  0  0  0  0  0  0  0  0  0  0  0
   34.5980   31.2240   31.7810 C   0  0  0  0  0  0  0  0  0  0  0  0
   36.0660   31.1520   31.9460 C   0  0  0  0  0  0  0  0  0  0  0  0
   36.6360   29.8120   31.5670 C   0  0  2  0  0  0  0  0  0  0  0  0
   36.7650   28.2760   33.1800 H   0  0  0  0  0  0  0  0  0  0  0  0
   34.4040   28.2780   33.5100 H   0  0  0  0  0  0  0  0  0  0  0  0
   35.1730   29.8370   33.9530 H   0  0  0  0  0  0  0  0  0  0  0  0
   33.7810   29.4790   31.2200 H   0  0  0  0  0  0  0  0  0  0  0  0
   33.0200   30.0420   32.7100 H   0  0  0  0  0  0  0  0  0  0  0  0
   34.2510   31.6240   30.8230 H   0  0  0  0  0  0  0  0  0  0  0  0
   34.2030   31.9670   32.5400 H   0  0  0  0  0  0  0  0  0  0  0  0
   36.6570   31.9600   31.4830 H   0  0  0  0  0  0  0  0  0  0  0  0
   36.2840   31.2880   33.0490 H   0  0  0  0  0  0  0  0  0  0  0  0
   37.7040   29.9430   31.9510 H   0  0  0  0  0  0  0  0  0  0  0  0
   36.9020   29.5960   30.1340 C   0  0  2  0  0  3  0  0  0  0  0  0
   38.1770   28.7810   29.9340 C   0  0  0  0  0  3  0  0  0  0  0  0
   39.0830   29.3310   30.2750 H   0  0  0  0  0  0  0  0  0  0  0  0
   38.2510   28.8860   28.4040 C   0  0  0  0  0  3  0  0  0  0  0  0
   37.9140   27.9540   27.9080 H   0  0  0  0  0  0  0  0  0  0  0  0
   37.5280   30.0110   28.0450 O   0  0  0  0  0  0  0  0  0  0  0  0
   37.2050   30.7090   29.2270 C   0  0  0  0  0  3  0  0  0  0  0  0
   38.0710   31.3350   29.4570 H   0  0  0  0  0  0  0  0  0  0  0  0
   35.6660   27.6700   31.5710 O   0  0  0  0  0  0  0  0  0  0  0  0
   37.9440   27.0280   33.2560 Cl  0  0  0  0  0  0  0  0  0  0  0  0
   36.9720   25.8510   32.4240 C   0  0  0  0  0  0  0  0  0  0  0  0
   37.2980   24.5300   32.5650 C   0  0  0  0  0  0  0  0  0  0  0  0
   36.5060   23.6260   31.8870 C   0  0  0  0  0  0  0  0  0  0  0  0
   35.4520   24.0780   31.1180 C   0  0  0  0  0  0  0  0  0  0  0  0
   35.1550   25.4110   30.9990 C   0  0  0  0  0  0  0  0  0  0  0  0
   35.9320   26.3130   31.6650 C   0  0  0  0  0  0  0  0  0  0  0  0
   36.7240   22.5660   31.9670 H   0  0  0  0  0  0  0  0  0  0  0  0
   34.8260   23.3580   30.5800 H   0  0  0  0  0  0  0  0  0  0  0  0
   34.3210   25.7010   30.3840 H   0  0  0  0  0  0  0  0  0  0  0  0
   39.7010   23.8580   32.8200 C   0  0  0  0  0  0  0  0  0  0  0  0
   38.4200   24.0440   33.3850 C   0  0  0  0  0  0  0  0  0  0  0  0
   38.2530   23.7520   34.7310 C   0  0  0  0  0  0  0  0  0  0  0  0
   39.3260   23.3060   35.4290 N   0  0  0  0  0  0  0  0  0  0  0  0
   40.5290   23.1380   34.8740 C   0  0  0  0  0  0  0  0  0  0  0  0
   40.7260   23.4110   33.5730 N   0  0  0  0  0  0  0  0  0  0  0  0
   39.7490   24.1040   31.7780 H   0  0  0  0  0  0  0  0  0  0  0  0
   37.2850   23.8850   35.1900 H   0  0  0  0  0  0  0  0  0  0  0  0
   41.4100   22.7860   35.3910 H   0  0  0  0  0  0  0  0  0  0  0  0
  1  2  1  0  0  0  0
  1  7  1  1  0  0  0
  2  8  1  0  0  0  0
  2  9  1  0  0  0  0
  3 11  1  0  0  0  0
  3  2  1  0  0  0  0
  4  5  1  0  0  0  0
  4  3  1  0  0  0  0
  4 13  1  0  0  0  0
  5 15  1  0  0  0  0
  6  5  1  0  0  0  0
  6 16  1  1  0  0  0
  6  1  1  0  0  0  0
 10  3  1  0  0  0  0
 12  4  1  0  0  0  0
 14  5  1  0  0  0  0
 17 23  1  6  0  0  0
 17  6  1  0  0  0  0
 18 17  1  0  0  0  0
 18 19  1  0  0  0  0
 20 18  1  0  0  0  0
 21 20  1  0  0  0  0
 22 20  1  0  0  0  0
 22 23  1  0  0  0  0
 23 24  1  0  0  0  0
 25 32  1  0  0  0  0
 25  1  1  0  0  0  0
 27 28  1  0  0  0  0
 27 26  1  0  0  0  0
 28 37  1  0  0  0  0
 29 33  1  0  0  0  0
 29 28  2  0  0  0  0
 30 29  1  0  0  0  0
 31 30  2  0  0  0  0
 31 32  1  0  0  0  0
 32 27  2  0  0  0  0
 34 30  1  0  0  0  0
 35 31  1  0  0  0  0
 36 37  2  0  0  0  0
 36 41  1  0  0  0  0
 37 38  1  0  0  0  0
 38 43  1  0  0  0  0
 38 39  2  0  0  0  0
 40 44  1  0  0  0  0
 40 39  1  0  0  0  0
 41 40  2  0  0  0  0
 42 36  1  0  0  0  0
M  END
>  <minimizedAffinity>
-5.18432093

$$$$

 OpenBabel03272505053D

 44 47  0  0  1  0  0  0  0  0999 V2000
   39.8700   23.5850   34.8460 C   0  0  2  0  0  0  0  0  0  0  0  0
   38.7610   23.0410   35.7910 C   0  0  0  0  0  0  0  0  0  0  0  0
   39.1090   23.3340   37.1930 C   0  0  0  0  0  0  0  0  0  0  0  0
   40.2540   22.4670   37.6450 C   0  0  0  0  0  0  0  0  0  0  0  0
   41.0220   22.0350   36.4570 C   0  0  0  0  0  0  0  0  0  0  0  0
   41.1410   23.1110   35.4120 C   0  0  2  0  0  0  0  0  0  0  0  0
   39.5360   23.2020   33.8650 H   0  0  0  0  0  0  0  0  0  0  0  0
   37.8470   23.6080   35.4970 H   0  0  0  0  0  0  0  0  0  0  0  0
   38.5920   21.9820   35.6510 H   0  0  0  0  0  0  0  0  0  0  0  0
   39.4920   24.3140   37.4640 H   0  0  0  0  0  0  0  0  0  0  0  0
   38.1970   23.1670   37.8110 H   0  0  0  0  0  0  0  0  0  0  0  0
   40.8510   22.8600   38.4740 H   0  0  0  0  0  0  0  0  0  0  0  0
   39.7580   21.5480   38.0860 H   0  0  0  0  0  0  0  0  0  0  0  0
   42.0070   21.5760   36.6430 H   0  0  0  0  0  0  0  0  0  0  0  0
   40.4420   21.1900   35.9760 H   0  0  0  0  0  0  0  0  0  0  0  0
   41.5850   22.4970   34.5560 H   0  0  0  0  0  0  0  0  0  0  0  0
   42.2200   24.0960   35.6070 C   0  0  2  0  0  3  0  0  0  0  0  0
   43.0440   24.2620   34.3340 C   0  0  0  0  0  3  0  0  0  0  0  0
   43.6000   23.3340   34.0720 H   0  0  0  0  0  0  0  0  0  0  0  0
   44.1330   25.1790   34.9100 C   0  0  0  0  0  3  0  0  0  0  0  0
   43.9840   26.2360   34.6140 H   0  0  0  0  0  0  0  0  0  0  0  0
   44.1470   24.9710   36.2790 O   0  0  0  0  0  0  0  0  0  0  0  0
   43.3170   23.8640   36.5540 C   0  0  0  0  0  3  0  0  0  0  0  0
   43.9380   22.9760   36.4100 H   0  0  0  0  0  0  0  0  0  0  0  0
   39.7470   24.9380   34.9150 O   0  0  0  0  0  0  0  0  0  0  0  0
   37.2350   26.2820   35.4830 Cl  0  0  0  0  0  0  0  0  0  0  0  0
   38.1750   26.5180   34.0390 C   0  0  0  0  0  0  0  0  0  0  0  0
   37.7030   27.3940   33.0990 C   0  0  0  0  0  0  0  0  0  0  0  0
   38.4730   27.5530   31.9660 C   0  0  0  0  0  0  0  0  0  0  0  0
   39.6500   26.8440   31.8310 C   0  0  0  0  0  0  0  0  0  0  0  0
   40.0920   25.9730   32.7930 C   0  0  0  0  0  0  0  0  0  0  0  0
   39.3370   25.8090   33.9180 C   0  0  0  0  0  0  0  0  0  0  0  0
   38.1410   28.2370   31.1910 H   0  0  0  0  0  0  0  0  0  0  0  0
   40.2590   26.9710   30.9290 H   0  0  0  0  0  0  0  0  0  0  0  0
   41.0170   25.4490   32.6300 H   0  0  0  0  0  0  0  0  0  0  0  0
   35.4680   28.1240   32.2250 C   0  0  0  0  0  0  0  0  0  0  0  0
   36.4490   28.1530   33.2400 C   0  0  0  0  0  0  0  0  0  0  0  0
   36.1950   28.9190   34.3700 C   0  0  0  0  0  0  0  0  0  0  0  0
   35.0230   29.5950   34.4360 N   0  0  0  0  0  0  0  0  0  0  0  0
   34.1090   29.5540   33.4620 C   0  0  0  0  0  0  0  0  0  0  0  0
   34.3220   28.8220   32.3560 N   0  0  0  0  0  0  0  0  0  0  0  0
   35.7370   27.5130   31.3860 H   0  0  0  0  0  0  0  0  0  0  0  0
   36.9270   28.9590   35.1620 H   0  0  0  0  0  0  0  0  0  0  0  0
   33.1630   30.0760   33.4740 H   0  0  0  0  0  0  0  0  0  0  0  0
  1  7  1  6  0  0  0
  1 25  1  0  0  0  0
  1  6  1  0  0  0  0
  1  2  1  0  0  0  0
  2  3  1  0  0  0  0
  3 10  1  0  0  0  0
  3  4  1  0  0  0  0
  3 11  1  0  0  0  0
  4 13  1  0  0  0  0
  4 12  1  0  0  0  0
  5 14  1  0  0  0  0
  5  4  1  0  0  0  0
  6 16  1  6  0  0  0
  6 17  1  0  0  0  0
  6  5  1  0  0  0  0
  8  2  1  0  0  0  0
  9  2  1  0  0  0  0
 15  5  1  0  0  0  0
 17 18  1  6  0  0  0
 17 23  1  0  0  0  0
 18 20  1  0  0  0  0
 19 18  1  0  0  0  0
 20 22  1  0  0  0  0
 21 20  1  0  0  0  0
 22 23  1  0  0  0  0
 24 23  1  0  0  0  0
 27 26  1  0  0  0  0
 28 37  1  0  0  0  0
 28 27  2  0  0  0  0
 29 28  1  0  0  0  0
 30 29  2  0  0  0  0
 30 31  1  0  0  0  0
 31 32  2  0  0  0  0
 32 27  1  0  0  0  0
 32 25  1  0  0  0  0
 33 29  1  0  0  0  0
 34 30  1  0  0  0  0
 35 31  1  0  0  0  0
 36 41  2  0  0  0  0
 36 37  1  0  0  0  0
 37 38  2  0  0  0  0
 38 39  1  0  0  0  0
 38 43  1  0  0  0  0
 40 44  1  0  0  0  0
 40 39  2  0  0  0  0
 41 40  1  0  0  0  0
 42 36  1  0  0  0  0
M  END
>  <minimizedAffinity>
-5.17721796

$$$$
