
 OpenBabel03272508123D

 33 35  0  0  1  0  0  0  0  0999 V2000
   36.6730   29.4410   44.0260 Cl  0  0  0  0  0  0  0  0  0  0  0  0
   38.3140   29.8360   43.5000 C   0  0  0  0  0  0  0  0  0  0  0  0
   39.3060   30.3170   44.3560 C   0  0  0  0  0  0  0  0  0  0  0  0
   40.5590   30.5880   43.8090 C   0  0  0  0  0  0  0  0  0  0  0  0
   40.7840   30.3790   42.4690 C   0  0  0  0  0  0  0  0  0  0  0  0
   39.8300   29.9100   41.6150 C   0  0  0  0  0  0  0  0  0  0  0  0
   38.5940   29.6400   42.1390 C   0  0  0  0  0  0  0  0  0  0  0  0
   41.2490   30.9540   44.5570 H   0  0  0  0  0  0  0  0  0  0  0  0
   41.7980   30.6220   42.1360 H   0  0  0  0  0  0  0  0  0  0  0  0
   40.0970   29.7780   40.5770 H   0  0  0  0  0  0  0  0  0  0  0  0
   37.5410   29.1270   41.2240 C   0  0  2  0  0  3  0  0  0  0  0  0
   38.1230   28.4380   40.0000 C   0  0  0  0  0  3  0  0  0  0  0  0
   39.2150   28.3280   40.0330 H   0  0  0  0  0  0  0  0  0  0  0  0
   37.6610   29.3550   38.8870 C   0  0  0  0  0  3  0  0  0  0  0  0
   38.4390   29.4490   38.0860 H   0  0  0  0  0  0  0  0  0  0  0  0
   37.4170   30.5840   39.4930 O   0  0  0  0  0  0  0  0  0  0  0  0
   36.7160   30.2130   40.6370 C   0  0  0  0  0  3  0  0  0  0  0  0
   35.7760   29.7270   40.2480 H   0  0  0  0  0  0  0  0  0  0  0  0
   38.8650   30.4480   45.6430 O   0  0  0  0  0  0  0  0  0  0  0  0
   39.4370   32.5130   47.1030 O   0  0  0  0  0  0  0  0  0  0  0  0
   38.3080   31.8350   46.4160 P   0  0  1  0  0  0  0  0  0  0  0  0
   37.7080   32.8430   45.1750 O   0  0  0  0  0  0  0  0  0  0  0  0
   38.4890   33.1920   44.6600 H   0  0  0  0  0  0  0  0  0  0  0  0
   37.0230   31.4090   47.4410 O   0  0  0  0  0  0  0  0  0  0  0  0
   37.6130   30.5280   50.9840 C   0  0  0  0  0  0  0  0  0  0  0  0
   37.7060   31.3020   49.8230 C   0  0  0  0  0  0  0  0  0  0  0  0
   37.0690   30.8360   48.6650 C   0  0  0  0  0  0  0  0  0  0  0  0
   36.3920   29.6550   48.7310 N   0  0  0  0  0  0  0  0  0  0  0  0
   36.3290   28.9410   49.8720 C   0  0  0  0  0  0  0  0  0  0  0  0
   36.9360   29.3780   50.9870 N   0  0  0  0  0  0  0  0  0  0  0  0
   38.1290   30.9420   51.8510 H   0  0  0  0  0  0  0  0  0  0  0  0
   38.2220   32.2430   49.6970 H   0  0  0  0  0  0  0  0  0  0  0  0
   35.7980   28.0000   49.9480 H   0  0  0  0  0  0  0  0  0  0  0  0
  2  1  1  0  0  0  0
  2  3  1  0  0  0  0
  3 19  1  0  0  0  0
  4  3  2  0  0  0  0
  4  8  1  0  0  0  0
  5  4  1  0  0  0  0
  6  7  1  0  0  0  0
  6  5  2  0  0  0  0
  7  2  2  0  0  0  0
  9  5  1  0  0  0  0
 10  6  1  0  0  0  0
 11  7  1  1  0  0  0
 12 13  1  0  0  0  0
 12 11  1  0  0  0  0
 14 16  1  0  0  0  0
 14 12  1  0  0  0  0
 15 14  1  0  0  0  0
 16 17  1  0  0  0  0
 17 11  1  0  0  0  0
 18 17  1  0  0  0  0
 19 21  1  0  0  0  0
 21 20  2  1  0  0  0
 21 24  1  0  0  0  0
 22 21  1  0  0  0  0
 23 22  1  0  0  0  0
 24 27  1  0  0  0  0
 25 30  1  0  0  0  0
 25 31  1  0  0  0  0
 26 25  2  0  0  0  0
 27 28  2  0  0  0  0
 27 26  1  0  0  0  0
 28 29  1  0  0  0  0
 29 33  1  0  0  0  0
 29 30  2  0  0  0  0
 32 26  1  0  0  0  0
M  END
>  <minimizedAffinity>
-4.85039139

>  <minimizedRMSD>
0.0832238793

$$$$
