
 OpenBabel03262520343D

 28 29  0  0  1  0  0  0  0  0999 V2000
   32.8950   28.1490   47.9980 C   0  0  0  0  0  0  0  0  0  0  0  0
   33.2430   27.1300   47.6620 H   0  0  0  0  0  0  0  0  0  0  0  0
   32.5030   28.6390   47.0980 H   0  0  0  0  0  0  0  0  0  0  0  0
   34.8870   28.3720   49.4310 C   0  0  0  0  0  0  0  0  0  0  0  0
   34.0790   28.8380   48.5430 C   0  0  0  0  0  0  0  0  0  0  0  0
   37.3230   30.1840   51.4960 C   0  0  0  0  0  0  0  0  0  0  0  0
   38.1560   30.7660   50.5250 C   0  0  0  0  0  0  0  0  0  0  0  0
   37.8510   30.5140   49.1790 C   0  0  0  0  0  0  0  0  0  0  0  0
   36.7660   29.7220   48.8860 N   0  0  0  0  0  0  0  0  0  0  0  0
   36.0100   29.1960   49.8570 C   0  0  0  0  0  0  0  0  0  0  0  0
   36.2850   29.4240   51.1340 N   0  0  0  0  0  0  0  0  0  0  0  0
   37.6080   30.4150   52.5110 H   0  0  0  0  0  0  0  0  0  0  0  0
   39.0090   31.3870   50.6540 H   0  0  0  0  0  0  0  0  0  0  0  0
   38.3950   30.8890   48.3200 H   0  0  0  0  0  0  0  0  0  0  0  0
   31.9320   27.9150   48.9800 O   0  0  0  0  0  0  0  0  0  0  0  0
   31.4990   25.5890   48.0190 O   0  0  0  0  0  0  0  0  0  0  0  0
   30.7470   26.8840   48.3370 P   0  0  2  0  0  0  0  0  0  0  0  0
   30.1600   27.5790   46.9010 O   0  0  0  0  0  0  0  0  0  0  0  0
   30.6460   27.2300   46.1010 H   0  0  0  0  0  0  0  0  0  0  0  0
   29.4780   26.6310   49.3990 O   0  0  0  0  0  0  0  0  0  0  0  0
   29.2490   27.6220   50.3010 C   0  0  1  0  0  0  0  0  0  0  0  0
   28.5530   28.8330   49.7330 C   0  0  0  0  0  0  0  0  0  0  0  0
   28.6750   28.9180   48.6380 H   0  0  0  0  0  0  0  0  0  0  0  0
   27.1460   28.6530   50.2060 C   0  0  0  0  0  0  0  0  0  0  0  0
   26.7860   29.5100   50.8440 H   0  0  0  0  0  0  0  0  0  0  0  0
   27.0690   27.5150   50.9730 O   0  0  0  0  0  0  0  0  0  0  0  0
   28.3330   27.2340   51.4350 C   0  0  0  0  0  0  0  0  0  0  0  0
   28.5530   27.9400   52.2830 H   0  0  0  0  0  0  0  0  0  0  0  0
  1  5  1  0  0  0  0
  1 15  1  0  0  0  0
  2  1  1  0  0  0  0
  3  1  1  0  0  0  0
  4 10  1  0  0  0  0
  5  4  2  0  0  0  0
  6 12  1  0  0  0  0
  7 13  1  0  0  0  0
  7  6  2  0  0  0  0
  8  7  1  0  0  0  0
  9  8  2  0  0  0  0
  9 10  1  0  0  0  0
 10 11  2  0  0  0  0
 11  6  1  0  0  0  0
 14  8  1  0  0  0  0
 17 16  2  6  0  0  0
 17 15  1  0  0  0  0
 17 20  1  0  0  0  0
 18 17  1  0  0  0  0
 19 18  1  0  0  0  0
 21 20  1  6  0  0  0
 21 27  1  0  0  0  0
 22 24  1  0  0  0  0
 22 21  1  0  0  0  0
 23 22  1  0  0  0  0
 24 25  1  0  0  0  0
 24 26  1  0  0  0  0
 26 27  1  0  0  0  0
 27 28  1  0  0  0  0
M  END
>  <minimizedAffinity>
-5.33683729

>  <minimizedRMSD>
2.55798006

$$$$
