
 OpenBabel03272509173D

 29 31  0  0  1  0  0  0  0  0999 V2000
   38.3710   25.3030   33.9380 C   0  0  0  0  0  0  0  0  0  0  0  0
   38.4080   23.9230   34.2370 C   0  0  0  0  0  0  0  0  0  0  0  0
   37.6600   23.0770   33.4300 C   0  0  0  0  0  0  0  0  0  0  0  0
   36.9350   23.5900   32.4050 N   0  0  0  0  0  0  0  0  0  0  0  0
   36.9240   24.9300   32.1460 C   0  0  0  0  0  0  0  0  0  0  0  0
   37.6410   25.7800   32.9120 N   0  0  0  0  0  0  0  0  0  0  0  0
   38.9250   26.0190   34.5200 H   0  0  0  0  0  0  0  0  0  0  0  0
   36.3100   25.2320   31.3000 H   0  0  0  0  0  0  0  0  0  0  0  0
   38.7130   23.3250   36.6260 C   0  0  0  0  0  0  0  0  0  0  0  0
   39.1910   23.4630   35.3300 C   0  0  0  0  0  0  0  0  0  0  0  0
   40.5220   23.1060   35.1900 C   0  0  0  0  0  0  0  0  0  0  0  0
   41.3060   22.6510   36.2540 C   0  0  0  0  0  0  0  0  0  0  0  0
   40.7200   22.5510   37.5210 C   0  0  0  0  0  0  0  0  0  0  0  0
   39.3990   22.8950   37.7080 C   0  0  0  0  0  0  0  0  0  0  0  0
   41.0300   23.1600   34.2460 H   0  0  0  0  0  0  0  0  0  0  0  0
   42.3420   22.3790   36.1190 H   0  0  0  0  0  0  0  0  0  0  0  0
   41.3250   22.1990   38.3480 H   0  0  0  0  0  0  0  0  0  0  0  0
   37.3670   23.6620   36.8820 O   0  0  0  0  0  0  0  0  0  0  0  0
   37.0650   24.0450   37.7770 H   0  0  0  0  0  0  0  0  0  0  0  0
   38.8590   22.7800   38.9770 O   0  0  0  0  0  0  0  0  0  0  0  0
   38.1510   22.0940   39.2190 H   0  0  0  0  0  0  0  0  0  0  0  0
   37.6460   21.6220   33.6790 C   0  0  1  0  0  3  0  0  0  0  0  0
   36.4160   21.1830   34.4160 C   0  0  0  0  0  3  0  0  0  0  0  0
   35.8510   22.0160   34.8800 H   0  0  0  0  0  0  0  0  0  0  0  0
   35.5770   20.4930   33.3800 C   0  0  0  0  0  3  0  0  0  0  0  0
   34.5310   20.8730   33.4130 H   0  0  0  0  0  0  0  0  0  0  0  0
   36.1550   20.7710   32.1440 O   0  0  0  0  0  0  0  0  0  0  0  0
   37.5020   20.9270   32.3430 C   0  0  0  0  0  3  0  0  0  0  0  0
   37.9010   21.5710   31.5190 H   0  0  0  0  0  0  0  0  0  0  0  0
  1  2  1  0  0  0  0
  1  7  1  0  0  0  0
  2 10  1  0  0  0  0
  3  2  2  0  0  0  0
  4  3  1  0  0  0  0
  5  4  2  0  0  0  0
  5  6  1  0  0  0  0
  6  1  2  0  0  0  0
  8  5  1  0  0  0  0
  9 18  1  0  0  0  0
  9 14  1  0  0  0  0
 10  9  2  0  0  0  0
 11 10  1  0  0  0  0
 11 12  2  0  0  0  0
 12 13  1  0  0  0  0
 13 14  2  0  0  0  0
 13 17  1  0  0  0  0
 14 20  1  0  0  0  0
 15 11  1  0  0  0  0
 16 12  1  0  0  0  0
 18 19  1  0  0  0  0
 20 21  1  0  0  0  0
 22  3  1  6  0  0  0
 22 23  1  0  0  0  0
 23 24  1  0  0  0  0
 25 26  1  0  0  0  0
 25 23  1  0  0  0  0
 27 28  1  0  0  0  0
 27 25  1  0  0  0  0
 28 22  1  0  0  0  0
 29 28  1  0  0  0  0
M  END
>  <minimizedAffinity>
-5.2161808

$$$$

 OpenBabel03272509173D

 29 31  0  0  1  0  0  0  0  0999 V2000
   37.9280   23.7810   33.5180 C   0  0  0  0  0  0  0  0  0  0  0  0
   38.8270   24.4300   34.3920 C   0  0  0  0  0  0  0  0  0  0  0  0
   39.6620   25.3950   33.8440 C   0  0  0  0  0  0  0  0  0  0  0  0
   39.5880   25.6760   32.5190 N   0  0  0  0  0  0  0  0  0  0  0  0
   38.7060   25.0270   31.7050 C   0  0  0  0  0  0  0  0  0  0  0  0
   37.8800   24.0830   32.2070 N   0  0  0  0  0  0  0  0  0  0  0  0
   37.2500   23.0230   33.8710 H   0  0  0  0  0  0  0  0  0  0  0  0
   38.7310   25.3310   30.6600 H   0  0  0  0  0  0  0  0  0  0  0  0
   39.6420   23.0790   36.3070 C   0  0  0  0  0  0  0  0  0  0  0  0
   38.8440   24.0800   35.7690 C   0  0  0  0  0  0  0  0  0  0  0  0
   38.0520   24.7200   36.7070 C   0  0  0  0  0  0  0  0  0  0  0  0
   38.0580   24.3880   38.0640 C   0  0  0  0  0  0  0  0  0  0  0  0
   38.9030   23.3600   38.4980 C   0  0  0  0  0  0  0  0  0  0  0  0
   39.7090   22.6950   37.6000 C   0  0  0  0  0  0  0  0  0  0  0  0
   37.3830   25.5160   36.4400 H   0  0  0  0  0  0  0  0  0  0  0  0
   37.4310   24.9030   38.7760 H   0  0  0  0  0  0  0  0  0  0  0  0
   38.9090   23.1000   39.5500 H   0  0  0  0  0  0  0  0  0  0  0  0
   40.4900   22.3600   35.4380 O   0  0  0  0  0  0  0  0  0  0  0  0
   40.7230   21.3800   35.5950 H   0  0  0  0  0  0  0  0  0  0  0  0
   40.5290   21.6850   38.0710 O   0  0  0  0  0  0  0  0  0  0  0  0
   41.5420   21.7590   38.0960 H   0  0  0  0  0  0  0  0  0  0  0  0
   40.6300   26.1180   34.6920 C   0  0  1  0  0  3  0  0  0  0  0  0
   41.9640   25.4350   34.7390 C   0  0  0  0  0  3  0  0  0  0  0  0
   41.9470   24.3930   34.3640 H   0  0  0  0  0  0  0  0  0  0  0  0
   42.8590   26.2860   33.8870 C   0  0  0  0  0  3  0  0  0  0  0  0
   43.4180   25.6540   33.1610 H   0  0  0  0  0  0  0  0  0  0  0  0
   42.0360   27.1850   33.2120 O   0  0  0  0  0  0  0  0  0  0  0  0
   40.9490   27.4300   34.0110 C   0  0  0  0  0  3  0  0  0  0  0  0
   40.1020   27.7490   33.3530 H   0  0  0  0  0  0  0  0  0  0  0  0
  1  7  1  0  0  0  0
  1  2  1  0  0  0  0
  2 10  1  0  0  0  0
  3  2  2  0  0  0  0
  4  3  1  0  0  0  0
  5  6  1  0  0  0  0
  5  4  2  0  0  0  0
  6  1  2  0  0  0  0
  8  5  1  0  0  0  0
  9 14  1  0  0  0  0
 10  9  2  0  0  0  0
 10 11  1  0  0  0  0
 11 12  2  0  0  0  0
 12 13  1  0  0  0  0
 12 16  1  0  0  0  0
 13 17  1  0  0  0  0
 14 20  1  0  0  0  0
 14 13  2  0  0  0  0
 15 11  1  0  0  0  0
 18 19  1  0  0  0  0
 18  9  1  0  0  0  0
 20 21  1  0  0  0  0
 22  3  1  6  0  0  0
 22 23  1  0  0  0  0
 24 23  1  0  0  0  0
 25 23  1  0  0  0  0
 26 25  1  0  0  0  0
 27 25  1  0  0  0  0
 27 28  1  0  0  0  0
 28 22  1  0  0  0  0
 29 28  1  0  0  0  0
M  END
>  <minimizedAffinity>
-5.1850915

$$$$

 OpenBabel03272509173D

 29 31  0  0  1  0  0  0  0  0999 V2000
   40.3110   26.4510   34.7640 C   0  0  0  0  0  0  0  0  0  0  0  0
   39.4480   25.3350   34.7220 C   0  0  0  0  0  0  0  0  0  0  0  0
   38.9020   24.9980   33.4910 C   0  0  0  0  0  0  0  0  0  0  0  0
   39.2100   25.7330   32.3930 N   0  0  0  0  0  0  0  0  0  0  0  0
   40.0480   26.8070   32.4720 C   0  0  0  0  0  0  0  0  0  0  0  0
   40.5950   27.1610   33.6560 N   0  0  0  0  0  0  0  0  0  0  0  0
   40.7700   26.7720   35.6830 H   0  0  0  0  0  0  0  0  0  0  0  0
   40.2260   27.3250   31.5320 H   0  0  0  0  0  0  0  0  0  0  0  0
   39.9240   23.5330   36.3600 C   0  0  0  0  0  0  0  0  0  0  0  0
   39.1740   24.6140   35.9160 C   0  0  0  0  0  0  0  0  0  0  0  0
   38.1180   24.9350   36.7510 C   0  0  0  0  0  0  0  0  0  0  0  0
   37.8360   24.2360   37.9280 C   0  0  0  0  0  0  0  0  0  0  0  0
   38.6590   23.1610   38.2810 C   0  0  0  0  0  0  0  0  0  0  0  0
   39.7220   22.8040   37.4800 C   0  0  0  0  0  0  0  0  0  0  0  0
   37.4500   25.7480   36.5380 H   0  0  0  0  0  0  0  0  0  0  0  0
   37.0050   24.5070   38.5630 H   0  0  0  0  0  0  0  0  0  0  0  0
   38.4420   22.6170   39.1920 H   0  0  0  0  0  0  0  0  0  0  0  0
   41.0260   23.1180   35.5830 O   0  0  0  0  0  0  0  0  0  0  0  0
   41.3190   22.1430   35.5340 H   0  0  0  0  0  0  0  0  0  0  0  0
   40.5100   21.7350   37.8660 O   0  0  0  0  0  0  0  0  0  0  0  0
   41.4740   21.8360   38.1700 H   0  0  0  0  0  0  0  0  0  0  0  0
   37.9900   23.8430   33.3650 C   0  0  1  0  0  3  0  0  0  0  0  0
   36.9640   24.0450   32.2910 C   0  0  0  0  0  3  0  0  0  0  0  0
   36.8770   25.0950   31.9460 H   0  0  0  0  0  0  0  0  0  0  0  0
   37.4100   23.1580   31.1660 C   0  0  0  0  0  3  0  0  0  0  0  0
   37.4110   23.7210   30.2060 H   0  0  0  0  0  0  0  0  0  0  0  0
   38.6970   22.7290   31.4780 O   0  0  0  0  0  0  0  0  0  0  0  0
   38.7950   22.6740   32.8440 C   0  0  0  0  0  3  0  0  0  0  0  0
   39.8750   22.7860   33.1190 H   0  0  0  0  0  0  0  0  0  0  0  0
  1  7  1  0  0  0  0
  2  1  1  0  0  0  0
  2 10  1  0  0  0  0
  3  2  2  0  0  0  0
  4  5  2  0  0  0  0
  4  3  1  0  0  0  0
  5  6  1  0  0  0  0
  6  1  2  0  0  0  0
  8  5  1  0  0  0  0
  9 14  1  0  0  0  0
 10  9  2  0  0  0  0
 10 11  1  0  0  0  0
 11 12  2  0  0  0  0
 12 13  1  0  0  0  0
 12 16  1  0  0  0  0
 13 17  1  0  0  0  0
 14 20  1  0  0  0  0
 14 13  2  0  0  0  0
 15 11  1  0  0  0  0
 18  9  1  0  0  0  0
 19 18  1  0  0  0  0
 20 21  1  0  0  0  0
 22  3  1  6  0  0  0
 23 22  1  0  0  0  0
 24 23  1  0  0  0  0
 25 27  1  0  0  0  0
 25 23  1  0  0  0  0
 26 25  1  0  0  0  0
 27 28  1  0  0  0  0
 28 29  1  0  0  0  0
 28 22  1  0  0  0  0
M  END
>  <minimizedAffinity>
-5.11866474

$$$$

 OpenBabel03272509173D

 29 31  0  0  1  0  0  0  0  0999 V2000
   37.5080   21.8430   33.6540 C   0  0  0  0  0  0  0  0  0  0  0  0
   38.1600   22.9840   34.1710 C   0  0  0  0  0  0  0  0  0  0  0  0
   37.9010   24.2000   33.5520 C   0  0  0  0  0  0  0  0  0  0  0  0
   37.0500   24.2520   32.4970 N   0  0  0  0  0  0  0  0  0  0  0  0
   36.4380   23.1270   32.0250 C   0  0  0  0  0  0  0  0  0  0  0  0
   36.6690   21.9290   32.6040 N   0  0  0  0  0  0  0  0  0  0  0  0
   37.6600   20.8670   34.0810 H   0  0  0  0  0  0  0  0  0  0  0  0
   35.7760   23.2840   31.1760 H   0  0  0  0  0  0  0  0  0  0  0  0
   38.6330   22.9230   36.6060 C   0  0  0  0  0  0  0  0  0  0  0  0
   39.0380   22.8490   35.2800 C   0  0  0  0  0  0  0  0  0  0  0  0
   40.3970   22.6270   35.1280 C   0  0  0  0  0  0  0  0  0  0  0  0
   41.2730   22.4920   36.2080 C   0  0  0  0  0  0  0  0  0  0  0  0
   40.7550   22.5840   37.5050 C   0  0  0  0  0  0  0  0  0  0  0  0
   39.4100   22.8040   37.7040 C   0  0  0  0  0  0  0  0  0  0  0  0
   40.8560   22.5450   34.1610 H   0  0  0  0  0  0  0  0  0  0  0  0
   42.3290   22.3180   36.0620 H   0  0  0  0  0  0  0  0  0  0  0  0
   41.4320   22.4800   38.3440 H   0  0  0  0  0  0  0  0  0  0  0  0
   37.2670   23.1480   36.8760 O   0  0  0  0  0  0  0  0  0  0  0  0
   36.9550   23.6680   37.6960 H   0  0  0  0  0  0  0  0  0  0  0  0
   38.9400   22.8890   39.0030 O   0  0  0  0  0  0  0  0  0  0  0  0
   38.3340   22.1900   39.4220 H   0  0  0  0  0  0  0  0  0  0  0  0
   38.5450   25.4380   34.0340 C   0  0  1  0  0  3  0  0  0  0  0  0
   38.7590   26.4320   32.9320 C   0  0  0  0  0  3  0  0  0  0  0  0
   38.6510   26.0040   31.9160 H   0  0  0  0  0  0  0  0  0  0  0  0
   37.7230   27.4920   33.1680 C   0  0  0  0  0  3  0  0  0  0  0  0
   37.1750   27.7140   32.2240 H   0  0  0  0  0  0  0  0  0  0  0  0
   36.8480   26.9920   34.1290 O   0  0  0  0  0  0  0  0  0  0  0  0
   37.5620   26.1470   34.9380 C   0  0  0  0  0  3  0  0  0  0  0  0
   36.8460   25.4150   35.3920 H   0  0  0  0  0  0  0  0  0  0  0  0
  1  7  1  0  0  0  0
  1  2  1  0  0  0  0
  2 10  1  0  0  0  0
  3  2  2  0  0  0  0
  4  3  1  0  0  0  0
  5  4  2  0  0  0  0
  5  6  1  0  0  0  0
  6  1  2  0  0  0  0
  8  5  1  0  0  0  0
  9 18  1  0  0  0  0
  9 14  1  0  0  0  0
 10  9  2  0  0  0  0
 11 10  1  0  0  0  0
 11 12  2  0  0  0  0
 12 13  1  0  0  0  0
 13 14  2  0  0  0  0
 13 17  1  0  0  0  0
 14 20  1  0  0  0  0
 15 11  1  0  0  0  0
 16 12  1  0  0  0  0
 18 19  1  0  0  0  0
 20 21  1  0  0  0  0
 22  3  1  6  0  0  0
 22 28  1  0  0  0  0
 23 25  1  0  0  0  0
 23 22  1  0  0  0  0
 24 23  1  0  0  0  0
 25 27  1  0  0  0  0
 26 25  1  0  0  0  0
 27 28  1  0  0  0  0
 28 29  1  0  0  0  0
M  END
>  <minimizedAffinity>
-5.07630444

$$$$

 OpenBabel03272509173D

 29 31  0  0  1  0  0  0  0  0999 V2000
   38.4770   26.2320   34.6740 C   0  0  0  0  0  0  0  0  0  0  0  0
   38.5380   24.8240   34.5880 C   0  0  0  0  0  0  0  0  0  0  0  0
   37.8880   24.2230   33.5190 C   0  0  0  0  0  0  0  0  0  0  0  0
   37.2330   24.9890   32.6110 N   0  0  0  0  0  0  0  0  0  0  0  0
   37.1970   26.3480   32.7260 C   0  0  0  0  0  0  0  0  0  0  0  0
   37.8180   26.9640   33.7560 N   0  0  0  0  0  0  0  0  0  0  0  0
   38.9560   26.7680   35.4750 H   0  0  0  0  0  0  0  0  0  0  0  0
   36.6430   26.8630   31.9430 H   0  0  0  0  0  0  0  0  0  0  0  0
   38.6890   23.6710   36.7800 C   0  0  0  0  0  0  0  0  0  0  0  0
   39.2450   24.0910   35.5790 C   0  0  0  0  0  0  0  0  0  0  0  0
   40.5720   23.7260   35.4270 C   0  0  0  0  0  0  0  0  0  0  0  0
   41.2810   23.0050   36.3910 C   0  0  0  0  0  0  0  0  0  0  0  0
   40.6200   22.6330   37.5670 C   0  0  0  0  0  0  0  0  0  0  0  0
   39.3000   22.9740   37.7630 C   0  0  0  0  0  0  0  0  0  0  0  0
   41.1350   23.9800   34.5490 H   0  0  0  0  0  0  0  0  0  0  0  0
   42.3150   22.7320   36.2480 H   0  0  0  0  0  0  0  0  0  0  0  0
   41.1670   22.0740   38.3170 H   0  0  0  0  0  0  0  0  0  0  0  0
   37.3390   23.9900   37.0410 O   0  0  0  0  0  0  0  0  0  0  0  0
   36.9960   24.1650   37.9850 H   0  0  0  0  0  0  0  0  0  0  0  0
   38.6850   22.5870   38.9410 O   0  0  0  0  0  0  0  0  0  0  0  0
   37.9470   21.8900   38.9790 H   0  0  0  0  0  0  0  0  0  0  0  0
   37.9050   22.7550   33.3600 C   0  0  1  0  0  3  0  0  0  0  0  0
   36.6750   22.2440   32.6730 C   0  0  0  0  0  3  0  0  0  0  0  0
   35.8490   22.9810   32.6270 H   0  0  0  0  0  0  0  0  0  0  0  0
   37.1330   21.8820   31.2900 C   0  0  0  0  0  3  0  0  0  0  0  0
   36.4480   22.3180   30.5290 H   0  0  0  0  0  0  0  0  0  0  0  0
   38.4160   22.4020   31.1430 O   0  0  0  0  0  0  0  0  0  0  0  0
   39.0050   22.4100   32.3810 C   0  0  0  0  0  3  0  0  0  0  0  0
   39.7970   23.2010   32.3820 H   0  0  0  0  0  0  0  0  0  0  0  0
  1  7  1  0  0  0  0
  2  1  1  0  0  0  0
  2 10  1  0  0  0  0
  3  2  2  0  0  0  0
  4  5  2  0  0  0  0
  4  3  1  0  0  0  0
  5  6  1  0  0  0  0
  6  1  2  0  0  0  0
  8  5  1  0  0  0  0
  9 18  1  0  0  0  0
  9 14  1  0  0  0  0
 10  9  2  0  0  0  0
 11 10  1  0  0  0  0
 11 12  2  0  0  0  0
 12 13  1  0  0  0  0
 13 14  2  0  0  0  0
 13 17  1  0  0  0  0
 14 20  1  0  0  0  0
 15 11  1  0  0  0  0
 16 12  1  0  0  0  0
 18 19  1  0  0  0  0
 20 21  1  0  0  0  0
 22  3  1  6  0  0  0
 23 22  1  0  0  0  0
 24 23  1  0  0  0  0
 25 23  1  0  0  0  0
 26 25  1  0  0  0  0
 27 25  1  0  0  0  0
 27 28  1  0  0  0  0
 28 29  1  0  0  0  0
 28 22  1  0  0  0  0
M  END
>  <minimizedAffinity>
-5.0696454

$$$$

 OpenBabel03272509173D

 29 31  0  0  1  0  0  0  0  0999 V2000
   38.5700   23.8340   37.1920 C   0  0  0  0  0  0  0  0  0  0  0  0
   39.1570   24.4400   36.0600 C   0  0  0  0  0  0  0  0  0  0  0  0
   40.4080   23.9810   35.6690 C   0  0  0  0  0  0  0  0  0  0  0  0
   41.0100   22.9870   36.3690 N   0  0  0  0  0  0  0  0  0  0  0  0
   40.4110   22.4250   37.4580 C   0  0  0  0  0  0  0  0  0  0  0  0
   39.1950   22.8500   37.8650 N   0  0  0  0  0  0  0  0  0  0  0  0
   37.6030   24.1380   37.5550 H   0  0  0  0  0  0  0  0  0  0  0  0
   40.9830   21.6370   37.9450 H   0  0  0  0  0  0  0  0  0  0  0  0
   37.7770   25.2980   34.1860 C   0  0  0  0  0  0  0  0  0  0  0  0
   38.4630   25.4760   35.3790 C   0  0  0  0  0  0  0  0  0  0  0  0
   38.4110   26.7750   35.8580 C   0  0  0  0  0  0  0  0  0  0  0  0
   37.7330   27.8040   35.2010 C   0  0  0  0  0  0  0  0  0  0  0  0
   37.0740   27.5110   34.0020 C   0  0  0  0  0  0  0  0  0  0  0  0
   37.0980   26.2330   33.4860 C   0  0  0  0  0  0  0  0  0  0  0  0
   38.8950   27.0640   36.7720 H   0  0  0  0  0  0  0  0  0  0  0  0
   37.7070   28.8080   35.5960 H   0  0  0  0  0  0  0  0  0  0  0  0
   36.5470   28.3080   33.4890 H   0  0  0  0  0  0  0  0  0  0  0  0
   37.7650   24.0110   33.6060 O   0  0  0  0  0  0  0  0  0  0  0  0
   37.7330   23.8710   32.5970 H   0  0  0  0  0  0  0  0  0  0  0  0
   36.4330   25.9880   32.2980 O   0  0  0  0  0  0  0  0  0  0  0  0
   35.5980   25.4130   32.2370 H   0  0  0  0  0  0  0  0  0  0  0  0
   41.0880   24.5650   34.4960 C   0  0  1  0  0  3  0  0  0  0  0  0
   41.9190   25.7590   34.8580 C   0  0  0  0  0  3  0  0  0  0  0  0
   41.6970   26.1710   35.8620 H   0  0  0  0  0  0  0  0  0  0  0  0
   43.3360   25.2720   34.7910 C   0  0  0  0  0  3  0  0  0  0  0  0
   43.8900   25.5650   35.7100 H   0  0  0  0  0  0  0  0  0  0  0  0
   43.2800   23.8850   34.6800 O   0  0  0  0  0  0  0  0  0  0  0  0
   42.1210   23.5690   34.0200 C   0  0  0  0  0  3  0  0  0  0  0  0
   41.8300   22.5280   34.3110 H   0  0  0  0  0  0  0  0  0  0  0  0
  1  7  1  0  0  0  0
  1  6  1  0  0  0  0
  2  1  2  0  0  0  0
  3  2  1  0  0  0  0
  3  4  2  0  0  0  0
  4  5  1  0  0  0  0
  5  6  2  0  0  0  0
  5  8  1  0  0  0  0
  9 10  1  0  0  0  0
 10 11  2  0  0  0  0
 10  2  1  0  0  0  0
 11 15  1  0  0  0  0
 12 16  1  0  0  0  0
 12 11  1  0  0  0  0
 13 12  2  0  0  0  0
 14 13  1  0  0  0  0
 14  9  2  0  0  0  0
 17 13  1  0  0  0  0
 18  9  1  0  0  0  0
 19 18  1  0  0  0  0
 20 14  1  0  0  0  0
 21 20  1  0  0  0  0
 22 23  1  0  0  0  0
 22  3  1  1  0  0  0
 23 24  1  0  0  0  0
 25 23  1  0  0  0  0
 25 26  1  0  0  0  0
 27 25  1  0  0  0  0
 28 29  1  0  0  0  0
 28 22  1  0  0  0  0
 28 27  1  0  0  0  0
M  END
>  <minimizedAffinity>
-4.89311171

$$$$

 OpenBabel03272509173D

 29 31  0  0  1  0  0  0  0  0999 V2000
   36.4670   24.0820   31.4480 C   0  0  0  0  0  0  0  0  0  0  0  0
   37.0210   22.9660   32.1110 C   0  0  0  0  0  0  0  0  0  0  0  0
   37.7430   23.2090   33.2730 C   0  0  0  0  0  0  0  0  0  0  0  0
   37.8870   24.4800   33.7220 N   0  0  0  0  0  0  0  0  0  0  0  0
   37.3360   25.5350   33.0540 C   0  0  0  0  0  0  0  0  0  0  0  0
   36.6290   25.3320   31.9210 N   0  0  0  0  0  0  0  0  0  0  0  0
   35.8960   23.9710   30.5420 H   0  0  0  0  0  0  0  0  0  0  0  0
   37.5140   26.5100   33.5030 H   0  0  0  0  0  0  0  0  0  0  0  0
   35.7680   20.8320   31.9210 C   0  0  0  0  0  0  0  0  0  0  0  0
   36.8260   21.6640   31.5770 C   0  0  0  0  0  0  0  0  0  0  0  0
   37.6900   21.1030   30.6510 C   0  0  0  0  0  0  0  0  0  0  0  0
   37.5120   19.8250   30.1170 C   0  0  0  0  0  0  0  0  0  0  0  0
   36.4090   19.0730   30.5350 C   0  0  0  0  0  0  0  0  0  0  0  0
   35.5220   19.5890   31.4550 C   0  0  0  0  0  0  0  0  0  0  0  0
   38.5550   21.6280   30.2890 H   0  0  0  0  0  0  0  0  0  0  0  0
   38.2010   19.4120   29.3950 H   0  0  0  0  0  0  0  0  0  0  0  0
   36.2680   18.0810   30.1230 H   0  0  0  0  0  0  0  0  0  0  0  0
   34.8250   21.3030   32.8600 O   0  0  0  0  0  0  0  0  0  0  0  0
   34.3430   20.6780   33.5050 H   0  0  0  0  0  0  0  0  0  0  0  0
   34.4440   18.8120   31.8420 O   0  0  0  0  0  0  0  0  0  0  0  0
   33.4840   19.0340   31.6000 H   0  0  0  0  0  0  0  0  0  0  0  0
   38.3540   22.0940   34.0230 C   0  0  1  0  0  3  0  0  0  0  0  0
   39.6420   22.4900   34.6800 C   0  0  0  0  0  3  0  0  0  0  0  0
   40.0630   23.4430   34.3010 H   0  0  0  0  0  0  0  0  0  0  0  0
   39.3070   22.6080   36.1370 C   0  0  0  0  0  3  0  0  0  0  0  0
   39.6900   23.5690   36.5470 H   0  0  0  0  0  0  0  0  0  0  0  0
   37.9190   22.5580   36.2360 O   0  0  0  0  0  0  0  0  0  0  0  0
   37.4580   21.7860   35.2020 C   0  0  0  0  0  3  0  0  0  0  0  0
   36.4030   22.0920   34.9850 H   0  0  0  0  0  0  0  0  0  0  0  0
  1  6  2  0  0  0  0
  1  2  1  0  0  0  0
  2  3  2  0  0  0  0
  3  4  1  0  0  0  0
  5  8  1  0  0  0  0
  5  4  2  0  0  0  0
  6  5  1  0  0  0  0
  7  1  1  0  0  0  0
  9 18  1  0  0  0  0
 10  9  1  0  0  0  0
 10  2  1  0  0  0  0
 11 10  2  0  0  0  0
 12 13  2  0  0  0  0
 12 11  1  0  0  0  0
 13 14  1  0  0  0  0
 14 20  1  0  0  0  0
 14  9  2  0  0  0  0
 15 11  1  0  0  0  0
 16 12  1  0  0  0  0
 17 13  1  0  0  0  0
 18 19  1  0  0  0  0
 21 20  1  0  0  0  0
 22  3  1  1  0  0  0
 22 23  1  0  0  0  0
 22 28  1  0  0  0  0
 23 25  1  0  0  0  0
 24 23  1  0  0  0  0
 25 27  1  0  0  0  0
 25 26  1  0  0  0  0
 28 27  1  0  0  0  0
 29 28  1  0  0  0  0
M  END
>  <minimizedAffinity>
-4.84826994

$$$$

 OpenBabel03272509173D

 29 31  0  0  1  0  0  0  0  0999 V2000
   35.6650   31.5080   35.7700 C   0  0  0  0  0  0  0  0  0  0  0  0
   34.8960   30.5510   35.0730 C   0  0  0  0  0  0  0  0  0  0  0  0
   33.5820   30.3690   35.4850 C   0  0  0  0  0  0  0  0  0  0  0  0
   33.0920   31.0990   36.5180 N   0  0  0  0  0  0  0  0  0  0  0  0
   33.8670   32.0150   37.1680 C   0  0  0  0  0  0  0  0  0  0  0  0
   35.1490   32.2160   36.7920 N   0  0  0  0  0  0  0  0  0  0  0  0
   36.6910   31.7030   35.5080 H   0  0  0  0  0  0  0  0  0  0  0  0
   33.3730   32.5440   37.9810 H   0  0  0  0  0  0  0  0  0  0  0  0
   35.4420   30.2330   32.6740 C   0  0  0  0  0  0  0  0  0  0  0  0
   35.4810   29.8260   34.0010 C   0  0  0  0  0  0  0  0  0  0  0  0
   36.1510   28.6290   34.1920 C   0  0  0  0  0  0  0  0  0  0  0  0
   36.7310   27.9040   33.1490 C   0  0  0  0  0  0  0  0  0  0  0  0
   36.6320   28.4090   31.8470 C   0  0  0  0  0  0  0  0  0  0  0  0
   35.9740   29.5960   31.6080 C   0  0  0  0  0  0  0  0  0  0  0  0
   36.2620   28.1880   35.1650 H   0  0  0  0  0  0  0  0  0  0  0  0
   37.2490   26.9730   33.3250 H   0  0  0  0  0  0  0  0  0  0  0  0
   37.0810   27.8480   31.0360 H   0  0  0  0  0  0  0  0  0  0  0  0
   34.7820   31.4410   32.3640 O   0  0  0  0  0  0  0  0  0  0  0  0
   34.2980   31.5830   31.4780 H   0  0  0  0  0  0  0  0  0  0  0  0
   35.9000   30.0590   30.3070 O   0  0  0  0  0  0  0  0  0  0  0  0
   36.3850   30.8910   29.9840 H   0  0  0  0  0  0  0  0  0  0  0  0
   32.7130   29.3860   34.8070 C   0  0  1  0  0  3  0  0  0  0  0  0
   31.7700   28.7120   35.7570 C   0  0  0  0  0  3  0  0  0  0  0  0
   32.0350   28.8500   36.8240 H   0  0  0  0  0  0  0  0  0  0  0  0
   30.4320   29.3250   35.4650 C   0  0  0  0  0  3  0  0  0  0  0  0
   29.9400   29.6490   36.4100 H   0  0  0  0  0  0  0  0  0  0  0  0
   30.6640   30.4220   34.6400 O   0  0  0  0  0  0  0  0  0  0  0  0
   31.7800   30.1500   33.8940 C   0  0  0  0  0  3  0  0  0  0  0  0
   32.2380   31.1240   33.5880 H   0  0  0  0  0  0  0  0  0  0  0  0
  1  6  1  0  0  0  0
  2  3  1  0  0  0  0
  2  1  2  0  0  0  0
  3  4  2  0  0  0  0
  4  5  1  0  0  0  0
  5  8  1  0  0  0  0
  6  5  2  0  0  0  0
  7  1  1  0  0  0  0
  9 10  1  0  0  0  0
 10 11  2  0  0  0  0
 10  2  1  0  0  0  0
 11 15  1  0  0  0  0
 12 16  1  0  0  0  0
 12 11  1  0  0  0  0
 13 12  2  0  0  0  0
 14 13  1  0  0  0  0
 14  9  2  0  0  0  0
 17 13  1  0  0  0  0
 18  9  1  0  0  0  0
 19 18  1  0  0  0  0
 20 14  1  0  0  0  0
 21 20  1  0  0  0  0
 22  3  1  1  0  0  0
 22 23  1  0  0  0  0
 23 24  1  0  0  0  0
 25 23  1  0  0  0  0
 25 26  1  0  0  0  0
 27 25  1  0  0  0  0
 28 27  1  0  0  0  0
 28 22  1  0  0  0  0
 29 28  1  0  0  0  0
M  END
>  <minimizedAffinity>
-4.84349203

$$$$

 OpenBabel03272509173D

 29 31  0  0  1  0  0  0  0  0999 V2000
   40.5950   27.2540   33.6070 C   0  0  0  0  0  0  0  0  0  0  0  0
   39.3870   26.5550   33.8210 C   0  0  0  0  0  0  0  0  0  0  0  0
   39.4580   25.3620   34.5270 C   0  0  0  0  0  0  0  0  0  0  0  0
   40.6580   24.9170   34.9790 N   0  0  0  0  0  0  0  0  0  0  0  0
   41.8050   25.6200   34.7530 C   0  0  0  0  0  0  0  0  0  0  0  0
   41.7700   26.7840   34.0680 N   0  0  0  0  0  0  0  0  0  0  0  0
   40.6180   28.1850   33.0680 H   0  0  0  0  0  0  0  0  0  0  0  0
   42.7090   25.1720   35.1590 H   0  0  0  0  0  0  0  0  0  0  0  0
   37.7170   26.8950   32.0180 C   0  0  0  0  0  0  0  0  0  0  0  0
   38.1700   27.0870   33.3160 C   0  0  0  0  0  0  0  0  0  0  0  0
   37.3170   27.8560   34.0910 C   0  0  0  0  0  0  0  0  0  0  0  0
   36.1180   28.3850   33.6100 C   0  0  0  0  0  0  0  0  0  0  0  0
   35.7580   28.1280   32.2820 C   0  0  0  0  0  0  0  0  0  0  0  0
   36.5750   27.3690   31.4730 C   0  0  0  0  0  0  0  0  0  0  0  0
   37.5350   28.0880   35.1170 H   0  0  0  0  0  0  0  0  0  0  0  0
   35.4700   28.9810   34.2360 H   0  0  0  0  0  0  0  0  0  0  0  0
   34.8280   28.5380   31.9060 H   0  0  0  0  0  0  0  0  0  0  0  0
   38.5090   26.1270   31.1390 O   0  0  0  0  0  0  0  0  0  0  0  0
   38.5420   26.3100   30.1370 H   0  0  0  0  0  0  0  0  0  0  0  0
   36.1820   27.1390   30.1660 O   0  0  0  0  0  0  0  0  0  0  0  0
   35.9030   26.2250   29.8230 H   0  0  0  0  0  0  0  0  0  0  0  0
   38.2390   24.5730   34.7920 C   0  0  1  0  0  3  0  0  0  0  0  0
   38.4900   23.0970   34.7130 C   0  0  0  0  0  3  0  0  0  0  0  0
   39.4500   22.8310   34.2270 H   0  0  0  0  0  0  0  0  0  0  0  0
   38.4780   22.6320   36.1400 C   0  0  0  0  0  3  0  0  0  0  0  0
   39.3690   21.9980   36.3480 H   0  0  0  0  0  0  0  0  0  0  0  0
   38.5010   23.7750   36.9350 O   0  0  0  0  0  0  0  0  0  0  0  0
   37.8660   24.7730   36.2430 C   0  0  0  0  0  3  0  0  0  0  0  0
   38.2540   25.7540   36.6180 H   0  0  0  0  0  0  0  0  0  0  0  0
  1  2  2  0  0  0  0
  1  6  1  0  0  0  0
  2  3  1  0  0  0  0
  3  4  2  0  0  0  0
  5  4  1  0  0  0  0
  5  8  1  0  0  0  0
  6  5  2  0  0  0  0
  7  1  1  0  0  0  0
  9 10  1  0  0  0  0
 10  2  1  0  0  0  0
 10 11  2  0  0  0  0
 11 15  1  0  0  0  0
 12 11  1  0  0  0  0
 12 16  1  0  0  0  0
 13 12  2  0  0  0  0
 14  9  2  0  0  0  0
 14 13  1  0  0  0  0
 17 13  1  0  0  0  0
 18  9  1  0  0  0  0
 19 18  1  0  0  0  0
 20 14  1  0  0  0  0
 21 20  1  0  0  0  0
 22  3  1  1  0  0  0
 22 28  1  0  0  0  0
 23 22  1  0  0  0  0
 23 25  1  0  0  0  0
 24 23  1  0  0  0  0
 25 26  1  0  0  0  0
 25 27  1  0  0  0  0
 28 29  1  0  0  0  0
 28 27  1  0  0  0  0
M  END
>  <minimizedAffinity>
-4.82511711

$$$$
