
     RDKit          3D

 37 39  0  0  0  0  0  0  0  0999 V2000
   32.6902   30.3003   46.5604 Cl  0  0  0  0  0  0  0  0  0  0  0  0
   32.6361   28.5466   46.7245 C   0  0  0  0  0  0  0  0  0  0  0  0
   33.5196   27.9039   47.5955 C   0  0  0  0  0  0  0  0  0  0  0  0
   33.5146   26.5252   47.7583 C   0  0  0  0  0  0  0  0  0  0  0  0
   32.5786   25.8115   47.0045 C   0  0  0  0  0  0  0  0  0  0  0  0
   31.7025   26.4185   46.1445 C   0  0  0  0  0  0  0  0  0  0  0  0
   30.5775   25.4230   45.2554 Cl  0  0  0  0  0  0  0  0  0  0  0  0
   31.7406   27.8040   46.0107 C   0  0  0  0  0  0  0  0  0  0  0  0
   35.3897   29.3039   50.4446 C   0  0  0  0  0  0  0  0  0  0  0  0
   36.3225   30.1417   49.7768 C   0  0  0  0  0  0  0  0  0  0  0  0
   36.3030   30.2179   48.3881 C   0  0  0  0  0  0  0  0  0  0  0  0
   35.3537   29.4529   47.7560 N   0  0  0  0  0  0  0  0  0  0  0  0
   34.4946   28.6809   48.3766 C   0  0  0  0  0  0  0  0  0  0  0  0
   34.4978   28.5945   49.7098 N   0  0  0  0  0  0  0  0  0  0  0  0
   37.2976   30.9151   50.5938 C   0  0  0  0  0  0  0  0  0  0  0  0
   38.5940   30.7655   50.1307 F   0  0  0  0  0  0  0  0  0  0  0  0
   36.9440   32.2425   50.5887 F   0  0  0  0  0  0  0  0  0  0  0  0
   37.3003   30.5127   51.9211 F   0  0  0  0  0  0  0  0  0  0  0  0
   30.7976   28.4751   45.0828 C   0  0  0  0  0  0  0  0  0  0  0  0
   29.8283   27.5784   44.6336 F   0  0  0  0  0  0  0  0  0  0  0  0
   31.4221   29.0725   44.0371 F   0  0  0  0  0  0  0  0  0  0  0  0
   30.0952   29.4575   45.7796 F   0  0  0  0  0  0  0  0  0  0  0  0
   34.1992   26.0344   48.4323 H   0  0  0  0  0  0  0  0  0  0  0  0
   32.6175   24.7417   47.1692 H   0  0  0  0  0  0  0  0  0  0  0  0
   35.4106   29.2487   51.5364 H   0  0  0  0  0  0  0  0  0  0  0  0
   37.2331   31.0595   47.6507 C   0  0  2  0  0  0  0  0  0  0  0  0
   36.7779   32.4705   47.3759 C   0  0  1  0  0  0  0  0  0  0  0  0
   35.7102   32.4286   47.1475 H   0  0  0  0  0  0  0  0  0  0  0  0
   37.6041   32.7814   46.1171 C   0  0  2  0  0  0  0  0  0  0  0  0
   38.6250   33.1085   46.4399 H   0  0  0  0  0  0  0  0  0  0  0  0
   37.7821   31.5931   45.4628 O   0  0  0  0  0  0  0  0  0  0  0  0
   37.1791   30.5928   46.1784 C   0  0  2  0  0  0  0  0  0  0  0  0
   36.1008   30.5886   45.9150 H   0  0  0  0  0  0  0  0  0  0  0  0
   38.2910   30.9721   47.8810 H   0  0  0  0  0  0  0  0  0  0  0  0
   37.0896   33.2260   48.0865 H   0  0  0  0  0  0  0  0  0  0  0  0
   37.1691   33.6025   45.5284 H   0  0  0  0  0  0  0  0  0  0  0  0
   37.6650   29.6037   46.0672 H   0  0  0  0  0  0  0  0  0  0  0  0
  1  2  1  0
  2  3  2  0
  3  4  1  0
  3 13  1  0
  5  4  2  0
  6  5  1  0
  7  6  1  0
  8  6  2  0
  8  2  1  0
 10  9  2  0
 10 15  1  0
 11 10  1  0
 12 13  1  0
 12 11  2  0
 13 14  2  0
 14  9  1  0
 15 18  1  0
 16 15  1  0
 17 15  1  0
 19 22  1  0
 19  8  1  0
 20 19  1  0
 21 19  1  0
  4 23  1  0
  5 24  1  0
  9 25  1  0
 26 27  1  0
 27 28  1  6
 27 29  1  0
 29 30  1  1
 29 31  1  0
 31 32  1  0
 32 33  1  6
 32 26  1  0
 26 34  1  1
 27 35  1  0
 29 36  1  0
 32 37  1  0
 11 26  1  0
M  ISO  6  23  14  24  14  25  14  28  15  30  15  33  15
M  END
>  <DihAtoms>  (1) 
9,10,25,26

>  <DihDeg>  (1) 
-90.33691944044071

$$$$
