
 OpenBabel03272508083D

 23 23  0  0  1  0  0  0  0  0999 V2000
   38.4680   33.1090   48.1400 O   0  0  0  0  0  1  0  0  0  0  0  0
   38.4330   31.9400   47.2080 P   0  0  2  0  0  0  0  0  0  0  0  0
   37.2110   32.1760   46.0520 O   0  0  0  0  0  1  0  0  0  0  0  0
   36.5260   32.7770   46.4830 H   0  0  0  0  0  0  0  0  0  0  0  0
   38.2650   30.4370   47.9670 O   0  0  0  0  0  0  0  0  0  0  0  0
   37.2140   30.0930   51.5040 C   0  0  0  0  0  0  0  0  0  0  0  0
   38.0240   30.4900   50.4430 C   0  0  0  0  0  0  0  0  0  0  0  0
   37.6480   30.1630   49.1430 C   0  0  0  0  0  0  0  0  0  0  0  0
   36.4820   29.4540   48.9790 N   0  0  0  0  0  0  0  0  0  0  0  0
   35.7270   29.0890   50.0410 C   0  0  0  0  0  0  0  0  0  0  0  0
   36.0840   29.4010   51.2850 N   0  0  0  0  0  0  0  0  0  0  0  0
   37.6480   30.4260   52.4420 H   0  0  0  0  0  0  0  0  0  0  0  0
   38.9490   31.0460   50.4930 H   0  0  0  0  0  0  0  0  0  0  0  0
   34.8060   28.5310   49.9300 H   0  0  0  0  0  0  0  0  0  0  0  0
   39.9060   31.9350   46.3510 O   0  0  0  0  0  0  0  0  0  0  0  0
   39.8980   30.8380   45.5090 C   0  0  1  0  0  3  0  0  0  0  0  0
   38.5610   30.4760   44.9550 C   0  0  0  0  0  3  0  0  0  0  0  0
   37.7810   31.2730   45.1200 H   0  0  0  0  0  0  0  0  0  0  0  0
   38.8440   30.3180   43.4670 C   0  0  0  0  0  3  0  0  0  0  0  0
   38.6380   31.2400   42.8930 H   0  0  0  0  0  0  0  0  0  0  0  0
   40.2210   30.0650   43.4070 O   0  0  0  0  0  0  0  0  0  0  0  0
   40.7380   31.0550   44.2710 C   0  0  0  0  0  3  0  0  0  0  0  0
   41.8180   30.8140   44.4400 H   0  0  0  0  0  0  0  0  0  0  0  0
  2  5  1  0  0  0  0
  2  1  1  1  0  0  0
  3  4  1  0  0  0  0
  5  8  1  0  0  0  0
  6 12  1  0  0  0  0
  7 13  1  0  0  0  0
  7  6  2  0  0  0  0
  8  7  1  0  0  0  0
  9  8  2  0  0  0  0
  9 10  1  0  0  0  0
 10 11  2  0  0  0  0
 11  6  1  0  0  0  0
 14 10  1  0  0  0  0
 15  2  1  0  0  0  0
 16 15  1  6  0  0  0
 17 18  1  0  0  0  0
 17 16  1  0  0  0  0
 19 17  1  0  0  0  0
 20 19  1  0  0  0  0
 21 19  1  0  0  0  0
 21 22  1  0  0  0  0
 22 23  1  0  0  0  0
 22 16  1  0  0  0  0
M  END
>  <minimizedAffinity>
-4.70894384

>  <minimizedRMSD>
0.69215852

$$$$
