
 OpenBabel03272506443D

 31 33  0  0  1  0  0  0  0  0999 V2000
   32.2190   28.1320   47.6410 C   0  0  2  0  0  0  0  0  0  0  0  0
   33.5140   28.1300   48.4290 C   0  0  1  0  0  0  0  0  0  0  0  0
   34.0800   26.8840   48.2880 O   0  0  0  0  0  0  0  0  0  0  0  0
   33.3770   26.1730   47.3440 C   0  0  0  0  0  0  0  0  0  0  0  0
   32.6220   27.2010   46.5060 C   0  0  1  0  0  0  0  0  0  0  0  0
   31.3840   27.6610   48.1660 H   0  0  0  0  0  0  0  0  0  0  0  0
   33.3550   28.3640   49.4940 H   0  0  0  0  0  0  0  0  0  0  0  0
   33.9880   25.4970   46.7460 H   0  0  0  0  0  0  0  0  0  0  0  0
   32.5690   25.6330   47.9170 H   0  0  0  0  0  0  0  0  0  0  0  0
   33.2810   27.7290   45.7870 H   0  0  0  0  0  0  0  0  0  0  0  0
   31.9270   29.4200   47.1710 O   0  0  0  0  0  0  0  0  0  0  0  0
   32.4500   29.5810   46.3440 H   0  0  0  0  0  0  0  0  0  0  0  0
   34.6180   29.3290   47.6190 S   0  0  0  0  0  0  0  0  0  0  0  0
   37.2670   29.3270   50.5680 C   0  0  0  0  0  0  0  0  0  0  0  0
   37.7400   30.6300   50.6380 C   0  0  0  0  0  0  0  0  0  0  0  0
   37.2230   31.5590   49.7360 C   0  0  0  0  0  0  0  0  0  0  0  0
   36.2930   31.1470   48.8460 N   0  0  0  0  0  0  0  0  0  0  0  0
   35.8470   29.8620   48.8000 C   0  0  0  0  0  0  0  0  0  0  0  0
   36.3320   28.9360   49.6650 N   0  0  0  0  0  0  0  0  0  0  0  0
   37.6780   28.6180   51.2750 H   0  0  0  0  0  0  0  0  0  0  0  0
   38.4680   30.9920   51.3210 H   0  0  0  0  0  0  0  0  0  0  0  0
   37.5710   32.5840   49.7640 H   0  0  0  0  0  0  0  0  0  0  0  0
   31.5200   26.6140   45.9030 O   0  0  0  0  0  0  0  0  0  0  0  0
   31.5550   26.6580   44.5320 C   0  0  1  0  0  3  0  0  0  0  0  0
   30.2300   26.1710   43.9780 C   0  0  0  0  0  3  0  0  0  0  0  0
   30.2510   25.0890   43.7510 H   0  0  0  0  0  0  0  0  0  0  0  0
   30.1720   26.9860   42.6820 C   0  0  0  0  0  3  0  0  0  0  0  0
   29.1510   27.0340   42.2940 H   0  0  0  0  0  0  0  0  0  0  0  0
   30.5100   28.2470   43.1790 O   0  0  0  0  0  0  0  0  0  0  0  0
   31.6570   28.0290   43.9360 C   0  0  0  0  0  3  0  0  0  0  0  0
   31.7040   28.8270   44.7060 H   0  0  0  0  0  0  0  0  0  0  0  0
  1  6  1  1  0  0  0
  1  2  1  0  0  0  0
  2  7  1  1  0  0  0
  3  2  1  0  0  0  0
  4  9  1  0  0  0  0
  4  3  1  0  0  0  0
  5 10  1  6  0  0  0
  5  4  1  0  0  0  0
  5  1  1  0  0  0  0
  8  4  1  0  0  0  0
 11  1  1  0  0  0  0
 12 11  1  0  0  0  0
 13  2  1  0  0  0  0
 13 18  1  0  0  0  0
 14 15  1  0  0  0  0
 14 20  1  0  0  0  0
 15 21  1  0  0  0  0
 16 22  1  0  0  0  0
 16 15  2  0  0  0  0
 17 16  1  0  0  0  0
 18 17  2  0  0  0  0
 18 19  1  0  0  0  0
 19 14  2  0  0  0  0
 23  5  1  0  0  0  0
 24 23  1  1  0  0  0
 25 24  1  0  0  0  0
 26 25  1  0  0  0  0
 27 29  1  0  0  0  0
 27 25  1  0  0  0  0
 28 27  1  0  0  0  0
 29 30  1  0  0  0  0
 30 24  1  0  0  0  0
 30 31  1  0  0  0  0
M  END
>  <minimizedAffinity>
-3.70271111

>  <minimizedRMSD>
0.307783246

$$$$
