
 OpenBabel03272507513D

 27 29  0  0  1  0  0  0  0  0999 V2000
   36.5460   29.5930   49.4870 C   0  0  0  0  0  0  0  0  0  0  0  0
   36.4710   30.5640   48.4750 C   0  0  0  0  0  0  0  0  0  0  0  0
   35.4400   30.4080   47.5350 C   0  0  0  0  0  0  0  0  0  0  0  0
   34.5900   29.3590   47.6470 N   0  0  0  0  0  0  0  0  0  0  0  0
   34.6920   28.4510   48.6270 C   0  0  0  0  0  0  0  0  0  0  0  0
   35.6770   28.5710   49.5520 N   0  0  0  0  0  0  0  0  0  0  0  0
   35.3880   31.1590   46.7580 H   0  0  0  0  0  0  0  0  0  0  0  0
   33.9490   27.6660   48.5970 H   0  0  0  0  0  0  0  0  0  0  0  0
   37.4170   31.6190   48.4610 N   0  0  0  0  0  0  0  0  0  0  0  0
   37.3810   32.6130   49.3550 C   0  0  0  0  0  0  0  0  0  0  0  0
   38.3350   33.6320   49.3130 C   0  0  0  0  0  0  0  0  0  0  0  0
   39.2500   33.4880   48.3030 C   0  0  0  0  0  0  0  0  0  0  0  0
   40.1380   34.4070   48.2390 O   0  0  0  0  0  0  0  0  0  0  0  0
   39.3170   32.5110   47.3930 N   0  0  0  0  0  0  0  0  0  0  0  0
   38.3600   31.5510   47.4900 C   0  0  0  0  0  0  0  0  0  0  0  0
   38.4090   30.6160   46.6320 O   0  0  0  0  0  0  0  0  0  0  0  0
   36.6190   32.6660   50.1320 H   0  0  0  0  0  0  0  0  0  0  0  0
   38.3620   34.4640   50.0050 H   0  0  0  0  0  0  0  0  0  0  0  0
   40.0660   32.5080   46.6670 H   0  0  0  0  0  0  0  0  0  0  0  0
   37.5570   29.5940   50.5420 C   0  0  2  0  0  3  0  0  0  0  0  0
   38.0630   28.1900   50.8600 C   0  0  0  0  0  3  0  0  0  0  0  0
   39.0350   28.0080   50.3650 H   0  0  0  0  0  0  0  0  0  0  0  0
   38.2880   28.2740   52.3480 C   0  0  0  0  0  3  0  0  0  0  0  0
   37.5530   27.6770   52.9370 H   0  0  0  0  0  0  0  0  0  0  0  0
   38.0880   29.6150   52.7120 O   0  0  0  0  0  0  0  0  0  0  0  0
   37.0140   30.0110   51.8880 C   0  0  0  0  0  3  0  0  0  0  0  0
   36.8770   31.1010   51.9830 H   0  0  0  0  0  0  0  0  0  0  0  0
  1  6  1  0  0  0  0
  2  1  2  0  0  0  0
  3  4  2  0  0  0  0
  3  2  1  0  0  0  0
  4  5  1  0  0  0  0
  5  6  2  0  0  0  0
  7  3  1  0  0  0  0
  8  5  1  0  0  0  0
  9  2  1  0  0  0  0
  9 10  1  0  0  0  0
 10 17  1  0  0  0  0
 11 10  2  0  0  0  0
 11 18  1  0  0  0  0
 12 11  1  0  0  0  0
 13 12  2  0  0  0  0
 14 15  1  0  0  0  0
 14 12  1  0  0  0  0
 15  9  1  0  0  0  0
 16 15  2  0  0  0  0
 19 14  1  0  0  0  0
 20  1  1  6  0  0  0
 20 21  1  0  0  0  0
 20 26  1  0  0  0  0
 21 23  1  0  0  0  0
 22 21  1  0  0  0  0
 23 25  1  0  0  0  0
 23 24  1  0  0  0  0
 26 27  1  0  0  0  0
 26 25  1  0  0  0  0
M  END
>  <minimizedAffinity>
-3.79356337

>  <minimizedRMSD>
1.06245112

$$$$
