
 OpenBabel03272508283D

 37 40  0  0  1  0  0  0  0  0999 V2000
   33.9880   28.9960   47.3490 C   0  0  2  0  0  0  0  0  0  0  0  0
   34.7430   28.2440   48.4340 C   0  0  2  0  0  0  0  0  0  0  0  0
   33.8480   28.0710   49.4520 O   0  0  0  0  0  0  0  0  0  0  0  0
   32.5730   28.1180   48.9850 C   0  0  0  0  0  0  0  0  0  0  0  0
   32.6220   28.3130   47.4850 C   0  0  1  0  0  0  0  0  0  0  0  0
   33.8130   30.0430   47.6080 H   0  0  0  0  0  0  0  0  0  0  0  0
   35.0440   27.2810   47.9550 H   0  0  0  0  0  0  0  0  0  0  0  0
   32.0060   27.2160   49.2740 H   0  0  0  0  0  0  0  0  0  0  0  0
   32.0760   29.0190   49.4370 H   0  0  0  0  0  0  0  0  0  0  0  0
   32.6910   27.3230   46.9910 H   0  0  0  0  0  0  0  0  0  0  0  0
   35.7970   30.5260   49.0400 C   0  0  1  0  0  0  0  0  0  0  0  0
   35.8960   29.0990   48.8500 C   0  0  1  0  0  0  0  0  0  0  0  0
   36.0360   29.6090   50.2480 C   0  0  0  0  0  0  0  0  0  0  0  0
   34.8920   31.1290   49.2080 H   0  0  0  0  0  0  0  0  0  0  0  0
   36.8700   28.7240   48.4210 H   0  0  0  0  0  0  0  0  0  0  0  0
   35.1860   29.3740   50.9130 H   0  0  0  0  0  0  0  0  0  0  0  0
   37.0140   29.6280   50.7490 H   0  0  0  0  0  0  0  0  0  0  0  0
   36.9870   31.4370   48.7850 C   0  0  0  0  0  0  0  0  0  0  0  0
   37.2000   32.4850   49.6820 C   0  0  0  0  0  0  0  0  0  0  0  0
   38.2850   33.2990   49.3870 C   0  0  0  0  0  0  0  0  0  0  0  0
   39.0700   33.0610   48.2830 N   0  0  0  0  0  0  0  0  0  0  0  0
   38.8210   32.0310   47.4450 C   0  0  0  0  0  0  0  0  0  0  0  0
   37.7710   31.2120   47.6980 N   0  0  0  0  0  0  0  0  0  0  0  0
   36.5560   32.6240   50.5250 H   0  0  0  0  0  0  0  0  0  0  0  0
   38.4840   34.1240   50.0590 H   0  0  0  0  0  0  0  0  0  0  0  0
   39.4710   31.8930   46.5960 H   0  0  0  0  0  0  0  0  0  0  0  0
   34.5170   28.8210   46.0840 O   0  0  0  0  0  0  0  0  0  0  0  0
   34.5150   27.8480   45.8890 H   0  0  0  0  0  0  0  0  0  0  0  0
   31.6160   29.0930   46.9810 O   0  0  0  0  0  0  0  0  0  0  0  0
   30.7450   28.4360   46.1370 C   0  0  2  0  0  3  0  0  0  0  0  0
   31.3010   27.1090   45.6500 C   0  0  0  0  0  3  0  0  0  0  0  0
   31.0080   26.2570   46.2600 H   0  0  0  0  0  0  0  0  0  0  0  0
   30.5830   26.9990   44.3150 C   0  0  0  0  0  3  0  0  0  0  0  0
   29.5860   26.5070   44.4580 H   0  0  0  0  0  0  0  0  0  0  0  0
   30.4550   28.2810   43.8160 O   0  0  0  0  0  0  0  0  0  0  0  0
   30.6800   29.1930   44.8350 C   0  0  0  0  0  3  0  0  0  0  0  0
   29.9660   30.0400   44.8440 H   0  0  0  0  0  0  0  0  0  0  0  0
  1  5  1  0  0  0  0
  1  6  1  1  0  0  0
  1  2  1  0  0  0  0
  2  7  1  6  0  0  0
  2 12  1  0  0  0  0
  2  3  1  0  0  0  0
  4  8  1  0  0  0  0
  4  9  1  0  0  0  0
  4  3  1  0  0  0  0
  5 10  1  6  0  0  0
  5  4  1  0  0  0  0
 11 14  1  6  0  0  0
 11 13  1  0  0  0  0
 12 15  1  6  0  0  0
 12 11  1  0  0  0  0
 12 13  1  0  0  0  0
 13 17  1  0  0  0  0
 13 16  1  0  0  0  0
 18 11  1  0  0  0  0
 18 19  1  0  0  0  0
 19 24  1  0  0  0  0
 20 19  2  0  0  0  0
 20 25  1  0  0  0  0
 21 20  1  0  0  0  0
 22 23  1  0  0  0  0
 22 21  2  0  0  0  0
 23 18  2  0  0  0  0
 26 22  1  0  0  0  0
 27  1  1  0  0  0  0
 28 27  1  0  0  0  0
 29  5  1  0  0  0  0
 30 29  1  1  0  0  0
 31 30  1  0  0  0  0
 31 32  1  0  0  0  0
 33 34  1  0  0  0  0
 33 31  1  0  0  0  0
 35 33  1  0  0  0  0
 35 36  1  0  0  0  0
 36 37  1  0  0  0  0
 36 30  1  0  0  0  0
M  END
>  <minimizedAffinity>
-4.68436289

>  <minimizedRMSD>
0.305986196

$$$$
