
     RDKit          3D

 26 27  0  0  0  0  0  0  0  0999 V2000
   36.7914   29.6870   51.1113 C   0  0  0  0  0  0  0  0  0  0  0  0
   37.2962   30.0612   49.8784 C   0  0  0  0  0  0  0  0  0  0  0  0
   36.5503   29.8522   48.7429 C   0  0  0  0  0  0  0  0  0  0  0  0
   35.3186   29.2715   48.8950 N   0  0  0  0  0  0  0  0  0  0  0  0
   34.8344   28.9085   50.1131 C   0  0  0  0  0  0  0  0  0  0  0  0
   35.5719   29.1198   51.1957 N   0  0  0  0  0  0  0  0  0  0  0  0
   38.6293   32.0680   49.4937 C   0  0  0  0  0  0  0  0  0  0  0  0
   37.8053   33.0379   49.4689 O   0  0  0  0  0  0  0  0  0  0  0  0
   38.5513   30.6576   49.6834 N   0  0  0  0  0  0  0  0  0  0  0  0
   37.6452   29.9552   52.1617 O   0  0  0  0  0  0  0  0  0  0  0  0
   36.9070   30.1302   47.7544 H   0  0  0  0  0  0  0  0  0  0  0  0
   33.8571   28.4515   50.2010 H   0  0  0  0  0  0  0  0  0  0  0  0
   39.5720   32.5903   49.3136 H   0  0  0  0  0  0  0  0  0  0  0  0
   39.4650   30.1919   49.6578 H   0  0  0  0  0  0  0  0  0  0  0  0
   37.1684   29.5892   53.4353 C   0  0  2  0  0  0  0  0  0  0  0  0
   36.1975   30.5941   54.0214 C   0  0  2  0  0  0  0  0  0  0  0  0
   35.1688   30.4889   53.6548 H   0  0  0  0  0  0  0  0  0  0  0  0
   36.3441   30.2659   55.4958 C   0  0  1  0  0  0  0  0  0  0  0  0
   36.3328   31.1879   56.1081 H   0  0  0  0  0  0  0  0  0  0  0  0
   37.5153   29.5578   55.6503 O   0  0  0  0  0  0  0  0  0  0  0  0
   38.2606   29.6779   54.5049 C   0  0  1  0  0  0  0  0  0  0  0  0
   38.9322   28.8166   54.3259 H   0  0  0  0  0  0  0  0  0  0  0  0
   36.7102   28.5932   53.4775 H   0  0  0  0  0  0  0  0  0  0  0  0
   36.5923   31.6355   53.9128 H   0  0  0  0  0  0  0  0  0  0  0  0
   35.4895   29.6154   55.7572 H   0  0  0  0  0  0  0  0  0  0  0  0
   38.7212   30.6645   54.4180 H   0  0  0  0  0  0  0  0  0  0  0  0
  1  6  1  0
  1 10  1  0
  2  1  2  0
  3  4  2  0
  3  2  1  0
  4  5  1  0
  5  6  2  0
  7  9  1  0
  8  7  2  0
  9  2  1  0
  3 11  1  0
  5 12  1  0
  7 13  1  0
  9 14  1  0
 15 16  1  0
 16 17  1  6
 16 18  1  0
 18 19  1  1
 18 20  1  0
 20 21  1  0
 21 22  1  6
 21 15  1  0
 15 23  1  6
 16 24  1  0
 18 25  1  0
 21 26  1  0
 10 15  1  0
M  ISO  6  11  14  12  14  13   6  17  15  19  15  22  15
M  END
>  <DihAtoms>  (1) 
0,9,14,15

>  <DihDeg>  (1) 
-125.14838826274749

$$$$
