
     RDKit          3D

 26 27  0  0  0  0  0  0  0  0999 V2000
   36.7914   29.6870   51.1113 C   0  0  0  0  0  0  0  0  0  0  0  0
   37.2962   30.0612   49.8784 C   0  0  0  0  0  0  0  0  0  0  0  0
   36.5503   29.8522   48.7429 C   0  0  0  0  0  0  0  0  0  0  0  0
   35.3186   29.2715   48.8950 N   0  0  0  0  0  0  0  0  0  0  0  0
   34.8344   28.9085   50.1131 C   0  0  0  0  0  0  0  0  0  0  0  0
   35.5719   29.1198   51.1957 N   0  0  0  0  0  0  0  0  0  0  0  0
   38.6293   32.0680   49.4937 C   0  0  0  0  0  0  0  0  0  0  0  0
   37.8053   33.0379   49.4689 O   0  0  0  0  0  0  0  0  0  0  0  0
   38.5513   30.6576   49.6834 N   0  0  0  0  0  0  0  0  0  0  0  0
   37.6452   29.9552   52.1617 O   0  0  0  0  0  0  0  0  0  0  0  0
   36.9070   30.1302   47.7544 H   0  0  0  0  0  0  0  0  0  0  0  0
   33.8571   28.4515   50.2010 H   0  0  0  0  0  0  0  0  0  0  0  0
   39.5720   32.5903   49.3136 H   0  0  0  0  0  0  0  0  0  0  0  0
   39.4650   30.1919   49.6578 H   0  0  0  0  0  0  0  0  0  0  0  0
   37.1684   29.5892   53.4353 C   0  0  2  0  0  0  0  0  0  0  0  0
   36.4983   30.7304   54.1732 C   0  0  2  0  0  0  0  0  0  0  0  0
   35.4549   30.9014   53.8805 H   0  0  0  0  0  0  0  0  0  0  0  0
   36.6464   30.2378   55.6009 C   0  0  1  0  0  0  0  0  0  0  0  0
   36.8889   31.0746   56.2838 H   0  0  0  0  0  0  0  0  0  0  0  0
   37.6232   29.2668   55.6071 O   0  0  0  0  0  0  0  0  0  0  0  0
   38.3095   29.3204   54.4205 C   0  0  1  0  0  0  0  0  0  0  0  0
   38.7464   28.3484   54.1219 H   0  0  0  0  0  0  0  0  0  0  0  0
   36.4903   28.7267   53.4336 H   0  0  0  0  0  0  0  0  0  0  0  0
   37.1219   31.6579   54.1175 H   0  0  0  0  0  0  0  0  0  0  0  0
   35.6783   29.7804   55.8753 H   0  0  0  0  0  0  0  0  0  0  0  0
   38.9851   30.1776   54.3768 H   0  0  0  0  0  0  0  0  0  0  0  0
  1  6  1  0
  1 10  1  0
  2  1  2  0
  3  4  2  0
  3  2  1  0
  4  5  1  0
  5  6  2  0
  7  9  1  0
  8  7  2  0
  9  2  1  0
  3 11  1  0
  5 12  1  0
  7 13  1  0
  9 14  1  0
 15 16  1  0
 16 17  1  6
 16 18  1  0
 18 19  1  1
 18 20  1  0
 20 21  1  0
 21 22  1  6
 21 15  1  0
 15 23  1  6
 16 24  1  0
 18 25  1  0
 21 26  1  0
 10 15  1  0
M  ISO  6  11  14  12  14  13   6  17  15  19  15  22  15
M  END
>  <DihAtoms>  (1) 
0,9,14,15

>  <DihDeg>  (1) 
-125.14838826274749

$$$$
