
 OpenBabel03272510043D

 36 38  0  0  1  0  0  0  0  0999 V2000
   37.0250   30.8610   44.3730 C   0  0  0  0  0  0  0  0  0  0  0  0
   36.5360   30.5690   45.6070 C   0  0  0  0  0  0  0  0  0  0  0  0
   35.3090   29.9240   45.7290 C   0  0  0  0  0  0  0  0  0  0  0  0
   34.5460   29.5590   44.6450 C   0  0  0  0  0  0  0  0  0  0  0  0
   35.0040   29.8390   43.3810 C   0  0  0  0  0  0  0  0  0  0  0  0
   36.2170   30.4750   43.2920 C   0  0  0  0  0  0  0  0  0  0  0  0
   34.9460   29.7030   46.7480 H   0  0  0  0  0  0  0  0  0  0  0  0
   33.6190   29.0660   44.8570 H   0  0  0  0  0  0  0  0  0  0  0  0
   34.3770   29.5370   42.5820 H   0  0  0  0  0  0  0  0  0  0  0  0
   36.4640   30.6420   42.2340 H   0  0  0  0  0  0  0  0  0  0  0  0
   38.8430   32.3410   47.8520 C   0  0  0  0  0  0  0  0  0  0  0  0
   38.1320   31.9600   46.7250 C   0  0  0  0  0  0  0  0  0  0  0  0
   37.2370   30.9400   46.7890 C   0  0  0  0  0  0  0  0  0  0  0  0
   37.0770   30.3290   47.9960 N   0  0  0  0  0  0  0  0  0  0  0  0
   37.7570   30.6930   49.0880 C   0  0  0  0  0  0  0  0  0  0  0  0
   38.6370   31.6940   49.0090 N   0  0  0  0  0  0  0  0  0  0  0  0
   39.5800   33.1120   47.9760 H   0  0  0  0  0  0  0  0  0  0  0  0
   38.4520   32.6430   45.9760 H   0  0  0  0  0  0  0  0  0  0  0  0
   37.4310   29.9810   50.3530 C   0  0  0  0  0  0  0  0  0  0  0  0
   38.0170   30.5850   51.4500 F   0  0  0  0  0  0  0  0  0  0  0  0
   36.0210   30.1520   50.6270 F   0  0  0  0  0  0  0  0  0  0  0  0
   37.5950   28.6780   50.3690 F   0  0  0  0  0  0  0  0  0  0  0  0
   38.5270   31.6110   44.0760 S   0  0  0  0  0  0  0  0  0  0  0  0
   38.5080   33.0430   44.5310 O   0  0  0  0  0  0  0  0  0  0  0  0
   38.3620   31.9060   42.6100 O   0  0  0  0  0  0  0  0  0  0  0  0
   40.0000   30.8810   43.6910 C   0  0  0  0  0  0  0  0  0  0  0  0
   40.8170   31.5490   43.3670 H   0  0  0  0  0  0  0  0  0  0  0  0
   40.4320   30.5580   44.7050 H   0  0  0  0  0  0  0  0  0  0  0  0
   39.9340   29.5990   42.9470 C   0  0  1  0  0  0  0  0  0  0  0  0
   39.2110   29.5670   41.6560 C   0  0  0  0  0  0  0  0  0  0  0  0
   39.3130   30.4920   41.0660 H   0  0  0  0  0  0  0  0  0  0  0  0
   39.9470   28.4320   40.9220 C   0  0  0  0  0  0  0  0  0  0  0  0
   40.0100   28.6280   39.8330 H   0  0  0  0  0  0  0  0  0  0  0  0
   41.1970   28.3220   41.4530 O   0  0  0  0  0  0  0  0  0  0  0  0
   41.3520   29.2190   42.4670 C   0  0  0  0  0  0  0  0  0  0  0  0
   41.7640   30.1890   42.0910 H   0  0  0  0  0  0  0  0  0  0  0  0
  1  2  1  0  0  0  0
  2  3  2  0  0  0  0
  2 13  1  0  0  0  0
  3  7  1  0  0  0  0
  4  8  1  0  0  0  0
  4  3  1  0  0  0  0
  5  4  2  0  0  0  0
  6  5  1  0  0  0  0
  6  1  2  0  0  0  0
  9  5  1  0  0  0  0
 10  6  1  0  0  0  0
 11 17  1  0  0  0  0
 11 16  1  0  0  0  0
 12 13  1  0  0  0  0
 12 11  2  0  0  0  0
 13 14  2  0  0  0  0
 14 15  1  0  0  0  0
 15 19  1  0  0  0  0
 16 15  2  0  0  0  0
 18 12  1  0  0  0  0
 19 22  1  0  0  0  0
 19 21  1  0  0  0  0
 19 20  1  0  0  0  0
 23  1  1  0  0  0  0
 23 24  2  0  0  0  0
 25 23  2  0  0  0  0
 26 23  1  0  0  0  0
 26 28  1  0  0  0  0
 27 26  1  0  0  0  0
 29 26  1  6  0  0  0
 30 29  1  0  0  0  0
 31 30  1  0  0  0  0
 32 34  1  0  0  0  0
 32 30  1  0  0  0  0
 33 32  1  0  0  0  0
 34 35  1  0  0  0  0
 35 29  1  0  0  0  0
 36 35  1  0  0  0  0
M  END
>  <minimizedAffinity>
-5.55395555

>  <minimizedRMSD>
1.97047091

$$$$
