
 OpenBabel03272501063D

 29 31  0  0  1  0  0  0  0  0999 V2000
   37.9380   24.0730   33.6390 C   0  0  2  0  0  0  0  0  0  0  0  0
   38.4780   22.7970   34.3230 C   0  0  2  0  0  0  0  0  0  0  0  0
   37.4360   21.8310   33.9300 C   0  0  0  0  0  0  0  0  0  0  0  0
   37.1070   22.1320   32.6130 O   0  0  0  0  0  0  0  0  0  0  0  0
   37.4970   23.4100   32.3280 C   0  0  0  0  0  0  0  0  0  0  0  0
   37.0690   24.4560   34.1720 H   0  0  0  0  0  0  0  0  0  0  0  0
   39.4190   22.5920   33.7320 H   0  0  0  0  0  0  0  0  0  0  0  0
   36.5320   21.8930   34.5880 H   0  0  0  0  0  0  0  0  0  0  0  0
   37.8170   20.7880   33.9770 H   0  0  0  0  0  0  0  0  0  0  0  0
   38.3740   23.3320   31.6300 H   0  0  0  0  0  0  0  0  0  0  0  0
   36.6960   23.9790   31.8450 H   0  0  0  0  0  0  0  0  0  0  0  0
   40.0060   22.6990   37.7810 C   0  0  0  0  0  0  0  0  0  0  0  0
   39.8680   22.5000   36.3860 C   0  0  0  0  0  0  0  0  0  0  0  0
   38.6980   22.9790   35.7380 C   0  0  0  0  0  0  0  0  0  0  0  0
   37.7660   23.6130   36.5230 N   0  0  0  0  0  0  0  0  0  0  0  0
   37.9230   23.7850   37.8340 C   0  0  0  0  0  0  0  0  0  0  0  0
   39.0330   23.3370   38.4780 N   0  0  0  0  0  0  0  0  0  0  0  0
   40.8870   22.3430   38.2960 H   0  0  0  0  0  0  0  0  0  0  0  0
   40.6500   21.9930   35.8470 H   0  0  0  0  0  0  0  0  0  0  0  0
   37.0950   24.3040   38.3060 H   0  0  0  0  0  0  0  0  0  0  0  0
   38.9590   24.9720   33.4130 O   0  0  0  0  0  0  0  0  0  0  0  0
   38.7120   26.2610   33.7870 C   0  0  2  0  0  3  0  0  0  0  0  0
   39.5540   26.4890   35.0520 C   0  0  0  0  0  3  0  0  0  0  0  0
   39.7440   25.5240   35.5770 H   0  0  0  0  0  0  0  0  0  0  0  0
   38.6600   27.3200   35.9160 C   0  0  0  0  0  3  0  0  0  0  0  0
   39.0870   28.3350   36.0760 H   0  0  0  0  0  0  0  0  0  0  0  0
   37.4100   27.4020   35.3440 O   0  0  0  0  0  0  0  0  0  0  0  0
   37.3420   26.4830   34.3140 C   0  0  0  0  0  3  0  0  0  0  0  0
   36.6970   26.9710   33.5320 H   0  0  0  0  0  0  0  0  0  0  0  0
  1  6  1  1  0  0  0
  1  2  1  0  0  0  0
  2  7  1  6  0  0  0
  2 14  1  0  0  0  0
  3  9  1  0  0  0  0
  3  2  1  0  0  0  0
  3  8  1  0  0  0  0
  4  3  1  0  0  0  0
  5  4  1  0  0  0  0
  5  1  1  0  0  0  0
 10  5  1  0  0  0  0
 11  5  1  0  0  0  0
 12 18  1  0  0  0  0
 12 17  1  0  0  0  0
 13 12  2  0  0  0  0
 14 13  1  0  0  0  0
 14 15  2  0  0  0  0
 15 16  1  0  0  0  0
 16 20  1  0  0  0  0
 16 17  2  0  0  0  0
 19 13  1  0  0  0  0
 21  1  1  0  0  0  0
 22 21  1  1  0  0  0
 22 28  1  0  0  0  0
 22 23  1  0  0  0  0
 23 24  1  0  0  0  0
 23 25  1  0  0  0  0
 25 26  1  0  0  0  0
 27 25  1  0  0  0  0
 28 27  1  0  0  0  0
 29 28  1  0  0  0  0
M  END
>  <minimizedAffinity>
-4.39180231

$$$$

 OpenBabel03272501063D

 29 31  0  0  1  0  0  0  0  0999 V2000
   37.6490   25.8860   35.1050 C   0  0  2  0  0  0  0  0  0  0  0  0
   38.2910   25.5590   33.7380 C   0  0  2  0  0  0  0  0  0  0  0  0
   38.7840   26.8950   33.3560 C   0  0  0  0  0  0  0  0  0  0  0  0
   39.2800   27.4710   34.5200 O   0  0  0  0  0  0  0  0  0  0  0  0
   38.7480   26.8320   35.6050 C   0  0  0  0  0  0  0  0  0  0  0  0
   36.7190   26.4350   34.9710 H   0  0  0  0  0  0  0  0  0  0  0  0
   39.1660   24.9100   34.0360 H   0  0  0  0  0  0  0  0  0  0  0  0
   37.9780   27.5320   32.9120 H   0  0  0  0  0  0  0  0  0  0  0  0
   39.6050   26.8220   32.6120 H   0  0  0  0  0  0  0  0  0  0  0  0
   39.5800   26.2350   36.0680 H   0  0  0  0  0  0  0  0  0  0  0  0
   38.3560   27.5420   36.3410 H   0  0  0  0  0  0  0  0  0  0  0  0
   35.5530   24.9710   31.1960 C   0  0  0  0  0  0  0  0  0  0  0  0
   36.4440   25.6670   32.0490 C   0  0  0  0  0  0  0  0  0  0  0  0
   37.3650   24.9220   32.8320 C   0  0  0  0  0  0  0  0  0  0  0  0
   37.3270   23.5550   32.7060 N   0  0  0  0  0  0  0  0  0  0  0  0
   36.4770   22.9280   31.8950 C   0  0  0  0  0  0  0  0  0  0  0  0
   35.5860   23.6170   31.1350 N   0  0  0  0  0  0  0  0  0  0  0  0
   34.8430   25.5170   30.5900 H   0  0  0  0  0  0  0  0  0  0  0  0
   36.4070   26.7430   32.0840 H   0  0  0  0  0  0  0  0  0  0  0  0
   36.5760   21.8470   31.9140 H   0  0  0  0  0  0  0  0  0  0  0  0
   37.5830   24.7550   35.8930 O   0  0  0  0  0  0  0  0  0  0  0  0
   38.5210   24.6600   36.8790 C   0  0  2  0  0  3  0  0  0  0  0  0
   39.3780   23.4390   36.5120 C   0  0  0  0  0  3  0  0  0  0  0  0
   38.7950   22.7220   35.8880 H   0  0  0  0  0  0  0  0  0  0  0  0
   39.6440   22.7930   37.8340 C   0  0  0  0  0  3  0  0  0  0  0  0
   40.7270   22.8280   38.0870 H   0  0  0  0  0  0  0  0  0  0  0  0
   38.8960   23.4140   38.8100 O   0  0  0  0  0  0  0  0  0  0  0  0
   37.9730   24.2370   38.1930 C   0  0  0  0  0  3  0  0  0  0  0  0
   37.8720   25.1250   38.8770 H   0  0  0  0  0  0  0  0  0  0  0  0
  1  6  1  6  0  0  0
  1  5  1  0  0  0  0
  1 21  1  0  0  0  0
  2  7  1  1  0  0  0
  2  1  1  0  0  0  0
  3  2  1  0  0  0  0
  3  4  1  0  0  0  0
  4  5  1  0  0  0  0
  5 10  1  0  0  0  0
  5 11  1  0  0  0  0
  8  3  1  0  0  0  0
  9  3  1  0  0  0  0
 12 13  1  0  0  0  0
 13 19  1  0  0  0  0
 13 14  2  0  0  0  0
 14  2  1  0  0  0  0
 15 14  1  0  0  0  0
 16 20  1  0  0  0  0
 16 15  2  0  0  0  0
 17 12  2  0  0  0  0
 17 16  1  0  0  0  0
 18 12  1  0  0  0  0
 22 21  1  6  0  0  0
 22 28  1  0  0  0  0
 23 22  1  0  0  0  0
 23 25  1  0  0  0  0
 24 23  1  0  0  0  0
 25 26  1  0  0  0  0
 25 27  1  0  0  0  0
 28 27  1  0  0  0  0
 28 29  1  0  0  0  0
M  END
>  <minimizedAffinity>
-4.38860607

$$$$

 OpenBabel03272501063D

 29 31  0  0  1  0  0  0  0  0999 V2000
   38.7780   25.6300   33.3430 C   0  0  2  0  0  0  0  0  0  0  0  0
   39.0820   26.1330   34.7720 C   0  0  2  0  0  0  0  0  0  0  0  0
   40.4180   26.7200   34.5630 C   0  0  0  0  0  0  0  0  0  0  0  0
   40.3710   27.3550   33.3270 O   0  0  0  0  0  0  0  0  0  0  0  0
   39.3340   26.8490   32.5950 C   0  0  0  0  0  0  0  0  0  0  0  0
   39.3730   24.7490   33.1110 H   0  0  0  0  0  0  0  0  0  0  0  0
   38.3250   26.9620   34.8970 H   0  0  0  0  0  0  0  0  0  0  0  0
   41.2270   25.9470   34.5800 H   0  0  0  0  0  0  0  0  0  0  0  0
   40.6530   27.4720   35.3460 H   0  0  0  0  0  0  0  0  0  0  0  0
   38.5500   27.6530   32.5460 H   0  0  0  0  0  0  0  0  0  0  0  0
   39.6470   26.5820   31.5800 H   0  0  0  0  0  0  0  0  0  0  0  0
   37.9510   24.0460   37.7170 C   0  0  0  0  0  0  0  0  0  0  0  0
   37.9800   25.0990   36.7700 C   0  0  0  0  0  0  0  0  0  0  0  0
   38.9780   25.0850   35.7600 C   0  0  0  0  0  0  0  0  0  0  0  0
   39.8620   24.0340   35.7720 N   0  0  0  0  0  0  0  0  0  0  0  0
   39.8100   23.0580   36.6750 C   0  0  0  0  0  0  0  0  0  0  0  0
   38.8650   23.0470   37.6520 N   0  0  0  0  0  0  0  0  0  0  0  0
   37.2000   24.0350   38.4950 H   0  0  0  0  0  0  0  0  0  0  0  0
   37.2450   25.8840   36.8340 H   0  0  0  0  0  0  0  0  0  0  0  0
   40.5810   22.3040   36.5450 H   0  0  0  0  0  0  0  0  0  0  0  0
   37.4170   25.5160   33.1470 O   0  0  0  0  0  0  0  0  0  0  0  0
   37.0220   25.1860   31.8840 C   0  0  2  0  0  3  0  0  0  0  0  0
   35.8480   26.1220   31.5630 C   0  0  0  0  0  3  0  0  0  0  0  0
   35.3430   26.4550   32.4990 H   0  0  0  0  0  0  0  0  0  0  0  0
   34.9000   25.2440   30.8110 C   0  0  0  0  0  3  0  0  0  0  0  0
   34.7850   25.5850   29.7590 H   0  0  0  0  0  0  0  0  0  0  0  0
   35.3450   23.9410   30.8550 O   0  0  0  0  0  0  0  0  0  0  0  0
   36.3620   23.8590   31.7880 C   0  0  0  0  0  3  0  0  0  0  0  0
   37.0760   23.0960   31.3720 H   0  0  0  0  0  0  0  0  0  0  0  0
  1  6  1  6  0  0  0
  1  2  1  0  0  0  0
  2  7  1  1  0  0  0
  2 14  1  0  0  0  0
  3  8  1  0  0  0  0
  3  2  1  0  0  0  0
  3  9  1  0  0  0  0
  4  3  1  0  0  0  0
  5  4  1  0  0  0  0
  5  1  1  0  0  0  0
 10  5  1  0  0  0  0
 11  5  1  0  0  0  0
 12 18  1  0  0  0  0
 13 19  1  0  0  0  0
 13 12  2  0  0  0  0
 14 15  2  0  0  0  0
 14 13  1  0  0  0  0
 15 16  1  0  0  0  0
 16 17  2  0  0  0  0
 17 12  1  0  0  0  0
 20 16  1  0  0  0  0
 21  1  1  0  0  0  0
 22 21  1  1  0  0  0
 23 22  1  0  0  0  0
 23 24  1  0  0  0  0
 25 27  1  0  0  0  0
 25 23  1  0  0  0  0
 26 25  1  0  0  0  0
 27 28  1  0  0  0  0
 28 22  1  0  0  0  0
 29 28  1  0  0  0  0
M  END
>  <minimizedAffinity>
-4.31247425

$$$$

 OpenBabel03272501063D

 29 31  0  0  1  0  0  0  0  0999 V2000
   38.7000   25.0540   33.5120 C   0  0  2  0  0  0  0  0  0  0  0  0
   38.6630   25.7020   34.9140 C   0  0  2  0  0  0  0  0  0  0  0  0
   39.7080   26.7300   34.7530 C   0  0  0  0  0  0  0  0  0  0  0  0
   39.5520   27.2410   33.4700 O   0  0  0  0  0  0  0  0  0  0  0  0
   38.8440   26.3530   32.7100 C   0  0  0  0  0  0  0  0  0  0  0  0
   39.5940   24.4440   33.3950 H   0  0  0  0  0  0  0  0  0  0  0  0
   37.6480   26.1990   34.9180 H   0  0  0  0  0  0  0  0  0  0  0  0
   40.7370   26.3110   34.8900 H   0  0  0  0  0  0  0  0  0  0  0  0
   39.5770   27.5530   35.4880 H   0  0  0  0  0  0  0  0  0  0  0  0
   37.8310   26.8080   32.5410 H   0  0  0  0  0  0  0  0  0  0  0  0
   39.3280   26.1710   31.7440 H   0  0  0  0  0  0  0  0  0  0  0  0
   38.2780   23.7500   38.1300 C   0  0  0  0  0  0  0  0  0  0  0  0
   38.0190   24.7120   37.1230 C   0  0  0  0  0  0  0  0  0  0  0  0
   38.8520   24.7400   35.9730 C   0  0  0  0  0  0  0  0  0  0  0  0
   39.8680   23.8180   35.9170 N   0  0  0  0  0  0  0  0  0  0  0  0
   40.0880   22.9250   36.8800 C   0  0  0  0  0  0  0  0  0  0  0  0
   39.3050   22.8760   37.9910 N   0  0  0  0  0  0  0  0  0  0  0  0
   37.6570   23.7090   39.0150 H   0  0  0  0  0  0  0  0  0  0  0  0
   37.1990   25.3970   37.2480 H   0  0  0  0  0  0  0  0  0  0  0  0
   40.9300   22.2690   36.6820 H   0  0  0  0  0  0  0  0  0  0  0  0
   37.4990   24.4360   33.2310 O   0  0  0  0  0  0  0  0  0  0  0  0
   37.5840   23.1800   32.7050 C   0  0  2  0  0  3  0  0  0  0  0  0
   36.2960   22.9890   31.8900 C   0  0  0  0  0  3  0  0  0  0  0  0
   35.4810   23.6400   32.2820 H   0  0  0  0  0  0  0  0  0  0  0  0
   35.9240   21.5660   32.1590 C   0  0  0  0  0  3  0  0  0  0  0  0
   35.9860   20.9520   31.2330 H   0  0  0  0  0  0  0  0  0  0  0  0
   36.7440   21.0520   33.1400 O   0  0  0  0  0  0  0  0  0  0  0  0
   37.4450   22.0960   33.7120 C   0  0  0  0  0  3  0  0  0  0  0  0
   38.4540   21.6650   33.9620 H   0  0  0  0  0  0  0  0  0  0  0  0
  1  6  1  6  0  0  0
  1  2  1  0  0  0  0
  2  7  1  1  0  0  0
  2 14  1  0  0  0  0
  3  8  1  0  0  0  0
  3  2  1  0  0  0  0
  3  9  1  0  0  0  0
  4  3  1  0  0  0  0
  5  4  1  0  0  0  0
  5  1  1  0  0  0  0
 10  5  1  0  0  0  0
 11  5  1  0  0  0  0
 12 18  1  0  0  0  0
 13 19  1  0  0  0  0
 13 12  2  0  0  0  0
 14 13  1  0  0  0  0
 15 14  2  0  0  0  0
 15 16  1  0  0  0  0
 16 17  2  0  0  0  0
 17 12  1  0  0  0  0
 20 16  1  0  0  0  0
 21  1  1  0  0  0  0
 22 21  1  1  0  0  0
 22 28  1  0  0  0  0
 23 25  1  0  0  0  0
 23 24  1  0  0  0  0
 23 22  1  0  0  0  0
 25 27  1  0  0  0  0
 26 25  1  0  0  0  0
 27 28  1  0  0  0  0
 28 29  1  0  0  0  0
M  END
>  <minimizedAffinity>
-4.09415293

$$$$

 OpenBabel03272501063D

 29 31  0  0  1  0  0  0  0  0999 V2000
   38.7220   26.0910   33.3930 C   0  0  2  0  0  0  0  0  0  0  0  0
   39.3450   26.3000   34.7920 C   0  0  2  0  0  0  0  0  0  0  0  0
   40.7550   26.5160   34.4180 C   0  0  0  0  0  0  0  0  0  0  0  0
   40.7340   27.2950   33.2660 O   0  0  0  0  0  0  0  0  0  0  0  0
   39.5070   27.1940   32.6730 C   0  0  0  0  0  0  0  0  0  0  0  0
   38.9970   25.1170   32.9920 H   0  0  0  0  0  0  0  0  0  0  0  0
   38.8880   27.2830   35.1100 H   0  0  0  0  0  0  0  0  0  0  0  0
   41.2970   25.5540   34.2360 H   0  0  0  0  0  0  0  0  0  0  0  0
   41.3010   27.0670   35.2140 H   0  0  0  0  0  0  0  0  0  0  0  0
   38.9940   28.1820   32.8220 H   0  0  0  0  0  0  0  0  0  0  0  0
   39.5920   26.9850   31.6010 H   0  0  0  0  0  0  0  0  0  0  0  0
   37.8640   24.1730   37.5460 C   0  0  0  0  0  0  0  0  0  0  0  0
   38.0650   25.2830   36.6900 C   0  0  0  0  0  0  0  0  0  0  0  0
   39.0700   25.2030   35.6890 C   0  0  0  0  0  0  0  0  0  0  0  0
   39.7900   24.0360   35.6210 N   0  0  0  0  0  0  0  0  0  0  0  0
   39.5790   23.0080   36.4410 C   0  0  0  0  0  0  0  0  0  0  0  0
   38.6240   23.0580   37.4060 N   0  0  0  0  0  0  0  0  0  0  0  0
   37.1050   24.2110   38.3150 H   0  0  0  0  0  0  0  0  0  0  0  0
   37.4520   26.1600   36.8120 H   0  0  0  0  0  0  0  0  0  0  0  0
   40.2330   22.1620   36.2550 H   0  0  0  0  0  0  0  0  0  0  0  0
   37.3740   26.3840   33.4140 O   0  0  0  0  0  0  0  0  0  0  0  0
   37.0300   27.6330   32.9870 C   0  0  2  0  0  3  0  0  0  0  0  0
   36.3540   28.3060   34.1920 C   0  0  0  0  0  3  0  0  0  0  0  0
   35.9130   27.5420   34.8730 H   0  0  0  0  0  0  0  0  0  0  0  0
   35.2330   29.0780   33.5720 C   0  0  0  0  0  3  0  0  0  0  0  0
   35.3800   30.1730   33.7010 H   0  0  0  0  0  0  0  0  0  0  0  0
   35.1320   28.7540   32.2380 O   0  0  0  0  0  0  0  0  0  0  0  0
   35.9230   27.6470   31.9970 C   0  0  0  0  0  3  0  0  0  0  0  0
   36.3290   27.8010   30.9590 H   0  0  0  0  0  0  0  0  0  0  0  0
  1  6  1  6  0  0  0
  1 21  1  0  0  0  0
  1  2  1  0  0  0  0
  2  7  1  1  0  0  0
  2 14  1  0  0  0  0
  3  2  1  0  0  0  0
  3  9  1  0  0  0  0
  4  3  1  0  0  0  0
  5 10  1  0  0  0  0
  5  4  1  0  0  0  0
  5  1  1  0  0  0  0
  8  3  1  0  0  0  0
 11  5  1  0  0  0  0
 12 18  1  0  0  0  0
 13 19  1  0  0  0  0
 13 12  2  0  0  0  0
 14 13  1  0  0  0  0
 15 14  2  0  0  0  0
 15 16  1  0  0  0  0
 16 17  2  0  0  0  0
 17 12  1  0  0  0  0
 20 16  1  0  0  0  0
 22 21  1  1  0  0  0
 22 23  1  0  0  0  0
 23 24  1  0  0  0  0
 25 26  1  0  0  0  0
 25 23  1  0  0  0  0
 27 25  1  0  0  0  0
 28 27  1  0  0  0  0
 28 22  1  0  0  0  0
 29 28  1  0  0  0  0
M  END
>  <minimizedAffinity>
-4.08884001

$$$$

 OpenBabel03272501063D

 29 31  0  0  1  0  0  0  0  0999 V2000
   38.1030   23.4310   34.2010 C   0  0  2  0  0  0  0  0  0  0  0  0
   37.7310   23.0920   32.7400 C   0  0  2  0  0  0  0  0  0  0  0  0
   37.1100   24.3640   32.3280 C   0  0  0  0  0  0  0  0  0  0  0  0
   37.8810   25.3720   32.8990 O   0  0  0  0  0  0  0  0  0  0  0  0
   38.6020   24.8580   33.9400 C   0  0  0  0  0  0  0  0  0  0  0  0
   37.2140   23.4570   34.8280 H   0  0  0  0  0  0  0  0  0  0  0  0
   38.7460   22.9960   32.2530 H   0  0  0  0  0  0  0  0  0  0  0  0
   36.0450   24.4440   32.6630 H   0  0  0  0  0  0  0  0  0  0  0  0
   37.1280   24.4800   31.2240 H   0  0  0  0  0  0  0  0  0  0  0  0
   39.6740   24.8290   33.6070 H   0  0  0  0  0  0  0  0  0  0  0  0
   38.5140   25.4790   34.8380 H   0  0  0  0  0  0  0  0  0  0  0  0
   35.8540   20.1050   31.3760 C   0  0  0  0  0  0  0  0  0  0  0  0
   36.6820   21.2540   31.3990 C   0  0  0  0  0  0  0  0  0  0  0  0
   36.9140   21.9060   32.6400 C   0  0  0  0  0  0  0  0  0  0  0  0
   36.3070   21.3690   33.7490 N   0  0  0  0  0  0  0  0  0  0  0  0
   35.5330   20.2870   33.6960 C   0  0  0  0  0  0  0  0  0  0  0  0
   35.2950   19.6440   32.5220 N   0  0  0  0  0  0  0  0  0  0  0  0
   35.6630   19.5920   30.4430 H   0  0  0  0  0  0  0  0  0  0  0  0
   37.1200   21.6060   30.4810 H   0  0  0  0  0  0  0  0  0  0  0  0
   35.1300   19.9930   34.6600 H   0  0  0  0  0  0  0  0  0  0  0  0
   39.1340   22.6260   34.6390 O   0  0  0  0  0  0  0  0  0  0  0  0
   39.0550   22.2080   35.9350 C   0  0  2  0  0  3  0  0  0  0  0  0
   37.9100   23.0190   36.5590 C   0  0  0  0  0  3  0  0  0  0  0  0
   37.7720   23.9840   36.0180 H   0  0  0  0  0  0  0  0  0  0  0  0
   38.4110   23.3250   37.9340 C   0  0  0  0  0  3  0  0  0  0  0  0
   37.7880   22.8270   38.7090 H   0  0  0  0  0  0  0  0  0  0  0  0
   39.7280   22.9350   38.0420 O   0  0  0  0  0  0  0  0  0  0  0  0
   40.2000   22.6390   36.7780 C   0  0  0  0  0  3  0  0  0  0  0  0
   40.9170   21.7850   36.9280 H   0  0  0  0  0  0  0  0  0  0  0  0
  1 21  1  0  0  0  0
  1  6  1  1  0  0  0
  2  7  1  6  0  0  0
  2  1  1  0  0  0  0
  3  8  1  0  0  0  0
  3  2  1  0  0  0  0
  3  4  1  0  0  0  0
  4  5  1  0  0  0  0
  5  1  1  0  0  0  0
  5 11  1  0  0  0  0
  9  3  1  0  0  0  0
 10  5  1  0  0  0  0
 12 13  2  0  0  0  0
 12 17  1  0  0  0  0
 13 14  1  0  0  0  0
 14  2  1  0  0  0  0
 14 15  2  0  0  0  0
 16 15  1  0  0  0  0
 16 20  1  0  0  0  0
 17 16  2  0  0  0  0
 18 12  1  0  0  0  0
 19 13  1  0  0  0  0
 22 21  1  6  0  0  0
 22 23  1  0  0  0  0
 22 28  1  0  0  0  0
 23 25  1  0  0  0  0
 24 23  1  0  0  0  0
 25 27  1  0  0  0  0
 25 26  1  0  0  0  0
 28 29  1  0  0  0  0
 28 27  1  0  0  0  0
M  END
>  <minimizedAffinity>
-4.08345842

$$$$

 OpenBabel03272501063D

 29 31  0  0  1  0  0  0  0  0999 V2000
   34.9600   29.2730   32.9410 C   0  0  2  0  0  0  0  0  0  0  0  0
   36.3310   28.9040   32.3320 C   0  0  2  0  0  0  0  0  0  0  0  0
   36.0920   29.2550   30.9210 C   0  0  0  0  0  0  0  0  0  0  0  0
   35.3490   30.4310   30.9360 O   0  0  0  0  0  0  0  0  0  0  0  0
   34.7520   30.5750   32.1570 C   0  0  0  0  0  0  0  0  0  0  0  0
   34.2040   28.5430   32.6560 H   0  0  0  0  0  0  0  0  0  0  0  0
   37.0120   29.6750   32.7990 H   0  0  0  0  0  0  0  0  0  0  0  0
   35.5440   28.4480   30.3710 H   0  0  0  0  0  0  0  0  0  0  0  0
   37.0480   29.4400   30.3860 H   0  0  0  0  0  0  0  0  0  0  0  0
   35.2800   31.4180   32.6770 H   0  0  0  0  0  0  0  0  0  0  0  0
   33.6880   30.8140   32.0610 H   0  0  0  0  0  0  0  0  0  0  0  0
   37.9650   25.8440   33.8410 C   0  0  0  0  0  0  0  0  0  0  0  0
   37.6280   27.2050   33.6400 C   0  0  0  0  0  0  0  0  0  0  0  0
   36.7090   27.5380   32.6090 C   0  0  0  0  0  0  0  0  0  0  0  0
   36.2030   26.5000   31.8660 N   0  0  0  0  0  0  0  0  0  0  0  0
   36.5390   25.2290   32.0780 C   0  0  0  0  0  0  0  0  0  0  0  0
   37.4160   24.8830   33.0570 N   0  0  0  0  0  0  0  0  0  0  0  0
   38.6630   25.5670   34.6190 H   0  0  0  0  0  0  0  0  0  0  0  0
   38.0710   27.9560   34.2710 H   0  0  0  0  0  0  0  0  0  0  0  0
   36.0510   24.5320   31.4030 H   0  0  0  0  0  0  0  0  0  0  0  0
   35.0810   29.5300   34.2910 O   0  0  0  0  0  0  0  0  0  0  0  0
   34.7190   30.7830   34.6940 C   0  0  2  0  0  3  0  0  0  0  0  0
   35.8360   31.2470   35.6410 C   0  0  0  0  0  3  0  0  0  0  0  0
   36.3480   30.3730   36.1050 H   0  0  0  0  0  0  0  0  0  0  0  0
   35.0970   31.9770   36.7160 C   0  0  0  0  0  3  0  0  0  0  0  0
   35.3550   33.0590   36.7170 H   0  0  0  0  0  0  0  0  0  0  0  0
   33.7410   31.8000   36.5460 O   0  0  0  0  0  0  0  0  0  0  0  0
   33.5470   30.8060   35.6050 C   0  0  0  0  0  3  0  0  0  0  0  0
   32.6220   31.1150   35.0440 H   0  0  0  0  0  0  0  0  0  0  0  0
  1  6  1  6  0  0  0
  1 21  1  0  0  0  0
  2 14  1  0  0  0  0
  2  7  1  1  0  0  0
  2  1  1  0  0  0  0
  3  4  1  0  0  0  0
  3  2  1  0  0  0  0
  4  5  1  0  0  0  0
  5 10  1  0  0  0  0
  5  1  1  0  0  0  0
  8  3  1  0  0  0  0
  9  3  1  0  0  0  0
 11  5  1  0  0  0  0
 12 18  1  0  0  0  0
 13 12  1  0  0  0  0
 13 19  1  0  0  0  0
 14 13  2  0  0  0  0
 15 16  2  0  0  0  0
 15 14  1  0  0  0  0
 16 17  1  0  0  0  0
 17 12  2  0  0  0  0
 20 16  1  0  0  0  0
 22 21  1  1  0  0  0
 22 28  1  0  0  0  0
 22 23  1  0  0  0  0
 23 24  1  0  0  0  0
 23 25  1  0  0  0  0
 25 26  1  0  0  0  0
 27 25  1  0  0  0  0
 28 27  1  0  0  0  0
 29 28  1  0  0  0  0
M  END
>  <minimizedAffinity>
-4.06535244

$$$$

 OpenBabel03272501063D

 29 31  0  0  1  0  0  0  0  0999 V2000
   38.8610   24.0510   36.2660 C   0  0  2  0  0  0  0  0  0  0  0  0
   39.4040   22.8610   37.0880 C   0  0  2  0  0  0  0  0  0  0  0  0
   39.0640   23.3100   38.4510 C   0  0  0  0  0  0  0  0  0  0  0  0
   37.8100   23.9040   38.3600 O   0  0  0  0  0  0  0  0  0  0  0  0
   37.5650   24.2520   37.0620 C   0  0  0  0  0  0  0  0  0  0  0  0
   39.5050   24.9220   36.3790 H   0  0  0  0  0  0  0  0  0  0  0  0
   38.7050   22.0260   36.7850 H   0  0  0  0  0  0  0  0  0  0  0  0
   39.8150   24.0330   38.8570 H   0  0  0  0  0  0  0  0  0  0  0  0
   39.0060   22.4520   39.1530 H   0  0  0  0  0  0  0  0  0  0  0  0
   36.7750   23.5490   36.6820 H   0  0  0  0  0  0  0  0  0  0  0  0
   37.2050   25.2830   36.9800 H   0  0  0  0  0  0  0  0  0  0  0  0
   42.7830   21.1740   36.8870 C   0  0  0  0  0  0  0  0  0  0  0  0
   41.4060   21.3580   37.1660 C   0  0  0  0  0  0  0  0  0  0  0  0
   40.7960   22.5930   36.8180 C   0  0  0  0  0  0  0  0  0  0  0  0
   41.5960   23.5390   36.2270 N   0  0  0  0  0  0  0  0  0  0  0  0
   42.8890   23.3370   35.9770 C   0  0  0  0  0  0  0  0  0  0  0  0
   43.4970   22.1650   36.2990 N   0  0  0  0  0  0  0  0  0  0  0  0
   43.2690   20.2430   37.1430 H   0  0  0  0  0  0  0  0  0  0  0  0
   40.8530   20.5610   37.6320 H   0  0  0  0  0  0  0  0  0  0  0  0
   43.3780   24.1850   35.5060 H   0  0  0  0  0  0  0  0  0  0  0  0
   38.5840   23.6610   34.9720 O   0  0  0  0  0  0  0  0  0  0  0  0
   38.9290   24.5500   33.9950 C   0  0  2  0  0  3  0  0  0  0  0  0
   39.3830   25.8170   34.7350 C   0  0  0  0  0  3  0  0  0  0  0  0
   38.9080   25.8770   35.7410 H   0  0  0  0  0  0  0  0  0  0  0  0
   38.8330   26.9240   33.8950 C   0  0  0  0  0  3  0  0  0  0  0  0
   39.6490   27.5250   33.4360 H   0  0  0  0  0  0  0  0  0  0  0  0
   38.0090   26.4010   32.9230 O   0  0  0  0  0  0  0  0  0  0  0  0
   37.7730   25.0720   33.2220 C   0  0  0  0  0  3  0  0  0  0  0  0
   37.7070   24.5570   32.2240 H   0  0  0  0  0  0  0  0  0  0  0  0
  1  6  1  1  0  0  0
  1  5  1  0  0  0  0
  1  2  1  0  0  0  0
  2  7  1  6  0  0  0
  2  3  1  0  0  0  0
  3  8  1  0  0  0  0
  3  9  1  0  0  0  0
  4  3  1  0  0  0  0
  5  4  1  0  0  0  0
 10  5  1  0  0  0  0
 11  5  1  0  0  0  0
 12 18  1  0  0  0  0
 12 13  1  0  0  0  0
 13 19  1  0  0  0  0
 14  2  1  0  0  0  0
 14 13  2  0  0  0  0
 15 14  1  0  0  0  0
 16 15  2  0  0  0  0
 16 17  1  0  0  0  0
 17 12  2  0  0  0  0
 20 16  1  0  0  0  0
 21  1  1  0  0  0  0
 22 23  1  0  0  0  0
 22 21  1  1  0  0  0
 23 24  1  0  0  0  0
 25 23  1  0  0  0  0
 26 25  1  0  0  0  0
 27 28  1  0  0  0  0
 27 25  1  0  0  0  0
 28 22  1  0  0  0  0
 29 28  1  0  0  0  0
M  END
>  <minimizedAffinity>
-4.04631805

$$$$

 OpenBabel03272501063D

 29 31  0  0  1  0  0  0  0  0999 V2000
   39.2040   25.4660   34.5590 C   0  0  2  0  0  0  0  0  0  0  0  0
   39.2270   25.4370   33.0140 C   0  0  2  0  0  0  0  0  0  0  0  0
   39.3470   26.8780   32.7280 C   0  0  0  0  0  0  0  0  0  0  0  0
   40.2250   27.3880   33.6780 O   0  0  0  0  0  0  0  0  0  0  0  0
   40.2920   26.5320   34.7410 C   0  0  0  0  0  0  0  0  0  0  0  0
   38.2490   25.8440   34.9210 H   0  0  0  0  0  0  0  0  0  0  0  0
   40.2150   24.9300   32.8020 H   0  0  0  0  0  0  0  0  0  0  0  0
   38.3600   27.4030   32.7800 H   0  0  0  0  0  0  0  0  0  0  0  0
   39.7700   27.0530   31.7160 H   0  0  0  0  0  0  0  0  0  0  0  0
   41.3050   26.0480   34.7040 H   0  0  0  0  0  0  0  0  0  0  0  0
   40.1750   27.0590   35.6940 H   0  0  0  0  0  0  0  0  0  0  0  0
   36.9640   22.7800   31.5560 C   0  0  0  0  0  0  0  0  0  0  0  0
   38.1210   23.3770   32.1160 C   0  0  0  0  0  0  0  0  0  0  0  0
   38.0830   24.7550   32.4570 C   0  0  0  0  0  0  0  0  0  0  0  0
   36.9090   25.4250   32.2160 N   0  0  0  0  0  0  0  0  0  0  0  0
   35.8370   24.8370   31.6880 C   0  0  0  0  0  0  0  0  0  0  0  0
   35.8460   23.5200   31.3530 N   0  0  0  0  0  0  0  0  0  0  0  0
   36.9690   21.7320   31.2880 H   0  0  0  0  0  0  0  0  0  0  0  0
   39.0000   22.7750   32.2730 H   0  0  0  0  0  0  0  0  0  0  0  0
   34.9920   25.5060   31.5620 H   0  0  0  0  0  0  0  0  0  0  0  0
   39.6160   24.2550   35.0740 O   0  0  0  0  0  0  0  0  0  0  0  0
   38.7670   23.6670   35.9670 C   0  0  2  0  0  3  0  0  0  0  0  0
   38.0590   24.8260   36.6830 C   0  0  0  0  0  3  0  0  0  0  0  0
   38.6880   25.7460   36.6620 H   0  0  0  0  0  0  0  0  0  0  0  0
   37.9720   24.3560   38.0990 C   0  0  0  0  0  3  0  0  0  0  0  0
   36.9140   24.2030   38.4080 H   0  0  0  0  0  0  0  0  0  0  0  0
   38.6950   23.1930   38.2450 O   0  0  0  0  0  0  0  0  0  0  0  0
   39.4550   23.0080   37.1060 C   0  0  0  0  0  3  0  0  0  0  0  0
   39.4820   21.8930   36.9530 H   0  0  0  0  0  0  0  0  0  0  0  0
  1  5  1  0  0  0  0
  1  6  1  1  0  0  0
  1 21  1  0  0  0  0
  2  7  1  6  0  0  0
  2  1  1  0  0  0  0
  3  8  1  0  0  0  0
  3  2  1  0  0  0  0
  3  4  1  0  0  0  0
  4  5  1  0  0  0  0
  5 11  1  0  0  0  0
  9  3  1  0  0  0  0
 10  5  1  0  0  0  0
 12 13  1  0  0  0  0
 13 19  1  0  0  0  0
 13 14  2  0  0  0  0
 14  2  1  0  0  0  0
 15 14  1  0  0  0  0
 16 15  2  0  0  0  0
 17 12  2  0  0  0  0
 17 16  1  0  0  0  0
 18 12  1  0  0  0  0
 20 16  1  0  0  0  0
 22 21  1  6  0  0  0
 22 23  1  0  0  0  0
 22 28  1  0  0  0  0
 23 25  1  0  0  0  0
 24 23  1  0  0  0  0
 25 27  1  0  0  0  0
 25 26  1  0  0  0  0
 28 27  1  0  0  0  0
 29 28  1  0  0  0  0
M  END
>  <minimizedAffinity>
-4.02619553

$$$$
