
 OpenBabel03272508083D

 23 24  0  0  1  0  0  0  0  0999 V2000
   39.1120   32.8580   48.1490 O   0  0  0  0  0  0  0  0  0  0  0  0
   38.7360   31.8640   47.0960 P   0  0  2  0  0  0  0  0  0  0  0  0
   37.7020   32.6030   45.9680 O   0  0  0  0  0  0  0  0  0  0  0  0
   37.2330   33.3480   46.4600 H   0  0  0  0  0  0  0  0  0  0  0  0
   38.0600   30.4300   47.6860 O   0  0  0  0  0  0  0  0  0  0  0  0
   37.3440   30.2060   51.3160 C   0  0  0  0  0  0  0  0  0  0  0  0
   38.0490   30.5690   50.1710 C   0  0  0  0  0  0  0  0  0  0  0  0
   37.5570   30.1950   48.9240 C   0  0  0  0  0  0  0  0  0  0  0  0
   36.3850   29.4770   48.8930 N   0  0  0  0  0  0  0  0  0  0  0  0
   35.7350   29.1450   50.0330 C   0  0  0  0  0  0  0  0  0  0  0  0
   36.2030   29.5030   51.2260 N   0  0  0  0  0  0  0  0  0  0  0  0
   37.8610   30.5730   52.1970 H   0  0  0  0  0  0  0  0  0  0  0  0
   38.9710   31.1300   50.1160 H   0  0  0  0  0  0  0  0  0  0  0  0
   34.8120   28.5800   50.0270 H   0  0  0  0  0  0  0  0  0  0  0  0
   40.1590   31.4660   46.2480 O   0  0  0  0  0  0  0  0  0  0  0  0
   39.8050   31.1860   44.9410 C   0  0  1  0  0  3  0  0  0  0  0  0
   39.2680   29.8130   44.7120 C   0  0  0  0  0  3  0  0  0  0  0  0
   39.0190   29.2680   45.6660 H   0  0  0  0  0  0  0  0  0  0  0  0
   38.0000   30.0750   43.9100 C   0  0  0  0  0  3  0  0  0  0  0  0
   37.0980   30.1310   44.5460 H   0  0  0  0  0  0  0  0  0  0  0  0
   38.2130   31.3380   43.3390 O   0  0  0  0  0  0  0  0  0  0  0  0
   38.6910   32.0790   44.4410 C   0  0  0  0  0  3  0  0  0  0  0  0
   39.0720   33.0540   44.0430 H   0  0  0  0  0  0  0  0  0  0  0  0
  2  5  1  0  0  0  0
  2  1  2  1  0  0  0
  3  4  1  0  0  0  0
  3  2  1  0  0  0  0
  5  8  1  0  0  0  0
  6 12  1  0  0  0  0
  7  6  2  0  0  0  0
  8  7  1  0  0  0  0
  9  8  2  0  0  0  0
  9 10  1  0  0  0  0
 10 11  2  0  0  0  0
 11  6  1  0  0  0  0
 13  7  1  0  0  0  0
 14 10  1  0  0  0  0
 15  2  1  0  0  0  0
 16 15  1  1  0  0  0
 17 16  1  0  0  0  0
 17 18  1  0  0  0  0
 19 20  1  0  0  0  0
 19 17  1  0  0  0  0
 21 19  1  0  0  0  0
 21 22  1  0  0  0  0
 22 16  1  0  0  0  0
 23 22  1  0  0  0  0
M  END
>  <minimizedAffinity>
-4.924891

>  <minimizedRMSD>
0.639404476

$$$$
