
     RDKit          3D

 35 37  0  0  0  0  0  0  0  0999 V2000
   34.7980   29.5320   47.5142 S   0  0  0  0  0  0  0  0  0  0  0  0
   37.3785   29.4805   50.5216 C   0  0  0  0  0  0  0  0  0  0  0  0
   37.9758   30.7328   50.5159 C   0  0  0  0  0  0  0  0  0  0  0  0
   37.5687   31.6434   49.5404 C   0  0  0  0  0  0  0  0  0  0  0  0
   36.6197   31.2607   48.6574 N   0  0  0  0  0  0  0  0  0  0  0  0
   36.0509   30.0246   48.6871 C   0  0  0  0  0  0  0  0  0  0  0  0
   36.4267   29.1190   49.6237 N   0  0  0  0  0  0  0  0  0  0  0  0
   32.3886   28.3544   47.4783 C   0  0  2  0  0  0  0  0  0  0  0  0
   33.6289   28.4124   48.3467 C   0  0  1  0  0  0  0  0  0  0  0  0
   34.1896   27.1560   48.3496 O   0  0  0  0  0  0  0  0  0  0  0  0
   33.5423   26.3708   47.4246 C   0  0  0  0  0  0  0  0  0  0  0  0
   32.8561   27.3282   46.4548 C   0  0  1  0  0  0  0  0  0  0  0  0
   32.1428   29.5991   46.8822 O   0  0  0  0  0  0  0  0  0  0  0  0
   31.7894   26.6981   45.8305 O   0  0  0  0  0  0  0  0  0  0  0  0
   37.7063   28.7859   51.2856 H   0  0  0  0  0  0  0  0  0  0  0  0
   38.7231   31.0699   51.1914 H   0  0  0  0  0  0  0  0  0  0  0  0
   38.0146   32.6290   49.5079 H   0  0  0  0  0  0  0  0  0  0  0  0
   31.5158   27.9343   47.9840 H   0  0  0  0  0  0  0  0  0  0  0  0
   33.4030   28.7370   49.3760 H   0  0  0  0  0  0  0  0  0  0  0  0
   34.1839   25.6428   46.9283 H   0  0  0  0  0  0  0  0  0  0  0  0
   32.6920   25.8856   47.9867 H   0  0  0  0  0  0  0  0  0  0  0  0
   33.5662   27.7889   45.7392 H   0  0  0  0  0  0  0  0  0  0  0  0
   32.7215   29.6857   46.0805 H   0  0  0  0  0  0  0  0  0  0  0  0
   31.8305   26.7731   44.4620 C   0  0  1  0  0  0  0  0  0  0  0  0
   32.1220   28.2020   44.0443 C   0  0  1  0  0  0  0  0  0  0  0  0
   31.1946   28.7732   43.8544 H   0  0  0  0  0  0  0  0  0  0  0  0
   32.8660   27.9434   42.7300 C   0  0  2  0  0  0  0  0  0  0  0  0
   33.4498   28.8175   42.4316 H   0  0  0  0  0  0  0  0  0  0  0  0
   33.7529   26.9488   43.1503 O   0  0  0  0  0  0  0  0  0  0  0  0
   32.9522   26.0231   43.8108 C   0  0  1  0  0  0  0  0  0  0  0  0
   33.5932   25.4926   44.5448 H   0  0  0  0  0  0  0  0  0  0  0  0
   30.8744   26.5133   43.9634 H   0  0  0  0  0  0  0  0  0  0  0  0
   32.7747   28.7242   44.7538 H   0  0  0  0  0  0  0  0  0  0  0  0
   32.1487   27.5740   41.9711 H   0  0  0  0  0  0  0  0  0  0  0  0
   32.5786   25.3136   43.0265 H   0  0  0  0  0  0  0  0  0  0  0  0
  1  6  1  0
  3  2  2  0
  4  3  1  0
  5  6  1  0
  5  4  2  0
  6  7  2  0
  7  2  1  0
  8 13  1  0
  8  9  1  0
  9  1  1  0
  9 10  1  0
 11 10  1  0
 12 14  1  0
 12 11  1  0
 12  8  1  0
  2 15  1  0
  3 16  1  0
  4 17  1  0
  8 18  1  1
  9 19  1  1
 11 20  1  0
 11 21  1  0
 12 22  1  6
 13 23  1  0
 24 25  1  0
 25 26  1  6
 25 27  1  0
 27 28  1  6
 27 29  1  0
 29 30  1  0
 30 31  1  1
 30 24  1  0
 24 32  1  6
 25 33  1  0
 27 34  1  0
 30 35  1  0
 14 24  1  0
M  ISO  8  15  14  16  14  17  14  18  13  19  13  20  13  21  13  22  13
M  ISO  4  23   3  26  15  28  15  31  15
M  END
>  <DihAtoms>  (1) 
11,13,23,24

>  <DihDeg>  (1) 
117.61048838949694

$$$$
