
 OpenBabel03272506443D

 31 33  0  0  1  0  0  0  0  0999 V2000
   32.3850   28.3650   47.4770 C   0  0  2  0  0  0  0  0  0  0  0  0
   33.6420   28.2990   48.3200 C   0  0  1  0  0  0  0  0  0  0  0  0
   34.1770   27.0420   48.1660 O   0  0  0  0  0  0  0  0  0  0  0  0
   33.4960   26.3810   47.1700 C   0  0  0  0  0  0  0  0  0  0  0  0
   32.8110   27.4570   46.3320 C   0  0  1  0  0  0  0  0  0  0  0  0
   31.5130   27.9050   47.9490 H   0  0  0  0  0  0  0  0  0  0  0  0
   33.4420   28.5070   49.3850 H   0  0  0  0  0  0  0  0  0  0  0  0
   34.1130   25.7050   46.5780 H   0  0  0  0  0  0  0  0  0  0  0  0
   32.6470   25.8500   47.6900 H   0  0  0  0  0  0  0  0  0  0  0  0
   33.5160   27.9850   45.6600 H   0  0  0  0  0  0  0  0  0  0  0  0
   32.1520   29.6750   47.0350 O   0  0  0  0  0  0  0  0  0  0  0  0
   32.7170   29.8440   46.2370 H   0  0  0  0  0  0  0  0  0  0  0  0
   34.8170   29.4880   47.5980 S   0  0  0  0  0  0  0  0  0  0  0  0
   37.3300   29.3220   50.6590 C   0  0  0  0  0  0  0  0  0  0  0  0
   37.8290   30.6100   50.7950 C   0  0  0  0  0  0  0  0  0  0  0  0
   37.3740   31.5820   49.9040 C   0  0  0  0  0  0  0  0  0  0  0  0
   36.4760   31.2220   48.9600 N   0  0  0  0  0  0  0  0  0  0  0  0
   36.0030   29.9510   48.8500 C   0  0  0  0  0  0  0  0  0  0  0  0
   36.4280   28.9840   49.7020 N   0  0  0  0  0  0  0  0  0  0  0  0
   37.6940   28.5800   51.3590 H   0  0  0  0  0  0  0  0  0  0  0  0
   38.5330   30.9310   51.5220 H   0  0  0  0  0  0  0  0  0  0  0  0
   37.7430   32.5960   49.9840 H   0  0  0  0  0  0  0  0  0  0  0  0
   31.7200   26.9230   45.6620 O   0  0  0  0  0  0  0  0  0  0  0  0
   31.6210   27.3340   44.3570 C   0  0  1  0  0  3  0  0  0  0  0  0
   30.4770   28.3230   44.2270 C   0  0  0  0  0  3  0  0  0  0  0  0
   29.5330   27.8250   43.9380 H   0  0  0  0  0  0  0  0  0  0  0  0
   31.0030   29.1770   43.0680 C   0  0  0  0  0  3  0  0  0  0  0  0
   30.4920   30.1410   43.0290 H   0  0  0  0  0  0  0  0  0  0  0  0
   32.3120   29.3940   43.5070 O   0  0  0  0  0  0  0  0  0  0  0  0
   32.7820   28.1300   43.8440 C   0  0  0  0  0  3  0  0  0  0  0  0
   33.5770   28.2630   44.6050 H   0  0  0  0  0  0  0  0  0  0  0  0
  1  6  1  1  0  0  0
  1  2  1  0  0  0  0
  2  7  1  1  0  0  0
  3  2  1  0  0  0  0
  4  9  1  0  0  0  0
  4  3  1  0  0  0  0
  5 10  1  6  0  0  0
  5  4  1  0  0  0  0
  5  1  1  0  0  0  0
  8  4  1  0  0  0  0
 11  1  1  0  0  0  0
 12 11  1  0  0  0  0
 13  2  1  0  0  0  0
 13 18  1  0  0  0  0
 14 15  1  0  0  0  0
 14 20  1  0  0  0  0
 15 21  1  0  0  0  0
 16 22  1  0  0  0  0
 16 15  2  0  0  0  0
 17 16  1  0  0  0  0
 18 17  2  0  0  0  0
 18 19  1  0  0  0  0
 19 14  2  0  0  0  0
 23  5  1  0  0  0  0
 24 23  1  1  0  0  0
 25 24  1  0  0  0  0
 26 25  1  0  0  0  0
 27 29  1  0  0  0  0
 27 25  1  0  0  0  0
 28 27  1  0  0  0  0
 29 30  1  0  0  0  0
 30 24  1  0  0  0  0
 30 31  1  0  0  0  0
M  END
>  <minimizedAffinity>
-3.75236106

>  <minimizedRMSD>
0.738525867

$$$$
