
 OpenBabel03272503473D

 23 24  0  0  1  0  0  0  0  0999 V2000
   35.5330   30.2060   46.6160 O   0  0  0  0  0  0  0  0  0  0  0  0
   34.2720   30.0060   47.4300 P   0  0  2  0  0  0  0  0  0  0  0  0
   33.0470   30.8810   46.6580 O   0  0  0  0  0  0  0  0  0  0  0  0
   32.1760   30.4240   46.6430 H   0  0  0  0  0  0  0  0  0  0  0  0
   34.4460   30.5380   49.0390 O   0  0  0  0  0  0  0  0  0  0  0  0
   35.6400   30.4360   49.7300 C   0  0  0  0  0  0  0  0  0  0  0  0
   35.9700   29.4500   50.6690 C   0  0  0  0  0  0  0  0  0  0  0  0
   37.2290   29.5120   51.2650 C   0  0  0  0  0  0  0  0  0  0  0  0
   38.0840   30.5210   50.9150 N   0  0  0  0  0  0  0  0  0  0  0  0
   37.7300   31.4560   50.0040 C   0  0  0  0  0  0  0  0  0  0  0  0
   36.5150   31.4210   49.4080 N   0  0  0  0  0  0  0  0  0  0  0  0
   35.2260   28.7190   50.8580 H   0  0  0  0  0  0  0  0  0  0  0  0
   37.4780   28.7470   51.9890 H   0  0  0  0  0  0  0  0  0  0  0  0
   38.4420   32.2330   49.7620 H   0  0  0  0  0  0  0  0  0  0  0  0
   33.8620   28.3510   47.5110 O   0  0  0  0  0  0  0  0  0  0  0  0
   32.4860   28.2520   47.4970 C   0  0  1  0  0  0  0  0  0  0  0  0
   32.0110   27.2200   46.5200 C   0  0  0  0  0  0  0  0  0  0  0  0
   32.8560   26.5590   46.1900 H   0  0  0  0  0  0  0  0  0  0  0  0
   30.9700   26.4310   47.2590 C   0  0  0  0  0  0  0  0  0  0  0  0
   30.0110   26.4450   46.7060 H   0  0  0  0  0  0  0  0  0  0  0  0
   30.7660   27.0390   48.4830 O   0  0  0  0  0  0  0  0  0  0  0  0
   31.9220   27.7350   48.8000 C   0  0  0  0  0  0  0  0  0  0  0  0
   31.6310   28.6170   49.4070 H   0  0  0  0  0  0  0  0  0  0  0  0
  2  1  2  6  0  0  0
  2 15  1  0  0  0  0
  2  5  1  0  0  0  0
  3  2  1  0  0  0  0
  4  3  1  0  0  0  0
  5  6  1  0  0  0  0
  6  7  1  0  0  0  0
  7 12  1  0  0  0  0
  7  8  2  0  0  0  0
  8 13  1  0  0  0  0
  9  8  1  0  0  0  0
 10  9  2  0  0  0  0
 11  6  2  0  0  0  0
 11 10  1  0  0  0  0
 14 10  1  0  0  0  0
 16 15  1  1  0  0  0
 16 22  1  0  0  0  0
 17 19  1  0  0  0  0
 17 16  1  0  0  0  0
 18 17  1  0  0  0  0
 19 21  1  0  0  0  0
 20 19  1  0  0  0  0
 21 22  1  0  0  0  0
 22 23  1  0  0  0  0
M  END
>  <minimizedAffinity>
-4.27880764

>  <minimizedRMSD>
2.2268095

$$$$
