
 OpenBabel03272508093D

 23 24  0  0  1  0  0  0  0  0999 V2000
   39.1110   32.8580   48.1510 O   0  0  0  0  0  0  0  0  0  0  0  0
   38.7350   31.8640   47.0980 P   0  0  2  0  0  0  0  0  0  0  0  0
   37.7010   32.6030   45.9710 O   0  0  0  0  0  0  0  0  0  0  0  0
   37.2320   33.3480   46.4630 H   0  0  0  0  0  0  0  0  0  0  0  0
   38.0600   30.4300   47.6880 O   0  0  0  0  0  0  0  0  0  0  0  0
   37.3440   30.2050   51.3180 C   0  0  0  0  0  0  0  0  0  0  0  0
   38.0490   30.5680   50.1720 C   0  0  0  0  0  0  0  0  0  0  0  0
   37.5570   30.1940   48.9260 C   0  0  0  0  0  0  0  0  0  0  0  0
   36.3850   29.4760   48.8940 N   0  0  0  0  0  0  0  0  0  0  0  0
   35.7350   29.1440   50.0340 C   0  0  0  0  0  0  0  0  0  0  0  0
   36.2030   29.5020   51.2280 N   0  0  0  0  0  0  0  0  0  0  0  0
   37.8610   30.5720   52.1990 H   0  0  0  0  0  0  0  0  0  0  0  0
   38.9710   31.1290   50.1180 H   0  0  0  0  0  0  0  0  0  0  0  0
   34.8120   28.5790   50.0290 H   0  0  0  0  0  0  0  0  0  0  0  0
   40.1590   31.4670   46.2490 O   0  0  0  0  0  0  0  0  0  0  0  0
   39.8040   31.1890   44.9420 C   0  0  1  0  0  3  0  0  0  0  0  0
   39.2690   29.8150   44.7110 C   0  0  0  0  0  3  0  0  0  0  0  0
   39.0210   29.2680   45.6650 H   0  0  0  0  0  0  0  0  0  0  0  0
   37.9990   30.0770   43.9100 C   0  0  0  0  0  3  0  0  0  0  0  0
   37.0980   30.1310   44.5470 H   0  0  0  0  0  0  0  0  0  0  0  0
   38.2100   31.3410   43.3410 O   0  0  0  0  0  0  0  0  0  0  0  0
   38.6890   32.0810   44.4450 C   0  0  0  0  0  3  0  0  0  0  0  0
   39.0680   33.0570   44.0470 H   0  0  0  0  0  0  0  0  0  0  0  0
  2  5  1  0  0  0  0
  2  1  2  1  0  0  0
  3  4  1  0  0  0  0
  3  2  1  0  0  0  0
  5  8  1  0  0  0  0
  6 12  1  0  0  0  0
  7  6  2  0  0  0  0
  8  7  1  0  0  0  0
  9  8  2  0  0  0  0
  9 10  1  0  0  0  0
 10 11  2  0  0  0  0
 11  6  1  0  0  0  0
 13  7  1  0  0  0  0
 14 10  1  0  0  0  0
 15  2  1  0  0  0  0
 16 15  1  1  0  0  0
 17 16  1  0  0  0  0
 17 18  1  0  0  0  0
 19 20  1  0  0  0  0
 19 17  1  0  0  0  0
 21 19  1  0  0  0  0
 21 22  1  0  0  0  0
 22 16  1  0  0  0  0
 23 22  1  0  0  0  0
M  END
>  <minimizedAffinity>
-4.92776775

>  <minimizedRMSD>
0.453938007

$$$$
