
 OpenBabel03272506143D

 23 24  0  0  1  0  0  0  0  0999 V2000
   33.9080   29.4980   46.8710 C   0  0  0  0  0  0  0  0  0  0  0  0
   34.7560   29.6130   47.9810 C   0  0  0  0  0  0  0  0  0  0  0  0
   36.0480   30.0710   47.7640 C   0  0  0  0  0  0  0  0  0  0  0  0
   36.4360   30.3870   46.5050 N   0  0  0  0  0  0  0  0  0  0  0  0
   35.5860   30.2640   45.4410 C   0  0  0  0  0  0  0  0  0  0  0  0
   34.3160   29.8180   45.6250 N   0  0  0  0  0  0  0  0  0  0  0  0
   34.3360   29.3340   48.9190 H   0  0  0  0  0  0  0  0  0  0  0  0
   35.9630   30.5360   44.4560 H   0  0  0  0  0  0  0  0  0  0  0  0
   36.9330   30.1920   48.9190 C   0  0  2  0  0  0  0  0  0  0  0  0
   36.6220   29.1460   49.9990 C   0  0  0  0  0  0  0  0  0  0  0  0
   35.5590   29.1390   50.2380 H   0  0  0  0  0  0  0  0  0  0  0  0
   37.3540   29.8350   51.1590 C   0  0  0  0  0  0  0  0  0  0  0  0
   37.1070   29.3840   52.1210 H   0  0  0  0  0  0  0  0  0  0  0  0
   37.0600   31.1680   51.0440 O   0  0  0  0  0  0  0  0  0  0  0  0
   36.7970   31.4490   49.7130 C   0  0  0  0  0  0  0  0  0  0  0  0
   35.7220   31.7690   49.6510 H   0  0  0  0  0  0  0  0  0  0  0  0
   32.5860   29.0570   46.8980 O   0  0  0  0  0  0  0  0  0  0  0  0
   33.1450   26.6050   47.8060 O   0  0  0  0  0  0  0  0  0  0  0  0
   32.0900   27.6870   47.8020 P   0  0  0  0  0  0  0  0  0  0  0  0
   31.7570   28.2560   49.3660 O   0  0  0  0  0  0  0  0  0  0  0  0
   31.3080   29.1260   49.2940 H   0  0  0  0  0  0  0  0  0  0  0  0
   30.7020   27.0290   47.0970 O   0  0  0  0  0  0  0  0  0  0  0  0
   30.5040   26.1280   47.4410 H   0  0  0  0  0  0  0  0  0  0  0  0
  1 17  1  0  0  0  0
  1  2  1  0  0  0  0
  2  7  1  0  0  0  0
  3  2  2  0  0  0  0
  4  3  1  0  0  0  0
  5  6  1  0  0  0  0
  5  4  2  0  0  0  0
  6  1  2  0  0  0  0
  8  5  1  0  0  0  0
  9  3  1  6  0  0  0
  9 15  1  0  0  0  0
  9 10  1  0  0  0  0
 10 11  1  0  0  0  0
 10 12  1  0  0  0  0
 12 13  1  0  0  0  0
 14 12  1  0  0  0  0
 15 14  1  0  0  0  0
 16 15  1  0  0  0  0
 17 19  1  0  0  0  0
 19 18  2  0  0  0  0
 19 20  1  0  0  0  0
 21 20  1  0  0  0  0
 22 23  1  0  0  0  0
 22 19  1  0  0  0  0
M  END
>  <minimizedAffinity>
-4.2585125

>  <minimizedRMSD>
4.07119799

$$$$
