REMARK  Name = 
REMARK  5 active torsions:
REMARK  status: ('A' for Active; 'I' for Inactive)
REMARK    1  A    between atoms: C_1  and  C_4
REMARK    2  A    between atoms: C_2  and  C_11
REMARK    3  A    between atoms: C_10  and  O_15
REMARK    4  A    between atoms: C_14  and  O_16
REMARK    5  A    between atoms: O_16  and  C_30
REMARK                            x       y       z     vdW  Elec       q    Type
REMARK                         _______ _______ _______ _____ _____    ______ ____
ROOT
ATOM      1  C   UNL     1      33.964  29.078  47.377  0.00  0.00    +0.000 C 
ATOM      2  C   UNL     1      34.745  28.282  48.411  0.00  0.00    +0.000 C 
ATOM      3  O   UNL     1      33.872  28.059  49.439  0.00  0.00    +0.000 OA
ATOM      4  C   UNL     1      32.588  28.121  49.001  0.00  0.00    +0.000 C 
ATOM      5  C   UNL     1      32.603  28.384  47.511  0.00  0.00    +0.000 C 
ATOM      6  H   UNL     1      33.791  30.112  47.687  0.00  0.00    +0.000 HD
ATOM      7  H   UNL     1      35.039  27.343  47.882  0.00  0.00    +0.000 HD
ATOM      8  H   UNL     1      32.030  27.204  49.261  0.00  0.00    +0.000 HD
ATOM      9  H   UNL     1      32.097  28.999  49.504  0.00  0.00    +0.000 HD
ATOM     10  H   UNL     1      32.665  27.417  46.972  0.00  0.00    +0.000 HD
ENDROOT
BRANCH   2  12
ATOM     11  C   UNL     1      35.812  30.545  49.062  0.00  0.00    +0.000 C 
ATOM     12  C   UNL     1      35.903  29.122  48.840  0.00  0.00    +0.000 C 
ATOM     13  C   UNL     1      36.052  29.601  50.248  0.00  0.00    +0.000 C 
ATOM     14  H   UNL     1      34.910  31.148  49.247  0.00  0.00    +0.000 HD
ATOM     15  H   UNL     1      36.874  28.753  48.398  0.00  0.00    +0.000 HD
ATOM     16  H   UNL     1      35.204  29.355  50.912  0.00  0.00    +0.000 HD
ATOM     17  H   UNL     1      37.032  29.604  50.745  0.00  0.00    +0.000 HD
BRANCH  11  18
ATOM     18  C   UNL     1      37.004  31.456  48.822  0.00  0.00    +0.000 A 
ATOM     19  C   UNL     1      37.182  32.529  49.696  0.00  0.00    +0.000 A 
ATOM     20  C   UNL     1      38.272  33.342  49.415  0.00  0.00    +0.000 A 
ATOM     21  N   UNL     1      39.094  33.079  48.345  0.00  0.00    +0.000 NA
ATOM     22  C   UNL     1      38.879  32.025  47.527  0.00  0.00    +0.000 A 
ATOM     23  N   UNL     1      37.825  31.207  47.768  0.00  0.00    +0.000 NA
ATOM     24  H   UNL     1      36.510  32.687  50.514  0.00  0.00    +0.000 HD
ATOM     25  H   UNL     1      38.444  34.186  50.071  0.00  0.00    +0.000 HD
ATOM     26  H   UNL     1      39.557  31.869  46.704  0.00  0.00    +0.000 HD
ENDBRANCH  11  18
ENDBRANCH   2  12
BRANCH   1  27
ATOM     27  O   UNL     1      34.466  28.963  46.094  0.00  0.00    +0.000 OA
ATOM     28  H   UNL     1      34.463  28.000  45.856  0.00  0.00    +0.000 HD
ENDBRANCH   1  27
BRANCH   5  29
ATOM     29  O   UNL     1      31.584  29.181  47.065  0.00  0.00    +0.000 OA
BRANCH  29  30
ATOM     30  C   UNL     1      30.834  28.639  46.042  0.00  0.00    +0.000 C 
ATOM     31  C   UNL     1      29.641  29.505  45.677  0.00  0.00    +0.000 C 
ATOM     32  H   UNL     1      29.836  30.205  44.867  0.00  0.00    +0.000 HD
ATOM     33  C   UNL     1      28.692  28.438  45.155  0.00  0.00    +0.000 C 
ATOM     34  H   UNL     1      28.877  28.266  44.062  0.00  0.00    +0.000 HD
ATOM     35  O   UNL     1      28.917  27.297  45.900  0.00  0.00    +0.000 OA
ATOM     36  C   UNL     1      30.124  27.416  46.568  0.00  0.00    +0.000 C 
ATOM     37  H   UNL     1      30.741  26.496  46.547  0.00  0.00    +0.000 HD
ENDBRANCH  29  30
ENDBRANCH   5  29
TORSDOF 5
