
 OpenBabel03272505413D

 44 47  0  0  1  0  0  0  0  0999 V2000
   35.6340   30.1930   46.5600 C   0  0  0  0  0  0  0  0  0  0  0  0
   34.2990   29.8090   46.6750 C   0  0  0  0  0  0  0  0  0  0  0  0
   33.5990   29.4410   45.5400 C   0  0  0  0  0  0  0  0  0  0  0  0
   34.1490   29.4280   44.2740 C   0  0  0  0  0  0  0  0  0  0  0  0
   35.4800   29.8100   44.1570 C   0  0  0  0  0  0  0  0  0  0  0  0
   36.1620   30.1760   45.3080 C   0  0  0  0  0  0  0  0  0  0  0  0
   33.7850   29.7890   47.6310 H   0  0  0  0  0  0  0  0  0  0  0  0
   32.5620   29.1460   45.6590 H   0  0  0  0  0  0  0  0  0  0  0  0
   33.5520   29.1290   43.4190 H   0  0  0  0  0  0  0  0  0  0  0  0
   35.8600   29.7850   43.1600 H   0  0  0  0  0  0  0  0  0  0  0  0
   37.5050   30.5340   44.9930 N   0  0  0  0  0  0  0  0  0  0  0  0
   38.8000   29.9260   44.9990 C   0  0  0  0  0  0  0  0  0  0  0  0
   39.7080   30.7960   45.8360 C   0  0  0  0  0  0  0  0  0  0  0  0
   39.9370   32.0210   45.1060 N   0  0  0  0  0  0  0  0  0  0  0  0
   38.9170   32.3380   44.1680 C   0  0  0  0  0  0  0  0  0  0  0  0
   37.5430   31.8870   44.5370 C   0  0  0  0  0  0  0  0  0  0  0  0
   38.7540   28.8870   45.3610 H   0  0  0  0  0  0  0  0  0  0  0  0
   39.2190   29.9610   43.9690 H   0  0  0  0  0  0  0  0  0  0  0  0
   39.6630   30.7850   46.8760 H   0  0  0  0  0  0  0  0  0  0  0  0
   40.6970   30.2390   45.6560 H   0  0  0  0  0  0  0  0  0  0  0  0
   40.8570   32.1460   44.6830 H   0  0  0  0  0  0  0  0  0  0  0  0
   38.8630   33.4690   44.1440 H   0  0  0  0  0  0  0  0  0  0  0  0
   39.2240   32.0710   43.1360 H   0  0  0  0  0  0  0  0  0  0  0  0
   36.9430   32.6220   45.0620 H   0  0  0  0  0  0  0  0  0  0  0  0
   37.0230   31.8230   43.5270 H   0  0  0  0  0  0  0  0  0  0  0  0
   37.1160   30.1520   49.8900 C   0  0  0  0  0  0  0  0  0  0  0  0
   37.8040   31.3760   49.9320 C   0  0  0  0  0  0  0  0  0  0  0  0
   37.7520   32.2030   48.8090 C   0  0  0  0  0  0  0  0  0  0  0  0
   37.0250   31.7380   47.7590 N   0  0  0  0  0  0  0  0  0  0  0  0
   36.3810   30.5840   47.7270 C   0  0  0  0  0  0  0  0  0  0  0  0
   36.4260   29.7790   48.8070 N   0  0  0  0  0  0  0  0  0  0  0  0
   38.3710   31.7130   50.7840 H   0  0  0  0  0  0  0  0  0  0  0  0
   38.4630   33.4850   48.8340 C   0  0  2  0  0  3  0  0  0  0  0  0
   39.4850   33.6250   47.7310 C   0  0  0  0  0  3  0  0  0  0  0  0
   39.0730   33.9990   46.7770 H   0  0  0  0  0  0  0  0  0  0  0  0
   40.3690   34.7090   48.3270 C   0  0  0  0  0  3  0  0  0  0  0  0
   41.4450   34.4830   48.1800 H   0  0  0  0  0  0  0  0  0  0  0  0
   40.0770   34.8080   49.6610 O   0  0  0  0  0  0  0  0  0  0  0  0
   39.3850   33.6550   50.0350 C   0  0  0  0  0  3  0  0  0  0  0  0
   40.1650   32.8550   50.0620 H   0  0  0  0  0  0  0  0  0  0  0  0
   37.1890   29.2920   51.1260 C   0  0  0  0  0  0  0  0  0  0  0  0
   35.8720   28.9570   51.4920 F   0  0  0  0  0  0  0  0  0  0  0  0
   37.9330   28.2150   50.8530 F   0  0  0  0  0  0  0  0  0  0  0  0
   37.6790   30.0550   52.1560 F   0  0  0  0  0  0  0  0  0  0  0  0
  1  2  1  0  0  0  0
  1 30  1  0  0  0  0
  2  7  1  0  0  0  0
  3  8  1  0  0  0  0
  3  2  2  0  0  0  0
  4  3  1  0  0  0  0
  5  4  2  0  0  0  0
  5  6  1  0  0  0  0
  6  1  2  0  0  0  0
  9  4  1  0  0  0  0
 10  5  1  0  0  0  0
 11 12  1  0  0  0  0
 11  6  1  0  0  0  0
 12 17  1  0  0  0  0
 12 13  1  0  0  0  0
 13 19  1  0  0  0  0
 14 13  1  0  0  0  0
 15 16  1  0  0  0  0
 15 14  1  0  0  0  0
 16 11  1  0  0  0  0
 16 24  1  0  0  0  0
 18 12  1  0  0  0  0
 20 13  1  0  0  0  0
 21 14  1  0  0  0  0
 22 15  1  0  0  0  0
 23 15  1  0  0  0  0
 25 16  1  0  0  0  0
 26 27  1  0  0  0  0
 26 41  1  0  0  0  0
 27 32  1  0  0  0  0
 28 27  2  0  0  0  0
 29 28  1  0  0  0  0
 30 29  2  0  0  0  0
 30 31  1  0  0  0  0
 31 26  2  0  0  0  0
 33 28  1  1  0  0  0
 33 39  1  0  0  0  0
 34 36  1  0  0  0  0
 34 33  1  0  0  0  0
 35 34  1  0  0  0  0
 36 38  1  0  0  0  0
 37 36  1  0  0  0  0
 38 39  1  0  0  0  0
 39 40  1  0  0  0  0
 41 42  1  0  0  0  0
 41 44  1  0  0  0  0
 43 41  1  0  0  0  0
M  END
>  <minimizedAffinity>
-5.81849718

>  <minimizedRMSD>
0.732772768

$$$$
