
     RDKit          3D

 48 51  0  0  0  0  0  0  0  0999 V2000
   36.0835   30.4683   46.6436 C   0  0  0  0  0  0  0  0  0  0  0  0
   34.7495   30.0735   46.7147 C   0  0  0  0  0  0  0  0  0  0  0  0
   34.0595   29.8039   45.5468 C   0  0  0  0  0  0  0  0  0  0  0  0
   34.6188   29.9025   44.2894 C   0  0  0  0  0  0  0  0  0  0  0  0
   35.9503   30.2964   44.2158 C   0  0  0  0  0  0  0  0  0  0  0  0
   36.6218   30.5614   45.3996 C   0  0  0  0  0  0  0  0  0  0  0  0
   37.9658   30.9484   45.1277 N   0  0  0  0  0  0  0  0  0  0  0  0
   39.2605   30.3399   45.0754 C   0  0  0  0  0  0  0  0  0  0  0  0
   40.1674   31.1185   46.0004 C   0  0  0  0  0  0  0  0  0  0  0  0
   40.4001   32.4122   45.4005 N   0  0  0  0  0  0  0  0  0  0  0  0
   39.3834   32.8255   44.4970 C   0  0  0  0  0  0  0  0  0  0  0  0
   38.0079   32.3404   44.8131 C   0  0  0  0  0  0  0  0  0  0  0  0
   37.3840   30.2394   50.0425 C   0  0  0  0  0  0  0  0  0  0  0  0
   38.2330   31.3552   50.1190 C   0  0  0  0  0  0  0  0  0  0  0  0
   38.3507   32.1753   48.9965 C   0  0  0  0  0  0  0  0  0  0  0  0
   37.6178   31.8102   47.9110 N   0  0  0  0  0  0  0  0  0  0  0  0
   36.8205   30.7570   47.8471 C   0  0  0  0  0  0  0  0  0  0  0  0
   36.7008   29.9603   48.9257 N   0  0  0  0  0  0  0  0  0  0  0  0
   37.2760   29.3840   51.2789 C   0  0  0  0  0  0  0  0  0  0  0  0
   35.9101   29.1449   51.5159 F   0  0  0  0  0  0  0  0  0  0  0  0
   37.9651   28.2546   51.0793 F   0  0  0  0  0  0  0  0  0  0  0  0
   37.7167   30.1171   52.3521 F   0  0  0  0  0  0  0  0  0  0  0  0
   34.2281   29.9692   47.6615 H   0  0  0  0  0  0  0  0  0  0  0  0
   33.0219   29.4984   45.6314 H   0  0  0  0  0  0  0  0  0  0  0  0
   34.0292   29.6783   43.4064 H   0  0  0  0  0  0  0  0  0  0  0  0
   36.3368   30.3578   43.2233 H   0  0  0  0  0  0  0  0  0  0  0  0
   39.2121   29.2701   45.3290 H   0  0  0  0  0  0  0  0  0  0  0  0
   39.6829   30.4803   44.0559 H   0  0  0  0  0  0  0  0  0  0  0  0
   40.1182   31.0007   47.0337 H   0  0  0  0  0  0  0  0  0  0  0  0
   41.1555   30.5821   45.7680 H   0  0  0  0  0  0  0  0  0  0  0  0
   41.3210   32.5777   44.9965 H   0  0  0  0  0  0  0  0  0  0  0  0
   39.3312   33.9515   44.5886 H   0  0  0  0  0  0  0  0  0  0  0  0
   39.6936   32.6652   43.4438 H   0  0  0  0  0  0  0  0  0  0  0  0
   37.4065   33.0182   45.4090 H   0  0  0  0  0  0  0  0  0  0  0  0
   37.4910   32.3812   43.8003 H   0  0  0  0  0  0  0  0  0  0  0  0
   38.8003   31.6142   50.9985 H   0  0  0  0  0  0  0  0  0  0  0  0
   39.2318   33.3449   49.0570 C   0  0  2  0  0  0  0  0  0  0  0  0
   38.8465   34.4380   48.0885 C   0  0  2  0  0  0  0  0  0  0  0  0
   38.0803   35.1347   48.4737 H   0  0  0  0  0  0  0  0  0  0  0  0
   40.1673   35.1846   47.9934 C   0  0  1  0  0  0  0  0  0  0  0  0
   40.4020   35.4653   46.9470 H   0  0  0  0  0  0  0  0  0  0  0  0
   41.1478   34.3785   48.5065 O   0  0  0  0  0  0  0  0  0  0  0  0
   40.6477   33.0762   48.5597 C   0  0  2  0  0  0  0  0  0  0  0  0
   40.6431   32.7321   47.4969 H   0  0  0  0  0  0  0  0  0  0  0  0
   39.3277   33.7846   50.0539 H   0  0  0  0  0  0  0  0  0  0  0  0
   38.5875   34.0324   47.0947 H   0  0  0  0  0  0  0  0  0  0  0  0
   40.1325   36.1084   48.6418 H   0  0  0  0  0  0  0  0  0  0  0  0
   41.2189   32.4374   49.2222 H   0  0  0  0  0  0  0  0  0  0  0  0
  1  2  2  0
  1 17  1  0
  3  2  1  0
  4  3  2  0
  5  4  1  0
  5  6  2  0
  6  1  1  0
  7  6  1  0
  8  7  1  0
  8  9  1  0
 10  9  1  0
 11 12  1  0
 11 10  1  0
 12  7  1  0
 13 14  2  0
 13 19  1  0
 15 14  1  0
 16 15  2  0
 17 16  1  0
 17 18  2  0
 18 13  1  0
 19 20  1  0
 19 22  1  0
 21 19  1  0
  2 23  1  0
  3 24  1  0
  4 25  1  0
  5 26  1  0
  8 27  1  0
  8 28  1  0
  9 29  1  0
  9 30  1  0
 10 31  1  0
 11 32  1  0
 11 33  1  0
 12 34  1  0
 12 35  1  0
 14 36  1  0
 37 38  1  0
 38 39  1  1
 38 40  1  0
 40 41  1  6
 40 42  1  0
 42 43  1  0
 43 44  1  6
 43 37  1  0
 37 45  1  1
 38 46  1  0
 40 47  1  0
 43 48  1  0
 15 37  1  0
M  ISO  8  23  14  24  14  25  14  26  14  27  13  28  13  29  13  30  13
M  ISO  8  31   5  32  13  33  13  34  13  35  13  36  14  39  15  41  15
M  ISO  1  44  15
M  END
>  <DihAtoms>  (1) 
13,14,36,37

>  <DihDeg>  (1) 
55.031605467828314

$$$$
