
 OpenBabel03272500193D

 33 35  0  0  1  0  0  0  0  0999 V2000
   35.4440   29.1950   50.4450 C   0  0  0  0  0  0  0  0  0  0  0  0
   36.3050   30.1090   49.7830 C   0  0  0  0  0  0  0  0  0  0  0  0
   36.1910   30.2850   48.4070 C   0  0  0  0  0  0  0  0  0  0  0  0
   35.2240   29.5370   47.7830 N   0  0  0  0  0  0  0  0  0  0  0  0
   34.4310   28.6940   48.3990 C   0  0  0  0  0  0  0  0  0  0  0  0
   34.5250   28.5120   49.7190 N   0  0  0  0  0  0  0  0  0  0  0  0
   35.5390   29.0620   51.5260 H   0  0  0  0  0  0  0  0  0  0  0  0
   32.6780   30.3560   46.5700 Cl  0  0  0  0  0  0  0  0  0  0  0  0
   32.5650   28.6080   46.7510 C   0  0  0  0  0  0  0  0  0  0  0  0
   33.4290   27.9430   47.6270 C   0  0  0  0  0  0  0  0  0  0  0  0
   33.3770   26.5670   47.8010 C   0  0  0  0  0  0  0  0  0  0  0  0
   32.4160   25.8780   47.0570 C   0  0  0  0  0  0  0  0  0  0  0  0
   31.5590   26.5080   46.1930 C   0  0  0  0  0  0  0  0  0  0  0  0
   30.3990   25.5420   45.3140 Cl  0  0  0  0  0  0  0  0  0  0  0  0
   31.6440   27.8890   46.0460 C   0  0  0  0  0  0  0  0  0  0  0  0
   34.0460   26.0590   48.4790 H   0  0  0  0  0  0  0  0  0  0  0  0
   32.4180   24.8100   47.2300 H   0  0  0  0  0  0  0  0  0  0  0  0
   30.7220   28.5830   45.1140 C   0  0  0  0  0  0  0  0  0  0  0  0
   29.7430   27.7060   44.6460 F   0  0  0  0  0  0  0  0  0  0  0  0
   31.3670   29.1800   44.0800 F   0  0  0  0  0  0  0  0  0  0  0  0
   30.0270   29.5710   45.8110 F   0  0  0  0  0  0  0  0  0  0  0  0
   37.0460   31.2070   47.6770 C   0  0  2  0  0  3  0  0  0  0  0  0
   38.4060   30.6860   47.2850 C   0  0  0  0  0  3  0  0  0  0  0  0
   38.7700   30.0750   48.1130 H   0  0  0  0  0  0  0  0  0  0  0  0
   39.1840   32.0080   47.1850 C   0  0  0  0  0  3  0  0  0  0  0  0
   38.9960   32.4510   46.1750 H   0  0  0  0  0  0  0  0  0  0  0  0
   38.6120   32.8680   48.0830 O   0  0  0  0  0  0  0  0  0  0  0  0
   37.5680   32.2360   48.7060 C   0  0  0  0  0  3  0  0  0  0  0  0
   37.9840   31.6280   49.5360 H   0  0  0  0  0  0  0  0  0  0  0  0
   37.3110   30.8530   50.5900 C   0  0  0  0  0  0  0  0  0  0  0  0
   38.6030   30.6190   50.1520 F   0  0  0  0  0  0  0  0  0  0  0  0
   37.0310   32.1970   50.5390 F   0  0  0  0  0  0  0  0  0  0  0  0
   37.2730   30.4940   51.9290 F   0  0  0  0  0  0  0  0  0  0  0  0
  1  7  1  0  0  0  0
  2  1  1  0  0  0  0
  2 30  1  0  0  0  0
  3  2  2  0  0  0  0
  4  5  2  0  0  0  0
  4  3  1  0  0  0  0
  5  6  1  0  0  0  0
  6  1  2  0  0  0  0
  8  9  1  0  0  0  0
  9 10  1  0  0  0  0
 10 11  2  0  0  0  0
 10  5  1  0  0  0  0
 11 16  1  0  0  0  0
 12 17  1  0  0  0  0
 12 11  1  0  0  0  0
 13 12  2  0  0  0  0
 14 13  1  0  0  0  0
 15 13  1  0  0  0  0
 15  9  2  0  0  0  0
 18 21  1  0  0  0  0
 18 15  1  0  0  0  0
 19 18  1  0  0  0  0
 20 18  1  0  0  0  0
 22  3  1  1  0  0  0
 22 28  1  0  0  0  0
 23 22  1  0  0  0  0
 23 24  1  0  0  0  0
 25 23  1  0  0  0  0
 25 27  1  0  0  0  0
 26 25  1  0  0  0  0
 27 28  1  0  0  0  0
 28 29  1  0  0  0  0
 30 33  1  0  0  0  0
 31 30  1  0  0  0  0
 32 30  1  0  0  0  0
M  END
>  <minimizedAffinity>
-6.47805738

>  <minimizedRMSD>
0.160256356

$$$$
