
 OpenBabel03272506093D

 43 46  0  0  1  0  0  0  0  0999 V2000
   35.1820   28.6960   49.1380 C   0  0  0  0  0  0  0  0  0  0  0  0
   36.1010   28.6050   48.5190 H   0  0  0  0  0  0  0  0  0  0  0  0
   35.2510   27.8530   49.8670 H   0  0  0  0  0  0  0  0  0  0  0  0
   33.9650   28.4810   48.2790 C   0  0  0  0  0  0  0  0  0  0  0  0
   34.0650   28.6830   46.8510 C   0  0  0  0  0  0  0  0  0  0  0  0
   32.4070   28.3080   46.3480 S   0  0  0  0  0  0  0  0  0  0  0  0
   31.7900   27.9340   48.0810 C   0  0  0  0  0  0  0  0  0  0  0  0
   32.7980   28.1220   48.7110 N   0  0  0  0  0  0  0  0  0  0  0  0
   30.4830   27.5320   48.5630 N   0  0  0  0  0  0  0  0  0  0  0  0
   29.6670   26.8050   47.6580 C   0  0  0  0  0  0  0  0  0  0  0  0
   28.2280   26.7260   48.0410 C   0  0  0  0  0  0  0  0  0  0  0  0
   27.8800   27.6080   49.1400 N   0  0  0  0  0  0  0  0  0  0  0  0
   28.7840   27.2410   50.2260 C   0  0  0  0  0  0  0  0  0  0  0  0
   30.1000   27.8940   49.9160 C   0  0  0  0  0  0  0  0  0  0  0  0
   34.9160   28.9710   46.3170 H   0  0  0  0  0  0  0  0  0  0  0  0
   29.6960   27.3690   46.6800 H   0  0  0  0  0  0  0  0  0  0  0  0
   30.0580   25.7980   47.3840 H   0  0  0  0  0  0  0  0  0  0  0  0
   27.5400   26.8830   47.1650 H   0  0  0  0  0  0  0  0  0  0  0  0
   28.0130   25.6990   48.4080 H   0  0  0  0  0  0  0  0  0  0  0  0
   28.1200   28.5780   48.8350 H   0  0  0  0  0  0  0  0  0  0  0  0
   28.8750   26.1420   50.3280 H   0  0  0  0  0  0  0  0  0  0  0  0
   28.3570   27.7040   51.1460 H   0  0  0  0  0  0  0  0  0  0  0  0
   29.9930   28.9880   50.0410 H   0  0  0  0  0  0  0  0  0  0  0  0
   30.8650   27.5060   50.6200 H   0  0  0  0  0  0  0  0  0  0  0  0
   35.1560   29.9910   49.8370 C   0  0  0  0  0  0  0  0  0  0  0  0
   34.2040   30.5300   49.5800 H   0  0  0  0  0  0  0  0  0  0  0  0
   35.1780   29.8400   50.9350 H   0  0  0  0  0  0  0  0  0  0  0  0
   37.6930   32.7090   49.6250 C   0  0  0  0  0  0  0  0  0  0  0  0
   38.3620   32.4070   48.4300 C   0  0  0  0  0  0  0  0  0  0  0  0
   37.9270   31.2780   47.7220 C   0  0  0  0  0  0  0  0  0  0  0  0
   36.8970   30.5430   48.2220 N   0  0  0  0  0  0  0  0  0  0  0  0
   36.2870   30.8780   49.3800 C   0  0  0  0  0  0  0  0  0  0  0  0
   36.6870   31.9400   50.0560 N   0  0  0  0  0  0  0  0  0  0  0  0
   38.0340   33.5840   50.1680 H   0  0  0  0  0  0  0  0  0  0  0  0
   39.1670   32.9840   48.0430 H   0  0  0  0  0  0  0  0  0  0  0  0
   38.5490   30.8430   46.4400 C   0  0  2  0  0  0  0  0  0  0  0  0
   39.7180   31.6840   46.0440 C   0  0  0  0  0  0  0  0  0  0  0  0
   40.5450   31.0340   45.6680 H   0  0  0  0  0  0  0  0  0  0  0  0
   39.2030   32.5980   44.9370 C   0  0  0  0  0  0  0  0  0  0  0  0
   39.6060   32.2910   43.9550 H   0  0  0  0  0  0  0  0  0  0  0  0
   37.8310   32.4180   44.9150 O   0  0  0  0  0  0  0  0  0  0  0  0
   37.5610   31.1260   45.3030 C   0  0  0  0  0  0  0  0  0  0  0  0
   36.5210   31.0900   45.7420 H   0  0  0  0  0  0  0  0  0  0  0  0
  1 25  1  0  0  0  0
  1  3  1  0  0  0  0
  2  1  1  0  0  0  0
  4  8  1  0  0  0  0
  4  1  1  0  0  0  0
  5  4  2  0  0  0  0
  6  5  1  0  0  0  0
  6  7  1  0  0  0  0
  7  9  1  0  0  0  0
  7  8  2  0  0  0  0
  9 14  1  0  0  0  0
 10 11  1  0  0  0  0
 10  9  1  0  0  0  0
 11 19  1  0  0  0  0
 11 12  1  0  0  0  0
 12 13  1  0  0  0  0
 13 21  1  0  0  0  0
 13 22  1  0  0  0  0
 14 23  1  0  0  0  0
 14 13  1  0  0  0  0
 14 24  1  0  0  0  0
 15  5  1  0  0  0  0
 16 10  1  0  0  0  0
 17 10  1  0  0  0  0
 18 11  1  0  0  0  0
 20 12  1  0  0  0  0
 25 27  1  0  0  0  0
 26 25  1  0  0  0  0
 28 33  1  0  0  0  0
 28 34  1  0  0  0  0
 29 28  2  0  0  0  0
 30 31  2  0  0  0  0
 30 29  1  0  0  0  0
 31 32  1  0  0  0  0
 32 25  1  0  0  0  0
 32 33  2  0  0  0  0
 35 29  1  0  0  0  0
 36 30  1  1  0  0  0
 37 36  1  0  0  0  0
 38 37  1  0  0  0  0
 39 37  1  0  0  0  0
 40 39  1  0  0  0  0
 41 39  1  0  0  0  0
 41 42  1  0  0  0  0
 42 43  1  0  0  0  0
 42 36  1  0  0  0  0
M  END
>  <minimizedAffinity>
-6.5115633

>  <minimizedRMSD>
0.840831637

$$$$
