
 OpenBabel03272508093D

 23 24  0  0  1  0  0  0  0  0999 V2000
   39.1210   32.8390   48.1380 O   0  0  0  0  0  0  0  0  0  0  0  0
   38.7330   31.8510   47.0850 P   0  0  2  0  0  0  0  0  0  0  0  0
   37.7090   32.6020   45.9570 O   0  0  0  0  0  0  0  0  0  0  0  0
   37.2490   33.3530   46.4490 H   0  0  0  0  0  0  0  0  0  0  0  0
   38.0410   30.4240   47.6740 O   0  0  0  0  0  0  0  0  0  0  0  0
   37.3470   30.2050   51.3080 C   0  0  0  0  0  0  0  0  0  0  0  0
   38.0450   30.5660   50.1590 C   0  0  0  0  0  0  0  0  0  0  0  0
   37.5450   30.1910   48.9150 C   0  0  0  0  0  0  0  0  0  0  0  0
   36.3730   29.4740   48.8920 N   0  0  0  0  0  0  0  0  0  0  0  0
   35.7290   29.1450   50.0360 C   0  0  0  0  0  0  0  0  0  0  0  0
   36.2050   29.5030   51.2270 N   0  0  0  0  0  0  0  0  0  0  0  0
   37.8690   30.5730   52.1870 H   0  0  0  0  0  0  0  0  0  0  0  0
   38.9670   31.1260   50.0980 H   0  0  0  0  0  0  0  0  0  0  0  0
   34.8050   28.5800   50.0370 H   0  0  0  0  0  0  0  0  0  0  0  0
   40.1520   31.4370   46.2360 O   0  0  0  0  0  0  0  0  0  0  0  0
   39.7950   31.1630   44.9290 C   0  0  1  0  0  3  0  0  0  0  0  0
   39.2560   29.7920   44.6940 C   0  0  0  0  0  3  0  0  0  0  0  0
   39.0080   29.2420   45.6470 H   0  0  0  0  0  0  0  0  0  0  0  0
   37.9850   30.0590   43.8970 C   0  0  0  0  0  3  0  0  0  0  0  0
   37.0850   30.1140   44.5350 H   0  0  0  0  0  0  0  0  0  0  0  0
   38.1990   31.3240   43.3310 O   0  0  0  0  0  0  0  0  0  0  0  0
   38.6820   32.0600   44.4360 C   0  0  0  0  0  3  0  0  0  0  0  0
   39.0630   33.0360   44.0410 H   0  0  0  0  0  0  0  0  0  0  0  0
  2  5  1  0  0  0  0
  2  1  2  1  0  0  0
  3  4  1  0  0  0  0
  3  2  1  0  0  0  0
  5  8  1  0  0  0  0
  6 12  1  0  0  0  0
  7  6  2  0  0  0  0
  8  7  1  0  0  0  0
  9  8  2  0  0  0  0
  9 10  1  0  0  0  0
 10 14  1  0  0  0  0
 10 11  2  0  0  0  0
 11  6  1  0  0  0  0
 13  7  1  0  0  0  0
 15  2  1  0  0  0  0
 16 15  1  1  0  0  0
 17 16  1  0  0  0  0
 17 18  1  0  0  0  0
 19 20  1  0  0  0  0
 19 17  1  0  0  0  0
 21 19  1  0  0  0  0
 21 22  1  0  0  0  0
 22 16  1  0  0  0  0
 23 22  1  0  0  0  0
M  END
>  <minimizedAffinity>
-4.92393541

>  <minimizedRMSD>
0.322013319

$$$$
