
 OpenBabel03272508283D

 37 40  0  0  1  0  0  0  0  0999 V2000
   33.8020   28.8860   47.2200 C   0  0  2  0  0  0  0  0  0  0  0  0
   34.5200   28.1170   48.3180 C   0  0  2  0  0  0  0  0  0  0  0  0
   33.6020   27.9620   49.3190 O   0  0  0  0  0  0  0  0  0  0  0  0
   32.3380   28.0370   48.8270 C   0  0  0  0  0  0  0  0  0  0  0  0
   32.4190   28.2330   47.3290 C   0  0  1  0  0  0  0  0  0  0  0  0
   33.6450   29.9370   47.4780 H   0  0  0  0  0  0  0  0  0  0  0  0
   34.8100   27.1490   47.8430 H   0  0  0  0  0  0  0  0  0  0  0  0
   31.7460   27.1460   49.1040 H   0  0  0  0  0  0  0  0  0  0  0  0
   31.8520   28.9480   49.2720 H   0  0  0  0  0  0  0  0  0  0  0  0
   32.4760   27.2420   46.8350 H   0  0  0  0  0  0  0  0  0  0  0  0
   35.5970   30.3650   49.0050 C   0  0  1  0  0  0  0  0  0  0  0  0
   35.6830   28.9460   48.7570 C   0  0  1  0  0  0  0  0  0  0  0  0
   35.8390   29.3990   50.1730 C   0  0  0  0  0  0  0  0  0  0  0  0
   34.6970   30.9670   49.2050 H   0  0  0  0  0  0  0  0  0  0  0  0
   36.6510   28.5830   48.3040 H   0  0  0  0  0  0  0  0  0  0  0  0
   34.9940   29.1440   50.8360 H   0  0  0  0  0  0  0  0  0  0  0  0
   36.8220   29.3910   50.6650 H   0  0  0  0  0  0  0  0  0  0  0  0
   36.7900   31.2770   48.7760 C   0  0  0  0  0  0  0  0  0  0  0  0
   37.0370   32.2670   49.7280 C   0  0  0  0  0  0  0  0  0  0  0  0
   38.1250   33.0860   49.4560 C   0  0  0  0  0  0  0  0  0  0  0  0
   38.8800   32.9070   48.3210 N   0  0  0  0  0  0  0  0  0  0  0  0
   38.5990   31.9320   47.4290 C   0  0  0  0  0  0  0  0  0  0  0  0
   37.5450   31.1100   47.6590 N   0  0  0  0  0  0  0  0  0  0  0  0
   36.4160   32.3620   50.5940 H   0  0  0  0  0  0  0  0  0  0  0  0
   38.3500   33.8670   50.1710 H   0  0  0  0  0  0  0  0  0  0  0  0
   39.2260   31.8390   46.5570 H   0  0  0  0  0  0  0  0  0  0  0  0
   34.3510   28.7020   45.9650 O   0  0  0  0  0  0  0  0  0  0  0  0
   34.3310   27.7300   45.7680 H   0  0  0  0  0  0  0  0  0  0  0  0
   31.4400   29.0350   46.8080 O   0  0  0  0  0  0  0  0  0  0  0  0
   30.2500   28.3900   46.5380 C   0  0  2  0  0  3  0  0  0  0  0  0
   29.8110   28.5670   45.0950 C   0  0  0  0  0  3  0  0  0  0  0  0
   30.1400   27.7670   44.4330 H   0  0  0  0  0  0  0  0  0  0  0  0
   28.3050   28.4450   45.2620 C   0  0  0  0  0  3  0  0  0  0  0  0
   28.0010   27.3670   45.2030 H   0  0  0  0  0  0  0  0  0  0  0  0
   27.9880   29.0020   46.4850 O   0  0  0  0  0  0  0  0  0  0  0  0
   29.1390   29.1240   47.2450 C   0  0  0  0  0  3  0  0  0  0  0  0
   29.0100   28.8290   48.3060 H   0  0  0  0  0  0  0  0  0  0  0  0
  1  5  1  0  0  0  0
  1  6  1  1  0  0  0
  1  2  1  0  0  0  0
  2  7  1  6  0  0  0
  2 12  1  0  0  0  0
  2  3  1  0  0  0  0
  4  8  1  0  0  0  0
  4  9  1  0  0  0  0
  4  3  1  0  0  0  0
  5 10  1  6  0  0  0
  5  4  1  0  0  0  0
 11 14  1  6  0  0  0
 11 13  1  0  0  0  0
 12 15  1  6  0  0  0
 12 11  1  0  0  0  0
 12 13  1  0  0  0  0
 13 17  1  0  0  0  0
 13 16  1  0  0  0  0
 18 11  1  0  0  0  0
 18 19  1  0  0  0  0
 19 24  1  0  0  0  0
 20 19  2  0  0  0  0
 20 25  1  0  0  0  0
 21 20  1  0  0  0  0
 22 23  1  0  0  0  0
 22 21  2  0  0  0  0
 23 18  2  0  0  0  0
 26 22  1  0  0  0  0
 27  1  1  0  0  0  0
 28 27  1  0  0  0  0
 29  5  1  0  0  0  0
 30 29  1  6  0  0  0
 30 36  1  0  0  0  0
 31 33  1  0  0  0  0
 31 30  1  0  0  0  0
 32 31  1  0  0  0  0
 33 35  1  0  0  0  0
 34 33  1  0  0  0  0
 35 36  1  0  0  0  0
 36 37  1  0  0  0  0
M  END
>  <minimizedAffinity>
-5.0091095

>  <minimizedRMSD>
0.672250628

$$$$
