
 OpenBabel03272500203D

 33 35  0  0  1  0  0  0  0  0999 V2000
   36.2310   30.5360   31.2670 C   0  0  0  0  0  0  0  0  0  0  0  0
   36.6250   29.2110   30.9390 C   0  0  0  0  0  0  0  0  0  0  0  0
   35.9640   28.1350   31.5210 C   0  0  0  0  0  0  0  0  0  0  0  0
   34.9510   28.4500   32.3920 N   0  0  0  0  0  0  0  0  0  0  0  0
   34.5890   29.6740   32.6920 C   0  0  0  0  0  0  0  0  0  0  0  0
   35.2130   30.7210   32.1430 N   0  0  0  0  0  0  0  0  0  0  0  0
   36.7550   31.3760   30.8070 H   0  0  0  0  0  0  0  0  0  0  0  0
   35.3700   30.9530   35.3260 Cl  0  0  0  0  0  0  0  0  0  0  0  0
   33.7310   30.4780   34.8880 C   0  0  0  0  0  0  0  0  0  0  0  0
   33.4870   29.8940   33.6410 C   0  0  0  0  0  0  0  0  0  0  0  0
   32.2130   29.5050   33.2520 C   0  0  0  0  0  0  0  0  0  0  0  0
   31.1840   29.7250   34.1720 C   0  0  0  0  0  0  0  0  0  0  0  0
   31.3990   30.2940   35.3990 C   0  0  0  0  0  0  0  0  0  0  0  0
   30.0350   30.5210   36.4660 Cl  0  0  0  0  0  0  0  0  0  0  0  0
   32.6920   30.6720   35.7510 C   0  0  0  0  0  0  0  0  0  0  0  0
   32.0300   29.0550   32.2890 H   0  0  0  0  0  0  0  0  0  0  0  0
   30.2130   29.4030   33.8200 H   0  0  0  0  0  0  0  0  0  0  0  0
   32.9380   31.2900   37.0770 C   0  0  0  0  0  0  0  0  0  0  0  0
   32.1360   32.4190   37.2490 F   0  0  0  0  0  0  0  0  0  0  0  0
   34.2450   31.5910   37.2840 F   0  0  0  0  0  0  0  0  0  0  0  0
   32.5400   30.4010   38.0740 F   0  0  0  0  0  0  0  0  0  0  0  0
   36.3250   26.7580   31.2220 C   0  0  2  0  0  3  0  0  0  0  0  0
   35.1790   25.8040   30.9940 C   0  0  0  0  0  3  0  0  0  0  0  0
   34.3910   26.0680   31.7050 H   0  0  0  0  0  0  0  0  0  0  0  0
   35.8520   24.4760   31.3780 C   0  0  0  0  0  3  0  0  0  0  0  0
   36.4210   24.1010   30.4880 H   0  0  0  0  0  0  0  0  0  0  0  0
   36.7940   24.7720   32.3250 O   0  0  0  0  0  0  0  0  0  0  0  0
   36.7880   26.1230   32.5530 C   0  0  0  0  0  3  0  0  0  0  0  0
   35.9760   26.3430   33.2780 H   0  0  0  0  0  0  0  0  0  0  0  0
   37.7460   29.0200   29.9770 C   0  0  0  0  0  0  0  0  0  0  0  0
   37.3170   28.4480   28.7910 F   0  0  0  0  0  0  0  0  0  0  0  0
   38.3440   30.2310   29.7290 F   0  0  0  0  0  0  0  0  0  0  0  0
   38.7330   28.1900   30.4860 F   0  0  0  0  0  0  0  0  0  0  0  0
  1  6  1  0  0  0  0
  2  1  2  0  0  0  0
  2  3  1  0  0  0  0
  3  4  2  0  0  0  0
  4  5  1  0  0  0  0
  5 10  1  0  0  0  0
  6  5  2  0  0  0  0
  7  1  1  0  0  0  0
  9  8  1  0  0  0  0
  9 15  1  0  0  0  0
 10  9  2  0  0  0  0
 11 10  1  0  0  0  0
 11 12  2  0  0  0  0
 12 13  1  0  0  0  0
 13 15  2  0  0  0  0
 13 14  1  0  0  0  0
 15 18  1  0  0  0  0
 16 11  1  0  0  0  0
 17 12  1  0  0  0  0
 18 19  1  0  0  0  0
 18 20  1  0  0  0  0
 18 21  1  0  0  0  0
 22  3  1  1  0  0  0
 22 28  1  0  0  0  0
 23 22  1  0  0  0  0
 23 25  1  0  0  0  0
 23 24  1  0  0  0  0
 25 27  1  0  0  0  0
 26 25  1  0  0  0  0
 27 28  1  0  0  0  0
 28 29  1  0  0  0  0
 30 33  1  0  0  0  0
 30  2  1  0  0  0  0
 31 30  1  0  0  0  0
 32 30  1  0  0  0  0
M  END
>  <minimizedAffinity>
-6.12595415

$$$$

 OpenBabel03272500203D

 33 35  0  0  1  0  0  0  0  0999 V2000
   34.7750   31.7290   35.6630 C   0  0  0  0  0  0  0  0  0  0  0  0
   33.5400   31.1160   36.0060 C   0  0  0  0  0  0  0  0  0  0  0  0
   33.0690   30.0510   35.2440 C   0  0  0  0  0  0  0  0  0  0  0  0
   33.8610   29.6670   34.1910 N   0  0  0  0  0  0  0  0  0  0  0  0
   35.0010   30.2360   33.8790 C   0  0  0  0  0  0  0  0  0  0  0  0
   35.4690   31.2590   34.5980 N   0  0  0  0  0  0  0  0  0  0  0  0
   35.1390   32.5650   36.2660 H   0  0  0  0  0  0  0  0  0  0  0  0
   36.7900   27.8530   34.4280 Cl  0  0  0  0  0  0  0  0  0  0  0  0
   36.6260   28.6450   32.8630 C   0  0  0  0  0  0  0  0  0  0  0  0
   35.7680   29.7400   32.7260 C   0  0  0  0  0  0  0  0  0  0  0  0
   35.6060   30.3950   31.5120 C   0  0  0  0  0  0  0  0  0  0  0  0
   36.3470   29.9040   30.4330 C   0  0  0  0  0  0  0  0  0  0  0  0
   37.1940   28.8330   30.5440 C   0  0  0  0  0  0  0  0  0  0  0  0
   38.0670   28.3080   29.1260 Cl  0  0  0  0  0  0  0  0  0  0  0  0
   37.3270   28.2040   31.7790 C   0  0  0  0  0  0  0  0  0  0  0  0
   34.9430   31.2400   31.4120 H   0  0  0  0  0  0  0  0  0  0  0  0
   36.1840   30.4500   29.5130 H   0  0  0  0  0  0  0  0  0  0  0  0
   38.2410   27.0430   31.9120 C   0  0  0  0  0  0  0  0  0  0  0  0
   39.2710   27.3280   32.8090 F   0  0  0  0  0  0  0  0  0  0  0  0
   38.7410   26.6240   30.7220 F   0  0  0  0  0  0  0  0  0  0  0  0
   37.5430   25.9780   32.4820 F   0  0  0  0  0  0  0  0  0  0  0  0
   31.8120   29.3850   35.5480 C   0  0  2  0  0  3  0  0  0  0  0  0
   31.9100   28.1130   36.3510 C   0  0  0  0  0  3  0  0  0  0  0  0
   32.7950   27.5750   36.0000 H   0  0  0  0  0  0  0  0  0  0  0  0
   30.6180   27.4100   35.9060 C   0  0  0  0  0  3  0  0  0  0  0  0
   29.7720   27.8070   36.5240 H   0  0  0  0  0  0  0  0  0  0  0  0
   30.3690   27.8230   34.6250 O   0  0  0  0  0  0  0  0  0  0  0  0
   31.3450   28.7040   34.2420 C   0  0  0  0  0  3  0  0  0  0  0  0
   32.2190   28.1150   33.8930 H   0  0  0  0  0  0  0  0  0  0  0  0
   32.7850   31.6410   37.1770 C   0  0  0  0  0  0  0  0  0  0  0  0
   31.5230   32.0850   36.8220 F   0  0  0  0  0  0  0  0  0  0  0  0
   32.6910   30.6600   38.1330 F   0  0  0  0  0  0  0  0  0  0  0  0
   33.4300   32.7130   37.7750 F   0  0  0  0  0  0  0  0  0  0  0  0
  1  2  1  0  0  0  0
  1  7  1  0  0  0  0
  2 30  1  0  0  0  0
  3  2  2  0  0  0  0
  4  3  1  0  0  0  0
  5  4  2  0  0  0  0
  5  6  1  0  0  0  0
  6  1  2  0  0  0  0
  9  8  1  0  0  0  0
 10  9  1  0  0  0  0
 10  5  1  0  0  0  0
 11 10  2  0  0  0  0
 12 13  2  0  0  0  0
 12 11  1  0  0  0  0
 13 15  1  0  0  0  0
 14 13  1  0  0  0  0
 15 18  1  0  0  0  0
 15  9  2  0  0  0  0
 16 11  1  0  0  0  0
 17 12  1  0  0  0  0
 18 21  1  0  0  0  0
 18 19  1  0  0  0  0
 20 18  1  0  0  0  0
 22  3  1  6  0  0  0
 22 23  1  0  0  0  0
 24 23  1  0  0  0  0
 25 23  1  0  0  0  0
 25 26  1  0  0  0  0
 27 25  1  0  0  0  0
 28 27  1  0  0  0  0
 28 22  1  0  0  0  0
 29 28  1  0  0  0  0
 30 33  1  0  0  0  0
 30 32  1  0  0  0  0
 31 30  1  0  0  0  0
M  END
>  <minimizedAffinity>
-5.94228125

$$$$

 OpenBabel03272500203D

 33 35  0  0  1  0  0  0  0  0999 V2000
   36.3860   29.3570   30.9820 C   0  0  0  0  0  0  0  0  0  0  0  0
   37.2670   28.3550   31.4710 C   0  0  0  0  0  0  0  0  0  0  0  0
   37.0640   27.8240   32.7400 C   0  0  0  0  0  0  0  0  0  0  0  0
   35.9950   28.3260   33.4400 N   0  0  0  0  0  0  0  0  0  0  0  0
   35.1840   29.2510   32.9840 C   0  0  0  0  0  0  0  0  0  0  0  0
   35.3620   29.7730   31.7680 N   0  0  0  0  0  0  0  0  0  0  0  0
   36.5520   29.7700   29.9840 H   0  0  0  0  0  0  0  0  0  0  0  0
   35.9670   30.8660   35.4250 Cl  0  0  0  0  0  0  0  0  0  0  0  0
   34.3110   30.4690   34.9750 C   0  0  0  0  0  0  0  0  0  0  0  0
   34.0670   29.7140   33.8230 C   0  0  0  0  0  0  0  0  0  0  0  0
   32.7800   29.3780   33.4280 C   0  0  0  0  0  0  0  0  0  0  0  0
   31.7380   29.8300   34.2420 C   0  0  0  0  0  0  0  0  0  0  0  0
   31.9530   30.5700   35.3750 C   0  0  0  0  0  0  0  0  0  0  0  0
   30.5720   31.0820   36.3130 Cl  0  0  0  0  0  0  0  0  0  0  0  0
   33.2590   30.8870   35.7360 C   0  0  0  0  0  0  0  0  0  0  0  0
   32.5970   28.7960   32.5380 H   0  0  0  0  0  0  0  0  0  0  0  0
   30.7570   29.5400   33.8890 H   0  0  0  0  0  0  0  0  0  0  0  0
   33.5060   31.6870   36.9600 C   0  0  0  0  0  0  0  0  0  0  0  0
   32.8990   32.9400   36.8590 F   0  0  0  0  0  0  0  0  0  0  0  0
   34.8250   31.8130   37.2520 F   0  0  0  0  0  0  0  0  0  0  0  0
   32.8850   31.0650   38.0430 F   0  0  0  0  0  0  0  0  0  0  0  0
   37.9340   26.7970   33.2920 C   0  0  2  0  0  3  0  0  0  0  0  0
   37.4240   25.3800   33.2120 C   0  0  0  0  0  3  0  0  0  0  0  0
   36.3490   25.4110   33.4060 H   0  0  0  0  0  0  0  0  0  0  0  0
   38.1840   24.7520   34.3910 C   0  0  0  0  0  3  0  0  0  0  0  0
   39.2090   24.4680   34.0370 H   0  0  0  0  0  0  0  0  0  0  0  0
   38.3700   25.7460   35.3120 O   0  0  0  0  0  0  0  0  0  0  0  0
   37.8300   26.9090   34.8300 C   0  0  0  0  0  3  0  0  0  0  0  0
   36.7420   26.8960   35.0490 H   0  0  0  0  0  0  0  0  0  0  0  0
   38.3890   27.9070   30.6000 C   0  0  0  0  0  0  0  0  0  0  0  0
   38.2130   26.6080   30.1570 F   0  0  0  0  0  0  0  0  0  0  0  0
   38.5020   28.7610   29.5300 F   0  0  0  0  0  0  0  0  0  0  0  0
   39.6070   27.9410   31.2620 F   0  0  0  0  0  0  0  0  0  0  0  0
  1  2  2  0  0  0  0
  1  6  1  0  0  0  0
  2  3  1  0  0  0  0
  3  4  2  0  0  0  0
  5  4  1  0  0  0  0
  5 10  1  0  0  0  0
  6  5  2  0  0  0  0
  7  1  1  0  0  0  0
  9  8  1  0  0  0  0
  9 15  1  0  0  0  0
 10  9  2  0  0  0  0
 11 10  1  0  0  0  0
 11 12  2  0  0  0  0
 12 13  1  0  0  0  0
 13 15  2  0  0  0  0
 13 14  1  0  0  0  0
 15 18  1  0  0  0  0
 16 11  1  0  0  0  0
 17 12  1  0  0  0  0
 18 20  1  0  0  0  0
 18 21  1  0  0  0  0
 19 18  1  0  0  0  0
 22  3  1  6  0  0  0
 22 28  1  0  0  0  0
 23 22  1  0  0  0  0
 23 24  1  0  0  0  0
 23 25  1  0  0  0  0
 25 27  1  0  0  0  0
 26 25  1  0  0  0  0
 28 29  1  0  0  0  0
 28 27  1  0  0  0  0
 30 33  1  0  0  0  0
 30  2  1  0  0  0  0
 31 30  1  0  0  0  0
 32 30  1  0  0  0  0
M  END
>  <minimizedAffinity>
-5.91059971

$$$$

 OpenBabel03272500203D

 33 35  0  0  1  0  0  0  0  0999 V2000
   39.4100   27.3640   31.0400 C   0  0  0  0  0  0  0  0  0  0  0  0
   38.3670   28.2420   30.6430 C   0  0  0  0  0  0  0  0  0  0  0  0
   37.2990   28.4720   31.5050 C   0  0  0  0  0  0  0  0  0  0  0  0
   37.3440   27.8120   32.7080 N   0  0  0  0  0  0  0  0  0  0  0  0
   38.3100   27.0030   33.0710 C   0  0  0  0  0  0  0  0  0  0  0  0
   39.3430   26.7690   32.2560 N   0  0  0  0  0  0  0  0  0  0  0  0
   40.2450   27.1880   30.3570 H   0  0  0  0  0  0  0  0  0  0  0  0
   38.0000   23.9890   33.0180 Cl  0  0  0  0  0  0  0  0  0  0  0  0
   38.1120   24.9610   34.4830 C   0  0  0  0  0  0  0  0  0  0  0  0
   38.2530   26.3480   34.3870 C   0  0  0  0  0  0  0  0  0  0  0  0
   38.3460   27.1550   35.5140 C   0  0  0  0  0  0  0  0  0  0  0  0
   38.2900   26.5080   36.7510 C   0  0  0  0  0  0  0  0  0  0  0  0
   38.1510   25.1500   36.8700 C   0  0  0  0  0  0  0  0  0  0  0  0
   38.0930   24.4520   38.4700 Cl  0  0  0  0  0  0  0  0  0  0  0  0
   38.0620   24.3770   35.7160 C   0  0  0  0  0  0  0  0  0  0  0  0
   38.4550   28.2250   35.4340 H   0  0  0  0  0  0  0  0  0  0  0  0
   38.3660   27.1810   37.5950 H   0  0  0  0  0  0  0  0  0  0  0  0
   37.9110   22.9060   35.8300 C   0  0  0  0  0  0  0  0  0  0  0  0
   39.0670   22.3340   36.3640 F   0  0  0  0  0  0  0  0  0  0  0  0
   37.5800   22.3160   34.6540 F   0  0  0  0  0  0  0  0  0  0  0  0
   36.9030   22.6220   36.7510 F   0  0  0  0  0  0  0  0  0  0  0  0
   36.2030   29.3610   31.1520 C   0  0  2  0  0  3  0  0  0  0  0  0
   36.3240   30.7870   31.6250 C   0  0  0  0  0  3  0  0  0  0  0  0
   36.7650   30.7610   32.6250 H   0  0  0  0  0  0  0  0  0  0  0  0
   34.8390   31.1800   31.6820 C   0  0  0  0  0  3  0  0  0  0  0  0
   34.5170   31.4850   30.6530 H   0  0  0  0  0  0  0  0  0  0  0  0
   34.1420   30.0390   31.9680 O   0  0  0  0  0  0  0  0  0  0  0  0
   35.0210   28.9930   32.0760 C   0  0  0  0  0  3  0  0  0  0  0  0
   35.4410   29.0060   33.1040 H   0  0  0  0  0  0  0  0  0  0  0  0
   38.4500   28.8890   29.3040 C   0  0  0  0  0  0  0  0  0  0  0  0
   38.6230   30.2590   29.4010 F   0  0  0  0  0  0  0  0  0  0  0  0
   39.4840   28.3300   28.5940 F   0  0  0  0  0  0  0  0  0  0  0  0
   37.3020   28.6840   28.5540 F   0  0  0  0  0  0  0  0  0  0  0  0
  1  6  1  0  0  0  0
  2  1  2  0  0  0  0
  2  3  1  0  0  0  0
  3  4  2  0  0  0  0
  4  5  1  0  0  0  0
  5 10  1  0  0  0  0
  6  5  2  0  0  0  0
  7  1  1  0  0  0  0
  8  9  1  0  0  0  0
  9 15  1  0  0  0  0
 10  9  2  0  0  0  0
 10 11  1  0  0  0  0
 11 12  2  0  0  0  0
 12 13  1  0  0  0  0
 12 17  1  0  0  0  0
 13 14  1  0  0  0  0
 15 18  1  0  0  0  0
 15 13  2  0  0  0  0
 16 11  1  0  0  0  0
 18 19  1  0  0  0  0
 18 21  1  0  0  0  0
 20 18  1  0  0  0  0
 22  3  1  1  0  0  0
 22 23  1  0  0  0  0
 22 28  1  0  0  0  0
 23 25  1  0  0  0  0
 23 24  1  0  0  0  0
 25 27  1  0  0  0  0
 26 25  1  0  0  0  0
 27 28  1  0  0  0  0
 28 29  1  0  0  0  0
 30 31  1  0  0  0  0
 30  2  1  0  0  0  0
 32 30  1  0  0  0  0
 33 30  1  0  0  0  0
M  END
>  <minimizedAffinity>
-5.88593912

$$$$

 OpenBabel03272500203D

 33 35  0  0  1  0  0  0  0  0999 V2000
   37.4470   25.8950   33.5140 C   0  0  0  0  0  0  0  0  0  0  0  0
   38.1910   25.6910   34.7060 C   0  0  0  0  0  0  0  0  0  0  0  0
   38.6530   24.4150   35.0170 C   0  0  0  0  0  0  0  0  0  0  0  0
   38.3430   23.4270   34.1160 N   0  0  0  0  0  0  0  0  0  0  0  0
   37.6560   23.6200   33.0150 C   0  0  0  0  0  0  0  0  0  0  0  0
   37.2050   24.8370   32.7000 N   0  0  0  0  0  0  0  0  0  0  0  0
   37.0880   26.8980   33.2760 H   0  0  0  0  0  0  0  0  0  0  0  0
   39.8350   22.9840   31.0080 Cl  0  0  0  0  0  0  0  0  0  0  0  0
   38.3190   22.1010   31.1550 C   0  0  0  0  0  0  0  0  0  0  0  0
   37.3830   22.4840   32.1210 C   0  0  0  0  0  0  0  0  0  0  0  0
   36.1750   21.8180   32.2750 C   0  0  0  0  0  0  0  0  0  0  0  0
   35.9400   20.7430   31.4130 C   0  0  0  0  0  0  0  0  0  0  0  0
   36.8410   20.3500   30.4590 C   0  0  0  0  0  0  0  0  0  0  0  0
   36.4390   18.9910   29.4390 Cl  0  0  0  0  0  0  0  0  0  0  0  0
   38.0410   21.0440   30.3380 C   0  0  0  0  0  0  0  0  0  0  0  0
   35.4560   22.1180   33.0210 H   0  0  0  0  0  0  0  0  0  0  0  0
   34.9850   20.2600   31.5740 H   0  0  0  0  0  0  0  0  0  0  0  0
   39.0260   20.6280   29.3090 C   0  0  0  0  0  0  0  0  0  0  0  0
   38.4330   19.7750   28.3780 F   0  0  0  0  0  0  0  0  0  0  0  0
   40.1390   20.0620   29.8420 F   0  0  0  0  0  0  0  0  0  0  0  0
   39.4230   21.7480   28.5800 F   0  0  0  0  0  0  0  0  0  0  0  0
   39.4190   24.1480   36.2240 C   0  0  2  0  0  3  0  0  0  0  0  0
   40.4490   23.0500   36.1280 C   0  0  0  0  0  3  0  0  0  0  0  0
   40.0190   22.2550   35.5120 H   0  0  0  0  0  0  0  0  0  0  0  0
   40.5300   22.6260   37.6040 C   0  0  0  0  0  3  0  0  0  0  0  0
   41.2330   23.3230   38.1300 H   0  0  0  0  0  0  0  0  0  0  0  0
   39.2970   22.8600   38.1480 O   0  0  0  0  0  0  0  0  0  0  0  0
   38.4770   23.3900   37.1860 C   0  0  0  0  0  3  0  0  0  0  0  0
   38.0660   22.5500   36.5880 H   0  0  0  0  0  0  0  0  0  0  0  0
   38.4510   26.8590   35.5920 C   0  0  0  0  0  0  0  0  0  0  0  0
   39.7850   27.2280   35.5850 F   0  0  0  0  0  0  0  0  0  0  0  0
   37.6660   27.9130   35.1950 F   0  0  0  0  0  0  0  0  0  0  0  0
   38.1170   26.5950   36.9120 F   0  0  0  0  0  0  0  0  0  0  0  0
  1  2  1  0  0  0  0
  2  3  2  0  0  0  0
  2 30  1  0  0  0  0
  4  3  1  0  0  0  0
  5  4  2  0  0  0  0
  6  5  1  0  0  0  0
  6  1  2  0  0  0  0
  7  1  1  0  0  0  0
  8  9  1  0  0  0  0
  9 10  1  0  0  0  0
 10 11  2  0  0  0  0
 10  5  1  0  0  0  0
 11 16  1  0  0  0  0
 12 17  1  0  0  0  0
 12 11  1  0  0  0  0
 13 12  2  0  0  0  0
 14 13  1  0  0  0  0
 15 13  1  0  0  0  0
 15  9  2  0  0  0  0
 18 20  1  0  0  0  0
 18 15  1  0  0  0  0
 19 18  1  0  0  0  0
 21 18  1  0  0  0  0
 22  3  1  6  0  0  0
 22 28  1  0  0  0  0
 23 22  1  0  0  0  0
 23 25  1  0  0  0  0
 24 23  1  0  0  0  0
 25 26  1  0  0  0  0
 25 27  1  0  0  0  0
 28 27  1  0  0  0  0
 29 28  1  0  0  0  0
 30 33  1  0  0  0  0
 31 30  1  0  0  0  0
 32 30  1  0  0  0  0
M  END
>  <minimizedAffinity>
-5.88566494

$$$$

 OpenBabel03272500203D

 33 35  0  0  1  0  0  0  0  0999 V2000
   35.0640   31.4900   35.7960 C   0  0  0  0  0  0  0  0  0  0  0  0
   33.7450   31.0310   36.0510 C   0  0  0  0  0  0  0  0  0  0  0  0
   33.2540   29.9340   35.3500 C   0  0  0  0  0  0  0  0  0  0  0  0
   34.1120   29.3660   34.4410 N   0  0  0  0  0  0  0  0  0  0  0  0
   35.3300   29.7940   34.2090 C   0  0  0  0  0  0  0  0  0  0  0  0
   35.8190   30.8460   34.8720 N   0  0  0  0  0  0  0  0  0  0  0  0
   35.4430   32.3530   36.3500 H   0  0  0  0  0  0  0  0  0  0  0  0
   35.5640   31.1840   31.5270 Cl  0  0  0  0  0  0  0  0  0  0  0  0
   36.3420   29.6580   31.9370 C   0  0  0  0  0  0  0  0  0  0  0  0
   36.1630   29.1070   33.2100 C   0  0  0  0  0  0  0  0  0  0  0  0
   36.7560   27.9070   33.5790 C   0  0  0  0  0  0  0  0  0  0  0  0
   37.5420   27.2760   32.6110 C   0  0  0  0  0  0  0  0  0  0  0  0
   37.7310   27.7950   31.3580 C   0  0  0  0  0  0  0  0  0  0  0  0
   38.7360   26.9170   30.2310 Cl  0  0  0  0  0  0  0  0  0  0  0  0
   37.1190   29.0010   31.0280 C   0  0  0  0  0  0  0  0  0  0  0  0
   36.6150   27.4870   34.5620 H   0  0  0  0  0  0  0  0  0  0  0  0
   37.9790   26.3450   32.9490 H   0  0  0  0  0  0  0  0  0  0  0  0
   37.3170   29.5750   29.6740 C   0  0  0  0  0  0  0  0  0  0  0  0
   36.5170   30.7050   29.4980 F   0  0  0  0  0  0  0  0  0  0  0  0
   37.1030   28.6750   28.6820 F   0  0  0  0  0  0  0  0  0  0  0  0
   38.6290   30.0340   29.5610 F   0  0  0  0  0  0  0  0  0  0  0  0
   31.9110   29.4190   35.5700 C   0  0  2  0  0  3  0  0  0  0  0  0
   31.8090   28.1470   36.3740 C   0  0  0  0  0  3  0  0  0  0  0  0
   32.6460   27.5090   36.0780 H   0  0  0  0  0  0  0  0  0  0  0  0
   30.4760   27.5970   35.8430 C   0  0  0  0  0  3  0  0  0  0  0  0
   29.6430   28.0920   36.4060 H   0  0  0  0  0  0  0  0  0  0  0  0
   30.3600   28.0300   34.5500 O   0  0  0  0  0  0  0  0  0  0  0  0
   31.4540   28.7910   34.2340 C   0  0  0  0  0  3  0  0  0  0  0  0
   32.2750   28.1040   33.9410 H   0  0  0  0  0  0  0  0  0  0  0  0
   32.9250   31.7470   37.0670 C   0  0  0  0  0  0  0  0  0  0  0  0
   31.7760   32.2890   36.5160 F   0  0  0  0  0  0  0  0  0  0  0  0
   32.6000   30.8800   38.0820 F   0  0  0  0  0  0  0  0  0  0  0  0
   33.6190   32.7950   37.6510 F   0  0  0  0  0  0  0  0  0  0  0  0
  1  2  1  0  0  0  0
  1  7  1  0  0  0  0
  2 30  1  0  0  0  0
  3  2  2  0  0  0  0
  4  3  1  0  0  0  0
  5  4  2  0  0  0  0
  5  6  1  0  0  0  0
  6  1  2  0  0  0  0
  8  9  1  0  0  0  0
  9 10  1  0  0  0  0
 10 11  2  0  0  0  0
 10  5  1  0  0  0  0
 11 16  1  0  0  0  0
 12 17  1  0  0  0  0
 12 11  1  0  0  0  0
 13 12  2  0  0  0  0
 14 13  1  0  0  0  0
 15 13  1  0  0  0  0
 15  9  2  0  0  0  0
 18 15  1  0  0  0  0
 19 18  1  0  0  0  0
 20 18  1  0  0  0  0
 21 18  1  0  0  0  0
 22  3  1  6  0  0  0
 22 23  1  0  0  0  0
 24 23  1  0  0  0  0
 25 23  1  0  0  0  0
 25 26  1  0  0  0  0
 27 25  1  0  0  0  0
 28 27  1  0  0  0  0
 28 22  1  0  0  0  0
 29 28  1  0  0  0  0
 30 33  1  0  0  0  0
 30 32  1  0  0  0  0
 31 30  1  0  0  0  0
M  END
>  <minimizedAffinity>
-5.87969971

$$$$

 OpenBabel03272500203D

 33 35  0  0  1  0  0  0  0  0999 V2000
   37.4250   28.7430   30.8340 C   0  0  0  0  0  0  0  0  0  0  0  0
   36.5830   29.6790   31.4920 C   0  0  0  0  0  0  0  0  0  0  0  0
   36.0310   29.3540   32.7270 C   0  0  0  0  0  0  0  0  0  0  0  0
   36.3550   28.1160   33.2250 N   0  0  0  0  0  0  0  0  0  0  0  0
   37.1330   27.2560   32.6140 C   0  0  0  0  0  0  0  0  0  0  0  0
   37.6720   27.5500   31.4280 N   0  0  0  0  0  0  0  0  0  0  0  0
   37.8550   29.0050   29.8640 H   0  0  0  0  0  0  0  0  0  0  0  0
   37.8190   27.3520   35.5630 Cl  0  0  0  0  0  0  0  0  0  0  0  0
   37.7400   25.8800   34.6000 C   0  0  0  0  0  0  0  0  0  0  0  0
   37.4120   25.9550   33.2420 C   0  0  0  0  0  0  0  0  0  0  0  0
   37.3380   24.8220   32.4430 C   0  0  0  0  0  0  0  0  0  0  0  0
   37.6080   23.6000   33.0650 C   0  0  0  0  0  0  0  0  0  0  0  0
   37.9320   23.5020   34.3930 C   0  0  0  0  0  0  0  0  0  0  0  0
   38.2480   21.9200   35.0610 Cl  0  0  0  0  0  0  0  0  0  0  0  0
   37.9950   24.6620   35.1590 C   0  0  0  0  0  0  0  0  0  0  0  0
   37.0850   24.8860   31.3970 H   0  0  0  0  0  0  0  0  0  0  0  0
   37.5370   22.7510   32.3980 H   0  0  0  0  0  0  0  0  0  0  0  0
   38.3440   24.5690   36.5980 C   0  0  0  0  0  0  0  0  0  0  0  0
   38.2780   25.8260   37.2020 F   0  0  0  0  0  0  0  0  0  0  0  0
   39.5540   23.9950   36.8120 F   0  0  0  0  0  0  0  0  0  0  0  0
   37.3830   23.7980   37.2510 F   0  0  0  0  0  0  0  0  0  0  0  0
   35.1620   30.2730   33.4460 C   0  0  2  0  0  3  0  0  0  0  0  0
   35.5690   30.6030   34.8610 C   0  0  0  0  0  3  0  0  0  0  0  0
   35.9600   29.6860   35.3080 H   0  0  0  0  0  0  0  0  0  0  0  0
   34.2010   30.9740   35.4560 C   0  0  0  0  0  3  0  0  0  0  0  0
   33.9870   32.0440   35.2030 H   0  0  0  0  0  0  0  0  0  0  0  0
   33.2670   30.2370   34.7820 O   0  0  0  0  0  0  0  0  0  0  0  0
   33.8980   29.4730   33.8350 C   0  0  0  0  0  3  0  0  0  0  0  0
   34.2760   28.5560   34.3340 H   0  0  0  0  0  0  0  0  0  0  0  0
   36.3170   30.9860   30.8300 C   0  0  0  0  0  0  0  0  0  0  0  0
   34.9610   31.2520   30.7370 F   0  0  0  0  0  0  0  0  0  0  0  0
   36.9480   31.9860   31.5290 F   0  0  0  0  0  0  0  0  0  0  0  0
   36.8210   31.0290   29.5400 F   0  0  0  0  0  0  0  0  0  0  0  0
  1  6  2  0  0  0  0
  1  2  1  0  0  0  0
  2  3  2  0  0  0  0
  3  4  1  0  0  0  0
  5  4  2  0  0  0  0
  5 10  1  0  0  0  0
  6  5  1  0  0  0  0
  7  1  1  0  0  0  0
  9 15  1  0  0  0  0
  9  8  1  0  0  0  0
 10  9  2  0  0  0  0
 11 12  2  0  0  0  0
 11 10  1  0  0  0  0
 12 13  1  0  0  0  0
 13 14  1  0  0  0  0
 13 15  2  0  0  0  0
 15 18  1  0  0  0  0
 16 11  1  0  0  0  0
 17 12  1  0  0  0  0
 18 20  1  0  0  0  0
 18 19  1  0  0  0  0
 18 21  1  0  0  0  0
 22  3  1  1  0  0  0
 22 28  1  0  0  0  0
 22 23  1  0  0  0  0
 23 24  1  0  0  0  0
 23 25  1  0  0  0  0
 26 25  1  0  0  0  0
 27 25  1  0  0  0  0
 28 29  1  0  0  0  0
 28 27  1  0  0  0  0
 30  2  1  0  0  0  0
 30 32  1  0  0  0  0
 31 30  1  0  0  0  0
 33 30  1  0  0  0  0
M  END
>  <minimizedAffinity>
-5.85127783

$$$$

 OpenBabel03272500203D

 33 35  0  0  1  0  0  0  0  0999 V2000
   37.4260   28.2180   31.5350 C   0  0  0  0  0  0  0  0  0  0  0  0
   36.5100   29.2210   31.9480 C   0  0  0  0  0  0  0  0  0  0  0  0
   36.0130   29.2030   33.2470 C   0  0  0  0  0  0  0  0  0  0  0  0
   36.4640   28.1850   34.0500 N   0  0  0  0  0  0  0  0  0  0  0  0
   37.3100   27.2610   33.6650 C   0  0  0  0  0  0  0  0  0  0  0  0
   37.7990   27.2610   32.4220 N   0  0  0  0  0  0  0  0  0  0  0  0
   37.8130   28.2380   30.5130 H   0  0  0  0  0  0  0  0  0  0  0  0
   37.2520   24.4280   32.5920 Cl  0  0  0  0  0  0  0  0  0  0  0  0
   37.7370   24.8710   34.2260 C   0  0  0  0  0  0  0  0  0  0  0  0
   37.7250   26.2150   34.6130 C   0  0  0  0  0  0  0  0  0  0  0  0
   38.1000   26.6120   35.8900 C   0  0  0  0  0  0  0  0  0  0  0  0
   38.4890   25.6000   36.7700 C   0  0  0  0  0  0  0  0  0  0  0  0
   38.5080   24.2770   36.4140 C   0  0  0  0  0  0  0  0  0  0  0  0
   39.0140   23.0990   37.6000 Cl  0  0  0  0  0  0  0  0  0  0  0  0
   38.1260   23.9200   35.1240 C   0  0  0  0  0  0  0  0  0  0  0  0
   38.0890   27.6500   36.1830 H   0  0  0  0  0  0  0  0  0  0  0  0
   38.7700   25.9630   37.7500 H   0  0  0  0  0  0  0  0  0  0  0  0
   38.1420   22.4910   34.7250 C   0  0  0  0  0  0  0  0  0  0  0  0
   37.2830   21.7450   35.5330 F   0  0  0  0  0  0  0  0  0  0  0  0
   39.3900   21.9570   34.7260 F   0  0  0  0  0  0  0  0  0  0  0  0
   37.6280   22.3730   33.4350 F   0  0  0  0  0  0  0  0  0  0  0  0
   35.0720   30.2040   33.7250 C   0  0  2  0  0  3  0  0  0  0  0  0
   35.5210   31.0290   34.9050 C   0  0  0  0  0  3  0  0  0  0  0  0
   36.0670   30.3630   35.5770 H   0  0  0  0  0  0  0  0  0  0  0  0
   34.1570   31.4200   35.4960 C   0  0  0  0  0  3  0  0  0  0  0  0
   33.7760   32.3150   34.9380 H   0  0  0  0  0  0  0  0  0  0  0  0
   33.2940   30.4010   35.2000 O   0  0  0  0  0  0  0  0  0  0  0  0
   33.9630   29.4430   34.4850 C   0  0  0  0  0  3  0  0  0  0  0  0
   34.5000   28.7920   35.2060 H   0  0  0  0  0  0  0  0  0  0  0  0
   36.1070   30.2650   30.9660 C   0  0  0  0  0  0  0  0  0  0  0  0
   36.6270   31.5070   31.2880 F   0  0  0  0  0  0  0  0  0  0  0  0
   36.5200   29.8910   29.7100 F   0  0  0  0  0  0  0  0  0  0  0  0
   34.7300   30.4150   30.9000 F   0  0  0  0  0  0  0  0  0  0  0  0
  1  2  2  0  0  0  0
  1  6  1  0  0  0  0
  2  3  1  0  0  0  0
  3  4  2  0  0  0  0
  5  4  1  0  0  0  0
  5 10  1  0  0  0  0
  6  5  2  0  0  0  0
  7  1  1  0  0  0  0
  8  9  1  0  0  0  0
  9 10  2  0  0  0  0
  9 15  1  0  0  0  0
 10 11  1  0  0  0  0
 11 16  1  0  0  0  0
 11 12  2  0  0  0  0
 12 17  1  0  0  0  0
 13 12  1  0  0  0  0
 13 14  1  0  0  0  0
 15 13  2  0  0  0  0
 18 20  1  0  0  0  0
 18 15  1  0  0  0  0
 18 19  1  0  0  0  0
 21 18  1  0  0  0  0
 22  3  1  1  0  0  0
 22 28  1  0  0  0  0
 22 23  1  0  0  0  0
 23 25  1  0  0  0  0
 23 24  1  0  0  0  0
 26 25  1  0  0  0  0
 27 25  1  0  0  0  0
 28 27  1  0  0  0  0
 28 29  1  0  0  0  0
 30 31  1  0  0  0  0
 30  2  1  0  0  0  0
 32 30  1  0  0  0  0
 33 30  1  0  0  0  0
M  END
>  <minimizedAffinity>
-5.84433985

$$$$

 OpenBabel03272500203D

 33 35  0  0  1  0  0  0  0  0999 V2000
   36.1090   29.0580   31.7120 C   0  0  0  0  0  0  0  0  0  0  0  0
   36.8290   27.9240   32.1730 C   0  0  0  0  0  0  0  0  0  0  0  0
   36.9920   27.7240   33.5400 C   0  0  0  0  0  0  0  0  0  0  0  0
   36.4230   28.6690   34.3580 N   0  0  0  0  0  0  0  0  0  0  0  0
   35.7590   29.7140   33.9280 C   0  0  0  0  0  0  0  0  0  0  0  0
   35.5930   29.9230   32.6190 N   0  0  0  0  0  0  0  0  0  0  0  0
   35.9860   29.2090   30.6370 H   0  0  0  0  0  0  0  0  0  0  0  0
   32.8180   29.3390   34.5560 Cl  0  0  0  0  0  0  0  0  0  0  0  0
   33.8440   30.5840   35.2630 C   0  0  0  0  0  0  0  0  0  0  0  0
   35.1910   30.6630   34.8980 C   0  0  0  0  0  0  0  0  0  0  0  0
   36.0380   31.6270   35.4290 C   0  0  0  0  0  0  0  0  0  0  0  0
   35.4740   32.5160   36.3480 C   0  0  0  0  0  0  0  0  0  0  0  0
   34.1570   32.4580   36.7200 C   0  0  0  0  0  0  0  0  0  0  0  0
   33.5630   33.6230   37.8780 Cl  0  0  0  0  0  0  0  0  0  0  0  0
   33.3420   31.4760   36.1650 C   0  0  0  0  0  0  0  0  0  0  0  0
   37.0770   31.6840   35.1440 H   0  0  0  0  0  0  0  0  0  0  0  0
   36.1760   33.2460   36.7300 H   0  0  0  0  0  0  0  0  0  0  0  0
   31.9140   31.4020   36.5600 C   0  0  0  0  0  0  0  0  0  0  0  0
   31.5230   32.5710   37.2150 F   0  0  0  0  0  0  0  0  0  0  0  0
   31.6300   30.3100   37.3130 F   0  0  0  0  0  0  0  0  0  0  0  0
   31.1260   31.3460   35.4110 F   0  0  0  0  0  0  0  0  0  0  0  0
   37.7190   26.5810   34.0690 C   0  0  2  0  0  3  0  0  0  0  0  0
   37.2760   26.0780   35.4200 C   0  0  0  0  0  3  0  0  0  0  0  0
   37.0280   26.9520   36.0260 H   0  0  0  0  0  0  0  0  0  0  0  0
   38.5780   25.4180   35.9030 C   0  0  0  0  0  3  0  0  0  0  0  0
   38.6310   24.3860   35.4680 H   0  0  0  0  0  0  0  0  0  0  0  0
   39.6070   26.1160   35.3330 O   0  0  0  0  0  0  0  0  0  0  0  0
   39.0900   27.1120   34.5470 C   0  0  0  0  0  3  0  0  0  0  0  0
   38.8540   27.9760   35.2020 H   0  0  0  0  0  0  0  0  0  0  0  0
   37.3940   26.9810   31.1670 C   0  0  0  0  0  0  0  0  0  0  0  0
   36.8580   25.7110   31.2910 F   0  0  0  0  0  0  0  0  0  0  0  0
   37.1620   27.4720   29.9050 F   0  0  0  0  0  0  0  0  0  0  0  0
   38.7680   26.8480   31.2920 F   0  0  0  0  0  0  0  0  0  0  0  0
  1  2  2  0  0  0  0
  1  6  1  0  0  0  0
  2  3  1  0  0  0  0
  3  4  2  0  0  0  0
  5  4  1  0  0  0  0
  5 10  1  0  0  0  0
  6  5  2  0  0  0  0
  7  1  1  0  0  0  0
  8  9  1  0  0  0  0
  9 15  1  0  0  0  0
 10  9  2  0  0  0  0
 10 11  1  0  0  0  0
 11 12  2  0  0  0  0
 12 13  1  0  0  0  0
 12 17  1  0  0  0  0
 13 14  1  0  0  0  0
 15 18  1  0  0  0  0
 15 13  2  0  0  0  0
 16 11  1  0  0  0  0
 18 19  1  0  0  0  0
 18 20  1  0  0  0  0
 21 18  1  0  0  0  0
 22  3  1  1  0  0  0
 22 28  1  0  0  0  0
 22 23  1  0  0  0  0
 23 25  1  0  0  0  0
 23 24  1  0  0  0  0
 26 25  1  0  0  0  0
 27 25  1  0  0  0  0
 28 29  1  0  0  0  0
 28 27  1  0  0  0  0
 30 31  1  0  0  0  0
 30 33  1  0  0  0  0
 30  2  1  0  0  0  0
 32 30  1  0  0  0  0
M  END
>  <minimizedAffinity>
-5.80311251

$$$$
