
 OpenBabel03272506183D

 33 35  0  0  1  0  0  0  0  0999 V2000
   35.5190   30.2910   49.7110 C   0  0  0  0  0  0  0  0  0  0  0  0
   36.4540   31.1600   48.8990 C   0  0  0  0  0  0  0  0  0  0  0  0
   37.8970   30.8060   49.0970 C   0  0  0  0  0  0  0  0  0  0  0  0
   38.3120   30.8120   50.5430 C   0  0  0  0  0  0  0  0  0  0  0  0
   37.3120   30.1660   51.4500 C   0  0  0  0  0  0  0  0  0  0  0  0
   36.2160   29.4330   50.7050 C   0  0  0  0  0  0  0  0  0  0  0  0
   34.7850   30.9340   50.2190 H   0  0  0  0  0  0  0  0  0  0  0  0
   36.2430   31.1550   47.8180 H   0  0  0  0  0  0  0  0  0  0  0  0
   36.3380   32.2120   49.2260 H   0  0  0  0  0  0  0  0  0  0  0  0
   38.5140   31.5520   48.5820 H   0  0  0  0  0  0  0  0  0  0  0  0
   38.1040   29.8260   48.6020 H   0  0  0  0  0  0  0  0  0  0  0  0
   38.5710   31.8420   50.8750 H   0  0  0  0  0  0  0  0  0  0  0  0
   39.2850   30.2420   50.5770 H   0  0  0  0  0  0  0  0  0  0  0  0
   36.8910   30.9410   52.1130 H   0  0  0  0  0  0  0  0  0  0  0  0
   37.8220   29.3740   52.0580 H   0  0  0  0  0  0  0  0  0  0  0  0
   35.4550   29.1800   51.4960 H   0  0  0  0  0  0  0  0  0  0  0  0
   36.5580   28.4680   50.3200 H   0  0  0  0  0  0  0  0  0  0  0  0
   34.7470   29.3960   48.7950 C   0  0  0  0  0  0  0  0  0  0  0  0
   34.1680   30.0020   47.6690 C   0  0  0  0  0  0  0  0  0  0  0  0
   33.4370   29.1800   46.8100 C   0  0  0  0  0  0  0  0  0  0  0  0
   33.3170   27.8470   47.0960 N   0  0  0  0  0  0  0  0  0  0  0  0
   33.8980   27.2920   48.2070 C   0  0  0  0  0  0  0  0  0  0  0  0
   34.6010   28.0700   49.0350 N   0  0  0  0  0  0  0  0  0  0  0  0
   34.2210   31.0230   47.3930 H   0  0  0  0  0  0  0  0  0  0  0  0
   33.7570   26.2320   48.3600 H   0  0  0  0  0  0  0  0  0  0  0  0
   32.7690   29.6830   45.5820 C   0  0  2  0  0  3  0  0  0  0  0  0
   32.2340   31.0720   45.7760 C   0  0  0  0  0  3  0  0  0  0  0  0
   32.9250   31.8450   45.4100 H   0  0  0  0  0  0  0  0  0  0  0  0
   31.0260   31.0610   44.8790 C   0  0  0  0  0  3  0  0  0  0  0  0
   30.2100   31.6400   45.3810 H   0  0  0  0  0  0  0  0  0  0  0  0
   30.5740   29.7630   44.7560 O   0  0  0  0  0  0  0  0  0  0  0  0
   31.5060   28.9130   45.2830 C   0  0  0  0  0  3  0  0  0  0  0  0
   31.0790   28.4380   46.1960 H   0  0  0  0  0  0  0  0  0  0  0  0
  1  7  1  0  0  0  0
  1  6  1  0  0  0  0
  2  3  1  0  0  0  0
  2  9  1  0  0  0  0
  2  1  1  0  0  0  0
  3  4  1  0  0  0  0
  4 13  1  0  0  0  0
  4 12  1  0  0  0  0
  4  5  1  0  0  0  0
  5 15  1  0  0  0  0
  5 14  1  0  0  0  0
  6  5  1  0  0  0  0
  6 16  1  0  0  0  0
  8  2  1  0  0  0  0
 10  3  1  0  0  0  0
 11  3  1  0  0  0  0
 17  6  1  0  0  0  0
 18 23  1  0  0  0  0
 18  1  1  0  0  0  0
 19 18  2  0  0  0  0
 20 21  2  0  0  0  0
 20 19  1  0  0  0  0
 21 22  1  0  0  0  0
 22 25  1  0  0  0  0
 22 23  2  0  0  0  0
 24 19  1  0  0  0  0
 26 27  1  0  0  0  0
 26 20  1  1  0  0  0
 28 27  1  0  0  0  0
 29 30  1  0  0  0  0
 29 27  1  0  0  0  0
 31 29  1  0  0  0  0
 31 32  1  0  0  0  0
 32 26  1  0  0  0  0
 32 33  1  0  0  0  0
M  END
>  <minimizedAffinity>
-5.20906973

>  <minimizedRMSD>
0.137879744

$$$$
