
 OpenBabel03272508283D

 37 40  0  0  1  0  0  0  0  0999 V2000
   33.8740   28.9170   47.2530 C   0  0  2  0  0  0  0  0  0  0  0  0
   34.5870   28.1540   48.3590 C   0  0  2  0  0  0  0  0  0  0  0  0
   33.6660   28.0100   49.3590 O   0  0  0  0  0  0  0  0  0  0  0  0
   32.4040   28.0850   48.8630 C   0  0  0  0  0  0  0  0  0  0  0  0
   32.4880   28.2690   47.3640 C   0  0  1  0  0  0  0  0  0  0  0  0
   33.7200   29.9700   47.5030 H   0  0  0  0  0  0  0  0  0  0  0  0
   34.8740   27.1810   47.8920 H   0  0  0  0  0  0  0  0  0  0  0  0
   31.8080   27.1980   49.1450 H   0  0  0  0  0  0  0  0  0  0  0  0
   31.9190   29.0010   49.2990 H   0  0  0  0  0  0  0  0  0  0  0  0
   32.5430   27.2740   46.8780 H   0  0  0  0  0  0  0  0  0  0  0  0
   35.6640   30.3990   49.0540 C   0  0  1  0  0  0  0  0  0  0  0  0
   35.7510   28.9820   48.7940 C   0  0  1  0  0  0  0  0  0  0  0  0
   35.9190   29.4250   50.2120 C   0  0  0  0  0  0  0  0  0  0  0  0
   34.7650   30.9980   49.2660 H   0  0  0  0  0  0  0  0  0  0  0  0
   36.7160   28.6250   48.3300 H   0  0  0  0  0  0  0  0  0  0  0  0
   35.0800   29.1620   50.8800 H   0  0  0  0  0  0  0  0  0  0  0  0
   36.9060   29.4150   50.6960 H   0  0  0  0  0  0  0  0  0  0  0  0
   36.8530   31.3160   48.8210 C   0  0  0  0  0  0  0  0  0  0  0  0
   37.0570   32.3520   49.7330 C   0  0  0  0  0  0  0  0  0  0  0  0
   38.1430   33.1730   49.4580 C   0  0  0  0  0  0  0  0  0  0  0  0
   38.9370   32.9510   48.3590 N   0  0  0  0  0  0  0  0  0  0  0  0
   38.6990   31.9310   47.5050 C   0  0  0  0  0  0  0  0  0  0  0  0
   37.6480   31.1070   47.7390 N   0  0  0  0  0  0  0  0  0  0  0  0
   36.4050   32.4790   50.5730 H   0  0  0  0  0  0  0  0  0  0  0  0
   38.3340   33.9900   50.1430 H   0  0  0  0  0  0  0  0  0  0  0  0
   39.3560   31.8060   46.6600 H   0  0  0  0  0  0  0  0  0  0  0  0
   34.4250   28.7210   46.0000 O   0  0  0  0  0  0  0  0  0  0  0  0
   34.4030   27.7470   45.8120 H   0  0  0  0  0  0  0  0  0  0  0  0
   31.5130   29.0700   46.8350 O   0  0  0  0  0  0  0  0  0  0  0  0
   30.4820   28.3920   46.2180 C   0  0  2  0  0  3  0  0  0  0  0  0
   30.9660   27.1690   45.4590 C   0  0  0  0  0  3  0  0  0  0  0  0
   30.9330   26.2480   46.0380 H   0  0  0  0  0  0  0  0  0  0  0  0
   29.8930   27.0860   44.3850 C   0  0  0  0  0  3  0  0  0  0  0  0
   29.0250   26.4850   44.7620 H   0  0  0  0  0  0  0  0  0  0  0  0
   29.5270   28.3810   44.0780 O   0  0  0  0  0  0  0  0  0  0  0  0
   29.9740   29.2320   45.0740 C   0  0  0  0  0  3  0  0  0  0  0  0
   29.2340   30.0000   45.3750 H   0  0  0  0  0  0  0  0  0  0  0  0
  1  5  1  0  0  0  0
  1  6  1  1  0  0  0
  1  2  1  0  0  0  0
  2  7  1  6  0  0  0
  2 12  1  0  0  0  0
  2  3  1  0  0  0  0
  4  8  1  0  0  0  0
  4  9  1  0  0  0  0
  4  3  1  0  0  0  0
  5 10  1  6  0  0  0
  5  4  1  0  0  0  0
 11 14  1  6  0  0  0
 11 13  1  0  0  0  0
 12 15  1  6  0  0  0
 12 11  1  0  0  0  0
 12 13  1  0  0  0  0
 13 17  1  0  0  0  0
 13 16  1  0  0  0  0
 18 11  1  0  0  0  0
 18 19  1  0  0  0  0
 19 24  1  0  0  0  0
 20 19  2  0  0  0  0
 20 25  1  0  0  0  0
 21 20  1  0  0  0  0
 22 23  1  0  0  0  0
 22 21  2  0  0  0  0
 23 18  2  0  0  0  0
 26 22  1  0  0  0  0
 27  1  1  0  0  0  0
 28 27  1  0  0  0  0
 29  5  1  0  0  0  0
 30 29  1  6  0  0  0
 31 32  1  0  0  0  0
 31 30  1  0  0  0  0
 33 34  1  0  0  0  0
 33 31  1  0  0  0  0
 35 33  1  0  0  0  0
 35 36  1  0  0  0  0
 36 37  1  0  0  0  0
 36 30  1  0  0  0  0
M  END
>  <minimizedAffinity>
-4.72679234

>  <minimizedRMSD>
0.533733368

$$$$
