REMARK  Name = 
REMARK  2 active torsions:
REMARK  status: ('A' for Active; 'I' for Inactive)
REMARK    1  A    between atoms: C_2  and  C_8
REMARK    2  A    between atoms: C_3  and  C_15
REMARK                            x       y       z     vdW  Elec       q    Type
REMARK                         _______ _______ _______ _____ _____    ______ ____
ROOT
ATOM      1  C   UNL     1      35.617  29.020  50.174  0.00  0.00    +0.000 A 
ATOM      2  C   UNL     1      36.280  30.151  49.656  0.00  0.00    +0.000 A 
ATOM      3  C   UNL     1      36.039  30.509  48.343  0.00  0.00    +0.000 A 
ATOM      4  N   UNL     1      35.171  29.756  47.596  0.00  0.00    +0.000 NA
ATOM      5  C   UNL     1      34.551  28.668  48.138  0.00  0.00    +0.000 A 
ATOM      6  N   UNL     1      34.769  28.296  49.423  0.00  0.00    +0.000 NA
ATOM      7  N   UNL     1      33.686  28.007  47.222  0.00  0.00    +0.000 N 
ATOM      8  H   UNL     1      35.760  28.685  51.193  0.00  0.00    +0.000 HD
ATOM      9  H   UNL     1      32.809  28.519  46.969  0.00  0.00    +0.000 HD
ATOM     10  H   UNL     1      34.020  27.058  46.887  0.00  0.00    +0.000 HD
ENDROOT
BRANCH   3  11
ATOM     11  C   UNL     1      36.682  31.681  47.716  0.00  0.00    +0.000 C 
ATOM     12  C   UNL     1      38.104  31.862  48.170  0.00  0.00    +0.000 C 
ATOM     13  H   UNL     1      38.224  31.215  49.077  0.00  0.00    +0.000 HD
ATOM     14  C   UNL     1      38.156  33.299  48.580  0.00  0.00    +0.000 C 
ATOM     15  H   UNL     1      38.989  33.824  48.050  0.00  0.00    +0.000 HD
ATOM     16  O   UNL     1      36.954  33.880  48.193  0.00  0.00    +0.000 OA
ATOM     17  C   UNL     1      35.996  32.903  48.228  0.00  0.00    +0.000 C 
ATOM     18  H   UNL     1      35.117  33.201  47.623  0.00  0.00    +0.000 HD
ENDBRANCH   3  11
BRANCH   2  19
ATOM     19  C   UNL     1      37.212  30.907  50.530  0.00  0.00    +0.000 C 
ATOM     20  F   UNL     1      38.537  30.789  50.101  0.00  0.00    +0.000 F 
ATOM     21  F   UNL     1      36.865  32.225  50.520  0.00  0.00    +0.000 F 
ATOM     22  F   UNL     1      37.186  30.468  51.842  0.00  0.00    +0.000 F 
ENDBRANCH   2  19
TORSDOF 2
