
 OpenBabel03272508283D

 37 40  0  0  1  0  0  0  0  0999 V2000
   33.9780   29.0550   47.3380 C   0  0  2  0  0  0  0  0  0  0  0  0
   34.7470   28.2640   48.3850 C   0  0  2  0  0  0  0  0  0  0  0  0
   33.8650   28.0540   49.4080 O   0  0  0  0  0  0  0  0  0  0  0  0
   32.5840   28.1180   48.9590 C   0  0  0  0  0  0  0  0  0  0  0  0
   32.6130   28.3670   47.4670 C   0  0  1  0  0  0  0  0  0  0  0  0
   33.8060   30.0920   47.6370 H   0  0  0  0  0  0  0  0  0  0  0  0
   35.0410   27.3200   47.8660 H   0  0  0  0  0  0  0  0  0  0  0  0
   32.0210   27.2050   49.2220 H   0  0  0  0  0  0  0  0  0  0  0  0
   32.0930   29.0020   49.4500 H   0  0  0  0  0  0  0  0  0  0  0  0
   32.6750   27.3960   46.9370 H   0  0  0  0  0  0  0  0  0  0  0  0
   35.8110   30.5240   49.0510 C   0  0  1  0  0  0  0  0  0  0  0  0
   35.9050   29.1030   48.8160 C   0  0  1  0  0  0  0  0  0  0  0  0
   36.0600   29.5700   50.2270 C   0  0  0  0  0  0  0  0  0  0  0  0
   34.9090   31.1230   49.2470 H   0  0  0  0  0  0  0  0  0  0  0  0
   36.8750   28.7410   48.3660 H   0  0  0  0  0  0  0  0  0  0  0  0
   35.2160   29.3150   50.8930 H   0  0  0  0  0  0  0  0  0  0  0  0
   37.0420   29.5710   50.7200 H   0  0  0  0  0  0  0  0  0  0  0  0
   37.0000   31.4400   48.8140 C   0  0  0  0  0  0  0  0  0  0  0  0
   37.1840   32.5010   49.7010 C   0  0  0  0  0  0  0  0  0  0  0  0
   38.2700   33.3200   49.4220 C   0  0  0  0  0  0  0  0  0  0  0  0
   39.0830   33.0730   48.3420 N   0  0  0  0  0  0  0  0  0  0  0  0
   38.8630   32.0300   47.5110 C   0  0  0  0  0  0  0  0  0  0  0  0
   37.8120   31.2070   47.7500 N   0  0  0  0  0  0  0  0  0  0  0  0
   36.5180   32.6470   50.5270 H   0  0  0  0  0  0  0  0  0  0  0  0
   38.4460   34.1550   50.0880 H   0  0  0  0  0  0  0  0  0  0  0  0
   39.5340   31.8860   46.6810 H   0  0  0  0  0  0  0  0  0  0  0  0
   34.4890   28.9260   46.0600 O   0  0  0  0  0  0  0  0  0  0  0  0
   34.4840   27.9610   45.8300 H   0  0  0  0  0  0  0  0  0  0  0  0
   31.6010   29.1650   47.0060 O   0  0  0  0  0  0  0  0  0  0  0  0
   30.8510   28.6130   45.9880 C   0  0  2  0  0  3  0  0  0  0  0  0
   31.0520   29.3310   44.6650 C   0  0  0  0  0  3  0  0  0  0  0  0
   31.8250   28.8900   44.0380 H   0  0  0  0  0  0  0  0  0  0  0  0
   29.7070   29.0590   44.0110 C   0  0  0  0  0  3  0  0  0  0  0  0
   29.7410   28.0800   43.4640 H   0  0  0  0  0  0  0  0  0  0  0  0
   28.7620   29.0520   45.0170 O   0  0  0  0  0  0  0  0  0  0  0  0
   29.3970   28.9270   46.2410 C   0  0  0  0  0  3  0  0  0  0  0  0
   28.9000   28.2200   46.9350 H   0  0  0  0  0  0  0  0  0  0  0  0
  1  5  1  0  0  0  0
  1  6  1  1  0  0  0
  1  2  1  0  0  0  0
  2  7  1  6  0  0  0
  2 12  1  0  0  0  0
  2  3  1  0  0  0  0
  4  8  1  0  0  0  0
  4  3  1  0  0  0  0
  4  9  1  0  0  0  0
  5 10  1  6  0  0  0
  5  4  1  0  0  0  0
 11 14  1  6  0  0  0
 11 13  1  0  0  0  0
 12 15  1  6  0  0  0
 12 11  1  0  0  0  0
 12 13  1  0  0  0  0
 13 17  1  0  0  0  0
 13 16  1  0  0  0  0
 18 11  1  0  0  0  0
 18 19  1  0  0  0  0
 19 24  1  0  0  0  0
 20 19  2  0  0  0  0
 20 25  1  0  0  0  0
 21 20  1  0  0  0  0
 22 23  1  0  0  0  0
 22 21  2  0  0  0  0
 23 18  2  0  0  0  0
 26 22  1  0  0  0  0
 27  1  1  0  0  0  0
 28 27  1  0  0  0  0
 29  5  1  0  0  0  0
 30 36  1  0  0  0  0
 30 29  1  1  0  0  0
 31 30  1  0  0  0  0
 32 31  1  0  0  0  0
 33 31  1  0  0  0  0
 33 35  1  0  0  0  0
 34 33  1  0  0  0  0
 35 36  1  0  0  0  0
 36 37  1  0  0  0  0
M  END
>  <minimizedAffinity>
-4.75076914

>  <minimizedRMSD>
0.0445541292

$$$$
