
 OpenBabel03272510043D

 36 38  0  0  1  0  0  0  0  0999 V2000
   36.8780   30.8280   44.7640 C   0  0  0  0  0  0  0  0  0  0  0  0
   36.3720   30.5140   45.9850 C   0  0  0  0  0  0  0  0  0  0  0  0
   35.1150   29.9230   46.0820 C   0  0  0  0  0  0  0  0  0  0  0  0
   34.3390   29.6340   44.9840 C   0  0  0  0  0  0  0  0  0  0  0  0
   34.8140   29.9400   43.7320 C   0  0  0  0  0  0  0  0  0  0  0  0
   36.0560   30.5200   43.6680 C   0  0  0  0  0  0  0  0  0  0  0  0
   34.7400   29.6820   47.0920 H   0  0  0  0  0  0  0  0  0  0  0  0
   33.3900   29.1780   45.1770 H   0  0  0  0  0  0  0  0  0  0  0  0
   34.1750   29.6970   42.9220 H   0  0  0  0  0  0  0  0  0  0  0  0
   36.3130   30.7150   42.6170 H   0  0  0  0  0  0  0  0  0  0  0  0
   38.7020   32.1390   48.3160 C   0  0  0  0  0  0  0  0  0  0  0  0
   37.9780   31.8320   47.1750 C   0  0  0  0  0  0  0  0  0  0  0  0
   37.0870   30.8070   47.1810 C   0  0  0  0  0  0  0  0  0  0  0  0
   36.9430   30.1160   48.3460 N   0  0  0  0  0  0  0  0  0  0  0  0
   37.6350   30.4090   49.4520 C   0  0  0  0  0  0  0  0  0  0  0  0
   38.5110   31.4160   49.4290 N   0  0  0  0  0  0  0  0  0  0  0  0
   39.4380   32.9020   48.4830 H   0  0  0  0  0  0  0  0  0  0  0  0
   38.2870   32.5640   46.4690 H   0  0  0  0  0  0  0  0  0  0  0  0
   37.3260   29.6130   50.6710 C   0  0  0  0  0  0  0  0  0  0  0  0
   37.4560   30.3640   51.8230 F   0  0  0  0  0  0  0  0  0  0  0  0
   35.9140   29.2970   50.6690 F   0  0  0  0  0  0  0  0  0  0  0  0
   37.9070   28.4400   50.7850 F   0  0  0  0  0  0  0  0  0  0  0  0
   38.4140   31.5170   44.4960 S   0  0  0  0  0  0  0  0  0  0  0  0
   38.4200   32.9710   44.8740 O   0  0  0  0  0  0  0  0  0  0  0  0
   38.3230   31.7370   43.0110 O   0  0  0  0  0  0  0  0  0  0  0  0
   39.8790   30.7250   44.2170 C   0  0  0  0  0  0  0  0  0  0  0  0
   40.7510   31.3590   43.9850 H   0  0  0  0  0  0  0  0  0  0  0  0
   40.2040   30.3550   45.2550 H   0  0  0  0  0  0  0  0  0  0  0  0
   39.8170   29.4670   43.4310 C   0  0  1  0  0  3  0  0  0  0  0  0
   38.8210   28.4420   43.8170 C   0  0  0  0  0  3  0  0  0  0  0  0
   37.8700   28.8600   44.1820 H   0  0  0  0  0  0  0  0  0  0  0  0
   38.5660   27.7440   42.4680 C   0  0  0  0  0  3  0  0  0  0  0  0
   37.5120   27.4120   42.3780 H   0  0  0  0  0  0  0  0  0  0  0  0
   38.8690   28.6210   41.4710 O   0  0  0  0  0  0  0  0  0  0  0  0
   39.3280   29.7880   42.0020 C   0  0  0  0  0  3  0  0  0  0  0  0
   38.4920   30.5130   42.1740 H   0  0  0  0  0  0  0  0  0  0  0  0
  1  2  1  0  0  0  0
  2  3  2  0  0  0  0
  2 13  1  0  0  0  0
  3  7  1  0  0  0  0
  4  8  1  0  0  0  0
  4  3  1  0  0  0  0
  5  4  2  0  0  0  0
  6  5  1  0  0  0  0
  6  1  2  0  0  0  0
  9  5  1  0  0  0  0
 10  6  1  0  0  0  0
 11 17  1  0  0  0  0
 11 16  1  0  0  0  0
 12 13  1  0  0  0  0
 12 11  2  0  0  0  0
 13 14  2  0  0  0  0
 14 15  1  0  0  0  0
 15 19  1  0  0  0  0
 16 15  2  0  0  0  0
 18 12  1  0  0  0  0
 19 22  1  0  0  0  0
 19 20  1  0  0  0  0
 21 19  1  0  0  0  0
 23  1  1  0  0  0  0
 23 24  2  0  0  0  0
 25 23  2  0  0  0  0
 26 23  1  0  0  0  0
 26 28  1  0  0  0  0
 27 26  1  0  0  0  0
 29 30  1  0  0  0  0
 29 26  1  1  0  0  0
 30 31  1  0  0  0  0
 32 30  1  0  0  0  0
 33 32  1  0  0  0  0
 34 35  1  0  0  0  0
 34 32  1  0  0  0  0
 35 36  1  0  0  0  0
 35 29  1  0  0  0  0
M  END
>  <minimizedAffinity>
-5.48036766

>  <minimizedRMSD>
1.68813002

$$$$
