REMARK  Name = 
REMARK  5 active torsions:
REMARK  status: ('A' for Active; 'I' for Inactive)
REMARK    1  A    between atoms: S_1  and  C_6
REMARK    2  A    between atoms: S_1  and  C_9
REMARK    3  A    between atoms: C_8  and  O_13
REMARK    4  A    between atoms: C_12  and  O_14
REMARK    5  A    between atoms: O_14  and  C_24
REMARK                            x       y       z     vdW  Elec       q    Type
REMARK                         _______ _______ _______ _____ _____    ______ ____
ROOT
ATOM      1  C   UNL     1      32.389  28.354  47.478  0.00  0.00    +0.000 C 
ATOM      2  C   UNL     1      33.629  28.412  48.347  0.00  0.00    +0.000 C 
ATOM      3  O   UNL     1      34.190  27.156  48.350  0.00  0.00    +0.000 OA
ATOM      4  C   UNL     1      33.542  26.371  47.425  0.00  0.00    +0.000 C 
ATOM      5  C   UNL     1      32.856  27.328  46.455  0.00  0.00    +0.000 C 
ATOM      6  H   UNL     1      31.516  27.934  47.984  0.00  0.00    +0.000 HD
ATOM      7  H   UNL     1      33.403  28.737  49.376  0.00  0.00    +0.000 HD
ATOM      8  H   UNL     1      34.184  25.643  46.928  0.00  0.00    +0.000 HD
ATOM      9  H   UNL     1      32.692  25.886  47.987  0.00  0.00    +0.000 HD
ATOM     10  H   UNL     1      33.566  27.789  45.739  0.00  0.00    +0.000 HD
ENDROOT
BRANCH   1  11
ATOM     11  O   UNL     1      32.143  29.599  46.882  0.00  0.00    +0.000 OA
ATOM     12  H   UNL     1      32.721  29.686  46.081  0.00  0.00    +0.000 HD
ENDBRANCH   1  11
BRANCH   2  13
ATOM     13  S   UNL     1      34.798  29.532  47.514  0.00  0.00    +0.000 S 
BRANCH  13  18
ATOM     14  C   UNL     1      37.379  29.480  50.522  0.00  0.00    +0.000 A 
ATOM     15  C   UNL     1      37.976  30.733  50.516  0.00  0.00    +0.000 A 
ATOM     16  C   UNL     1      37.569  31.643  49.540  0.00  0.00    +0.000 A 
ATOM     17  N   UNL     1      36.620  31.261  48.657  0.00  0.00    +0.000 NA
ATOM     18  C   UNL     1      36.051  30.025  48.687  0.00  0.00    +0.000 A 
ATOM     19  N   UNL     1      36.427  29.119  49.624  0.00  0.00    +0.000 NA
ATOM     20  H   UNL     1      37.706  28.786  51.286  0.00  0.00    +0.000 HD
ATOM     21  H   UNL     1      38.723  31.070  51.191  0.00  0.00    +0.000 HD
ATOM     22  H   UNL     1      38.015  32.629  49.508  0.00  0.00    +0.000 HD
ENDBRANCH  13  18
ENDBRANCH   2  13
BRANCH   5  23
ATOM     23  O   UNL     1      31.789  26.698  45.831  0.00  0.00    +0.000 OA
BRANCH  23  24
ATOM     24  C   UNL     1      31.831  26.773  44.462  0.00  0.00    +0.000 C 
ATOM     25  C   UNL     1      31.383  28.154  44.020  0.00  0.00    +0.000 C 
ATOM     26  H   UNL     1      30.301  28.184  43.795  0.00  0.00    +0.000 HD
ATOM     27  C   UNL     1      32.198  28.291  42.729  0.00  0.00    +0.000 C 
ATOM     28  H   UNL     1      32.277  29.337  42.425  0.00  0.00    +0.000 HD
ATOM     29  O   UNL     1      33.449  27.875  43.192  0.00  0.00    +0.000 OA
ATOM     30  C   UNL     1      33.197  26.678  43.854  0.00  0.00    +0.000 C 
ATOM     31  H   UNL     1      33.993  26.544  44.614  0.00  0.00    +0.000 HD
ENDBRANCH  23  24
ENDBRANCH   5  23
TORSDOF 5
