
 OpenBabel03272510043D

 36 38  0  0  1  0  0  0  0  0999 V2000
   35.8510   30.4570   44.2730 C   0  0  0  0  0  0  0  0  0  0  0  0
   35.8510   30.2820   45.6200 C   0  0  0  0  0  0  0  0  0  0  0  0
   34.8130   29.5810   46.2260 C   0  0  0  0  0  0  0  0  0  0  0  0
   33.7620   29.0440   45.5200 C   0  0  0  0  0  0  0  0  0  0  0  0
   33.7240   29.2020   44.1570 C   0  0  0  0  0  0  0  0  0  0  0  0
   34.7610   29.8960   43.5870 C   0  0  0  0  0  0  0  0  0  0  0  0
   34.8490   29.4590   47.3230 H   0  0  0  0  0  0  0  0  0  0  0  0
   33.0200   28.5230   46.0900 H   0  0  0  0  0  0  0  0  0  0  0  0
   32.8920   28.7700   43.6620 H   0  0  0  0  0  0  0  0  0  0  0  0
   34.6080   29.9540   42.5000 H   0  0  0  0  0  0  0  0  0  0  0  0
   38.7920   32.2340   46.6410 C   0  0  0  0  0  0  0  0  0  0  0  0
   37.7700   31.6890   45.8800 C   0  0  0  0  0  0  0  0  0  0  0  0
   36.8790   30.8320   46.4390 C   0  0  0  0  0  0  0  0  0  0  0  0
   37.0350   30.5470   47.7610 N   0  0  0  0  0  0  0  0  0  0  0  0
   38.0160   31.0710   48.5040 C   0  0  0  0  0  0  0  0  0  0  0  0
   38.8890   31.9090   47.9390 N   0  0  0  0  0  0  0  0  0  0  0  0
   39.5740   32.9160   46.3630 H   0  0  0  0  0  0  0  0  0  0  0  0
   37.9000   32.1310   44.9210 H   0  0  0  0  0  0  0  0  0  0  0  0
   38.0260   30.7240   49.9510 C   0  0  0  0  0  0  0  0  0  0  0  0
   38.9950   31.4260   50.6430 F   0  0  0  0  0  0  0  0  0  0  0  0
   36.8040   31.2160   50.5500 F   0  0  0  0  0  0  0  0  0  0  0  0
   38.0330   29.4470   50.2620 F   0  0  0  0  0  0  0  0  0  0  0  0
   37.0750   31.2580   43.3970 S   0  0  0  0  0  0  0  0  0  0  0  0
   36.8920   32.7480   43.4670 O   0  0  0  0  0  0  0  0  0  0  0  0
   36.5220   31.0930   42.0080 O   0  0  0  0  0  0  0  0  0  0  0  0
   38.5290   30.6250   42.8170 C   0  0  0  0  0  0  0  0  0  0  0  0
   38.7850   30.8480   41.7670 H   0  0  0  0  0  0  0  0  0  0  0  0
   39.3390   31.2560   43.3310 H   0  0  0  0  0  0  0  0  0  0  0  0
   38.8740   29.2470   43.2470 C   0  0  1  0  0  3  0  0  0  0  0  0
   37.9490   28.1450   42.8960 C   0  0  0  0  0  3  0  0  0  0  0  0
   37.4660   28.2650   41.9140 H   0  0  0  0  0  0  0  0  0  0  0  0
   38.9140   26.9470   42.8270 C   0  0  0  0  0  3  0  0  0  0  0  0
   38.6070   26.2250   42.0450 H   0  0  0  0  0  0  0  0  0  0  0  0
   40.1640   27.4230   42.5620 O   0  0  0  0  0  0  0  0  0  0  0  0
   40.1380   28.7830   42.4900 C   0  0  0  0  0  3  0  0  0  0  0  0
   39.9520   29.1310   41.4430 H   0  0  0  0  0  0  0  0  0  0  0  0
  1  2  1  0  0  0  0
  2  3  2  0  0  0  0
  2 13  1  0  0  0  0
  3  7  1  0  0  0  0
  4  8  1  0  0  0  0
  4  3  1  0  0  0  0
  5  4  2  0  0  0  0
  6  5  1  0  0  0  0
  6  1  2  0  0  0  0
  9  5  1  0  0  0  0
 10  6  1  0  0  0  0
 11 16  1  0  0  0  0
 12 13  1  0  0  0  0
 12 11  2  0  0  0  0
 13 14  2  0  0  0  0
 14 15  1  0  0  0  0
 15 19  1  0  0  0  0
 16 15  2  0  0  0  0
 17 11  1  0  0  0  0
 18 12  1  0  0  0  0
 19 22  1  0  0  0  0
 19 21  1  0  0  0  0
 19 20  1  0  0  0  0
 23 24  2  0  0  0  0
 23  1  1  0  0  0  0
 25 23  2  0  0  0  0
 26 28  1  0  0  0  0
 26 23  1  0  0  0  0
 27 26  1  0  0  0  0
 29 26  1  6  0  0  0
 30 29  1  0  0  0  0
 31 30  1  0  0  0  0
 32 30  1  0  0  0  0
 33 32  1  0  0  0  0
 34 32  1  0  0  0  0
 35 34  1  0  0  0  0
 35 29  1  0  0  0  0
 36 35  1  0  0  0  0
M  END
>  <minimizedAffinity>
-5.43351316

>  <minimizedRMSD>
2.720999

$$$$
