
 OpenBabel03272505413D

 44 47  0  0  1  0  0  0  0  0999 V2000
   35.7470   30.2270   46.5200 C   0  0  0  0  0  0  0  0  0  0  0  0
   34.4130   29.8290   46.5950 C   0  0  0  0  0  0  0  0  0  0  0  0
   33.7480   29.4680   45.4370 C   0  0  0  0  0  0  0  0  0  0  0  0
   34.3320   29.4740   44.1870 C   0  0  0  0  0  0  0  0  0  0  0  0
   35.6620   29.8700   44.1100 C   0  0  0  0  0  0  0  0  0  0  0  0
   36.3090   30.2290   45.2830 C   0  0  0  0  0  0  0  0  0  0  0  0
   33.8740   29.7930   47.5360 H   0  0  0  0  0  0  0  0  0  0  0  0
   32.7110   29.1620   45.5240 H   0  0  0  0  0  0  0  0  0  0  0  0
   33.7600   29.1800   43.3120 H   0  0  0  0  0  0  0  0  0  0  0  0
   36.0680   29.8600   43.1220 H   0  0  0  0  0  0  0  0  0  0  0  0
   37.6560   30.6030   45.0080 N   0  0  0  0  0  0  0  0  0  0  0  0
   38.9570   30.0070   45.0440 C   0  0  0  0  0  0  0  0  0  0  0  0
   39.8330   30.8790   45.9130 C   0  0  0  0  0  0  0  0  0  0  0  0
   40.0700   32.1130   45.2010 N   0  0  0  0  0  0  0  0  0  0  0  0
   39.0720   32.4290   44.2380 C   0  0  0  0  0  0  0  0  0  0  0  0
   37.6940   31.9600   44.5650 C   0  0  0  0  0  0  0  0  0  0  0  0
   38.9110   28.9650   45.3960 H   0  0  0  0  0  0  0  0  0  0  0  0
   39.4030   30.0560   44.0260 H   0  0  0  0  0  0  0  0  0  0  0  0
   39.7590   30.8580   46.9520 H   0  0  0  0  0  0  0  0  0  0  0  0
   40.8320   30.3340   45.7560 H   0  0  0  0  0  0  0  0  0  0  0  0
   40.9990   32.2500   44.8050 H   0  0  0  0  0  0  0  0  0  0  0  0
   39.0080   33.5590   44.2230 H   0  0  0  0  0  0  0  0  0  0  0  0
   39.4110   32.1740   43.2130 H   0  0  0  0  0  0  0  0  0  0  0  0
   37.0720   32.6840   45.0810 H   0  0  0  0  0  0  0  0  0  0  0  0
   37.2020   31.9010   43.5410 H   0  0  0  0  0  0  0  0  0  0  0  0
   37.1410   30.1610   49.8870 C   0  0  0  0  0  0  0  0  0  0  0  0
   37.8140   31.3910   49.9620 C   0  0  0  0  0  0  0  0  0  0  0  0
   37.7830   32.2310   48.8480 C   0  0  0  0  0  0  0  0  0  0  0  0
   37.0900   31.7710   47.7730 N   0  0  0  0  0  0  0  0  0  0  0  0
   36.4590   30.6110   47.7110 C   0  0  0  0  0  0  0  0  0  0  0  0
   36.4830   29.7940   48.7820 N   0  0  0  0  0  0  0  0  0  0  0  0
   38.3550   31.7240   50.8330 H   0  0  0  0  0  0  0  0  0  0  0  0
   38.4800   33.5190   48.9070 C   0  0  2  0  0  3  0  0  0  0  0  0
   39.4750   33.7150   47.7870 C   0  0  0  0  0  3  0  0  0  0  0  0
   39.0360   34.1220   46.8580 H   0  0  0  0  0  0  0  0  0  0  0  0
   40.3600   34.7850   48.4050 C   0  0  0  0  0  3  0  0  0  0  0  0
   41.4340   34.5780   48.2250 H   0  0  0  0  0  0  0  0  0  0  0  0
   40.0980   34.8290   49.7480 O   0  0  0  0  0  0  0  0  0  0  0  0
   39.4280   33.6540   50.0930 C   0  0  0  0  0  3  0  0  0  0  0  0
   40.2170   32.8630   50.0700 H   0  0  0  0  0  0  0  0  0  0  0  0
   37.1900   29.2870   51.1150 C   0  0  0  0  0  0  0  0  0  0  0  0
   35.8650   28.9610   51.4610 F   0  0  0  0  0  0  0  0  0  0  0  0
   37.9270   28.2050   50.8400 F   0  0  0  0  0  0  0  0  0  0  0  0
   37.6740   30.0340   52.1590 F   0  0  0  0  0  0  0  0  0  0  0  0
  1  2  1  0  0  0  0
  1 30  1  0  0  0  0
  2  7  1  0  0  0  0
  3  8  1  0  0  0  0
  3  2  2  0  0  0  0
  4  3  1  0  0  0  0
  5  4  2  0  0  0  0
  5  6  1  0  0  0  0
  6  1  2  0  0  0  0
  9  4  1  0  0  0  0
 10  5  1  0  0  0  0
 11 12  1  0  0  0  0
 11  6  1  0  0  0  0
 12 17  1  0  0  0  0
 12 13  1  0  0  0  0
 13 19  1  0  0  0  0
 14 13  1  0  0  0  0
 15 16  1  0  0  0  0
 15 14  1  0  0  0  0
 16 11  1  0  0  0  0
 16 24  1  0  0  0  0
 18 12  1  0  0  0  0
 20 13  1  0  0  0  0
 21 14  1  0  0  0  0
 22 15  1  0  0  0  0
 23 15  1  0  0  0  0
 25 16  1  0  0  0  0
 26 27  1  0  0  0  0
 26 41  1  0  0  0  0
 27 32  1  0  0  0  0
 28 27  2  0  0  0  0
 29 28  1  0  0  0  0
 30 29  2  0  0  0  0
 30 31  1  0  0  0  0
 31 26  2  0  0  0  0
 33 28  1  6  0  0  0
 33 39  1  0  0  0  0
 34 36  1  0  0  0  0
 34 33  1  0  0  0  0
 35 34  1  0  0  0  0
 36 38  1  0  0  0  0
 37 36  1  0  0  0  0
 38 39  1  0  0  0  0
 40 39  1  0  0  0  0
 41 42  1  0  0  0  0
 41 44  1  0  0  0  0
 43 41  1  0  0  0  0
M  END
>  <minimizedAffinity>
-5.80879116

>  <minimizedRMSD>
0.558259249

$$$$
