
 OpenBabel03272506523D

 33 35  0  0  1  0  0  0  0  0999 V2000
   34.5170   30.3550   48.9950 C   0  0  1  0  0  0  0  0  0  0  0  0
   33.9140   30.3710   47.6660 C   0  0  0  0  0  0  0  0  0  0  0  0
   33.8910   29.0700   46.9110 C   0  0  0  0  0  0  0  0  0  0  0  0
   33.6270   27.8670   47.7350 C   0  0  2  0  0  0  0  0  0  0  0  0
   34.2380   27.8300   49.0960 C   0  0  0  0  0  0  0  0  0  0  0  0
   34.1150   29.1460   49.7950 C   0  0  0  0  0  0  0  0  0  0  0  0
   34.0710   31.2160   49.5900 H   0  0  0  0  0  0  0  0  0  0  0  0
   32.8050   30.5750   47.8320 H   0  0  0  0  0  0  0  0  0  0  0  0
   34.2060   31.1560   46.9780 H   0  0  0  0  0  0  0  0  0  0  0  0
   34.8990   28.9700   46.4450 H   0  0  0  0  0  0  0  0  0  0  0  0
   33.1600   29.1170   46.0950 H   0  0  0  0  0  0  0  0  0  0  0  0
   32.5260   27.7800   47.8790 H   0  0  0  0  0  0  0  0  0  0  0  0
   33.6800   27.0860   49.6870 H   0  0  0  0  0  0  0  0  0  0  0  0
   35.2870   27.4600   49.0230 H   0  0  0  0  0  0  0  0  0  0  0  0
   32.9850   29.2740   49.8750 H   0  0  0  0  0  0  0  0  0  0  0  0
   34.4180   29.1310   50.8330 H   0  0  0  0  0  0  0  0  0  0  0  0
   36.7340   30.9170   47.9120 C   0  0  0  0  0  0  0  0  0  0  0  0
   35.9680   30.6470   49.0700 C   0  0  0  0  0  0  0  0  0  0  0  0
   36.6240   30.6740   50.2860 C   0  0  0  0  0  0  0  0  0  0  0  0
   37.9690   30.9560   50.3120 N   0  0  0  0  0  0  0  0  0  0  0  0
   38.6600   31.2070   49.1810 C   0  0  0  0  0  0  0  0  0  0  0  0
   38.0360   31.1880   47.9700 N   0  0  0  0  0  0  0  0  0  0  0  0
   36.2970   30.9170   46.9250 H   0  0  0  0  0  0  0  0  0  0  0  0
   36.1480   30.4860   51.2370 H   0  0  0  0  0  0  0  0  0  0  0  0
   39.7200   31.4310   49.1920 H   0  0  0  0  0  0  0  0  0  0  0  0
   34.0860   26.6170   47.0330 C   0  0  1  0  0  0  0  0  0  0  0  0
   33.1450   25.5080   47.4780 C   0  0  0  0  0  0  0  0  0  0  0  0
   33.4390   25.0430   48.4260 H   0  0  0  0  0  0  0  0  0  0  0  0
   33.2240   24.5830   46.2890 C   0  0  0  0  0  0  0  0  0  0  0  0
   32.2270   24.2470   45.9310 H   0  0  0  0  0  0  0  0  0  0  0  0
   33.8590   25.2480   45.2760 O   0  0  0  0  0  0  0  0  0  0  0  0
   33.8720   26.6070   45.5580 C   0  0  0  0  0  0  0  0  0  0  0  0
   34.7320   27.0210   44.9790 H   0  0  0  0  0  0  0  0  0  0  0  0
  1 18  1  0  0  0  0
  1  7  1  1  0  0  0
  1  6  1  0  0  0  0
  2  8  1  0  0  0  0
  2  1  1  0  0  0  0
  3  2  1  0  0  0  0
  3  4  1  0  0  0  0
  4 12  1  1  0  0  0
  4  5  1  0  0  0  0
  5 13  1  0  0  0  0
  5  6  1  0  0  0  0
  6 15  1  0  0  0  0
  6 16  1  0  0  0  0
  9  2  1  0  0  0  0
 10  3  1  0  0  0  0
 11  3  1  0  0  0  0
 14  5  1  0  0  0  0
 17 22  2  0  0  0  0
 17 18  1  0  0  0  0
 18 19  2  0  0  0  0
 19 20  1  0  0  0  0
 19 24  1  0  0  0  0
 21 25  1  0  0  0  0
 21 20  2  0  0  0  0
 22 21  1  0  0  0  0
 23 17  1  0  0  0  0
 26 32  1  6  0  0  0
 26 27  1  0  0  0  0
 26  4  1  0  0  0  0
 27 28  1  0  0  0  0
 29 27  1  0  0  0  0
 30 29  1  0  0  0  0
 31 32  1  0  0  0  0
 31 29  1  0  0  0  0
 33 32  1  0  0  0  0
M  END
>  <minimizedAffinity>
-4.36924648

>  <minimizedRMSD>
1.02296245

$$$$
