
     RDKit          3D

 40 42  0  0  0  0  0  0  0  0999 V2000
   35.3517   29.8353   46.7686 O   0  0  0  0  0  0  0  0  0  0  0  0
   34.0980   29.9935   47.6160 P   0  0  2  0  0  0  0  0  0  0  0  0
   33.0970   31.0320   46.7315 O   0  0  0  0  0  0  0  0  0  0  0  0
   34.4011   30.6559   49.1549 O   0  0  0  0  0  0  0  0  0  0  0  0
   35.6338   30.5054   49.7878 C   0  0  0  0  0  0  0  0  0  0  0  0
   35.9651   29.4899   50.7068 C   0  0  0  0  0  0  0  0  0  0  0  0
   37.2455   29.4899   51.2443 C   0  0  0  0  0  0  0  0  0  0  0  0
   38.1218   30.4719   50.8581 N   0  0  0  0  0  0  0  0  0  0  0  0
   37.7701   31.4375   49.9689 C   0  0  0  0  0  0  0  0  0  0  0  0
   36.5232   31.4557   49.4315 N   0  0  0  0  0  0  0  0  0  0  0  0
   33.3376   28.5085   47.8432 O   0  0  0  0  0  0  0  0  0  0  0  0
   33.0874   27.3400   45.8720 C   0  0  1  0  0  0  0  0  0  0  0  0
   33.9196   27.4783   47.1679 C   0  0  2  0  0  0  0  0  0  0  0  0
   33.8344   26.2421   47.7235 O   0  0  0  0  0  0  0  0  0  0  0  0
   34.0496   25.3683   46.6794 C   0  0  0  0  0  0  0  0  0  0  0  0
   33.4626   25.9524   45.4362 C   0  0  2  0  0  0  0  0  0  0  0  0
   31.7448   27.5229   46.1440 O   0  0  0  0  0  0  0  0  0  0  0  0
   34.3999   25.9996   44.4243 O   0  0  0  0  0  0  0  0  0  0  0  0
   32.9006   30.7041   45.8400 H   0  0  0  0  0  0  0  0  0  0  0  0
   35.1771   28.7820   50.9195 H   0  0  0  0  0  0  0  0  0  0  0  0
   37.4824   28.7143   51.9393 H   0  0  0  0  0  0  0  0  0  0  0  0
   38.4908   32.1937   49.6908 H   0  0  0  0  0  0  0  0  0  0  0  0
   33.4690   28.1241   45.1977 H   0  0  0  0  0  0  0  0  0  0  0  0
   34.9514   27.8026   46.8499 H   0  0  0  0  0  0  0  0  0  0  0  0
   33.7085   24.3380   46.9037 H   0  0  0  0  0  0  0  0  0  0  0  0
   35.1665   25.2824   46.5439 H   0  0  0  0  0  0  0  0  0  0  0  0
   32.5299   25.4323   45.1804 H   0  0  0  0  0  0  0  0  0  0  0  0
   31.4519   28.4396   45.9845 H   0  0  0  0  0  0  0  0  0  0  0  0
   34.0422   25.4003   43.2596 C   0  0  2  0  0  0  0  0  0  0  0  0
   34.2967   26.1548   41.9971 C   0  0  2  0  0  0  0  0  0  0  0  0
   35.3686   26.1801   41.7098 H   0  0  0  0  0  0  0  0  0  0  0  0
   33.4476   25.3401   41.0394 C   0  0  2  0  0  0  0  0  0  0  0  0
   34.0138   24.4116   40.8223 H   0  0  0  0  0  0  0  0  0  0  0  0
   32.3019   25.0832   41.7520 O   0  0  0  0  0  0  0  0  0  0  0  0
   32.5920   25.0468   43.1018 C   0  0  2  0  0  0  0  0  0  0  0  0
   31.9054   25.7491   43.6067 H   0  0  0  0  0  0  0  0  0  0  0  0
   34.6023   24.4440   43.2059 H   0  0  0  0  0  0  0  0  0  0  0  0
   33.8591   27.1662   41.9860 H   0  0  0  0  0  0  0  0  0  0  0  0
   33.2099   25.9102   40.1173 H   0  0  0  0  0  0  0  0  0  0  0  0
   32.3472   24.0324   43.4797 H   0  0  0  0  0  0  0  0  0  0  0  0
  2  1  2  0
  2 11  1  1
  2  4  1  0
  3  2  1  0
  4  5  1  0
  5  6  2  0
  6  7  1  0
  8  7  2  0
  9  8  1  0
 10  5  1  0
 10  9  2  0
 12 17  1  0
 12 13  1  0
 13 14  1  0
 13 11  1  0
 15 14  1  0
 16 18  1  0
 16 12  1  0
 16 15  1  0
  3 19  1  0
  6 20  1  0
  7 21  1  0
  9 22  1  0
 12 23  1  6
 13 24  1  6
 15 25  1  0
 15 26  1  0
 16 27  1  6
 17 28  1  0
 29 30  1  0
 30 31  1  6
 30 32  1  0
 32 33  1  6
 32 34  1  0
 34 35  1  0
 35 36  1  1
 35 29  1  0
 29 37  1  6
 30 38  1  0
 32 39  1  0
 35 40  1  0
 18 29  1  0
M  ISO  8  19   3  20  14  21  14  22  14  23  13  24  13  25  13  26  13
M  ISO  5  27  13  28   3  31  15  33  15  36  15
M  END
>  <DihAtoms>  (1) 
15,17,28,29

>  <DihDeg>  (1) 
-121.19527830559655

$$$$
