
 OpenBabel03272500193D

 33 35  0  0  1  0  0  0  0  0999 V2000
   35.4750   29.2150   50.3640 C   0  0  0  0  0  0  0  0  0  0  0  0
   36.3160   30.1280   49.6730 C   0  0  0  0  0  0  0  0  0  0  0  0
   36.2480   30.2080   48.2860 C   0  0  0  0  0  0  0  0  0  0  0  0
   35.3440   29.3720   47.6790 N   0  0  0  0  0  0  0  0  0  0  0  0
   34.5700   28.5310   48.3210 C   0  0  0  0  0  0  0  0  0  0  0  0
   34.6210   28.4400   49.6520 N   0  0  0  0  0  0  0  0  0  0  0  0
   35.5340   29.1580   51.4540 H   0  0  0  0  0  0  0  0  0  0  0  0
   32.6340   30.0030   46.5130 Cl  0  0  0  0  0  0  0  0  0  0  0  0
   32.6990   28.2530   46.6990 C   0  0  0  0  0  0  0  0  0  0  0  0
   33.6360   27.6810   47.5650 C   0  0  0  0  0  0  0  0  0  0  0  0
   33.7250   26.3070   47.7440 C   0  0  0  0  0  0  0  0  0  0  0  0
   32.8270   25.5230   47.0140 C   0  0  0  0  0  0  0  0  0  0  0  0
   31.8990   26.0610   46.1610 C   0  0  0  0  0  0  0  0  0  0  0  0
   30.8290   24.9810   45.3010 Cl  0  0  0  0  0  0  0  0  0  0  0  0
   31.8440   27.4430   46.0100 C   0  0  0  0  0  0  0  0  0  0  0  0
   34.4500   25.8710   48.4120 H   0  0  0  0  0  0  0  0  0  0  0  0
   32.9370   24.4610   47.1910 H   0  0  0  0  0  0  0  0  0  0  0  0
   30.8450   28.0380   45.0890 C   0  0  0  0  0  0  0  0  0  0  0  0
   29.9350   27.0720   44.6590 F   0  0  0  0  0  0  0  0  0  0  0  0
   31.4120   28.6700   44.0310 F   0  0  0  0  0  0  0  0  0  0  0  0
   30.0830   28.9740   45.7870 F   0  0  0  0  0  0  0  0  0  0  0  0
   37.0850   31.1240   47.5260 C   0  0  2  0  0  3  0  0  0  0  0  0
   36.7580   31.2610   46.0610 C   0  0  0  0  0  3  0  0  0  0  0  0
   36.4850   30.2680   45.6950 H   0  0  0  0  0  0  0  0  0  0  0  0
   38.1290   31.6960   45.5170 C   0  0  0  0  0  3  0  0  0  0  0  0
   38.2290   32.8020   45.6610 H   0  0  0  0  0  0  0  0  0  0  0  0
   39.0710   31.1270   46.3310 O   0  0  0  0  0  0  0  0  0  0  0  0
   38.4400   30.4130   47.3150 C   0  0  0  0  0  3  0  0  0  0  0  0
   38.1820   29.4160   46.8980 H   0  0  0  0  0  0  0  0  0  0  0  0
   37.2520   30.9740   50.4650 C   0  0  0  0  0  0  0  0  0  0  0  0
   38.5710   30.7710   50.0960 F   0  0  0  0  0  0  0  0  0  0  0  0
   36.9140   32.2960   50.3070 F   0  0  0  0  0  0  0  0  0  0  0  0
   37.1730   30.7070   51.8230 F   0  0  0  0  0  0  0  0  0  0  0  0
  1  7  1  0  0  0  0
  2  1  1  0  0  0  0
  2 30  1  0  0  0  0
  3  2  2  0  0  0  0
  4  3  1  0  0  0  0
  4  5  2  0  0  0  0
  5  6  1  0  0  0  0
  6  1  2  0  0  0  0
  8  9  1  0  0  0  0
  9 10  1  0  0  0  0
 10 11  2  0  0  0  0
 10  5  1  0  0  0  0
 11 16  1  0  0  0  0
 12 17  1  0  0  0  0
 12 11  1  0  0  0  0
 13 12  2  0  0  0  0
 14 13  1  0  0  0  0
 15 13  1  0  0  0  0
 15  9  2  0  0  0  0
 18 21  1  0  0  0  0
 18 15  1  0  0  0  0
 19 18  1  0  0  0  0
 20 18  1  0  0  0  0
 22  3  1  1  0  0  0
 23 22  1  0  0  0  0
 24 23  1  0  0  0  0
 25 26  1  0  0  0  0
 25 23  1  0  0  0  0
 25 27  1  0  0  0  0
 27 28  1  0  0  0  0
 28 22  1  0  0  0  0
 29 28  1  0  0  0  0
 30 33  1  0  0  0  0
 31 30  1  0  0  0  0
 32 30  1  0  0  0  0
M  END
>  <minimizedAffinity>
-5.56754351

>  <minimizedRMSD>
0.303116351

$$$$
