REMARK  Name = 
REMARK  8 active torsions:
REMARK  status: ('A' for Active; 'I' for Inactive)
REMARK    1  A    between atoms: P_2  and  O_3
REMARK    2  A    between atoms: P_2  and  O_4
REMARK    3  A    between atoms: P_2  and  O_11
REMARK    4  A    between atoms: O_4  and  C_5
REMARK    5  A    between atoms: O_11  and  C_13
REMARK    6  A    between atoms: C_12  and  O_17
REMARK    7  A    between atoms: C_16  and  O_18
REMARK    8  A    between atoms: O_18  and  C_29
REMARK                            x       y       z     vdW  Elec       q    Type
REMARK                         _______ _______ _______ _____ _____    ______ ____
ROOT
ATOM      1  C   UNL     1      33.087  27.340  45.872  0.00  0.00    +0.000 C 
ATOM      2  C   UNL     1      33.920  27.478  47.168  0.00  0.00    +0.000 C 
ATOM      3  O   UNL     1      33.834  26.242  47.724  0.00  0.00    +0.000 OA
ATOM      4  C   UNL     1      34.050  25.368  46.679  0.00  0.00    +0.000 C 
ATOM      5  C   UNL     1      33.463  25.952  45.436  0.00  0.00    +0.000 C 
ATOM      6  H   UNL     1      33.469  28.124  45.198  0.00  0.00    +0.000 HD
ATOM      7  H   UNL     1      34.951  27.803  46.850  0.00  0.00    +0.000 HD
ATOM      8  H   UNL     1      33.709  24.338  46.904  0.00  0.00    +0.000 HD
ATOM      9  H   UNL     1      35.166  25.282  46.544  0.00  0.00    +0.000 HD
ATOM     10  H   UNL     1      32.530  25.432  45.180  0.00  0.00    +0.000 HD
ENDROOT
BRANCH   1  11
ATOM     11  O   UNL     1      31.745  27.523  46.144  0.00  0.00    +0.000 OA
ATOM     12  H   UNL     1      31.452  28.440  45.984  0.00  0.00    +0.000 HD
ENDBRANCH   1  11
BRANCH   2  13
ATOM     13  O   UNL     1      33.338  28.509  47.843  0.00  0.00    +0.000 OA
BRANCH  13  15
ATOM     14  O   UNL     1      35.352  29.835  46.769  0.00  0.00    +0.000 OA
ATOM     15  P   UNL     1      34.098  29.994  47.616  0.00  0.00    +0.000 P 
BRANCH  15  16
ATOM     16  O   UNL     1      33.097  31.032  46.731  0.00  0.00    +0.000 OA
ATOM     17  H   UNL     1      32.901  30.704  45.840  0.00  0.00    +0.000 HD
ENDBRANCH  15  16
BRANCH  15  18
ATOM     18  O   UNL     1      34.401  30.656  49.155  0.00  0.00    +0.000 OA
BRANCH  18  19
ATOM     19  C   UNL     1      35.634  30.505  49.788  0.00  0.00    +0.000 A 
ATOM     20  C   UNL     1      35.965  29.490  50.707  0.00  0.00    +0.000 A 
ATOM     21  C   UNL     1      37.245  29.490  51.244  0.00  0.00    +0.000 A 
ATOM     22  N   UNL     1      38.122  30.472  50.858  0.00  0.00    +0.000 NA
ATOM     23  C   UNL     1      37.770  31.438  49.969  0.00  0.00    +0.000 A 
ATOM     24  N   UNL     1      36.523  31.456  49.431  0.00  0.00    +0.000 NA
ATOM     25  H   UNL     1      35.177  28.782  50.919  0.00  0.00    +0.000 HD
ATOM     26  H   UNL     1      37.482  28.714  51.939  0.00  0.00    +0.000 HD
ATOM     27  H   UNL     1      38.491  32.194  49.691  0.00  0.00    +0.000 HD
ENDBRANCH  18  19
ENDBRANCH  15  18
ENDBRANCH  13  15
ENDBRANCH   2  13
BRANCH   5  28
ATOM     28  O   UNL     1      34.400  26.000  44.424  0.00  0.00    +0.000 OA
BRANCH  28  29
ATOM     29  C   UNL     1      34.042  25.400  43.260  0.00  0.00    +0.000 C 
ATOM     30  C   UNL     1      34.297  26.155  41.997  0.00  0.00    +0.000 C 
ATOM     31  H   UNL     1      35.369  26.180  41.710  0.00  0.00    +0.000 HD
ATOM     32  C   UNL     1      33.448  25.340  41.039  0.00  0.00    +0.000 C 
ATOM     33  H   UNL     1      34.014  24.412  40.822  0.00  0.00    +0.000 HD
ATOM     34  O   UNL     1      32.302  25.083  41.752  0.00  0.00    +0.000 OA
ATOM     35  C   UNL     1      32.592  25.047  43.102  0.00  0.00    +0.000 C 
ATOM     36  H   UNL     1      31.905  25.749  43.607  0.00  0.00    +0.000 HD
ENDBRANCH  28  29
ENDBRANCH   5  28
TORSDOF 8
