
 OpenBabel03272500193D

 33 35  0  0  1  0  0  0  0  0999 V2000
   35.3010   29.2730   50.6210 C   0  0  0  0  0  0  0  0  0  0  0  0
   36.4490   29.9380   50.1140 C   0  0  0  0  0  0  0  0  0  0  0  0
   36.6800   29.9590   48.7430 C   0  0  0  0  0  0  0  0  0  0  0  0
   35.7490   29.3150   47.9650 N   0  0  0  0  0  0  0  0  0  0  0  0
   34.6900   28.7030   48.4370 C   0  0  0  0  0  0  0  0  0  0  0  0
   34.4520   28.6720   49.7510 N   0  0  0  0  0  0  0  0  0  0  0  0
   35.1260   29.2600   51.6990 H   0  0  0  0  0  0  0  0  0  0  0  0
   33.0920   30.5620   46.6560 Cl  0  0  0  0  0  0  0  0  0  0  0  0
   32.9690   28.8040   46.6390 C   0  0  0  0  0  0  0  0  0  0  0  0
   33.7580   28.0450   47.5090 C   0  0  0  0  0  0  0  0  0  0  0  0
   33.6950   26.6580   47.5310 C   0  0  0  0  0  0  0  0  0  0  0  0
   32.8010   26.0590   46.6400 C   0  0  0  0  0  0  0  0  0  0  0  0
   32.0180   26.7820   45.7790 C   0  0  0  0  0  0  0  0  0  0  0  0
   30.9380   25.9230   44.7090 Cl  0  0  0  0  0  0  0  0  0  0  0  0
   32.1110   28.1710   45.7880 C   0  0  0  0  0  0  0  0  0  0  0  0
   34.3060   26.0770   48.2040 H   0  0  0  0  0  0  0  0  0  0  0  0
   32.7910   24.9780   46.6990 H   0  0  0  0  0  0  0  0  0  0  0  0
   31.2690   28.9660   44.8610 C   0  0  0  0  0  0  0  0  0  0  0  0
   30.3010   28.1590   44.2620 F   0  0  0  0  0  0  0  0  0  0  0  0
   31.9940   29.6260   43.9230 F   0  0  0  0  0  0  0  0  0  0  0  0
   30.5550   29.9130   45.5940 F   0  0  0  0  0  0  0  0  0  0  0  0
   37.8390   30.6240   48.1680 C   0  0  2  0  0  3  0  0  0  0  0  0
   37.7530   32.1250   48.0500 C   0  0  0  0  0  3  0  0  0  0  0  0
   36.7270   32.3700   47.7620 H   0  0  0  0  0  0  0  0  0  0  0  0
   38.7280   32.3630   46.8850 C   0  0  0  0  0  3  0  0  0  0  0  0
   39.7680   32.3940   47.3000 H   0  0  0  0  0  0  0  0  0  0  0  0
   38.6740   31.2460   46.0970 O   0  0  0  0  0  0  0  0  0  0  0  0
   37.7970   30.3500   46.6470 C   0  0  0  0  0  3  0  0  0  0  0  0
   36.7730   30.6370   46.3290 H   0  0  0  0  0  0  0  0  0  0  0  0
   37.3760   30.5930   51.0790 C   0  0  0  0  0  0  0  0  0  0  0  0
   38.7020   30.4130   50.7250 F   0  0  0  0  0  0  0  0  0  0  0  0
   37.0830   31.9330   51.1510 F   0  0  0  0  0  0  0  0  0  0  0  0
   37.2330   30.0890   52.3620 F   0  0  0  0  0  0  0  0  0  0  0  0
  1  7  1  0  0  0  0
  2  1  1  0  0  0  0
  2 30  1  0  0  0  0
  3  2  2  0  0  0  0
  4  5  2  0  0  0  0
  4  3  1  0  0  0  0
  5  6  1  0  0  0  0
  6  1  2  0  0  0  0
  9  8  1  0  0  0  0
  9 10  1  0  0  0  0
 10 11  2  0  0  0  0
 10  5  1  0  0  0  0
 11 16  1  0  0  0  0
 12 17  1  0  0  0  0
 12 11  1  0  0  0  0
 13 15  1  0  0  0  0
 13 12  2  0  0  0  0
 14 13  1  0  0  0  0
 15  9  2  0  0  0  0
 18 21  1  0  0  0  0
 18 15  1  0  0  0  0
 19 18  1  0  0  0  0
 20 18  1  0  0  0  0
 22  3  1  1  0  0  0
 23 22  1  0  0  0  0
 24 23  1  0  0  0  0
 25 26  1  0  0  0  0
 25 23  1  0  0  0  0
 27 28  1  0  0  0  0
 27 25  1  0  0  0  0
 28 22  1  0  0  0  0
 29 28  1  0  0  0  0
 30 32  1  0  0  0  0
 30 33  1  0  0  0  0
 31 30  1  0  0  0  0
M  END
>  <minimizedAffinity>
-5.76956511

>  <minimizedRMSD>
0.743883848

$$$$
