
 OpenBabel03272507553D

 22 23  0  0  1  0  0  0  0  0999 V2000
   35.4750   29.1570   50.4290 C   0  0  0  0  0  0  0  0  0  0  0  0
   36.2780   30.0630   49.7070 C   0  0  0  0  0  0  0  0  0  0  0  0
   36.1790   30.0740   48.3290 C   0  0  0  0  0  0  0  0  0  0  0  0
   35.3090   29.2090   47.7170 N   0  0  0  0  0  0  0  0  0  0  0  0
   34.5500   28.3480   48.4550 C   0  0  0  0  0  0  0  0  0  0  0  0
   34.6280   28.3170   49.8080 N   0  0  0  0  0  0  0  0  0  0  0  0
   33.7060   27.5270   47.6570 N   0  0  0  0  0  0  0  0  0  0  0  0
   35.5040   29.0960   51.5090 H   0  0  0  0  0  0  0  0  0  0  0  0
   32.9030   28.0110   47.1920 H   0  0  0  0  0  0  0  0  0  0  0  0
   33.9780   26.5030   47.6140 H   0  0  0  0  0  0  0  0  0  0  0  0
   36.9750   30.9920   47.4890 C   0  0  2  0  0  3  0  0  0  0  0  0
   36.5180   30.9950   46.0570 C   0  0  0  0  0  3  0  0  0  0  0  0
   35.8620   30.0950   45.9390 H   0  0  0  0  0  0  0  0  0  0  0  0
   37.7840   30.7870   45.2900 C   0  0  0  0  0  3  0  0  0  0  0  0
   37.9120   31.5930   44.5250 H   0  0  0  0  0  0  0  0  0  0  0  0
   38.8330   30.8720   46.1970 O   0  0  0  0  0  0  0  0  0  0  0  0
   38.3600   30.4470   47.4090 C   0  0  0  0  0  3  0  0  0  0  0  0
   39.0200   30.8000   48.2270 H   0  0  0  0  0  0  0  0  0  0  0  0
   37.2020   30.9600   50.4470 C   0  0  0  0  0  0  0  0  0  0  0  0
   38.5310   30.7720   50.0580 F   0  0  0  0  0  0  0  0  0  0  0  0
   36.8540   32.2560   50.2060 F   0  0  0  0  0  0  0  0  0  0  0  0
   37.1630   30.7530   51.8140 F   0  0  0  0  0  0  0  0  0  0  0  0
  1  8  1  0  0  0  0
  2  1  2  0  0  0  0
  2 19  1  0  0  0  0
  3  2  1  0  0  0  0
  4  3  2  0  0  0  0
  4  5  1  0  0  0  0
  5  6  2  0  0  0  0
  6  1  1  0  0  0  0
  7  5  1  0  0  0  0
  9  7  1  0  0  0  0
 10  7  1  0  0  0  0
 11  3  1  1  0  0  0
 12 11  1  0  0  0  0
 13 12  1  0  0  0  0
 14 12  1  0  0  0  0
 14 16  1  0  0  0  0
 15 14  1  0  0  0  0
 16 17  1  0  0  0  0
 17 11  1  0  0  0  0
 17 18  1  0  0  0  0
 19 22  1  0  0  0  0
 20 19  1  0  0  0  0
 21 19  1  0  0  0  0
M  END
>  <minimizedAffinity>
-4.80529785

>  <minimizedRMSD>
1.03879213

$$$$
