
 OpenBabel03272508123D

 33 35  0  0  1  0  0  0  0  0999 V2000
   36.7170   29.3720   43.9790 Cl  0  0  0  0  0  0  0  0  0  0  0  0
   38.3660   29.7830   43.4960 C   0  0  0  0  0  0  0  0  0  0  0  0
   39.3260   30.2900   44.3730 C   0  0  0  0  0  0  0  0  0  0  0  0
   40.5910   30.5710   43.8600 C   0  0  0  0  0  0  0  0  0  0  0  0
   40.8580   30.3470   42.5300 C   0  0  0  0  0  0  0  0  0  0  0  0
   39.9360   29.8520   41.6560 C   0  0  0  0  0  0  0  0  0  0  0  0
   38.6890   29.5720   42.1470 C   0  0  0  0  0  0  0  0  0  0  0  0
   41.2540   30.9570   44.6220 H   0  0  0  0  0  0  0  0  0  0  0  0
   41.8770   30.5980   42.2230 H   0  0  0  0  0  0  0  0  0  0  0  0
   40.2350   29.7090   40.6280 H   0  0  0  0  0  0  0  0  0  0  0  0
   37.6700   29.0320   41.2090 C   0  0  2  0  0  3  0  0  0  0  0  0
   38.2970   28.3270   40.0160 C   0  0  0  0  0  3  0  0  0  0  0  0
   39.3890   28.2280   40.0850 H   0  0  0  0  0  0  0  0  0  0  0  0
   37.8610   29.2190   38.8740 C   0  0  0  0  0  3  0  0  0  0  0  0
   38.6620   29.3070   38.0950 H   0  0  0  0  0  0  0  0  0  0  0  0
   37.5850   30.4570   39.4480 O   0  0  0  0  0  0  0  0  0  0  0  0
   36.8530   30.0980   40.5770 C   0  0  0  0  0  3  0  0  0  0  0  0
   35.9310   29.5950   40.1680 H   0  0  0  0  0  0  0  0  0  0  0  0
   38.8460   30.4320   45.6450 O   0  0  0  0  0  0  0  0  0  0  0  0
   39.4340   32.5190   47.0670 O   0  0  0  0  0  0  0  0  0  0  0  0
   38.2970   31.8330   46.4000 P   0  0  1  0  0  0  0  0  0  0  0  0
   37.6920   32.8220   45.1460 O   0  0  0  0  0  0  0  0  0  0  0  0
   38.4690   33.1610   44.6200 H   0  0  0  0  0  0  0  0  0  0  0  0
   37.0190   31.4280   47.4400 O   0  0  0  0  0  0  0  0  0  0  0  0
   37.6260   30.5290   50.9760 C   0  0  0  0  0  0  0  0  0  0  0  0
   37.7130   31.3090   49.8190 C   0  0  0  0  0  0  0  0  0  0  0  0
   37.0710   30.8480   48.6610 C   0  0  0  0  0  0  0  0  0  0  0  0
   36.3960   29.6650   48.7230 N   0  0  0  0  0  0  0  0  0  0  0  0
   36.3390   28.9450   49.8610 C   0  0  0  0  0  0  0  0  0  0  0  0
   36.9490   29.3770   50.9760 N   0  0  0  0  0  0  0  0  0  0  0  0
   38.1440   30.9380   51.8430 H   0  0  0  0  0  0  0  0  0  0  0  0
   38.2260   32.2510   49.6960 H   0  0  0  0  0  0  0  0  0  0  0  0
   35.8090   28.0040   49.9340 H   0  0  0  0  0  0  0  0  0  0  0  0
  2  1  1  0  0  0  0
  2  3  1  0  0  0  0
  3 19  1  0  0  0  0
  4  3  2  0  0  0  0
  4  8  1  0  0  0  0
  5  4  1  0  0  0  0
  6  7  1  0  0  0  0
  6  5  2  0  0  0  0
  7  2  2  0  0  0  0
  9  5  1  0  0  0  0
 10  6  1  0  0  0  0
 11  7  1  1  0  0  0
 12 13  1  0  0  0  0
 12 11  1  0  0  0  0
 14 16  1  0  0  0  0
 14 12  1  0  0  0  0
 15 14  1  0  0  0  0
 16 17  1  0  0  0  0
 17 11  1  0  0  0  0
 18 17  1  0  0  0  0
 19 21  1  0  0  0  0
 21 20  2  1  0  0  0
 21 24  1  0  0  0  0
 22 21  1  0  0  0  0
 23 22  1  0  0  0  0
 24 27  1  0  0  0  0
 25 30  1  0  0  0  0
 25 31  1  0  0  0  0
 26 25  2  0  0  0  0
 27 28  2  0  0  0  0
 27 26  1  0  0  0  0
 28 29  1  0  0  0  0
 29 33  1  0  0  0  0
 29 30  2  0  0  0  0
 32 26  1  0  0  0  0
M  END
>  <minimizedAffinity>
-4.8386054

>  <minimizedRMSD>
0.392392546

$$$$
