REMARK  Name = 
REMARK  2 active torsions:
REMARK  status: ('A' for Active; 'I' for Inactive)
REMARK    1  A    between atoms: N_1  and  C_10
REMARK    2  A    between atoms: C_9  and  C_20
REMARK                            x       y       z     vdW  Elec       q    Type
REMARK                         _______ _______ _______ _____ _____    ______ ____
ROOT
ATOM      1  C   UNL     1      36.204  29.244  49.350  0.00  0.00    +0.000 A 
ATOM      2  C   UNL     1      36.041  30.370  48.527  0.00  0.00    +0.000 A 
ATOM      3  C   UNL     1      34.903  30.385  47.705  0.00  0.00    +0.000 A 
ATOM      4  N   UNL     1      34.040  29.341  47.745  0.00  0.00    +0.000 NA
ATOM      5  C   UNL     1      34.227  28.282  48.544  0.00  0.00    +0.000 A 
ATOM      6  N   UNL     1      35.317  28.235  49.351  0.00  0.00    +0.000 NA
ATOM      7  H   UNL     1      34.784  31.255  47.073  0.00  0.00    +0.000 HD
ATOM      8  H   UNL     1      33.462  27.521  48.476  0.00  0.00    +0.000 HD
ENDROOT
BRANCH   2   9
ATOM      9  N   UNL     1      37.012  31.402  48.572  0.00  0.00    +0.000 N 
ATOM     10  C   UNL     1      37.184  32.164  49.657  0.00  0.00    +0.000 A 
ATOM     11  C   UNL     1      38.155  33.168  49.666  0.00  0.00    +0.000 A 
ATOM     12  C   UNL     1      38.860  33.261  48.494  0.00  0.00    +0.000 A 
ATOM     13  O   UNL     1      39.758  34.172  48.472  0.00  0.00    +0.000 OA
ATOM     14  N   UNL     1      38.716  32.520  47.392  0.00  0.00    +0.000 N 
ATOM     15  C   UNL     1      37.754  31.561  47.449  0.00  0.00    +0.000 A 
ATOM     16  O   UNL     1      37.604  30.849  46.409  0.00  0.00    +0.000 OA
ATOM     17  H   UNL     1      36.582  32.036  50.557  0.00  0.00    +0.000 HD
ATOM     18  H   UNL     1      38.345  33.818  50.510  0.00  0.00    +0.000 HD
ATOM     19  H   UNL     1      39.316  32.685  46.555  0.00  0.00    +0.000 HD
ENDBRANCH   2   9
BRANCH   1  20
ATOM     20  C   UNL     1      37.331  29.058  50.261  0.00  0.00    +0.000 C 
ATOM     21  C   UNL     1      38.669  29.379  49.601  0.00  0.00    +0.000 C 
ATOM     22  H   UNL     1      39.010  30.390  49.891  0.00  0.00    +0.000 HD
ATOM     23  C   UNL     1      39.579  28.361  50.240  0.00  0.00    +0.000 C 
ATOM     24  H   UNL     1      39.910  27.564  49.534  0.00  0.00    +0.000 HD
ATOM     25  O   UNL     1      38.829  27.717  51.237  0.00  0.00    +0.000 OA
ATOM     26  C   UNL     1      37.547  27.616  50.654  0.00  0.00    +0.000 C 
ATOM     27  H   UNL     1      36.837  27.263  51.420  0.00  0.00    +0.000 HD
ENDBRANCH   1  20
TORSDOF 2
