
 OpenBabel03272500463D

 31 34  0  0  1  0  0  0  0  0999 V2000
   33.1160   28.7360   47.6520 C   0  0  0  0  0  0  0  0  0  0  0  0
   33.7970   29.1880   46.5150 C   0  0  0  0  0  0  0  0  0  0  0  0
   34.9620   29.8430   46.9600 C   0  0  0  0  0  0  0  0  0  0  0  0
   34.9530   29.7730   48.2980 N   0  0  0  0  0  0  0  0  0  0  0  0
   33.8790   29.1300   48.6650 N   0  0  0  0  0  0  0  0  0  0  0  0
   33.4790   29.0530   45.4880 H   0  0  0  0  0  0  0  0  0  0  0  0
   35.6830   30.2950   46.3040 H   0  0  0  0  0  0  0  0  0  0  0  0
   31.1840   27.5910   48.7380 C   0  0  0  0  0  0  0  0  0  0  0  0
   31.8810   28.0200   47.5970 C   0  0  0  0  0  0  0  0  0  0  0  0
   31.3150   27.7180   46.3600 C   0  0  0  0  0  0  0  0  0  0  0  0
   30.1390   27.0360   46.3060 N   0  0  0  0  0  0  0  0  0  0  0  0
   29.5020   26.6420   47.4400 C   0  0  0  0  0  0  0  0  0  0  0  0
   30.0280   26.9220   48.6650 N   0  0  0  0  0  0  0  0  0  0  0  0
   31.6570   27.8460   49.6590 H   0  0  0  0  0  0  0  0  0  0  0  0
   31.7820   28.0090   45.4110 H   0  0  0  0  0  0  0  0  0  0  0  0
   28.5590   26.0950   47.4240 H   0  0  0  0  0  0  0  0  0  0  0  0
   35.9590   30.3150   49.1700 C   0  0  1  0  0  0  0  0  0  0  0  0
   36.8520   29.3090   49.9500 C   0  0  0  0  0  0  0  0  0  0  0  0
   37.3940   30.1480   48.8620 C   0  0  2  0  0  0  0  0  0  0  0  0
   35.6080   31.1900   49.7820 H   0  0  0  0  0  0  0  0  0  0  0  0
   36.9990   29.4870   51.0120 H   0  0  0  0  0  0  0  0  0  0  0  0
   36.6750   28.2310   49.7240 H   0  0  0  0  0  0  0  0  0  0  0  0
   37.5950   29.6280   47.8840 H   0  0  0  0  0  0  0  0  0  0  0  0
   38.3090   31.3050   49.0700 C   0  0  2  0  0  0  0  0  0  0  0  0
   37.6140   32.5060   49.6800 C   0  0  0  0  0  0  0  0  0  0  0  0
   37.5510   32.4320   50.7830 H   0  0  0  0  0  0  0  0  0  0  0  0
   38.5440   33.6160   49.2370 C   0  0  0  0  0  0  0  0  0  0  0  0
   38.0050   34.5860   49.1320 H   0  0  0  0  0  0  0  0  0  0  0  0
   39.1830   33.2280   48.0930 O   0  0  0  0  0  0  0  0  0  0  0  0
   38.8810   31.9090   47.8310 C   0  0  0  0  0  0  0  0  0  0  0  0
   39.7540   31.3280   47.4690 H   0  0  0  0  0  0  0  0  0  0  0  0
  1  5  2  0  0  0  0
  2  3  2  0  0  0  0
  2  1  1  0  0  0  0
  3  4  1  0  0  0  0
  4  5  1  0  0  0  0
  4 17  1  0  0  0  0
  6  2  1  0  0  0  0
  7  3  1  0  0  0  0
  8 14  1  0  0  0  0
  9  1  1  0  0  0  0
  9  8  2  0  0  0  0
 10  9  1  0  0  0  0
 11 10  2  0  0  0  0
 11 12  1  0  0  0  0
 12 13  2  0  0  0  0
 13  8  1  0  0  0  0
 15 10  1  0  0  0  0
 16 12  1  0  0  0  0
 17 20  1  1  0  0  0
 17 18  1  0  0  0  0
 18 21  1  0  0  0  0
 19 23  1  6  0  0  0
 19 24  1  0  0  0  0
 19 17  1  0  0  0  0
 19 18  1  0  0  0  0
 22 18  1  0  0  0  0
 24 30  1  6  0  0  0
 24 25  1  0  0  0  0
 25 26  1  0  0  0  0
 27 25  1  0  0  0  0
 28 27  1  0  0  0  0
 29 27  1  0  0  0  0
 30 29  1  0  0  0  0
 31 30  1  0  0  0  0
M  END
>  <minimizedAffinity>
-5.25485325

>  <minimizedRMSD>
4.57408094

$$$$
