
 OpenBabel03272503513D

 36 38  0  0  1  0  0  0  0  0999 V2000
   37.5360   23.5650   32.8470 C   0  0  1  0  0  0  0  0  0  0  0  0
   37.3730   25.0950   32.6900 C   0  0  2  0  0  0  0  0  0  0  0  0
   37.3780   25.2700   31.3430 O   0  0  0  0  0  0  0  0  0  0  0  0
   36.5460   24.2850   30.8550 C   0  0  0  0  0  0  0  0  0  0  0  0
   36.6900   23.0680   31.7090 C   0  0  2  0  0  0  0  0  0  0  0  0
   37.1130   23.3290   33.8360 H   0  0  0  0  0  0  0  0  0  0  0  0
   36.4150   25.3680   33.2170 H   0  0  0  0  0  0  0  0  0  0  0  0
   36.6880   24.1010   29.7710 H   0  0  0  0  0  0  0  0  0  0  0  0
   35.4890   24.6670   30.9480 H   0  0  0  0  0  0  0  0  0  0  0  0
   37.2780   22.3050   31.1810 H   0  0  0  0  0  0  0  0  0  0  0  0
   38.8710   23.2170   32.7760 O   0  0  0  0  0  0  0  0  0  0  0  0
   39.2850   23.1390   33.6570 H   0  0  0  0  0  0  0  0  0  0  0  0
   38.4120   25.6260   33.3930 O   0  0  0  0  0  0  0  0  0  0  0  0
   39.1240   27.1670   35.4150 O   0  0  0  0  0  0  0  0  0  0  0  0
   37.9530   26.4030   34.8150 P   0  0  1  0  0  0  0  0  0  0  0  0
   36.7820   27.5780   34.4850 O   0  0  0  0  0  0  0  0  0  0  0  0
   37.1020   28.2810   33.9000 H   0  0  0  0  0  0  0  0  0  0  0  0
   37.3100   25.2220   35.8600 O   0  0  0  0  0  0  0  0  0  0  0  0
   38.1300   24.4190   36.6510 C   0  0  0  0  0  0  0  0  0  0  0  0
   37.9940   24.2240   38.0390 C   0  0  0  0  0  0  0  0  0  0  0  0
   38.9030   23.3870   38.6710 C   0  0  0  0  0  0  0  0  0  0  0  0
   39.8850   22.7920   37.9200 N   0  0  0  0  0  0  0  0  0  0  0  0
   39.9880   23.0010   36.5810 C   0  0  0  0  0  0  0  0  0  0  0  0
   39.1090   23.8160   35.9430 N   0  0  0  0  0  0  0  0  0  0  0  0
   37.1760   24.7550   38.5030 H   0  0  0  0  0  0  0  0  0  0  0  0
   38.7870   23.2480   39.7240 H   0  0  0  0  0  0  0  0  0  0  0  0
   40.7760   22.5130   36.0250 H   0  0  0  0  0  0  0  0  0  0  0  0
   35.4610   22.6420   32.1700 O   0  0  0  0  0  0  0  0  0  0  0  0
   35.2260   21.3080   32.0740 C   0  0  2  0  0  3  0  0  0  0  0  0
   35.4550   20.4850   33.2990 C   0  0  0  0  0  3  0  0  0  0  0  0
   34.6650   20.6170   34.0690 H   0  0  0  0  0  0  0  0  0  0  0  0
   35.4500   19.1010   32.6790 C   0  0  0  0  0  3  0  0  0  0  0  0
   34.3900   18.8470   32.4760 H   0  0  0  0  0  0  0  0  0  0  0  0
   36.1680   19.2560   31.5200 O   0  0  0  0  0  0  0  0  0  0  0  0
   36.0350   20.5520   31.0610 C   0  0  0  0  0  3  0  0  0  0  0  0
   37.0530   20.9570   30.9130 H   0  0  0  0  0  0  0  0  0  0  0  0
  1  6  1  1  0  0  0
  2  1  1  0  0  0  0
  2  7  1  1  0  0  0
  2 13  1  0  0  0  0
  3  2  1  0  0  0  0
  4  9  1  0  0  0  0
  4  3  1  0  0  0  0
  4  5  1  0  0  0  0
  5 10  1  6  0  0  0
  5 28  1  0  0  0  0
  5  1  1  0  0  0  0
  8  4  1  0  0  0  0
 11  1  1  0  0  0  0
 11 12  1  0  0  0  0
 13 15  1  0  0  0  0
 15 14  2  1  0  0  0
 15 18  1  0  0  0  0
 16 15  1  0  0  0  0
 17 16  1  0  0  0  0
 18 19  1  0  0  0  0
 19 20  1  0  0  0  0
 20 25  1  0  0  0  0
 20 21  2  0  0  0  0
 21 26  1  0  0  0  0
 22 21  1  0  0  0  0
 23 22  2  0  0  0  0
 24 23  1  0  0  0  0
 24 19  2  0  0  0  0
 27 23  1  0  0  0  0
 29 28  1  1  0  0  0
 29 30  1  0  0  0  0
 30 31  1  0  0  0  0
 32 30  1  0  0  0  0
 33 32  1  0  0  0  0
 34 32  1  0  0  0  0
 35 34  1  0  0  0  0
 35 29  1  0  0  0  0
 36 35  1  0  0  0  0
M  END
>  <minimizedAffinity>
-5.13562059

$$$$

 OpenBabel03272503513D

 36 38  0  0  1  0  0  0  0  0999 V2000
   37.5050   26.4670   34.3600 C   0  0  1  0  0  0  0  0  0  0  0  0
   37.9470   26.1700   32.9080 C   0  0  2  0  0  0  0  0  0  0  0  0
   38.9200   27.0900   32.6860 O   0  0  0  0  0  0  0  0  0  0  0  0
   39.7020   27.0600   33.8210 C   0  0  0  0  0  0  0  0  0  0  0  0
   38.8260   26.7910   35.0000 C   0  0  2  0  0  0  0  0  0  0  0  0
   37.0660   25.5260   34.7270 H   0  0  0  0  0  0  0  0  0  0  0  0
   38.2760   25.0920   32.8900 H   0  0  0  0  0  0  0  0  0  0  0  0
   40.3430   27.9580   33.9250 H   0  0  0  0  0  0  0  0  0  0  0  0
   40.4220   26.2000   33.7040 H   0  0  0  0  0  0  0  0  0  0  0  0
   38.6840   27.7120   35.5810 H   0  0  0  0  0  0  0  0  0  0  0  0
   36.5810   27.4930   34.3790 O   0  0  0  0  0  0  0  0  0  0  0  0
   35.6610   27.1680   34.3900 H   0  0  0  0  0  0  0  0  0  0  0  0
   36.8040   26.2770   32.1720 O   0  0  0  0  0  0  0  0  0  0  0  0
   35.0470   25.0310   30.6470 O   0  0  0  0  0  0  0  0  0  0  0  0
   36.4070   24.8850   31.3140 P   0  0  1  0  0  0  0  0  0  0  0  0
   37.4990   24.6520   30.0430 O   0  0  0  0  0  0  0  0  0  0  0  0
   37.4830   25.3690   29.3910 H   0  0  0  0  0  0  0  0  0  0  0  0
   36.4910   23.5730   32.3960 O   0  0  0  0  0  0  0  0  0  0  0  0
   36.2070   22.2700   31.9920 C   0  0  0  0  0  0  0  0  0  0  0  0
   35.1170   21.4930   32.4320 C   0  0  0  0  0  0  0  0  0  0  0  0
   34.9850   20.2080   31.9240 C   0  0  0  0  0  0  0  0  0  0  0  0
   35.9170   19.7570   31.0230 N   0  0  0  0  0  0  0  0  0  0  0  0
   36.9580   20.5320   30.6200 C   0  0  0  0  0  0  0  0  0  0  0  0
   37.1050   21.7920   31.1040 N   0  0  0  0  0  0  0  0  0  0  0  0
   34.4610   21.9760   33.1420 H   0  0  0  0  0  0  0  0  0  0  0  0
   34.1540   19.6320   32.2660 H   0  0  0  0  0  0  0  0  0  0  0  0
   37.6700   20.1380   29.9090 H   0  0  0  0  0  0  0  0  0  0  0  0
   39.2910   25.7110   35.7240 O   0  0  0  0  0  0  0  0  0  0  0  0
   38.3820   24.7330   35.9720 C   0  0  2  0  0  3  0  0  0  0  0  0
   38.0730   24.4360   37.4030 C   0  0  0  0  0  3  0  0  0  0  0  0
   37.4410   25.2120   37.8840 H   0  0  0  0  0  0  0  0  0  0  0  0
   37.3580   23.1090   37.2370 C   0  0  0  0  0  3  0  0  0  0  0  0
   36.3390   23.3410   36.8670 H   0  0  0  0  0  0  0  0  0  0  0  0
   38.1040   22.4480   36.2930 O   0  0  0  0  0  0  0  0  0  0  0  0
   38.7090   23.3630   35.4540 C   0  0  0  0  0  3  0  0  0  0  0  0
   39.7900   23.1380   35.4440 H   0  0  0  0  0  0  0  0  0  0  0  0
  1 11  1  0  0  0  0
  1  6  1  1  0  0  0
  1  5  1  0  0  0  0
  2  7  1  6  0  0  0
  2  1  1  0  0  0  0
  3  2  1  0  0  0  0
  3  4  1  0  0  0  0
  4  8  1  0  0  0  0
  4  5  1  0  0  0  0
  5 10  1  1  0  0  0
  5 28  1  0  0  0  0
  9  4  1  0  0  0  0
 11 12  1  0  0  0  0
 13  2  1  0  0  0  0
 15 14  2  6  0  0  0
 15 13  1  0  0  0  0
 15 18  1  0  0  0  0
 16 15  1  0  0  0  0
 17 16  1  0  0  0  0
 19 18  1  0  0  0  0
 19 20  1  0  0  0  0
 20 25  1  0  0  0  0
 21 26  1  0  0  0  0
 21 20  2  0  0  0  0
 22 21  1  0  0  0  0
 23 22  2  0  0  0  0
 23 24  1  0  0  0  0
 24 19  2  0  0  0  0
 27 23  1  0  0  0  0
 29 28  1  1  0  0  0
 29 30  1  0  0  0  0
 30 31  1  0  0  0  0
 32 30  1  0  0  0  0
 33 32  1  0  0  0  0
 34 32  1  0  0  0  0
 35 29  1  0  0  0  0
 35 34  1  0  0  0  0
 36 35  1  0  0  0  0
M  END
>  <minimizedAffinity>
-5.07051229

$$$$

 OpenBabel03272503513D

 36 38  0  0  1  0  0  0  0  0999 V2000
   37.9810   25.6440   32.0040 C   0  0  1  0  0  0  0  0  0  0  0  0
   37.2100   26.5540   32.9890 C   0  0  2  0  0  0  0  0  0  0  0  0
   36.2670   27.1320   32.2010 O   0  0  0  0  0  0  0  0  0  0  0  0
   35.7580   26.0990   31.4420 C   0  0  0  0  0  0  0  0  0  0  0  0
   36.8590   25.1340   31.1450 C   0  0  2  0  0  0  0  0  0  0  0  0
   38.4370   24.8600   32.6310 H   0  0  0  0  0  0  0  0  0  0  0  0
   36.8230   25.8810   33.8060 H   0  0  0  0  0  0  0  0  0  0  0  0
   35.2090   26.4540   30.5470 H   0  0  0  0  0  0  0  0  0  0  0  0
   34.9810   25.5770   32.0710 H   0  0  0  0  0  0  0  0  0  0  0  0
   37.1800   25.2400   30.1000 H   0  0  0  0  0  0  0  0  0  0  0  0
   38.9450   26.3730   31.3340 O   0  0  0  0  0  0  0  0  0  0  0  0
   39.8230   26.3070   31.7530 H   0  0  0  0  0  0  0  0  0  0  0  0
   38.1630   27.3680   33.5230 O   0  0  0  0  0  0  0  0  0  0  0  0
   40.2920   26.7520   34.9570 O   0  0  0  0  0  0  0  0  0  0  0  0
   38.7730   26.8350   34.9990 P   0  0  1  0  0  0  0  0  0  0  0  0
   38.4260   27.9590   36.2140 O   0  0  0  0  0  0  0  0  0  0  0  0
   38.8380   28.8230   36.0620 H   0  0  0  0  0  0  0  0  0  0  0  0
   38.0250   25.3480   35.3560 O   0  0  0  0  0  0  0  0  0  0  0  0
   38.5260   24.4920   36.3360 C   0  0  0  0  0  0  0  0  0  0  0  0
   38.0470   24.3870   37.6560 C   0  0  0  0  0  0  0  0  0  0  0  0
   38.6660   23.4790   38.5030 C   0  0  0  0  0  0  0  0  0  0  0  0
   39.7080   22.7300   38.0190 N   0  0  0  0  0  0  0  0  0  0  0  0
   40.1470   22.8560   36.7390 C   0  0  0  0  0  0  0  0  0  0  0  0
   39.5550   23.7390   35.8930 N   0  0  0  0  0  0  0  0  0  0  0  0
   37.2190   25.0370   37.9020 H   0  0  0  0  0  0  0  0  0  0  0  0
   38.2910   23.4100   39.5020 H   0  0  0  0  0  0  0  0  0  0  0  0
   40.9720   22.2470   36.3960 H   0  0  0  0  0  0  0  0  0  0  0  0
   36.5060   23.8540   31.5190 O   0  0  0  0  0  0  0  0  0  0  0  0
   37.5340   23.0340   31.8550 C   0  0  2  0  0  3  0  0  0  0  0  0
   37.8860   21.9490   30.8910 C   0  0  0  0  0  3  0  0  0  0  0  0
   38.4150   22.3210   29.9880 H   0  0  0  0  0  0  0  0  0  0  0  0
   38.7660   21.0940   31.7810 C   0  0  0  0  0  3  0  0  0  0  0  0
   39.7450   21.6090   31.8510 H   0  0  0  0  0  0  0  0  0  0  0  0
   38.1080   21.0850   32.9860 O   0  0  0  0  0  0  0  0  0  0  0  0
   37.3850   22.2540   33.1290 C   0  0  0  0  0  3  0  0  0  0  0  0
   36.3420   21.9710   33.3580 H   0  0  0  0  0  0  0  0  0  0  0  0
  1  6  1  1  0  0  0
  1  2  1  0  0  0  0
  2 13  1  0  0  0  0
  2  7  1  1  0  0  0
  3  2  1  0  0  0  0
  4  9  1  0  0  0  0
  4  3  1  0  0  0  0
  5 10  1  6  0  0  0
  5  4  1  0  0  0  0
  5 28  1  0  0  0  0
  5  1  1  0  0  0  0
  8  4  1  0  0  0  0
 11 12  1  0  0  0  0
 11  1  1  0  0  0  0
 13 15  1  0  0  0  0
 15 14  2  6  0  0  0
 15 18  1  0  0  0  0
 15 16  1  0  0  0  0
 17 16  1  0  0  0  0
 18 19  1  0  0  0  0
 19 20  1  0  0  0  0
 20 25  1  0  0  0  0
 20 21  2  0  0  0  0
 21 26  1  0  0  0  0
 22 21  1  0  0  0  0
 23 22  2  0  0  0  0
 24 19  2  0  0  0  0
 24 23  1  0  0  0  0
 27 23  1  0  0  0  0
 29 28  1  6  0  0  0
 29 35  1  0  0  0  0
 30 32  1  0  0  0  0
 30 29  1  0  0  0  0
 31 30  1  0  0  0  0
 32 33  1  0  0  0  0
 32 34  1  0  0  0  0
 34 35  1  0  0  0  0
 35 36  1  0  0  0  0
M  END
>  <minimizedAffinity>
-5.04453802

$$$$

 OpenBabel03272503513D

 36 38  0  0  1  0  0  0  0  0999 V2000
   38.8630   23.5210   36.2890 C   0  0  1  0  0  0  0  0  0  0  0  0
   38.2270   24.7920   36.9020 C   0  0  2  0  0  0  0  0  0  0  0  0
   37.6580   24.3320   38.0460 O   0  0  0  0  0  0  0  0  0  0  0  0
   38.6150   23.5170   38.6140 C   0  0  0  0  0  0  0  0  0  0  0  0
   39.3700   22.8310   37.5240 C   0  0  2  0  0  0  0  0  0  0  0  0
   39.6700   23.8890   35.6360 H   0  0  0  0  0  0  0  0  0  0  0  0
   39.0650   25.5340   37.0340 H   0  0  0  0  0  0  0  0  0  0  0  0
   38.1960   22.8320   39.3790 H   0  0  0  0  0  0  0  0  0  0  0  0
   39.3260   24.1840   39.1800 H   0  0  0  0  0  0  0  0  0  0  0  0
   39.0590   21.7800   37.4540 H   0  0  0  0  0  0  0  0  0  0  0  0
   37.9190   22.8130   35.5710 O   0  0  0  0  0  0  0  0  0  0  0  0
   37.9360   23.0260   34.6180 H   0  0  0  0  0  0  0  0  0  0  0  0
   37.3920   25.2600   35.9330 O   0  0  0  0  0  0  0  0  0  0  0  0
   37.0690   27.7130   35.0110 O   0  0  0  0  0  0  0  0  0  0  0  0
   38.0300   26.5330   35.0330 P   0  0  1  0  0  0  0  0  0  0  0  0
   39.4340   27.1210   35.7700 O   0  0  0  0  0  0  0  0  0  0  0  0
   39.2760   27.4850   36.6550 H   0  0  0  0  0  0  0  0  0  0  0  0
   38.3980   25.9320   33.4840 O   0  0  0  0  0  0  0  0  0  0  0  0
   37.4690   25.2080   32.7380 C   0  0  0  0  0  0  0  0  0  0  0  0
   36.4170   25.7600   31.9810 C   0  0  0  0  0  0  0  0  0  0  0  0
   35.5810   24.8890   31.2960 C   0  0  0  0  0  0  0  0  0  0  0  0
   35.8150   23.5400   31.3890 N   0  0  0  0  0  0  0  0  0  0  0  0
   36.8390   23.0400   32.1300 C   0  0  0  0  0  0  0  0  0  0  0  0
   37.6700   23.8750   32.8060 N   0  0  0  0  0  0  0  0  0  0  0  0
   36.3500   26.8380   31.9970 H   0  0  0  0  0  0  0  0  0  0  0  0
   34.7880   25.3220   30.7260 H   0  0  0  0  0  0  0  0  0  0  0  0
   36.9900   21.9710   32.1760 H   0  0  0  0  0  0  0  0  0  0  0  0
   40.7280   23.0290   37.6650 O   0  0  0  0  0  0  0  0  0  0  0  0
   41.5190   22.3260   36.8140 C   0  0  2  0  0  3  0  0  0  0  0  0
   42.0660   21.0270   37.3070 C   0  0  0  0  0  3  0  0  0  0  0  0
   41.3060   20.2180   37.3450 H   0  0  0  0  0  0  0  0  0  0  0  0
   43.1330   20.7870   36.2550 C   0  0  0  0  0  3  0  0  0  0  0  0
   42.6080   20.4370   35.3430 H   0  0  0  0  0  0  0  0  0  0  0  0
   43.7010   22.0230   36.0740 O   0  0  0  0  0  0  0  0  0  0  0  0
   42.7680   23.0070   36.3380 C   0  0  0  0  0  3  0  0  0  0  0  0
   43.2120   23.6930   37.0810 H   0  0  0  0  0  0  0  0  0  0  0  0
  1  6  1  6  0  0  0
  1  2  1  0  0  0  0
  1  5  1  0  0  0  0
  2  7  1  1  0  0  0
  2  3  1  0  0  0  0
  3  4  1  0  0  0  0
  4  9  1  0  0  0  0
  4  8  1  0  0  0  0
  5 10  1  6  0  0  0
  5 28  1  0  0  0  0
  5  4  1  0  0  0  0
 11  1  1  0  0  0  0
 12 11  1  0  0  0  0
 13  2  1  0  0  0  0
 15 14  2  6  0  0  0
 15 16  1  0  0  0  0
 15 13  1  0  0  0  0
 16 17  1  0  0  0  0
 18 15  1  0  0  0  0
 19 24  1  0  0  0  0
 19 18  1  0  0  0  0
 20 25  1  0  0  0  0
 20 19  2  0  0  0  0
 21 22  2  0  0  0  0
 21 20  1  0  0  0  0
 22 23  1  0  0  0  0
 23 27  1  0  0  0  0
 23 24  2  0  0  0  0
 26 21  1  0  0  0  0
 29 30  1  0  0  0  0
 29 28  1  1  0  0  0
 30 31  1  0  0  0  0
 32 30  1  0  0  0  0
 33 32  1  0  0  0  0
 34 32  1  0  0  0  0
 34 35  1  0  0  0  0
 35 29  1  0  0  0  0
 35 36  1  0  0  0  0
M  END
>  <minimizedAffinity>
-5.02517462

$$$$

 OpenBabel03272503513D

 36 38  0  0  1  0  0  0  0  0999 V2000
   37.5600   26.6690   35.3320 C   0  0  1  0  0  0  0  0  0  0  0  0
   37.3570   27.0020   33.8350 C   0  0  2  0  0  0  0  0  0  0  0  0
   38.5870   26.7880   33.3000 O   0  0  0  0  0  0  0  0  0  0  0  0
   39.0050   25.5910   33.8420 C   0  0  0  0  0  0  0  0  0  0  0  0
   38.4860   25.4890   35.2390 C   0  0  2  0  0  0  0  0  0  0  0  0
   36.5590   26.4050   35.7080 H   0  0  0  0  0  0  0  0  0  0  0  0
   36.5360   26.3230   33.4670 H   0  0  0  0  0  0  0  0  0  0  0  0
   40.0980   25.4360   33.7490 H   0  0  0  0  0  0  0  0  0  0  0  0
   38.5410   24.7680   33.2260 H   0  0  0  0  0  0  0  0  0  0  0  0
   39.3000   25.6630   35.9560 H   0  0  0  0  0  0  0  0  0  0  0  0
   38.0740   27.7640   36.0000 O   0  0  0  0  0  0  0  0  0  0  0  0
   37.3810   28.2990   36.4300 H   0  0  0  0  0  0  0  0  0  0  0  0
   36.8860   28.2810   33.8280 O   0  0  0  0  0  0  0  0  0  0  0  0
   37.1160   29.1680   31.3520 O   0  0  0  0  0  0  0  0  0  0  0  0
   36.1090   28.7190   32.4000 P   0  0  1  0  0  0  0  0  0  0  0  0
   35.3360   27.3750   31.7220 O   0  0  0  0  0  0  0  0  0  0  0  0
   35.9510   26.6680   31.4740 H   0  0  0  0  0  0  0  0  0  0  0  0
   34.9580   29.9120   32.7880 O   0  0  0  0  0  0  0  0  0  0  0  0
   33.8050   29.6110   33.5110 C   0  0  0  0  0  0  0  0  0  0  0  0
   33.6240   29.8250   34.8920 C   0  0  0  0  0  0  0  0  0  0  0  0
   32.4060   29.4650   35.4520 C   0  0  0  0  0  0  0  0  0  0  0  0
   31.4420   28.9210   34.6420 N   0  0  0  0  0  0  0  0  0  0  0  0
   31.6500   28.7280   33.3120 C   0  0  0  0  0  0  0  0  0  0  0  0
   32.8330   29.0740   32.7440 N   0  0  0  0  0  0  0  0  0  0  0  0
   34.4670   30.2610   35.4070 H   0  0  0  0  0  0  0  0  0  0  0  0
   32.2830   29.6330   36.5000 H   0  0  0  0  0  0  0  0  0  0  0  0
   30.8640   28.2960   32.7080 H   0  0  0  0  0  0  0  0  0  0  0  0
   37.7900   24.3120   35.4220 O   0  0  0  0  0  0  0  0  0  0  0  0
   38.1180   23.5990   36.5300 C   0  0  2  0  0  3  0  0  0  0  0  0
   37.9970   24.2900   37.8480 C   0  0  0  0  0  3  0  0  0  0  0  0
   36.9460   24.4160   38.1820 H   0  0  0  0  0  0  0  0  0  0  0  0
   38.7820   23.3240   38.7140 C   0  0  0  0  0  3  0  0  0  0  0  0
   38.1220   22.4520   38.8970 H   0  0  0  0  0  0  0  0  0  0  0  0
   39.8640   22.9890   37.9380 O   0  0  0  0  0  0  0  0  0  0  0  0
   39.5230   23.0770   36.6030 C   0  0  0  0  0  3  0  0  0  0  0  0
   40.2670   23.7310   36.1140 H   0  0  0  0  0  0  0  0  0  0  0  0
  1  6  1  1  0  0  0
  1 11  1  0  0  0  0
  2  7  1  6  0  0  0
  2  1  1  0  0  0  0
  3  2  1  0  0  0  0
  3  4  1  0  0  0  0
  4  5  1  0  0  0  0
  5  1  1  0  0  0  0
  5 28  1  0  0  0  0
  5 10  1  1  0  0  0
  8  4  1  0  0  0  0
  9  4  1  0  0  0  0
 11 12  1  0  0  0  0
 13  2  1  0  0  0  0
 15 14  2  6  0  0  0
 15 18  1  0  0  0  0
 15 13  1  0  0  0  0
 16 15  1  0  0  0  0
 17 16  1  0  0  0  0
 18 19  1  0  0  0  0
 19 20  1  0  0  0  0
 20 25  1  0  0  0  0
 20 21  2  0  0  0  0
 21 26  1  0  0  0  0
 22 21  1  0  0  0  0
 23 22  2  0  0  0  0
 24 23  1  0  0  0  0
 24 19  2  0  0  0  0
 27 23  1  0  0  0  0
 29 28  1  6  0  0  0
 29 35  1  0  0  0  0
 29 30  1  0  0  0  0
 30 31  1  0  0  0  0
 30 32  1  0  0  0  0
 32 33  1  0  0  0  0
 34 32  1  0  0  0  0
 35 34  1  0  0  0  0
 36 35  1  0  0  0  0
M  END
>  <minimizedAffinity>
-5.01383829

$$$$

 OpenBabel03272503513D

 36 38  0  0  1  0  0  0  0  0999 V2000
   37.4200   24.0900   31.0290 C   0  0  1  0  0  0  0  0  0  0  0  0
   37.0890   25.5260   31.4990 C   0  0  2  0  0  0  0  0  0  0  0  0
   35.8830   25.7690   30.9230 O   0  0  0  0  0  0  0  0  0  0  0  0
   35.1470   24.6250   31.1470 C   0  0  0  0  0  0  0  0  0  0  0  0
   36.0630   23.4470   31.0960 C   0  0  2  0  0  0  0  0  0  0  0  0
   38.1230   23.6950   31.7810 H   0  0  0  0  0  0  0  0  0  0  0  0
   37.1000   25.5030   32.6250 H   0  0  0  0  0  0  0  0  0  0  0  0
   34.2650   24.5460   30.4810 H   0  0  0  0  0  0  0  0  0  0  0  0
   34.7200   24.7040   32.1870 H   0  0  0  0  0  0  0  0  0  0  0  0
   35.9210   22.9000   30.1540 H   0  0  0  0  0  0  0  0  0  0  0  0
   37.9920   24.1170   29.7720 O   0  0  0  0  0  0  0  0  0  0  0  0
   38.9670   24.1040   29.8040 H   0  0  0  0  0  0  0  0  0  0  0  0
   38.1460   26.2770   31.0780 O   0  0  0  0  0  0  0  0  0  0  0  0
   38.9660   28.6200   30.1800 O   0  0  0  0  0  0  0  0  0  0  0  0
   37.7500   27.8710   30.7060 P   0  0  1  0  0  0  0  0  0  0  0  0
   36.6250   27.9130   29.4430 O   0  0  0  0  0  0  0  0  0  0  0  0
   36.9650   27.5330   28.6190 H   0  0  0  0  0  0  0  0  0  0  0  0
   37.0770   28.5720   32.1040 O   0  0  0  0  0  0  0  0  0  0  0  0
   35.8850   29.2940   32.0600 C   0  0  0  0  0  0  0  0  0  0  0  0
   34.7290   29.0160   32.8160 C   0  0  0  0  0  0  0  0  0  0  0  0
   33.6260   29.8420   32.6470 C   0  0  0  0  0  0  0  0  0  0  0  0
   33.7130   30.8830   31.7570 N   0  0  0  0  0  0  0  0  0  0  0  0
   34.8440   31.1240   31.0430 C   0  0  0  0  0  0  0  0  0  0  0  0
   35.9340   30.3280   31.1940 N   0  0  0  0  0  0  0  0  0  0  0  0
   34.8020   28.1650   33.4770 H   0  0  0  0  0  0  0  0  0  0  0  0
   32.7570   29.6190   33.2260 H   0  0  0  0  0  0  0  0  0  0  0  0
   34.8710   31.9550   30.3530 H   0  0  0  0  0  0  0  0  0  0  0  0
   35.9460   22.6820   32.2380 O   0  0  0  0  0  0  0  0  0  0  0  0
   35.4020   21.4490   32.0690 C   0  0  2  0  0  3  0  0  0  0  0  0
   35.5510   20.4780   33.1930 C   0  0  0  0  0  3  0  0  0  0  0  0
   34.8910   20.7020   34.0580 H   0  0  0  0  0  0  0  0  0  0  0  0
   35.1680   19.1980   32.4740 C   0  0  0  0  0  3  0  0  0  0  0  0
   34.0640   19.2060   32.3770 H   0  0  0  0  0  0  0  0  0  0  0  0
   35.7890   19.3070   31.2540 O   0  0  0  0  0  0  0  0  0  0  0  0
   35.9140   20.6400   30.9140 C   0  0  0  0  0  3  0  0  0  0  0  0
   36.9780   20.8220   30.6800 H   0  0  0  0  0  0  0  0  0  0  0  0
  1  5  1  0  0  0  0
  1  2  1  0  0  0  0
  1  6  1  1  0  0  0
  2  7  1  1  0  0  0
  3  4  1  0  0  0  0
  3  2  1  0  0  0  0
  4  9  1  0  0  0  0
  5 10  1  6  0  0  0
  5  4  1  0  0  0  0
  5 28  1  0  0  0  0
  8  4  1  0  0  0  0
 11 12  1  0  0  0  0
 11  1  1  0  0  0  0
 13  2  1  0  0  0  0
 15 14  2  6  0  0  0
 15 13  1  0  0  0  0
 15 18  1  0  0  0  0
 16 15  1  0  0  0  0
 17 16  1  0  0  0  0
 19 18  1  0  0  0  0
 19 20  1  0  0  0  0
 20 25  1  0  0  0  0
 21 20  2  0  0  0  0
 21 26  1  0  0  0  0
 22 21  1  0  0  0  0
 23 24  1  0  0  0  0
 23 22  2  0  0  0  0
 24 19  2  0  0  0  0
 27 23  1  0  0  0  0
 29 28  1  1  0  0  0
 29 30  1  0  0  0  0
 30 31  1  0  0  0  0
 32 30  1  0  0  0  0
 33 32  1  0  0  0  0
 34 32  1  0  0  0  0
 35 34  1  0  0  0  0
 35 29  1  0  0  0  0
 36 35  1  0  0  0  0
M  END
>  <minimizedAffinity>
-4.96700859

$$$$

 OpenBabel03272503513D

 36 38  0  0  1  0  0  0  0  0999 V2000
   38.9740   23.4890   36.1720 C   0  0  1  0  0  0  0  0  0  0  0  0
   38.2650   24.7060   36.8100 C   0  0  2  0  0  0  0  0  0  0  0  0
   37.6300   24.1670   37.8830 O   0  0  0  0  0  0  0  0  0  0  0  0
   38.5650   23.3410   38.4700 C   0  0  0  0  0  0  0  0  0  0  0  0
   39.4120   22.7370   37.3980 C   0  0  2  0  0  0  0  0  0  0  0  0
   39.8150   23.9110   35.6000 H   0  0  0  0  0  0  0  0  0  0  0  0
   39.0720   25.4570   37.0440 H   0  0  0  0  0  0  0  0  0  0  0  0
   38.1120   22.6040   39.1620 H   0  0  0  0  0  0  0  0  0  0  0  0
   39.2180   23.9890   39.1220 H   0  0  0  0  0  0  0  0  0  0  0  0
   39.1340   21.6860   37.2460 H   0  0  0  0  0  0  0  0  0  0  0  0
   38.1010   22.8040   35.3490 O   0  0  0  0  0  0  0  0  0  0  0  0
   38.1790   23.0730   34.4140 H   0  0  0  0  0  0  0  0  0  0  0  0
   37.4870   25.2140   35.8130 O   0  0  0  0  0  0  0  0  0  0  0  0
   38.9140   27.4120   36.1260 O   0  0  0  0  0  0  0  0  0  0  0  0
   38.0950   26.6210   35.1170 P   0  0  1  0  0  0  0  0  0  0  0  0
   39.1770   26.2370   33.8740 O   0  0  0  0  0  0  0  0  0  0  0  0
   39.9540   25.7470   34.1840 H   0  0  0  0  0  0  0  0  0  0  0  0
   36.7750   27.4920   34.4850 O   0  0  0  0  0  0  0  0  0  0  0  0
   36.6090   27.6790   33.1140 C   0  0  0  0  0  0  0  0  0  0  0  0
   36.3340   28.9070   32.4810 C   0  0  0  0  0  0  0  0  0  0  0  0
   36.1980   28.9110   31.0990 C   0  0  0  0  0  0  0  0  0  0  0  0
   36.3360   27.7270   30.4190 N   0  0  0  0  0  0  0  0  0  0  0  0
   36.6010   26.5590   31.0620 C   0  0  0  0  0  0  0  0  0  0  0  0
   36.7380   26.5320   32.4130 N   0  0  0  0  0  0  0  0  0  0  0  0
   36.2520   29.7590   33.1390 H   0  0  0  0  0  0  0  0  0  0  0  0
   35.9910   29.8490   30.6330 H   0  0  0  0  0  0  0  0  0  0  0  0
   36.7020   25.6470   30.4890 H   0  0  0  0  0  0  0  0  0  0  0  0
   40.7510   22.9560   37.6460 O   0  0  0  0  0  0  0  0  0  0  0  0
   41.6170   22.3140   36.8200 C   0  0  2  0  0  3  0  0  0  0  0  0
   42.1530   21.0000   37.2830 C   0  0  0  0  0  3  0  0  0  0  0  0
   41.4100   20.1770   37.2210 H   0  0  0  0  0  0  0  0  0  0  0  0
   43.3000   20.8350   36.3030 C   0  0  0  0  0  3  0  0  0  0  0  0
   42.8510   20.5270   35.3370 H   0  0  0  0  0  0  0  0  0  0  0  0
   43.8540   22.0890   36.2310 O   0  0  0  0  0  0  0  0  0  0  0  0
   42.8840   23.0410   36.4760 C   0  0  0  0  0  3  0  0  0  0  0  0
   43.2570   23.6930   37.2850 H   0  0  0  0  0  0  0  0  0  0  0  0
  1  6  1  6  0  0  0
  1  2  1  0  0  0  0
  1  5  1  0  0  0  0
  2  7  1  1  0  0  0
  2  3  1  0  0  0  0
  3  4  1  0  0  0  0
  4  9  1  0  0  0  0
  4  8  1  0  0  0  0
  5 10  1  6  0  0  0
  5 28  1  0  0  0  0
  5  4  1  0  0  0  0
 11  1  1  0  0  0  0
 12 11  1  0  0  0  0
 13  2  1  0  0  0  0
 15 13  1  0  0  0  0
 15 14  2  1  0  0  0
 16 17  1  0  0  0  0
 16 15  1  0  0  0  0
 18 15  1  0  0  0  0
 19 18  1  0  0  0  0
 20 19  1  0  0  0  0
 20 25  1  0  0  0  0
 21 20  2  0  0  0  0
 22 23  2  0  0  0  0
 22 21  1  0  0  0  0
 23 24  1  0  0  0  0
 24 19  2  0  0  0  0
 26 21  1  0  0  0  0
 27 23  1  0  0  0  0
 29 30  1  0  0  0  0
 29 28  1  1  0  0  0
 31 30  1  0  0  0  0
 32 30  1  0  0  0  0
 33 32  1  0  0  0  0
 34 32  1  0  0  0  0
 34 35  1  0  0  0  0
 35 29  1  0  0  0  0
 35 36  1  0  0  0  0
M  END
>  <minimizedAffinity>
-4.94831228

$$$$

 OpenBabel03272503513D

 36 38  0  0  1  0  0  0  0  0999 V2000
   37.8000   23.6180   30.8650 C   0  0  1  0  0  0  0  0  0  0  0  0
   37.3040   24.9810   31.4010 C   0  0  2  0  0  0  0  0  0  0  0  0
   36.0320   25.0540   30.9320 O   0  0  0  0  0  0  0  0  0  0  0  0
   35.4920   23.8100   31.1820 C   0  0  0  0  0  0  0  0  0  0  0  0
   36.5620   22.7810   31.0220 C   0  0  2  0  0  0  0  0  0  0  0  0
   38.6150   23.3190   31.5450 H   0  0  0  0  0  0  0  0  0  0  0  0
   37.4140   24.9410   32.5220 H   0  0  0  0  0  0  0  0  0  0  0  0
   34.5770   23.6120   30.5870 H   0  0  0  0  0  0  0  0  0  0  0  0
   35.1470   23.8070   32.2550 H   0  0  0  0  0  0  0  0  0  0  0  0
   36.4220   22.2340   30.0800 H   0  0  0  0  0  0  0  0  0  0  0  0
   38.2540   23.7500   29.5670 O   0  0  0  0  0  0  0  0  0  0  0  0
   39.2200   23.8820   29.5190 H   0  0  0  0  0  0  0  0  0  0  0  0
   38.2010   25.8870   30.9180 O   0  0  0  0  0  0  0  0  0  0  0  0
   38.6920   28.4190   30.3540 O   0  0  0  0  0  0  0  0  0  0  0  0
   37.6290   27.4710   30.8890 P   0  0  1  0  0  0  0  0  0  0  0  0
   36.3350   27.6030   29.8070 O   0  0  0  0  0  0  0  0  0  0  0  0
   36.5820   27.4020   28.8920 H   0  0  0  0  0  0  0  0  0  0  0  0
   37.1080   27.8570   32.4630 O   0  0  0  0  0  0  0  0  0  0  0  0
   37.8650   27.5290   33.5870 C   0  0  0  0  0  0  0  0  0  0  0  0
   37.3730   27.4110   34.9020 C   0  0  0  0  0  0  0  0  0  0  0  0
   38.2710   27.0750   35.9060 C   0  0  0  0  0  0  0  0  0  0  0  0
   39.5880   26.8770   35.5730 N   0  0  0  0  0  0  0  0  0  0  0  0
   40.0300   27.0000   34.2940 C   0  0  0  0  0  0  0  0  0  0  0  0
   39.1680   27.3260   33.2970 N   0  0  0  0  0  0  0  0  0  0  0  0
   36.3150   27.5940   35.0180 H   0  0  0  0  0  0  0  0  0  0  0  0
   37.8840   26.9880   36.8970 H   0  0  0  0  0  0  0  0  0  0  0  0
   41.0760   26.8350   34.0740 H   0  0  0  0  0  0  0  0  0  0  0  0
   36.6550   21.9870   32.1480 O   0  0  0  0  0  0  0  0  0  0  0  0
   36.1350   20.7380   32.0330 C   0  0  2  0  0  3  0  0  0  0  0  0
   35.5240   20.1380   33.2560 C   0  0  0  0  0  3  0  0  0  0  0  0
   34.5370   20.5770   33.5130 H   0  0  0  0  0  0  0  0  0  0  0  0
   35.4300   18.6920   32.8090 C   0  0  0  0  0  3  0  0  0  0  0  0
   34.5670   18.6280   32.1160 H   0  0  0  0  0  0  0  0  0  0  0  0
   36.6210   18.4690   32.1620 O   0  0  0  0  0  0  0  0  0  0  0  0
   37.0820   19.6510   31.6170 C   0  0  0  0  0  3  0  0  0  0  0  0
   38.1160   19.7990   31.9750 H   0  0  0  0  0  0  0  0  0  0  0  0
  1  5  1  0  0  0  0
  1  2  1  0  0  0  0
  1  6  1  1  0  0  0
  2  7  1  1  0  0  0
  3  4  1  0  0  0  0
  3  2  1  0  0  0  0
  4  9  1  0  0  0  0
  5 10  1  6  0  0  0
  5  4  1  0  0  0  0
  5 28  1  0  0  0  0
  8  4  1  0  0  0  0
 11  1  1  0  0  0  0
 12 11  1  0  0  0  0
 13  2  1  0  0  0  0
 15 14  2  6  0  0  0
 15 13  1  0  0  0  0
 15 18  1  0  0  0  0
 16 15  1  0  0  0  0
 17 16  1  0  0  0  0
 18 19  1  0  0  0  0
 19 20  1  0  0  0  0
 20 25  1  0  0  0  0
 20 21  2  0  0  0  0
 21 26  1  0  0  0  0
 22 21  1  0  0  0  0
 23 22  2  0  0  0  0
 24 19  2  0  0  0  0
 24 23  1  0  0  0  0
 27 23  1  0  0  0  0
 29 28  1  1  0  0  0
 29 30  1  0  0  0  0
 30 31  1  0  0  0  0
 32 30  1  0  0  0  0
 33 32  1  0  0  0  0
 34 32  1  0  0  0  0
 35 36  1  0  0  0  0
 35 29  1  0  0  0  0
 35 34  1  0  0  0  0
M  END
>  <minimizedAffinity>
-4.94174433

$$$$

 OpenBabel03272503513D

 36 38  0  0  1  0  0  0  0  0999 V2000
   37.3670   26.3200   34.3740 C   0  0  1  0  0  0  0  0  0  0  0  0
   38.2530   26.8250   33.2110 C   0  0  2  0  0  0  0  0  0  0  0  0
   39.3620   27.2860   33.8450 O   0  0  0  0  0  0  0  0  0  0  0  0
   39.6710   26.3110   34.7710 C   0  0  0  0  0  0  0  0  0  0  0  0
   38.4010   25.7120   35.2790 C   0  0  2  0  0  0  0  0  0  0  0  0
   36.6940   25.5730   33.9210 H   0  0  0  0  0  0  0  0  0  0  0  0
   38.4090   25.9450   32.5250 H   0  0  0  0  0  0  0  0  0  0  0  0
   40.3530   26.6740   35.5650 H   0  0  0  0  0  0  0  0  0  0  0  0
   40.2540   25.5120   34.2290 H   0  0  0  0  0  0  0  0  0  0  0  0
   38.1930   26.0760   36.2940 H   0  0  0  0  0  0  0  0  0  0  0  0
   36.6540   27.3680   34.9230 O   0  0  0  0  0  0  0  0  0  0  0  0
   35.7550   27.4460   34.5510 H   0  0  0  0  0  0  0  0  0  0  0  0
   37.4790   27.7400   32.5610 O   0  0  0  0  0  0  0  0  0  0  0  0
   37.0500   28.7480   30.1600 O   0  0  0  0  0  0  0  0  0  0  0  0
   37.3150   27.4510   30.9110 P   0  0  1  0  0  0  0  0  0  0  0  0
   38.7690   26.8630   30.2750 O   0  0  0  0  0  0  0  0  0  0  0  0
   39.5020   27.4920   30.3550 H   0  0  0  0  0  0  0  0  0  0  0  0
   36.0860   26.2910   30.7130 O   0  0  0  0  0  0  0  0  0  0  0  0
   36.3110   24.9360   30.9530 C   0  0  0  0  0  0  0  0  0  0  0  0
   35.4010   24.0490   31.5600 C   0  0  0  0  0  0  0  0  0  0  0  0
   35.7910   22.7260   31.7230 C   0  0  0  0  0  0  0  0  0  0  0  0
   37.0360   22.3480   31.2870 N   0  0  0  0  0  0  0  0  0  0  0  0
   37.8900   23.2300   30.7050 C   0  0  0  0  0  0  0  0  0  0  0  0
   37.5280   24.5280   30.5360 N   0  0  0  0  0  0  0  0  0  0  0  0
   34.4560   24.4830   31.8530 H   0  0  0  0  0  0  0  0  0  0  0  0
   35.0900   22.0650   32.1840 H   0  0  0  0  0  0  0  0  0  0  0  0
   38.8630   22.8910   30.3760 H   0  0  0  0  0  0  0  0  0  0  0  0
   38.4140   24.3390   35.1440 O   0  0  0  0  0  0  0  0  0  0  0  0
   38.4060   23.6320   36.3030 C   0  0  2  0  0  3  0  0  0  0  0  0
   38.0310   24.3670   37.5480 C   0  0  0  0  0  3  0  0  0  0  0  0
   36.9450   24.5850   37.6180 H   0  0  0  0  0  0  0  0  0  0  0  0
   38.5010   23.3640   38.5850 C   0  0  0  0  0  3  0  0  0  0  0  0
   37.7450   22.5540   38.6090 H   0  0  0  0  0  0  0  0  0  0  0  0
   39.7050   22.9230   38.0960 O   0  0  0  0  0  0  0  0  0  0  0  0
   39.7030   23.0010   36.7170 C   0  0  0  0  0  3  0  0  0  0  0  0
   40.5950   23.5790   36.4170 H   0  0  0  0  0  0  0  0  0  0  0  0
  1  6  1  6  0  0  0
  1 11  1  0  0  0  0
  1  5  1  0  0  0  0
  2  7  1  6  0  0  0
  2  3  1  0  0  0  0
  2  1  1  0  0  0  0
  3  4  1  0  0  0  0
  4  5  1  0  0  0  0
  4  8  1  0  0  0  0
  5 10  1  1  0  0  0
  9  4  1  0  0  0  0
 12 11  1  0  0  0  0
 13  2  1  0  0  0  0
 15 14  2  6  0  0  0
 15 13  1  0  0  0  0
 16 17  1  0  0  0  0
 16 15  1  0  0  0  0
 18 15  1  0  0  0  0
 18 19  1  0  0  0  0
 19 20  1  0  0  0  0
 20 21  2  0  0  0  0
 20 25  1  0  0  0  0
 21 26  1  0  0  0  0
 22 21  1  0  0  0  0
 23 22  2  0  0  0  0
 24 23  1  0  0  0  0
 24 19  2  0  0  0  0
 27 23  1  0  0  0  0
 28  5  1  0  0  0  0
 29 28  1  6  0  0  0
 29 35  1  0  0  0  0
 29 30  1  0  0  0  0
 30 31  1  0  0  0  0
 30 32  1  0  0  0  0
 32 33  1  0  0  0  0
 34 32  1  0  0  0  0
 35 34  1  0  0  0  0
 36 35  1  0  0  0  0
M  END
>  <minimizedAffinity>
-4.91898823

$$$$
