
 OpenBabel03272508283D

 37 40  0  0  1  0  0  0  0  0999 V2000
   33.8610   28.9010   47.2500 C   0  0  2  0  0  0  0  0  0  0  0  0
   34.5730   28.1480   48.3630 C   0  0  2  0  0  0  0  0  0  0  0  0
   33.6520   28.0130   49.3640 O   0  0  0  0  0  0  0  0  0  0  0  0
   32.3900   28.0840   48.8680 C   0  0  0  0  0  0  0  0  0  0  0  0
   32.4750   28.2550   47.3670 C   0  0  1  0  0  0  0  0  0  0  0  0
   33.7070   29.9560   47.4900 H   0  0  0  0  0  0  0  0  0  0  0  0
   34.8600   27.1710   47.9040 H   0  0  0  0  0  0  0  0  0  0  0  0
   31.7940   27.2000   49.1580 H   0  0  0  0  0  0  0  0  0  0  0  0
   31.9060   29.0040   49.2960 H   0  0  0  0  0  0  0  0  0  0  0  0
   32.5290   27.2560   46.8900 H   0  0  0  0  0  0  0  0  0  0  0  0
   35.6480   30.3960   49.0530 C   0  0  1  0  0  0  0  0  0  0  0  0
   35.7380   28.9800   48.7910 C   0  0  1  0  0  0  0  0  0  0  0  0
   35.9150   29.4210   50.2080 C   0  0  0  0  0  0  0  0  0  0  0  0
   34.7480   30.9910   49.2730 H   0  0  0  0  0  0  0  0  0  0  0  0
   36.7000   28.6260   48.3190 H   0  0  0  0  0  0  0  0  0  0  0  0
   35.0810   29.1540   50.8820 H   0  0  0  0  0  0  0  0  0  0  0  0
   36.9050   29.4140   50.6840 H   0  0  0  0  0  0  0  0  0  0  0  0
   36.8320   31.3170   48.8130 C   0  0  0  0  0  0  0  0  0  0  0  0
   37.0610   32.3290   49.7460 C   0  0  0  0  0  0  0  0  0  0  0  0
   38.1410   33.1560   49.4640 C   0  0  0  0  0  0  0  0  0  0  0  0
   38.9060   32.9610   48.3390 N   0  0  0  0  0  0  0  0  0  0  0  0
   38.6430   31.9640   47.4650 C   0  0  0  0  0  0  0  0  0  0  0  0
   37.5970   31.1350   47.7050 N   0  0  0  0  0  0  0  0  0  0  0  0
   36.4320   32.4350   50.6050 H   0  0  0  0  0  0  0  0  0  0  0  0
   38.3510   33.9540   50.1640 H   0  0  0  0  0  0  0  0  0  0  0  0
   39.2780   31.8600   46.6010 H   0  0  0  0  0  0  0  0  0  0  0  0
   34.4120   28.6940   45.9990 O   0  0  0  0  0  0  0  0  0  0  0  0
   34.3890   27.7190   45.8190 H   0  0  0  0  0  0  0  0  0  0  0  0
   31.5000   29.0520   46.8300 O   0  0  0  0  0  0  0  0  0  0  0  0
   30.7750   28.4680   45.8120 C   0  0  2  0  0  3  0  0  0  0  0  0
   31.1990   27.0340   45.5490 C   0  0  0  0  0  3  0  0  0  0  0  0
   30.6130   26.2950   46.0920 H   0  0  0  0  0  0  0  0  0  0  0  0
   30.8400   26.9210   44.0760 C   0  0  0  0  0  3  0  0  0  0  0  0
   29.7700   26.6040   43.9670 H   0  0  0  0  0  0  0  0  0  0  0  0
   31.0700   28.1580   43.5080 O   0  0  0  0  0  0  0  0  0  0  0  0
   31.1800   29.1090   44.5090 C   0  0  0  0  0  3  0  0  0  0  0  0
   30.6470   30.0550   44.2900 H   0  0  0  0  0  0  0  0  0  0  0  0
  1  5  1  0  0  0  0
  1  6  1  1  0  0  0
  1  2  1  0  0  0  0
  2  7  1  6  0  0  0
  2 12  1  0  0  0  0
  2  3  1  0  0  0  0
  4  8  1  0  0  0  0
  4  9  1  0  0  0  0
  4  3  1  0  0  0  0
  5 10  1  6  0  0  0
  5  4  1  0  0  0  0
 11 14  1  6  0  0  0
 11 13  1  0  0  0  0
 12 15  1  6  0  0  0
 12 11  1  0  0  0  0
 12 13  1  0  0  0  0
 13 17  1  0  0  0  0
 13 16  1  0  0  0  0
 18 11  1  0  0  0  0
 18 19  1  0  0  0  0
 19 24  1  0  0  0  0
 20 19  2  0  0  0  0
 20 25  1  0  0  0  0
 21 20  1  0  0  0  0
 22 23  1  0  0  0  0
 22 21  2  0  0  0  0
 23 18  2  0  0  0  0
 26 22  1  0  0  0  0
 27  1  1  0  0  0  0
 28 27  1  0  0  0  0
 29  5  1  0  0  0  0
 30 29  1  1  0  0  0
 31 30  1  0  0  0  0
 31 32  1  0  0  0  0
 33 31  1  0  0  0  0
 34 33  1  0  0  0  0
 35 33  1  0  0  0  0
 35 36  1  0  0  0  0
 36 30  1  0  0  0  0
 37 36  1  0  0  0  0
M  END
>  <minimizedAffinity>
-4.66249561

>  <minimizedRMSD>
0.310594499

$$$$
