
 OpenBabel03272503503D

 36 38  0  0  1  0  0  0  0  0999 V2000
   33.1090   27.3400   45.8800 C   0  0  1  0  0  0  0  0  0  0  0  0
   33.9250   27.4780   47.1870 C   0  0  2  0  0  0  0  0  0  0  0  0
   33.8280   26.2440   47.7440 O   0  0  0  0  0  0  0  0  0  0  0  0
   34.0540   25.3670   46.7040 C   0  0  0  0  0  0  0  0  0  0  0  0
   33.4850   25.9500   45.4520 C   0  0  2  0  0  0  0  0  0  0  0  0
   33.5020   28.1210   45.2090 H   0  0  0  0  0  0  0  0  0  0  0  0
   34.9620   27.7990   46.8810 H   0  0  0  0  0  0  0  0  0  0  0  0
   33.7070   24.3390   46.9270 H   0  0  0  0  0  0  0  0  0  0  0  0
   35.1720   25.2770   46.5840 H   0  0  0  0  0  0  0  0  0  0  0  0
   32.5540   25.4330   45.1860 H   0  0  0  0  0  0  0  0  0  0  0  0
   31.7640   27.5290   46.1340 O   0  0  0  0  0  0  0  0  0  0  0  0
   31.4760   28.4460   45.9680 H   0  0  0  0  0  0  0  0  0  0  0  0
   33.3380   28.5130   47.8520 O   0  0  0  0  0  0  0  0  0  0  0  0
   35.3490   29.8370   46.7680 O   0  0  0  0  0  0  0  0  0  0  0  0
   34.0990   29.9970   47.6200 P   0  0  1  0  0  0  0  0  0  0  0  0
   33.0950   31.0350   46.7380 O   0  0  0  0  0  0  0  0  0  0  0  0
   32.8950   30.7070   45.8480 H   0  0  0  0  0  0  0  0  0  0  0  0
   34.4080   30.6610   49.1570 O   0  0  0  0  0  0  0  0  0  0  0  0
   35.6430   30.5080   49.7860 C   0  0  0  0  0  0  0  0  0  0  0  0
   35.9790   29.4880   50.6980 C   0  0  0  0  0  0  0  0  0  0  0  0
   37.2600   29.4880   51.2320 C   0  0  0  0  0  0  0  0  0  0  0  0
   38.1340   30.4740   50.8490 N   0  0  0  0  0  0  0  0  0  0  0  0
   37.7780   31.4440   49.9670 C   0  0  0  0  0  0  0  0  0  0  0  0
   36.5290   31.4630   49.4320 N   0  0  0  0  0  0  0  0  0  0  0  0
   35.1920   28.7780   50.9080 H   0  0  0  0  0  0  0  0  0  0  0  0
   37.5000   28.7080   51.9220 H   0  0  0  0  0  0  0  0  0  0  0  0
   38.4970   32.2030   49.6920 H   0  0  0  0  0  0  0  0  0  0  0  0
   34.4360   25.9920   44.4530 O   0  0  0  0  0  0  0  0  0  0  0  0
   34.0240   25.5690   43.2300 C   0  0  2  0  0  3  0  0  0  0  0  0
   33.6840   26.6180   42.2240 C   0  0  0  0  0  3  0  0  0  0  0  0
   34.5760   27.1260   41.8010 H   0  0  0  0  0  0  0  0  0  0  0  0
   32.9520   25.7640   41.2050 C   0  0  0  0  0  3  0  0  0  0  0  0
   33.7270   25.2060   40.6410 H   0  0  0  0  0  0  0  0  0  0  0  0
   32.1780   24.9280   41.9720 O   0  0  0  0  0  0  0  0  0  0  0  0
   32.7900   24.7160   43.1920 C   0  0  0  0  0  3  0  0  0  0  0  0
   32.0540   24.9620   43.9770 H   0  0  0  0  0  0  0  0  0  0  0  0
  1  6  1  6  0  0  0
  1 11  1  0  0  0  0
  1  2  1  0  0  0  0
  2  7  1  6  0  0  0
  2  3  1  0  0  0  0
  2 13  1  0  0  0  0
  4  8  1  0  0  0  0
  4  3  1  0  0  0  0
  5 10  1  6  0  0  0
  5  1  1  0  0  0  0
  5  4  1  0  0  0  0
  9  4  1  0  0  0  0
 12 11  1  0  0  0  0
 15 14  2  6  0  0  0
 15 13  1  0  0  0  0
 15 18  1  0  0  0  0
 16 15  1  0  0  0  0
 17 16  1  0  0  0  0
 18 19  1  0  0  0  0
 19 20  1  0  0  0  0
 20 25  1  0  0  0  0
 20 21  2  0  0  0  0
 21 26  1  0  0  0  0
 22 21  1  0  0  0  0
 23 22  2  0  0  0  0
 24 19  2  0  0  0  0
 24 23  1  0  0  0  0
 27 23  1  0  0  0  0
 28  5  1  0  0  0  0
 29 28  1  1  0  0  0
 30 29  1  0  0  0  0
 31 30  1  0  0  0  0
 32 34  1  0  0  0  0
 32 30  1  0  0  0  0
 33 32  1  0  0  0  0
 34 35  1  0  0  0  0
 35 29  1  0  0  0  0
 35 36  1  0  0  0  0
M  END
>  <minimizedAffinity>
-3.85721302

>  <minimizedRMSD>
0.158731505

$$$$
