
 OpenBabel03272503343D

 40 43  0  0  1  0  0  0  0  0999 V2000
   35.1430   29.4490   47.9460 C   0  0  0  0  0  0  0  0  0  0  0  0
   34.9710   30.0730   46.7080 C   0  0  0  0  0  0  0  0  0  0  0  0
   33.8080   29.7710   45.9880 C   0  0  0  0  0  0  0  0  0  0  0  0
   32.9260   28.8790   46.5640 N   0  0  0  0  0  0  0  0  0  0  0  0
   33.1410   28.3130   47.7510 C   0  0  0  0  0  0  0  0  0  0  0  0
   34.2470   28.5910   48.4490 N   0  0  0  0  0  0  0  0  0  0  0  0
   35.6450   30.7600   46.2580 H   0  0  0  0  0  0  0  0  0  0  0  0
   33.6200   30.2160   45.0350 H   0  0  0  0  0  0  0  0  0  0  0  0
   36.3380   29.7670   48.6740 N   0  0  0  0  0  0  0  0  0  0  0  0
   37.4570   30.5300   48.2040 C   0  0  0  0  0  0  0  0  0  0  0  0
   38.0100   31.1230   49.5000 C   0  0  2  0  0  0  0  0  0  0  0  0
   37.0390   30.7180   50.6030 C   0  0  0  0  0  0  0  0  0  0  0  0
   36.6370   29.3640   50.0420 C   0  0  0  0  0  0  0  0  0  0  0  0
   38.1950   29.9450   47.6460 H   0  0  0  0  0  0  0  0  0  0  0  0
   37.0540   31.3800   47.5980 H   0  0  0  0  0  0  0  0  0  0  0  0
   39.0020   30.6860   49.6510 H   0  0  0  0  0  0  0  0  0  0  0  0
   37.6330   30.5610   51.5130 H   0  0  0  0  0  0  0  0  0  0  0  0
   36.2090   31.4150   50.6910 H   0  0  0  0  0  0  0  0  0  0  0  0
   35.7480   28.9500   50.5330 H   0  0  0  0  0  0  0  0  0  0  0  0
   37.5290   28.7160   50.1010 H   0  0  0  0  0  0  0  0  0  0  0  0
   38.1780   32.6170   49.4220 C   0  0  0  0  0  0  0  0  0  0  0  0
   37.0290   33.1760   49.9420 F   0  0  0  0  0  0  0  0  0  0  0  0
   38.2020   32.9520   48.0820 F   0  0  0  0  0  0  0  0  0  0  0  0
   39.3040   33.0690   50.0550 F   0  0  0  0  0  0  0  0  0  0  0  0
   31.9500   27.1710   48.4200 S   0  0  0  0  0  0  0  0  0  0  0  0
   30.4420   27.7590   48.8780 C   0  0  0  0  0  0  0  0  0  0  0  0
   29.6580   27.9610   49.9760 C   0  0  0  0  0  0  0  0  0  0  0  0
   28.4120   28.4870   49.9770 C   0  0  0  0  0  0  0  0  0  0  0  0
   27.9400   28.8450   48.6130 C   0  0  0  0  0  0  0  0  0  0  0  0
   29.3280   28.3890   47.5120 S   0  0  0  0  0  0  0  0  0  0  0  0
   30.1690   27.6420   50.8710 H   0  0  0  0  0  0  0  0  0  0  0  0
   27.8000   28.6460   50.8240 H   0  0  0  0  0  0  0  0  0  0  0  0
   26.6330   29.4280   48.3480 C   0  0  2  0  0  0  0  0  0  0  0  0
   26.5060   30.8890   48.7240 C   0  0  0  0  0  0  0  0  0  0  0  0
   27.0320   31.0500   49.6890 H   0  0  0  0  0  0  0  0  0  0  0  0
   25.0110   30.9850   48.9240 C   0  0  0  0  0  0  0  0  0  0  0  0
   24.5910   31.3180   47.9350 H   0  0  0  0  0  0  0  0  0  0  0  0
   24.5470   29.7470   49.3280 O   0  0  0  0  0  0  0  0  0  0  0  0
   25.5060   28.8020   49.0970 C   0  0  0  0  0  0  0  0  0  0  0  0
   25.8240   28.3020   50.0380 H   0  0  0  0  0  0  0  0  0  0  0  0
  1  6  1  0  0  0  0
  1  9  1  0  0  0  0
  2  1  2  0  0  0  0
  3  4  2  0  0  0  0
  3  2  1  0  0  0  0
  4  5  1  0  0  0  0
  5 25  1  0  0  0  0
  5  6  2  0  0  0  0
  7  2  1  0  0  0  0
  8  3  1  0  0  0  0
  9 13  1  0  0  0  0
 10  9  1  0  0  0  0
 10 11  1  0  0  0  0
 11 16  1  1  0  0  0
 11 12  1  0  0  0  0
 12 18  1  0  0  0  0
 12 17  1  0  0  0  0
 13 20  1  0  0  0  0
 13 19  1  0  0  0  0
 13 12  1  0  0  0  0
 14 10  1  0  0  0  0
 15 10  1  0  0  0  0
 21 11  1  0  0  0  0
 21 22  1  0  0  0  0
 21 24  1  0  0  0  0
 23 21  1  0  0  0  0
 25 26  1  0  0  0  0
 26 27  2  0  0  0  0
 27 28  1  0  0  0  0
 27 31  1  0  0  0  0
 28 32  1  0  0  0  0
 29 28  2  0  0  0  0
 30 29  1  0  0  0  0
 30 26  1  0  0  0  0
 33 29  1  1  0  0  0
 33 34  1  0  0  0  0
 33 39  1  0  0  0  0
 34 36  1  0  0  0  0
 34 35  1  0  0  0  0
 36 38  1  0  0  0  0
 37 36  1  0  0  0  0
 39 38  1  0  0  0  0
 39 40  1  0  0  0  0
M  END
>  <minimizedAffinity>
-7.55081081

>  <minimizedRMSD>
0.192222267

$$$$
