REMARK  Name = 
REMARK  4 active torsions:
REMARK  status: ('A' for Active; 'I' for Inactive)
REMARK    1  A    between atoms: C_1  and  O_13
REMARK    2  A    between atoms: C_2  and  C_8
REMARK    3  A    between atoms: C_6  and  O_14
REMARK    4  A    between atoms: C_9  and  C_22
REMARK                            x       y       z     vdW  Elec       q    Type
REMARK                         _______ _______ _______ _____ _____    ______ ____
ROOT
ATOM      1  C   UNL     1      36.199  31.003  49.363  0.00  0.00    +0.000 A 
ATOM      2  C   UNL     1      37.546  31.190  49.742  0.00  0.00    +0.000 A 
ATOM      3  C   UNL     1      38.017  30.438  50.810  0.00  0.00    +0.000 A 
ATOM      4  N   UNL     1      37.188  29.568  51.439  0.00  0.00    +0.000 NA
ATOM      5  C   UNL     1      35.891  29.414  51.044  0.00  0.00    +0.000 A 
ATOM      6  N   UNL     1      35.402  30.131  50.009  0.00  0.00    +0.000 NA
ATOM      7  H   UNL     1      35.764  31.551  48.545  0.00  0.00    +0.000 HD
ATOM      8  H   UNL     1      35.316  28.690  51.618  0.00  0.00    +0.000 HD
ENDROOT
BRANCH   2  10
ATOM      9  C   UNL     1      38.882  31.888  47.771  0.00  0.00    +0.000 A 
ATOM     10  C   UNL     1      38.352  32.121  49.033  0.00  0.00    +0.000 A 
ATOM     11  C   UNL     1      38.683  33.362  49.551  0.00  0.00    +0.000 A 
ATOM     12  C   UNL     1      39.474  34.288  48.867  0.00  0.00    +0.000 A 
ATOM     13  C   UNL     1      39.956  33.948  47.598  0.00  0.00    +0.000 A 
ATOM     14  C   UNL     1      39.653  32.724  47.042  0.00  0.00    +0.000 A 
ATOM     15  H   UNL     1      38.345  33.684  50.518  0.00  0.00    +0.000 HD
ATOM     16  H   UNL     1      39.717  35.250  49.293  0.00  0.00    +0.000 HD
ATOM     17  H   UNL     1      40.570  34.664  47.065  0.00  0.00    +0.000 HD
BRANCH   9  18
ATOM     18  O   UNL     1      38.608  30.652  47.148  0.00  0.00    +0.000 OA
ATOM     19  H   UNL     1      39.272  30.203  46.518  0.00  0.00    +0.000 HD
ENDBRANCH   9  18
BRANCH  14  20
ATOM     20  O   UNL     1      40.150  32.428  45.785  0.00  0.00    +0.000 OA
ATOM     21  H   UNL     1      39.562  32.339  44.962  0.00  0.00    +0.000 HD
ENDBRANCH  14  20
ENDBRANCH   2  10
BRANCH   3  22
ATOM     22  C   UNL     1      39.414  30.577  51.267  0.00  0.00    +0.000 C 
ATOM     23  C   UNL     1      40.266  31.309  50.274  0.00  0.00    +0.000 C 
ATOM     24  H   UNL     1      39.806  31.399  49.270  0.00  0.00    +0.000 HD
ATOM     25  C   UNL     1      40.476  32.666  50.879  0.00  0.00    +0.000 C 
ATOM     26  H   UNL     1      40.262  33.461  50.130  0.00  0.00    +0.000 HD
ATOM     27  O   UNL     1      39.599  32.766  51.956  0.00  0.00    +0.000 OA
ATOM     28  C   UNL     1      39.418  31.505  52.461  0.00  0.00    +0.000 C 
ATOM     29  H   UNL     1      38.428  31.480  52.983  0.00  0.00    +0.000 HD
ENDBRANCH   3  22
TORSDOF 4
