
 OpenBabel03272508123D

 33 35  0  0  1  0  0  0  0  0999 V2000
   36.6500   29.4550   44.0740 Cl  0  0  0  0  0  0  0  0  0  0  0  0
   38.2820   29.8410   43.5160 C   0  0  0  0  0  0  0  0  0  0  0  0
   39.2930   30.3180   44.3510 C   0  0  0  0  0  0  0  0  0  0  0  0
   40.5370   30.5830   43.7790 C   0  0  0  0  0  0  0  0  0  0  0  0
   40.7340   30.3720   42.4350 C   0  0  0  0  0  0  0  0  0  0  0  0
   39.7600   29.9080   41.6010 C   0  0  0  0  0  0  0  0  0  0  0  0
   38.5340   29.6440   42.1500 C   0  0  0  0  0  0  0  0  0  0  0  0
   41.2430   30.9460   44.5120 H   0  0  0  0  0  0  0  0  0  0  0  0
   41.7410   30.6090   42.0810 H   0  0  0  0  0  0  0  0  0  0  0  0
   40.0060   29.7730   40.5580 H   0  0  0  0  0  0  0  0  0  0  0  0
   37.4600   29.1360   41.2570 C   0  0  2  0  0  3  0  0  0  0  0  0
   38.0130   28.4850   39.9980 C   0  0  0  0  0  3  0  0  0  0  0  0
   39.1070   28.3920   39.9940 H   0  0  0  0  0  0  0  0  0  0  0  0
   37.5010   29.4200   38.9230 C   0  0  0  0  0  3  0  0  0  0  0  0
   38.2510   29.5450   38.1000 H   0  0  0  0  0  0  0  0  0  0  0  0
   37.2560   30.6300   39.5650 O   0  0  0  0  0  0  0  0  0  0  0  0
   36.5990   30.2210   40.7220 C   0  0  0  0  0  3  0  0  0  0  0  0
   35.6550   29.7290   40.3510 H   0  0  0  0  0  0  0  0  0  0  0  0
   38.8790   30.4520   45.6470 O   0  0  0  0  0  0  0  0  0  0  0  0
   39.4440   32.5120   47.1160 O   0  0  0  0  0  0  0  0  0  0  0  0
   38.3170   31.8350   46.4230 P   0  0  1  0  0  0  0  0  0  0  0  0
   37.7220   32.8470   45.1820 O   0  0  0  0  0  0  0  0  0  0  0  0
   38.5050   33.1990   44.6710 H   0  0  0  0  0  0  0  0  0  0  0  0
   37.0290   31.4060   47.4400 O   0  0  0  0  0  0  0  0  0  0  0  0
   37.6080   30.5290   50.9870 C   0  0  0  0  0  0  0  0  0  0  0  0
   37.7050   31.3010   49.8250 C   0  0  0  0  0  0  0  0  0  0  0  0
   37.0700   30.8340   48.6650 C   0  0  0  0  0  0  0  0  0  0  0  0
   36.3920   29.6540   48.7310 N   0  0  0  0  0  0  0  0  0  0  0  0
   36.3240   28.9420   49.8730 C   0  0  0  0  0  0  0  0  0  0  0  0
   36.9280   29.3800   50.9890 N   0  0  0  0  0  0  0  0  0  0  0  0
   38.1210   30.9420   51.8540 H   0  0  0  0  0  0  0  0  0  0  0  0
   38.2220   32.2410   49.6990 H   0  0  0  0  0  0  0  0  0  0  0  0
   35.7910   28.0020   49.9490 H   0  0  0  0  0  0  0  0  0  0  0  0
  2  1  1  0  0  0  0
  2  3  1  0  0  0  0
  3 19  1  0  0  0  0
  4  3  2  0  0  0  0
  4  8  1  0  0  0  0
  5  4  1  0  0  0  0
  6  7  1  0  0  0  0
  6  5  2  0  0  0  0
  7  2  2  0  0  0  0
  9  5  1  0  0  0  0
 10  6  1  0  0  0  0
 11  7  1  1  0  0  0
 12 11  1  0  0  0  0
 13 12  1  0  0  0  0
 14 16  1  0  0  0  0
 14 12  1  0  0  0  0
 15 14  1  0  0  0  0
 16 17  1  0  0  0  0
 17 11  1  0  0  0  0
 18 17  1  0  0  0  0
 19 21  1  0  0  0  0
 21 20  2  1  0  0  0
 21 24  1  0  0  0  0
 22 21  1  0  0  0  0
 23 22  1  0  0  0  0
 24 27  1  0  0  0  0
 25 30  1  0  0  0  0
 25 31  1  0  0  0  0
 26 25  2  0  0  0  0
 27 28  2  0  0  0  0
 27 26  1  0  0  0  0
 28 29  1  0  0  0  0
 29 33  1  0  0  0  0
 29 30  2  0  0  0  0
 32 26  1  0  0  0  0
M  END
>  <minimizedAffinity>
-4.84073353

>  <minimizedRMSD>
1.10349584

$$$$
