
 OpenBabel03262523553D

 33 35  0  0  1  0  0  0  0  0999 V2000
   37.2410   30.1130   47.0410 C   0  0  1  0  0  0  0  0  0  0  0  0
   36.7370   30.8020   45.8660 C   0  0  0  0  0  0  0  0  0  0  0  0
   37.5860   30.5000   44.6780 C   0  0  0  0  0  0  0  0  0  0  0  0
   38.9950   30.2400   45.0420 C   0  0  0  0  0  0  0  0  0  0  0  0
   39.4770   30.8400   46.3110 C   0  0  0  0  0  0  0  0  0  0  0  0
   38.5240   30.8190   47.4830 C   0  0  1  0  0  0  0  0  0  0  0  0
   37.5790   29.0770   46.7760 H   0  0  0  0  0  0  0  0  0  0  0  0
   35.7230   30.3450   45.6230 H   0  0  0  0  0  0  0  0  0  0  0  0
   36.5230   31.8660   45.9540 H   0  0  0  0  0  0  0  0  0  0  0  0
   37.1890   29.6730   44.0470 H   0  0  0  0  0  0  0  0  0  0  0  0
   37.5690   31.4050   44.0110 H   0  0  0  0  0  0  0  0  0  0  0  0
   39.6600   30.5770   44.2280 H   0  0  0  0  0  0  0  0  0  0  0  0
   39.1390   29.1260   45.0780 H   0  0  0  0  0  0  0  0  0  0  0  0
   39.7860   31.8860   46.0550 H   0  0  0  0  0  0  0  0  0  0  0  0
   40.4470   30.3540   46.5490 H   0  0  0  0  0  0  0  0  0  0  0  0
   38.9790   30.1040   48.2080 H   0  0  0  0  0  0  0  0  0  0  0  0
   35.9300   29.1570   50.3880 C   0  0  0  0  0  0  0  0  0  0  0  0
   36.7810   29.2400   49.2620 C   0  0  0  0  0  0  0  0  0  0  0  0
   36.3580   30.0420   48.2100 C   0  0  0  0  0  0  0  0  0  0  0  0
   35.1570   30.7130   48.2940 N   0  0  0  0  0  0  0  0  0  0  0  0
   34.3840   30.6050   49.3810 C   0  0  0  0  0  0  0  0  0  0  0  0
   34.7560   29.8320   50.4350 N   0  0  0  0  0  0  0  0  0  0  0  0
   36.1440   28.5690   51.2710 H   0  0  0  0  0  0  0  0  0  0  0  0
   37.6550   28.6360   49.4070 H   0  0  0  0  0  0  0  0  0  0  0  0
   33.4350   31.1270   49.4610 H   0  0  0  0  0  0  0  0  0  0  0  0
   38.3540   32.0860   48.1820 C   0  0  2  0  0  0  0  0  0  0  0  0
   39.0540   33.3140   47.8640 C   0  0  0  0  0  0  0  0  0  0  0  0
   38.5920   34.0240   47.1490 H   0  0  0  0  0  0  0  0  0  0  0  0
   38.9130   34.0730   49.2030 C   0  0  0  0  0  0  0  0  0  0  0  0
   37.8750   34.4400   49.2880 H   0  0  0  0  0  0  0  0  0  0  0  0
   39.2080   33.0700   50.1160 O   0  0  0  0  0  0  0  0  0  0  0  0
   38.6530   31.8830   49.6570 C   0  0  0  0  0  0  0  0  0  0  0  0
   37.7450   31.6500   50.2510 H   0  0  0  0  0  0  0  0  0  0  0  0
  1  7  1  6  0  0  0
  1  6  1  0  0  0  0
  1 19  1  0  0  0  0
  2  9  1  0  0  0  0
  2  1  1  0  0  0  0
  3  4  1  0  0  0  0
  3  2  1  0  0  0  0
  4 13  1  0  0  0  0
  4  5  1  0  0  0  0
  5 15  1  0  0  0  0
  5  6  1  0  0  0  0
  6 26  1  0  0  0  0
  6 16  1  1  0  0  0
  8  2  1  0  0  0  0
 10  3  1  0  0  0  0
 11  3  1  0  0  0  0
 12  4  1  0  0  0  0
 14  5  1  0  0  0  0
 17 22  1  0  0  0  0
 17 23  1  0  0  0  0
 18 24  1  0  0  0  0
 18 17  2  0  0  0  0
 19 20  2  0  0  0  0
 19 18  1  0  0  0  0
 20 21  1  0  0  0  0
 21 25  1  0  0  0  0
 21 22  2  0  0  0  0
 26 27  1  6  0  0  0
 26 32  1  0  0  0  0
 27 29  1  0  0  0  0
 28 27  1  0  0  0  0
 29 30  1  0  0  0  0
 29 31  1  0  0  0  0
 32 31  1  0  0  0  0
 32 33  1  0  0  0  0
M  END
>  <minimizedAffinity>
-4.50845242

>  <minimizedRMSD>
1.94550538

$$$$
