
 OpenBabel03272506093D

 43 46  0  0  1  0  0  0  0  0999 V2000
   34.9010   28.4790   49.0430 C   0  0  0  0  0  0  0  0  0  0  0  0
   35.7860   28.3510   48.3830 H   0  0  0  0  0  0  0  0  0  0  0  0
   34.9610   27.6250   49.7600 H   0  0  0  0  0  0  0  0  0  0  0  0
   33.6380   28.3310   48.2370 C   0  0  0  0  0  0  0  0  0  0  0  0
   33.6750   28.5880   46.8150 C   0  0  0  0  0  0  0  0  0  0  0  0
   31.9840   28.2790   46.3800 S   0  0  0  0  0  0  0  0  0  0  0  0
   31.4410   27.8520   48.1250 C   0  0  0  0  0  0  0  0  0  0  0  0
   32.4830   27.9870   48.7110 N   0  0  0  0  0  0  0  0  0  0  0  0
   30.1470   27.4660   48.6540 N   0  0  0  0  0  0  0  0  0  0  0  0
   29.2680   26.7980   47.7630 C   0  0  0  0  0  0  0  0  0  0  0  0
   27.8470   26.7430   48.2130 C   0  0  0  0  0  0  0  0  0  0  0  0
   27.5790   27.5880   49.3610 N   0  0  0  0  0  0  0  0  0  0  0  0
   28.5230   27.1530   50.3870 C   0  0  0  0  0  0  0  0  0  0  0  0
   29.8400   27.7830   50.0380 C   0  0  0  0  0  0  0  0  0  0  0  0
   34.5070   28.8750   46.2510 H   0  0  0  0  0  0  0  0  0  0  0  0
   29.2660   27.4000   46.8080 H   0  0  0  0  0  0  0  0  0  0  0  0
   29.6160   25.7930   47.4310 H   0  0  0  0  0  0  0  0  0  0  0  0
   27.1230   26.9540   47.3790 H   0  0  0  0  0  0  0  0  0  0  0  0
   27.6210   25.7080   48.5500 H   0  0  0  0  0  0  0  0  0  0  0  0
   27.8310   28.5630   49.0830 H   0  0  0  0  0  0  0  0  0  0  0  0
   28.5870   26.0500   50.4410 H   0  0  0  0  0  0  0  0  0  0  0  0
   28.1540   27.5900   51.3440 H   0  0  0  0  0  0  0  0  0  0  0  0
   29.7710   28.8740   50.2110 H   0  0  0  0  0  0  0  0  0  0  0  0
   30.6270   27.3470   50.6880 H   0  0  0  0  0  0  0  0  0  0  0  0
   34.9670   29.7650   49.7540 C   0  0  0  0  0  0  0  0  0  0  0  0
   34.1080   30.4120   49.4290 H   0  0  0  0  0  0  0  0  0  0  0  0
   34.8820   29.6080   50.8490 H   0  0  0  0  0  0  0  0  0  0  0  0
   37.9270   32.0230   49.8830 C   0  0  0  0  0  0  0  0  0  0  0  0
   38.5200   31.8160   48.6290 C   0  0  0  0  0  0  0  0  0  0  0  0
   37.8910   30.9080   47.7660 C   0  0  0  0  0  0  0  0  0  0  0  0
   36.7570   30.2810   48.1820 N   0  0  0  0  0  0  0  0  0  0  0  0
   36.2270   30.5160   49.4020 C   0  0  0  0  0  0  0  0  0  0  0  0
   36.8090   31.3700   50.2240 N   0  0  0  0  0  0  0  0  0  0  0  0
   38.4170   32.7280   50.5460 H   0  0  0  0  0  0  0  0  0  0  0  0
   39.4060   32.3090   48.3080 H   0  0  0  0  0  0  0  0  0  0  0  0
   38.4150   30.5960   46.4070 C   0  0  2  0  0  3  0  0  0  0  0  0
   39.6770   31.3270   46.0860 C   0  0  0  0  0  3  0  0  0  0  0  0
   40.3970   30.6370   45.5820 H   0  0  0  0  0  0  0  0  0  0  0  0
   39.2640   32.4580   45.1510 C   0  0  0  0  0  3  0  0  0  0  0  0
   39.5960   32.2540   44.1160 H   0  0  0  0  0  0  0  0  0  0  0  0
   37.8800   32.4640   45.1650 O   0  0  0  0  0  0  0  0  0  0  0  0
   37.4450   31.1760   45.3710 C   0  0  0  0  0  3  0  0  0  0  0  0
   36.4220   31.2090   45.8460 H   0  0  0  0  0  0  0  0  0  0  0  0
  1 25  1  0  0  0  0
  1  3  1  0  0  0  0
  2  1  1  0  0  0  0
  4  8  1  0  0  0  0
  4  1  1  0  0  0  0
  5  4  2  0  0  0  0
  6  5  1  0  0  0  0
  6  7  1  0  0  0  0
  7  9  1  0  0  0  0
  7  8  2  0  0  0  0
  9 14  1  0  0  0  0
 10 11  1  0  0  0  0
 10  9  1  0  0  0  0
 11 19  1  0  0  0  0
 11 12  1  0  0  0  0
 12 13  1  0  0  0  0
 13 21  1  0  0  0  0
 13 22  1  0  0  0  0
 14 23  1  0  0  0  0
 14 13  1  0  0  0  0
 14 24  1  0  0  0  0
 15  5  1  0  0  0  0
 16 10  1  0  0  0  0
 17 10  1  0  0  0  0
 18 11  1  0  0  0  0
 20 12  1  0  0  0  0
 25 27  1  0  0  0  0
 26 25  1  0  0  0  0
 28 33  1  0  0  0  0
 28 34  1  0  0  0  0
 29 28  2  0  0  0  0
 30 31  2  0  0  0  0
 30 29  1  0  0  0  0
 31 32  1  0  0  0  0
 32 25  1  0  0  0  0
 32 33  2  0  0  0  0
 35 29  1  0  0  0  0
 36 30  1  1  0  0  0
 37 36  1  0  0  0  0
 38 37  1  0  0  0  0
 39 41  1  0  0  0  0
 39 37  1  0  0  0  0
 40 39  1  0  0  0  0
 41 42  1  0  0  0  0
 42 43  1  0  0  0  0
 42 36  1  0  0  0  0
M  END
>  <minimizedAffinity>
-6.47368813

>  <minimizedRMSD>
1.35300839

$$$$
