
 OpenBabel03272508123D

 33 35  0  0  1  0  0  0  0  0999 V2000
   36.7150   29.3760   43.9770 Cl  0  0  0  0  0  0  0  0  0  0  0  0
   38.3650   29.7830   43.4950 C   0  0  0  0  0  0  0  0  0  0  0  0
   39.3250   30.2890   44.3740 C   0  0  0  0  0  0  0  0  0  0  0  0
   40.5910   30.5680   43.8610 C   0  0  0  0  0  0  0  0  0  0  0  0
   40.8590   30.3440   42.5320 C   0  0  0  0  0  0  0  0  0  0  0  0
   39.9370   29.8510   41.6570 C   0  0  0  0  0  0  0  0  0  0  0  0
   38.6900   29.5720   42.1470 C   0  0  0  0  0  0  0  0  0  0  0  0
   41.2540   30.9530   44.6240 H   0  0  0  0  0  0  0  0  0  0  0  0
   41.8800   30.5940   42.2260 H   0  0  0  0  0  0  0  0  0  0  0  0
   40.2380   29.7070   40.6290 H   0  0  0  0  0  0  0  0  0  0  0  0
   37.6710   29.0330   41.2080 C   0  0  2  0  0  3  0  0  0  0  0  0
   38.2980   28.3270   40.0150 C   0  0  0  0  0  3  0  0  0  0  0  0
   39.3900   28.2280   40.0860 H   0  0  0  0  0  0  0  0  0  0  0  0
   37.8650   29.2200   38.8730 C   0  0  0  0  0  3  0  0  0  0  0  0
   38.6660   29.3070   38.0950 H   0  0  0  0  0  0  0  0  0  0  0  0
   37.5900   30.4580   39.4470 O   0  0  0  0  0  0  0  0  0  0  0  0
   36.8560   30.1010   40.5750 C   0  0  0  0  0  3  0  0  0  0  0  0
   35.9330   29.6000   40.1650 H   0  0  0  0  0  0  0  0  0  0  0  0
   38.8440   30.4330   45.6450 O   0  0  0  0  0  0  0  0  0  0  0  0
   39.4360   32.5190   47.0660 O   0  0  0  0  0  0  0  0  0  0  0  0
   38.2980   31.8340   46.3990 P   0  0  1  0  0  0  0  0  0  0  0  0
   37.6930   32.8240   45.1460 O   0  0  0  0  0  0  0  0  0  0  0  0
   38.4710   33.1610   44.6190 H   0  0  0  0  0  0  0  0  0  0  0  0
   37.0200   31.4320   47.4410 O   0  0  0  0  0  0  0  0  0  0  0  0
   37.6270   30.5290   50.9770 C   0  0  0  0  0  0  0  0  0  0  0  0
   37.7130   31.3100   49.8200 C   0  0  0  0  0  0  0  0  0  0  0  0
   37.0720   30.8510   48.6610 C   0  0  0  0  0  0  0  0  0  0  0  0
   36.3980   29.6670   48.7220 N   0  0  0  0  0  0  0  0  0  0  0  0
   36.3410   28.9460   49.8580 C   0  0  0  0  0  0  0  0  0  0  0  0
   36.9510   29.3770   50.9740 N   0  0  0  0  0  0  0  0  0  0  0  0
   38.1440   30.9370   51.8430 H   0  0  0  0  0  0  0  0  0  0  0  0
   38.2260   32.2530   49.6980 H   0  0  0  0  0  0  0  0  0  0  0  0
   35.8120   28.0040   49.9300 H   0  0  0  0  0  0  0  0  0  0  0  0
  2  1  1  0  0  0  0
  2  3  1  0  0  0  0
  3 19  1  0  0  0  0
  4  3  2  0  0  0  0
  4  8  1  0  0  0  0
  5  4  1  0  0  0  0
  6  7  1  0  0  0  0
  6  5  2  0  0  0  0
  7  2  2  0  0  0  0
  9  5  1  0  0  0  0
 10  6  1  0  0  0  0
 11  7  1  1  0  0  0
 12 13  1  0  0  0  0
 12 11  1  0  0  0  0
 14 16  1  0  0  0  0
 14 12  1  0  0  0  0
 15 14  1  0  0  0  0
 16 17  1  0  0  0  0
 17 11  1  0  0  0  0
 18 17  1  0  0  0  0
 19 21  1  0  0  0  0
 21 20  2  1  0  0  0
 21 24  1  0  0  0  0
 22 21  1  0  0  0  0
 23 22  1  0  0  0  0
 24 27  1  0  0  0  0
 25 31  1  0  0  0  0
 26 25  2  0  0  0  0
 27 28  2  0  0  0  0
 27 26  1  0  0  0  0
 28 29  1  0  0  0  0
 29 33  1  0  0  0  0
 29 30  2  0  0  0  0
 30 25  1  0  0  0  0
 32 26  1  0  0  0  0
M  END
>  <minimizedAffinity>
-4.83771038

>  <minimizedRMSD>
0.225264296

$$$$
