
 OpenBabel03272507513D

 27 29  0  0  1  0  0  0  0  0999 V2000
   36.3180   30.2760   47.2720 C   0  0  0  0  0  0  0  0  0  0  0  0
   36.7670   30.6620   45.9990 C   0  0  0  0  0  0  0  0  0  0  0  0
   35.8480   30.5330   44.9450 C   0  0  0  0  0  0  0  0  0  0  0  0
   34.6060   30.0560   45.2010 N   0  0  0  0  0  0  0  0  0  0  0  0
   34.2110   29.6970   46.4300 C   0  0  0  0  0  0  0  0  0  0  0  0
   35.0750   29.8090   47.4710 N   0  0  0  0  0  0  0  0  0  0  0  0
   36.2010   30.8310   43.9670 H   0  0  0  0  0  0  0  0  0  0  0  0
   33.1950   29.3330   46.4930 H   0  0  0  0  0  0  0  0  0  0  0  0
   38.0910   31.1480   45.8530 N   0  0  0  0  0  0  0  0  0  0  0  0
   38.4520   32.3590   46.2910 C   0  0  0  0  0  0  0  0  0  0  0  0
   39.7680   32.8010   46.1350 C   0  0  0  0  0  0  0  0  0  0  0  0
   40.5840   31.8900   45.5160 C   0  0  0  0  0  0  0  0  0  0  0  0
   41.7960   32.2670   45.3590 O   0  0  0  0  0  0  0  0  0  0  0  0
   40.2590   30.6750   45.0650 N   0  0  0  0  0  0  0  0  0  0  0  0
   38.9640   30.3060   45.2480 C   0  0  0  0  0  0  0  0  0  0  0  0
   38.6390   29.1540   44.8240 O   0  0  0  0  0  0  0  0  0  0  0  0
   37.7460   33.0350   46.7740 H   0  0  0  0  0  0  0  0  0  0  0  0
   40.1240   33.7670   46.4670 H   0  0  0  0  0  0  0  0  0  0  0  0
   40.9720   30.0670   44.6070 H   0  0  0  0  0  0  0  0  0  0  0  0
   37.1410   30.3360   48.4780 C   0  0  2  0  0  3  0  0  0  0  0  0
   36.7870   29.2360   49.4750 C   0  0  0  0  0  3  0  0  0  0  0  0
   37.5100   28.4030   49.4040 H   0  0  0  0  0  0  0  0  0  0  0  0
   36.9910   29.9410   50.7930 C   0  0  0  0  0  3  0  0  0  0  0  0
   36.0360   30.1440   51.3320 H   0  0  0  0  0  0  0  0  0  0  0  0
   37.5520   31.1940   50.4990 O   0  0  0  0  0  0  0  0  0  0  0  0
   36.8880   31.5690   49.3120 C   0  0  0  0  0  3  0  0  0  0  0  0
   37.3710   32.4740   48.9080 H   0  0  0  0  0  0  0  0  0  0  0  0
  1  6  1  0  0  0  0
  2  1  2  0  0  0  0
  3  4  2  0  0  0  0
  3  2  1  0  0  0  0
  4  5  1  0  0  0  0
  5  8  1  0  0  0  0
  5  6  2  0  0  0  0
  7  3  1  0  0  0  0
  9  2  1  0  0  0  0
  9 10  1  0  0  0  0
 10 17  1  0  0  0  0
 11 10  2  0  0  0  0
 11 18  1  0  0  0  0
 12 11  1  0  0  0  0
 13 12  2  0  0  0  0
 14 15  1  0  0  0  0
 14 12  1  0  0  0  0
 15  9  1  0  0  0  0
 16 15  2  0  0  0  0
 19 14  1  0  0  0  0
 20  1  1  6  0  0  0
 20 26  1  0  0  0  0
 20 21  1  0  0  0  0
 21 23  1  0  0  0  0
 22 21  1  0  0  0  0
 23 24  1  0  0  0  0
 25 23  1  0  0  0  0
 26 25  1  0  0  0  0
 27 26  1  0  0  0  0
M  END
>  <minimizedAffinity>
-4.9747386

>  <minimizedRMSD>
2.89264321

$$$$
