
     RDKit          3D

 48 52  0  0  0  0  0  0  0  0999 V2000
   38.1192   30.1529   47.4851 F   0  0  0  0  0  0  0  0  0  0  0  0
   38.3782   31.3962   47.9741 C   0  0  0  0  0  0  0  0  0  0  0  0
   37.7255   31.8341   49.0848 C   0  0  0  0  0  0  0  0  0  0  0  0
   38.0326   33.0934   49.5255 C   0  0  0  0  0  0  0  0  0  0  0  0
   38.9443   33.8894   48.8994 C   0  0  0  0  0  0  0  0  0  0  0  0
   39.5953   33.4185   47.7690 C   0  0  0  0  0  0  0  0  0  0  0  0
   39.2986   32.1475   47.3074 C   0  0  0  0  0  0  0  0  0  0  0  0
   36.0801   29.3700   51.4428 C   0  0  0  0  0  0  0  0  0  0  0  0
   37.0446   30.2253   50.8556 C   0  0  0  0  0  0  0  0  0  0  0  0
   36.7552   30.9417   49.7186 C   0  0  0  0  0  0  0  0  0  0  0  0
   35.4916   30.7821   49.1906 N   0  0  0  0  0  0  0  0  0  0  0  0
   34.5810   29.9719   49.7487 C   0  0  0  0  0  0  0  0  0  0  0  0
   34.8709   29.2833   50.8486 N   0  0  0  0  0  0  0  0  0  0  0  0
   39.2745   31.8988   44.9289 C   0  0  0  0  0  0  0  0  0  0  0  0
   38.1851   32.5488   45.0502 O   0  0  0  0  0  0  0  0  0  0  0  0
   39.9556   31.6427   46.1434 N   0  0  0  0  0  0  0  0  0  0  0  0
   39.1876   32.1979   42.5481 C   0  0  0  0  0  0  0  0  0  0  0  0
   39.7161   31.4882   43.6157 C   0  0  0  0  0  0  0  0  0  0  0  0
   40.5972   30.4657   43.4614 C   0  0  0  0  0  0  0  0  0  0  0  0
   41.0041   30.0949   42.1758 C   0  0  0  0  0  0  0  0  0  0  0  0
   41.8424   29.1664   41.7255 N   0  0  0  0  0  0  0  0  0  0  0  0
   41.8762   29.2495   40.4086 C   0  0  0  0  0  0  0  0  0  0  0  0
   41.0567   30.2328   40.0282 N   0  0  0  0  0  0  0  0  0  0  0  0
   40.4825   30.7950   41.1226 C   0  0  0  0  0  0  0  0  0  0  0  0
   39.5740   31.8522   41.2349 C   0  0  0  0  0  0  0  0  0  0  0  0
   39.0589   32.5477   40.1973 O   0  0  0  0  0  0  0  0  0  0  0  0
   37.5219   33.4665   50.4147 H   0  0  0  0  0  0  0  0  0  0  0  0
   39.1834   34.8833   49.2514 H   0  0  0  0  0  0  0  0  0  0  0  0
   40.3208   34.0392   47.2624 H   0  0  0  0  0  0  0  0  0  0  0  0
   36.3140   28.8086   52.3381 H   0  0  0  0  0  0  0  0  0  0  0  0
   38.0325   30.3252   51.3019 H   0  0  0  0  0  0  0  0  0  0  0  0
   33.6475   29.9734   49.1975 H   0  0  0  0  0  0  0  0  0  0  0  0
   40.8480   31.1270   46.1017 H   0  0  0  0  0  0  0  0  0  0  0  0
   38.4859   33.0138   42.6527 H   0  0  0  0  0  0  0  0  0  0  0  0
   41.0138   29.9080   44.2755 H   0  0  0  0  0  0  0  0  0  0  0  0
   42.4052   28.4627   42.2891 H   0  0  0  0  0  0  0  0  0  0  0  0
   42.4415   28.6632   39.6794 H   0  0  0  0  0  0  0  0  0  0  0  0
   35.8337   32.7569   39.7402 Cl  0  0  0  0  0  0  0  0  0  0  0  0
   37.0662   32.4427   38.5542 C   0  0  0  0  0  0  0  0  0  0  0  0
   38.2978   32.4281   39.1423 C   0  0  0  0  0  0  0  0  0  0  0  0
   39.2874   32.1440   38.1553 C   0  0  0  0  0  0  0  0  0  0  0  0
   40.3965   32.0368   38.1852 H   0  0  0  0  0  0  0  0  0  0  0  0
   39.0339   31.9177   36.8011 C   0  0  0  0  0  0  0  0  0  0  0  0
   39.6865   31.6931   35.9506 H   0  0  0  0  0  0  0  0  0  0  0  0
   37.7191   31.9677   36.3527 C   0  0  0  0  0  0  0  0  0  0  0  0
   37.3731   31.8156   35.3430 H   0  0  0  0  0  0  0  0  0  0  0  0
   36.7300   32.2335   37.2449 C   0  0  0  0  0  0  0  0  0  0  0  0
   35.0498   32.3274   36.8340 Cl  0  0  0  0  0  0  0  0  0  0  0  0
  1  2  1  0
  2  3  2  0
  3  4  1  0
  3 10  1  0
  5  4  2  0
  6  5  1  0
  7  6  2  0
  7  2  1  0
  9  8  2  0
 10  9  1  0
 11 10  2  0
 11 12  1  0
 12 13  2  0
 13  8  1  0
 14 15  2  0
 14 16  1  0
 16  7  1  0
 17 18  2  0
 18 14  1  0
 19 18  1  0
 20 19  2  0
 21 20  1  0
 22 21  1  0
 23 22  2  0
 23 24  1  0
 24 25  2  0
 24 20  1  0
 25 17  1  0
 26 25  1  0
  4 27  1  0
  5 28  1  0
  6 29  1  0
  8 30  1  0
  9 31  1  0
 12 32  1  0
 16 33  1  0
 17 34  1  0
 19 35  1  0
 21 36  1  0
 22 37  1  0
 38 39  1  0
 39 40  2  0
 40 41  1  0
 41 42  1  0
 41 43  2  0
 43 44  1  0
 43 45  1  0
 45 46  1  0
 45 47  2  0
 47 48  1  0
 47 39  1  0
 26 40  1  0
M  ISO  8  27  14  28  14  29  14  30  14  31  14  32  14  34  14  35  14
M  ISO  5  36   9  37  14  42  15  44  15  46  15
M  END
>  <DihAtoms>  (1) 
24,25,39,38

>  <DihDeg>  (1) 
-62.62247879379337

$$$$
