
     RDKit          3D

 40 42  0  0  0  0  0  0  0  0999 V2000
   36.0747   30.6900   49.0669 C   0  0  2  0  0  0  0  0  0  0  0  0
   37.0154   31.6453   49.7435 C   0  0  0  0  0  0  0  0  0  0  0  0
   38.0471   30.9423   50.6006 C   0  0  0  0  0  0  0  0  0  0  0  0
   37.3719   30.0540   51.6463 C   0  0  0  0  0  0  0  0  0  0  0  0
   36.1095   29.3868   51.1496 C   0  0  0  0  0  0  0  0  0  0  0  0
   36.1828   29.3067   49.6165 C   0  0  1  0  0  0  0  0  0  0  0  0
   36.3146   30.6490   47.6022 C   0  0  0  0  0  0  0  0  0  0  0  0
   37.5807   31.1207   47.1799 C   0  0  0  0  0  0  0  0  0  0  0  0
   37.8267   31.0834   45.8013 C   0  0  0  0  0  0  0  0  0  0  0  0
   36.8473   30.6008   44.9605 N   0  0  0  0  0  0  0  0  0  0  0  0
   35.6420   30.1567   45.4247 C   0  0  0  0  0  0  0  0  0  0  0  0
   35.4008   30.1917   46.7477 N   0  0  0  0  0  0  0  0  0  0  0  0
   33.9574   28.1708   49.2551 C   0  0  0  0  0  0  0  0  0  0  0  0
   33.1048   28.8877   49.9233 O   0  0  0  0  0  0  0  0  0  0  0  0
   35.3323   28.3511   49.0098 N   0  0  0  0  0  0  0  0  0  0  0  0
   34.9926   30.9686   49.1897 H   0  0  0  0  0  0  0  0  0  0  0  0
   36.3621   32.1847   50.5100 H   0  0  0  0  0  0  0  0  0  0  0  0
   37.4434   32.4241   49.1476 H   0  0  0  0  0  0  0  0  0  0  0  0
   38.6215   31.6997   51.1269 H   0  0  0  0  0  0  0  0  0  0  0  0
   38.6915   30.2688   50.0062 H   0  0  0  0  0  0  0  0  0  0  0  0
   38.1077   29.2609   51.9287 H   0  0  0  0  0  0  0  0  0  0  0  0
   37.1724   30.6737   52.5273 H   0  0  0  0  0  0  0  0  0  0  0  0
   35.2433   30.0020   51.3815 H   0  0  0  0  0  0  0  0  0  0  0  0
   35.9594   28.3774   51.5703 H   0  0  0  0  0  0  0  0  0  0  0  0
   37.1596   28.9139   49.4859 H   0  0  0  0  0  0  0  0  0  0  0  0
   38.4197   31.5061   47.7233 H   0  0  0  0  0  0  0  0  0  0  0  0
   38.7294   31.4043   45.3317 H   0  0  0  0  0  0  0  0  0  0  0  0
   34.9185   29.7893   44.7109 H   0  0  0  0  0  0  0  0  0  0  0  0
   35.6341   27.6369   48.2771 H   0  0  0  0  0  0  0  0  0  0  0  0
   30.8308   28.0967   49.4475 Cl  0  0  0  0  0  0  0  0  0  0  0  0
   31.7835   26.8312   48.7649 C   0  0  0  0  0  0  0  0  0  0  0  0
   33.1300   27.0360   48.7725 C   0  0  0  0  0  0  0  0  0  0  0  0
   33.8493   25.9695   48.2024 C   0  0  0  0  0  0  0  0  0  0  0  0
   34.9496   26.0340   48.1574 H   0  0  0  0  0  0  0  0  0  0  0  0
   33.3235   24.8101   47.6717 C   0  0  0  0  0  0  0  0  0  0  0  0
   33.9692   24.0502   47.2549 H   0  0  0  0  0  0  0  0  0  0  0  0
   31.9602   24.7012   47.7126 C   0  0  0  0  0  0  0  0  0  0  0  0
   31.4979   23.8068   47.3098 H   0  0  0  0  0  0  0  0  0  0  0  0
   31.2013   25.7057   48.2556 C   0  0  0  0  0  0  0  0  0  0  0  0
   29.4471   25.6093   48.3263 Cl  0  0  0  0  0  0  0  0  0  0  0  0
  1  6  1  0
  1  2  1  0
  2  3  1  0
  3  4  1  0
  5  4  1  0
  6  5  1  0
  7  1  1  0
  8  7  2  0
  9  8  1  0
 10 11  1  0
 10  9  2  0
 11 12  2  0
 12  7  1  0
 13 14  2  0
 15 13  1  0
 15  6  1  0
  1 16  1  6
  2 17  1  0
  2 18  1  0
  3 19  1  0
  3 20  1  0
  4 21  1  0
  4 22  1  0
  5 23  1  0
  5 24  1  0
  6 25  1  1
  8 26  1  0
  9 27  1  0
 11 28  1  0
 15 29  1  0
 30 31  1  0
 31 32  2  0
 32 33  1  0
 33 34  1  0
 33 35  2  0
 35 36  1  0
 35 37  1  0
 37 38  1  0
 37 39  2  0
 39 40  1  0
 39 31  1  0
 13 32  1  0
M  ISO  8  16  13  17  13  18  13  19  13  20  13  21  13  22  13  23  13
M  ISO  8  24  13  25  13  26  14  27  14  28  14  34  15  36  15  38  15
M  END
>  <DihAtoms>  (1) 
13,12,31,30

>  <DihDeg>  (1) 
116.17185189716022

$$$$
