
 OpenBabel03272503123D

 48 52  0  0  0  0  0  0  0  0999 V2000
   39.1910   32.2180   42.5680 C   0  0  0  0  0  0  0  0  0  0  0  0
   39.7100   31.4980   43.6330 C   0  0  0  0  0  0  0  0  0  0  0  0
   40.5840   30.4700   43.4760 C   0  0  0  0  0  0  0  0  0  0  0  0
   40.9910   30.1020   42.1900 C   0  0  0  0  0  0  0  0  0  0  0  0
   41.8230   29.1690   41.7370 N   0  0  0  0  0  0  0  0  0  0  0  0
   41.8610   29.2590   40.4210 C   0  0  0  0  0  0  0  0  0  0  0  0
   41.0510   30.2510   40.0430 N   0  0  0  0  0  0  0  0  0  0  0  0
   40.4780   30.8120   41.1390 C   0  0  0  0  0  0  0  0  0  0  0  0
   39.5770   31.8750   41.2540 C   0  0  0  0  0  0  0  0  0  0  0  0
   38.4950   33.0390   42.6750 H   0  0  0  0  0  0  0  0  0  0  0  0
   40.9940   29.9050   44.2890 H   0  0  0  0  0  0  0  0  0  0  0  0
   42.3790   28.4590   42.2990 H   0  0  0  0  0  0  0  0  0  0  0  0
   42.4240   28.6720   39.6900 H   0  0  0  0  0  0  0  0  0  0  0  0
   39.2690   31.9060   44.9470 C   0  0  0  0  0  0  0  0  0  0  0  0
   38.1780   32.5540   45.0700 O   0  0  0  0  0  0  0  0  0  0  0  0
   39.9500   31.6490   46.1610 N   0  0  0  0  0  0  0  0  0  0  0  0
   40.8430   31.1350   46.1190 H   0  0  0  0  0  0  0  0  0  0  0  0
   38.1160   30.1540   47.5000 F   0  0  0  0  0  0  0  0  0  0  0  0
   38.3730   31.3960   47.9920 C   0  0  0  0  0  0  0  0  0  0  0  0
   37.7200   31.8310   49.1040 C   0  0  0  0  0  0  0  0  0  0  0  0
   38.0260   33.0900   49.5470 C   0  0  0  0  0  0  0  0  0  0  0  0
   38.9350   33.8890   48.9210 C   0  0  0  0  0  0  0  0  0  0  0  0
   39.5870   33.4220   47.7900 C   0  0  0  0  0  0  0  0  0  0  0  0
   39.2930   32.1510   47.3260 C   0  0  0  0  0  0  0  0  0  0  0  0
   37.5140   33.4620   50.4360 H   0  0  0  0  0  0  0  0  0  0  0  0
   39.1730   34.8830   49.2750 H   0  0  0  0  0  0  0  0  0  0  0  0
   40.3120   34.0440   47.2840 H   0  0  0  0  0  0  0  0  0  0  0  0
   36.0810   29.3560   51.4540 C   0  0  0  0  0  0  0  0  0  0  0  0
   37.0450   30.2140   50.8690 C   0  0  0  0  0  0  0  0  0  0  0  0
   36.7520   30.9370   49.7360 C   0  0  0  0  0  0  0  0  0  0  0  0
   35.4870   30.7800   49.2110 N   0  0  0  0  0  0  0  0  0  0  0  0
   34.5770   29.9670   49.7680 C   0  0  0  0  0  0  0  0  0  0  0  0
   34.8700   29.2730   50.8640 N   0  0  0  0  0  0  0  0  0  0  0  0
   36.3180   28.7910   52.3460 H   0  0  0  0  0  0  0  0  0  0  0  0
   38.0330   30.3110   51.3120 H   0  0  0  0  0  0  0  0  0  0  0  0
   33.6420   29.9720   49.2190 H   0  0  0  0  0  0  0  0  0  0  0  0
   39.0710   32.5800   40.2180 O   0  0  0  0  0  0  0  0  0  0  0  0
   37.1460   30.2940   38.9040 Cl  0  0  0  0  0  0  0  0  0  0  0  0
   37.0760   32.0170   38.6750 C   0  0  0  0  0  0  0  0  0  0  0  0
   38.0590   32.6320   39.3930 C   0  0  0  0  0  0  0  0  0  0  0  0
   37.9960   34.0390   39.1690 C   0  0  0  0  0  0  0  0  0  0  0  0
   38.5900   34.9050   39.5410 H   0  0  0  0  0  0  0  0  0  0  0  0
   37.0730   34.6830   38.3430 C   0  0  0  0  0  0  0  0  0  0  0  0
   36.9150   35.7360   38.0840 H   0  0  0  0  0  0  0  0  0  0  0  0
   36.1280   33.9140   37.6740 C   0  0  0  0  0  0  0  0  0  0  0  0
   35.3570   34.2690   37.0090 H   0  0  0  0  0  0  0  0  0  0  0  0
   36.1360   32.5670   37.8470 C   0  0  0  0  0  0  0  0  0  0  0  0
   35.0220   31.4820   37.0810 Cl  0  0  0  0  0  0  0  0  0  0  0  0
  1 10  1  0  0  0  0
  1  2  1  0  0  0  0
  2 14  1  0  0  0  0
  3  2  2  0  0  0  0
  3 11  1  0  0  0  0
  4  3  1  0  0  0  0
  5  4  1  0  0  0  0
  5 12  1  0  0  0  0
  6  5  1  0  0  0  0
  7  6  2  0  0  0  0
  7  8  1  0  0  0  0
  8  9  1  0  0  0  0
  8  4  2  0  0  0  0
  9  1  2  0  0  0  0
 13  6  1  0  0  0  0
 14 15  2  0  0  0  0
 14 16  1  0  0  0  0
 16 24  1  0  0  0  0
 17 16  1  0  0  0  0
 18 19  1  0  0  0  0
 19 20  1  0  0  0  0
 20 21  2  0  0  0  0
 20 30  1  0  0  0  0
 21 25  1  0  0  0  0
 22 26  1  0  0  0  0
 22 21  1  0  0  0  0
 23 22  2  0  0  0  0
 24 23  1  0  0  0  0
 24 19  2  0  0  0  0
 27 23  1  0  0  0  0
 28 34  1  0  0  0  0
 29 35  1  0  0  0  0
 29 28  1  0  0  0  0
 30 29  2  0  0  0  0
 31 30  1  0  0  0  0
 31 32  2  0  0  0  0
 32 33  1  0  0  0  0
 33 28  2  0  0  0  0
 36 32  1  0  0  0  0
 37  9  1  0  0  0  0
 39 38  1  0  0  0  0
 39 40  1  0  0  0  0
 40 37  1  0  0  0  0
 41 40  2  0  0  0  0
 41 42  1  0  0  0  0
 43 41  1  0  0  0  0
 44 43  1  0  0  0  0
 45 47  1  0  0  0  0
 45 43  2  0  0  0  0
 46 45  1  0  0  0  0
 47 39  2  0  0  0  0
 48 47  1  0  0  0  0
M  END
>  <minimizedAffinity>
-7.23253155

>  <minimizedRMSD>
0.459522784

$$$$
