
 OpenBabel03272508573D

 42 45  0  0  1  0  0  0  0  0999 V2000
   39.1420   31.4970   43.3530 C   0  0  0  0  0  0  0  0  0  0  0  0
   40.1190   30.5510   43.4870 C   0  0  0  0  0  0  0  0  0  0  0  0
   40.8320   30.1970   42.3530 C   0  0  0  0  0  0  0  0  0  0  0  0
   40.5160   30.8140   41.1680 C   0  0  0  0  0  0  0  0  0  0  0  0
   39.5290   31.7700   41.0270 C   0  0  0  0  0  0  0  0  0  0  0  0
   38.8790   32.0690   42.1580 N   0  0  0  0  0  0  0  0  0  0  0  0
   40.3560   30.0740   44.4300 H   0  0  0  0  0  0  0  0  0  0  0  0
   41.6100   29.4570   42.4140 H   0  0  0  0  0  0  0  0  0  0  0  0
   41.1030   30.5010   40.3120 H   0  0  0  0  0  0  0  0  0  0  0  0
   38.3680   31.8950   44.5440 C   0  0  0  0  0  0  0  0  0  0  0  0
   37.2420   32.4360   44.4350 O   0  0  0  0  0  0  0  0  0  0  0  0
   38.9460   31.6420   45.8500 N   0  0  0  0  0  0  0  0  0  0  0  0
   39.9330   31.4010   45.9910 H   0  0  0  0  0  0  0  0  0  0  0  0
   38.4370   31.1120   48.2190 C   0  0  2  0  0  0  0  0  0  0  0  0
   38.6820   32.5750   48.1480 C   0  0  0  0  0  0  0  0  0  0  0  0
   38.0720   31.7370   46.9910 C   0  0  1  0  0  0  0  0  0  0  0  0
   39.3750   30.5250   48.3170 H   0  0  0  0  0  0  0  0  0  0  0  0
   39.6890   32.9700   48.0230 H   0  0  0  0  0  0  0  0  0  0  0  0
   37.9740   33.1870   48.7490 H   0  0  0  0  0  0  0  0  0  0  0  0
   36.9950   31.9810   46.7970 H   0  0  0  0  0  0  0  0  0  0  0  0
   35.0640   30.2350   49.5250 C   0  0  0  0  0  0  0  0  0  0  0  0
   35.3960   29.5540   50.7390 C   0  0  0  0  0  0  0  0  0  0  0  0
   36.7890   29.4180   51.0880 C   0  0  0  0  0  0  0  0  0  0  0  0
   37.7440   29.9400   50.2550 N   0  0  0  0  0  0  0  0  0  0  0  0
   37.3550   30.5710   49.1270 C   0  0  0  0  0  0  0  0  0  0  0  0
   36.0330   30.7350   48.7330 N   0  0  0  0  0  0  0  0  0  0  0  0
   34.0110   30.3170   49.2980 H   0  0  0  0  0  0  0  0  0  0  0  0
   34.6660   29.1390   51.4020 H   0  0  0  0  0  0  0  0  0  0  0  0
   37.0370   28.9040   52.0040 H   0  0  0  0  0  0  0  0  0  0  0  0
   39.2460   32.3860   39.7360 C   0  0  0  0  0  0  0  0  0  0  0  0
   38.6710   33.5200   39.7350 O   0  0  0  0  0  0  0  0  0  0  0  0
   37.0890   30.5720   38.7310 Cl  0  0  0  0  0  0  0  0  0  0  0  0
   38.5860   30.9800   37.9310 C   0  0  0  0  0  0  0  0  0  0  0  0
   39.5610   31.8270   38.4320 C   0  0  0  0  0  0  0  0  0  0  0  0
   40.7180   32.0970   37.7340 C   0  0  0  0  0  0  0  0  0  0  0  0
   41.4160   32.7620   38.1960 H   0  0  0  0  0  0  0  0  0  0  0  0
   40.8680   31.4870   36.5070 C   0  0  0  0  0  0  0  0  0  0  0  0
   41.7810   31.7060   35.9650 H   0  0  0  0  0  0  0  0  0  0  0  0
   39.9310   30.6380   35.9640 C   0  0  0  0  0  0  0  0  0  0  0  0
   40.0840   30.1800   35.0000 H   0  0  0  0  0  0  0  0  0  0  0  0
   38.7740   30.3820   36.6870 C   0  0  0  0  0  0  0  0  0  0  0  0
   37.6110   29.2980   35.9590 Cl  0  0  0  0  0  0  0  0  0  0  0  0
  1  2  1  0  0  0  0
  1 10  1  0  0  0  0
  2  7  1  0  0  0  0
  3  8  1  0  0  0  0
  3  2  2  0  0  0  0
  4  3  1  0  0  0  0
  5  4  2  0  0  0  0
  5  6  1  0  0  0  0
  6  1  2  0  0  0  0
  9  4  1  0  0  0  0
 10 12  1  0  0  0  0
 11 10  2  0  0  0  0
 12 13  1  0  0  0  0
 12 16  1  0  0  0  0
 14 17  1  6  0  0  0
 14 25  1  0  0  0  0
 15 14  1  0  0  0  0
 15 19  1  0  0  0  0
 16 20  1  6  0  0  0
 16 15  1  0  0  0  0
 16 14  1  0  0  0  0
 18 15  1  0  0  0  0
 21 22  1  0  0  0  0
 22 23  2  0  0  0  0
 22 28  1  0  0  0  0
 23 29  1  0  0  0  0
 24 23  1  0  0  0  0
 25 24  2  0  0  0  0
 26 25  1  0  0  0  0
 26 21  2  0  0  0  0
 27 21  1  0  0  0  0
 30  5  1  0  0  0  0
 31 30  2  0  0  0  0
 33 34  1  0  0  0  0
 33 32  1  0  0  0  0
 34 30  1  0  0  0  0
 35 36  1  0  0  0  0
 35 34  2  0  0  0  0
 37 35  1  0  0  0  0
 38 37  1  0  0  0  0
 39 37  2  0  0  0  0
 39 41  1  0  0  0  0
 40 39  1  0  0  0  0
 41 33  2  0  0  0  0
 42 41  1  0  0  0  0
M  END
>  <minimizedAffinity>
-4.96560669

>  <minimizedRMSD>
0.556120515

$$$$
