
 OpenBabel03272508583D

 42 45  0  0  1  0  0  0  0  0999 V2000
   39.1840   31.4250   43.3500 C   0  0  0  0  0  0  0  0  0  0  0  0
   40.2350   30.5670   43.5170 C   0  0  0  0  0  0  0  0  0  0  0  0
   40.9440   30.1900   42.3890 C   0  0  0  0  0  0  0  0  0  0  0  0
   40.5510   30.6960   41.1750 C   0  0  0  0  0  0  0  0  0  0  0  0
   39.4890   31.5630   41.0000 C   0  0  0  0  0  0  0  0  0  0  0  0
   38.8470   31.8890   42.1280 N   0  0  0  0  0  0  0  0  0  0  0  0
   40.5330   30.1760   44.4840 H   0  0  0  0  0  0  0  0  0  0  0  0
   41.7790   29.5170   42.4760 H   0  0  0  0  0  0  0  0  0  0  0  0
   41.1380   30.3690   40.3250 H   0  0  0  0  0  0  0  0  0  0  0  0
   38.4120   31.8440   44.5350 C   0  0  0  0  0  0  0  0  0  0  0  0
   37.3180   32.4440   44.4170 O   0  0  0  0  0  0  0  0  0  0  0  0
   38.9550   31.5430   45.8460 N   0  0  0  0  0  0  0  0  0  0  0  0
   39.9260   31.2500   45.9980 H   0  0  0  0  0  0  0  0  0  0  0  0
   38.4260   31.0830   48.2250 C   0  0  2  0  0  0  0  0  0  0  0  0
   38.6610   32.5460   48.1110 C   0  0  0  0  0  0  0  0  0  0  0  0
   38.0690   31.6680   46.9740 C   0  0  1  0  0  0  0  0  0  0  0  0
   39.3670   30.5070   48.3500 H   0  0  0  0  0  0  0  0  0  0  0  0
   39.6670   32.9430   47.9840 H   0  0  0  0  0  0  0  0  0  0  0  0
   37.9430   33.1700   48.6850 H   0  0  0  0  0  0  0  0  0  0  0  0
   36.9920   31.8970   46.7620 H   0  0  0  0  0  0  0  0  0  0  0  0
   35.0450   30.2270   49.5260 C   0  0  0  0  0  0  0  0  0  0  0  0
   35.3710   29.5810   50.7610 C   0  0  0  0  0  0  0  0  0  0  0  0
   36.7610   29.4620   51.1260 C   0  0  0  0  0  0  0  0  0  0  0  0
   37.7210   29.9660   50.2870 N   0  0  0  0  0  0  0  0  0  0  0  0
   37.3390   30.5630   49.1380 C   0  0  0  0  0  0  0  0  0  0  0  0
   36.0190   30.7090   48.7290 N   0  0  0  0  0  0  0  0  0  0  0  0
   33.9940   30.2960   49.2870 H   0  0  0  0  0  0  0  0  0  0  0  0
   34.6360   29.1810   51.4290 H   0  0  0  0  0  0  0  0  0  0  0  0
   37.0040   28.9750   52.0580 H   0  0  0  0  0  0  0  0  0  0  0  0
   39.1260   32.0630   39.6800 C   0  0  0  0  0  0  0  0  0  0  0  0
   39.0640   33.3230   39.5210 O   0  0  0  0  0  0  0  0  0  0  0  0
   41.4810   31.7860   37.8540 Cl  0  0  0  0  0  0  0  0  0  0  0  0
   39.8890   31.1030   37.6390 C   0  0  0  0  0  0  0  0  0  0  0  0
   38.8240   31.2560   38.5100 C   0  0  0  0  0  0  0  0  0  0  0  0
   37.5940   30.6800   38.2650 C   0  0  0  0  0  0  0  0  0  0  0  0
   36.8290   30.8510   38.9930 H   0  0  0  0  0  0  0  0  0  0  0  0
   37.4670   29.9420   37.1090 C   0  0  0  0  0  0  0  0  0  0  0  0
   36.4980   29.4930   36.9240 H   0  0  0  0  0  0  0  0  0  0  0  0
   38.4940   29.7590   36.2100 C   0  0  0  0  0  0  0  0  0  0  0  0
   38.3550   29.1730   35.3150 H   0  0  0  0  0  0  0  0  0  0  0  0
   39.7210   30.3470   36.4800 C   0  0  0  0  0  0  0  0  0  0  0  0
   40.9950   30.0890   35.3120 Cl  0  0  0  0  0  0  0  0  0  0  0  0
  1  2  1  0  0  0  0
  1 10  1  0  0  0  0
  2  7  1  0  0  0  0
  3  8  1  0  0  0  0
  3  2  2  0  0  0  0
  4  3  1  0  0  0  0
  5  4  2  0  0  0  0
  5  6  1  0  0  0  0
  6  1  2  0  0  0  0
  9  4  1  0  0  0  0
 10 12  1  0  0  0  0
 11 10  2  0  0  0  0
 12 13  1  0  0  0  0
 12 16  1  0  0  0  0
 14 17  1  6  0  0  0
 14 25  1  0  0  0  0
 15 14  1  0  0  0  0
 15 19  1  0  0  0  0
 16 20  1  6  0  0  0
 16 15  1  0  0  0  0
 16 14  1  0  0  0  0
 18 15  1  0  0  0  0
 21 22  1  0  0  0  0
 22 23  2  0  0  0  0
 22 28  1  0  0  0  0
 23 29  1  0  0  0  0
 24 23  1  0  0  0  0
 25 24  2  0  0  0  0
 26 25  1  0  0  0  0
 26 21  2  0  0  0  0
 27 21  1  0  0  0  0
 30  5  1  0  0  0  0
 31 30  2  0  0  0  0
 33 32  1  0  0  0  0
 33 34  1  0  0  0  0
 34 30  1  0  0  0  0
 35 34  2  0  0  0  0
 35 36  1  0  0  0  0
 37 35  1  0  0  0  0
 38 37  1  0  0  0  0
 39 41  1  0  0  0  0
 39 37  2  0  0  0  0
 40 39  1  0  0  0  0
 41 33  2  0  0  0  0
 42 41  1  0  0  0  0
M  END
>  <minimizedAffinity>
-4.93749189

>  <minimizedRMSD>
0.634881914

$$$$
