
 OpenBabel03272503303D

 36 38  0  0  1  0  0  0  0  0999 V2000
   35.3020   29.5430   48.0000 C   0  0  0  0  0  0  0  0  0  0  0  0
   35.2230   29.9870   46.6680 C   0  0  0  0  0  0  0  0  0  0  0  0
   34.0510   29.6470   45.9720 C   0  0  0  0  0  0  0  0  0  0  0  0
   33.0940   28.9220   46.6370 N   0  0  0  0  0  0  0  0  0  0  0  0
   33.2070   28.5220   47.8970 C   0  0  0  0  0  0  0  0  0  0  0  0
   34.3330   28.8420   48.5820 N   0  0  0  0  0  0  0  0  0  0  0  0
   35.9970   30.5570   46.1740 H   0  0  0  0  0  0  0  0  0  0  0  0
   33.9060   29.9440   44.9530 H   0  0  0  0  0  0  0  0  0  0  0  0
   36.5040   29.8950   48.7060 N   0  0  0  0  0  0  0  0  0  0  0  0
   37.6070   30.6650   48.2320 C   0  0  0  0  0  0  0  0  0  0  0  0
   38.1500   31.3050   49.5080 C   0  0  2  0  0  0  0  0  0  0  0  0
   37.1910   30.9000   50.6130 C   0  0  0  0  0  0  0  0  0  0  0  0
   36.8250   29.5260   50.0640 C   0  0  0  0  0  0  0  0  0  0  0  0
   38.3870   30.0680   47.7230 H   0  0  0  0  0  0  0  0  0  0  0  0
   37.2290   31.4820   47.5760 H   0  0  0  0  0  0  0  0  0  0  0  0
   39.1600   30.8970   49.7120 H   0  0  0  0  0  0  0  0  0  0  0  0
   36.2980   31.5460   50.6310 H   0  0  0  0  0  0  0  0  0  0  0  0
   37.6990   30.8350   51.5880 H   0  0  0  0  0  0  0  0  0  0  0  0
   35.9180   29.2160   50.6140 H   0  0  0  0  0  0  0  0  0  0  0  0
   37.6820   28.8410   50.1560 H   0  0  0  0  0  0  0  0  0  0  0  0
   38.3010   32.7960   49.3960 C   0  0  0  0  0  0  0  0  0  0  0  0
   37.1150   33.3460   49.8810 F   0  0  0  0  0  0  0  0  0  0  0  0
   38.3310   33.1120   48.0490 F   0  0  0  0  0  0  0  0  0  0  0  0
   39.3880   33.2900   50.0350 F   0  0  0  0  0  0  0  0  0  0  0  0
   31.9470   27.5920   48.7100 S   0  0  0  0  0  0  0  0  0  0  0  0
   29.2300   27.9410   47.1820 Cl  0  0  0  0  0  0  0  0  0  0  0  0
   30.1640   26.4680   46.9290 C   0  0  0  0  0  0  0  0  0  0  0  0
   31.3760   26.3090   47.6080 C   0  0  0  0  0  0  0  0  0  0  0  0
   32.0870   25.1330   47.3840 C   0  0  0  0  0  0  0  0  0  0  0  0
   33.0320   25.0370   47.9300 H   0  0  0  0  0  0  0  0  0  0  0  0
   31.5830   24.1770   46.5140 C   0  0  0  0  0  0  0  0  0  0  0  0
   32.2050   23.2930   46.4020 H   0  0  0  0  0  0  0  0  0  0  0  0
   30.4020   24.3360   45.8550 C   0  0  0  0  0  0  0  0  0  0  0  0
   30.0630   23.5520   45.1890 H   0  0  0  0  0  0  0  0  0  0  0  0
   29.6910   25.5070   46.0770 C   0  0  0  0  0  0  0  0  0  0  0  0
   28.1820   25.7740   45.2700 Cl  0  0  0  0  0  0  0  0  0  0  0  0
  1  6  1  0  0  0  0
  1  9  1  0  0  0  0
  2  1  2  0  0  0  0
  3  4  2  0  0  0  0
  3  2  1  0  0  0  0
  4  5  1  0  0  0  0
  5  6  2  0  0  0  0
  5 25  1  0  0  0  0
  7  2  1  0  0  0  0
  8  3  1  0  0  0  0
  9 13  1  0  0  0  0
 10  9  1  0  0  0  0
 10 11  1  0  0  0  0
 11 16  1  1  0  0  0
 11 12  1  0  0  0  0
 12 17  1  0  0  0  0
 12 18  1  0  0  0  0
 13 20  1  0  0  0  0
 13 12  1  0  0  0  0
 13 19  1  0  0  0  0
 14 10  1  0  0  0  0
 15 10  1  0  0  0  0
 21 11  1  0  0  0  0
 21 22  1  0  0  0  0
 21 24  1  0  0  0  0
 23 21  1  0  0  0  0
 27 26  1  0  0  0  0
 27 28  1  0  0  0  0
 28 25  1  0  0  0  0
 29 28  2  0  0  0  0
 29 30  1  0  0  0  0
 31 29  1  0  0  0  0
 32 31  1  0  0  0  0
 33 35  1  0  0  0  0
 33 31  2  0  0  0  0
 34 33  1  0  0  0  0
 35 27  2  0  0  0  0
 36 35  1  0  0  0  0
M  END
>  <minimizedAffinity>
-6.02140188

>  <minimizedRMSD>
1.50816143

$$$$
