
 OpenBabel03272509313D

 40 42  0  0  1  0  0  0  0  0999 V2000
   36.1070   30.6020   48.9060 C   0  0  2  0  0  0  0  0  0  0  0  0
   36.9590   31.4240   49.8280 C   0  0  0  0  0  0  0  0  0  0  0  0
   37.7100   30.5810   50.8380 C   0  0  0  0  0  0  0  0  0  0  0  0
   36.7450   29.7220   51.6550 C   0  0  0  0  0  0  0  0  0  0  0  0
   35.5650   29.2120   50.8590 C   0  0  0  0  0  0  0  0  0  0  0  0
   35.9650   29.1920   49.3750 C   0  0  1  0  0  0  0  0  0  0  0  0
   35.0540   30.9850   48.8130 H   0  0  0  0  0  0  0  0  0  0  0  0
   36.2060   31.9940   50.4720 H   0  0  0  0  0  0  0  0  0  0  0  0
   37.5760   32.1800   49.3900 H   0  0  0  0  0  0  0  0  0  0  0  0
   38.2220   31.2520   51.5230 H   0  0  0  0  0  0  0  0  0  0  0  0
   38.4050   29.8720   50.3520 H   0  0  0  0  0  0  0  0  0  0  0  0
   37.3260   28.8460   52.0360 H   0  0  0  0  0  0  0  0  0  0  0  0
   36.4140   30.3200   52.5120 H   0  0  0  0  0  0  0  0  0  0  0  0
   34.7290   29.9020   50.9400 H   0  0  0  0  0  0  0  0  0  0  0  0
   35.2360   28.2050   51.1700 H   0  0  0  0  0  0  0  0  0  0  0  0
   36.9070   28.7060   49.4300 H   0  0  0  0  0  0  0  0  0  0  0  0
   36.6570   30.6010   47.5260 C   0  0  0  0  0  0  0  0  0  0  0  0
   38.0520   30.8150   47.4280 C   0  0  0  0  0  0  0  0  0  0  0  0
   38.5890   30.8110   46.1340 C   0  0  0  0  0  0  0  0  0  0  0  0
   37.7480   30.6030   45.0630 N   0  0  0  0  0  0  0  0  0  0  0  0
   36.4060   30.4000   45.2170 C   0  0  0  0  0  0  0  0  0  0  0  0
   35.8860   30.4040   46.4580 N   0  0  0  0  0  0  0  0  0  0  0  0
   38.8070   30.9770   48.1710 H   0  0  0  0  0  0  0  0  0  0  0  0
   39.6180   30.9590   45.8980 H   0  0  0  0  0  0  0  0  0  0  0  0
   35.8040   30.2400   44.3340 H   0  0  0  0  0  0  0  0  0  0  0  0
   33.8330   28.0050   48.7250 C   0  0  0  0  0  0  0  0  0  0  0  0
   32.9380   28.4530   49.5530 O   0  0  0  0  0  0  0  0  0  0  0  0
   35.1840   28.3570   48.5390 N   0  0  0  0  0  0  0  0  0  0  0  0
   35.5300   27.8830   47.6480 H   0  0  0  0  0  0  0  0  0  0  0  0
   30.7540   28.1320   48.1610 Cl  0  0  0  0  0  0  0  0  0  0  0  0
   31.7800   26.8560   47.6190 C   0  0  0  0  0  0  0  0  0  0  0  0
   33.0930   26.9680   47.9640 C   0  0  0  0  0  0  0  0  0  0  0  0
   33.8750   25.8980   47.4910 C   0  0  0  0  0  0  0  0  0  0  0  0
   34.9550   25.8900   47.7150 H   0  0  0  0  0  0  0  0  0  0  0  0
   33.4380   24.8180   46.7520 C   0  0  0  0  0  0  0  0  0  0  0  0
   34.1270   24.0480   46.4370 H   0  0  0  0  0  0  0  0  0  0  0  0
   32.1010   24.8010   46.4590 C   0  0  0  0  0  0  0  0  0  0  0  0
   31.7080   23.9710   45.8810 H   0  0  0  0  0  0  0  0  0  0  0  0
   31.2840   25.8140   46.8900 C   0  0  0  0  0  0  0  0  0  0  0  0
   29.5630   25.8330   46.5330 Cl  0  0  0  0  0  0  0  0  0  0  0  0
  1  7  1  6  0  0  0
  1  6  1  0  0  0  0
  1  2  1  0  0  0  0
  2  8  1  0  0  0  0
  2  3  1  0  0  0  0
  3 10  1  0  0  0  0
  3  4  1  0  0  0  0
  4 12  1  0  0  0  0
  4 13  1  0  0  0  0
  5 14  1  0  0  0  0
  5 15  1  0  0  0  0
  5  4  1  0  0  0  0
  6 16  1  6  0  0  0
  6  5  1  0  0  0  0
  9  2  1  0  0  0  0
 11  3  1  0  0  0  0
 17  1  1  0  0  0  0
 18 17  1  0  0  0  0
 18 23  1  0  0  0  0
 19 18  2  0  0  0  0
 20 21  2  0  0  0  0
 20 19  1  0  0  0  0
 21 22  1  0  0  0  0
 22 17  2  0  0  0  0
 24 19  1  0  0  0  0
 25 21  1  0  0  0  0
 26 27  2  0  0  0  0
 28 26  1  0  0  0  0
 28  6  1  0  0  0  0
 29 28  1  0  0  0  0
 31 32  1  0  0  0  0
 31 30  1  0  0  0  0
 32 26  1  0  0  0  0
 33 34  1  0  0  0  0
 33 32  2  0  0  0  0
 35 33  1  0  0  0  0
 36 35  1  0  0  0  0
 37 35  2  0  0  0  0
 37 39  1  0  0  0  0
 38 37  1  0  0  0  0
 39 31  2  0  0  0  0
 40 39  1  0  0  0  0
M  END
>  <minimizedAffinity>
-6.18892288

>  <minimizedRMSD>
0.971373916

$$$$
