
 OpenBabel03272503063D

 34 36  0  0  0  0  0  0  0  0999 V2000
   38.0990   30.0960   47.3150 F   0  0  0  0  0  0  0  0  0  0  0  0
   38.4960   31.3290   47.7010 C   0  0  0  0  0  0  0  0  0  0  0  0
   38.1080   31.8160   48.9170 C   0  0  0  0  0  0  0  0  0  0  0  0
   38.5380   33.0700   49.2580 C   0  0  0  0  0  0  0  0  0  0  0  0
   39.3340   33.8390   48.4300 C   0  0  0  0  0  0  0  0  0  0  0  0
   39.7100   33.3230   47.2130 C   0  0  0  0  0  0  0  0  0  0  0  0
   39.2890   32.0530   46.8380 C   0  0  0  0  0  0  0  0  0  0  0  0
   38.2420   33.4710   50.2120 H   0  0  0  0  0  0  0  0  0  0  0  0
   39.6390   34.8230   48.7600 H   0  0  0  0  0  0  0  0  0  0  0  0
   40.3400   33.9110   46.5380 H   0  0  0  0  0  0  0  0  0  0  0  0
   36.8930   29.6000   51.7440 C   0  0  0  0  0  0  0  0  0  0  0  0
   37.7080   30.4100   50.9470 C   0  0  0  0  0  0  0  0  0  0  0  0
   37.2640   30.9660   49.7610 C   0  0  0  0  0  0  0  0  0  0  0  0
   35.9850   30.6820   49.4110 N   0  0  0  0  0  0  0  0  0  0  0  0
   35.1980   29.9020   50.1800 C   0  0  0  0  0  0  0  0  0  0  0  0
   35.6390   29.3740   51.3150 N   0  0  0  0  0  0  0  0  0  0  0  0
   37.3730   29.2240   52.6590 H   0  0  0  0  0  0  0  0  0  0  0  0
   38.7390   30.6480   51.2130 H   0  0  0  0  0  0  0  0  0  0  0  0
   34.1780   29.6770   49.8980 H   0  0  0  0  0  0  0  0  0  0  0  0
   38.7010   31.7230   44.5280 C   0  0  0  0  0  0  0  0  0  0  0  0
   37.6930   32.4090   44.8860 O   0  0  0  0  0  0  0  0  0  0  0  0
   39.6560   31.4760   45.5810 N   0  0  0  0  0  0  0  0  0  0  0  0
   40.4870   30.9240   45.3440 H   0  0  0  0  0  0  0  0  0  0  0  0
   37.0440   29.3510   43.6930 Cl  0  0  0  0  0  0  0  0  0  0  0  0
   38.2280   30.1310   42.6550 C   0  0  0  0  0  0  0  0  0  0  0  0
   38.9140   31.2100   43.1760 C   0  0  0  0  0  0  0  0  0  0  0  0
   39.8670   31.8720   42.3980 C   0  0  0  0  0  0  0  0  0  0  0  0
   40.4640   32.7320   42.7120 H   0  0  0  0  0  0  0  0  0  0  0  0
   40.1010   31.4270   41.1250 C   0  0  0  0  0  0  0  0  0  0  0  0
   40.8430   31.9150   40.4720 H   0  0  0  0  0  0  0  0  0  0  0  0
   39.4000   30.3450   40.6320 C   0  0  0  0  0  0  0  0  0  0  0  0
   39.6140   30.0260   39.6220 H   0  0  0  0  0  0  0  0  0  0  0  0
   38.4460   29.6620   41.3720 C   0  0  0  0  0  0  0  0  0  0  0  0
   37.5600   28.2880   40.7350 Cl  0  0  0  0  0  0  0  0  0  0  0  0
  1  2  1  0  0  0  0
  2  3  1  0  0  0  0
  3  4  2  0  0  0  0
  3 13  1  0  0  0  0
  4  8  1  0  0  0  0
  5  9  1  0  0  0  0
  5  4  1  0  0  0  0
  6  5  2  0  0  0  0
  7  6  1  0  0  0  0
  7  2  2  0  0  0  0
 10  6  1  0  0  0  0
 11 17  1  0  0  0  0
 12 18  1  0  0  0  0
 12 11  2  0  0  0  0
 13 12  1  0  0  0  0
 14 13  2  0  0  0  0
 14 15  1  0  0  0  0
 15 16  2  0  0  0  0
 16 11  1  0  0  0  0
 19 15  1  0  0  0  0
 20 21  2  0  0  0  0
 20 22  1  0  0  0  0
 22  7  1  0  0  0  0
 23 22  1  0  0  0  0
 25 26  1  0  0  0  0
 25 24  1  0  0  0  0
 26 20  1  0  0  0  0
 27 28  1  0  0  0  0
 27 26  2  0  0  0  0
 29 27  1  0  0  0  0
 30 29  1  0  0  0  0
 31 29  2  0  0  0  0
 31 33  1  0  0  0  0
 32 31  1  0  0  0  0
 33 25  2  0  0  0  0
 34 33  1  0  0  0  0
M  END
>  <minimizedAffinity>
-6.42145491

>  <minimizedRMSD>
0.966305494

$$$$
