
 OpenBabel03272503133D

 48 52  0  0  0  0  0  0  0  0999 V2000
   39.2100   32.2430   42.5790 C   0  0  0  0  0  0  0  0  0  0  0  0
   39.7140   31.5100   43.6430 C   0  0  0  0  0  0  0  0  0  0  0  0
   40.5750   30.4720   43.4840 C   0  0  0  0  0  0  0  0  0  0  0  0
   40.9860   30.1070   42.1990 C   0  0  0  0  0  0  0  0  0  0  0  0
   41.8090   29.1660   41.7440 N   0  0  0  0  0  0  0  0  0  0  0  0
   41.8570   29.2650   40.4300 C   0  0  0  0  0  0  0  0  0  0  0  0
   41.0620   30.2690   40.0530 N   0  0  0  0  0  0  0  0  0  0  0  0
   40.4890   30.8300   41.1490 C   0  0  0  0  0  0  0  0  0  0  0  0
   39.6010   31.9040   41.2650 C   0  0  0  0  0  0  0  0  0  0  0  0
   38.5240   33.0720   42.6870 H   0  0  0  0  0  0  0  0  0  0  0  0
   40.9730   29.8960   44.2960 H   0  0  0  0  0  0  0  0  0  0  0  0
   42.3520   28.4450   42.3050 H   0  0  0  0  0  0  0  0  0  0  0  0
   42.4160   28.6740   39.6980 H   0  0  0  0  0  0  0  0  0  0  0  0
   39.2690   31.9150   44.9570 C   0  0  0  0  0  0  0  0  0  0  0  0
   38.1760   32.5590   45.0780 O   0  0  0  0  0  0  0  0  0  0  0  0
   39.9500   31.6580   46.1710 N   0  0  0  0  0  0  0  0  0  0  0  0
   40.8440   31.1460   46.1300 H   0  0  0  0  0  0  0  0  0  0  0  0
   38.1150   30.1570   47.5030 F   0  0  0  0  0  0  0  0  0  0  0  0
   38.3690   31.3990   47.9980 C   0  0  0  0  0  0  0  0  0  0  0  0
   37.7120   31.8300   49.1090 C   0  0  0  0  0  0  0  0  0  0  0  0
   38.0150   33.0890   49.5560 C   0  0  0  0  0  0  0  0  0  0  0  0
   38.9250   33.8900   48.9340 C   0  0  0  0  0  0  0  0  0  0  0  0
   39.5800   33.4270   47.8030 C   0  0  0  0  0  0  0  0  0  0  0  0
   39.2890   32.1560   47.3360 C   0  0  0  0  0  0  0  0  0  0  0  0
   37.5010   33.4580   50.4450 H   0  0  0  0  0  0  0  0  0  0  0  0
   39.1600   34.8830   49.2900 H   0  0  0  0  0  0  0  0  0  0  0  0
   40.3050   34.0510   47.3000 H   0  0  0  0  0  0  0  0  0  0  0  0
   36.0730   29.3470   51.4510 C   0  0  0  0  0  0  0  0  0  0  0  0
   37.0360   30.2080   50.8690 C   0  0  0  0  0  0  0  0  0  0  0  0
   36.7440   30.9330   49.7380 C   0  0  0  0  0  0  0  0  0  0  0  0
   35.4800   30.7760   49.2100 N   0  0  0  0  0  0  0  0  0  0  0  0
   34.5710   29.9610   49.7630 C   0  0  0  0  0  0  0  0  0  0  0  0
   34.8630   29.2640   50.8580 N   0  0  0  0  0  0  0  0  0  0  0  0
   36.3080   28.7800   52.3410 H   0  0  0  0  0  0  0  0  0  0  0  0
   38.0240   30.3050   51.3140 H   0  0  0  0  0  0  0  0  0  0  0  0
   33.6370   29.9650   49.2130 H   0  0  0  0  0  0  0  0  0  0  0  0
   39.1110   32.6220   40.2310 O   0  0  0  0  0  0  0  0  0  0  0  0
   40.3370   33.3920   37.3060 Cl  0  0  0  0  0  0  0  0  0  0  0  0
   38.7970   32.6680   37.6650 C   0  0  0  0  0  0  0  0  0  0  0  0
   38.6510   32.5090   39.0130 C   0  0  0  0  0  0  0  0  0  0  0  0
   37.3730   31.9380   39.2840 C   0  0  0  0  0  0  0  0  0  0  0  0
   36.8430   31.6440   40.2210 H   0  0  0  0  0  0  0  0  0  0  0  0
   36.4220   31.5940   38.3210 C   0  0  0  0  0  0  0  0  0  0  0  0
   35.4200   31.1570   38.3890 H   0  0  0  0  0  0  0  0  0  0  0  0
   36.7220   31.8170   36.9820 C   0  0  0  0  0  0  0  0  0  0  0  0
   36.0920   31.6040   36.1330 H   0  0  0  0  0  0  0  0  0  0  0  0
   37.9240   32.3600   36.6590 C   0  0  0  0  0  0  0  0  0  0  0  0
   38.4350   32.6940   35.0370 Cl  0  0  0  0  0  0  0  0  0  0  0  0
  1 10  1  0  0  0  0
  1  2  1  0  0  0  0
  2 14  1  0  0  0  0
  3  2  2  0  0  0  0
  3 11  1  0  0  0  0
  4  3  1  0  0  0  0
  5  4  1  0  0  0  0
  5 12  1  0  0  0  0
  6  5  1  0  0  0  0
  7  6  2  0  0  0  0
  7  8  1  0  0  0  0
  8  9  1  0  0  0  0
  8  4  2  0  0  0  0
  9  1  2  0  0  0  0
 13  6  1  0  0  0  0
 14 15  2  0  0  0  0
 14 16  1  0  0  0  0
 16 24  1  0  0  0  0
 17 16  1  0  0  0  0
 18 19  1  0  0  0  0
 19 20  1  0  0  0  0
 20 21  2  0  0  0  0
 20 30  1  0  0  0  0
 21 25  1  0  0  0  0
 22 26  1  0  0  0  0
 22 21  1  0  0  0  0
 23 22  2  0  0  0  0
 24 23  1  0  0  0  0
 24 19  2  0  0  0  0
 27 23  1  0  0  0  0
 28 34  1  0  0  0  0
 29 35  1  0  0  0  0
 29 28  1  0  0  0  0
 30 29  2  0  0  0  0
 31 30  1  0  0  0  0
 31 32  2  0  0  0  0
 32 33  1  0  0  0  0
 33 28  2  0  0  0  0
 36 32  1  0  0  0  0
 37  9  1  0  0  0  0
 38 39  1  0  0  0  0
 39 40  1  0  0  0  0
 40 41  2  0  0  0  0
 40 37  1  0  0  0  0
 41 42  1  0  0  0  0
 43 44  1  0  0  0  0
 43 41  1  0  0  0  0
 45 43  2  0  0  0  0
 46 45  1  0  0  0  0
 47 45  1  0  0  0  0
 47 39  2  0  0  0  0
 48 47  1  0  0  0  0
M  END
>  <minimizedAffinity>
-7.07276249

>  <minimizedRMSD>
0.470411211

$$$$
