
 OpenBabel03262523563D

 40 42  0  0  1  0  0  0  0  0999 V2000
   35.2020   30.3450   43.4770 C   0  0  1  0  0  0  0  0  0  0  0  0
   34.8030   31.6850   43.0720 C   0  0  0  0  0  0  0  0  0  0  0  0
   35.2270   31.8940   41.6490 C   0  0  0  0  0  0  0  0  0  0  0  0
   36.5900   31.3910   41.4170 C   0  0  0  0  0  0  0  0  0  0  0  0
   37.4160   31.1400   42.6200 C   0  0  0  0  0  0  0  0  0  0  0  0
   36.7080   30.3570   43.7200 C   0  0  1  0  0  0  0  0  0  0  0  0
   35.0750   29.6090   42.6300 H   0  0  0  0  0  0  0  0  0  0  0  0
   33.6970   31.8950   43.1590 H   0  0  0  0  0  0  0  0  0  0  0  0
   35.2890   32.4860   43.6950 H   0  0  0  0  0  0  0  0  0  0  0  0
   34.5000   31.3150   41.0060 H   0  0  0  0  0  0  0  0  0  0  0  0
   35.0860   32.9470   41.3250 H   0  0  0  0  0  0  0  0  0  0  0  0
   37.1260   32.1430   40.8020 H   0  0  0  0  0  0  0  0  0  0  0  0
   36.5730   30.4560   40.7860 H   0  0  0  0  0  0  0  0  0  0  0  0
   37.7150   32.1030   43.0570 H   0  0  0  0  0  0  0  0  0  0  0  0
   38.3490   30.6170   42.3010 H   0  0  0  0  0  0  0  0  0  0  0  0
   37.0630   29.3080   43.6290 H   0  0  0  0  0  0  0  0  0  0  0  0
   33.8900   27.9300   45.9750 C   0  0  0  0  0  0  0  0  0  0  0  0
   34.5040   28.4330   44.7960 C   0  0  0  0  0  0  0  0  0  0  0  0
   34.5910   29.8160   44.7050 C   0  0  0  0  0  0  0  0  0  0  0  0
   34.1010   30.6250   45.7200 N   0  0  0  0  0  0  0  0  0  0  0  0
   33.5300   30.1000   46.8130 C   0  0  0  0  0  0  0  0  0  0  0  0
   33.4190   28.7420   46.9500 N   0  0  0  0  0  0  0  0  0  0  0  0
   33.7920   26.8510   46.1030 H   0  0  0  0  0  0  0  0  0  0  0  0
   34.8740   27.7710   44.0270 H   0  0  0  0  0  0  0  0  0  0  0  0
   33.1880   30.8330   47.5300 H   0  0  0  0  0  0  0  0  0  0  0  0
   38.2110   30.6630   45.8850 C   0  0  0  0  0  0  0  0  0  0  0  0
   39.0870   29.9550   45.2990 O   0  0  0  0  0  0  0  0  0  0  0  0
   37.0930   30.8530   45.0130 N   0  0  0  0  0  0  0  0  0  0  0  0
   36.2970   31.5030   45.3010 H   0  0  0  0  0  0  0  0  0  0  0  0
   36.5890   29.3890   48.1390 Cl  0  0  0  0  0  0  0  0  0  0  0  0
   37.4890   30.8710   48.3360 C   0  0  0  0  0  0  0  0  0  0  0  0
   38.1490   31.2770   47.2090 C   0  0  0  0  0  0  0  0  0  0  0  0
   38.9120   32.4510   47.2230 C   0  0  0  0  0  0  0  0  0  0  0  0
   39.4780   32.8870   46.4200 H   0  0  0  0  0  0  0  0  0  0  0  0
   38.9990   33.2140   48.3940 C   0  0  0  0  0  0  0  0  0  0  0  0
   39.5700   34.1290   48.4740 H   0  0  0  0  0  0  0  0  0  0  0  0
   38.3260   32.7890   49.5270 C   0  0  0  0  0  0  0  0  0  0  0  0
   38.3830   33.3600   50.4300 H   0  0  0  0  0  0  0  0  0  0  0  0
   37.5810   31.6290   49.4850 C   0  0  0  0  0  0  0  0  0  0  0  0
   36.7010   31.0250   50.8730 Cl  0  0  0  0  0  0  0  0  0  0  0  0
  1  7  1  6  0  0  0
  1  6  1  0  0  0  0
  1 19  1  0  0  0  0
  2  8  1  0  0  0  0
  2  1  1  0  0  0  0
  2  9  1  0  0  0  0
  3  2  1  0  0  0  0
  4  3  1  0  0  0  0
  4  5  1  0  0  0  0
  5 14  1  0  0  0  0
  5  6  1  0  0  0  0
  6 16  1  6  0  0  0
  6 28  1  0  0  0  0
 10  3  1  0  0  0  0
 11  3  1  0  0  0  0
 12  4  1  0  0  0  0
 13  4  1  0  0  0  0
 15  5  1  0  0  0  0
 17 23  1  0  0  0  0
 17 22  1  0  0  0  0
 18 17  2  0  0  0  0
 19 18  1  0  0  0  0
 19 20  2  0  0  0  0
 20 21  1  0  0  0  0
 21 22  2  0  0  0  0
 21 25  1  0  0  0  0
 24 18  1  0  0  0  0
 26 32  1  0  0  0  0
 27 26  2  0  0  0  0
 28 29  1  0  0  0  0
 28 26  1  0  0  0  0
 30 31  1  0  0  0  0
 31 39  1  0  0  0  0
 32 33  1  0  0  0  0
 32 31  2  0  0  0  0
 33 35  2  0  0  0  0
 34 33  1  0  0  0  0
 35 36  1  0  0  0  0
 35 37  1  0  0  0  0
 37 38  1  0  0  0  0
 39 37  2  0  0  0  0
 39 40  1  0  0  0  0
M  END
>  <minimizedAffinity>
-4.7170949

>  <minimizedRMSD>
4.69938993

$$$$
