REMARK  Name = 
REMARK  5 active torsions:
REMARK  status: ('A' for Active; 'I' for Inactive)
REMARK    1  A    between atoms: C_1  and  C_8
REMARK    2  A    between atoms: C_3  and  N_12
REMARK    3  A    between atoms: C_10  and  C_13
REMARK    4  A    between atoms: C_17  and  C_19
REMARK    5  A    between atoms: C_19  and  C_34
REMARK                            x       y       z     vdW  Elec       q    Type
REMARK                         _______ _______ _______ _____ _____    ______ ____
ROOT
ATOM      1  C   UNL     1      39.138  31.502  43.296  0.00  0.00    +0.000 A 
ATOM      2  C   UNL     1      40.142  30.585  43.435  0.00  0.00    +0.000 A 
ATOM      3  C   UNL     1      40.851  30.231  42.300  0.00  0.00    +0.000 A 
ATOM      4  C   UNL     1      40.506  30.818  41.108  0.00  0.00    +0.000 A 
ATOM      5  C   UNL     1      39.492  31.745  40.962  0.00  0.00    +0.000 A 
ATOM      6  N   UNL     1      38.846  32.045  42.095  0.00  0.00    +0.000 NA
ATOM      7  H   UNL     1      40.402  30.131  44.384  0.00  0.00    +0.000 HD
ATOM      8  H   UNL     1      41.650  29.513  42.364  0.00  0.00    +0.000 HD
ATOM      9  H   UNL     1      41.092  30.506  40.251  0.00  0.00    +0.000 HD
ENDROOT
BRANCH   1  10
ATOM     10  C   UNL     1      38.366  31.899  44.489  0.00  0.00    +0.000 C 
ATOM     11  O   UNL     1      37.239  32.437  44.383  0.00  0.00    +0.000 OA
ATOM     12  N   UNL     1      38.949  31.649  45.794  0.00  0.00    +0.000 N 
ATOM     13  H   UNL     1      39.937  31.411  45.932  0.00  0.00    +0.000 HD
BRANCH  12  16
ATOM     14  C   UNL     1      38.448  31.120  48.165  0.00  0.00    +0.000 C 
ATOM     15  C   UNL     1      38.690  32.584  48.092  0.00  0.00    +0.000 C 
ATOM     16  C   UNL     1      38.078  31.744  46.937  0.00  0.00    +0.000 C 
ATOM     17  H   UNL     1      39.387  30.535  48.260  0.00  0.00    +0.000 HD
ATOM     18  H   UNL     1      39.696  32.980  47.964  0.00  0.00    +0.000 HD
ATOM     19  H   UNL     1      37.983  33.195  48.694  0.00  0.00    +0.000 HD
ATOM     20  H   UNL     1      37.000  31.985  46.746  0.00  0.00    +0.000 HD
BRANCH  14  25
ATOM     21  C   UNL     1      35.079  30.261  49.494  0.00  0.00    +0.000 A 
ATOM     22  C   UNL     1      35.417  29.559  50.694  0.00  0.00    +0.000 A 
ATOM     23  C   UNL     1      36.812  29.403  51.027  0.00  0.00    +0.000 A 
ATOM     24  N   UNL     1      37.764  29.927  50.191  0.00  0.00    +0.000 NA
ATOM     25  C   UNL     1      37.370  30.578  49.076  0.00  0.00    +0.000 A 
ATOM     26  N   UNL     1      36.045  30.762  48.699  0.00  0.00    +0.000 NA
ATOM     27  H   UNL     1      34.025  30.357  49.279  0.00  0.00    +0.000 HD
ATOM     28  H   UNL     1      34.689  29.142  51.359  0.00  0.00    +0.000 HD
ATOM     29  H   UNL     1      37.064  28.873  51.932  0.00  0.00    +0.000 HD
ENDBRANCH  14  25
ENDBRANCH  12  16
ENDBRANCH   1  10
BRANCH   5  30
ATOM     30  C   UNL     1      39.178  32.330  39.664  0.00  0.00    +0.000 C 
ATOM     31  O   UNL     1      38.842  33.556  39.633  0.00  0.00    +0.000 OA
BRANCH  30  34
ATOM     32 CL   UNL     1      37.198  33.455  37.724  0.00  0.00    +0.000 Cl
ATOM     33  C   UNL     1      38.309  32.135  37.456  0.00  0.00    +0.000 A 
ATOM     34  C   UNL     1      39.212  31.644  38.383  0.00  0.00    +0.000 A 
ATOM     35  C   UNL     1      40.057  30.594  38.091  0.00  0.00    +0.000 A 
ATOM     36  H   UNL     1      40.722  30.280  38.867  0.00  0.00    +0.000 HD
ATOM     37  C   UNL     1      39.966  30.049  36.828  0.00  0.00    +0.000 A 
ATOM     38  H   UNL     1      40.635  29.225  36.607  0.00  0.00    +0.000 HD
ATOM     39  C   UNL     1      39.087  30.500  35.870  0.00  0.00    +0.000 A 
ATOM     40  H   UNL     1      39.046  30.047  34.892  0.00  0.00    +0.000 HD
ATOM     41  C   UNL     1      38.247  31.557  36.190  0.00  0.00    +0.000 A 
ATOM     42 CL   UNL     1      37.147  32.096  34.943  0.00  0.00    +0.000 Cl
ENDBRANCH  30  34
ENDBRANCH   5  30
TORSDOF 5
