
 OpenBabel03272508573D

 42 45  0  0  1  0  0  0  0  0999 V2000
   39.1620   31.4220   43.3430 C   0  0  0  0  0  0  0  0  0  0  0  0
   40.2170   30.5700   43.5150 C   0  0  0  0  0  0  0  0  0  0  0  0
   40.9340   30.2000   42.3900 C   0  0  0  0  0  0  0  0  0  0  0  0
   40.5460   30.7070   41.1750 C   0  0  0  0  0  0  0  0  0  0  0  0
   39.4800   31.5680   40.9960 C   0  0  0  0  0  0  0  0  0  0  0  0
   38.8290   31.8870   42.1200 N   0  0  0  0  0  0  0  0  0  0  0  0
   40.5110   30.1790   44.4820 H   0  0  0  0  0  0  0  0  0  0  0  0
   41.7730   29.5320   42.4800 H   0  0  0  0  0  0  0  0  0  0  0  0
   41.1400   30.3860   40.3270 H   0  0  0  0  0  0  0  0  0  0  0  0
   38.3800   31.8340   44.5240 C   0  0  0  0  0  0  0  0  0  0  0  0
   37.2550   32.3720   44.4020 O   0  0  0  0  0  0  0  0  0  0  0  0
   38.9510   31.6000   45.8370 N   0  0  0  0  0  0  0  0  0  0  0  0
   39.9380   31.3620   45.9870 H   0  0  0  0  0  0  0  0  0  0  0  0
   38.4320   31.1050   48.2120 C   0  0  2  0  0  0  0  0  0  0  0  0
   38.6700   32.5690   48.1180 C   0  0  0  0  0  0  0  0  0  0  0  0
   38.0700   31.7090   46.9710 C   0  0  1  0  0  0  0  0  0  0  0  0
   39.3710   30.5240   48.3230 H   0  0  0  0  0  0  0  0  0  0  0  0
   39.6760   32.9660   47.9930 H   0  0  0  0  0  0  0  0  0  0  0  0
   37.9570   33.1870   48.7050 H   0  0  0  0  0  0  0  0  0  0  0  0
   36.9930   31.9440   46.7670 H   0  0  0  0  0  0  0  0  0  0  0  0
   35.0550   30.2420   49.5170 C   0  0  0  0  0  0  0  0  0  0  0  0
   35.3840   29.5740   50.7390 C   0  0  0  0  0  0  0  0  0  0  0  0
   36.7760   29.4430   51.0940 C   0  0  0  0  0  0  0  0  0  0  0  0
   37.7330   29.9560   50.2580 N   0  0  0  0  0  0  0  0  0  0  0  0
   37.3470   30.5740   49.1220 C   0  0  0  0  0  0  0  0  0  0  0  0
   36.0260   30.7330   48.7220 N   0  0  0  0  0  0  0  0  0  0  0  0
   34.0030   30.3200   49.2860 H   0  0  0  0  0  0  0  0  0  0  0  0
   34.6520   29.1660   51.4050 H   0  0  0  0  0  0  0  0  0  0  0  0
   37.0220   28.9390   52.0160 H   0  0  0  0  0  0  0  0  0  0  0  0
   39.1210   32.0690   39.6740 C   0  0  0  0  0  0  0  0  0  0  0  0
   39.0630   33.3290   39.5150 O   0  0  0  0  0  0  0  0  0  0  0  0
   41.4810   31.7860   37.8550 Cl  0  0  0  0  0  0  0  0  0  0  0  0
   39.8870   31.1070   37.6350 C   0  0  0  0  0  0  0  0  0  0  0  0
   38.8210   31.2620   38.5030 C   0  0  0  0  0  0  0  0  0  0  0  0
   37.5900   30.6910   38.2550 C   0  0  0  0  0  0  0  0  0  0  0  0
   36.8230   30.8630   38.9800 H   0  0  0  0  0  0  0  0  0  0  0  0
   37.4640   29.9520   37.0980 C   0  0  0  0  0  0  0  0  0  0  0  0
   36.4950   29.5070   36.9100 H   0  0  0  0  0  0  0  0  0  0  0  0
   38.4930   29.7670   36.2010 C   0  0  0  0  0  0  0  0  0  0  0  0
   38.3540   29.1820   35.3060 H   0  0  0  0  0  0  0  0  0  0  0  0
   39.7210   30.3530   36.4760 C   0  0  0  0  0  0  0  0  0  0  0  0
   40.9970   30.0910   35.3100 Cl  0  0  0  0  0  0  0  0  0  0  0  0
  1  2  1  0  0  0  0
  1 10  1  0  0  0  0
  2  7  1  0  0  0  0
  3  8  1  0  0  0  0
  3  2  2  0  0  0  0
  4  3  1  0  0  0  0
  5  4  2  0  0  0  0
  5  6  1  0  0  0  0
  6  1  2  0  0  0  0
  9  4  1  0  0  0  0
 10 12  1  0  0  0  0
 11 10  2  0  0  0  0
 12 13  1  0  0  0  0
 12 16  1  0  0  0  0
 14 17  1  6  0  0  0
 14 25  1  0  0  0  0
 15 14  1  0  0  0  0
 15 19  1  0  0  0  0
 16 20  1  6  0  0  0
 16 15  1  0  0  0  0
 16 14  1  0  0  0  0
 18 15  1  0  0  0  0
 21 22  1  0  0  0  0
 22 23  2  0  0  0  0
 22 28  1  0  0  0  0
 23 29  1  0  0  0  0
 24 23  1  0  0  0  0
 25 24  2  0  0  0  0
 26 25  1  0  0  0  0
 26 21  2  0  0  0  0
 27 21  1  0  0  0  0
 30  5  1  0  0  0  0
 31 30  2  0  0  0  0
 33 32  1  0  0  0  0
 33 34  1  0  0  0  0
 34 30  1  0  0  0  0
 35 34  2  0  0  0  0
 35 36  1  0  0  0  0
 37 35  1  0  0  0  0
 38 37  1  0  0  0  0
 39 41  1  0  0  0  0
 39 37  2  0  0  0  0
 40 39  1  0  0  0  0
 41 33  2  0  0  0  0
 42 41  1  0  0  0  0
M  END
>  <minimizedAffinity>
-4.93337774

>  <minimizedRMSD>
0.637892783

$$$$
