
 OpenBabel03272509403D

 37 39  0  0  1  0  0  0  0  0999 V2000
   36.8810   30.9000   49.0020 C   0  0  0  0  0  0  0  0  0  0  0  0
   36.6430   31.7770   50.0630 C   0  0  0  0  0  0  0  0  0  0  0  0
   37.2710   33.0010   50.1630 C   0  0  0  0  0  0  0  0  0  0  0  0
   38.1800   33.3930   49.1780 C   0  0  0  0  0  0  0  0  0  0  0  0
   38.4030   32.5260   48.1450 C   0  0  0  0  0  0  0  0  0  0  0  0
   37.7610   31.3050   48.0670 C   0  0  0  0  0  0  0  0  0  0  0  0
   35.9440   31.5440   50.8780 H   0  0  0  0  0  0  0  0  0  0  0  0
   37.0690   33.6640   50.9990 H   0  0  0  0  0  0  0  0  0  0  0  0
   38.6510   34.3490   49.2820 H   0  0  0  0  0  0  0  0  0  0  0  0
   39.1170   32.9030   47.4250 H   0  0  0  0  0  0  0  0  0  0  0  0
   36.1680   29.6330   48.9870 C   0  0  1  0  0  3  0  0  0  0  0  0
   36.6770   28.7300   49.7590 O   0  0  0  0  0  1  0  0  0  0  0  0
   33.4190   30.2870   46.7170 C   0  0  0  0  0  0  0  0  0  0  0  0
   32.7670   29.0580   46.6180 C   0  0  0  0  0  0  0  0  0  0  0  0
   33.2720   27.9850   47.3400 C   0  0  0  0  0  0  0  0  0  0  0  0
   34.3840   28.1690   48.1210 N   0  0  0  0  0  0  0  0  0  0  0  0
   34.9720   29.3510   48.1860 C   0  0  0  0  0  0  0  0  0  0  0  0
   34.4870   30.4010   47.4860 N   0  0  0  0  0  0  0  0  0  0  0  0
   32.9710   31.0700   46.1290 H   0  0  0  0  0  0  0  0  0  0  0  0
   31.9040   28.7880   46.0540 H   0  0  0  0  0  0  0  0  0  0  0  0
   32.9070   26.9660   47.3930 H   0  0  0  0  0  0  0  0  0  0  0  0
   38.1090   30.4990   46.9200 C   0  0  0  0  0  3  0  0  0  0  0  0
   38.9600   30.7970   45.9570 C   0  0  0  0  0  3  0  0  0  0  0  0
   39.4150   30.0810   44.7650 C   0  0  0  0  0  0  0  0  0  0  0  0
   39.5800   29.0190   45.0330 H   0  0  0  0  0  0  0  0  0  0  0  0
   40.3940   30.4610   44.4070 H   0  0  0  0  0  0  0  0  0  0  0  0
   39.7690   32.5100   43.1420 Cl  0  0  0  0  0  0  0  0  0  0  0  0
   38.5450   31.2520   42.9200 C   0  0  0  0  0  0  0  0  0  0  0  0
   38.3860   30.1110   43.6910 C   0  0  0  0  0  0  0  0  0  0  0  0
   37.3820   29.2230   43.3910 C   0  0  0  0  0  0  0  0  0  0  0  0
   37.3720   28.3790   44.0710 H   0  0  0  0  0  0  0  0  0  0  0  0
   36.5460   29.4790   42.3270 C   0  0  0  0  0  0  0  0  0  0  0  0
   35.7880   28.7360   42.1590 H   0  0  0  0  0  0  0  0  0  0  0  0
   36.6860   30.6060   41.5470 C   0  0  0  0  0  0  0  0  0  0  0  0
   35.9990   30.7540   40.7240 H   0  0  0  0  0  0  0  0  0  0  0  0
   37.7020   31.5150   41.8420 C   0  0  0  0  0  0  0  0  0  0  0  0
   37.8170   32.9200   40.8090 Cl  0  0  0  0  0  0  0  0  0  0  0  0
  1  2  1  0  0  0  0
  2  3  2  0  0  0  0
  2  7  1  0  0  0  0
  3  8  1  0  0  0  0
  4  9  1  0  0  0  0
  4  3  1  0  0  0  0
  5  4  2  0  0  0  0
  6  5  1  0  0  0  0
  6  1  2  0  0  0  0
 10  5  1  0  0  0  0
 11  1  1  0  0  0  0
 11 12  1  1  0  0  0
 13 18  1  0  0  0  0
 14 13  2  0  0  0  0
 14 15  1  0  0  0  0
 15 21  1  0  0  0  0
 15 16  2  0  0  0  0
 16 17  1  0  0  0  0
 17 11  1  0  0  0  0
 18 17  2  0  0  0  0
 19 13  1  0  0  0  0
 20 14  1  0  0  0  0
 22  6  1  0  0  0  0
 23 22  2  0  0  0  0
 24 25  1  0  0  0  0
 24 23  1  0  0  0  0
 26 24  1  0  0  0  0
 28 27  1  0  0  0  0
 28 29  1  0  0  0  0
 29 24  1  0  0  0  0
 30 29  2  0  0  0  0
 30 31  1  0  0  0  0
 32 30  1  0  0  0  0
 33 32  1  0  0  0  0
 34 36  1  0  0  0  0
 34 32  2  0  0  0  0
 35 34  1  0  0  0  0
 36 28  2  0  0  0  0
 37 36  1  0  0  0  0
M  END
>  <minimizedAffinity>
-5.95284462

>  <minimizedRMSD>
2.92537546

$$$$
