
 OpenBabel03262522233D

 34 36  0  0  0  0  0  0  0  0999 V2000
   37.7500   30.0810   49.7300 C   0  0  0  0  0  0  0  0  0  0  0  0
   37.6680   30.9300   48.6080 C   0  0  0  0  0  0  0  0  0  0  0  0
   36.4280   31.1030   48.0100 C   0  0  0  0  0  0  0  0  0  0  0  0
   35.3680   30.4430   48.5450 N   0  0  0  0  0  0  0  0  0  0  0  0
   35.4910   29.6590   49.5970 C   0  0  0  0  0  0  0  0  0  0  0  0
   36.6890   29.4380   50.2430 N   0  0  0  0  0  0  0  0  0  0  0  0
   38.6670   29.8870   50.2580 H   0  0  0  0  0  0  0  0  0  0  0  0
   36.3790   31.7450   47.1650 H   0  0  0  0  0  0  0  0  0  0  0  0
   38.8440   31.5030   48.2210 O   0  0  0  0  0  0  0  0  0  0  0  0
   39.1810   31.4490   46.8640 C   0  0  0  0  0  0  0  0  0  0  0  0
   39.2020   30.3580   46.0550 C   0  0  0  0  0  0  0  0  0  0  0  0
   39.5570   30.4830   44.7500 C   0  0  0  0  0  0  0  0  0  0  0  0
   39.8910   31.7280   44.2680 C   0  0  0  0  0  0  0  0  0  0  0  0
   39.8680   32.8320   45.0970 C   0  0  0  0  0  0  0  0  0  0  0  0
   39.5050   32.6550   46.4010 N   0  0  0  0  0  0  0  0  0  0  0  0
   38.9170   29.4300   46.5520 H   0  0  0  0  0  0  0  0  0  0  0  0
   39.5660   29.6080   44.1310 H   0  0  0  0  0  0  0  0  0  0  0  0
   40.1770   31.8410   43.2280 H   0  0  0  0  0  0  0  0  0  0  0  0
   40.2350   34.2000   44.5720 C   0  0  0  0  0  0  0  0  0  0  0  0
   41.1060   34.5350   45.1650 H   0  0  0  0  0  0  0  0  0  0  0  0
   40.5570   34.0770   43.5400 H   0  0  0  0  0  0  0  0  0  0  0  0
   39.3690   34.8840   44.6270 H   0  0  0  0  0  0  0  0  0  0  0  0
   33.9030   28.9260   50.0870 S   0  0  0  0  0  0  0  0  0  0  0  0
   30.7740   28.2760   49.8160 Cl  0  0  0  0  0  0  0  0  0  0  0  0
   31.8910   27.6190   48.6620 C   0  0  0  0  0  0  0  0  0  0  0  0
   33.2270   27.9140   48.8030 C   0  0  0  0  0  0  0  0  0  0  0  0
   34.1420   27.4090   47.9040 C   0  0  0  0  0  0  0  0  0  0  0  0
   35.2040   27.5900   47.9420 H   0  0  0  0  0  0  0  0  0  0  0  0
   33.6520   26.6020   46.8710 C   0  0  0  0  0  0  0  0  0  0  0  0
   34.2650   26.1540   46.1140 H   0  0  0  0  0  0  0  0  0  0  0  0
   32.3180   26.3150   46.7400 C   0  0  0  0  0  0  0  0  0  0  0  0
   31.9130   25.6950   45.9510 H   0  0  0  0  0  0  0  0  0  0  0  0
   31.3940   26.8160   47.6340 C   0  0  0  0  0  0  0  0  0  0  0  0
   29.6820   26.4960   47.5340 Cl  0  0  0  0  0  0  0  0  0  0  0  0
  1  6  1  0  0  0  0
  1  7  1  0  0  0  0
  2  1  2  0  0  0  0
  3  4  2  0  0  0  0
  3  2  1  0  0  0  0
  4  5  1  0  0  0  0
  5 23  1  0  0  0  0
  5  6  2  0  0  0  0
  8  3  1  0  0  0  0
  9  2  1  0  0  0  0
 10  9  1  0  0  0  0
 11 16  1  0  0  0  0
 11 10  2  0  0  0  0
 12 11  1  0  0  0  0
 13 12  2  0  0  0  0
 13 14  1  0  0  0  0
 14 15  2  0  0  0  0
 15 10  1  0  0  0  0
 17 12  1  0  0  0  0
 18 13  1  0  0  0  0
 19 22  1  0  0  0  0
 19 14  1  0  0  0  0
 19 20  1  0  0  0  0
 21 19  1  0  0  0  0
 25 26  1  0  0  0  0
 25 24  1  0  0  0  0
 26 23  1  0  0  0  0
 27 28  1  0  0  0  0
 27 26  2  0  0  0  0
 29 27  1  0  0  0  0
 30 29  1  0  0  0  0
 31 29  2  0  0  0  0
 31 33  1  0  0  0  0
 32 31  1  0  0  0  0
 33 25  2  0  0  0  0
 34 33  1  0  0  0  0
M  END
>  <minimizedAffinity>
-5.1782012

>  <minimizedRMSD>
1.980039

$$$$
