REMARK  Name = 
REMARK  4 active torsions:
REMARK  status: ('A' for Active; 'I' for Inactive)
REMARK    1  A    between atoms: N_1  and  C_6
REMARK    2  A    between atoms: C_3  and  C_13
REMARK    3  A    between atoms: C_10  and  S_12
REMARK    4  A    between atoms: S_12  and  C_28
REMARK                            x       y       z     vdW  Elec       q    Type
REMARK                         _______ _______ _______ _____ _____    ______ ____
ROOT
ATOM      1  C   UNL     1      35.292  29.537  47.933  0.00  0.00    +0.000 A 
ATOM      2  C   UNL     1      35.244  30.000  46.606  0.00  0.00    +0.000 A 
ATOM      3  C   UNL     1      34.093  29.665  45.875  0.00  0.00    +0.000 A 
ATOM      4  N   UNL     1      33.123  28.925  46.504  0.00  0.00    +0.000 NA
ATOM      5  C   UNL     1      33.206  28.506  47.761  0.00  0.00    +0.000 A 
ATOM      6  N   UNL     1      34.312  28.822  48.479  0.00  0.00    +0.000 NA
ATOM      7  H   UNL     1      36.028  30.582  46.141  0.00  0.00    +0.000 HD
ATOM      8  H   UNL     1      33.972  29.976  44.857  0.00  0.00    +0.000 HD
ENDROOT
BRANCH   1   9
ATOM      9  N   UNL     1      36.473  29.885  48.675  0.00  0.00    +0.000 N 
ATOM     10  C   UNL     1      37.597  30.644  48.231  0.00  0.00    +0.000 C 
ATOM     11  C   UNL     1      38.103  31.288  49.520  0.00  0.00    +0.000 C 
ATOM     12  C   UNL     1      37.107  30.896  50.597  0.00  0.00    +0.000 C 
ATOM     13  C   UNL     1      36.748  29.522  50.044  0.00  0.00    +0.000 C 
ATOM     14  H   UNL     1      38.388  30.038  47.751  0.00  0.00    +0.000 HD
ATOM     15  H   UNL     1      37.246  31.459  47.559  0.00  0.00    +0.000 HD
ATOM     16  H   UNL     1      39.103  30.874  49.759  0.00  0.00    +0.000 HD
ATOM     17  H   UNL     1      36.218  31.549  50.582  0.00  0.00    +0.000 HD
ATOM     18  H   UNL     1      37.583  30.834  51.588  0.00  0.00    +0.000 HD
ATOM     19  H   UNL     1      35.822  29.221  50.567  0.00  0.00    +0.000 HD
ATOM     20  H   UNL     1      37.597  28.831  50.168  0.00  0.00    +0.000 HD
BRANCH  11  21
ATOM     21  C   UNL     1      38.269  32.777  49.404  0.00  0.00    +0.000 C 
ATOM     22  F   UNL     1      37.089  33.340  49.890  0.00  0.00    +0.000 F 
ATOM     23  F   UNL     1      38.300  33.089  48.057  0.00  0.00    +0.000 F 
ATOM     24  F   UNL     1      39.362  33.262  50.040  0.00  0.00    +0.000 F 
ENDBRANCH  11  21
ENDBRANCH   1   9
BRANCH   5  25
ATOM     25  S   UNL     1      31.931  27.558  48.527  0.00  0.00    +0.000 S 
BRANCH  25  28
ATOM     26 CL   UNL     1      34.828  26.425  48.913  0.00  0.00    +0.000 Cl
ATOM     27  C   UNL     1      33.544  25.323  48.416  0.00  0.00    +0.000 A 
ATOM     28  C   UNL     1      32.252  25.825  48.244  0.00  0.00    +0.000 A 
ATOM     29  C   UNL     1      31.263  24.927  47.851  0.00  0.00    +0.000 A 
ATOM     30  H   UNL     1      30.259  25.349  47.724  0.00  0.00    +0.000 HD
ATOM     31  C   UNL     1      31.584  23.592  47.648  0.00  0.00    +0.000 A 
ATOM     32  H   UNL     1      30.750  22.965  47.343  0.00  0.00    +0.000 HD
ATOM     33  C   UNL     1      32.845  23.108  47.817  0.00  0.00    +0.000 A 
ATOM     34  H   UNL     1      33.031  22.055  47.642  0.00  0.00    +0.000 HD
ATOM     35  C   UNL     1      33.832  24.001  48.208  0.00  0.00    +0.000 A 
ATOM     36 CL   UNL     1      35.458  23.453  48.442  0.00  0.00    +0.000 Cl
ENDBRANCH  25  28
ENDBRANCH   5  25
TORSDOF 4
