
 OpenBabel03272500543D

 34 36  0  0  0  0  0  0  0  0999 V2000
   36.7140   30.9580   42.8260 C   0  0  0  0  0  0  0  0  0  0  0  0
   36.9870   30.5180   41.5250 C   0  0  0  0  0  0  0  0  0  0  0  0
   38.1680   30.8410   40.8640 C   0  0  0  0  0  0  0  0  0  0  0  0
   39.1220   31.6500   41.5470 C   0  0  0  0  0  0  0  0  0  0  0  0
   38.8150   32.0590   42.8150 C   0  0  0  0  0  0  0  0  0  0  0  0
   37.6650   31.7410   43.4600 C   0  0  0  0  0  0  0  0  0  0  0  0
   36.2620   29.9000   40.9990 H   0  0  0  0  0  0  0  0  0  0  0  0
   38.2820   30.4400   39.8430 H   0  0  0  0  0  0  0  0  0  0  0  0
   39.9660   31.8030   40.8980 H   0  0  0  0  0  0  0  0  0  0  0  0
   39.6480   32.6750   43.0770 H   0  0  0  0  0  0  0  0  0  0  0  0
   35.3640   29.3300   44.0030 C   0  0  0  0  0  0  0  0  0  0  0  0
   35.4170   30.5770   43.3500 C   0  0  0  0  0  0  0  0  0  0  0  0
   34.2240   31.3070   43.2750 C   0  0  0  0  0  0  0  0  0  0  0  0
   33.0990   30.8090   43.8120 N   0  0  0  0  0  0  0  0  0  0  0  0
   33.0620   29.6210   44.4300 C   0  0  0  0  0  0  0  0  0  0  0  0
   34.1900   28.8930   44.5200 N   0  0  0  0  0  0  0  0  0  0  0  0
   36.2550   28.7160   44.0950 H   0  0  0  0  0  0  0  0  0  0  0  0
   34.3120   32.2510   42.7700 H   0  0  0  0  0  0  0  0  0  0  0  0
   32.1510   29.2280   44.8600 H   0  0  0  0  0  0  0  0  0  0  0  0
   38.0190   31.2950   45.7380 C   0  0  0  0  0  0  0  0  0  0  0  0
   38.6740   30.2760   45.3220 O   0  0  0  0  0  0  0  0  0  0  0  0
   37.3810   32.1460   44.7670 N   0  0  0  0  0  0  0  0  0  0  0  0
   36.8000   32.9440   44.9890 H   0  0  0  0  0  0  0  0  0  0  0  0
   39.9280   33.3830   46.7890 Cl  0  0  0  0  0  0  0  0  0  0  0  0
   38.7040   32.5770   47.7390 C   0  0  0  0  0  0  0  0  0  0  0  0
   37.8830   31.6420   47.1740 C   0  0  0  0  0  0  0  0  0  0  0  0
   36.8910   30.9610   47.8630 C   0  0  0  0  0  0  0  0  0  0  0  0
   36.2360   30.2180   47.4250 H   0  0  0  0  0  0  0  0  0  0  0  0
   36.7060   31.2350   49.2120 C   0  0  0  0  0  0  0  0  0  0  0  0
   35.9420   30.7300   49.7990 H   0  0  0  0  0  0  0  0  0  0  0  0
   37.5340   32.1800   49.7870 C   0  0  0  0  0  0  0  0  0  0  0  0
   37.4420   32.4430   50.8450 H   0  0  0  0  0  0  0  0  0  0  0  0
   38.5180   32.8520   49.0960 C   0  0  0  0  0  0  0  0  0  0  0  0
   39.5560   34.0480   49.8490 Cl  0  0  0  0  0  0  0  0  0  0  0  0
  1 12  1  0  0  0  0
  1  6  1  0  0  0  0
  2  1  2  0  0  0  0
  3  2  1  0  0  0  0
  3  4  2  0  0  0  0
  4  5  1  0  0  0  0
  5 10  1  0  0  0  0
  5  6  2  0  0  0  0
  6 22  1  0  0  0  0
  7  2  1  0  0  0  0
  8  3  1  0  0  0  0
  9  4  1  0  0  0  0
 11 17  1  0  0  0  0
 11 16  1  0  0  0  0
 12 11  2  0  0  0  0
 13 12  1  0  0  0  0
 13 14  2  0  0  0  0
 14 15  1  0  0  0  0
 15 16  2  0  0  0  0
 15 19  1  0  0  0  0
 18 13  1  0  0  0  0
 20 26  1  0  0  0  0
 21 20  2  0  0  0  0
 22 23  1  0  0  0  0
 22 20  1  0  0  0  0
 24 25  1  0  0  0  0
 25 33  1  0  0  0  0
 26 25  2  0  0  0  0
 26 27  1  0  0  0  0
 27 29  2  0  0  0  0
 28 27  1  0  0  0  0
 29 31  1  0  0  0  0
 29 30  1  0  0  0  0
 31 32  1  0  0  0  0
 33 31  2  0  0  0  0
 33 34  1  0  0  0  0
M  END
>  <minimizedAffinity>
-5.5800457

>  <minimizedRMSD>
5.41668892

$$$$
