
 OpenBabel03272509313D

 40 42  0  0  1  0  0  0  0  0999 V2000
   36.6240   31.2710   49.3470 C   0  0  2  0  0  0  0  0  0  0  0  0
   37.2180   30.8210   50.6500 C   0  0  0  0  0  0  0  0  0  0  0  0
   36.9120   29.3710   50.9630 C   0  0  0  0  0  0  0  0  0  0  0  0
   35.4050   29.1220   50.9690 C   0  0  0  0  0  0  0  0  0  0  0  0
   34.6530   29.9240   49.9310 C   0  0  0  0  0  0  0  0  0  0  0  0
   35.6370   30.2900   48.8080 C   0  0  1  0  0  0  0  0  0  0  0  0
   36.0590   32.2400   49.4270 H   0  0  0  0  0  0  0  0  0  0  0  0
   36.6210   31.3910   51.4410 H   0  0  0  0  0  0  0  0  0  0  0  0
   38.2400   31.0730   50.8420 H   0  0  0  0  0  0  0  0  0  0  0  0
   37.2910   29.1540   51.9580 H   0  0  0  0  0  0  0  0  0  0  0  0
   37.3270   28.6870   50.2010 H   0  0  0  0  0  0  0  0  0  0  0  0
   35.2500   28.0340   50.7610 H   0  0  0  0  0  0  0  0  0  0  0  0
   35.0380   29.3380   51.9780 H   0  0  0  0  0  0  0  0  0  0  0  0
   34.3130   30.8650   50.3570 H   0  0  0  0  0  0  0  0  0  0  0  0
   33.7880   29.3840   49.5090 H   0  0  0  0  0  0  0  0  0  0  0  0
   36.0890   29.3480   48.6260 H   0  0  0  0  0  0  0  0  0  0  0  0
   37.6800   31.5050   48.3300 C   0  0  0  0  0  0  0  0  0  0  0  0
   38.3690   32.7370   48.4400 C   0  0  0  0  0  0  0  0  0  0  0  0
   39.3730   32.9710   47.4920 C   0  0  0  0  0  0  0  0  0  0  0  0
   39.6230   32.0130   46.5340 N   0  0  0  0  0  0  0  0  0  0  0  0
   38.9270   30.8400   46.4760 C   0  0  0  0  0  0  0  0  0  0  0  0
   37.9610   30.6110   47.3830 N   0  0  0  0  0  0  0  0  0  0  0  0
   38.2780   33.5490   49.1320 H   0  0  0  0  0  0  0  0  0  0  0  0
   39.9760   33.8490   47.4440 H   0  0  0  0  0  0  0  0  0  0  0  0
   39.1760   30.1310   45.6990 H   0  0  0  0  0  0  0  0  0  0  0  0
   34.4940   29.7730   46.6170 C   0  0  0  0  0  0  0  0  0  0  0  0
   34.2220   28.5040   46.6750 O   0  0  0  0  0  0  0  0  0  0  0  0
   35.0500   30.6480   47.5700 N   0  0  0  0  0  0  0  0  0  0  0  0
   34.9530   31.6440   47.2000 H   0  0  0  0  0  0  0  0  0  0  0  0
   36.3920   29.6150   44.1300 Cl  0  0  0  0  0  0  0  0  0  0  0  0
   34.7480   30.1280   44.0550 C   0  0  0  0  0  0  0  0  0  0  0  0
   34.0770   30.1390   45.2400 C   0  0  0  0  0  0  0  0  0  0  0  0
   32.7430   30.5650   45.1100 C   0  0  0  0  0  0  0  0  0  0  0  0
   32.1090   30.6100   46.0120 H   0  0  0  0  0  0  0  0  0  0  0  0
   32.1080   30.9490   43.9470 C   0  0  0  0  0  0  0  0  0  0  0  0
   31.0730   31.2600   43.9590 H   0  0  0  0  0  0  0  0  0  0  0  0
   32.8690   30.9040   42.8110 C   0  0  0  0  0  0  0  0  0  0  0  0
   32.4170   31.1980   41.8710 H   0  0  0  0  0  0  0  0  0  0  0  0
   34.1770   30.4970   42.8690 C   0  0  0  0  0  0  0  0  0  0  0  0
   35.1900   30.4210   41.4350 Cl  0  0  0  0  0  0  0  0  0  0  0  0
  1  7  1  1  0  0  0
  1  2  1  0  0  0  0
  2  9  1  0  0  0  0
  2  3  1  0  0  0  0
  2  8  1  0  0  0  0
  3  4  1  0  0  0  0
  3 10  1  0  0  0  0
  4 13  1  0  0  0  0
  5 14  1  0  0  0  0
  5  4  1  0  0  0  0
  6 16  1  6  0  0  0
  6  1  1  0  0  0  0
  6  5  1  0  0  0  0
 11  3  1  0  0  0  0
 12  4  1  0  0  0  0
 15  5  1  0  0  0  0
 17 18  1  0  0  0  0
 17  1  1  0  0  0  0
 18 23  1  0  0  0  0
 19 18  2  0  0  0  0
 20 19  1  0  0  0  0
 21 20  2  0  0  0  0
 21 22  1  0  0  0  0
 22 17  2  0  0  0  0
 24 19  1  0  0  0  0
 25 21  1  0  0  0  0
 26 27  2  0  0  0  0
 26 28  1  0  0  0  0
 28  6  1  0  0  0  0
 29 28  1  0  0  0  0
 31 30  1  0  0  0  0
 31 32  1  0  0  0  0
 32 26  1  0  0  0  0
 33 32  2  0  0  0  0
 33 34  1  0  0  0  0
 35 36  1  0  0  0  0
 35 33  1  0  0  0  0
 37 39  1  0  0  0  0
 37 35  2  0  0  0  0
 38 37  1  0  0  0  0
 39 31  2  0  0  0  0
 40 39  1  0  0  0  0
M  END
>  <minimizedAffinity>
-6.12089109

>  <minimizedRMSD>
4.44138765

$$$$
