
 OpenBabel03272508583D

 42 45  0  0  1  0  0  0  0  0999 V2000
   39.1030   31.5090   43.3810 C   0  0  0  0  0  0  0  0  0  0  0  0
   40.0870   30.5700   43.5170 C   0  0  0  0  0  0  0  0  0  0  0  0
   40.8090   30.2260   42.3870 C   0  0  0  0  0  0  0  0  0  0  0  0
   40.4960   30.8450   41.2020 C   0  0  0  0  0  0  0  0  0  0  0  0
   39.5030   31.7950   41.0590 C   0  0  0  0  0  0  0  0  0  0  0  0
   38.8430   32.0830   42.1870 N   0  0  0  0  0  0  0  0  0  0  0  0
   40.3220   30.0900   44.4600 H   0  0  0  0  0  0  0  0  0  0  0  0
   41.5930   29.4920   42.4490 H   0  0  0  0  0  0  0  0  0  0  0  0
   41.0910   30.5400   40.3490 H   0  0  0  0  0  0  0  0  0  0  0  0
   38.3180   31.8950   44.5690 C   0  0  0  0  0  0  0  0  0  0  0  0
   37.1490   32.3330   44.4590 O   0  0  0  0  0  0  0  0  0  0  0  0
   38.9380   31.7530   45.8730 N   0  0  0  0  0  0  0  0  0  0  0  0
   39.9440   31.6030   46.0040 H   0  0  0  0  0  0  0  0  0  0  0  0
   38.4500   31.1640   48.2320 C   0  0  2  0  0  0  0  0  0  0  0  0
   38.7130   32.6250   48.1990 C   0  0  0  0  0  0  0  0  0  0  0  0
   38.0780   31.8280   47.0260 C   0  0  1  0  0  0  0  0  0  0  0  0
   39.3800   30.5620   48.3020 H   0  0  0  0  0  0  0  0  0  0  0  0
   39.7240   33.0100   48.0730 H   0  0  0  0  0  0  0  0  0  0  0  0
   38.0210   33.2290   48.8240 H   0  0  0  0  0  0  0  0  0  0  0  0
   37.0030   32.0900   46.8520 H   0  0  0  0  0  0  0  0  0  0  0  0
   35.0830   30.2460   49.5270 C   0  0  0  0  0  0  0  0  0  0  0  0
   35.4190   29.5750   50.7450 C   0  0  0  0  0  0  0  0  0  0  0  0
   36.8120   29.4590   51.1010 C   0  0  0  0  0  0  0  0  0  0  0  0
   37.7640   29.9910   50.2700 N   0  0  0  0  0  0  0  0  0  0  0  0
   37.3710   30.6120   49.1370 C   0  0  0  0  0  0  0  0  0  0  0  0
   36.0480   30.7560   48.7370 N   0  0  0  0  0  0  0  0  0  0  0  0
   34.0300   30.3120   49.2950 H   0  0  0  0  0  0  0  0  0  0  0  0
   34.6920   29.1520   51.4060 H   0  0  0  0  0  0  0  0  0  0  0  0
   37.0640   28.9520   52.0190 H   0  0  0  0  0  0  0  0  0  0  0  0
   39.2230   32.4130   39.7690 C   0  0  0  0  0  0  0  0  0  0  0  0
   38.6450   33.5460   39.7680 O   0  0  0  0  0  0  0  0  0  0  0  0
   37.0790   30.5870   38.7580 Cl  0  0  0  0  0  0  0  0  0  0  0  0
   38.5750   31.0060   37.9610 C   0  0  0  0  0  0  0  0  0  0  0  0
   39.5430   31.8580   38.4640 C   0  0  0  0  0  0  0  0  0  0  0  0
   40.7000   32.1380   37.7680 C   0  0  0  0  0  0  0  0  0  0  0  0
   41.3920   32.8070   38.2330 H   0  0  0  0  0  0  0  0  0  0  0  0
   40.8560   31.5300   36.5410 C   0  0  0  0  0  0  0  0  0  0  0  0
   41.7680   31.7560   36.0010 H   0  0  0  0  0  0  0  0  0  0  0  0
   39.9240   30.6760   35.9950 C   0  0  0  0  0  0  0  0  0  0  0  0
   40.0830   30.2200   35.0310 H   0  0  0  0  0  0  0  0  0  0  0  0
   38.7690   30.4110   36.7160 C   0  0  0  0  0  0  0  0  0  0  0  0
   37.6150   29.3210   35.9840 Cl  0  0  0  0  0  0  0  0  0  0  0  0
  1  2  1  0  0  0  0
  1 10  1  0  0  0  0
  2  7  1  0  0  0  0
  3  8  1  0  0  0  0
  3  2  2  0  0  0  0
  4  3  1  0  0  0  0
  5  4  2  0  0  0  0
  5  6  1  0  0  0  0
  6  1  2  0  0  0  0
  9  4  1  0  0  0  0
 10 12  1  0  0  0  0
 11 10  2  0  0  0  0
 12 13  1  0  0  0  0
 12 16  1  0  0  0  0
 14 17  1  6  0  0  0
 14 25  1  0  0  0  0
 15 14  1  0  0  0  0
 15 19  1  0  0  0  0
 16 20  1  6  0  0  0
 16 15  1  0  0  0  0
 16 14  1  0  0  0  0
 18 15  1  0  0  0  0
 21 22  1  0  0  0  0
 22 23  2  0  0  0  0
 22 28  1  0  0  0  0
 23 29  1  0  0  0  0
 24 23  1  0  0  0  0
 25 24  2  0  0  0  0
 26 25  1  0  0  0  0
 26 21  2  0  0  0  0
 27 21  1  0  0  0  0
 30  5  1  0  0  0  0
 31 30  2  0  0  0  0
 33 34  1  0  0  0  0
 33 32  1  0  0  0  0
 34 30  1  0  0  0  0
 35 36  1  0  0  0  0
 35 34  2  0  0  0  0
 37 35  1  0  0  0  0
 38 37  1  0  0  0  0
 39 37  2  0  0  0  0
 39 41  1  0  0  0  0
 40 39  1  0  0  0  0
 41 33  2  0  0  0  0
 42 41  1  0  0  0  0
M  END
>  <minimizedAffinity>
-4.97026205

>  <minimizedRMSD>
1.0160234

$$$$
