
     RDKit          3D

 42 45  0  0  0  0  0  0  0  0999 V2000
   38.4477   31.1199   48.1650 C   0  0  2  0  0  0  0  0  0  0  0  0
   38.6898   32.5843   48.0924 C   0  0  0  0  0  0  0  0  0  0  0  0
   38.0779   31.7441   46.9370 C   0  0  1  0  0  0  0  0  0  0  0  0
   35.0794   30.2611   49.4943 C   0  0  0  0  0  0  0  0  0  0  0  0
   35.4169   29.5591   50.6935 C   0  0  0  0  0  0  0  0  0  0  0  0
   36.8115   29.4028   51.0271 C   0  0  0  0  0  0  0  0  0  0  0  0
   37.7640   29.9275   50.1914 N   0  0  0  0  0  0  0  0  0  0  0  0
   37.3704   30.5777   49.0764 C   0  0  0  0  0  0  0  0  0  0  0  0
   36.0446   30.7624   48.6991 N   0  0  0  0  0  0  0  0  0  0  0  0
   38.3662   31.8986   44.4890 C   0  0  0  0  0  0  0  0  0  0  0  0
   37.2389   32.4365   44.3826 O   0  0  0  0  0  0  0  0  0  0  0  0
   38.9490   31.6487   45.7941 N   0  0  0  0  0  0  0  0  0  0  0  0
   39.1383   31.5018   43.2959 C   0  0  0  0  0  0  0  0  0  0  0  0
   40.1418   30.5854   43.4354 C   0  0  0  0  0  0  0  0  0  0  0  0
   40.8514   30.2307   42.2999 C   0  0  0  0  0  0  0  0  0  0  0  0
   40.5059   30.8180   41.1077 C   0  0  0  0  0  0  0  0  0  0  0  0
   39.4919   31.7453   40.9615 C   0  0  0  0  0  0  0  0  0  0  0  0
   38.8457   32.0447   42.0952 N   0  0  0  0  0  0  0  0  0  0  0  0
   39.1784   32.3299   39.6639 C   0  0  0  0  0  0  0  0  0  0  0  0
   38.8421   33.5564   39.6335 O   0  0  0  0  0  0  0  0  0  0  0  0
   39.3872   30.5350   48.2601 H   0  0  0  0  0  0  0  0  0  0  0  0
   39.6959   32.9802   47.9642 H   0  0  0  0  0  0  0  0  0  0  0  0
   37.9828   33.1947   48.6944 H   0  0  0  0  0  0  0  0  0  0  0  0
   36.9997   31.9847   46.7458 H   0  0  0  0  0  0  0  0  0  0  0  0
   34.0250   30.3574   49.2787 H   0  0  0  0  0  0  0  0  0  0  0  0
   34.6891   29.1421   51.3587 H   0  0  0  0  0  0  0  0  0  0  0  0
   37.0642   28.8732   51.9320 H   0  0  0  0  0  0  0  0  0  0  0  0
   39.9374   31.4113   45.9325 H   0  0  0  0  0  0  0  0  0  0  0  0
   40.4017   30.1313   44.3838 H   0  0  0  0  0  0  0  0  0  0  0  0
   41.6501   29.5126   42.3638 H   0  0  0  0  0  0  0  0  0  0  0  0
   41.0915   30.5062   40.2509 H   0  0  0  0  0  0  0  0  0  0  0  0
   39.1340   34.2340   37.3560 Cl  0  0  0  0  0  0  0  0  0  0  0  0
   39.1923   32.4905   37.2881 C   0  0  0  0  0  0  0  0  0  0  0  0
   39.2115   31.6440   38.3835 C   0  0  0  0  0  0  0  0  0  0  0  0
   39.2580   30.2724   38.2427 C   0  0  0  0  0  0  0  0  0  0  0  0
   39.2699   29.6960   39.1429 H   0  0  0  0  0  0  0  0  0  0  0  0
   39.2850   29.7750   36.9576 C   0  0  0  0  0  0  0  0  0  0  0  0
   39.3215   28.6963   36.8560 H   0  0  0  0  0  0  0  0  0  0  0  0
   39.2676   30.5725   35.8356 C   0  0  0  0  0  0  0  0  0  0  0  0
   39.2898   30.1449   34.8459 H   0  0  0  0  0  0  0  0  0  0  0  0
   39.2207   31.9494   36.0049 C   0  0  0  0  0  0  0  0  0  0  0  0
   39.2002   32.9228   34.5530 Cl  0  0  0  0  0  0  0  0  0  0  0  0
  1  8  1  0
  2  1  1  0
  3  2  1  0
  3  1  1  0
  4  5  2  0
  5  6  1  0
  7  6  2  0
  8  7  1  0
  9  8  2  0
  9  4  1  0
 10 12  1  0
 11 10  2  0
 12  3  1  0
 13 14  2  0
 13 10  1  0
 15 14  1  0
 16 15  2  0
 17 16  1  0
 17 18  2  0
 18 13  1  0
 19 17  1  0
 20 19  2  0
  1 21  1  6
  2 22  1  0
  2 23  1  0
  3 24  1  6
  4 25  1  0
  5 26  1  0
  6 27  1  0
 12 28  1  0
 14 29  1  0
 15 30  1  0
 16 31  1  0
 32 33  1  0
 33 34  2  0
 34 35  1  0
 35 36  1  0
 35 37  2  0
 37 38  1  0
 37 39  1  0
 39 40  1  0
 39 41  2  0
 41 42  1  0
 41 33  1  0
 19 34  1  0
M  ISO  8  21  13  22  13  23  13  24  13  25  14  26  14  27  14  29  14
M  ISO  5  30  14  31  14  36  15  38  15  40  15
M  END
>  <DihAtoms>  (1) 
16,18,33,32

>  <DihDeg>  (1) 
44.99984765471312

$$$$
