
     RDKit          3D

 34 36  0  0  0  0  0  0  0  0999 V2000
   39.4594   31.8989   46.6977 C   0  0  0  0  0  0  0  0  0  0  0  0
   39.5949   30.7196   46.0380 C   0  0  0  0  0  0  0  0  0  0  0  0
   39.9137   30.7099   44.7179 C   0  0  0  0  0  0  0  0  0  0  0  0
   40.0951   31.9102   44.0677 C   0  0  0  0  0  0  0  0  0  0  0  0
   39.9550   33.1048   44.7473 C   0  0  0  0  0  0  0  0  0  0  0  0
   39.6339   33.0623   46.0726 N   0  0  0  0  0  0  0  0  0  0  0  0
   40.1540   34.4236   44.0377 C   0  0  0  0  0  0  0  0  0  0  0  0
   39.1376   32.0936   48.0461 O   0  0  0  0  0  0  0  0  0  0  0  0
   38.1638   31.0180   49.8873 C   0  0  0  0  0  0  0  0  0  0  0  0
   38.0542   31.4315   48.5435 C   0  0  0  0  0  0  0  0  0  0  0  0
   36.8820   31.1350   47.8639 C   0  0  0  0  0  0  0  0  0  0  0  0
   35.9113   30.4640   48.5364 N   0  0  0  0  0  0  0  0  0  0  0  0
   36.0564   30.0969   49.7928 C   0  0  0  0  0  0  0  0  0  0  0  0
   37.1907   30.3554   50.5320 N   0  0  0  0  0  0  0  0  0  0  0  0
   34.5891   29.2305   50.4209 S   0  0  0  0  0  0  0  0  0  0  0  0
   39.4272   29.8398   46.6588 H   0  0  0  0  0  0  0  0  0  0  0  0
   40.0158   29.7683   44.2170 H   0  0  0  0  0  0  0  0  0  0  0  0
   40.3498   31.9160   43.0139 H   0  0  0  0  0  0  0  0  0  0  0  0
   40.9879   34.9315   44.5569 H   0  0  0  0  0  0  0  0  0  0  0  0
   40.4734   34.2030   43.0223 H   0  0  0  0  0  0  0  0  0  0  0  0
   39.2152   35.0071   44.0300 H   0  0  0  0  0  0  0  0  0  0  0  0
   39.0331   31.2028   50.4930 H   0  0  0  0  0  0  0  0  0  0  0  0
   36.8116   31.4516   46.8524 H   0  0  0  0  0  0  0  0  0  0  0  0
   37.2303   27.5048   50.9999 Cl  0  0  0  0  0  0  0  0  0  0  0  0
   35.8100   26.7213   50.3834 C   0  0  0  0  0  0  0  0  0  0  0  0
   34.6925   27.4856   50.1447 C   0  0  0  0  0  0  0  0  0  0  0  0
   33.5464   26.8961   49.6549 C   0  0  0  0  0  0  0  0  0  0  0  0
   32.6294   27.4204   49.4407 H   0  0  0  0  0  0  0  0  0  0  0  0
   33.5812   25.5168   49.4205 C   0  0  0  0  0  0  0  0  0  0  0  0
   32.7557   24.9482   49.0422 H   0  0  0  0  0  0  0  0  0  0  0  0
   34.7011   24.7643   49.6620 C   0  0  0  0  0  0  0  0  0  0  0  0
   34.7562   23.6975   49.4903 H   0  0  0  0  0  0  0  0  0  0  0  0
   35.8531   25.3451   50.1524 C   0  0  0  0  0  0  0  0  0  0  0  0
   37.3167   24.4552   50.4850 Cl  0  0  0  0  0  0  0  0  0  0  0  0
  1  8  1  0
  2  1  2  0
  3  2  1  0
  4  3  2  0
  4  5  1  0
  5  6  2  0
  6  1  1  0
  7  5  1  0
  8 10  1  0
  9 14  2  0
 10  9  1  0
 11 10  2  0
 11 12  1  0
 12 13  2  0
 13 15  1  0
 13 14  1  0
  2 16  1  0
  3 17  1  0
  4 18  1  0
  7 19  1  0
  7 20  1  0
  7 21  1  0
  9 22  1  0
 11 23  1  0
 24 25  1  0
 25 26  2  0
 26 27  1  0
 27 28  1  0
 27 29  2  0
 29 30  1  0
 29 31  1  0
 31 32  1  0
 31 33  2  0
 33 34  1  0
 33 25  1  0
 15 26  1  0
M  ISO  8  16  14  17  14  18  14  19   8  20   8  21   8  22  14  23  14
M  ISO  3  28  15  30  15  32  15
M  END
>  <DihAtoms>  (1) 
12,14,25,24

>  <DihDeg>  (1) 
-0.08813374572903947

$$$$
