
 OpenBabel03272503133D

 48 52  0  0  0  0  0  0  0  0999 V2000
   39.2000   32.2670   42.5830 C   0  0  0  0  0  0  0  0  0  0  0  0
   39.7040   31.5280   43.6440 C   0  0  0  0  0  0  0  0  0  0  0  0
   40.5630   30.4890   43.4780 C   0  0  0  0  0  0  0  0  0  0  0  0
   40.9720   30.1300   42.1900 C   0  0  0  0  0  0  0  0  0  0  0  0
   41.7920   29.1900   41.7310 N   0  0  0  0  0  0  0  0  0  0  0  0
   41.8380   29.2940   40.4160 C   0  0  0  0  0  0  0  0  0  0  0  0
   41.0430   30.3010   40.0450 N   0  0  0  0  0  0  0  0  0  0  0  0
   40.4740   30.8580   41.1450 C   0  0  0  0  0  0  0  0  0  0  0  0
   39.5880   31.9330   41.2680 C   0  0  0  0  0  0  0  0  0  0  0  0
   38.5160   33.0960   42.6970 H   0  0  0  0  0  0  0  0  0  0  0  0
   40.9620   29.9090   44.2870 H   0  0  0  0  0  0  0  0  0  0  0  0
   42.3350   28.4650   42.2870 H   0  0  0  0  0  0  0  0  0  0  0  0
   42.3950   28.7060   39.6810 H   0  0  0  0  0  0  0  0  0  0  0  0
   39.2630   31.9280   44.9600 C   0  0  0  0  0  0  0  0  0  0  0  0
   38.1700   32.5720   45.0870 O   0  0  0  0  0  0  0  0  0  0  0  0
   39.9460   31.6670   46.1710 N   0  0  0  0  0  0  0  0  0  0  0  0
   40.8410   31.1550   46.1260 H   0  0  0  0  0  0  0  0  0  0  0  0
   38.1110   30.1630   47.4990 F   0  0  0  0  0  0  0  0  0  0  0  0
   38.3680   31.4020   48.0000 C   0  0  0  0  0  0  0  0  0  0  0  0
   37.7140   31.8290   49.1140 C   0  0  0  0  0  0  0  0  0  0  0  0
   38.0210   33.0840   49.5660 C   0  0  0  0  0  0  0  0  0  0  0  0
   38.9310   33.8870   48.9470 C   0  0  0  0  0  0  0  0  0  0  0  0
   39.5830   33.4280   47.8130 C   0  0  0  0  0  0  0  0  0  0  0  0
   39.2880   32.1610   47.3400 C   0  0  0  0  0  0  0  0  0  0  0  0
   37.5090   33.4500   50.4580 H   0  0  0  0  0  0  0  0  0  0  0  0
   39.1690   34.8780   49.3080 H   0  0  0  0  0  0  0  0  0  0  0  0
   40.3080   34.0530   47.3120 H   0  0  0  0  0  0  0  0  0  0  0  0
   36.0700   29.3440   51.4510 C   0  0  0  0  0  0  0  0  0  0  0  0
   37.0350   30.2050   50.8720 C   0  0  0  0  0  0  0  0  0  0  0  0
   36.7450   30.9300   49.7400 C   0  0  0  0  0  0  0  0  0  0  0  0
   35.4830   30.7720   49.2090 N   0  0  0  0  0  0  0  0  0  0  0  0
   34.5730   29.9560   49.7590 C   0  0  0  0  0  0  0  0  0  0  0  0
   34.8620   29.2590   50.8540 N   0  0  0  0  0  0  0  0  0  0  0  0
   36.3040   28.7770   52.3420 H   0  0  0  0  0  0  0  0  0  0  0  0
   38.0210   30.3040   51.3200 H   0  0  0  0  0  0  0  0  0  0  0  0
   33.6410   29.9590   49.2060 H   0  0  0  0  0  0  0  0  0  0  0  0
   39.0960   32.6570   40.2380 O   0  0  0  0  0  0  0  0  0  0  0  0
   39.0970   34.0900   37.3050 Cl  0  0  0  0  0  0  0  0  0  0  0  0
   37.9460   32.9520   37.9410 C   0  0  0  0  0  0  0  0  0  0  0  0
   38.2920   32.5870   39.2110 C   0  0  0  0  0  0  0  0  0  0  0  0
   37.3200   31.6750   39.7190 C   0  0  0  0  0  0  0  0  0  0  0  0
   37.2030   31.1360   40.6870 H   0  0  0  0  0  0  0  0  0  0  0  0
   36.1950   31.2260   39.0250 C   0  0  0  0  0  0  0  0  0  0  0  0
   35.3840   30.5400   39.2900 H   0  0  0  0  0  0  0  0  0  0  0  0
   35.9810   31.6900   37.7330 C   0  0  0  0  0  0  0  0  0  0  0  0
   35.1630   31.4330   37.0790 H   0  0  0  0  0  0  0  0  0  0  0  0
   36.8700   32.5620   37.1920 C   0  0  0  0  0  0  0  0  0  0  0  0
   36.7360   33.2250   35.5970 Cl  0  0  0  0  0  0  0  0  0  0  0  0
  1 10  1  0  0  0  0
  1  2  1  0  0  0  0
  2 14  1  0  0  0  0
  3  2  2  0  0  0  0
  3 11  1  0  0  0  0
  4  3  1  0  0  0  0
  5  4  1  0  0  0  0
  5 12  1  0  0  0  0
  6  5  1  0  0  0  0
  7  6  2  0  0  0  0
  7  8  1  0  0  0  0
  8  9  1  0  0  0  0
  8  4  2  0  0  0  0
  9  1  2  0  0  0  0
 13  6  1  0  0  0  0
 14 15  2  0  0  0  0
 14 16  1  0  0  0  0
 16 24  1  0  0  0  0
 17 16  1  0  0  0  0
 18 19  1  0  0  0  0
 19 20  1  0  0  0  0
 20 21  2  0  0  0  0
 20 30  1  0  0  0  0
 21 25  1  0  0  0  0
 22 26  1  0  0  0  0
 22 21  1  0  0  0  0
 23 22  2  0  0  0  0
 24 23  1  0  0  0  0
 24 19  2  0  0  0  0
 27 23  1  0  0  0  0
 28 34  1  0  0  0  0
 29 35  1  0  0  0  0
 29 28  1  0  0  0  0
 30 29  2  0  0  0  0
 31 30  1  0  0  0  0
 31 32  2  0  0  0  0
 32 33  1  0  0  0  0
 33 28  2  0  0  0  0
 36 32  1  0  0  0  0
 37  9  1  0  0  0  0
 38 39  1  0  0  0  0
 39 40  1  0  0  0  0
 40 41  2  0  0  0  0
 40 37  1  0  0  0  0
 41 42  1  0  0  0  0
 43 44  1  0  0  0  0
 43 41  1  0  0  0  0
 45 43  2  0  0  0  0
 46 45  1  0  0  0  0
 47 45  1  0  0  0  0
 47 39  2  0  0  0  0
 48 47  1  0  0  0  0
M  END
>  <minimizedAffinity>
-7.08201981

>  <minimizedRMSD>
0.169118673

$$$$
