REMARK  Name = 
REMARK  3 active torsions:
REMARK  status: ('A' for Active; 'I' for Inactive)
REMARK    1  A    between atoms: C_3  and  C_10
REMARK    2  A    between atoms: C_7  and  N_16
REMARK    3  A    between atoms: C_14  and  C_26
REMARK                            x       y       z     vdW  Elec       q    Type
REMARK                         _______ _______ _______ _____ _____    ______ ____
ROOT
ATOM      1  F   UNL     1      38.456  30.445  47.312  0.00  0.00    +0.000 F 
ATOM      2  C   UNL     1      38.755  31.674  47.788  0.00  0.00    +0.000 A 
ATOM      3  C   UNL     1      38.237  32.081  48.985  0.00  0.00    +0.000 A 
ATOM      4  C   UNL     1      38.572  33.335  49.421  0.00  0.00    +0.000 A 
ATOM      5  C   UNL     1      39.398  34.180  48.704  0.00  0.00    +0.000 A 
ATOM      6  C   UNL     1      39.905  33.744  47.504  0.00  0.00    +0.000 A 
ATOM      7  C   UNL     1      39.583  32.476  47.034  0.00  0.00    +0.000 A 
ATOM      8  H   UNL     1      38.173  33.674  50.361  0.00  0.00    +0.000 HD
ATOM      9  H   UNL     1      39.623  35.160  49.105  0.00  0.00    +0.000 HD
ATOM     10  H   UNL     1      40.562  34.393  46.916  0.00  0.00    +0.000 HD
ENDROOT
BRANCH   3  13
ATOM     11  C   UNL     1      36.926  29.600  51.535  0.00  0.00    +0.000 A 
ATOM     12  C   UNL     1      37.767  30.485  50.853  0.00  0.00    +0.000 A 
ATOM     13  C   UNL     1      37.366  31.152  49.709  0.00  0.00    +0.000 A 
ATOM     14  N   UNL     1      36.103  30.900  49.284  0.00  0.00    +0.000 NA
ATOM     15  C   UNL     1      35.292  30.048  49.942  0.00  0.00    +0.000 A 
ATOM     16  N   UNL     1      35.691  29.414  51.038  0.00  0.00    +0.000 NA
ATOM     17  H   UNL     1      37.373  29.139  52.428  0.00  0.00    +0.000 HD
ATOM     18  H   UNL     1      38.785  30.698  51.181  0.00  0.00    +0.000 HD
ATOM     19  H   UNL     1      34.285  29.849  49.600  0.00  0.00    +0.000 HD
ENDBRANCH   3  13
BRANCH   7  22
ATOM     20  C   UNL     1      39.182  32.161  44.683  0.00  0.00    +0.000 C 
ATOM     21  O   UNL     1      38.087  32.728  44.990  0.00  0.00    +0.000 OA
ATOM     22  N   UNL     1      40.088  31.980  45.790  0.00  0.00    +0.000 N 
ATOM     23  H   UNL     1      40.986  31.525  45.596  0.00  0.00    +0.000 HD
BRANCH  20  26
ATOM     24 CL   UNL     1      37.200  32.753  42.494  0.00  0.00    +0.000 Cl
ATOM     25  C   UNL     1      38.725  31.917  42.234  0.00  0.00    +0.000 A 
ATOM     26  C   UNL     1      39.533  31.717  43.335  0.00  0.00    +0.000 A 
ATOM     27  C   UNL     1      40.757  31.059  43.191  0.00  0.00    +0.000 A 
ATOM     28  H   UNL     1      41.469  30.850  43.993  0.00  0.00    +0.000 HD
ATOM     29  C   UNL     1      41.128  30.625  41.948  0.00  0.00    +0.000 A 
ATOM     30  H   UNL     1      42.083  30.100  41.782  0.00  0.00    +0.000 HD
ATOM     31  C   UNL     1      40.298  30.840  40.865  0.00  0.00    +0.000 A 
ATOM     32  H   UNL     1      40.627  30.482  39.901  0.00  0.00    +0.000 HD
ATOM     33  C   UNL     1      39.076  31.489  40.967  0.00  0.00    +0.000 A 
ATOM     34 CL   UNL     1      38.030  31.756  39.584  0.00  0.00    +0.000 Cl
ENDBRANCH  20  26
ENDBRANCH   7  22
TORSDOF 3
