
 OpenBabel03272503133D

 48 52  0  0  0  0  0  0  0  0999 V2000
   39.0710   32.0910   42.5260 C   0  0  0  0  0  0  0  0  0  0  0  0
   39.6720   31.4450   43.5960 C   0  0  0  0  0  0  0  0  0  0  0  0
   40.6100   30.4750   43.4410 C   0  0  0  0  0  0  0  0  0  0  0  0
   41.0030   30.0940   42.1550 C   0  0  0  0  0  0  0  0  0  0  0  0
   41.8840   29.2060   41.7030 N   0  0  0  0  0  0  0  0  0  0  0  0
   41.8760   29.2550   40.3850 C   0  0  0  0  0  0  0  0  0  0  0  0
   40.9870   30.1750   40.0030 N   0  0  0  0  0  0  0  0  0  0  0  0
   40.4100   30.7310   41.1000 C   0  0  0  0  0  0  0  0  0  0  0  0
   39.4410   31.7330   41.2120 C   0  0  0  0  0  0  0  0  0  0  0  0
   38.3230   32.8650   42.6310 H   0  0  0  0  0  0  0  0  0  0  0  0
   41.0840   29.9660   44.2580 H   0  0  0  0  0  0  0  0  0  0  0  0
   42.5060   28.5550   42.2680 H   0  0  0  0  0  0  0  0  0  0  0  0
   42.4550   28.6830   39.6540 H   0  0  0  0  0  0  0  0  0  0  0  0
   39.2440   31.8640   44.9100 C   0  0  0  0  0  0  0  0  0  0  0  0
   38.1570   32.5180   45.0370 O   0  0  0  0  0  0  0  0  0  0  0  0
   39.9340   31.6130   46.1200 N   0  0  0  0  0  0  0  0  0  0  0  0
   40.8250   31.0940   46.0740 H   0  0  0  0  0  0  0  0  0  0  0  0
   38.1040   30.1360   47.4850 F   0  0  0  0  0  0  0  0  0  0  0  0
   38.3710   31.3810   47.9650 C   0  0  0  0  0  0  0  0  0  0  0  0
   37.7290   31.8270   49.0800 C   0  0  0  0  0  0  0  0  0  0  0  0
   38.0450   33.0880   49.5110 C   0  0  0  0  0  0  0  0  0  0  0  0
   38.9530   33.8770   48.8720 C   0  0  0  0  0  0  0  0  0  0  0  0
   39.5930   33.3990   47.7390 C   0  0  0  0  0  0  0  0  0  0  0  0
   39.2890   32.1260   47.2870 C   0  0  0  0  0  0  0  0  0  0  0  0
   37.5430   33.4680   50.4020 H   0  0  0  0  0  0  0  0  0  0  0  0
   39.1990   34.8720   49.2170 H   0  0  0  0  0  0  0  0  0  0  0  0
   40.3170   34.0140   47.2230 H   0  0  0  0  0  0  0  0  0  0  0  0
   36.0980   29.3760   51.4610 C   0  0  0  0  0  0  0  0  0  0  0  0
   37.0610   30.2250   50.8610 C   0  0  0  0  0  0  0  0  0  0  0  0
   36.7620   30.9420   49.7270 C   0  0  0  0  0  0  0  0  0  0  0  0
   35.4910   30.7890   49.2140 N   0  0  0  0  0  0  0  0  0  0  0  0
   34.5820   29.9850   49.7840 C   0  0  0  0  0  0  0  0  0  0  0  0
   34.8820   29.2960   50.8820 N   0  0  0  0  0  0  0  0  0  0  0  0
   36.3400   28.8150   52.3540 H   0  0  0  0  0  0  0  0  0  0  0  0
   38.0540   30.3190   51.2950 H   0  0  0  0  0  0  0  0  0  0  0  0
   33.6430   29.9910   49.2440 H   0  0  0  0  0  0  0  0  0  0  0  0
   38.8540   32.3660   40.1720 O   0  0  0  0  0  0  0  0  0  0  0  0
   37.5160   34.7840   38.4350 Cl  0  0  0  0  0  0  0  0  0  0  0  0
   36.8570   33.2090   38.7630 C   0  0  0  0  0  0  0  0  0  0  0  0
   37.7210   32.4840   39.5330 C   0  0  0  0  0  0  0  0  0  0  0  0
   37.1480   31.2070   39.8090 C   0  0  0  0  0  0  0  0  0  0  0  0
   37.4920   30.3170   40.3860 H   0  0  0  0  0  0  0  0  0  0  0  0
   35.9010   30.7690   39.3600 C   0  0  0  0  0  0  0  0  0  0  0  0
   35.3500   29.8320   39.4950 H   0  0  0  0  0  0  0  0  0  0  0  0
   35.1360   31.6280   38.5790 C   0  0  0  0  0  0  0  0  0  0  0  0
   34.1610   31.4280   38.1630 H   0  0  0  0  0  0  0  0  0  0  0  0
   35.6260   32.8590   38.2820 C   0  0  0  0  0  0  0  0  0  0  0  0
   34.7880   34.0330   37.3220 Cl  0  0  0  0  0  0  0  0  0  0  0  0
  1 10  1  0  0  0  0
  1  2  1  0  0  0  0
  2 14  1  0  0  0  0
  3  2  2  0  0  0  0
  3 11  1  0  0  0  0
  4  3  1  0  0  0  0
  5  4  1  0  0  0  0
  5 12  1  0  0  0  0
  6  5  1  0  0  0  0
  7  6  2  0  0  0  0
  7  8  1  0  0  0  0
  8  9  1  0  0  0  0
  8  4  2  0  0  0  0
  9  1  2  0  0  0  0
 13  6  1  0  0  0  0
 14 15  2  0  0  0  0
 14 16  1  0  0  0  0
 16 24  1  0  0  0  0
 17 16  1  0  0  0  0
 18 19  1  0  0  0  0
 19 20  1  0  0  0  0
 20 21  2  0  0  0  0
 20 30  1  0  0  0  0
 21 25  1  0  0  0  0
 22 26  1  0  0  0  0
 22 21  1  0  0  0  0
 23 22  2  0  0  0  0
 24 23  1  0  0  0  0
 24 19  2  0  0  0  0
 27 23  1  0  0  0  0
 28 34  1  0  0  0  0
 29 35  1  0  0  0  0
 29 28  2  0  0  0  0
 30 29  1  0  0  0  0
 31 30  2  0  0  0  0
 31 32  1  0  0  0  0
 32 33  2  0  0  0  0
 33 28  1  0  0  0  0
 36 32  1  0  0  0  0
 37  9  1  0  0  0  0
 38 39  1  0  0  0  0
 39 40  1  0  0  0  0
 40 41  2  0  0  0  0
 40 37  1  0  0  0  0
 41 42  1  0  0  0  0
 43 44  1  0  0  0  0
 43 41  1  0  0  0  0
 45 43  2  0  0  0  0
 46 45  1  0  0  0  0
 47 45  1  0  0  0  0
 47 39  2  0  0  0  0
 48 47  1  0  0  0  0
M  END
>  <minimizedAffinity>
-7.14778423

>  <minimizedRMSD>
0.785667837

$$$$
