REMARK  Name = 
REMARK  5 active torsions:
REMARK  status: ('A' for Active; 'I' for Inactive)
REMARK    1  A    between atoms: C_1  and  C_7
REMARK    2  A    between atoms: C_6  and  C_15
REMARK    3  A    between atoms: C_7  and  C_13
REMARK    4  A    between atoms: C_16  and  C_17
REMARK    5  A    between atoms: C_17  and  C_31
REMARK                            x       y       z     vdW  Elec       q    Type
REMARK                         _______ _______ _______ _____ _____    ______ ____
ROOT
ATOM      1  C   UNL     1      37.134  30.965  49.014  0.00  0.00    +0.000 A 
ATOM      2  C   UNL     1      36.922  31.928  50.004  0.00  0.00    +0.000 A 
ATOM      3  C   UNL     1      37.557  33.152  49.990  0.00  0.00    +0.000 A 
ATOM      4  C   UNL     1      38.447  33.457  48.957  0.00  0.00    +0.000 A 
ATOM      5  C   UNL     1      38.644  32.506  47.995  0.00  0.00    +0.000 A 
ATOM      6  C   UNL     1      37.996  31.287  48.031  0.00  0.00    +0.000 A 
ATOM      7  H   UNL     1      36.239  31.767  50.849  0.00  0.00    +0.000 HD
ATOM      8  H   UNL     1      37.375  33.883  50.772  0.00  0.00    +0.000 HD
ATOM      9  H   UNL     1      38.924  34.415  48.973  0.00  0.00    +0.000 HD
ATOM     10  H   UNL     1      39.345  32.819  47.232  0.00  0.00    +0.000 HD
ENDROOT
BRANCH   1  11
ATOM     11  C   UNL     1      36.415  29.706  49.118  0.00  0.00    +0.000 C 
ATOM     12  O   UNL     1      36.937  28.866  49.950  0.00  0.00    +0.000 OA
BRANCH  11  17
ATOM     13  C   UNL     1      33.629  30.183  46.849  0.00  0.00    +0.000 A 
ATOM     14  C   UNL     1      32.964  28.958  46.873  0.00  0.00    +0.000 A 
ATOM     15  C   UNL     1      33.472  27.949  47.680  0.00  0.00    +0.000 A 
ATOM     16  N   UNL     1      34.601  28.190  48.420  0.00  0.00    +0.000 NA
ATOM     17  C   UNL     1      35.201  29.366  48.368  0.00  0.00    +0.000 A 
ATOM     18  N   UNL     1      34.713  30.354  47.585  0.00  0.00    +0.000 NA
ATOM     19  H   UNL     1      33.177  30.915  46.201  0.00  0.00    +0.000 HD
ATOM     20  H   UNL     1      32.087  28.648  46.352  0.00  0.00    +0.000 HD
ATOM     21  H   UNL     1      33.099  26.943  47.831  0.00  0.00    +0.000 HD
ENDBRANCH  11  17
ENDBRANCH   1  11
BRANCH   6  22
ATOM     22  C   UNL     1      38.316  30.387  46.947  0.00  0.00    +0.000 C 
ATOM     23  C   UNL     1      38.813  30.698  45.765  0.00  0.00    +0.000 C 
BRANCH  23  24
ATOM     24  C   UNL     1      39.197  29.903  44.599  0.00  0.00    +0.000 C 
ATOM     25  H   UNL     1      40.285  30.025  44.431  0.00  0.00    +0.000 HD
ATOM     26  H   UNL     1      38.703  30.265  43.674  0.00  0.00    +0.000 HD
BRANCH  24  29
ATOM     27 CL   UNL     1      37.331  28.901  42.556  0.00  0.00    +0.000 Cl
ATOM     28  C   UNL     1      38.069  27.972  43.868  0.00  0.00    +0.000 A 
ATOM     29  C   UNL     1      38.946  28.454  44.827  0.00  0.00    +0.000 A 
ATOM     30  C   UNL     1      39.436  27.603  45.788  0.00  0.00    +0.000 A 
ATOM     31  H   UNL     1      40.109  28.109  46.471  0.00  0.00    +0.000 HD
ATOM     32  C   UNL     1      39.048  26.282  45.785  0.00  0.00    +0.000 A 
ATOM     33  H   UNL     1      39.475  25.683  46.568  0.00  0.00    +0.000 HD
ATOM     34  C   UNL     1      38.177  25.782  44.842  0.00  0.00    +0.000 A 
ATOM     35  H   UNL     1      37.908  24.735  44.890  0.00  0.00    +0.000 HD
ATOM     36  C   UNL     1      37.673  26.636  43.861  0.00  0.00    +0.000 A 
ATOM     37 CL   UNL     1      36.575  25.930  42.700  0.00  0.00    +0.000 Cl
ENDBRANCH  24  29
ENDBRANCH  23  24
ENDBRANCH   6  22
TORSDOF 5
