
 OpenBabel03262520543D

 28 30  0  0  1  0  0  0  0  0999 V2000
   37.9290   22.0430   34.5910 C   0  0  2  0  0  0  0  0  0  0  0  0
   38.8920   22.0260   33.4930 C   0  0  0  0  0  0  0  0  0  0  0  0
   37.8500   23.1070   33.5510 C   0  0  2  0  0  0  0  0  0  0  0  0
   37.1180   21.2920   34.6150 H   0  0  0  0  0  0  0  0  0  0  0  0
   39.9530   22.3530   33.6170 H   0  0  0  0  0  0  0  0  0  0  0  0
   38.7650   21.3000   32.6780 H   0  0  0  0  0  0  0  0  0  0  0  0
   36.9550   23.0320   32.8860 H   0  0  0  0  0  0  0  0  0  0  0  0
   37.7590   23.4430   38.0540 C   0  0  0  0  0  0  0  0  0  0  0  0
   39.0870   23.2870   38.4710 C   0  0  0  0  0  0  0  0  0  0  0  0
   40.0290   22.7010   37.5770 C   0  0  0  0  0  0  0  0  0  0  0  0
   39.5930   22.3180   36.3430 N   0  0  0  0  0  0  0  0  0  0  0  0
   38.3080   22.4830   35.9750 C   0  0  0  0  0  0  0  0  0  0  0  0
   37.3860   23.0390   36.8060 N   0  0  0  0  0  0  0  0  0  0  0  0
   37.0540   23.8890   38.7420 H   0  0  0  0  0  0  0  0  0  0  0  0
   39.4570   23.5790   39.4340 H   0  0  0  0  0  0  0  0  0  0  0  0
   41.0550   22.5460   37.8140 H   0  0  0  0  0  0  0  0  0  0  0  0
   38.3840   24.7760   34.0420 S   0  0  0  0  0  0  0  0  0  0  0  0
   37.8330   27.3540   35.6520 Cl  0  0  0  0  0  0  0  0  0  0  0  0
   37.1200   27.1270   34.0540 C   0  0  0  0  0  0  0  0  0  0  0  0
   37.3360   25.9880   33.2910 C   0  0  0  0  0  0  0  0  0  0  0  0
   36.7600   25.8500   32.0470 C   0  0  0  0  0  0  0  0  0  0  0  0
   36.9540   24.9500   31.4860 H   0  0  0  0  0  0  0  0  0  0  0  0
   35.9590   26.9000   31.6000 C   0  0  0  0  0  0  0  0  0  0  0  0
   35.5140   26.7890   30.6330 H   0  0  0  0  0  0  0  0  0  0  0  0
   35.7450   28.0340   32.3640 C   0  0  0  0  0  0  0  0  0  0  0  0
   35.1100   28.8380   31.9780 H   0  0  0  0  0  0  0  0  0  0  0  0
   36.3180   28.1690   33.5970 C   0  0  0  0  0  0  0  0  0  0  0  0
   36.0460   29.6040   34.5600 Cl  0  0  0  0  0  0  0  0  0  0  0  0
  1  4  1  6  0  0  0
  1 12  1  0  0  0  0
  2  3  1  0  0  0  0
  2  5  1  0  0  0  0
  2  1  1  0  0  0  0
  3  7  1  6  0  0  0
  3 17  1  0  0  0  0
  3  1  1  0  0  0  0
  6  2  1  0  0  0  0
  8  9  1  0  0  0  0
  8 14  1  0  0  0  0
  9 15  1  0  0  0  0
 10 16  1  0  0  0  0
 10  9  2  0  0  0  0
 11 10  1  0  0  0  0
 12 11  2  0  0  0  0
 12 13  1  0  0  0  0
 13  8  2  0  0  0  0
 19 18  1  0  0  0  0
 20 17  1  0  0  0  0
 20 19  2  0  0  0  0
 21 20  1  0  0  0  0
 22 21  1  0  0  0  0
 23 21  2  0  0  0  0
 23 25  1  0  0  0  0
 24 23  1  0  0  0  0
 25 27  2  0  0  0  0
 26 25  1  0  0  0  0
 27 19  1  0  0  0  0
 27 28  1  0  0  0  0
M  END
>  <minimizedAffinity>
-4.99085903

$$$$

 OpenBabel03262520543D

 28 30  0  0  1  0  0  0  0  0999 V2000
   37.7680   22.0650   34.6350 C   0  0  2  0  0  0  0  0  0  0  0  0
   38.6740   21.6500   33.5670 C   0  0  0  0  0  0  0  0  0  0  0  0
   38.0050   22.9940   33.4940 C   0  0  2  0  0  0  0  0  0  0  0  0
   36.7700   21.5970   34.7130 H   0  0  0  0  0  0  0  0  0  0  0  0
   39.7860   21.6560   33.6840 H   0  0  0  0  0  0  0  0  0  0  0  0
   38.3310   20.9170   32.8250 H   0  0  0  0  0  0  0  0  0  0  0  0
   37.1240   23.1220   32.8180 H   0  0  0  0  0  0  0  0  0  0  0  0
   37.9720   23.6550   38.0130 C   0  0  0  0  0  0  0  0  0  0  0  0
   39.2730   23.3050   38.3960 C   0  0  0  0  0  0  0  0  0  0  0  0
   40.0690   22.5260   37.5070 C   0  0  0  0  0  0  0  0  0  0  0  0
   39.5250   22.1550   36.3130 N   0  0  0  0  0  0  0  0  0  0  0  0
   38.2700   22.5100   35.9770 C   0  0  0  0  0  0  0  0  0  0  0  0
   37.4870   23.2520   36.8040 N   0  0  0  0  0  0  0  0  0  0  0  0
   37.3780   24.2460   38.6960 H   0  0  0  0  0  0  0  0  0  0  0  0
   39.7250   23.5820   39.3270 H   0  0  0  0  0  0  0  0  0  0  0  0
   41.0660   22.2160   37.7190 H   0  0  0  0  0  0  0  0  0  0  0  0
   39.0170   24.4670   33.8310 S   0  0  0  0  0  0  0  0  0  0  0  0
   38.2840   25.5880   31.0480 Cl  0  0  0  0  0  0  0  0  0  0  0  0
   37.7020   26.3800   32.5130 C   0  0  0  0  0  0  0  0  0  0  0  0
   38.0030   25.9170   33.7860 C   0  0  0  0  0  0  0  0  0  0  0  0
   37.5280   26.5650   34.9060 C   0  0  0  0  0  0  0  0  0  0  0  0
   37.7840   26.1720   35.8770 H   0  0  0  0  0  0  0  0  0  0  0  0
   36.7400   27.6950   34.6960 C   0  0  0  0  0  0  0  0  0  0  0  0
   36.3730   28.1960   35.5680 H   0  0  0  0  0  0  0  0  0  0  0  0
   36.4420   28.1550   33.4250 C   0  0  0  0  0  0  0  0  0  0  0  0
   35.8200   29.0470   33.3010 H   0  0  0  0  0  0  0  0  0  0  0  0
   36.9140   27.5110   32.3170 C   0  0  0  0  0  0  0  0  0  0  0  0
   36.5360   28.0940   30.7110 Cl  0  0  0  0  0  0  0  0  0  0  0  0
  1  4  1  1  0  0  0
  1 12  1  0  0  0  0
  2  5  1  0  0  0  0
  2  1  1  0  0  0  0
  3  7  1  6  0  0  0
  3  2  1  0  0  0  0
  3 17  1  0  0  0  0
  3  1  1  0  0  0  0
  6  2  1  0  0  0  0
  8  9  1  0  0  0  0
  8 14  1  0  0  0  0
  9 15  1  0  0  0  0
 10 16  1  0  0  0  0
 10  9  2  0  0  0  0
 11 10  1  0  0  0  0
 12 11  2  0  0  0  0
 12 13  1  0  0  0  0
 13  8  2  0  0  0  0
 18 19  1  0  0  0  0
 19 20  1  0  0  0  0
 20 17  1  0  0  0  0
 20 21  2  0  0  0  0
 21 22  1  0  0  0  0
 23 21  1  0  0  0  0
 23 24  1  0  0  0  0
 25 23  2  0  0  0  0
 26 25  1  0  0  0  0
 27 19  2  0  0  0  0
 27 25  1  0  0  0  0
 28 27  1  0  0  0  0
M  END
>  <minimizedAffinity>
-4.77812767

$$$$

 OpenBabel03262520543D

 28 30  0  0  1  0  0  0  0  0999 V2000
   36.8560   26.0050   32.6990 C   0  0  2  0  0  0  0  0  0  0  0  0
   37.6310   27.2420   32.7540 C   0  0  0  0  0  0  0  0  0  0  0  0
   37.6190   26.3190   33.9400 C   0  0  2  0  0  0  0  0  0  0  0  0
   35.7530   26.0520   32.7530 H   0  0  0  0  0  0  0  0  0  0  0  0
   38.6110   27.3620   32.2300 H   0  0  0  0  0  0  0  0  0  0  0  0
   37.1100   28.1970   32.9010 H   0  0  0  0  0  0  0  0  0  0  0  0
   36.9780   26.5770   34.8190 H   0  0  0  0  0  0  0  0  0  0  0  0
   38.5930   23.8520   30.1830 C   0  0  0  0  0  0  0  0  0  0  0  0
   38.0780   22.5910   30.5090 C   0  0  0  0  0  0  0  0  0  0  0  0
   37.1510   22.4790   31.5850 C   0  0  0  0  0  0  0  0  0  0  0  0
   36.8010   23.6150   32.2540 N   0  0  0  0  0  0  0  0  0  0  0  0
   37.3150   24.8120   31.9130 C   0  0  0  0  0  0  0  0  0  0  0  0
   38.2020   24.9500   30.8910 N   0  0  0  0  0  0  0  0  0  0  0  0
   39.2950   23.9240   29.3640 H   0  0  0  0  0  0  0  0  0  0  0  0
   38.3350   21.6820   30.0010 H   0  0  0  0  0  0  0  0  0  0  0  0
   36.7130   21.5600   31.8990 H   0  0  0  0  0  0  0  0  0  0  0  0
   39.1100   25.3270   34.2600 S   0  0  0  0  0  0  0  0  0  0  0  0
   41.2010   23.1530   34.9250 Cl  0  0  0  0  0  0  0  0  0  0  0  0
   39.9420   23.5690   36.0890 C   0  0  0  0  0  0  0  0  0  0  0  0
   38.9800   24.5370   35.8390 C   0  0  0  0  0  0  0  0  0  0  0  0
   38.0130   24.8330   36.7750 C   0  0  0  0  0  0  0  0  0  0  0  0
   37.2840   25.5920   36.5420 H   0  0  0  0  0  0  0  0  0  0  0  0
   38.0500   24.1170   37.9710 C   0  0  0  0  0  0  0  0  0  0  0  0
   37.2970   24.3490   38.6960 H   0  0  0  0  0  0  0  0  0  0  0  0
   39.0110   23.1520   38.2170 C   0  0  0  0  0  0  0  0  0  0  0  0
   39.0070   22.6110   39.1690 H   0  0  0  0  0  0  0  0  0  0  0  0
   39.9690   22.8610   37.2870 C   0  0  0  0  0  0  0  0  0  0  0  0
   41.1820   21.6400   37.6010 Cl  0  0  0  0  0  0  0  0  0  0  0  0
  1  4  1  1  0  0  0
  1  2  1  0  0  0  0
  1  3  1  0  0  0  0
  2  6  1  0  0  0  0
  2  3  1  0  0  0  0
  3 17  1  0  0  0  0
  3  7  1  1  0  0  0
  5  2  1  0  0  0  0
  8  9  2  0  0  0  0
  8 13  1  0  0  0  0
  9 10  1  0  0  0  0
 10 16  1  0  0  0  0
 10 11  2  0  0  0  0
 12 11  1  0  0  0  0
 12  1  1  0  0  0  0
 13 12  2  0  0  0  0
 14  8  1  0  0  0  0
 15  9  1  0  0  0  0
 17 20  1  0  0  0  0
 18 19  1  0  0  0  0
 19 27  1  0  0  0  0
 20 19  2  0  0  0  0
 20 21  1  0  0  0  0
 21 23  2  0  0  0  0
 22 21  1  0  0  0  0
 23 25  1  0  0  0  0
 23 24  1  0  0  0  0
 25 26  1  0  0  0  0
 27 28  1  0  0  0  0
 27 25  2  0  0  0  0
M  END
>  <minimizedAffinity>
-4.63088751

$$$$

 OpenBabel03262520543D

 28 30  0  0  1  0  0  0  0  0999 V2000
   38.5580   26.9930   32.9730 C   0  0  2  0  0  0  0  0  0  0  0  0
   39.8830   26.3810   33.0290 C   0  0  0  0  0  0  0  0  0  0  0  0
   38.9650   26.2780   34.2150 C   0  0  2  0  0  0  0  0  0  0  0  0
   38.4640   28.0930   33.0250 H   0  0  0  0  0  0  0  0  0  0  0  0
   40.1280   25.4240   32.5060 H   0  0  0  0  0  0  0  0  0  0  0  0
   40.7640   27.0200   33.1760 H   0  0  0  0  0  0  0  0  0  0  0  0
   39.1390   26.9480   35.0930 H   0  0  0  0  0  0  0  0  0  0  0  0
   36.5650   24.6790   30.8150 C   0  0  0  0  0  0  0  0  0  0  0  0
   35.3430   25.3590   30.7490 C   0  0  0  0  0  0  0  0  0  0  0  0
   35.2020   26.5950   31.4430 C   0  0  0  0  0  0  0  0  0  0  0  0
   36.2720   27.0660   32.1450 N   0  0  0  0  0  0  0  0  0  0  0  0
   37.4340   26.3850   32.1860 C   0  0  0  0  0  0  0  0  0  0  0  0
   37.5980   25.2030   31.5350 N   0  0  0  0  0  0  0  0  0  0  0  0
   36.6600   23.7410   30.2840 H   0  0  0  0  0  0  0  0  0  0  0  0
   34.4860   25.0140   30.2060 H   0  0  0  0  0  0  0  0  0  0  0  0
   34.3090   27.1760   31.4470 H   0  0  0  0  0  0  0  0  0  0  0  0
   38.1700   24.6730   34.5370 S   0  0  0  0  0  0  0  0  0  0  0  0
   40.4980   22.6720   34.8790 Cl  0  0  0  0  0  0  0  0  0  0  0  0
   39.5930   23.2410   36.2830 C   0  0  0  0  0  0  0  0  0  0  0  0
   38.5400   24.1390   36.1830 C   0  0  0  0  0  0  0  0  0  0  0  0
   37.8580   24.5580   37.3050 C   0  0  0  0  0  0  0  0  0  0  0  0
   37.0460   25.2570   37.1840 H   0  0  0  0  0  0  0  0  0  0  0  0
   38.2760   24.0400   38.5290 C   0  0  0  0  0  0  0  0  0  0  0  0
   37.7440   24.3680   39.3990 H   0  0  0  0  0  0  0  0  0  0  0  0
   39.3270   23.1450   38.6260 C   0  0  0  0  0  0  0  0  0  0  0  0
   39.6260   22.7600   39.6060 H   0  0  0  0  0  0  0  0  0  0  0  0
   40.0010   22.7310   37.5120 C   0  0  0  0  0  0  0  0  0  0  0  0
   41.3290   21.5980   37.6370 Cl  0  0  0  0  0  0  0  0  0  0  0  0
  1  4  1  1  0  0  0
  1  2  1  0  0  0  0
  1  3  1  0  0  0  0
  2  6  1  0  0  0  0
  2  3  1  0  0  0  0
  3 17  1  0  0  0  0
  3  7  1  1  0  0  0
  5  2  1  0  0  0  0
  8 13  1  0  0  0  0
  9  8  2  0  0  0  0
  9 10  1  0  0  0  0
 10 16  1  0  0  0  0
 10 11  2  0  0  0  0
 11 12  1  0  0  0  0
 12  1  1  0  0  0  0
 13 12  2  0  0  0  0
 14  8  1  0  0  0  0
 15  9  1  0  0  0  0
 17 20  1  0  0  0  0
 18 19  1  0  0  0  0
 19 27  1  0  0  0  0
 20 19  2  0  0  0  0
 20 21  1  0  0  0  0
 21 23  2  0  0  0  0
 22 21  1  0  0  0  0
 23 25  1  0  0  0  0
 23 24  1  0  0  0  0
 25 26  1  0  0  0  0
 27 28  1  0  0  0  0
 27 25  2  0  0  0  0
M  END
>  <minimizedAffinity>
-4.58698177

$$$$

 OpenBabel03262520543D

 28 30  0  0  1  0  0  0  0  0999 V2000
   39.5460   24.5010   35.7720 C   0  0  2  0  0  0  0  0  0  0  0  0
   38.3270   24.6780   36.5580 C   0  0  0  0  0  0  0  0  0  0  0  0
   38.2410   24.1150   35.1670 C   0  0  2  0  0  0  0  0  0  0  0  0
   40.0590   25.3890   35.3580 H   0  0  0  0  0  0  0  0  0  0  0  0
   38.0420   23.9880   37.3900 H   0  0  0  0  0  0  0  0  0  0  0  0
   37.9070   25.6850   36.6800 H   0  0  0  0  0  0  0  0  0  0  0  0
   37.9070   24.7830   34.3340 H   0  0  0  0  0  0  0  0  0  0  0  0
   42.3190   22.0210   35.3960 C   0  0  0  0  0  0  0  0  0  0  0  0
   42.2240   21.3270   36.6080 C   0  0  0  0  0  0  0  0  0  0  0  0
   41.2240   21.7100   37.5480 C   0  0  0  0  0  0  0  0  0  0  0  0
   40.3960   22.7430   37.2220 N   0  0  0  0  0  0  0  0  0  0  0  0
   40.5150   23.3880   36.0450 C   0  0  0  0  0  0  0  0  0  0  0  0
   41.4590   23.0460   35.1290 N   0  0  0  0  0  0  0  0  0  0  0  0
   43.0820   21.7200   34.6900 H   0  0  0  0  0  0  0  0  0  0  0  0
   42.8610   20.5120   36.8910 H   0  0  0  0  0  0  0  0  0  0  0  0
   41.0840   21.2370   38.4920 H   0  0  0  0  0  0  0  0  0  0  0  0
   37.9130   22.3350   34.9880 S   0  0  0  0  0  0  0  0  0  0  0  0
   35.4790   20.4510   34.7310 Cl  0  0  0  0  0  0  0  0  0  0  0  0
   36.2320   21.1410   33.2920 C   0  0  0  0  0  0  0  0  0  0  0  0
   37.3270   21.9920   33.3540 C   0  0  0  0  0  0  0  0  0  0  0  0
   37.8850   22.5100   32.2060 C   0  0  0  0  0  0  0  0  0  0  0  0
   38.7350   23.1680   32.2970 H   0  0  0  0  0  0  0  0  0  0  0  0
   37.3020   22.1400   30.9950 C   0  0  0  0  0  0  0  0  0  0  0  0
   37.7390   22.5450   30.1060 H   0  0  0  0  0  0  0  0  0  0  0  0
   36.2110   21.2910   30.9380 C   0  0  0  0  0  0  0  0  0  0  0  0
   35.7800   21.0230   29.9670 H   0  0  0  0  0  0  0  0  0  0  0  0
   35.6580   20.7790   32.0780 C   0  0  0  0  0  0  0  0  0  0  0  0
   34.2790   19.7050   32.0020 Cl  0  0  0  0  0  0  0  0  0  0  0  0
  1  4  1  6  0  0  0
  1 12  1  0  0  0  0
  1  2  1  0  0  0  0
  2  6  1  0  0  0  0
  2  5  1  0  0  0  0
  3  7  1  6  0  0  0
  3  1  1  0  0  0  0
  3  2  1  0  0  0  0
  8  9  1  0  0  0  0
  9 15  1  0  0  0  0
  9 10  2  0  0  0  0
 10 16  1  0  0  0  0
 11 10  1  0  0  0  0
 12 11  2  0  0  0  0
 13  8  2  0  0  0  0
 13 12  1  0  0  0  0
 14  8  1  0  0  0  0
 17  3  1  0  0  0  0
 19 20  1  0  0  0  0
 19 18  1  0  0  0  0
 20 17  1  0  0  0  0
 21 22  1  0  0  0  0
 21 20  2  0  0  0  0
 23 21  1  0  0  0  0
 24 23  1  0  0  0  0
 25 23  2  0  0  0  0
 25 27  1  0  0  0  0
 26 25  1  0  0  0  0
 27 19  2  0  0  0  0
 28 27  1  0  0  0  0
M  END
>  <minimizedAffinity>
-4.57361031

$$$$

 OpenBabel03262520543D

 28 30  0  0  1  0  0  0  0  0999 V2000
   35.9910   23.4380   31.2610 C   0  0  2  0  0  0  0  0  0  0  0  0
   37.0840   24.0840   30.5390 C   0  0  0  0  0  0  0  0  0  0  0  0
   36.9010   24.3510   32.0060 C   0  0  2  0  0  0  0  0  0  0  0  0
   34.9520   23.7780   31.0930 H   0  0  0  0  0  0  0  0  0  0  0  0
   38.0160   23.5410   30.2460 H   0  0  0  0  0  0  0  0  0  0  0  0
   36.8650   24.9340   29.8790 H   0  0  0  0  0  0  0  0  0  0  0  0
   36.4260   25.3110   32.3260 H   0  0  0  0  0  0  0  0  0  0  0  0
   35.3800   20.1990   33.0260 C   0  0  0  0  0  0  0  0  0  0  0  0
   36.1970   19.3330   32.2890 C   0  0  0  0  0  0  0  0  0  0  0  0
   36.9430   19.8530   31.1920 C   0  0  0  0  0  0  0  0  0  0  0  0
   36.8300   21.1830   30.9100 N   0  0  0  0  0  0  0  0  0  0  0  0
   36.0350   21.9870   31.6410 C   0  0  0  0  0  0  0  0  0  0  0  0
   35.3110   21.5200   32.6920 N   0  0  0  0  0  0  0  0  0  0  0  0
   34.8180   19.7920   33.8560 H   0  0  0  0  0  0  0  0  0  0  0  0
   36.3040   18.2860   32.4880 H   0  0  0  0  0  0  0  0  0  0  0  0
   37.5870   19.2660   30.5800 H   0  0  0  0  0  0  0  0  0  0  0  0
   38.0730   23.5770   33.1640 S   0  0  0  0  0  0  0  0  0  0  0  0
   37.9970   21.9830   35.8080 Cl  0  0  0  0  0  0  0  0  0  0  0  0
   38.0980   23.7450   35.8280 C   0  0  0  0  0  0  0  0  0  0  0  0
   38.1350   24.5070   34.6680 C   0  0  0  0  0  0  0  0  0  0  0  0
   38.2140   25.8810   34.7270 C   0  0  0  0  0  0  0  0  0  0  0  0
   38.2410   26.4360   33.8030 H   0  0  0  0  0  0  0  0  0  0  0  0
   38.2540   26.4590   35.9950 C   0  0  0  0  0  0  0  0  0  0  0  0
   38.3160   27.5270   36.0370 H   0  0  0  0  0  0  0  0  0  0  0  0
   38.2170   25.6960   37.1490 C   0  0  0  0  0  0  0  0  0  0  0  0
   38.2510   26.1870   38.1270 H   0  0  0  0  0  0  0  0  0  0  0  0
   38.1390   24.3330   37.0880 C   0  0  0  0  0  0  0  0  0  0  0  0
   38.0920   23.3720   38.5490 Cl  0  0  0  0  0  0  0  0  0  0  0  0
  1  4  1  6  0  0  0
  1 12  1  0  0  0  0
  1  3  1  0  0  0  0
  2  1  1  0  0  0  0
  2  3  1  0  0  0  0
  3  7  1  1  0  0  0
  3 17  1  0  0  0  0
  5  2  1  0  0  0  0
  6  2  1  0  0  0  0
  8 14  1  0  0  0  0
  9 15  1  0  0  0  0
  9  8  2  0  0  0  0
 10  9  1  0  0  0  0
 11 10  2  0  0  0  0
 11 12  1  0  0  0  0
 12 13  2  0  0  0  0
 13  8  1  0  0  0  0
 16 10  1  0  0  0  0
 17 20  1  0  0  0  0
 18 19  1  0  0  0  0
 19 27  1  0  0  0  0
 20 21  1  0  0  0  0
 20 19  2  0  0  0  0
 21 23  2  0  0  0  0
 22 21  1  0  0  0  0
 23 24  1  0  0  0  0
 23 25  1  0  0  0  0
 25 26  1  0  0  0  0
 27 25  2  0  0  0  0
 27 28  1  0  0  0  0
M  END
>  <minimizedAffinity>
-4.53781605

$$$$

 OpenBabel03262520543D

 28 30  0  0  1  0  0  0  0  0999 V2000
   38.6230   23.3760   36.5470 C   0  0  2  0  0  0  0  0  0  0  0  0
   39.5240   22.2610   36.2680 C   0  0  0  0  0  0  0  0  0  0  0  0
   38.1250   22.2410   35.7210 C   0  0  2  0  0  0  0  0  0  0  0  0
   38.2010   23.4930   37.5620 H   0  0  0  0  0  0  0  0  0  0  0  0
   40.3490   22.3270   35.5170 H   0  0  0  0  0  0  0  0  0  0  0  0
   39.7280   21.5240   37.0560 H   0  0  0  0  0  0  0  0  0  0  0  0
   37.3550   21.6080   36.2300 H   0  0  0  0  0  0  0  0  0  0  0  0
   37.8600   26.7650   35.1640 C   0  0  0  0  0  0  0  0  0  0  0  0
   39.0770   27.0830   34.5480 C   0  0  0  0  0  0  0  0  0  0  0  0
   40.1510   26.1490   34.6140 C   0  0  0  0  0  0  0  0  0  0  0  0
   39.9430   24.9750   35.2760 N   0  0  0  0  0  0  0  0  0  0  0  0
   38.7580   24.7010   35.8560 C   0  0  0  0  0  0  0  0  0  0  0  0
   37.7160   25.5730   35.8100 N   0  0  0  0  0  0  0  0  0  0  0  0
   37.0530   27.4830   35.1070 H   0  0  0  0  0  0  0  0  0  0  0  0
   39.2680   27.9970   34.0220 H   0  0  0  0  0  0  0  0  0  0  0  0
   41.1070   26.3110   34.1750 H   0  0  0  0  0  0  0  0  0  0  0  0
   37.9020   22.5550   33.9430 S   0  0  0  0  0  0  0  0  0  0  0  0
   38.5550   21.7060   31.0470 Cl  0  0  0  0  0  0  0  0  0  0  0  0
   37.2330   20.9380   31.9270 C   0  0  0  0  0  0  0  0  0  0  0  0
   36.8990   21.2840   33.2290 C   0  0  0  0  0  0  0  0  0  0  0  0
   35.8580   20.6590   33.8820 C   0  0  0  0  0  0  0  0  0  0  0  0
   35.6310   20.9570   34.8930 H   0  0  0  0  0  0  0  0  0  0  0  0
   35.1670   19.6770   33.1760 C   0  0  0  0  0  0  0  0  0  0  0  0
   34.3590   19.1940   33.6860 H   0  0  0  0  0  0  0  0  0  0  0  0
   35.5020   19.3350   31.8770 C   0  0  0  0  0  0  0  0  0  0  0  0
   34.9350   18.5570   31.3560 H   0  0  0  0  0  0  0  0  0  0  0  0
   36.5350   19.9550   31.2320 C   0  0  0  0  0  0  0  0  0  0  0  0
   36.9570   19.5210   29.5910 Cl  0  0  0  0  0  0  0  0  0  0  0  0
  1  4  1  1  0  0  0
  2  1  1  0  0  0  0
  2  6  1  0  0  0  0
  3  7  1  1  0  0  0
  3  2  1  0  0  0  0
  3  1  1  0  0  0  0
  5  2  1  0  0  0  0
  8 13  1  0  0  0  0
  9 10  1  0  0  0  0
  9  8  2  0  0  0  0
 10 11  2  0  0  0  0
 11 12  1  0  0  0  0
 12  1  1  0  0  0  0
 13 12  2  0  0  0  0
 14  8  1  0  0  0  0
 15  9  1  0  0  0  0
 16 10  1  0  0  0  0
 17  3  1  0  0  0  0
 18 19  1  0  0  0  0
 19 20  1  0  0  0  0
 20 21  2  0  0  0  0
 20 17  1  0  0  0  0
 21 22  1  0  0  0  0
 23 24  1  0  0  0  0
 23 21  1  0  0  0  0
 25 23  2  0  0  0  0
 26 25  1  0  0  0  0
 27 25  1  0  0  0  0
 27 19  2  0  0  0  0
 28 27  1  0  0  0  0
M  END
>  <minimizedAffinity>
-4.52974606

$$$$

 OpenBabel03262520543D

 28 30  0  0  1  0  0  0  0  0999 V2000
   37.5720   27.1990   34.9090 C   0  0  2  0  0  0  0  0  0  0  0  0
   38.7420   27.1690   35.7830 C   0  0  0  0  0  0  0  0  0  0  0  0
   37.8360   25.9730   35.7130 C   0  0  2  0  0  0  0  0  0  0  0  0
   36.7000   27.8170   35.1900 H   0  0  0  0  0  0  0  0  0  0  0  0
   39.7810   27.0280   35.3940 H   0  0  0  0  0  0  0  0  0  0  0  0
   38.7180   27.7190   36.7340 H   0  0  0  0  0  0  0  0  0  0  0  0
   37.1030   25.8020   36.5400 H   0  0  0  0  0  0  0  0  0  0  0  0
   36.7570   26.5420   31.3200 C   0  0  0  0  0  0  0  0  0  0  0  0
   37.9900   26.8090   30.7120 C   0  0  0  0  0  0  0  0  0  0  0  0
   39.0870   27.2170   31.5230 C   0  0  0  0  0  0  0  0  0  0  0  0
   38.8870   27.3280   32.8670 N   0  0  0  0  0  0  0  0  0  0  0  0
   37.6880   27.0630   33.4190 C   0  0  0  0  0  0  0  0  0  0  0  0
   36.6220   26.6710   32.6710 N   0  0  0  0  0  0  0  0  0  0  0  0
   35.9320   26.2320   30.6930 H   0  0  0  0  0  0  0  0  0  0  0  0
   38.1750   26.7300   29.6590 H   0  0  0  0  0  0  0  0  0  0  0  0
   40.0570   27.4400   31.1430 H   0  0  0  0  0  0  0  0  0  0  0  0
   38.4270   24.5090   34.8090 S   0  0  0  0  0  0  0  0  0  0  0  0
   41.3640   25.0680   34.0330 Cl  0  0  0  0  0  0  0  0  0  0  0  0
   40.9820   23.9710   35.3620 C   0  0  0  0  0  0  0  0  0  0  0  0
   39.6800   23.6870   35.7490 C   0  0  0  0  0  0  0  0  0  0  0  0
   39.4250   22.8240   36.7930 C   0  0  0  0  0  0  0  0  0  0  0  0
   38.3990   22.6310   37.0630 H   0  0  0  0  0  0  0  0  0  0  0  0
   40.5270   22.2590   37.4310 C   0  0  0  0  0  0  0  0  0  0  0  0
   40.3250   21.5890   38.2420 H   0  0  0  0  0  0  0  0  0  0  0  0
   41.8250   22.5440   37.0420 C   0  0  0  0  0  0  0  0  0  0  0  0
   42.6650   22.0800   37.5690 H   0  0  0  0  0  0  0  0  0  0  0  0
   42.0750   23.4000   36.0070 C   0  0  0  0  0  0  0  0  0  0  0  0
   43.7160   23.7590   35.5170 Cl  0  0  0  0  0  0  0  0  0  0  0  0
  1  4  1  1  0  0  0
  1  3  1  0  0  0  0
  1  2  1  0  0  0  0
  2  6  1  0  0  0  0
  3  2  1  0  0  0  0
  3  7  1  1  0  0  0
  5  2  1  0  0  0  0
  8 13  1  0  0  0  0
  9  8  2  0  0  0  0
  9 10  1  0  0  0  0
 10 11  2  0  0  0  0
 11 12  1  0  0  0  0
 12  1  1  0  0  0  0
 13 12  2  0  0  0  0
 14  8  1  0  0  0  0
 15  9  1  0  0  0  0
 16 10  1  0  0  0  0
 17  3  1  0  0  0  0
 17 20  1  0  0  0  0
 18 19  1  0  0  0  0
 19 20  2  0  0  0  0
 19 27  1  0  0  0  0
 20 21  1  0  0  0  0
 21 22  1  0  0  0  0
 21 23  2  0  0  0  0
 23 24  1  0  0  0  0
 25 23  1  0  0  0  0
 25 26  1  0  0  0  0
 27 25  2  0  0  0  0
 28 27  1  0  0  0  0
M  END
>  <minimizedAffinity>
-4.52347803

$$$$

 OpenBabel03262520543D

 28 30  0  0  1  0  0  0  0  0999 V2000
   40.1090   25.4240   34.8350 C   0  0  2  0  0  0  0  0  0  0  0  0
   39.9230   26.8730   34.8490 C   0  0  0  0  0  0  0  0  0  0  0  0
   39.6150   26.0960   33.6000 C   0  0  2  0  0  0  0  0  0  0  0  0
   41.1330   25.0080   34.8140 H   0  0  0  0  0  0  0  0  0  0  0  0
   39.0550   27.3630   35.3550 H   0  0  0  0  0  0  0  0  0  0  0  0
   40.8020   27.5290   34.7860 H   0  0  0  0  0  0  0  0  0  0  0  0
   40.3530   26.1100   32.7600 H   0  0  0  0  0  0  0  0  0  0  0  0
   37.5290   24.0510   37.1660 C   0  0  0  0  0  0  0  0  0  0  0  0
   37.4600   22.7200   36.7360 C   0  0  0  0  0  0  0  0  0  0  0  0
   38.2840   22.3000   35.6520 C   0  0  0  0  0  0  0  0  0  0  0  0
   39.1130   23.2190   35.0800 N   0  0  0  0  0  0  0  0  0  0  0  0
   39.1540   24.4920   35.5200 C   0  0  0  0  0  0  0  0  0  0  0  0
   38.3790   24.9220   36.5510 N   0  0  0  0  0  0  0  0  0  0  0  0
   36.8980   24.3570   37.9890 H   0  0  0  0  0  0  0  0  0  0  0  0
   36.8180   21.9770   37.1660 H   0  0  0  0  0  0  0  0  0  0  0  0
   38.2940   21.3090   35.2630 H   0  0  0  0  0  0  0  0  0  0  0  0
   37.8670   25.8380   33.1690 S   0  0  0  0  0  0  0  0  0  0  0  0
   36.5600   28.2510   34.5850 Cl  0  0  0  0  0  0  0  0  0  0  0  0
   36.7190   28.2240   32.8280 C   0  0  0  0  0  0  0  0  0  0  0  0
   37.2980   27.1640   32.1440 C   0  0  0  0  0  0  0  0  0  0  0  0
   37.4040   27.1810   30.7700 C   0  0  0  0  0  0  0  0  0  0  0  0
   37.8600   26.3380   30.2770 H   0  0  0  0  0  0  0  0  0  0  0  0
   36.9050   28.3040   30.1110 C   0  0  0  0  0  0  0  0  0  0  0  0
   36.9890   28.3140   29.0440 H   0  0  0  0  0  0  0  0  0  0  0  0
   36.3280   29.3590   30.7960 C   0  0  0  0  0  0  0  0  0  0  0  0
   35.9470   30.2240   30.2430 H   0  0  0  0  0  0  0  0  0  0  0  0
   36.2250   29.3390   32.1590 C   0  0  0  0  0  0  0  0  0  0  0  0
   35.4950   30.6740   33.0220 Cl  0  0  0  0  0  0  0  0  0  0  0  0
  1  4  1  6  0  0  0
  1  2  1  0  0  0  0
  1 12  1  0  0  0  0
  2  5  1  0  0  0  0
  3  7  1  6  0  0  0
  3  1  1  0  0  0  0
  3  2  1  0  0  0  0
  6  2  1  0  0  0  0
  8 14  1  0  0  0  0
  9 15  1  0  0  0  0
  9  8  1  0  0  0  0
 10  9  2  0  0  0  0
 11 12  2  0  0  0  0
 11 10  1  0  0  0  0
 12 13  1  0  0  0  0
 13  8  2  0  0  0  0
 16 10  1  0  0  0  0
 17  3  1  0  0  0  0
 19 18  1  0  0  0  0
 20 19  2  0  0  0  0
 20 17  1  0  0  0  0
 21 20  1  0  0  0  0
 22 21  1  0  0  0  0
 23 21  2  0  0  0  0
 23 25  1  0  0  0  0
 24 23  1  0  0  0  0
 25 27  2  0  0  0  0
 26 25  1  0  0  0  0
 27 19  1  0  0  0  0
 27 28  1  0  0  0  0
M  END
>  <minimizedAffinity>
-4.52310324

$$$$
