REMARK  Name = 
REMARK  5 active torsions:
REMARK  status: ('A' for Active; 'I' for Inactive)
REMARK    1  A    between atoms: C_3  and  C_10
REMARK    2  A    between atoms: C_7  and  N_16
REMARK    3  A    between atoms: C_14  and  C_18
REMARK    4  A    between atoms: C_25  and  O_26
REMARK    5  A    between atoms: O_26  and  C_40
REMARK                            x       y       z     vdW  Elec       q    Type
REMARK                         _______ _______ _______ _____ _____    ______ ____
ROOT
ATOM      1  C   UNL     1      39.188  32.198  42.548  0.00  0.00    +0.000 A 
ATOM      2  C   UNL     1      39.716  31.488  43.616  0.00  0.00    +0.000 A 
ATOM      3  C   UNL     1      40.597  30.466  43.461  0.00  0.00    +0.000 A 
ATOM      4  C   UNL     1      41.004  30.095  42.176  0.00  0.00    +0.000 A 
ATOM      5  N   UNL     1      41.842  29.166  41.725  0.00  0.00    +0.000 N 
ATOM      6  C   UNL     1      41.876  29.250  40.409  0.00  0.00    +0.000 A 
ATOM      7  N   UNL     1      41.057  30.233  40.028  0.00  0.00    +0.000 NA
ATOM      8  C   UNL     1      40.483  30.795  41.123  0.00  0.00    +0.000 A 
ATOM      9  C   UNL     1      39.574  31.852  41.235  0.00  0.00    +0.000 A 
ATOM     10  H   UNL     1      38.486  33.014  42.653  0.00  0.00    +0.000 HD
ATOM     11  H   UNL     1      41.014  29.908  44.276  0.00  0.00    +0.000 HD
ATOM     12  H   UNL     1      42.405  28.463  42.289  0.00  0.00    +0.000 HD
ATOM     13  H   UNL     1      42.441  28.663  39.679  0.00  0.00    +0.000 HD
ENDROOT
BRANCH   2  14
ATOM     14  C   UNL     1      39.275  31.899  44.929  0.00  0.00    +0.000 C 
ATOM     15  O   UNL     1      38.185  32.549  45.050  0.00  0.00    +0.000 OA
ATOM     16  N   UNL     1      39.956  31.643  46.143  0.00  0.00    +0.000 N 
ATOM     17  H   UNL     1      40.848  31.127  46.102  0.00  0.00    +0.000 HD
BRANCH  16  24
ATOM     18  F   UNL     1      38.119  30.153  47.485  0.00  0.00    +0.000 F 
ATOM     19  C   UNL     1      38.378  31.396  47.974  0.00  0.00    +0.000 A 
ATOM     20  C   UNL     1      37.725  31.834  49.085  0.00  0.00    +0.000 A 
ATOM     21  C   UNL     1      38.033  33.093  49.526  0.00  0.00    +0.000 A 
ATOM     22  C   UNL     1      38.944  33.889  48.899  0.00  0.00    +0.000 A 
ATOM     23  C   UNL     1      39.595  33.419  47.769  0.00  0.00    +0.000 A 
ATOM     24  C   UNL     1      39.299  32.148  47.307  0.00  0.00    +0.000 A 
ATOM     25  H   UNL     1      37.522  33.467  50.415  0.00  0.00    +0.000 HD
ATOM     26  H   UNL     1      39.183  34.883  49.251  0.00  0.00    +0.000 HD
ATOM     27  H   UNL     1      40.321  34.039  47.262  0.00  0.00    +0.000 HD
BRANCH  20  30
ATOM     28  C   UNL     1      36.080  29.370  51.443  0.00  0.00    +0.000 A 
ATOM     29  C   UNL     1      37.045  30.225  50.856  0.00  0.00    +0.000 A 
ATOM     30  C   UNL     1      36.755  30.942  49.719  0.00  0.00    +0.000 A 
ATOM     31  N   UNL     1      35.492  30.782  49.191  0.00  0.00    +0.000 NA
ATOM     32  C   UNL     1      34.581  29.972  49.749  0.00  0.00    +0.000 A 
ATOM     33  N   UNL     1      34.871  29.283  50.849  0.00  0.00    +0.000 NA
ATOM     34  H   UNL     1      36.314  28.809  52.338  0.00  0.00    +0.000 HD
ATOM     35  H   UNL     1      38.032  30.325  51.302  0.00  0.00    +0.000 HD
ATOM     36  H   UNL     1      33.648  29.973  49.197  0.00  0.00    +0.000 HD
ENDBRANCH  20  30
ENDBRANCH  16  24
ENDBRANCH   2  14
BRANCH   9  37
ATOM     37  O   UNL     1      39.059  32.548  40.197  0.00  0.00    +0.000 OA
BRANCH  37  40
ATOM     38 CL   UNL     1      37.971  34.682  37.980  0.00  0.00    +0.000 Cl
ATOM     39  C   UNL     1      37.669  32.971  38.059  0.00  0.00    +0.000 A 
ATOM     40  C   UNL     1      38.298  32.428  39.142  0.00  0.00    +0.000 A 
ATOM     41  C   UNL     1      38.015  31.031  39.199  0.00  0.00    +0.000 A 
ATOM     42  H   UNL     1      38.311  30.213  39.897  0.00  0.00    +0.000 HD
ATOM     43  C   UNL     1      37.221  30.331  38.289  0.00  0.00    +0.000 A 
ATOM     44  H   UNL     1      36.927  29.279  38.215  0.00  0.00    +0.000 HD
ATOM     45  C   UNL     1      36.648  31.029  37.232  0.00  0.00    +0.000 A 
ATOM     46  H   UNL     1      36.017  30.626  36.456  0.00  0.00    +0.000 HD
ATOM     47  C   UNL     1      36.879  32.363  37.123  0.00  0.00    +0.000 A 
ATOM     48 CL   UNL     1      36.234  33.361  35.862  0.00  0.00    +0.000 Cl
ENDBRANCH  37  40
ENDBRANCH   9  37
TORSDOF 5
