
 OpenBabel03272508583D

 42 45  0  0  1  0  0  0  0  0999 V2000
   39.1620   31.4220   43.3420 C   0  0  0  0  0  0  0  0  0  0  0  0
   40.2170   30.5710   43.5130 C   0  0  0  0  0  0  0  0  0  0  0  0
   40.9340   30.2010   42.3890 C   0  0  0  0  0  0  0  0  0  0  0  0
   40.5450   30.7070   41.1740 C   0  0  0  0  0  0  0  0  0  0  0  0
   39.4800   31.5680   40.9950 C   0  0  0  0  0  0  0  0  0  0  0  0
   38.8290   31.8880   42.1190 N   0  0  0  0  0  0  0  0  0  0  0  0
   40.5110   30.1800   44.4800 H   0  0  0  0  0  0  0  0  0  0  0  0
   41.7730   29.5320   42.4780 H   0  0  0  0  0  0  0  0  0  0  0  0
   41.1400   30.3860   40.3260 H   0  0  0  0  0  0  0  0  0  0  0  0
   38.3800   31.8350   44.5230 C   0  0  0  0  0  0  0  0  0  0  0  0
   37.2560   32.3740   44.4010 O   0  0  0  0  0  0  0  0  0  0  0  0
   38.9510   31.5980   45.8360 N   0  0  0  0  0  0  0  0  0  0  0  0
   39.9370   31.3600   45.9860 H   0  0  0  0  0  0  0  0  0  0  0  0
   38.4310   31.1040   48.2110 C   0  0  2  0  0  0  0  0  0  0  0  0
   38.6700   32.5680   48.1170 C   0  0  0  0  0  0  0  0  0  0  0  0
   38.0700   31.7080   46.9700 C   0  0  1  0  0  0  0  0  0  0  0  0
   39.3710   30.5240   48.3230 H   0  0  0  0  0  0  0  0  0  0  0  0
   39.6760   32.9650   47.9920 H   0  0  0  0  0  0  0  0  0  0  0  0
   37.9560   33.1860   48.7040 H   0  0  0  0  0  0  0  0  0  0  0  0
   36.9930   31.9440   46.7660 H   0  0  0  0  0  0  0  0  0  0  0  0
   35.0540   30.2450   49.5180 C   0  0  0  0  0  0  0  0  0  0  0  0
   35.3840   29.5740   50.7380 C   0  0  0  0  0  0  0  0  0  0  0  0
   36.7760   29.4380   51.0910 C   0  0  0  0  0  0  0  0  0  0  0  0
   37.7330   29.9520   50.2550 N   0  0  0  0  0  0  0  0  0  0  0  0
   37.3470   30.5730   49.1210 C   0  0  0  0  0  0  0  0  0  0  0  0
   36.0250   30.7360   48.7240 N   0  0  0  0  0  0  0  0  0  0  0  0
   34.0020   30.3260   49.2880 H   0  0  0  0  0  0  0  0  0  0  0  0
   34.6510   29.1650   51.4030 H   0  0  0  0  0  0  0  0  0  0  0  0
   37.0210   28.9320   52.0110 H   0  0  0  0  0  0  0  0  0  0  0  0
   39.1210   32.0700   39.6730 C   0  0  0  0  0  0  0  0  0  0  0  0
   39.0620   33.3300   39.5140 O   0  0  0  0  0  0  0  0  0  0  0  0
   41.4800   31.7860   37.8540 Cl  0  0  0  0  0  0  0  0  0  0  0  0
   39.8870   31.1070   37.6350 C   0  0  0  0  0  0  0  0  0  0  0  0
   38.8210   31.2630   38.5020 C   0  0  0  0  0  0  0  0  0  0  0  0
   37.5900   30.6900   38.2540 C   0  0  0  0  0  0  0  0  0  0  0  0
   36.8240   30.8630   38.9790 H   0  0  0  0  0  0  0  0  0  0  0  0
   37.4640   29.9520   37.0970 C   0  0  0  0  0  0  0  0  0  0  0  0
   36.4940   29.5060   36.9090 H   0  0  0  0  0  0  0  0  0  0  0  0
   38.4930   29.7670   36.2010 C   0  0  0  0  0  0  0  0  0  0  0  0
   38.3550   29.1820   35.3060 H   0  0  0  0  0  0  0  0  0  0  0  0
   39.7210   30.3530   36.4740 C   0  0  0  0  0  0  0  0  0  0  0  0
   40.9970   30.0920   35.3100 Cl  0  0  0  0  0  0  0  0  0  0  0  0
  1  2  1  0  0  0  0
  1 10  1  0  0  0  0
  2  7  1  0  0  0  0
  3  8  1  0  0  0  0
  3  2  2  0  0  0  0
  4  3  1  0  0  0  0
  5  4  2  0  0  0  0
  5  6  1  0  0  0  0
  6  1  2  0  0  0  0
  9  4  1  0  0  0  0
 10 12  1  0  0  0  0
 11 10  2  0  0  0  0
 12 13  1  0  0  0  0
 12 16  1  0  0  0  0
 14 17  1  6  0  0  0
 14 25  1  0  0  0  0
 15 14  1  0  0  0  0
 15 19  1  0  0  0  0
 16 20  1  6  0  0  0
 16 15  1  0  0  0  0
 16 14  1  0  0  0  0
 18 15  1  0  0  0  0
 21 22  1  0  0  0  0
 22 23  2  0  0  0  0
 22 28  1  0  0  0  0
 23 29  1  0  0  0  0
 24 23  1  0  0  0  0
 25 24  2  0  0  0  0
 26 25  1  0  0  0  0
 26 21  2  0  0  0  0
 27 21  1  0  0  0  0
 30  5  1  0  0  0  0
 31 30  2  0  0  0  0
 33 32  1  0  0  0  0
 33 34  1  0  0  0  0
 34 30  1  0  0  0  0
 35 34  2  0  0  0  0
 35 36  1  0  0  0  0
 37 35  1  0  0  0  0
 38 37  1  0  0  0  0
 39 41  1  0  0  0  0
 39 37  2  0  0  0  0
 40 39  1  0  0  0  0
 41 33  2  0  0  0  0
 42 41  1  0  0  0  0
M  END
>  <minimizedAffinity>
-4.93869305

>  <minimizedRMSD>
0.567776799

$$$$
