REMARK  Name = 
REMARK  3 active torsions:
REMARK  status: ('A' for Active; 'I' for Inactive)
REMARK    1  A    between atoms: C_1  and  C_7
REMARK    2  A    between atoms: C_6  and  N_15
REMARK    3  A    between atoms: C_13  and  C_32
REMARK                            x       y       z     vdW  Elec       q    Type
REMARK                         _______ _______ _______ _____ _____    ______ ____
ROOT
ATOM      1  C   UNL     1      36.075  30.690  49.067  0.00  0.00    +0.000 C 
ATOM      2  C   UNL     1      37.015  31.645  49.743  0.00  0.00    +0.000 C 
ATOM      3  C   UNL     1      38.047  30.942  50.601  0.00  0.00    +0.000 C 
ATOM      4  C   UNL     1      37.372  30.054  51.646  0.00  0.00    +0.000 C 
ATOM      5  C   UNL     1      36.109  29.387  51.150  0.00  0.00    +0.000 C 
ATOM      6  C   UNL     1      36.183  29.307  49.617  0.00  0.00    +0.000 C 
ATOM      7  H   UNL     1      34.993  30.969  49.190  0.00  0.00    +0.000 HD
ATOM      8  H   UNL     1      36.362  32.185  50.510  0.00  0.00    +0.000 HD
ATOM      9  H   UNL     1      37.443  32.424  49.148  0.00  0.00    +0.000 HD
ATOM     10  H   UNL     1      38.621  31.700  51.127  0.00  0.00    +0.000 HD
ATOM     11  H   UNL     1      38.691  30.269  50.006  0.00  0.00    +0.000 HD
ATOM     12  H   UNL     1      38.108  29.261  51.929  0.00  0.00    +0.000 HD
ATOM     13  H   UNL     1      37.172  30.674  52.527  0.00  0.00    +0.000 HD
ATOM     14  H   UNL     1      35.243  30.002  51.382  0.00  0.00    +0.000 HD
ATOM     15  H   UNL     1      35.959  28.377  51.570  0.00  0.00    +0.000 HD
ATOM     16  H   UNL     1      37.160  28.914  49.486  0.00  0.00    +0.000 HD
ENDROOT
BRANCH   1  17
ATOM     17  C   UNL     1      36.315  30.649  47.602  0.00  0.00    +0.000 A 
ATOM     18  C   UNL     1      37.581  31.121  47.180  0.00  0.00    +0.000 A 
ATOM     19  C   UNL     1      37.827  31.083  45.801  0.00  0.00    +0.000 A 
ATOM     20  N   UNL     1      36.847  30.601  44.961  0.00  0.00    +0.000 NA
ATOM     21  C   UNL     1      35.642  30.157  45.425  0.00  0.00    +0.000 A 
ATOM     22  N   UNL     1      35.401  30.192  46.748  0.00  0.00    +0.000 NA
ATOM     23  H   UNL     1      38.420  31.506  47.723  0.00  0.00    +0.000 HD
ATOM     24  H   UNL     1      38.729  31.404  45.332  0.00  0.00    +0.000 HD
ATOM     25  H   UNL     1      34.919  29.789  44.711  0.00  0.00    +0.000 HD
ENDBRANCH   1  17
BRANCH   6  28
ATOM     26  C   UNL     1      33.957  28.171  49.255  0.00  0.00    +0.000 C 
ATOM     27  O   UNL     1      33.105  28.888  49.923  0.00  0.00    +0.000 OA
ATOM     28  N   UNL     1      35.332  28.351  49.010  0.00  0.00    +0.000 N 
ATOM     29  H   UNL     1      35.634  27.637  48.277  0.00  0.00    +0.000 HD
BRANCH  26  32
ATOM     30 CL   UNL     1      31.035  28.491  48.172  0.00  0.00    +0.000 Cl
ATOM     31  C   UNL     1      31.866  26.982  48.269  0.00  0.00    +0.000 A 
ATOM     32  C   UNL     1      33.130  27.036  48.773  0.00  0.00    +0.000 A 
ATOM     33  C   UNL     1      33.753  25.775  48.825  0.00  0.00    +0.000 A 
ATOM     34  H   UNL     1      34.782  25.706  49.216  0.00  0.00    +0.000 HD
ATOM     35  C   UNL     1      33.211  24.570  48.428  0.00  0.00    +0.000 A 
ATOM     36  H   UNL     1      33.779  23.655  48.510  0.00  0.00    +0.000 HD
ATOM     37  C   UNL     1      31.935  24.624  47.937  0.00  0.00    +0.000 A 
ATOM     38  H   UNL     1      31.463  23.703  47.614  0.00  0.00    +0.000 HD
ATOM     39  C   UNL     1      31.272  25.822  47.860  0.00  0.00    +0.000 A 
ATOM     40 CL   UNL     1      29.634  25.938  47.233  0.00  0.00    +0.000 Cl
ENDBRANCH  26  32
ENDBRANCH   6  28
TORSDOF 3
