
 OpenBabel03272503053D

 34 36  0  0  0  0  0  0  0  0999 V2000
   38.3910   30.4810   47.2550 F   0  0  0  0  0  0  0  0  0  0  0  0
   38.7440   31.6990   47.7240 C   0  0  0  0  0  0  0  0  0  0  0  0
   38.3310   32.0920   48.9650 C   0  0  0  0  0  0  0  0  0  0  0  0
   38.7160   33.3350   49.3910 C   0  0  0  0  0  0  0  0  0  0  0  0
   39.4900   34.1830   48.6210 C   0  0  0  0  0  0  0  0  0  0  0  0
   39.8910   33.7610   47.3770 C   0  0  0  0  0  0  0  0  0  0  0  0
   39.5160   32.5040   46.9160 C   0  0  0  0  0  0  0  0  0  0  0  0
   38.4010   33.6630   50.3660 H   0  0  0  0  0  0  0  0  0  0  0  0
   39.7600   35.1540   49.0170 H   0  0  0  0  0  0  0  0  0  0  0  0
   40.5050   34.4120   46.7460 H   0  0  0  0  0  0  0  0  0  0  0  0
   37.1830   29.6410   51.6200 C   0  0  0  0  0  0  0  0  0  0  0  0
   37.9750   30.5280   50.8850 C   0  0  0  0  0  0  0  0  0  0  0  0
   37.5120   31.1610   49.7450 C   0  0  0  0  0  0  0  0  0  0  0  0
   36.2390   30.8720   49.3790 N   0  0  0  0  0  0  0  0  0  0  0  0
   35.4750   30.0180   50.0880 C   0  0  0  0  0  0  0  0  0  0  0  0
   35.9330   29.4170   51.1800 N   0  0  0  0  0  0  0  0  0  0  0  0
   37.6770   29.2090   52.5030 H   0  0  0  0  0  0  0  0  0  0  0  0
   39.0010   30.7700   51.1660 H   0  0  0  0  0  0  0  0  0  0  0  0
   34.4590   29.7900   49.7930 H   0  0  0  0  0  0  0  0  0  0  0  0
   38.8730   32.1200   44.6300 C   0  0  0  0  0  0  0  0  0  0  0  0
   37.7820   32.6140   45.0550 O   0  0  0  0  0  0  0  0  0  0  0  0
   39.9100   32.0230   45.6270 N   0  0  0  0  0  0  0  0  0  0  0  0
   40.8110   31.6290   45.3350 H   0  0  0  0  0  0  0  0  0  0  0  0
   39.0060   29.1480   44.1590 Cl  0  0  0  0  0  0  0  0  0  0  0  0
   39.1840   30.3500   42.8860 C   0  0  0  0  0  0  0  0  0  0  0  0
   39.0990   31.6780   43.2540 C   0  0  0  0  0  0  0  0  0  0  0  0
   39.2320   32.6780   42.2890 C   0  0  0  0  0  0  0  0  0  0  0  0
   39.1820   33.7550   42.4710 H   0  0  0  0  0  0  0  0  0  0  0  0
   39.4450   32.3120   40.9870 C   0  0  0  0  0  0  0  0  0  0  0  0
   39.5560   33.0630   40.1880 H   0  0  0  0  0  0  0  0  0  0  0  0
   39.5250   30.9760   40.6500 C   0  0  0  0  0  0  0  0  0  0  0  0
   39.6930   30.7280   39.6120 H   0  0  0  0  0  0  0  0  0  0  0  0
   39.3980   29.9540   41.5800 C   0  0  0  0  0  0  0  0  0  0  0  0
   39.5000   28.2580   41.1400 Cl  0  0  0  0  0  0  0  0  0  0  0  0
  1  2  1  0  0  0  0
  2  3  1  0  0  0  0
  3  4  2  0  0  0  0
  3 13  1  0  0  0  0
  4  8  1  0  0  0  0
  5  9  1  0  0  0  0
  5  4  1  0  0  0  0
  6  5  2  0  0  0  0
  7  6  1  0  0  0  0
  7  2  2  0  0  0  0
 10  6  1  0  0  0  0
 11 17  1  0  0  0  0
 12 18  1  0  0  0  0
 12 11  2  0  0  0  0
 13 12  1  0  0  0  0
 14 13  2  0  0  0  0
 14 15  1  0  0  0  0
 15 16  2  0  0  0  0
 16 11  1  0  0  0  0
 19 15  1  0  0  0  0
 20 21  2  0  0  0  0
 20 22  1  0  0  0  0
 22  7  1  0  0  0  0
 23 22  1  0  0  0  0
 25 26  1  0  0  0  0
 25 24  1  0  0  0  0
 26 20  1  0  0  0  0
 27 28  1  0  0  0  0
 27 26  2  0  0  0  0
 29 27  1  0  0  0  0
 30 29  1  0  0  0  0
 31 29  2  0  0  0  0
 31 33  1  0  0  0  0
 32 31  1  0  0  0  0
 33 25  2  0  0  0  0
 34 33  1  0  0  0  0
M  END
>  <minimizedAffinity>
-6.68720007

>  <minimizedRMSD>
0.553309798

$$$$
