
 OpenBabel03272503133D

 48 52  0  0  0  0  0  0  0  0999 V2000
   39.2160   32.2230   42.5630 C   0  0  0  0  0  0  0  0  0  0  0  0
   39.7220   31.4960   43.6310 C   0  0  0  0  0  0  0  0  0  0  0  0
   40.5860   30.4590   43.4750 C   0  0  0  0  0  0  0  0  0  0  0  0
   40.9970   30.0900   42.1910 C   0  0  0  0  0  0  0  0  0  0  0  0
   41.8210   29.1490   41.7400 N   0  0  0  0  0  0  0  0  0  0  0  0
   41.8680   29.2420   40.4250 C   0  0  0  0  0  0  0  0  0  0  0  0
   41.0700   30.2420   40.0450 N   0  0  0  0  0  0  0  0  0  0  0  0
   40.4970   30.8070   41.1390 C   0  0  0  0  0  0  0  0  0  0  0  0
   39.6070   31.8790   41.2510 C   0  0  0  0  0  0  0  0  0  0  0  0
   38.5280   33.0510   42.6680 H   0  0  0  0  0  0  0  0  0  0  0  0
   40.9860   29.8880   44.2900 H   0  0  0  0  0  0  0  0  0  0  0  0
   42.3670   28.4320   42.3040 H   0  0  0  0  0  0  0  0  0  0  0  0
   42.4280   28.6500   39.6960 H   0  0  0  0  0  0  0  0  0  0  0  0
   39.2780   31.9060   44.9430 C   0  0  0  0  0  0  0  0  0  0  0  0
   38.1860   32.5530   45.0620 O   0  0  0  0  0  0  0  0  0  0  0  0
   39.9570   31.6510   46.1580 N   0  0  0  0  0  0  0  0  0  0  0  0
   40.8500   31.1370   46.1190 H   0  0  0  0  0  0  0  0  0  0  0  0
   38.1220   30.1560   47.4970 F   0  0  0  0  0  0  0  0  0  0  0  0
   38.3770   31.3990   47.9860 C   0  0  0  0  0  0  0  0  0  0  0  0
   37.7210   31.8360   49.0960 C   0  0  0  0  0  0  0  0  0  0  0  0
   38.0240   33.0960   49.5380 C   0  0  0  0  0  0  0  0  0  0  0  0
   38.9340   33.8940   48.9120 C   0  0  0  0  0  0  0  0  0  0  0  0
   39.5880   33.4260   47.7830 C   0  0  0  0  0  0  0  0  0  0  0  0
   39.2970   32.1540   47.3210 C   0  0  0  0  0  0  0  0  0  0  0  0
   37.5110   33.4680   50.4260 H   0  0  0  0  0  0  0  0  0  0  0  0
   39.1690   34.8890   49.2640 H   0  0  0  0  0  0  0  0  0  0  0  0
   40.3130   34.0480   47.2770 H   0  0  0  0  0  0  0  0  0  0  0  0
   36.0810   29.3610   51.4480 C   0  0  0  0  0  0  0  0  0  0  0  0
   37.0450   30.2190   50.8620 C   0  0  0  0  0  0  0  0  0  0  0  0
   36.7520   30.9410   49.7290 C   0  0  0  0  0  0  0  0  0  0  0  0
   35.4880   30.7830   49.2030 N   0  0  0  0  0  0  0  0  0  0  0  0
   34.5780   29.9710   49.7600 C   0  0  0  0  0  0  0  0  0  0  0  0
   34.8710   29.2770   50.8560 N   0  0  0  0  0  0  0  0  0  0  0  0
   36.3180   28.7960   52.3400 H   0  0  0  0  0  0  0  0  0  0  0  0
   38.0330   30.3170   51.3060 H   0  0  0  0  0  0  0  0  0  0  0  0
   33.6440   29.9740   49.2100 H   0  0  0  0  0  0  0  0  0  0  0  0
   39.1130   32.5920   40.2140 O   0  0  0  0  0  0  0  0  0  0  0  0
   36.1150   32.9790   41.4450 Cl  0  0  0  0  0  0  0  0  0  0  0  0
   36.7890   33.7060   40.0160 C   0  0  0  0  0  0  0  0  0  0  0  0
   38.0760   33.2880   39.8330 C   0  0  0  0  0  0  0  0  0  0  0  0
   38.5970   33.8770   38.6440 C   0  0  0  0  0  0  0  0  0  0  0  0
   39.5810   33.8170   38.1210 H   0  0  0  0  0  0  0  0  0  0  0  0
   37.9000   34.7450   37.8010 C   0  0  0  0  0  0  0  0  0  0  0  0
   38.1740   35.2590   36.8740 H   0  0  0  0  0  0  0  0  0  0  0  0
   36.5900   35.0780   38.1250 C   0  0  0  0  0  0  0  0  0  0  0  0
   35.9330   35.7310   37.5740 H   0  0  0  0  0  0  0  0  0  0  0  0
   36.0350   34.5480   39.2460 C   0  0  0  0  0  0  0  0  0  0  0  0
   34.4180   34.8710   39.7760 Cl  0  0  0  0  0  0  0  0  0  0  0  0
  1 10  1  0  0  0  0
  1  2  1  0  0  0  0
  2 14  1  0  0  0  0
  3  2  2  0  0  0  0
  3 11  1  0  0  0  0
  4  3  1  0  0  0  0
  5  4  1  0  0  0  0
  5 12  1  0  0  0  0
  6  5  1  0  0  0  0
  7  6  2  0  0  0  0
  7  8  1  0  0  0  0
  8  9  1  0  0  0  0
  8  4  2  0  0  0  0
  9  1  2  0  0  0  0
 13  6  1  0  0  0  0
 14 15  2  0  0  0  0
 14 16  1  0  0  0  0
 16 24  1  0  0  0  0
 17 16  1  0  0  0  0
 18 19  1  0  0  0  0
 19 20  1  0  0  0  0
 20 21  2  0  0  0  0
 20 30  1  0  0  0  0
 21 25  1  0  0  0  0
 22 26  1  0  0  0  0
 22 21  1  0  0  0  0
 23 22  2  0  0  0  0
 24 23  1  0  0  0  0
 24 19  2  0  0  0  0
 27 23  1  0  0  0  0
 28 34  1  0  0  0  0
 29 35  1  0  0  0  0
 29 28  1  0  0  0  0
 30 29  2  0  0  0  0
 31 30  1  0  0  0  0
 31 32  2  0  0  0  0
 32 33  1  0  0  0  0
 33 28  2  0  0  0  0
 36 32  1  0  0  0  0
 37  9  1  0  0  0  0
 39 38  1  0  0  0  0
 40 39  1  0  0  0  0
 40 37  1  0  0  0  0
 41 40  2  0  0  0  0
 42 41  1  0  0  0  0
 43 45  2  0  0  0  0
 43 41  1  0  0  0  0
 44 43  1  0  0  0  0
 45 47  1  0  0  0  0
 46 45  1  0  0  0  0
 47 48  1  0  0  0  0
 47 39  2  0  0  0  0
M  END
>  <minimizedAffinity>
-7.62885237

>  <minimizedRMSD>
1.34576058

$$$$
