
 OpenBabel03272503133D

 48 52  0  0  0  0  0  0  0  0999 V2000
   38.9670   32.0050   42.5350 C   0  0  0  0  0  0  0  0  0  0  0  0
   39.6230   31.4080   43.6020 C   0  0  0  0  0  0  0  0  0  0  0  0
   40.6020   30.4800   43.4420 C   0  0  0  0  0  0  0  0  0  0  0  0
   40.9810   30.0930   42.1530 C   0  0  0  0  0  0  0  0  0  0  0  0
   41.8920   29.2390   41.6960 N   0  0  0  0  0  0  0  0  0  0  0  0
   41.8500   29.2610   40.3780 C   0  0  0  0  0  0  0  0  0  0  0  0
   40.9100   30.1310   40.0020 N   0  0  0  0  0  0  0  0  0  0  0  0
   40.3340   30.6810   41.1020 C   0  0  0  0  0  0  0  0  0  0  0  0
   39.3210   31.6380   41.2190 C   0  0  0  0  0  0  0  0  0  0  0  0
   38.1860   32.7450   42.6440 H   0  0  0  0  0  0  0  0  0  0  0  0
   41.1180   30.0110   44.2550 H   0  0  0  0  0  0  0  0  0  0  0  0
   42.5570   28.6280   42.2580 H   0  0  0  0  0  0  0  0  0  0  0  0
   42.4380   28.7040   39.6440 H   0  0  0  0  0  0  0  0  0  0  0  0
   39.2070   31.8330   44.9180 C   0  0  0  0  0  0  0  0  0  0  0  0
   38.1120   32.4730   45.0550 O   0  0  0  0  0  0  0  0  0  0  0  0
   39.9170   31.6020   46.1200 N   0  0  0  0  0  0  0  0  0  0  0  0
   40.8140   31.0950   46.0660 H   0  0  0  0  0  0  0  0  0  0  0  0
   38.0890   30.1300   47.4940 F   0  0  0  0  0  0  0  0  0  0  0  0
   38.3640   31.3730   47.9750 C   0  0  0  0  0  0  0  0  0  0  0  0
   37.7310   31.8200   49.0930 C   0  0  0  0  0  0  0  0  0  0  0  0
   38.0540   33.0790   49.5250 C   0  0  0  0  0  0  0  0  0  0  0  0
   38.9610   33.8660   48.8810 C   0  0  0  0  0  0  0  0  0  0  0  0
   39.5930   33.3870   47.7440 C   0  0  0  0  0  0  0  0  0  0  0  0
   39.2810   32.1160   47.2910 C   0  0  0  0  0  0  0  0  0  0  0  0
   37.5580   33.4600   50.4190 H   0  0  0  0  0  0  0  0  0  0  0  0
   39.2120   34.8590   49.2260 H   0  0  0  0  0  0  0  0  0  0  0  0
   40.3160   34.0000   47.2240 H   0  0  0  0  0  0  0  0  0  0  0  0
   36.1030   29.3740   51.4820 C   0  0  0  0  0  0  0  0  0  0  0  0
   37.0660   30.2200   50.8780 C   0  0  0  0  0  0  0  0  0  0  0  0
   36.7630   30.9380   49.7450 C   0  0  0  0  0  0  0  0  0  0  0  0
   35.4910   30.7880   49.2380 N   0  0  0  0  0  0  0  0  0  0  0  0
   34.5820   29.9870   49.8120 C   0  0  0  0  0  0  0  0  0  0  0  0
   34.8840   29.2970   50.9080 N   0  0  0  0  0  0  0  0  0  0  0  0
   36.3470   28.8130   52.3740 H   0  0  0  0  0  0  0  0  0  0  0  0
   38.0610   30.3120   51.3070 H   0  0  0  0  0  0  0  0  0  0  0  0
   33.6400   29.9950   49.2760 H   0  0  0  0  0  0  0  0  0  0  0  0
   38.6810   32.2240   40.1820 O   0  0  0  0  0  0  0  0  0  0  0  0
   37.3500   34.7590   38.6160 Cl  0  0  0  0  0  0  0  0  0  0  0  0
   36.6060   33.2410   39.0240 C   0  0  0  0  0  0  0  0  0  0  0  0
   37.4930   32.4410   39.6850 C   0  0  0  0  0  0  0  0  0  0  0  0
   36.8520   31.2140   40.0300 C   0  0  0  0  0  0  0  0  0  0  0  0
   37.1880   30.2940   40.5630 H   0  0  0  0  0  0  0  0  0  0  0  0
   35.5280   30.8850   39.7360 C   0  0  0  0  0  0  0  0  0  0  0  0
   34.9210   29.9970   39.9380 H   0  0  0  0  0  0  0  0  0  0  0  0
   34.7480   31.8110   39.0520 C   0  0  0  0  0  0  0  0  0  0  0  0
   33.7180   31.6980   38.7570 H   0  0  0  0  0  0  0  0  0  0  0  0
   35.3010   32.9990   38.6960 C   0  0  0  0  0  0  0  0  0  0  0  0
   34.4540   34.2480   37.8410 Cl  0  0  0  0  0  0  0  0  0  0  0  0
  1 10  1  0  0  0  0
  1  2  1  0  0  0  0
  2 14  1  0  0  0  0
  3  2  2  0  0  0  0
  3 11  1  0  0  0  0
  4  3  1  0  0  0  0
  5  4  1  0  0  0  0
  5 12  1  0  0  0  0
  6  5  1  0  0  0  0
  7  6  2  0  0  0  0
  7  8  1  0  0  0  0
  8  9  1  0  0  0  0
  8  4  2  0  0  0  0
  9  1  2  0  0  0  0
 13  6  1  0  0  0  0
 14 15  2  0  0  0  0
 14 16  1  0  0  0  0
 16 24  1  0  0  0  0
 17 16  1  0  0  0  0
 18 19  1  0  0  0  0
 19 20  1  0  0  0  0
 20 21  2  0  0  0  0
 20 30  1  0  0  0  0
 21 25  1  0  0  0  0
 22 26  1  0  0  0  0
 22 21  1  0  0  0  0
 23 22  2  0  0  0  0
 24 23  1  0  0  0  0
 24 19  2  0  0  0  0
 27 23  1  0  0  0  0
 28 34  1  0  0  0  0
 29 35  1  0  0  0  0
 29 28  2  0  0  0  0
 30 29  1  0  0  0  0
 31 30  2  0  0  0  0
 31 32  1  0  0  0  0
 32 33  2  0  0  0  0
 33 28  1  0  0  0  0
 36 32  1  0  0  0  0
 37  9  1  0  0  0  0
 38 39  1  0  0  0  0
 39 40  1  0  0  0  0
 40 41  2  0  0  0  0
 40 37  1  0  0  0  0
 41 42  1  0  0  0  0
 43 44  1  0  0  0  0
 43 41  1  0  0  0  0
 45 43  2  0  0  0  0
 46 45  1  0  0  0  0
 47 39  2  0  0  0  0
 47 45  1  0  0  0  0
 48 47  1  0  0  0  0
M  END
>  <minimizedAffinity>
-7.13783503

>  <minimizedRMSD>
1.15546405

$$$$
