
 OpenBabel03272508573D

 42 45  0  0  1  0  0  0  0  0999 V2000
   39.1410   31.4990   43.3560 C   0  0  0  0  0  0  0  0  0  0  0  0
   40.1190   30.5530   43.4900 C   0  0  0  0  0  0  0  0  0  0  0  0
   40.8310   30.2000   42.3570 C   0  0  0  0  0  0  0  0  0  0  0  0
   40.5160   30.8160   41.1720 C   0  0  0  0  0  0  0  0  0  0  0  0
   39.5280   31.7720   41.0300 C   0  0  0  0  0  0  0  0  0  0  0  0
   38.8770   32.0700   42.1610 N   0  0  0  0  0  0  0  0  0  0  0  0
   40.3560   30.0770   44.4340 H   0  0  0  0  0  0  0  0  0  0  0  0
   41.6100   29.4600   42.4180 H   0  0  0  0  0  0  0  0  0  0  0  0
   41.1030   30.5030   40.3160 H   0  0  0  0  0  0  0  0  0  0  0  0
   38.3660   31.8960   44.5470 C   0  0  0  0  0  0  0  0  0  0  0  0
   37.2390   32.4320   44.4380 O   0  0  0  0  0  0  0  0  0  0  0  0
   38.9470   31.6490   45.8530 N   0  0  0  0  0  0  0  0  0  0  0  0
   39.9350   31.4130   45.9930 H   0  0  0  0  0  0  0  0  0  0  0  0
   38.4390   31.1150   48.2220 C   0  0  2  0  0  0  0  0  0  0  0  0
   38.6860   32.5780   48.1530 C   0  0  0  0  0  0  0  0  0  0  0  0
   38.0740   31.7440   46.9950 C   0  0  1  0  0  0  0  0  0  0  0  0
   39.3750   30.5260   48.3170 H   0  0  0  0  0  0  0  0  0  0  0  0
   39.6940   32.9700   48.0290 H   0  0  0  0  0  0  0  0  0  0  0  0
   37.9800   33.1900   48.7560 H   0  0  0  0  0  0  0  0  0  0  0  0
   36.9970   31.9890   46.8020 H   0  0  0  0  0  0  0  0  0  0  0  0
   35.0650   30.2370   49.5260 C   0  0  0  0  0  0  0  0  0  0  0  0
   35.3970   29.5570   50.7400 C   0  0  0  0  0  0  0  0  0  0  0  0
   36.7900   29.4220   51.0900 C   0  0  0  0  0  0  0  0  0  0  0  0
   37.7450   29.9440   50.2570 N   0  0  0  0  0  0  0  0  0  0  0  0
   37.3570   30.5740   49.1280 C   0  0  0  0  0  0  0  0  0  0  0  0
   36.0340   30.7370   48.7340 N   0  0  0  0  0  0  0  0  0  0  0  0
   34.0120   30.3180   49.2970 H   0  0  0  0  0  0  0  0  0  0  0  0
   34.6660   29.1420   51.4030 H   0  0  0  0  0  0  0  0  0  0  0  0
   37.0370   28.9080   52.0060 H   0  0  0  0  0  0  0  0  0  0  0  0
   39.2450   32.3870   39.7390 C   0  0  0  0  0  0  0  0  0  0  0  0
   38.6690   33.5210   39.7370 O   0  0  0  0  0  0  0  0  0  0  0  0
   37.0890   30.5720   38.7330 Cl  0  0  0  0  0  0  0  0  0  0  0  0
   38.5850   30.9820   37.9340 C   0  0  0  0  0  0  0  0  0  0  0  0
   39.5590   31.8270   38.4350 C   0  0  0  0  0  0  0  0  0  0  0  0
   40.7170   32.0990   37.7370 C   0  0  0  0  0  0  0  0  0  0  0  0
   41.4130   32.7650   38.2000 H   0  0  0  0  0  0  0  0  0  0  0  0
   40.8660   31.4900   36.5090 C   0  0  0  0  0  0  0  0  0  0  0  0
   41.7790   31.7100   35.9680 H   0  0  0  0  0  0  0  0  0  0  0  0
   39.9290   30.6420   35.9660 C   0  0  0  0  0  0  0  0  0  0  0  0
   40.0830   30.1830   35.0020 H   0  0  0  0  0  0  0  0  0  0  0  0
   38.7730   30.3850   36.6890 C   0  0  0  0  0  0  0  0  0  0  0  0
   37.6110   29.3010   35.9610 Cl  0  0  0  0  0  0  0  0  0  0  0  0
  1  2  1  0  0  0  0
  1 10  1  0  0  0  0
  2  7  1  0  0  0  0
  3  8  1  0  0  0  0
  3  2  2  0  0  0  0
  4  3  1  0  0  0  0
  5  4  2  0  0  0  0
  5  6  1  0  0  0  0
  6  1  2  0  0  0  0
  9  4  1  0  0  0  0
 10 12  1  0  0  0  0
 11 10  2  0  0  0  0
 12 13  1  0  0  0  0
 12 16  1  0  0  0  0
 14 17  1  6  0  0  0
 14 25  1  0  0  0  0
 15 14  1  0  0  0  0
 15 19  1  0  0  0  0
 16 20  1  6  0  0  0
 16 15  1  0  0  0  0
 16 14  1  0  0  0  0
 18 15  1  0  0  0  0
 21 22  1  0  0  0  0
 22 23  2  0  0  0  0
 22 28  1  0  0  0  0
 23 29  1  0  0  0  0
 24 23  1  0  0  0  0
 25 24  2  0  0  0  0
 26 25  1  0  0  0  0
 26 21  2  0  0  0  0
 27 21  1  0  0  0  0
 30  5  1  0  0  0  0
 31 30  2  0  0  0  0
 33 34  1  0  0  0  0
 33 32  1  0  0  0  0
 34 30  1  0  0  0  0
 35 36  1  0  0  0  0
 35 34  2  0  0  0  0
 37 35  1  0  0  0  0
 38 37  1  0  0  0  0
 39 37  2  0  0  0  0
 39 41  1  0  0  0  0
 40 39  1  0  0  0  0
 41 33  2  0  0  0  0
 42 41  1  0  0  0  0
M  END
>  <minimizedAffinity>
-4.96971273

>  <minimizedRMSD>
1.08521628

$$$$
